data_functionalizedCrystal
_audit_creation_method	'MofGen! by Chris Wilmer'
_symmetry_space_group_name_H-M	'P1'
_symmetry_Int_Tables_number	1
_symmetry_cell_setting	triclinic
loop_
_symmetry_equiv_pos_as_xyz
  x,y,z
_cell_length_a	10.685980
_cell_length_b	16.625545
_cell_length_c	10.685880
_cell_angle_alpha	85.662549
_cell_angle_beta	80.918858
_cell_angle_gamma	85.609419
loop_
_atom_site_label
_atom_site_type_symbol
_atom_site_fract_x
_atom_site_fract_y
_atom_site_fract_z
Zn1	Zn	1.995671	0.265673	-0.866651
Zn2	Zn	2.245671	0.515673	-0.616651
Zn3	Zn	2.495671	0.765673	-0.366651
Zn4	Zn	2.745671	1.015673	-0.116651
Zn5	Zn	1.979228	0.390940	-0.654384
Zn6	Zn	2.229228	0.640940	-0.404384
Zn7	Zn	2.479228	0.890940	-0.154384
Zn8	Zn	2.729228	1.140940	0.095616
Zn9	Zn	1.767111	0.265715	-0.638123
Zn10	Zn	2.017111	0.515715	-0.388123
Zn11	Zn	2.267111	0.765715	-0.138123
Zn12	Zn	2.517111	1.015715	0.111877
Zn13	Zn	1.783336	0.410063	-0.850286
Zn14	Zn	2.033336	0.660063	-0.600286
Zn15	Zn	2.283336	0.910063	-0.350286
Zn16	Zn	2.533336	1.160063	-0.100286
O17	O	1.881336	0.333098	-0.752361
O18	O	2.131336	0.583098	-0.502361
O19	O	2.381336	0.833098	-0.252361
O20	O	2.631336	1.083098	-0.002361
O21	O	2.171124	0.274269	-0.852147
O22	O	2.421124	0.524269	-0.602147
O23	O	2.671124	0.774269	-0.352147
O24	O	2.921124	1.024269	-0.102147
O25	O	1.937419	0.366343	-0.474602
O26	O	2.187419	0.616343	-0.224602
O27	O	2.437419	0.866343	0.025398
O28	O	2.687419	1.116343	0.275398
O29	O	1.797521	0.152875	-0.668482
O30	O	2.047521	0.402875	-0.418482
O31	O	2.297521	0.652875	-0.168482
O32	O	2.547521	0.902875	0.081518
O33	O	2.159044	0.366302	-0.696196
O34	O	2.409044	0.616302	-0.446196
O35	O	2.659044	0.866302	-0.196196
O36	O	2.909044	1.116302	0.053804
O37	O	1.965443	0.152844	-0.836380
O38	O	2.215443	0.402844	-0.586380
O39	O	2.465443	0.652844	-0.336380
O40	O	2.715443	0.902844	-0.086380
O41	O	1.781577	0.274342	-0.462655
O42	O	2.031577	0.524342	-0.212655
O43	O	2.281577	0.774342	0.037345
O44	O	2.531577	1.024342	0.287345
O45	O	1.591628	0.292884	-0.652613
O46	O	1.841628	0.542884	-0.402613
O47	O	2.091628	0.792884	-0.152613
O48	O	2.341628	1.042884	0.097387
O49	O	1.825174	0.398894	-1.030082
O50	O	2.075174	0.648894	-0.780082
O51	O	2.325174	0.898894	-0.530082
O52	O	2.575174	1.148894	-0.280082
O53	O	1.603549	0.398936	-0.808488
O54	O	1.853549	0.648936	-0.558488
O55	O	2.103549	0.898936	-0.308488
O56	O	2.353549	1.148936	-0.058488
O57	O	1.981175	0.292812	-1.042105
O58	O	2.231175	0.542812	-0.792105
O59	O	2.481175	0.792812	-0.542105
O60	O	2.731175	1.042812	-0.292105
O61	O	1.953152	0.506311	-0.680327
O62	O	2.203152	0.756311	-0.430327
O63	O	2.453152	1.006311	-0.180327
O64	O	2.703152	1.256311	0.069673
O65	O	1.809230	0.520361	-0.824255
O66	O	2.059230	0.770361	-0.574255
O67	O	2.309230	1.020361	-0.324255
O68	O	2.559230	1.270361	-0.074255
C69	C	1.551530	0.347990	-0.727011
C70	C	1.801530	0.597990	-0.477011
C71	C	2.051530	0.847990	-0.227011
C72	C	2.301530	1.097990	0.022989
C73	C	1.410439	0.354382	-0.716196
C74	C	1.660439	0.604382	-0.466196
C75	C	1.910439	0.854382	-0.216196
C76	C	2.160439	1.104382	0.033804
C77	C	1.881204	0.542593	-0.752310
C78	C	2.131204	0.792593	-0.502310
C79	C	2.381204	1.042593	-0.252310
C80	C	2.631204	1.292593	-0.002310
C81	C	1.881267	0.632212	-0.752340
C82	C	2.131267	0.882212	-0.502340
C83	C	2.381267	1.132212	-0.252340
C84	C	2.631267	1.382212	-0.002340
C85	C	1.881486	0.960385	-0.752508
C86	C	2.131486	1.210385	-0.502508
C87	C	2.381486	1.460385	-0.252508
C88	C	2.631486	1.710385	-0.002508
C89	C	1.881421	0.869078	-0.752464
C90	C	2.131421	1.119078	-0.502464
C91	C	2.381421	1.369078	-0.252464
C92	C	2.631421	1.619078	-0.002464
C93	C	1.881375	0.796302	-0.752423
C94	C	2.131375	1.046302	-0.502423
C95	C	2.381375	1.296302	-0.252423
C96	C	2.631375	1.546302	-0.002423
C97	C	1.881313	0.704988	-0.752381
C98	C	2.131313	0.954988	-0.502381
C99	C	2.381313	1.204988	-0.252381
C100	C	2.631313	1.454988	-0.002381
C101	C	2.212431	0.318148	-0.777811
C102	C	2.462431	0.568148	-0.527811
C103	C	2.712431	0.818148	-0.277811
C104	C	2.962431	1.068148	-0.027811
C105	C	2.353523	0.311777	-0.788656
C106	C	2.603523	0.561777	-0.538656
C107	C	2.853523	0.811777	-0.288656
C108	C	3.103523	1.061777	-0.038656
C109	C	1.906819	0.347981	-1.083437
C110	C	2.156819	0.597981	-0.833437
C111	C	2.406819	0.847981	-0.583437
C112	C	2.656819	1.097981	-0.333437
C113	C	1.917678	0.354324	-1.224523
C114	C	2.167678	0.604324	-0.974523
C115	C	2.417678	0.854324	-0.724523
C116	C	2.667678	1.104324	-0.474523
C117	C	1.881496	1.122786	-0.752456
C118	C	2.131496	1.372786	-0.502456
C119	C	2.381496	1.622786	-0.252456
C120	C	2.631496	1.872786	-0.002456
C121	C	1.881540	1.033166	-0.752533
C122	C	2.131540	1.283166	-0.502533
C123	C	2.381540	1.533166	-0.252533
C124	C	2.631540	1.783166	-0.002533
C125	C	1.856026	0.318211	-0.422578
C126	C	2.106026	0.568211	-0.172578
C127	C	2.356026	0.818211	0.077422
C128	C	2.606026	1.068211	0.327422
C129	C	1.845413	0.311630	-0.281513
C130	C	2.095413	0.561630	-0.031513
C131	C	2.345413	0.811630	0.218487
C132	C	2.595413	1.061630	0.468487
H133	H	1.351222	0.395751	-0.645876
H134	H	1.601222	0.645751	-0.395876
H135	H	1.851222	0.895751	-0.145876
H136	H	2.101222	1.145751	0.104124
H137	H	1.412733	0.270405	-0.858963
H138	H	1.662733	0.520405	-0.608963
H139	H	1.912733	0.770405	-0.358963
H140	H	2.162733	1.020405	-0.108963
H141	H	1.775227	0.270228	-1.222369
H142	H	2.025227	0.520228	-0.972369
H143	H	2.275227	0.770228	-0.722369
H144	H	2.525227	1.020228	-0.472369
H145	H	1.987863	0.395732	-1.283672
H146	H	2.237863	0.645732	-1.033672
H147	H	2.487863	0.895732	-0.783672
H148	H	2.737863	1.145732	-0.533672
