data_functionalizedCrystal
_audit_creation_method	'MofGen! by Chris Wilmer'
_symmetry_space_group_name_H-M	'P1'
_symmetry_Int_Tables_number	1
_symmetry_cell_setting	triclinic
loop_
_symmetry_equiv_pos_as_xyz
  x,y,z
_cell_length_a	12.827893
_cell_length_b	16.959453
_cell_length_c	12.827885
_cell_angle_alpha	89.965838
_cell_angle_beta	89.980538
_cell_angle_gamma	90.020148
loop_
_atom_site_label
_atom_site_type_symbol
_atom_site_fract_x
_atom_site_fract_y
_atom_site_fract_z
Zn1	Zn	1.597638	-0.314638	-0.590818
Zn2	Zn	2.097638	0.185362	-0.090818
Zn3	Zn	1.597518	-0.446838	-0.416066
Zn4	Zn	2.097518	0.053162	0.083934
Zn5	Zn	1.422879	-0.314678	-0.416092
Zn6	Zn	1.922879	0.185322	0.083908
Zn7	Zn	1.422851	-0.446779	-0.590766
Zn8	Zn	1.922851	0.053221	-0.090766
O9	O	1.510221	-0.380733	-0.503435
O10	O	2.010221	0.119267	-0.003435
O11	O	1.743858	-0.332183	-0.567648
O12	O	2.243858	0.167817	-0.067648
O13	O	1.574313	-0.429348	-0.269833
O14	O	2.074313	0.070652	0.230167
O15	O	1.446123	-0.204062	-0.439303
O16	O	1.946123	0.295938	0.060697
O17	O	1.743770	-0.429310	-0.439258
O18	O	2.243770	0.070690	0.060742
O19	O	1.574518	-0.204033	-0.567673
O20	O	2.074518	0.295967	-0.067673
O21	O	1.446007	-0.332250	-0.269852
O22	O	1.946007	0.167750	0.230148
O23	O	1.276639	-0.332193	-0.439252
O24	O	1.776639	0.167807	0.060748
O25	O	1.446075	-0.429209	-0.737009
O26	O	1.946075	0.070791	-0.237009
O27	O	1.276619	-0.429247	-0.567584
O28	O	1.776619	0.070753	-0.067584
O29	O	1.574491	-0.332126	-0.737047
O30	O	2.074491	0.167874	-0.237047
O31	O	1.574286	-0.557441	-0.439207
O32	O	2.074286	-0.057441	0.060793
O33	O	1.445959	-0.557398	-0.567559
O34	O	1.945959	-0.057398	-0.067559
C35	C	1.238712	-0.380719	-0.503416
C36	C	1.738712	0.119281	-0.003416
C37	C	1.122558	-0.380732	-0.503432
C38	C	1.622558	0.119268	-0.003432
C39	C	1.070817	-0.332756	-0.567062
C40	C	1.570817	0.167244	-0.067062
C41	C	0.950767	-0.332768	-0.567080
C42	C	1.450767	0.167232	-0.067080
C43	C	1.510134	-0.586100	-0.503397
C44	C	2.010134	-0.086100	-0.003397
C45	C	1.510193	-0.673956	-0.503416
C46	C	2.010193	-0.173956	-0.003416
C47	C	1.577162	-1.045358	-0.570404
C48	C	2.077162	-0.545358	-0.070404
C49	C	1.443573	-1.045505	-0.436622
C50	C	1.943573	-0.545505	0.063378
C51	C	1.443534	-0.962959	-0.436598
C52	C	1.943534	-0.462959	0.063402
C53	C	1.510309	-0.921609	-0.503479
C54	C	2.010309	-0.421609	-0.003479
C55	C	1.577123	-0.962805	-0.570384
C56	C	2.077123	-0.462805	-0.070384
C57	C	1.376713	-0.921758	-0.369701
C58	C	1.876713	-0.421758	0.130299
C59	C	1.376671	-0.839207	-0.369675
C60	C	1.876671	-0.339207	0.130325
C61	C	1.443453	-0.797855	-0.436552
C62	C	1.943453	-0.297855	0.063448
C63	C	1.510270	-0.839056	-0.503459
C64	C	2.010270	-0.339056	-0.003459
C65	C	1.577046	-0.797705	-0.570341
C66	C	2.077046	-0.297705	-0.070341
C67	C	1.643869	-0.838904	-0.637243
C68	C	2.143869	-0.338904	-0.137243
C69	C	1.643905	-0.921453	-0.637261
C70	C	2.143905	-0.421453	-0.137261
C71	C	1.443417	-0.715307	-0.436534
C72	C	1.943417	-0.215307	0.063466
C73	C	1.577007	-0.715152	-0.570321
C74	C	2.077007	-0.215152	-0.070321
C75	C	1.782792	-0.380749	-0.503456
C76	C	2.282792	0.119251	-0.003456
C77	C	1.898945	-0.380755	-0.503465
C78	C	2.398945	0.119245	-0.003465
C79	C	1.510293	-0.380657	-0.776006
C80	C	2.010293	0.119343	-0.276006
C81	C	1.510324	-0.380624	-0.892159
C82	C	2.010324	0.119376	-0.392159
C83	C	1.510337	-0.174565	-0.503497
C84	C	2.010337	0.325435	-0.003497
C85	C	1.510387	-0.086708	-0.503523
C86	C	2.010387	0.413292	-0.003523
C87	C	1.446800	-0.428644	-0.943925
C88	C	1.946800	0.071356	-0.443925
C89	C	1.446831	-0.428612	-1.063975
C90	C	1.946831	0.071388	-0.563975
C91	C	1.510210	-0.380753	-0.231926
C92	C	2.010210	0.119247	0.268074
C93	C	1.510382	-0.380563	-0.115773
C94	C	2.010382	0.119437	0.384227
H95	H	1.115397	-0.291670	-0.621521
H96	H	1.615397	0.208330	-0.121521
H97	H	1.564765	-0.339445	-1.071262
H98	H	2.064765	0.160555	-0.571262
H99	H	1.322261	-0.805668	-0.315199
H100	H	1.822261	-0.305668	0.184801
Br101	Br	1.734476	-0.782776	-0.728021
Br102	Br	2.234476	-0.282776	-0.228021
H103	H	1.392397	-0.469784	-0.899366
H104	H	1.892397	0.030216	-0.399366
Br105	Br	1.352732	-0.659396	-0.345751
Br106	Br	1.852732	-0.159396	0.154249
H107	H	1.392439	-0.469719	-1.108492
H108	H	1.892439	0.030281	-0.608492
H109	H	1.564735	-0.339491	-0.936717
H110	H	2.064735	0.160509	-0.436717
H111	H	0.906271	-0.291696	-0.621560
H112	H	1.406271	0.208304	-0.121560
H113	H	1.631388	-0.681489	-0.624780
H114	H	2.131388	-0.181489	-0.124780
H115	H	0.943434	-0.421836	-0.448991
H116	H	1.443434	0.078164	0.051009
H117	H	1.077979	-0.421813	-0.448967
H118	H	1.577979	0.078187	0.051033
Br119	Br	1.734583	-0.977370	-0.728052
Br120	Br	2.234583	-0.477370	-0.228052
Br121	Br	1.667853	-1.101267	-0.661190
Br122	Br	2.167853	-0.601267	-0.161190
Br123	Br	1.352934	-1.101624	-0.345877
Br124	Br	1.852934	-0.601624	0.154123
H125	H	1.322346	-0.955431	-0.315253
H126	H	1.822346	-0.455431	0.184747
