data_functionalizedCrystal
_audit_creation_method	'MofGen! by Chris Wilmer'
_symmetry_space_group_name_H-M	'P1'
_symmetry_Int_Tables_number	1
_symmetry_cell_setting	triclinic
loop_
_symmetry_equiv_pos_as_xyz
  x,y,z
_cell_length_a	23.532407
_cell_length_b	10.723024
_cell_length_c	9.798715
_cell_angle_alpha	90.003391
_cell_angle_beta	89.992208
_cell_angle_gamma	96.341727
loop_
_atom_site_label
_atom_site_type_symbol
_atom_site_fract_x
_atom_site_fract_y
_atom_site_fract_z
O1	O	0.079871	-1.654699	-0.113498
O2	O	0.087516	-1.291309	-0.113504
O3	O	0.000833	-1.483962	-0.113476
O4	O	0.166554	-1.462046	-0.113526
O5	O	0.000833	-1.483948	0.113507
O6	O	0.087516	-1.291294	0.113478
O7	O	0.079871	-1.654685	0.113484
Zn8	Zn	0.083693	-1.472987	0.149520
Zn9	Zn	0.083693	-1.473006	-0.149539
O10	O	0.166554	-1.462032	0.113456
C11	C	-0.020387	-1.483397	0.000019
C12	C	-0.083615	-1.481719	0.000029
C13	C	0.086960	-1.244819	-0.000013
C14	C	0.085295	-1.106317	-0.000014
C15	C	0.080427	-1.701174	-0.000009
C16	C	0.082092	-1.839677	-0.000017
C17	C	-0.482046	-1.585203	-0.000044
C18	C	-0.541457	-1.583644	-0.000054
O19	O	-0.577579	-1.679575	-0.000103
N20	N	-0.564826	-1.469112	-0.000055
C21	C	-0.528782	-1.356131	-0.000059
O22	O	-0.554114	-1.258569	-0.000062
C23	C	-0.469373	-1.357691	-0.000059
C24	C	-0.446007	-1.472230	-0.000044
C25	C	-0.458680	-1.699733	-0.000030
C26	C	-0.399274	-1.701291	-0.000017
C27	C	-0.363234	-1.588319	-0.000018
C28	C	-0.386600	-1.473789	-0.000031
C29	C	-0.433329	-1.244711	-0.000073
C30	C	-0.373917	-1.246281	-0.000073
C31	C	-0.350551	-1.360821	-0.000059
C32	C	-0.291154	-1.362374	-0.000018
N33	N	-0.267785	-1.476907	-0.000018
C34	C	-0.303825	-1.589879	-0.000017
C35	C	-0.653545	-1.352863	-0.000063
C36	C	-0.712953	-1.351302	-0.000054
C37	C	-0.725625	-1.578816	-0.000051
C38	C	-0.666215	-1.580376	-0.000051
C39	C	-0.630176	-1.467395	-0.000062
C40	C	-0.179067	-1.593143	0.000011
C41	C	-0.119655	-1.594691	0.000030
C42	C	-0.106989	-1.367178	0.000020
C43	C	-0.166396	-1.365629	0.000008
C44	C	-0.202434	-1.478622	-0.000001
O45	O	-0.254997	-1.266494	0.000025
O46	O	-0.278484	-1.687425	-0.000032
C47	C	0.187774	-1.462597	-0.000041
C48	C	0.251001	-1.464275	-0.000061
N49	N	0.083693	-1.472984	0.353619
C50	C	0.133798	-1.029823	-0.000030
C51	C	0.132079	-0.886673	-0.000031
N52	N	0.083689	-1.473020	-0.353639
C53	C	0.047136	-1.553878	0.421408
C54	C	0.047134	-1.553899	0.578571
H55	H	-0.100634	-1.687967	0.000045
H56	H	-0.077635	-1.275199	0.000024
H57	H	-0.344576	-1.154276	-0.000085
H58	H	0.015838	-1.623117	0.363096
F59	F	-0.217413	-1.713402	0.000001
F60	F	0.186354	-0.800768	-0.000059
F61	F	0.027814	-0.925574	-0.000009
F62	F	0.124597	-1.382470	0.429835
F63	F	0.029352	-1.053402	0.000012
F64	F	0.189741	-1.082738	-0.000043
H65	H	-0.647195	-1.673644	-0.000040
F66	F	0.124603	-1.382495	0.570177
F67	F	-0.374414	-1.823201	-0.000031
F68	F	-0.497028	-1.819985	-0.000031
F69	F	-0.191264	-1.243724	0.000017
F70	F	-0.458184	-1.122800	-0.000095
F71	F	0.006228	-1.644432	0.654764
H72	H	-0.731972	-1.258032	-0.000042
F73	F	-0.615194	-1.232606	-0.000063
F74	F	-0.763991	-1.699052	-0.000058
