data_functionalizedCrystal
_audit_creation_method	'MofGen! by Chris Wilmer'
_symmetry_space_group_name_H-M	'P1'
_symmetry_Int_Tables_number	1
_symmetry_cell_setting	triclinic
loop_
_symmetry_equiv_pos_as_xyz
  x,y,z
_cell_length_a	31.640172
_cell_length_b	27.440280
_cell_length_c	27.440280
_cell_angle_alpha	60.004742
_cell_angle_beta	90.008206
_cell_angle_gamma	60.004358
loop_
_atom_site_label
_atom_site_type_symbol
_atom_site_fract_x
_atom_site_fract_y
_atom_site_fract_z
Zr1	Zr	0.407241	0.533323	-0.063881
O2	O	0.339762	0.634985	-0.141700
O3	O	0.427919	0.431661	-0.040026
O4	O	0.427929	0.533311	-0.141687
O5	O	0.339752	0.533345	0.040155
O6	O	0.497486	0.533301	-0.141677
O7	O	0.339751	0.533336	-0.040038
O8	O	0.497468	0.351468	0.040177
O9	O	0.339771	0.715178	-0.141699
O10	O	0.488657	0.473468	-0.029843
O11	O	0.436748	0.473483	0.029996
O12	O	0.436760	0.593162	-0.089697
O13	O	0.384851	0.593177	-0.029858
Zr14	Zr	0.518178	0.533322	0.064035
Zr15	Zr	0.518176	0.533307	-0.063864
Zr16	Zr	0.407242	0.533338	0.064018
Zr17	Zr	0.407255	0.661221	-0.063879
Zr18	Zr	0.518164	0.405424	0.064034
O19	O	0.497500	0.634984	0.040181
O20	O	0.497497	0.634962	-0.141676
O21	O	0.339764	0.635007	0.040156
O22	O	0.585657	0.431660	0.141855
O23	O	0.585655	0.431638	-0.040002
O24	O	0.427921	0.431683	0.141830
O25	O	0.585666	0.533300	-0.040000
O26	O	0.497490	0.533334	0.141842
O27	O	0.427933	0.533344	0.141832
O28	O	0.585667	0.533309	0.040193
O29	O	0.427949	0.715165	-0.141685
O30	O	0.497469	0.351480	0.141840
O31	O	0.585648	0.351467	0.141854
O32	O	0.585647	0.351455	0.040191
O33	O	0.339772	0.715190	-0.040036
O34	O	0.427951	0.715177	-0.040023
O35	O	0.488659	0.473483	0.089852
O36	O	0.540567	0.473468	0.030012
O37	O	0.488670	0.593162	-0.029842
O38	O	0.436762	0.593176	0.029998
C39	C	0.462691	0.373342	0.000075
C40	C	0.462685	0.319046	0.000075
C41	C	0.489820	-0.017703	-0.031153
C42	C	0.489824	-0.068727	-0.031151
O43	O	0.512884	-0.095140	-0.057698
N44	N	0.462728	-0.094236	0.000083
C45	C	0.435629	-0.068723	0.031323
O46	O	0.412583	-0.095106	0.057891
C47	C	0.435628	-0.017703	0.031324
C48	C	0.462722	0.007807	0.000083
C49	C	0.516912	0.007807	-0.062391
C50	C	0.516906	0.058828	-0.062394
C51	C	0.489808	0.084339	-0.031158
C52	C	0.462716	0.058829	0.000080
C53	C	0.408533	0.007805	0.062567
C54	C	0.408534	0.058828	0.062566
C55	C	0.435628	0.084339	0.031325
C56	C	0.435613	0.135361	0.031314
N57	N	0.462709	0.160869	0.000080
C58	C	0.489807	0.135359	-0.031156
C59	C	0.435635	-0.175868	0.031318
C60	C	0.435633	-0.226883	0.031313
C61	C	0.489829	-0.226885	-0.031160
C62	C	0.489828	-0.175866	-0.031158
C63	C	0.462731	-0.150360	0.000084
C64	C	0.489793	0.242507	-0.031159
C65	C	0.489783	0.293535	-0.031161
C66	C	0.435590	0.293530	0.031315
C67	C	0.435597	0.242509	0.031314
C68	C	0.462702	0.216997	0.000076
O69	O	0.412567	0.161804	0.057849
O70	O	0.512855	0.161741	-0.057713
C71	C	0.323946	0.533343	0.000056
C72	C	0.276851	0.533349	0.000049
C73	C	0.011935	0.470837	0.031333
C74	C	-0.165050	0.470825	0.031344
O75	O	-0.164897	0.417689	0.057937
N76	N	-0.214270	0.533304	0.000100
C77	C	-0.219242	0.595790	-0.031146
O78	O	-0.265167	0.648931	-0.057715
C79	C	-0.042258	0.595801	-0.031153
C80	C	0.006961	0.533318	0.000088
C81	C	0.061151	0.408359	0.062572
C82	C	0.105395	0.408363	0.062566
C83	C	0.100421	0.470844	0.031321
C84	C	0.051205	0.533322	0.000082
C85	C	-0.047230	0.658286	-0.062396
C86	C	-0.002979	0.658283	-0.062393
C87	C	0.046240	0.595801	-0.031152
C88	C	0.090475	0.595807	-0.031169
N89	N	0.139694	0.533328	0.000075
C90	C	0.144667	0.470847	0.031320
C91	C	-0.312160	0.595779	-0.031140
C92	C	-0.356406	0.595777	-0.031139
C93	C	-0.302211	0.470812	0.031352
C94	C	-0.257964	0.470815	0.031347
C95	C	-0.262940	0.533301	0.000104
C96	C	0.237580	0.470859	0.031305
C97	C	0.281824	0.470868	0.031294
C98	C	0.227626	0.595833	-0.031194
C99	C	0.183385	0.595824	-0.031186
C100	C	0.188365	0.533332	0.000067
O101	O	0.090361	0.648915	-0.057743
O102	O	0.190597	0.417713	0.057896
C103	C	-0.032309	0.470833	0.031339
C104	C	-0.081525	0.533311	0.000099
C105	C	-0.086499	0.595792	-0.031146
C106	C	-0.125771	0.533308	0.000100
C107	C	-0.120798	0.470827	0.031345
C108	C	-0.071579	0.408349	0.062589
C109	C	-0.027335	0.408352	0.062583
C110	C	-0.135718	0.658271	-0.062389
C111	C	-0.179959	0.658262	-0.062382
C112	C	-0.174986	0.595781	-0.031137
C113	C	0.601473	0.533302	0.000099
C114	C	0.648568	0.533295	0.000106
C115	C	0.462707	0.533304	-0.159905
C116	C	0.462707	0.533297	-0.214202
C117	C	0.462727	0.693303	0.000079
C118	C	0.462733	0.747599	0.000080
C119	C	0.435624	0.595813	-0.582179
C120	C	0.435626	0.595817	-0.633201
O121	O	0.412603	0.648953	-0.686160
N122	N	0.462714	0.533338	-0.627475
C123	C	0.489808	0.470852	-0.570723
O124	O	0.512849	0.417710	-0.570538
C125	C	0.489809	0.470849	-0.519702
C126	C	0.462714	0.533331	-0.525432
C127	C	0.408532	0.658290	-0.587907
C128	C	0.408530	0.658286	-0.536888
C129	C	0.435620	0.595805	-0.480141
C130	C	0.462712	0.533327	-0.474413
C131	C	0.516905	0.408364	-0.462950
C132	C	0.516904	0.408366	-0.411928
C133	C	0.489809	0.470848	-0.417659
C134	C	0.489800	0.470842	-0.366648
N135	N	0.462711	0.533320	-0.372373
C136	C	0.435621	0.595802	-0.429120
C137	C	0.489804	0.470863	-0.677873
C138	C	0.489800	0.470866	-0.728892
C139	C	0.435619	0.595831	-0.791367
C140	C	0.435620	0.595827	-0.740346
C141	C	0.462715	0.533342	-0.683598
C142	C	0.435618	0.595788	-0.321975
C143	C	0.435617	0.595779	-0.270948
C144	C	0.489800	0.470814	-0.208478
C145	C	0.489800	0.470824	-0.259499
C146	C	0.462708	0.533316	-0.316249
O147	O	0.512813	0.417733	-0.313670
O148	O	0.412589	0.648935	-0.429295
C149	C	0.462711	0.533341	0.160060
C150	C	0.462712	0.533348	0.214356
C151	C	0.601455	0.373322	0.000097
C152	C	0.648544	0.319019	0.000103
C153	C	0.462693	0.373361	0.160058
C154	C	0.462688	0.319071	0.214354
C155	C	0.601457	0.373341	0.160079
C156	C	0.648546	0.319044	0.214382
C157	C	0.323962	0.693304	-0.159924
C158	C	0.276872	0.747601	-0.214228
C159	C	0.323964	0.693323	0.000058
C160	C	0.276875	0.747626	0.000051
C161	C	0.462725	0.693284	-0.159903
C162	C	0.462731	0.747574	-0.214199
C163	C	0.643560	0.293518	-0.031143
C164	C	0.687801	0.242502	-0.031149
C165	C	0.737025	0.216984	0.000096
C166	C	0.742007	0.242490	0.031343
C167	C	0.697767	0.293509	0.031345
C168	C	0.489782	0.293576	0.271101
C169	C	0.489775	0.242572	0.322123
C170	C	0.462677	0.217061	0.316396
C171	C	0.435579	0.242562	0.259643
C172	C	0.435584	0.293568	0.208622
C173	C	0.697761	0.293538	0.208648
C174	C	0.742011	0.242528	0.259667
C175	C	0.737045	0.217021	0.316419
C176	C	0.687826	0.242532	0.322152
C177	C	0.643577	0.293545	0.271134
C178	C	0.227658	0.773113	-0.208493
C179	C	0.183408	0.824139	-0.259512
C180	C	0.188374	0.849648	-0.316264
C181	C	0.237593	0.824134	-0.321997
C182	C	0.281842	0.773113	-0.270979
C183	C	0.281858	0.773132	0.031292
C184	C	0.237617	0.824162	0.031284
C185	C	0.188394	0.849682	0.000038
C186	C	0.183412	0.824174	-0.031207
C187	C	0.227652	0.773148	-0.031202
C188	C	0.489834	0.773069	-0.208453
C189	C	0.489850	0.824073	-0.259465
C190	C	0.462758	0.849584	-0.316222
C191	C	0.435653	0.824085	-0.321967
C192	C	0.435641	0.773078	-0.270956
H193	H	0.511846	0.314306	-0.056604
H194	H	-0.139776	0.709151	-0.087834
N195	N	0.703148	0.321007	0.065050
H196	H	0.686007	0.372217	0.036400
H197	H	0.741056	0.297046	0.084836
N198	N	0.795089	0.215016	0.253467
H199	H	0.814652	0.163804	0.273244
H200	H	0.814624	0.223944	0.273223
H201	H	0.511865	0.221741	-0.056595
H202	H	0.603506	0.314305	0.275811
H203	H	0.223605	0.752346	-0.162287
N204	N	0.130324	0.851650	-0.253326
H205	H	0.126186	0.872807	-0.230780
H206	H	0.126211	0.812695	-0.230812
N207	N	0.682472	0.215012	0.383364
H208	H	0.662931	0.253929	0.388153
H209	H	0.717991	0.178814	0.414772
N210	N	0.519005	0.215073	0.383330
H211	H	0.536175	0.238971	0.379211
H212	H	0.546240	0.163858	0.405864
H213	H	0.462771	0.891117	-0.357754
N214	N	0.784738	0.161950	0.000097
H215	H	0.816680	0.149649	0.024631
H216	H	0.784707	0.179744	-0.042233
H217	H	0.321935	0.752358	0.056740
H218	H	0.413596	0.844864	-0.368186
N219	N	-0.008345	0.725679	-0.096098
H220	H	0.008808	0.728471	-0.067449
H221	H	-0.046249	0.765217	-0.115886
N222	N	0.519077	0.851580	-0.253265
H223	H	0.546351	0.842691	-0.273025
H224	H	0.536199	0.827672	-0.209558
H225	H	0.241630	0.844911	-0.368211
N226	N	0.546128	0.340969	-0.350721
H227	H	0.573396	0.338180	-0.328154
H228	H	0.563258	0.301432	-0.354890
N229	N	0.140646	0.904678	-0.371289
H230	H	0.108717	0.916964	-0.359039
H231	H	0.140664	0.886884	-0.395823
H232	H	0.413568	0.752326	-0.275643
H233	H	-0.220035	0.709147	-0.087828
N234	N	0.406364	0.321050	0.065004
H235	H	0.410477	0.357240	0.060262
H236	H	0.420594	0.282088	0.108694
N237	N	0.546130	0.086338	-0.096088
H238	H	0.563296	0.062428	-0.115872
H239	H	0.573369	0.077463	-0.067401
H240	H	0.683735	0.221741	-0.056594
N241	N	0.784773	0.162001	0.371443
H242	H	0.816702	0.149715	0.359194
H243	H	0.784747	0.119703	0.395976
N244	N	0.334922	0.745596	-0.277169
H245	H	0.331349	0.769500	-0.320864
H246	H	0.354454	0.694385	-0.257367
H247	H	0.241642	0.419972	0.056755
H248	H	0.511849	0.314341	0.275775
N249	N	0.242998	0.851667	0.064986
H250	H	0.280894	0.827750	0.084784
H251	H	0.225817	0.842800	0.096389
N252	N	0.462675	0.162046	0.371428
H253	H	0.483954	0.149768	0.408244
H254	H	0.478082	0.119744	0.371404
H255	H	0.511854	0.419944	-0.162266
H256	H	0.152375	0.891230	0.000038
N257	N	0.406393	0.663173	-0.277130
H258	H	0.389234	0.702753	-0.320823
H259	H	0.431273	0.665889	-0.257314
H260	H	0.413516	0.221783	0.254989
H261	H	0.538980	-0.012961	-0.087827
H262	H	0.321901	0.419985	0.056736
N263	N	0.130318	0.851693	-0.064895
H264	H	0.126159	0.872861	-0.108602
H265	H	0.103087	0.887855	-0.060100
H266	H	0.603484	0.314294	-0.056593
N267	N	0.406328	0.321099	0.147417
H268	H	0.389153	0.297206	0.151537
H269	H	0.431180	0.312236	0.124860
H270	H	0.143307	0.646702	-0.056633
N271	N	-0.066225	0.340961	0.096289
H272	H	-0.046678	0.313649	0.139994
H273	H	-0.046700	0.313692	0.079859
H274	H	0.511890	-0.155098	-0.056597
H275	H	0.511894	-0.247666	-0.056593
N276	N	0.222273	0.745640	-0.064899
H277	H	0.184376	0.769552	-0.084691
H278	H	0.239442	0.694430	-0.036213
H279	H	0.386468	0.079593	0.088007
H280	H	0.413558	0.646676	-0.368177
H281	H	0.223585	0.646703	-0.056635
H282	H	0.701814	0.314299	0.162442
H283	H	0.511896	0.752305	-0.162243
H284	H	0.413565	-0.155099	0.056756
N285	N	0.406406	-0.254390	0.065004
H286	H	0.389241	-0.230483	0.084790
H287	H	0.431286	-0.305601	0.096416
N288	N	0.379315	0.725677	-0.543071
H289	H	0.341412	0.753003	-0.565619
H290	H	0.393579	0.752925	-0.565585
N291	N	0.406371	0.214999	0.065009
H292	H	0.431223	0.163790	0.096453
H293	H	0.379108	0.223913	0.036318
H294	H	0.386471	-0.012958	0.088008
H295	H	0.145468	0.357483	0.088003
N296	N	0.795102	0.214959	0.065040
H297	H	0.814657	0.163748	0.096473
H298	H	0.791510	0.238898	0.084801
N299	N	0.066522	0.340963	0.096275
H300	H	0.104418	0.301391	0.116062
H301	H	0.049345	0.338234	0.067591
H302	H	-0.298168	0.419937	0.056789
N303	N	-0.204880	0.403425	0.065041
H304	H	-0.208449	0.363846	0.084831
H305	H	-0.185338	0.400701	0.096450
N306	N	-0.409489	0.663168	-0.064843
H307	H	-0.405920	0.702746	-0.084633
H308	H	-0.429025	0.665894	-0.036158
H309	H	-0.316220	0.646665	-0.056586
H310	H	-0.087300	0.709166	-0.087835
H311	H	0.386473	0.709173	-0.634110
N312	N	0.025748	0.340960	0.096276
H313	H	0.022177	0.301384	0.116068
H314	H	0.045293	0.338235	0.127685
N315	N	0.406402	0.663216	-0.746525
H316	H	0.368498	0.690536	-0.769068
H317	H	0.420660	0.690471	-0.769040
N318	N	0.406413	0.663230	-0.852574
H319	H	0.368508	0.690564	-0.857372
H320	H	0.410567	0.653701	-0.883993
N321	N	0.519022	0.403475	-0.722709
H322	H	0.536183	0.363896	-0.679015
H323	H	0.546264	0.400754	-0.742507
H324	H	0.538969	0.357484	-0.458272
N325	N	0.519027	0.403464	-0.616665
H326	H	0.536185	0.363889	-0.620786
H327	H	0.494148	0.400741	-0.594141
H328	H	0.511855	0.419945	-0.254832
