data_functionalizedCrystal
_audit_creation_method	'MofGen! by Chris Wilmer'
_symmetry_space_group_name_H-M	'P1'
_symmetry_Int_Tables_number	1
_symmetry_cell_setting	triclinic
loop_
_symmetry_equiv_pos_as_xyz
  x,y,z
_cell_length_a	12.827893
_cell_length_b	16.120484
_cell_length_c	12.827885
_cell_angle_alpha	92.863928
_cell_angle_beta	89.980728
_cell_angle_gamma	92.925431
loop_
_atom_site_label
_atom_site_type_symbol
_atom_site_fract_x
_atom_site_fract_y
_atom_site_fract_z
Zn1	Zn	1.576504	-0.331866	-0.611895
Zn2	Zn	1.567505	-0.471301	-0.445998
Zn3	Zn	1.401742	-0.331907	-0.437171
Zn4	Zn	1.392841	-0.471239	-0.620694
O5	O	1.484648	-0.401579	-0.528940
O6	O	1.721545	-0.350372	-0.589900
O7	O	1.545475	-0.452853	-0.298594
O8	O	1.432416	-0.215236	-0.452972
O9	O	1.714934	-0.452814	-0.468017
O10	O	1.560812	-0.215206	-0.581341
O11	O	1.423690	-0.350441	-0.292109
O12	O	1.254326	-0.350381	-0.461505
O13	O	1.417245	-0.452708	-0.765761
O14	O	1.247787	-0.452748	-0.596338
O15	O	1.552181	-0.350311	-0.759296
O16	O	1.536844	-0.587959	-0.476549
O17	O	1.408520	-0.587913	-0.604897
C18	C	1.213139	-0.401562	-0.528919
C19	C	1.096985	-0.401576	-0.528936
C20	C	1.041987	-0.452309	-0.595563
C21	C	0.921936	-0.452324	-0.595582
C22	C	1.470768	-0.618186	-0.542658
C23	C	1.464925	-0.710851	-0.548562
C24	C	1.454265	-0.880512	-0.559362
C25	C	1.515219	-0.921804	-0.498534
C26	C	1.509287	-1.016209	-0.504544
C27	C	1.460195	-0.786099	-0.553355
C28	C	1.757217	-0.401595	-0.528962
C29	C	1.873370	-0.401602	-0.528971
C30	C	1.484724	-0.401498	-0.801505
C31	C	1.484757	-0.401464	-0.917656
C32	C	1.498611	-0.184125	-0.515191
C33	C	1.504561	-0.091460	-0.509332
C34	C	1.551535	-0.350785	-0.966241
C35	C	1.551570	-0.350749	-1.086289
C36	C	1.484636	-0.401598	-0.257431
C37	C	1.484821	-0.401397	-0.141266
H38	H	1.055194	-0.358148	-0.471913
O39	O	0.865494	-0.504024	-0.663741
C40	C	0.741432	-0.515297	-0.805383
C41	C	0.805315	-0.456651	-0.728267
H42	H	0.692745	-0.477020	-0.857557
H43	H	0.796629	-0.553469	-0.855611
H44	H	0.687572	-0.558831	-0.760013
H45	H	0.859180	-0.413066	-0.773553
H46	H	0.750058	-0.418537	-0.678039
H47	H	1.571857	-0.886255	-0.441944
O48	O	1.386807	-0.922878	-0.627013
C49	C	1.334275	-0.949620	-0.806383
C50	C	1.410755	-0.901590	-0.729893
H51	H	1.353596	-0.932413	-0.889576
H52	H	1.341477	-1.019314	-0.799346
H53	H	1.251074	-0.932644	-0.786836
H54	H	1.493988	-0.918496	-0.749389
H55	H	1.403462	-0.831908	-0.736943
O56	O	0.929873	-0.349896	-0.460869
C57	C	1.053834	-0.338627	-0.319138
C58	C	0.989911	-0.397276	-0.396219
H59	H	1.102374	-0.376911	-0.266835
H60	H	1.107811	-0.295125	-0.364431
H61	H	0.998572	-0.300421	-0.269036
H62	H	1.045094	-0.435536	-0.446341
H63	H	0.935922	-0.440724	-0.350864
O64	O	1.619677	-0.299134	-0.909691
C65	C	1.681705	-0.252019	-0.738478
C66	C	1.604490	-0.310570	-0.802390
H67	H	1.669439	-0.261233	-0.651712
H68	H	1.765076	-0.266649	-0.760729
H69	H	1.667715	-0.184779	-0.755684
H70	H	1.618386	-0.377830	-0.785217
H71	H	1.521146	-0.295869	-0.780128
O72	O	1.619676	-0.299008	-1.136303
C73	C	1.681877	-0.251854	-1.301562
C74	C	1.604675	-0.310481	-1.245052
H75	H	1.669791	-0.261122	-1.389495
H76	H	1.667852	-0.184602	-1.275987
H77	H	1.765206	-0.266477	-1.281032
H78	H	1.521317	-0.295933	-1.265554
H79	H	1.618791	-0.377716	-1.270631
H80	H	1.427605	-0.444820	-0.964935
O81	O	1.091997	-0.504090	-0.663500
C82	C	1.257250	-0.551227	-0.725496
C83	C	1.200750	-0.492555	-0.648483
H84	H	1.345187	-0.541910	-0.713396
H85	H	1.231623	-0.618471	-0.711285
H86	H	1.236758	-0.536695	-0.808880
H87	H	1.221215	-0.507012	-0.565069
H88	H	1.226381	-0.425329	-0.662785
O89	O	1.416755	-0.453206	-1.091306
C90	C	1.395561	-0.565745	-0.975110
C91	C	1.472758	-0.507112	-1.031620
H92	H	1.440810	-0.609355	-0.926857
H93	H	1.343427	-0.527490	-0.921513
H94	H	1.345287	-0.603837	-1.035194
H95	H	1.523100	-0.469008	-0.971610
H96	H	1.524820	-0.545415	-1.085236
