data_functionalizedCrystal
_audit_creation_method	'MofGen! by Chris Wilmer'
_symmetry_space_group_name_H-M	'P1'
_symmetry_Int_Tables_number	1
_symmetry_cell_setting	triclinic
loop_
_symmetry_equiv_pos_as_xyz
  x,y,z
_cell_length_a	22.610064
_cell_length_b	14.519709
_cell_length_c	14.519709
_cell_angle_alpha	96.319855
_cell_angle_beta	89.996868
_cell_angle_gamma	89.997369
loop_
_atom_site_label
_atom_site_type_symbol
_atom_site_fract_x
_atom_site_fract_y
_atom_site_fract_z
O1	O	0.049109	-1.223874	0.120879
O2	O	0.549109	-0.723874	0.620879
O3	O	0.049127	-0.955397	0.135115
O4	O	0.549127	-0.455397	0.635115
O5	O	0.049112	-1.096754	-0.006241
O6	O	0.549112	-0.596754	0.493759
O7	O	0.049124	-1.082517	0.262235
O8	O	0.549124	-0.582517	0.762235
O9	O	-0.049257	-1.096729	-0.006221
O10	O	0.450743	-0.596729	0.493779
O11	O	-0.049242	-0.955372	0.135136
O12	O	0.450758	-0.455372	0.635136
O13	O	-0.049260	-1.223849	0.120899
O14	O	0.450740	-0.723849	0.620899
Zn15	Zn	-0.064869	-1.089606	0.128021
Zn16	Zn	0.435131	-0.589606	0.628021
Zn17	Zn	0.064736	-1.089639	0.127994
Zn18	Zn	0.564736	-0.589639	0.627994
O19	O	-0.049245	-1.082492	0.262256
O20	O	0.450755	-0.582492	0.762256
C21	C	-0.000055	-0.921025	0.134462
C22	C	0.499945	-0.421025	0.634462
C23	C	-0.000048	-0.818643	0.132474
C24	C	0.499952	-0.318643	0.632474
C25	C	-0.000073	-1.096078	-0.040591
C26	C	0.499927	-0.596078	0.459409
C27	C	-0.000073	-1.094090	-0.142972
C28	C	0.499927	-0.594090	0.357028
N29	N	-0.153322	-1.089591	0.128039
N30	N	0.346678	-0.589591	0.628039
C31	C	-0.561970	-1.152235	0.065411
C32	C	-0.061970	-0.652235	0.565411
C33	C	-0.623890	-1.152240	0.065404
C34	C	-0.123890	-0.652240	0.565404
O35	O	-0.655914	-1.205463	0.012169
O36	O	-0.155914	-0.705463	0.512169
N37	N	-0.654859	-1.089639	0.127975
N38	N	-0.154859	-0.589639	0.627975
C39	C	-0.623905	-1.027022	0.190550
C40	C	-0.123905	-0.527022	0.690550
O41	O	-0.655933	-0.973775	0.243770
O42	O	-0.155933	-0.473775	0.743770
C43	C	-0.561986	-1.027014	0.190551
C44	C	-0.061986	-0.527014	0.690551
C45	C	-0.531020	-1.089626	0.127983
C46	C	-0.031020	-0.589626	0.627983
C47	C	-0.531004	-1.214841	0.002846
C48	C	-0.031004	-0.714841	0.502846
C49	C	-0.469088	-1.214837	0.002855
C50	C	0.030912	-0.714837	0.502855
C51	C	-0.438139	-1.152227	0.065427
C52	C	0.061861	-0.652227	0.565427
C53	C	-0.469105	-1.089622	0.127991
C54	C	0.030895	-0.589622	0.627991
C55	C	-0.531034	-0.964394	0.253121
C56	C	-0.031034	-0.464394	0.753121
C57	C	-0.469111	-0.964391	0.253117
C58	C	0.030889	-0.464391	0.753117
C59	C	-0.438145	-1.027002	0.190548
C60	C	0.061855	-0.527002	0.690548
C61	C	-0.376240	-1.027009	0.190571
C62	C	0.123760	-0.527009	0.690571
N63	N	-0.345270	-1.089610	0.128000
N64	N	0.154730	-0.589610	0.628000
C65	C	-0.376220	-1.152219	0.065428
C66	C	0.123780	-0.652219	0.565428
C67	C	-0.753939	-1.027044	0.190541
C68	C	-0.253939	-0.527044	0.690541
C69	C	-0.815856	-1.027056	0.190544
C70	C	-0.315856	-0.527056	0.690544
C71	C	-0.815837	-1.152272	0.065397
C72	C	-0.315837	-0.652272	0.565397
C73	C	-0.753918	-1.152264	0.065399
C74	C	-0.253918	-0.652264	0.565399
C75	C	-0.722970	-1.089645	0.127970
C76	C	-0.222970	-0.589645	0.627970
C77	C	-0.246193	-1.152207	0.065450
C78	C	0.253807	-0.652207	0.565450
C79	C	-0.184271	-1.152200	0.065467
C80	C	0.315729	-0.652200	0.565467
C81	C	-0.184296	-1.026981	0.190610
C82	C	0.315704	-0.526981	0.690610
C83	C	-0.246212	-1.026991	0.190598
C84	C	0.253788	-0.526991	0.690598
C85	C	-0.277159	-1.089607	0.128010
C86	C	0.222841	-0.589607	0.628010
O87	O	-0.344176	-0.973810	0.243777
O88	O	0.155824	-0.473810	0.743777
O89	O	-0.344185	-1.205449	0.012209
O90	O	0.155815	-0.705449	0.512209
N91	N	0.153189	-1.089662	0.127968
N92	N	0.653189	-0.589662	0.627968
C93	C	-0.000077	-1.258221	0.121553
C94	C	0.499923	-0.758221	0.621553
C95	C	-0.000080	-1.360602	0.123541
C96	C	0.499920	-0.860602	0.623541
C97	C	-0.000076	-0.443748	0.125154
C98	C	0.499924	0.056252	0.625154
C99	C	-0.000068	-0.548056	0.127187
C100	C	0.499932	-0.048056	0.627187
C101	C	-0.000062	-0.631192	0.128814
C102	C	0.499938	-0.131192	0.628814
C103	C	-0.000055	-0.735507	0.130847
C104	C	0.499945	-0.235507	0.630847
C105	C	-0.000057	-1.086770	-0.517868
C106	C	0.499943	-0.586770	-0.017868
C107	C	-0.000061	-1.088803	-0.413560
C108	C	0.499939	-0.588803	0.086440
C109	C	-0.000065	-1.090430	-0.330423
C110	C	0.499935	-0.590430	0.169577
C111	C	-0.000069	-1.092463	-0.226109
C112	C	0.499931	-0.592463	0.273891
C113	C	-0.000059	-1.083168	0.296606
C114	C	0.499941	-0.583168	0.796606
C115	C	-0.000055	-1.085156	0.398987
C116	C	0.499945	-0.585156	0.898987
H117	H	-0.271382	-1.203194	0.014485
H118	H	0.228618	-0.703194	0.514485
H119	H	-0.556238	-0.913410	0.304070
H120	H	-0.056238	-0.413410	0.804070
H121	H	-0.159088	-0.976008	0.241559
H122	H	0.340912	-0.476008	0.741559
H123	H	-0.841065	-0.976082	0.241503
H124	H	-0.341065	-0.476082	0.741503
H125	H	-0.728709	-1.203247	0.014450
H126	H	-0.228709	-0.703247	0.514450
O127	O	-0.154283	-1.213056	0.004593
O128	O	0.345717	-0.713056	0.504593
C129	C	-0.194883	-1.268329	-0.050620
C130	C	0.305117	-0.768329	0.449380
H131	H	-0.239022	-1.230518	-0.051748
H132	H	0.260978	-0.730518	0.448252
H133	H	-0.201469	-1.336882	-0.020523
H134	H	0.298531	-0.836882	0.479477
C135	C	-0.116500	-1.333618	-0.148681
C136	C	0.383500	-0.833618	0.351319
C137	C	-0.170711	-1.287174	-0.150073
C138	C	0.329289	-0.787174	0.349927
H139	H	-0.101589	-1.345246	-0.210028
H140	H	0.398411	-0.845246	0.289972
H141	H	-0.089147	-1.296382	-0.111481
H142	H	0.410853	-0.796382	0.388519
H143	H	-0.121996	-1.390740	-0.123596
H144	H	0.378004	-0.890740	0.376404
H145	H	-0.165213	-1.230047	-0.175147
H146	H	0.334787	-0.730047	0.324853
H147	H	-0.198063	-1.324400	-0.187280
H148	H	0.301937	-0.824400	0.312720
H149	H	-0.443915	-0.913396	0.304069
H150	H	0.056085	-0.413396	0.804069
O151	O	-0.845999	-1.212999	0.004641
O152	O	-0.345999	-0.712999	0.504641
C153	C	-0.907289	-1.199586	0.018076
C154	C	-0.407289	-0.699586	0.518076
H155	H	-0.915746	-1.126325	0.052387
H156	H	-0.415746	-0.626325	0.552387
H157	H	-0.924862	-1.251858	0.064445
H158	H	-0.424862	-0.751858	0.564445
C159	C	-0.928690	-1.303265	-0.118374
C160	C	-0.428690	-0.803265	0.381626
C161	C	-0.939078	-1.213282	-0.076240
C162	C	-0.439078	-0.713282	0.423760
H163	H	-0.948300	-1.311718	-0.176552
H164	H	-0.448300	-0.811718	0.323448
H165	H	-0.887398	-1.312305	-0.127425
H166	H	-0.387398	-0.812305	0.372575
H167	H	-0.943334	-1.346816	-0.079724
H168	H	-0.443334	-0.846816	0.420276
H169	H	-0.924427	-1.169734	-0.114885
H170	H	-0.424427	-0.669734	0.385115
H171	H	-0.980368	-1.204235	-0.067199
H172	H	-0.480368	-0.704235	0.432801
H173	H	-0.271425	-0.976016	0.241556
H174	H	0.228575	-0.476016	0.741556
O175	O	-0.439104	-1.275685	-0.058021
O176	O	0.060896	-0.775685	0.441979
C177	C	-0.479709	-1.330952	-0.113229
C178	C	0.020291	-0.830952	0.386771
H179	H	-0.523847	-1.293139	-0.114344
H180	H	-0.023847	-0.793139	0.385656
H181	H	-0.486292	-1.399509	-0.083136
H182	H	0.013708	-0.899509	0.416864
C183	C	-0.401335	-1.396236	-0.211313
C184	C	0.098665	-0.896236	0.288687
C185	C	-0.455546	-1.349790	-0.212688
C186	C	0.044454	-0.849790	0.287312
H187	H	-0.386430	-1.407861	-0.272663
H188	H	0.113570	-0.907861	0.227337
H189	H	-0.373978	-1.359005	-0.174117
H190	H	0.126022	-0.859005	0.325883
H191	H	-0.406828	-1.453361	-0.186231
H192	H	0.093172	-0.953361	0.313769
H193	H	-0.450051	-1.292662	-0.237759
H194	H	0.049949	-0.792662	0.262241
H195	H	-0.482902	-1.387013	-0.249892
H196	H	0.017098	-0.887013	0.250108
O197	O	-0.561089	-1.275540	-0.058031
O198	O	-0.061089	-0.775540	0.441969
C199	C	-0.596920	-1.226086	-0.115037
C200	C	-0.096920	-0.726086	0.384963
H201	H	-0.578276	-1.153350	-0.116760
H202	H	-0.078276	-0.653350	0.383240
H203	H	-0.643852	-1.221318	-0.086196
H204	H	-0.143852	-0.721318	0.413804
C205	C	-0.620749	-1.366098	-0.211823
C206	C	-0.120749	-0.866098	0.288177
C207	C	-0.597847	-1.276764	-0.213946
C208	C	-0.097847	-0.776764	0.286054
H209	H	-0.621323	-1.397359	-0.272834
H210	H	-0.121323	-0.897359	0.227166
H211	H	-0.596611	-1.399417	-0.173415
H212	H	-0.096611	-0.899417	0.326585
H213	H	-0.659857	-1.362112	-0.187785
H214	H	-0.159857	-0.862112	0.312215
H215	H	-0.558738	-1.280751	-0.237973
H216	H	-0.058738	-0.780751	0.262027
H217	H	-0.621979	-1.243447	-0.252360
H218	H	-0.121979	-0.743447	0.247640
H219	H	-0.728744	-0.976054	0.241501
H220	H	-0.228744	-0.476054	0.741501
