data_functionalizedCrystal
_audit_creation_method	'MofGen! by Chris Wilmer'
_symmetry_space_group_name_H-M	'P1'
_symmetry_Int_Tables_number	1
_symmetry_cell_setting	triclinic
loop_
_symmetry_equiv_pos_as_xyz
  x,y,z
_cell_length_a	14.908795
_cell_length_b	12.594516
_cell_length_c	14.908308
_cell_angle_alpha	86.729465
_cell_angle_beta	89.788666
_cell_angle_gamma	86.682628
loop_
_atom_site_label
_atom_site_type_symbol
_atom_site_fract_x
_atom_site_fract_y
_atom_site_fract_z
Zn1	Zn	1.345277	0.372296	-0.587854
Zn2	Zn	1.353841	0.539483	-0.437505
Zn3	Zn	1.203590	0.371142	-0.428825
Zn4	Zn	1.194865	0.559863	-0.579127
O5	O	1.274393	0.460696	-0.508328
O6	O	1.472241	0.386427	-0.575195
O7	O	1.341146	0.508141	-0.310530
O8	O	1.222453	0.222346	-0.449941
O9	O	1.478533	0.509259	-0.464733
O10	O	1.326549	0.223194	-0.566779
O11	O	1.230757	0.384461	-0.304153
O12	O	1.076605	0.404223	-0.441479
O13	O	1.207582	0.543994	-0.706109
O14	O	1.070194	0.542875	-0.551905
O15	O	1.318088	0.406189	-0.712520
O16	O	1.332685	0.691136	-0.456271
O17	O	1.215886	0.706109	-0.560321
C18	C	1.040773	0.475636	-0.494803
C19	C	0.940828	0.482055	-0.489039
C20	C	0.803243	0.554934	-0.423314
C21	C	0.897151	0.548907	-0.428730
C22	C	0.890593	0.421222	-0.543934
C23	C	0.796685	0.427249	-0.538518
C24	C	0.753014	0.494108	-0.478207
C25	C	0.659105	0.500140	-0.472797
C26	C	0.652549	0.372450	-0.587996
C27	C	0.746456	0.366423	-0.593411
C28	C	1.274291	0.737243	-0.508312
C29	C	1.274328	0.855548	-0.508340
C30	C	1.210787	0.932981	-0.564889
C31	C	1.193607	0.999340	-0.481577
C32	C	1.291557	0.999986	-0.591667
C33	C	1.257107	0.920348	-0.424982
C34	C	1.355092	0.920989	-0.535130
C35	C	1.337946	0.987309	-0.451763
C36	C	1.508925	0.445698	-0.521906
C37	C	1.608869	0.439307	-0.527692
C38	C	1.260906	0.477493	-0.742852
C39	C	1.255159	0.484651	-0.842791
C40	C	1.274479	1.183072	-0.508362
C41	C	1.274415	1.064771	-0.508367
C42	C	1.359428	0.354580	-1.037267
C43	C	1.354030	0.361302	-1.131170
C44	C	1.238963	0.504810	-1.124501
C45	C	1.244361	0.498088	-1.030598
C46	C	1.304596	0.422972	-0.986985
C47	C	1.309997	0.416256	-0.893081
C48	C	1.194926	0.559759	-0.886413
C49	C	1.189529	0.566480	-0.980316
C50	C	1.287880	0.443884	-0.274720
C51	C	1.293801	0.436415	-0.174790
H52	H	0.767685	0.609382	-0.374214
N53	N	1.177420	0.581495	-1.169078
N54	N	1.117141	0.551416	-1.218159
H55	H	1.073673	0.605566	-1.249650
H56	H	1.398678	0.305608	-1.172107
H57	H	0.938044	0.598437	-0.384030
N58	N	1.128003	0.643193	-1.024883
N59	N	1.123188	0.649183	-1.108724
H60	H	1.079735	0.703364	-1.140201
H61	H	0.926166	0.366783	-0.593031
N62	N	1.138918	0.629617	-0.835037
N63	N	1.143744	0.623608	-0.751196
H64	H	1.104191	0.672944	-0.714910
N65	N	0.791084	0.298131	-0.655004
N66	N	0.874929	0.292754	-0.659830
H67	H	0.906447	0.244523	-0.703332
N68	N	0.614478	0.568430	-0.411202
N69	N	0.560249	0.641937	-0.439716
H70	H	0.528732	0.690167	-0.396212
N71	N	1.420952	0.277846	-0.992725
N72	N	1.414430	0.180761	-1.002879
H73	H	1.457882	0.126564	-0.971423
N74	N	1.440701	0.877954	-0.563583
N75	N	1.469849	0.903727	-0.639996
H76	H	1.530311	0.873334	-0.660101
H77	H	1.125348	1.033658	-0.458940
N78	N	1.238745	0.876818	-0.336570
N79	N	1.171535	0.823219	-0.322880
H80	H	1.158557	0.792476	-0.260441
H81	H	0.611642	0.322923	-0.632695
H82	H	1.156980	0.908857	-0.612633
N83	N	1.405404	1.017314	-0.391708
N84	N	1.401896	0.989149	-0.310065
H85	H	1.449534	1.010341	-0.267648
N86	N	1.309782	1.043689	-0.680056
N87	N	1.258193	1.028852	-0.743472
H88	H	1.271056	1.059717	-0.805898
H89	H	1.359045	0.355094	-0.857573
