data_functionalizedCrystal
_audit_creation_method	'MofGen! by Chris Wilmer'
_symmetry_space_group_name_H-M	'P1'
_symmetry_Int_Tables_number	1
_symmetry_cell_setting	triclinic
loop_
_symmetry_equiv_pos_as_xyz
  x,y,z
_cell_length_a	29.839134
_cell_length_b	29.839125
_cell_length_c	29.839131
_cell_angle_alpha	90.017709
_cell_angle_beta	89.963719
_cell_angle_gamma	89.978020
loop_
_atom_site_label
_atom_site_type_symbol
_atom_site_fract_x
_atom_site_fract_y
_atom_site_fract_z
Zn1	Zn	0.686720	-0.254125	0.178978
Zn2	Zn	1.020053	0.079208	0.512311
Zn3	Zn	1.353386	0.412542	0.845645
Zn4	Zn	0.686652	-0.178995	0.254090
Zn5	Zn	1.019985	0.154338	0.587423
Zn6	Zn	1.353318	0.487672	0.920757
Zn7	Zn	0.611602	-0.178995	0.178968
Zn8	Zn	0.944936	0.154339	0.512301
Zn9	Zn	1.278269	0.487672	0.845635
Zn10	Zn	0.611550	-0.254083	0.254075
Zn11	Zn	0.944883	0.079250	0.587408
Zn12	Zn	1.278217	0.412583	0.920742
O13	O	0.649131	-0.216549	0.216528
O14	O	0.982464	0.116784	0.549861
O15	O	1.315798	0.450117	0.883194
O16	O	0.749578	-0.244176	0.188952
O17	O	1.082911	0.089157	0.522285
O18	O	1.416244	0.422490	0.855619
O19	O	0.676690	-0.116128	0.244127
O20	O	1.010023	0.217206	0.577460
O21	O	1.343356	0.550539	0.910794
O22	O	0.621617	-0.188978	0.116102
O23	O	0.954950	0.144355	0.449436
O24	O	1.288284	0.477689	0.782769
O25	O	0.749528	-0.188979	0.244137
O26	O	1.082861	0.144355	0.577470
O27	O	1.416195	0.477688	0.910803
O28	O	0.676805	-0.244176	0.116109
O29	O	1.010139	0.089157	0.449443
O30	O	1.343472	0.422491	0.782776
O31	O	0.621551	-0.116127	0.188935
O32	O	0.954885	0.217206	0.522269
O33	O	1.288218	0.550539	0.855602
O34	O	0.548728	-0.188938	0.188921
O35	O	0.882062	0.144396	0.522254
O36	O	1.215395	0.477729	0.855587
O37	O	0.621528	-0.316956	0.244111
O38	O	0.954861	0.016377	0.577444
O39	O	1.288195	0.349711	0.910778
O40	O	0.548690	-0.244105	0.244101
O41	O	0.882023	0.089228	0.577435
O42	O	1.215357	0.422562	0.910768
O43	O	0.676755	-0.316987	0.188937
O44	O	1.010088	0.016347	0.522271
O45	O	1.343421	0.349680	0.855604
O46	O	0.676639	-0.188938	0.316955
O47	O	1.009972	0.144395	0.650288
O48	O	1.343306	0.477728	0.983622
O49	O	0.621462	-0.244105	0.316944
O50	O	0.954796	0.089228	0.650277
O51	O	1.288129	0.422561	0.983611
C52	C	0.532408	-0.216517	0.216509
C53	C	0.865742	0.116816	0.549842
C54	C	1.199075	0.450150	0.883175
C55	C	0.482474	-0.216514	0.216511
C56	C	0.815807	0.116819	0.549845
C57	C	1.149141	0.450153	0.883178
C58	C	0.649143	-0.333728	0.216524
C59	C	0.982476	-0.000395	0.549857
C60	C	1.315810	0.332939	0.883190
C61	C	0.649148	-0.383662	0.216522
C62	C	0.982482	-0.050329	0.549855
C63	C	1.315815	0.283004	0.883189
C64	C	0.172820	-0.245240	0.245303
C65	C	0.506153	0.088093	0.578636
C66	C	0.839487	0.421427	0.911969
C67	C	-0.014853	-0.245260	0.245315
C68	C	0.318480	0.088073	0.578649
C69	C	0.651814	0.421407	0.911982
O70	O	-0.039127	-0.269665	0.269774
O71	O	0.294207	0.063669	0.603107
O72	O	0.627540	0.397002	0.936440
N73	N	-0.038311	-0.216583	0.216544
N74	N	0.295022	0.116750	0.549877
N75	N	0.628356	0.450083	0.883211
C76	C	-0.014848	-0.187902	0.187766
C77	C	0.318485	0.145432	0.521099
C78	C	0.651819	0.478765	0.854432
O79	O	-0.039107	-0.163514	0.163291
O80	O	0.294226	0.169819	0.496624
O81	O	0.627560	0.503152	0.829958
C82	C	0.172824	-0.187884	0.187751
C83	C	0.506157	0.145449	0.521084
C84	C	0.839491	0.478782	0.854418
C85	C	0.196280	-0.216560	0.216527
C86	C	0.529613	0.116774	0.549861
C87	C	0.862946	0.450107	0.883194
C88	C	0.196276	-0.273913	0.274076
C89	C	0.529609	0.059420	0.607410
C90	C	0.862942	0.392753	0.940743
C91	C	0.243191	-0.273906	0.274075
C92	C	0.576525	0.059427	0.607408
C93	C	0.909858	0.392760	0.940741
C94	C	0.266651	-0.245226	0.245299
C95	C	0.599984	0.088107	0.578633
C96	C	0.933318	0.421441	0.911966
C97	C	0.243195	-0.216553	0.216526
C98	C	0.576529	0.116781	0.549859
C99	C	0.909862	0.450114	0.883192
C100	C	0.196286	-0.159205	0.158971
C101	C	0.529620	0.174128	0.492304
C102	C	0.862953	0.507461	0.825637
C103	C	0.243207	-0.159204	0.158969
C104	C	0.576541	0.174129	0.492302
C105	C	0.909874	0.507462	0.825635
C106	C	0.266663	-0.187880	0.187745
C107	C	0.599996	0.145454	0.521078
C108	C	0.933330	0.478787	0.854412
C109	C	0.313570	-0.187865	0.187749
C110	C	0.646904	0.145468	0.521082
C111	C	0.980237	0.478801	0.854415
N112	N	0.337029	-0.216542	0.216520
N113	N	0.670362	0.116791	0.549853
N114	N	1.003695	0.450125	0.883186
C115	C	0.313569	-0.245222	0.245295
C116	C	0.646902	0.088111	0.578628
C117	C	0.980235	0.421444	0.911962
C118	C	-0.113379	-0.187912	0.187776
C119	C	0.219955	0.145421	0.521109
C120	C	0.553288	0.478754	0.854443
C121	C	-0.160297	-0.187916	0.187780
C122	C	0.173037	0.145417	0.521113
C123	C	0.506370	0.478751	0.854447
C124	C	-0.160298	-0.245275	0.245329
C125	C	0.173035	0.088058	0.578663
C126	C	0.506368	0.421392	0.911996
C127	C	-0.113380	-0.245269	0.245327
C128	C	0.219954	0.088065	0.578661
C129	C	0.553287	0.421398	0.911994
C130	C	-0.089921	-0.216589	0.216547
C131	C	0.243413	0.116744	0.549881
C132	C	0.576746	0.450078	0.883214
C133	C	0.412095	-0.245205	0.245290
C134	C	0.745428	0.088128	0.578623
C135	C	1.078761	0.421462	0.911956
C136	C	0.459014	-0.245194	0.245287
C137	C	0.792348	0.088139	0.578620
C138	C	1.125681	0.421472	0.911953
C139	C	0.459012	-0.187837	0.187736
C140	C	0.792345	0.145496	0.521069
C141	C	1.125678	0.478830	0.854403
C142	C	0.412096	-0.187846	0.187740
C143	C	0.745430	0.145487	0.521074
C144	C	1.078763	0.478821	0.854407
C145	C	0.388639	-0.216534	0.216519
C146	C	0.721972	0.116800	0.549852
C147	C	1.055306	0.450133	0.883185
O148	O	0.337873	-0.163477	0.163299
O149	O	0.671206	0.169856	0.496633
O150	O	1.004540	0.503190	0.829966
O151	O	0.337836	-0.269613	0.269759
O152	O	0.671169	0.063720	0.603092
O153	O	1.004502	0.397054	0.936426
C154	C	0.125905	-0.245247	0.245304
C155	C	0.459238	0.088086	0.578638
C156	C	0.792571	0.421420	0.911971
C157	C	0.102449	-0.216574	0.216531
C158	C	0.435782	0.116760	0.549864
C159	C	0.769116	0.450093	0.883197
C160	C	0.125909	-0.187893	0.187755
C161	C	0.459242	0.145440	0.521089
C162	C	0.792575	0.478773	0.854422
C163	C	0.055531	-0.216577	0.216535
C164	C	0.388864	0.116756	0.549868
C165	C	0.722198	0.450089	0.883202
C166	C	0.032071	-0.245258	0.245310
C167	C	0.365405	0.088076	0.578644
C168	C	0.698738	0.421409	0.911977
C169	C	0.055529	-0.273934	0.274082
C170	C	0.388863	0.059399	0.607415
C171	C	0.722196	0.392732	0.940748
C172	C	0.102445	-0.273927	0.274080
C173	C	0.435778	0.059406	0.607413
C174	C	0.769112	0.392739	0.940747
C175	C	0.102451	-0.159217	0.158984
C176	C	0.435784	0.174117	0.492318
C177	C	0.769117	0.507450	0.825651
C178	C	0.055535	-0.159226	0.158989
C179	C	0.388868	0.174108	0.492322
C180	C	0.722202	0.507441	0.825655
C181	C	0.032075	-0.187906	0.187764
C182	C	0.365409	0.145427	0.521097
C183	C	0.698742	0.478761	0.854431
C184	C	0.677935	-0.693325	0.187718
C185	C	1.011268	-0.359991	0.521051
C186	C	1.344602	-0.026658	0.854385
C187	C	0.677957	-0.880998	0.187680
C188	C	1.011291	-0.547665	0.521013
C189	C	1.344624	-0.214331	0.854346
O190	O	0.702399	-0.905279	0.163232
O191	O	1.035733	-0.571946	0.496565
O192	O	1.369066	-0.238612	0.829899
N193	N	0.649208	-0.904448	0.216402
N194	N	0.982541	-0.571114	0.549735
N195	N	1.315875	-0.237781	0.883068
C196	C	0.620449	-0.880976	0.245133
C197	C	0.953782	-0.547643	0.578467
C198	C	1.287115	-0.214310	0.911800
O199	O	0.595993	-0.905228	0.269559
O200	O	0.929326	-0.571895	0.602892
O201	O	1.262659	-0.238561	0.936226
C202	C	0.620424	-0.693304	0.245169
C203	C	0.953758	-0.359971	0.578502
C204	C	1.287091	-0.026637	0.911836
C205	C	0.649179	-0.669857	0.216448
C206	C	0.982512	-0.336523	0.549782
C207	C	1.315846	-0.003190	0.883115
C208	C	0.706687	-0.669877	0.158999
C209	C	1.040020	-0.336544	0.492333
C210	C	1.373354	-0.003211	0.825666
C211	C	0.706683	-0.622962	0.159011
C212	C	1.040016	-0.289629	0.492344
C213	C	1.373349	0.043705	0.825677
C214	C	0.677927	-0.599494	0.187741
C215	C	1.011260	-0.266160	0.521074
C216	C	1.344593	0.067173	0.854408
C217	C	0.649175	-0.622941	0.216460
C218	C	0.982508	-0.289608	0.549793
C219	C	1.315842	0.043726	0.883126
C220	C	0.591663	-0.669833	0.273898
C221	C	0.924997	-0.336500	0.607231
C222	C	1.258330	-0.003167	0.940565
C223	C	0.591659	-0.622912	0.273903
C224	C	0.924992	-0.289579	0.607237
C225	C	1.258326	0.043754	0.940570
C226	C	0.620414	-0.599465	0.245183
C227	C	0.953747	-0.266132	0.578516
C228	C	1.287080	0.067202	0.911849
C229	C	0.620415	-0.552558	0.245202
C230	C	0.953748	-0.219224	0.578535
C231	C	1.287081	0.114109	0.911868
N232	N	0.649164	-0.529108	0.216480
N233	N	0.982498	-0.195774	0.549813
N234	N	1.315831	0.137559	0.883146
C235	C	0.677920	-0.552576	0.187749
C236	C	1.011254	-0.219243	0.521083
C237	C	1.344587	0.114091	0.854416
C238	C	0.620464	-0.979507	0.245113
C239	C	0.953797	-0.646173	0.578446
C240	C	1.287131	-0.312840	0.911780
C241	C	0.620471	-1.026425	0.245105
C242	C	0.953804	-0.693091	0.578438
C243	C	1.287137	-0.359758	0.911771
C244	C	0.677979	-1.026443	0.187650
C245	C	1.011312	-0.693110	0.520984
C246	C	1.344645	-0.359777	0.854317
C247	C	0.677974	-0.979524	0.187661
C248	C	1.011308	-0.646191	0.520995
C249	C	1.344641	-0.312858	0.854328
C250	C	0.649214	-0.956057	0.216391
C251	C	0.982547	-0.622724	0.549724
C252	C	1.315880	-0.289390	0.883058
C253	C	0.677910	-0.454050	0.187776
C254	C	1.011243	-0.120717	0.521109
C255	C	1.344576	0.212617	0.854443
C256	C	0.677904	-0.407130	0.187792
C257	C	1.011238	-0.073797	0.521125
C258	C	1.344571	0.259536	0.854458
C259	C	0.620395	-0.407116	0.245244
C260	C	0.953728	-0.073783	0.578577
C261	C	1.287061	0.259551	0.911911
C262	C	0.620401	-0.454032	0.245230
C263	C	0.953735	-0.120698	0.578564
C264	C	1.287068	0.212635	0.911897
C265	C	0.649161	-0.477497	0.216493
C266	C	0.982494	-0.144164	0.549826
C267	C	1.315827	0.189169	0.883160
O268	O	0.595982	-0.528248	0.269633
O269	O	0.929315	-0.194914	0.602966
O270	O	1.262649	0.138419	0.936300
O271	O	0.702366	-0.528316	0.163320
O272	O	1.035699	-0.194983	0.496654
O273	O	1.369032	0.138350	0.829987
C274	C	0.677939	-0.740240	0.187706
C275	C	1.011273	-0.406907	0.521040
C276	C	1.344606	-0.073574	0.854373
C277	C	0.649187	-0.763688	0.216425
C278	C	0.982521	-0.430354	0.549758
C279	C	1.315854	-0.097021	0.883092
C280	C	0.620431	-0.740219	0.245155
C281	C	0.953765	-0.406886	0.578489
C282	C	1.287098	-0.073553	0.911822
C283	C	0.649194	-0.810605	0.216417
C284	C	0.982527	-0.477272	0.549750
C285	C	1.315861	-0.143939	0.883083
C286	C	0.677950	-0.834074	0.187686
C287	C	1.011283	-0.500740	0.521020
C288	C	1.344617	-0.167407	0.854353
C289	C	0.706699	-0.810624	0.158964
C290	C	1.040033	-0.477291	0.492298
C291	C	1.373366	-0.143957	0.825631
C292	C	0.706695	-0.763708	0.158976
C293	C	1.040029	-0.430375	0.492309
C294	C	1.373362	-0.097042	0.825643
C295	C	0.591682	-0.763669	0.273877
C296	C	0.925015	-0.430336	0.607211
C297	C	1.258349	-0.097002	0.940544
C298	C	0.591689	-0.810585	0.273864
C299	C	0.925022	-0.477251	0.607197
C300	C	1.258355	-0.143918	0.940530
C301	C	0.620445	-0.834053	0.245133
C302	C	0.953778	-0.500719	0.578467
C303	C	1.287111	-0.167386	0.911800
C304	C	0.766309	-0.216582	0.216547
C305	C	1.099643	0.116751	0.549880
C306	C	1.432976	0.450084	0.883214
C307	C	0.816244	-0.216596	0.216555
C308	C	1.149577	0.116737	0.549889
C309	C	1.482910	0.450070	0.883222
C310	C	0.649050	-0.216527	0.333250
C311	C	0.982383	0.116806	0.666584
C312	C	1.315717	0.450139	0.999917
C313	C	0.649056	-0.216533	0.383185
C314	C	0.982390	0.116801	0.716518
C315	C	1.315723	0.450134	1.049851
C316	C	0.649145	-0.099827	0.216499
C317	C	0.982478	0.233506	0.549833
C318	C	1.315811	0.566840	0.883166
C319	C	0.649227	-0.049893	0.216374
C320	C	0.982560	0.283440	0.549708
C321	C	1.315893	0.616774	0.883041
C322	C	0.649225	-0.216582	0.099349
C323	C	0.982558	0.116752	0.432683
C324	C	1.315891	0.450085	0.766016
C325	C	0.649265	-0.216595	0.049415
C326	C	0.982598	0.116738	0.382748
C327	C	1.315931	0.450071	0.716082
C328	C	0.677914	-0.187866	0.692821
C329	C	1.011247	0.145467	1.026155
C330	C	1.344580	0.478801	1.359488
C331	C	0.677969	-0.187883	0.880494
C332	C	1.011303	0.145450	1.213828
C333	C	1.344636	0.478783	1.547161
O334	O	0.702441	-0.163493	0.904753
O335	O	1.035774	0.169841	1.238087
O336	O	1.369107	0.503174	1.571420
N337	N	0.649224	-0.216583	0.903970
N338	N	0.982557	0.116750	1.237303
N339	N	1.315891	0.450083	1.570636
C340	C	0.620465	-0.245283	0.880524
C341	C	0.953799	0.088050	1.213857
C342	C	1.287132	0.421384	1.547191
O343	O	0.596020	-0.269698	0.904798
O344	O	0.929354	0.063635	1.238131
O345	O	1.262687	0.396969	1.571464
C346	C	0.620412	-0.245268	0.692852
C347	C	0.953746	0.088066	1.026185
C348	C	1.287079	0.421399	1.359519
C349	C	0.649156	-0.216563	0.669379
C350	C	0.982489	0.116771	1.002712
C351	C	1.315823	0.450104	1.336045
C352	C	0.706656	-0.159164	0.669348
C353	C	1.039989	0.174170	1.002681
C354	C	1.373322	0.507503	1.336015
C355	C	0.706640	-0.159158	0.622433
C356	C	1.039973	0.174176	0.955766
C357	C	1.373306	0.507509	1.289099
C358	C	0.677882	-0.187854	0.598990
C359	C	1.011215	0.145479	0.932324
C360	C	1.344549	0.478812	1.265657
C361	C	0.649140	-0.216557	0.622463
C362	C	0.982474	0.116777	0.955797
C363	C	1.315807	0.450110	1.289130
C364	C	0.591656	-0.273969	0.669407
C365	C	0.924989	0.059364	1.002740
C366	C	1.258323	0.392697	1.336074
C367	C	0.591646	-0.273964	0.622486
C368	C	0.924979	0.059370	0.955819
C369	C	1.258313	0.392703	1.289153
C370	C	0.620390	-0.245259	0.599013
C371	C	0.953723	0.088075	0.932346
C372	C	1.287057	0.421408	1.265680
C373	C	0.620367	-0.245248	0.552106
C374	C	0.953700	0.088086	0.885439
C375	C	1.287033	0.421419	1.218772
N376	N	0.649112	-0.216548	0.528630
N377	N	0.982445	0.116786	0.861963
N378	N	1.315778	0.450119	1.195297
C379	C	0.677869	-0.187851	0.552072
C380	C	1.011203	0.145482	0.885406
C381	C	1.344536	0.478816	1.218739
C382	C	0.620494	-0.245289	0.979055
C383	C	0.953828	0.088045	1.312388
C384	C	1.287161	0.421378	1.645721
C385	C	0.620507	-0.245292	1.025973
C386	C	0.953840	0.088041	1.359306
C387	C	1.287174	0.421375	1.692639
C388	C	0.678012	-0.187893	1.025939
C389	C	1.011345	0.145441	1.359273
C390	C	1.344678	0.478774	1.692606
C391	C	0.677996	-0.187887	0.979021
C392	C	1.011330	0.145446	1.312354
C393	C	1.344663	0.478779	1.645687
C394	C	0.649239	-0.216589	0.955579
C395	C	0.982573	0.116745	1.288913
C396	C	1.315906	0.450078	1.622246
C397	C	0.677834	-0.187841	0.453547
C398	C	1.011167	0.145493	0.786880
C399	C	1.344500	0.478826	1.120213
C400	C	0.677814	-0.187836	0.406627
C401	C	1.011147	0.145497	0.739960
C402	C	1.344481	0.478831	1.073294
C403	C	0.620311	-0.245237	0.406664
C404	C	0.953644	0.088097	0.739998
C405	C	1.286978	0.421430	1.073331
C406	C	0.620329	-0.245240	0.453580
C407	C	0.953662	0.088093	0.786913
C408	C	1.286996	0.421427	1.120246
C409	C	0.649094	-0.216540	0.477020
C410	C	0.982427	0.116793	0.810353
C411	C	1.315761	0.450126	1.143686
O412	O	0.595912	-0.269629	0.527818
O413	O	0.929245	0.063704	0.861151
O414	O	1.262578	0.397038	1.194484
O415	O	0.702318	-0.163447	0.527791
O416	O	1.035651	0.169886	0.861124
O417	O	1.368984	0.503220	1.194457
C418	C	0.677930	-0.187872	0.739737
C419	C	1.011263	0.145462	1.073070
C420	C	1.344596	0.478795	1.406403
C421	C	0.649188	-0.216574	0.763210
C422	C	0.982521	0.116759	1.096543
C423	C	1.315855	0.450093	1.429876
C424	C	0.620430	-0.245271	0.739767
C425	C	0.953764	0.088063	1.073101
C426	C	1.287097	0.421396	1.406434
C427	C	0.649200	-0.216578	0.810128
C428	C	0.982534	0.116756	1.143461
C429	C	1.315867	0.450089	1.476794
C430	C	0.677958	-0.187881	0.833570
C431	C	1.011291	0.145452	1.166903
C432	C	1.344625	0.478786	1.500237
C433	C	0.706703	-0.159181	0.810094
C434	C	1.040037	0.174152	1.143428
C435	C	1.373370	0.507486	1.476761
C436	C	0.706687	-0.159175	0.763179
C437	C	1.040021	0.174158	1.096512
C438	C	1.373354	0.507492	1.429846
C439	C	0.591685	-0.273971	0.763243
C440	C	0.925018	0.059363	1.096576
C441	C	1.258352	0.392696	1.429910
C442	C	0.591703	-0.273974	0.810158
C443	C	0.925036	0.059360	1.143492
C444	C	1.258370	0.392693	1.476825
C445	C	0.620461	-0.245277	0.833601
C446	C	0.953794	0.088056	1.166934
C447	C	1.287127	0.421389	1.500267
H448	H	0.478110	-0.268545	0.268721
H449	H	0.811443	0.064788	0.602055
H450	H	1.144776	0.398121	0.935388
C451	C	0.737872	-0.127956	0.835535
C452	C	1.071205	0.205377	1.168868
C453	C	1.404539	0.538711	1.502202
C454	C	0.728121	-0.083488	0.824172
C455	C	1.061454	0.249845	1.157506
C456	C	1.394787	0.583179	1.490839
C457	C	0.756820	-0.054718	0.847609
C458	C	1.090154	0.278616	1.180942
C459	C	1.423487	0.611949	1.514276
H460	H	0.768067	-0.134506	0.827838
H461	H	1.101400	0.198827	1.161171
H462	H	1.434733	0.532161	1.494505
H463	H	0.733754	-0.132049	0.866842
H464	H	1.067087	0.201284	1.200175
H465	H	1.400420	0.534617	1.533508
H466	H	0.732243	-0.079397	0.792873
H467	H	1.065576	0.253937	1.126206
H468	H	1.398909	0.587270	1.459540
H469	H	0.697931	-0.076924	0.831871
H470	H	1.031265	0.256409	1.165204
H471	H	1.364598	0.589743	1.498537
H472	H	0.752702	-0.058811	0.878916
H473	H	1.086035	0.274522	1.212249
H474	H	1.419369	0.607856	1.545582
H475	H	0.787013	-0.061272	0.839910
H476	H	1.120347	0.272062	1.173244
H477	H	1.453680	0.605395	1.506577
H478	H	0.750205	-0.024543	0.839906
H479	H	1.083539	0.308790	1.173239
H480	H	1.416872	0.642124	1.506573
H481	H	0.596991	-0.473123	0.268621
H482	H	0.930325	-0.139790	0.601955
H483	H	1.263658	0.193543	0.935288
H484	H	0.393001	-0.268566	0.268723
H485	H	0.726334	0.064767	0.602056
H486	H	1.059668	0.398100	0.935389
H487	H	0.262285	-0.297258	0.297506
H488	H	0.595618	0.036076	0.630840
H489	H	0.928951	0.369409	0.964173
C490	C	0.560566	-0.305169	0.835697
C491	C	0.893899	0.028164	1.169030
C492	C	1.227233	0.361498	1.502364
C493	C	0.585994	-0.333988	0.862601
C494	C	0.919327	-0.000655	1.195934
C495	C	1.252661	0.332679	1.529267
C496	C	0.557331	-0.362730	0.886136
C497	C	0.890664	-0.029396	1.219469
C498	C	1.223997	0.303937	1.552802
H499	H	0.543429	-0.322301	0.815063
H500	H	0.876763	0.011032	1.148396
H501	H	1.210096	0.344366	1.481730
H502	H	0.541014	-0.287982	0.854054
H503	H	0.874347	0.045351	1.187387
H504	H	1.207680	0.378684	1.520721
H505	H	0.605538	-0.351173	0.844246
H506	H	0.938872	-0.017840	1.177579
H507	H	1.272205	0.315493	1.510912
H508	H	0.603130	-0.316869	0.883243
H509	H	0.936463	0.016465	1.216576
H510	H	1.269797	0.349798	1.549910
H511	H	0.537778	-0.345543	0.904492
H512	H	0.871112	-0.012210	1.237826
H513	H	1.204445	0.321124	1.571159
H514	H	0.540195	-0.379858	0.865498
H515	H	0.873529	-0.046525	1.198832
H516	H	1.206862	0.286808	1.532165
H517	H	0.574579	-0.382284	0.904396
H518	H	0.907912	-0.048951	1.237729
H519	H	1.241246	0.284383	1.571062
C520	C	0.386708	-0.156694	0.156452
C521	C	0.720042	0.176640	0.489785
C522	C	1.053375	0.509973	0.823118
C523	C	0.417298	-0.131582	0.131246
C524	C	0.750631	0.201752	0.464579
C525	C	1.083965	0.535085	0.797912
C526	C	0.393931	-0.102886	0.102410
C527	C	0.727264	0.230447	0.435744
C528	C	1.060598	0.563780	0.769077
H529	H	0.368381	-0.137051	0.173556
H530	H	0.701714	0.196282	0.506889
H531	H	1.035048	0.529615	0.840223
H532	H	0.368439	-0.173909	0.136878
H533	H	0.701772	0.159425	0.470212
H534	H	1.035105	0.492758	0.803545
H535	H	0.435560	-0.114368	0.150817
H536	H	0.768893	0.218965	0.484150
H537	H	1.102227	0.552299	0.817483
H538	H	0.435626	-0.151212	0.114132
H539	H	0.768960	0.182121	0.447466
H540	H	1.102293	0.515455	0.780799
H541	H	0.375661	-0.120101	0.082837
H542	H	0.708995	0.213232	0.416170
H543	H	1.042328	0.546565	0.749504
H544	H	0.375604	-0.083247	0.119518
H545	H	0.708938	0.250086	0.452851
H546	H	1.042271	0.583420	0.786185
H547	H	0.414682	-0.085847	0.085302
H548	H	0.748016	0.247486	0.418635
H549	H	1.081349	0.580819	0.751968
C550	C	0.560408	-0.305143	0.737877
C551	C	0.893741	0.028190	1.071210
C552	C	1.227075	0.361524	1.404543
C553	C	0.535232	-0.330267	0.768482
C554	C	0.868566	0.003067	1.101816
C555	C	1.201899	0.336400	1.435149
C556	C	0.506406	-0.358982	0.745134
C557	C	0.839740	-0.025649	1.078467
C558	C	1.173073	0.307684	1.411800
H559	H	0.577517	-0.324777	0.719546
H560	H	0.910851	0.008556	1.052879
H561	H	1.244184	0.341889	1.386212
H562	H	0.540815	-0.287942	0.719612
H563	H	0.874148	0.045391	1.052945
H564	H	1.207481	0.378724	1.386279
H565	H	0.554823	-0.347466	0.786739
H566	H	0.888157	-0.014133	1.120073
H567	H	1.221490	0.319201	1.453406
H568	H	0.518114	-0.310644	0.786814
H569	H	0.851447	0.022689	1.120148
H570	H	1.184780	0.356022	1.453481
H571	H	0.486813	-0.341782	0.726869
H572	H	0.820147	-0.008448	1.060203
H573	H	1.153480	0.324885	1.393536
H574	H	0.523520	-0.378614	0.726804
H575	H	0.856853	-0.045280	1.060137
H576	H	1.190186	0.288053	1.393470
H577	H	0.489319	-0.376029	0.765896
H578	H	0.822652	-0.042696	1.099229
H579	H	1.155985	0.290638	1.432563
C580	C	0.737844	-0.836132	0.127713
C581	C	1.071178	-0.502799	0.461047
C582	C	1.404511	-0.169466	0.794380
C583	C	0.712426	-0.863053	0.098905
C584	C	1.045759	-0.529720	0.432238
C585	C	1.379093	-0.196386	0.765572
C586	C	0.741097	-0.886555	0.070106
C587	C	1.074430	-0.553222	0.403440
C588	C	1.407763	-0.219888	0.736773
H589	H	0.757415	-0.854477	0.144845
H590	H	1.090748	-0.521144	0.478178
H591	H	1.424082	-0.187811	0.811512
H592	H	0.754961	-0.815465	0.110581
H593	H	1.088294	-0.482132	0.443914
H594	H	1.421627	-0.148799	0.777247
H595	H	0.695317	-0.883718	0.116036
H596	H	1.028651	-0.550384	0.449369
H597	H	1.361984	-0.217051	0.782703
H598	H	0.692856	-0.844719	0.081764
H599	H	1.026190	-0.511386	0.415097
H600	H	1.359523	-0.178053	0.748430
H601	H	0.758213	-0.865888	0.052973
H602	H	1.091546	-0.532555	0.386307
H603	H	1.424880	-0.199221	0.719640
H604	H	0.760666	-0.904898	0.087241
H605	H	1.093999	-0.571564	0.420575
H606	H	1.427333	-0.238231	0.753908
H607	H	0.723855	-0.904820	0.050554
H608	H	1.057188	-0.571487	0.383887
H609	H	1.390521	-0.238154	0.717220
H610	H	0.121538	-0.297278	0.297512
H611	H	0.454872	0.036055	0.630846
H612	H	0.788205	0.369389	0.964179
C613	C	0.170891	-0.305070	0.305372
C614	C	0.504225	0.028263	0.638706
C615	C	0.837558	0.361596	0.972039
C616	C	0.201484	-0.330168	0.330574
C617	C	0.534817	0.003165	0.663907
C618	C	0.868151	0.336498	0.997240
C619	C	0.178120	-0.358870	0.359417
C620	C	0.511454	-0.025536	0.692751
C621	C	0.844787	0.307797	1.026084
H622	H	0.152604	-0.324721	0.288274
H623	H	0.485938	0.008612	0.621608
H624	H	0.819271	0.341945	0.954941
H625	H	0.152582	-0.287861	0.324948
H626	H	0.485915	0.045473	0.658282
H627	H	0.819248	0.378806	0.991615
H628	H	0.219786	-0.347377	0.311000
H629	H	0.553119	-0.014044	0.644333
H630	H	0.886453	0.319290	0.977667
H631	H	0.219772	-0.310529	0.347681
H632	H	0.553105	0.022804	0.681014
H633	H	0.886439	0.356137	1.014348
H634	H	0.159811	-0.341660	0.378993
H635	H	0.493144	-0.008327	0.712327
H636	H	0.826477	0.325007	1.045660
H637	H	0.159834	-0.378518	0.342316
H638	H	0.493167	-0.045184	0.675649
H639	H	0.826501	0.288149	1.008982
H640	H	0.198874	-0.375899	0.376523
H641	H	0.532207	-0.042566	0.709856
H642	H	0.865540	0.290768	1.043189
C643	C	0.589191	-0.381550	0.276385
C644	C	0.922524	-0.048216	0.609719
C645	C	1.255857	0.285117	0.943052
C646	C	0.595335	-0.335444	0.270234
C647	C	0.928668	-0.002110	0.603568
C648	C	1.262001	0.331223	0.936901
C649	C	0.566591	-0.311877	0.298907
C650	C	0.899924	0.021456	0.632240
C651	C	1.233257	0.354790	0.965574
H652	H	0.595709	-0.389180	0.306590
H653	H	0.929042	-0.055847	0.639923
H654	H	1.262376	0.277487	0.973257
H655	H	0.559002	-0.389204	0.269796
H656	H	0.892336	-0.055871	0.603130
H657	H	1.225669	0.277463	0.936463
H658	H	0.625516	-0.327792	0.276827
H659	H	0.958850	0.005541	0.610160
H660	H	1.292183	0.338874	0.943493
H661	H	0.588813	-0.327800	0.240036
H662	H	0.922147	0.005534	0.573369
H663	H	1.255480	0.338867	0.906702
H664	H	0.536402	-0.319531	0.292318
H665	H	0.869735	0.013802	0.625651
H666	H	1.203069	0.347135	0.958985
H667	H	0.573111	-0.319511	0.329110
H668	H	0.906445	0.013822	0.662443
H669	H	1.239778	0.347156	0.995777
H670	H	0.570752	-0.280592	0.294735
H671	H	0.904086	0.052742	0.628068
H672	H	1.237419	0.386075	0.961401
H673	H	-0.094285	-0.268619	0.268759
H674	H	0.239048	0.064714	0.602092
H675	H	0.572382	0.398047	0.935425
C676	C	0.589063	-0.276328	0.479090
C677	C	0.922396	0.057006	0.812423
C678	C	1.255729	0.390339	1.145757
C679	C	0.560287	-0.250865	0.506059
C680	C	0.893621	0.082468	0.839392
C681	C	1.226954	0.415801	1.172725
C682	C	0.531477	-0.279491	0.529556
C683	C	0.864811	0.053842	0.862889
C684	C	1.198144	0.387176	1.196223
H685	H	0.606188	-0.295934	0.497402
H686	H	0.939521	0.037399	0.830735
H687	H	1.272855	0.370733	1.164069
H688	H	0.571907	-0.293407	0.458420
H689	H	0.905240	0.039926	0.791753
H690	H	1.238574	0.373259	1.125087
H691	H	0.577441	-0.233793	0.526726
H692	H	0.910775	0.099540	0.860059
H693	H	1.244108	0.432873	1.193393
H694	H	0.543152	-0.231260	0.487758
H695	H	0.876485	0.102073	0.821091
H696	H	1.209819	0.435407	1.154424
H697	H	0.514322	-0.296571	0.508886
H698	H	0.847655	0.036763	0.842219
H699	H	1.180988	0.370096	1.175553
H700	H	0.548606	-0.299096	0.547865
H701	H	0.881940	0.034237	0.881199
H702	H	1.215273	0.367570	1.214532
H703	H	0.511947	-0.262219	0.547854
H704	H	0.845280	0.071114	0.881187
H705	H	1.178614	0.404448	1.214520
H706	H	-0.179407	-0.268628	0.268759
H707	H	0.153926	0.064706	0.602093
H708	H	0.487260	0.398039	0.935426
H709	H	-0.094283	-0.164556	0.164339
H710	H	0.239051	0.168778	0.497673
H711	H	0.572384	0.502111	0.831006
C712	C	-0.185679	-0.156762	0.156491
C713	C	0.147655	0.176572	0.489825
C714	C	0.480988	0.509905	0.823158
C715	C	-0.155086	-0.131655	0.131284
C716	C	0.178248	0.201678	0.464617
C717	C	0.511581	0.535012	0.797950
C718	C	-0.178449	-0.102957	0.102449
C719	C	0.154884	0.230377	0.435782
C720	C	0.488218	0.563710	0.769115
H721	H	-0.204002	-0.137116	0.173596
H722	H	0.129331	0.196217	0.506929
H723	H	0.462665	0.529551	0.840263
H724	H	-0.203952	-0.173974	0.136919
H725	H	0.129381	0.159359	0.470252
H726	H	0.462715	0.492693	0.803586
H727	H	-0.136820	-0.114444	0.150853
H728	H	0.196513	0.218889	0.484187
H729	H	0.529847	0.552222	0.817520
H730	H	-0.136761	-0.151289	0.114170
H731	H	0.196572	0.182044	0.447503
H732	H	0.529905	0.515378	0.780836
H733	H	-0.196722	-0.120169	0.082876
H734	H	0.136611	0.213165	0.416210
H735	H	0.469944	0.546498	0.749543
H736	H	-0.196772	-0.083314	0.119557
H737	H	0.136562	0.250019	0.452890
H738	H	0.469895	0.583353	0.786224
H739	H	-0.157695	-0.085921	0.085339
H740	H	0.175638	0.247412	0.418672
H741	H	0.508971	0.580745	0.752006
H742	H	0.262305	-0.135852	0.135529
H743	H	0.595638	0.197481	0.468863
H744	H	0.928972	0.530815	0.802196
C745	C	0.170909	-0.128057	0.127675
C746	C	0.504243	0.205276	0.461008
C747	C	0.837576	0.538609	0.794341
C748	C	0.201506	-0.102955	0.102467
C749	C	0.534839	0.230379	0.435800
C750	C	0.868172	0.563712	0.769133
C751	C	0.178146	-0.074260	0.073625
C752	C	0.511479	0.259074	0.406958
C753	C	0.844813	0.592407	0.740292
H754	H	0.152584	-0.108409	0.144774
H755	H	0.485918	0.224924	0.478108
H756	H	0.819251	0.558258	0.811441
H757	H	0.152638	-0.145272	0.108102
H758	H	0.485971	0.188061	0.441436
H759	H	0.819305	0.521395	0.774769
H760	H	0.219769	-0.085741	0.122036
H761	H	0.553103	0.247592	0.455370
H762	H	0.886436	0.580926	0.788703
H763	H	0.219832	-0.122591	0.085358
H764	H	0.553165	0.210742	0.418691
H765	H	0.886498	0.544076	0.752025
H766	H	0.159875	-0.091475	0.054053
H767	H	0.493208	0.241859	0.387386
H768	H	0.826541	0.575192	0.720720
H769	H	0.159822	-0.054614	0.090728
H770	H	0.493155	0.278719	0.424062
H771	H	0.826488	0.612052	0.757395
H772	H	0.198902	-0.057227	0.056515
H773	H	0.532235	0.276106	0.389849
H774	H	0.865568	0.609439	0.723182
C775	C	0.589331	-1.051901	0.276350
C776	C	0.922664	-0.718567	0.609683
C777	C	1.255998	-0.385234	0.943017
C778	C	0.614748	-1.078828	0.305154
C779	C	0.948082	-0.745495	0.638488
C780	C	1.281415	-0.412162	0.971821
C781	C	0.586076	-1.102296	0.333948
C782	C	0.919410	-0.768962	0.667281
C783	C	1.252743	-0.435629	1.000615
H784	H	0.569761	-1.070238	0.259214
H785	H	0.903094	-0.736905	0.592548
H786	H	1.236428	-0.403571	0.925881
H787	H	0.572214	-1.031213	0.293486
H788	H	0.905548	-0.697879	0.626819
H789	H	1.238881	-0.364546	0.960153
H790	H	0.631857	-1.099514	0.288020
H791	H	0.965191	-0.766180	0.621354
H792	H	1.298524	-0.432847	0.954687
H793	H	0.634317	-1.060502	0.322300
H794	H	0.967651	-0.727169	0.655633
H795	H	1.300984	-0.393836	0.988967
H796	H	0.568960	-1.081608	0.351084
H797	H	0.902293	-0.748275	0.684417
H798	H	1.235626	-0.414941	1.017750
H799	H	0.566508	-1.120631	0.316809
H800	H	0.899841	-0.787297	0.650142
H801	H	1.233174	-0.453964	0.983475
H802	H	0.603318	-1.120566	0.353498
H803	H	0.936651	-0.787232	0.686831
H804	H	1.269984	-0.453899	1.020164
C805	C	0.589046	-0.276415	0.381288
C806	C	0.922379	0.056919	0.714621
C807	C	1.255713	0.390252	1.047955
C808	C	0.563869	-0.301550	0.411883
C809	C	0.897203	0.031783	0.745216
C810	C	1.230536	0.365116	1.078550
C811	C	0.535064	-0.330276	0.388522
C812	C	0.868397	0.003057	0.721855
C813	C	1.201730	0.336391	1.055189
H814	H	0.606170	-0.296041	0.362962
H815	H	0.939504	0.037292	0.696296
H816	H	1.272837	0.370626	1.029629
H817	H	0.569453	-0.259221	0.363017
H818	H	0.902786	0.074113	0.696350
H819	H	1.236119	0.407446	1.029684
H820	H	0.583460	-0.318743	0.430146
H821	H	0.916793	0.014590	0.763479
H822	H	1.250127	0.347924	1.096813
H823	H	0.546736	-0.281936	0.430210
H824	H	0.880069	0.051397	0.763543
H825	H	1.213402	0.384731	1.096876
H826	H	0.515470	-0.313082	0.370251
H827	H	0.848803	0.020251	0.703584
H828	H	1.182137	0.353584	1.036918
H829	H	0.552191	-0.349899	0.370197
H830	H	0.885525	-0.016566	0.703530
H831	H	1.218858	0.316767	1.036864
H832	H	0.517975	-0.347331	0.409277
H833	H	0.851308	-0.013998	0.742610
H834	H	1.184641	0.319336	1.075944
C835	C	0.737930	-0.738336	0.127741
C836	C	1.071263	-0.405003	0.461074
C837	C	1.404596	-0.071670	0.794408
C838	C	0.763102	-0.768939	0.102573
C839	C	1.096435	-0.435605	0.435906
C840	C	1.429769	-0.102272	0.769240
C841	C	0.791876	-0.745586	0.073788
C842	C	1.125210	-0.412253	0.407122
C843	C	1.458543	-0.078919	0.740455
H844	H	0.757531	-0.720035	0.144880
H845	H	1.090864	-0.386702	0.478213
H846	H	1.424198	-0.053369	0.811547
H847	H	0.720769	-0.720042	0.108141
H848	H	1.054103	-0.386708	0.441475
H849	H	1.387436	-0.053375	0.774808
H850	H	0.780261	-0.787226	0.122170
H851	H	1.113595	-0.453892	0.455504
H852	H	1.446928	-0.120559	0.788837
H853	H	0.743513	-0.787241	0.085425
H854	H	1.076846	-0.453907	0.418758
H855	H	1.410179	-0.120574	0.752091
H856	H	0.774716	-0.727291	0.054188
H857	H	1.108049	-0.393958	0.387522
H858	H	1.441382	-0.060624	0.720855
H859	H	0.811474	-0.727286	0.090931
H860	H	1.144808	-0.393952	0.424264
H861	H	1.478141	-0.060619	0.757598
H862	H	0.808956	-0.766346	0.056705
H863	H	1.142289	-0.433013	0.390039
H864	H	1.475623	-0.099679	0.723372
C865	C	0.484569	-0.156750	0.156511
C866	C	0.817902	0.176583	0.489844
C867	C	1.151236	0.509916	0.823177
C868	C	0.530677	-0.162895	0.162662
C869	C	0.864010	0.170438	0.495995
C870	C	1.197344	0.503771	0.829328
C871	C	0.554235	-0.134273	0.133898
C872	C	0.887569	0.199060	0.467231
C873	C	1.220902	0.532394	0.800565
H874	H	0.476919	-0.126534	0.163007
H875	H	0.810252	0.206799	0.496340
H876	H	1.143585	0.540133	0.829674
H877	H	0.476928	-0.163389	0.126327
H878	H	0.810261	0.169945	0.459660
H879	H	1.143594	0.503278	0.792993
H880	H	0.538315	-0.156254	0.192839
H881	H	0.871649	0.177080	0.526172
H882	H	1.204982	0.510413	0.859505
H883	H	0.538341	-0.193106	0.156162
H884	H	0.871674	0.140228	0.489496
H885	H	1.205007	0.473561	0.822829
H886	H	0.546594	-0.140912	0.103714
H887	H	0.879927	0.192422	0.437047
H888	H	1.213261	0.525755	0.770381
H889	H	0.546581	-0.104059	0.140397
H890	H	0.879915	0.229275	0.473730
H891	H	1.213248	0.562608	0.807063
H892	H	0.585522	-0.138442	0.138064
H893	H	0.918855	0.194892	0.471398
H894	H	1.252188	0.528225	0.804731
C895	C	0.029972	-0.305057	0.305274
C896	C	0.363306	0.028276	0.638607
C897	C	0.696639	0.361609	0.971941
C898	C	-0.016136	-0.298929	0.299104
C899	C	0.317198	0.034404	0.632437
C900	C	0.650531	0.367738	0.965771
C901	C	-0.039695	-0.327596	0.327823
C902	C	0.293638	0.005737	0.661156
C903	C	0.626972	0.339071	0.994489
H904	H	0.037582	-0.298458	0.335469
H905	H	0.370916	0.034875	0.668802
H906	H	0.704249	0.368209	1.002135
H907	H	0.037653	-0.335263	0.298739
H908	H	0.370986	-0.001930	0.632072
H909	H	0.704319	0.331403	0.965406
H910	H	-0.023813	-0.268730	0.305643
H911	H	0.309521	0.064603	0.638976
H912	H	0.642854	0.397937	0.972309
H913	H	-0.023759	-0.305532	0.268916
H914	H	0.309574	0.027802	0.602249
H915	H	0.642907	0.361135	0.935582
H916	H	-0.032014	-0.357802	0.321287
H917	H	0.301319	-0.024469	0.654621
H918	H	0.634652	0.308864	0.987954
H919	H	-0.032081	-0.320994	0.358015
H920	H	0.301252	0.012339	0.691349
H921	H	0.634586	0.345672	1.024682
H922	H	-0.070981	-0.323445	0.323637
H923	H	0.262352	0.009888	0.656971
H924	H	0.595685	0.343222	0.990304
H925	H	0.036441	-0.135871	0.135556
H926	H	0.369775	0.197463	0.468889
H927	H	0.703108	0.530796	0.802223
C928	C	0.709141	-0.381755	0.156557
C929	C	1.042474	-0.048422	0.489890
C930	C	1.375808	0.284912	0.823224
C931	C	0.734315	-0.412353	0.131385
C932	C	1.067648	-0.079020	0.464719
C933	C	1.400981	0.254313	0.798052
C934	C	0.763088	-0.388996	0.102604
C935	C	1.096422	-0.055663	0.435937
C936	C	1.429755	0.277671	0.769270
H937	H	0.728741	-0.363455	0.173698
H938	H	1.062075	-0.030122	0.507032
H939	H	1.395408	0.303211	0.840365
H940	H	0.691980	-0.363459	0.136959
H941	H	1.025313	-0.030125	0.470293
H942	H	1.358647	0.303208	0.803626
H943	H	0.751475	-0.430642	0.150981
H944	H	1.084808	-0.097309	0.484314
H945	H	1.418141	0.236025	0.817647
H946	H	0.714726	-0.430654	0.114235
H947	H	1.048060	-0.097321	0.447568
H948	H	1.381393	0.236012	0.780901
H949	H	0.745927	-0.370700	0.083006
H950	H	1.079261	-0.037366	0.416339
H951	H	1.412594	0.295967	0.749673
H952	H	0.782686	-0.370697	0.119749
H953	H	1.116019	-0.037364	0.453082
H954	H	1.449352	0.295970	0.786415
H955	H	0.780169	-0.409753	0.085519
H956	H	1.113502	-0.076420	0.418852
H957	H	1.446836	0.256913	0.752185
C958	C	0.737924	-0.128084	0.737640
C959	C	1.071257	0.205249	1.070973
C960	C	1.404590	0.538583	1.404307
C961	C	0.766687	-0.153547	0.710659
C962	C	1.100021	0.179787	1.043993
C963	C	1.433354	0.513120	1.377326
C964	C	0.795466	-0.124920	0.687125
C965	C	1.128800	0.208414	1.020459
C966	C	1.462133	0.541747	1.353792
H967	H	0.755094	-0.110986	0.758275
H968	H	1.088427	0.222347	1.091608
H969	H	1.421760	0.555680	1.424941
H970	H	0.720761	-0.108494	0.719336
H971	H	1.054094	0.224840	1.052669
H972	H	1.387428	0.558173	1.386002
H973	H	0.783848	-0.173129	0.728962
H974	H	1.117181	0.160204	1.062295
H975	H	1.450515	0.493538	1.395629
H976	H	0.749530	-0.170643	0.690016
H977	H	1.082863	0.162690	1.023350
H978	H	1.416196	0.496023	1.356683
H979	H	0.778304	-0.105329	0.668821
H980	H	1.111637	0.228004	1.002154
H981	H	1.444970	0.561337	1.335488
H982	H	0.812633	-0.107823	0.707763
H983	H	1.145967	0.225510	1.041097
H984	H	1.479300	0.558843	1.374430
H985	H	0.814983	-0.142191	0.668813
H986	H	1.148316	0.191142	1.002146
H987	H	1.481650	0.524475	1.335480
C988	C	0.709060	-0.479546	0.156522
C989	C	1.042394	-0.146213	0.489855
C990	C	1.375727	0.187121	0.823188
C991	C	0.683654	-0.506468	0.127704
C992	C	1.016988	-0.173135	0.461037
C993	C	1.350321	0.160199	0.794370
C994	C	0.712336	-0.529956	0.098905
C995	C	1.045670	-0.196623	0.432238
C996	C	1.379003	0.136711	0.765571
H997	H	0.728633	-0.497889	0.173653
H998	H	1.061967	-0.164556	0.506986
H999	H	1.395300	0.168778	0.840319
H1000	H	0.726174	-0.458871	0.139396
H1001	H	1.059507	-0.125537	0.472729
H1002	H	1.392840	0.207796	0.806063
H1003	H	0.666549	-0.527141	0.144827
H1004	H	0.999882	-0.193808	0.478161
H1005	H	1.333215	0.139526	0.811494
H1006	H	0.664082	-0.488136	0.110563
H1007	H	0.997416	-0.154803	0.443896
H1008	H	1.330749	0.178531	0.777229
H1009	H	0.729449	-0.509281	0.081779
H1010	H	1.062783	-0.175947	0.415112
H1011	H	1.396116	0.157386	0.748445
H1012	H	0.731908	-0.548297	0.116039
H1013	H	1.065241	-0.214963	0.449373
H1014	H	1.398575	0.118370	0.782706
H1015	H	0.695102	-0.548222	0.079345
H1016	H	1.028436	-0.214889	0.412679
H1017	H	1.361769	0.118445	0.746012
H1018	H	0.568274	-0.829671	0.297256
H1019	H	0.901607	-0.496338	0.630589
H1020	H	1.234941	-0.163005	0.963923
C1021	C	0.737916	-0.597590	0.127774
C1022	C	1.071249	-0.264257	0.461107
C1023	C	1.404582	0.069077	0.794441
C1024	C	0.763087	-0.628192	0.102605
C1025	C	1.096420	-0.294859	0.435938
C1026	C	1.429754	0.038474	0.769272
C1027	C	0.791859	-0.604840	0.073818
C1028	C	1.125192	-0.271506	0.407151
C1029	C	1.458525	0.061827	0.740485
H1030	H	0.757517	-0.579288	0.144911
H1031	H	1.090851	-0.245954	0.478245
H1032	H	1.424184	0.087379	0.811578
H1033	H	0.720753	-0.579296	0.108175
H1034	H	1.054087	-0.245963	0.441508
H1035	H	1.387420	0.087371	0.774842
H1036	H	0.780248	-0.646478	0.122202
H1037	H	1.113581	-0.313145	0.455535
H1038	H	1.446915	0.020188	0.788868
H1039	H	0.743497	-0.646495	0.085459
H1040	H	1.076830	-0.313162	0.418792
H1041	H	1.410164	0.020171	0.752125
H1042	H	0.774696	-0.586546	0.054219
H1043	H	1.108030	-0.253212	0.387552
H1044	H	1.441363	0.080121	0.720885
H1045	H	0.811457	-0.586538	0.090959
H1046	H	1.144791	-0.253205	0.424292
H1047	H	1.478124	0.080128	0.757625
H1048	H	0.808938	-0.625600	0.056734
H1049	H	1.142271	-0.292266	0.390068
H1050	H	1.475605	0.041067	0.723401
C1051	C	0.560509	-0.597374	0.305124
C1052	C	0.893842	-0.264040	0.638458
C1053	C	1.227175	0.069293	0.971791
C1054	C	0.585921	-0.570436	0.333922
C1055	C	0.919254	-0.237103	0.667255
C1056	C	1.252588	0.096231	1.000589
C1057	C	0.557243	-0.546899	0.362685
C1058	C	0.890576	-0.213566	0.696019
C1059	C	1.223910	0.119768	1.029352
H1060	H	0.543375	-0.618006	0.322271
H1061	H	0.876708	-0.284673	0.655604
H1062	H	1.210042	0.048660	0.988938
H1063	H	0.540954	-0.579040	0.287952
H1064	H	0.874287	-0.245707	0.621286
H1065	H	1.207620	0.087627	0.954619
H1066	H	0.605468	-0.588768	0.351092
H1067	H	0.938801	-0.255435	0.684426
H1068	H	1.272134	0.077899	1.017759
H1069	H	0.603053	-0.549795	0.316788
H1070	H	0.936387	-0.216462	0.650121
H1071	H	1.269720	0.116872	0.983455
H1072	H	0.537688	-0.528565	0.345513
H1073	H	0.871021	-0.195232	0.678846
H1074	H	1.204355	0.138102	1.012180
H1075	H	0.540111	-0.567535	0.379829
H1076	H	0.873444	-0.234201	0.713162
H1077	H	1.206777	0.099132	1.046495
H1078	H	0.574481	-0.528616	0.382225
H1079	H	0.907814	-0.195282	0.715558
H1080	H	1.241147	0.138051	1.048892
H1081	H	0.730104	-0.688980	0.135601
H1082	H	1.063437	-0.355647	0.468934
H1083	H	1.396770	-0.022314	0.802268
H1084	H	0.121547	-0.135861	0.135551
H1085	H	0.454880	0.197472	0.468885
H1086	H	0.788213	0.530805	0.802218
H1087	H	0.701388	-0.960437	0.164274
H1088	H	1.034721	-0.627103	0.497607
H1089	H	1.368055	-0.293770	0.830940
H1090	H	0.701393	-1.045559	0.164257
H1091	H	1.034727	-0.712226	0.497591
H1092	H	1.368060	-0.378892	0.830924
H1093	H	0.597097	-0.268662	1.045080
H1094	H	0.930430	0.064671	1.378414
H1095	H	1.263763	0.398004	1.711747
H1096	H	0.568265	-0.744566	0.297274
H1097	H	0.901599	-0.411233	0.630607
H1098	H	1.234932	-0.077899	0.963941
C1099	C	0.737802	-0.128012	0.596870
C1100	C	1.071136	0.205321	0.930204
C1101	C	1.404469	0.538655	1.263537
C1102	C	0.731634	-0.134136	0.550763
C1103	C	1.064967	0.199197	0.884096
C1104	C	1.398301	0.532531	1.217429
C1105	C	0.760332	-0.105447	0.527204
C1106	C	1.093665	0.227886	0.860538
C1107	C	1.426998	0.561219	1.193871
H1108	H	0.768002	-0.134594	0.604478
H1109	H	1.101335	0.198739	0.937812
H1110	H	1.434669	0.532072	1.271145
H1111	H	0.731247	-0.097811	0.604554
H1112	H	1.064581	0.235522	0.937888
H1113	H	1.397914	0.568856	1.271221
H1114	H	0.738192	-0.164330	0.543082
H1115	H	1.071526	0.169004	0.876415
H1116	H	1.404859	0.502337	1.209748
H1117	H	0.701440	-0.127550	0.543141
H1118	H	1.034774	0.205783	0.876475
H1119	H	1.368107	0.539116	1.209808
H1120	H	0.753776	-0.075247	0.534888
H1121	H	1.087110	0.258087	0.868222
H1122	H	1.420443	0.591420	1.201555
H1123	H	0.790529	-0.112032	0.534816
H1124	H	1.123863	0.221301	0.868149
H1125	H	1.457196	0.554634	1.201482
H1126	H	0.756147	-0.109596	0.495918
H1127	H	1.089481	0.223738	0.829251
H1128	H	1.422814	0.557071	1.162584
H1129	H	0.597044	-0.960404	0.268511
H1130	H	0.930377	-0.627071	0.601844
H1131	H	1.263711	-0.293737	0.935178
H1132	H	0.568248	-0.688916	0.297285
H1133	H	0.901582	-0.355583	0.630619
H1134	H	1.234915	-0.022249	0.963952
C1135	C	0.709073	-0.156653	0.381224
C1136	C	1.042407	0.176681	0.714557
C1137	C	1.375740	0.510014	1.047890
C1138	C	0.734270	-0.131533	0.411799
C1139	C	1.067603	0.201800	0.745133
C1140	C	1.400936	0.535133	1.078466
C1141	C	0.763074	-0.102809	0.388416
C1142	C	1.096407	0.230525	0.721749
C1143	C	1.429740	0.563858	1.055083
H1144	H	0.691947	-0.137016	0.362944
H1145	H	1.025280	0.196317	0.696278
H1146	H	1.358614	0.529650	1.029611
H1147	H	0.728654	-0.173847	0.362904
H1148	H	1.061988	0.159486	0.696238
H1149	H	1.395321	0.492820	1.029571
H1150	H	0.714691	-0.114340	0.430111
H1151	H	1.048024	0.218993	0.763444
H1152	H	1.381358	0.552326	1.096778
H1153	H	0.751405	-0.151158	0.430080
H1154	H	1.084738	0.182176	0.763413
H1155	H	1.418072	0.515509	1.096746
H1156	H	0.782655	-0.120003	0.370097
H1157	H	1.115988	0.213331	0.703430
H1158	H	1.449322	0.546664	1.036764
H1159	H	0.745944	-0.083175	0.370138
H1160	H	1.079277	0.250158	0.703471
H1161	H	1.412611	0.583491	1.036804
H1162	H	0.780176	-0.085765	0.409158
H1163	H	1.113509	0.247569	0.742491
H1164	H	1.446842	0.580902	1.075825
C1165	C	0.709255	-0.156707	0.953619
C1166	C	1.042588	0.176627	1.286952
C1167	C	1.375922	0.509960	1.620286
C1168	C	0.734447	-0.131585	0.984197
C1169	C	1.067780	0.201749	1.317530
C1170	C	1.401113	0.535082	1.650863
C1171	C	0.763252	-0.102860	0.960816
C1172	C	1.096586	0.230473	1.294149
C1173	C	1.429919	0.563807	1.627482
H1174	H	0.692130	-0.137072	0.935337
H1175	H	1.025464	0.196262	1.268670
H1176	H	1.358797	0.529595	1.602004
H1177	H	0.728839	-0.173901	0.935303
H1178	H	1.062172	0.159433	1.268636
H1179	H	1.395506	0.492766	1.601969
H1180	H	0.714865	-0.114392	1.002505
H1181	H	1.048198	0.218941	1.335838
H1182	H	1.381532	0.552275	1.669172
H1183	H	0.751581	-0.151208	1.002480
H1184	H	1.084914	0.182125	1.335813
H1185	H	1.418247	0.515459	1.669146
H1186	H	0.782836	-0.120054	0.942499
H1187	H	1.116170	0.213279	1.275833
H1188	H	1.449503	0.546613	1.609166
H1189	H	0.746124	-0.083228	0.942534
H1190	H	1.079457	0.250105	1.275868
H1191	H	1.412791	0.583439	1.609201
H1192	H	0.780351	-0.085814	0.981559
H1193	H	1.113685	0.247519	1.314892
H1194	H	1.447018	0.580852	1.648226
C1195	C	0.709250	-0.156817	1.051477
C1196	C	1.042584	0.176516	1.384811
C1197	C	1.375917	0.509849	1.718144
C1198	C	0.703127	-0.162990	1.097589
C1199	C	1.036461	0.170343	1.430922
C1200	C	1.369794	0.503677	1.764256
C1201	C	0.731915	-0.134394	1.121130
C1202	C	1.065249	0.198940	1.454464
C1203	C	1.398582	0.532273	1.787797
H1204	H	0.702759	-0.126594	1.043880
H1205	H	1.036092	0.206740	1.377213
H1206	H	1.369425	0.540073	1.710547
H1207	H	0.739427	-0.163463	1.043769
H1208	H	1.072761	0.169871	1.377103
H1209	H	1.406094	0.503204	1.710436
H1210	H	0.672957	-0.156342	1.105294
H1211	H	1.006291	0.176992	1.438627
H1212	H	1.339624	0.510325	1.771960
H1213	H	0.709623	-0.193208	1.105200
H1214	H	1.042956	0.140126	1.438533
H1215	H	1.376289	0.473459	1.771866
H1216	H	0.762092	-0.141039	1.113422
H1217	H	1.095426	0.192294	1.446756
H1218	H	1.428759	0.525628	1.780089
H1219	H	0.725421	-0.104172	1.113529
H1220	H	1.058754	0.229161	1.446862
H1221	H	1.392088	0.562495	1.780196
H1222	H	0.727768	-0.138581	1.152419
H1223	H	1.061101	0.194752	1.485752
H1224	H	1.394434	0.528086	1.819086
H1225	H	0.730076	-0.135795	0.688430
H1226	H	1.063409	0.197538	1.021763
H1227	H	1.396743	0.530871	1.355097
C1228	C	0.589216	-0.276465	0.953689
C1229	C	0.922550	0.056868	1.287022
C1230	C	1.255883	0.390201	1.620355
C1231	C	0.564039	-0.301587	0.984295
C1232	C	0.897373	0.031747	1.317628
C1233	C	1.230706	0.365080	1.650962
C1234	C	0.535215	-0.330304	0.960947
C1235	C	0.868548	0.003029	1.294280
C1236	C	1.201882	0.336362	1.627613
H1237	H	0.606327	-0.296101	0.935360
H1238	H	0.939661	0.037233	1.268694
H1239	H	1.272994	0.370566	1.602027
H1240	H	0.569624	-0.259266	0.935422
H1241	H	0.902957	0.074067	1.268755
H1242	H	1.236291	0.407401	1.602088
H1243	H	0.583629	-0.318784	1.002554
H1244	H	0.916962	0.014549	1.335888
H1245	H	1.250296	0.347882	1.669221
H1246	H	0.546919	-0.281963	1.002624
H1247	H	0.880253	0.051370	1.335958
H1248	H	1.213586	0.384704	1.669291
H1249	H	0.515623	-0.313105	0.942680
H1250	H	0.848956	0.020228	1.276013
H1251	H	1.182289	0.353561	1.609346
H1252	H	0.552329	-0.349937	0.942619
H1253	H	0.885663	-0.016604	1.275953
H1254	H	1.218996	0.316730	1.609286
H1255	H	0.518126	-0.347350	0.981710
H1256	H	0.851459	-0.014016	1.315043
H1257	H	1.184793	0.319317	1.648376
H1258	H	0.701258	-0.164472	0.472626
H1259	H	1.034591	0.168862	0.805959
H1260	H	1.367924	0.502195	1.139293
H1261	H	0.568248	-0.297342	0.688511
H1262	H	0.901581	0.035991	1.021844
H1263	H	1.234914	0.369325	1.355178
H1264	H	0.568229	-0.297337	0.603402
H1265	H	0.901562	0.035996	0.936736
H1266	H	1.234896	0.369330	1.270069
