data_functionalizedCrystal
_audit_creation_method	'MofGen! by Chris Wilmer'
_symmetry_space_group_name_H-M	'P1'
_symmetry_Int_Tables_number	1
_symmetry_cell_setting	triclinic
loop_
_symmetry_equiv_pos_as_xyz
  x,y,z
_cell_length_a	6.817900
_cell_length_b	9.582860
_cell_length_c	12.200875
_cell_angle_alpha	91.576811
_cell_angle_beta	107.143593
_cell_angle_gamma	111.206767
loop_
_atom_site_label
_atom_site_type_symbol
_atom_site_fract_x
_atom_site_fract_y
_atom_site_fract_z
V1	V	-4.108298	-0.207395	-0.357450
V2	V	-3.858298	0.042605	-0.107450
V3	V	-3.608298	0.292605	0.142550
V4	V	-3.358298	0.542605	0.392550
O5	O	-4.053186	0.009616	-0.350862
O6	O	-3.803186	0.259616	-0.100862
O7	O	-3.553186	0.509616	0.149138
O8	O	-3.303186	0.759616	0.399138
O9	O	-4.098761	-0.410894	-0.354798
O10	O	-3.848761	-0.160894	-0.104798
O11	O	-3.598761	0.089106	0.145202
O12	O	-3.348761	0.339106	0.395202
O13	O	-4.077436	-0.204359	-0.513442
O14	O	-3.827436	0.045641	-0.263442
O15	O	-3.577436	0.295641	-0.013442
O16	O	-3.327436	0.545641	0.236558
O17	O	-4.074658	-0.198348	-0.191120
O18	O	-3.824658	0.051652	0.058880
O19	O	-3.574658	0.301652	0.308880
O20	O	-3.324658	0.551652	0.558880
V21	V	-4.584618	-0.181420	-0.337581
V22	V	-4.334618	0.068580	-0.087581
V23	V	-4.084618	0.318580	0.162419
V24	V	-3.834618	0.568580	0.412419
O25	O	-4.385358	-0.264374	-0.401035
O26	O	-4.135358	-0.014374	-0.151035
O27	O	-3.885358	0.235626	0.098965
O28	O	-3.635358	0.485626	0.348965
O29	O	-4.757756	-0.124441	-0.293997
O30	O	-4.507756	0.125559	-0.043997
O31	O	-4.257756	0.375559	0.206003
O32	O	-4.007756	0.625559	0.456003
O33	O	-4.370949	0.022078	-0.340234
O34	O	-4.120949	0.272078	-0.090234
O35	O	-3.870949	0.522078	0.159766
O36	O	-3.620949	0.772078	0.409766
O37	O	-4.757128	-0.398432	-0.344169
O38	O	-4.507128	-0.148432	-0.094169
O39	O	-4.257128	0.101568	0.155831
O40	O	-4.007128	0.351568	0.405831
O41	O	-4.735655	-0.190467	-0.503912
O42	O	-4.485655	0.059533	-0.253912
O43	O	-4.235655	0.309533	-0.003912
O44	O	-3.985655	0.559533	0.246088
O45	O	-4.392274	-0.184457	-0.181590
O46	O	-4.142274	0.065543	0.068410
O47	O	-3.892274	0.315543	0.318410
O48	O	-3.642274	0.565543	0.568410
C49	C	-3.952649	-0.460497	-0.349105
C50	C	-3.702649	-0.210497	-0.099105
C51	C	-3.452649	0.039503	0.150895
C52	C	-3.202649	0.289503	0.400895
C53	C	-4.026255	-0.626861	-0.347976
C54	C	-3.776255	-0.376861	-0.097976
C55	C	-3.526255	-0.126861	0.152024
C56	C	-3.276255	0.123139	0.402024
C57	C	-3.925445	-0.197040	-0.551470
C58	C	-3.675445	0.052960	-0.301470
C59	C	-3.425445	0.302960	-0.051470
C60	C	-3.175445	0.552960	0.198530
C61	C	-3.981752	-0.195903	-0.678992
C62	C	-3.731752	0.054097	-0.428992
C63	C	-3.481752	0.304097	-0.178992
C64	C	-3.231752	0.554097	0.071008
C65	C	-4.084803	-0.193825	-0.912469
C66	C	-3.834803	0.056175	-0.662469
C67	C	-3.584803	0.306175	-0.412469
C68	C	-3.334803	0.556175	-0.162469
C69	C	-4.027450	-0.194981	-0.782546
C70	C	-3.777450	0.055019	-0.532546
C71	C	-3.527450	0.305019	-0.282546
C72	C	-3.277450	0.555019	-0.032546
C73	C	-4.180404	0.071674	-0.345923
C74	C	-3.930404	0.321674	-0.095923
C75	C	-3.680404	0.571674	0.154077
C76	C	-3.430404	0.821674	0.404077
C77	C	-4.086038	0.238036	-0.347060
C78	C	-3.836038	0.488036	-0.097060
C79	C	-3.586038	0.738036	0.152940
C80	C	-3.336038	0.988036	0.402940
C81	C	-4.207607	-0.191781	-0.143556
C82	C	-3.957607	0.058219	0.106444
C83	C	-3.707607	0.308219	0.356444
C84	C	-3.457607	0.558219	0.606444
C85	C	-4.130537	-0.192909	-0.016032
C86	C	-3.880537	0.057091	0.233968
C87	C	-3.630537	0.307091	0.483968
C88	C	-3.380537	0.557091	0.733968
