data_functionalizedCrystal
_audit_creation_method	'MofGen! by Chris Wilmer'
_symmetry_space_group_name_H-M	'P1'
_symmetry_Int_Tables_number	1
_symmetry_cell_setting	triclinic
loop_
_symmetry_equiv_pos_as_xyz
  x,y,z
_cell_length_a	18.215407
_cell_length_b	25.639239
_cell_length_c	18.215399
_cell_angle_alpha	90.030035
_cell_angle_beta	90.019833
_cell_angle_gamma	90.039134
loop_
_atom_site_label
_atom_site_type_symbol
_atom_site_fract_x
_atom_site_fract_y
_atom_site_fract_z
Zn1	Zn	1.125001	-0.208150	0.416105
Zn2	Zn	1.124880	-0.295586	0.293034
Zn3	Zn	1.001934	-0.208167	0.293053
Zn4	Zn	1.001870	-0.295557	0.416059
O5	O	1.063421	-0.251865	0.354563
O6	O	1.227970	-0.219754	0.399791
O7	O	1.108547	-0.284009	0.190052
O8	O	1.018337	-0.135000	0.309403
O9	O	1.227880	-0.283992	0.309372
O10	O	1.108754	-0.134987	0.399809
O11	O	1.018219	-0.219783	0.190066
O12	O	0.898941	-0.219754	0.309358
O13	O	1.018228	-0.283943	0.519050
O14	O	0.898894	-0.283959	0.399731
O15	O	1.108692	-0.219725	0.519083
O16	O	1.108485	-0.368747	0.309327
O17	O	1.018110	-0.368726	0.399713
C18	C	0.872215	-0.251856	0.354542
C19	C	0.790416	-0.251865	0.354550
C20	C	0.602217	-0.285349	0.401548
C21	C	0.525358	-0.285350	0.401557
C22	C	0.525378	-0.218391	0.307594
C23	C	0.602235	-0.218387	0.307589
C24	C	0.640653	-0.251869	0.354565
C25	C	0.486937	-0.251874	0.354579
C26	C	0.403603	-0.251876	0.354589
C27	C	0.723992	-0.251867	0.354556
C28	C	1.063298	-0.387708	0.354529
C29	C	1.063312	-0.445822	0.354539
C30	C	1.110602	-0.806183	0.307579
C31	C	1.110631	-0.860787	0.307589
O32	O	1.150711	-0.889023	0.267625
N33	N	1.063551	-0.888104	0.354612
C34	C	1.016444	-0.860813	0.401633
O35	O	0.976402	-0.889062	0.441631
C36	C	1.016420	-0.806210	0.401626
C37	C	1.063498	-0.778896	0.354595
C38	C	1.157677	-0.778869	0.260553
C39	C	1.157647	-0.724269	0.260542
C40	C	1.110543	-0.696982	0.307558
C41	C	1.063468	-0.724296	0.354584
C42	C	0.969318	-0.778920	0.448650
C43	C	0.969298	-0.724313	0.448640
C44	C	1.016376	-0.697000	0.401609
C45	C	1.016334	-0.642408	0.401590
N46	N	1.063414	-0.615092	0.354567
C47	C	1.110519	-0.642379	0.307551
C48	C	1.016500	-0.975484	0.401644
C49	C	1.016520	-1.030086	0.401648
C50	C	1.110708	-1.030057	0.307605
C51	C	1.110683	-0.975453	0.307598
C52	C	1.063580	-0.948167	0.354621
C53	C	1.110452	-0.527714	0.307532
C54	C	1.110416	-0.473108	0.307523
C55	C	1.016232	-0.473143	0.401569
C56	C	1.016265	-0.527743	0.401575
C57	C	1.063381	-0.555027	0.354554
O58	O	0.976277	-0.614138	0.441536
O59	O	1.150561	-0.614123	0.267567
C60	C	1.255374	-0.251874	0.354584
C61	C	1.337173	-0.251878	0.354594
C62	C	1.063466	-0.251829	0.546516
C63	C	1.063485	-0.251814	0.628315
C64	C	1.063566	-0.115492	0.354613
C65	C	1.063627	-0.057378	0.354634
C66	C	1.063419	-0.251863	0.163357
C67	C	1.063543	-0.251731	0.081558
C68	C	1.110607	-0.218344	0.816528
C69	C	1.110616	-0.218329	0.893386
C70	C	1.016416	-0.285202	0.893340
C71	C	1.016404	-0.285214	0.816483
C72	C	1.063504	-0.251786	0.778078
C73	C	1.063524	-0.251759	0.931795
C74	C	1.063534	-0.251742	1.015128
C75	C	1.063494	-0.251801	0.694739
H76	H	1.148753	-0.450871	0.269223
H77	H	0.978136	-0.953270	0.439934
O78	O	1.203559	-0.805296	0.214913
C79	C	1.276878	-0.791876	0.231098
H80	H	1.278327	-0.752226	0.259413
H81	H	1.309915	-0.789973	0.178022
H82	H	1.301678	-0.822575	0.268943
O83	O	0.487909	-0.317825	0.447171
C84	C	0.411834	-0.310659	0.437095
H85	H	0.401361	-0.270288	0.413096
H86	H	0.382646	-0.314257	0.492213
H87	H	0.389978	-0.341637	0.397828
H88	H	1.195984	-0.702033	0.222248
H89	H	1.148821	-0.549922	0.269245
O90	O	0.970748	-0.317728	0.779047
C91	C	1.012609	-0.351512	0.734596
H92	H	1.068397	-0.333075	0.723104
H93	H	0.982619	-0.358524	0.680539
H94	H	1.020658	-0.390256	0.764198
H95	H	0.633495	-0.312611	0.439801
O96	O	0.970586	-0.446605	0.447318
C97	C	1.012456	-0.414960	0.494860
H98	H	1.070420	-0.431378	0.499457
H99	H	0.985815	-0.414326	0.551475
H100	H	1.014991	-0.373588	0.472095
H101	H	1.148956	-0.191123	0.785261
O102	O	0.487943	-0.185918	0.261986
C103	C	0.411865	-0.193090	0.272077
H104	H	0.401342	-0.233462	0.296075
H105	H	0.382635	-0.189493	0.216964
H106	H	0.390098	-0.162115	0.311350
H107	H	0.633530	-0.191120	0.269329
O108	O	0.923645	-0.697784	0.494397
C109	C	0.965501	-0.666136	0.541949
H110	H	1.023470	-0.682545	0.546548
H111	H	0.938854	-0.665512	0.598562
H112	H	0.968025	-0.624762	0.519191
H113	H	1.149019	-0.953218	0.269302
O114	O	1.156496	-1.056649	0.262054
C115	C	1.146433	-1.110699	0.272166
H116	H	1.122230	-1.118131	0.328914
H117	H	1.201590	-1.131398	0.267321
H118	H	1.107343	-1.126275	0.228442
O119	O	0.970759	-1.056535	0.447397
C120	C	0.929167	-1.020735	0.488874
H121	H	0.959293	-0.981789	0.491438
H122	H	0.921289	-1.036486	0.546855
H123	H	0.873287	-1.014981	0.461870
H124	H	0.977932	-0.549983	0.439874
H125	H	0.930978	-0.801150	0.486945
H126	H	1.148971	-0.191096	0.924688
H127	H	0.978071	-0.312419	0.924618
