data_functionalizedCrystal
_audit_creation_method	'MofGen! by Chris Wilmer'
_symmetry_space_group_name_H-M	'P1'
_symmetry_Int_Tables_number	1
_symmetry_cell_setting	triclinic
loop_
_symmetry_equiv_pos_as_xyz
  x,y,z
_cell_length_a	20.919309
_cell_length_b	14.560438
_cell_length_c	20.919354
_cell_angle_alpha	86.847003
_cell_angle_beta	60.709567
_cell_angle_gamma	57.442603
loop_
_atom_site_label
_atom_site_type_symbol
_atom_site_fract_x
_atom_site_fract_y
_atom_site_fract_z
Zr1	Zr	0.700750	-0.210581	0.644073
O2	O	0.834313	-0.357028	0.547054
O3	O	0.567188	-0.160225	0.670204
O4	O	0.700748	-0.359703	0.675411
O5	O	0.700754	-0.006412	0.541845
O6	O	0.700746	-0.368027	0.780769
O7	O	0.700753	-0.157550	0.541846
O8	O	0.461831	-0.011197	0.771454
O9	O	0.939669	-0.363242	0.551161
O10	O	0.622122	-0.151560	0.764338
O11	O	0.622125	-0.032556	0.685710
O12	O	0.779375	-0.267415	0.691841
O13	O	0.779378	-0.148411	0.613213
Zr14	Zr	0.700750	0.017191	0.812105
Zr15	Zr	0.700747	-0.223857	0.812106
Zr16	Zr	0.700753	0.030467	0.644071
Zr17	Zr	0.868781	-0.220491	0.650623
Zr18	Zr	0.532719	0.027101	0.805555
O19	O	0.834312	-0.033165	0.785973
O20	O	0.834308	-0.375904	0.785975
O21	O	0.834317	-0.014289	0.547052
O22	O	0.567187	0.163638	0.909124
O23	O	0.567183	-0.179102	0.909126
O24	O	0.567192	0.182514	0.670202
O25	O	0.700745	-0.186979	0.914332
O26	O	0.700752	0.166313	0.780766
O27	O	0.700754	0.174637	0.675408
O28	O	0.700747	-0.035841	0.914331
O29	O	0.939666	-0.373794	0.684725
O30	O	0.461834	0.180404	0.771453
O31	O	0.461831	0.169851	0.905017
O32	O	0.461829	-0.021750	0.905018
O33	O	0.939671	-0.171641	0.551159
O34	O	0.939668	-0.182193	0.684723
O35	O	0.622125	0.074025	0.764336
O36	O	0.622122	-0.044980	0.842964
O37	O	0.779375	-0.160835	0.770467
O38	O	0.779377	-0.041830	0.691840
C39	C	0.490569	-0.084299	0.719896
C40	C	0.419235	-0.080092	0.717115
C41	C	0.700754	-0.080089	0.517905
C42	C	0.700755	-0.074453	0.446570
C43	C	0.700753	0.204819	0.728087
C44	C	0.700755	0.307150	0.728086
C45	C	0.385721	-0.140235	0.756850
C46	C	0.318691	-0.136271	0.754239
C47	C	0.285180	-0.072170	0.711889
C48	C	0.318697	-0.012021	0.672153
C49	C	0.385722	-0.015978	0.674769
C50	C	0.082806	-0.057106	0.701942
C51	C	0.015779	-0.053155	0.699328
C52	C	0.015776	-0.177405	0.781415
C53	C	0.082805	-0.181363	0.784023
C54	C	0.116313	-0.121208	0.744291
C55	C	0.216667	-0.068120	0.709217
C56	C	0.184821	-0.125253	0.746967
C57	C	0.910931	-0.109091	0.736282
C58	C	0.982265	-0.113298	0.739062
C59	C	0.700746	-0.398210	0.728091
C60	C	0.700745	-0.500541	0.728091
C61	C	0.782837	0.294753	0.690247
C62	C	0.782833	0.390909	0.690247
C63	C	0.618656	0.511854	0.765931
C64	C	0.618661	0.415700	0.765926
C65	C	0.864931	0.186203	0.652408
C66	C	0.947020	0.173802	0.614566
C67	C	0.947016	0.269957	0.614566
C68	C	0.864922	0.378514	0.652407
C69	C	0.700744	-0.038326	0.043125
C70	C	0.700741	-0.043632	0.110153
C71	C	0.700745	-0.129556	0.143657
C72	C	0.700743	-0.210171	0.110136
C73	C	0.700740	-0.204859	0.043113
C74	C	0.700750	-0.149757	0.346026
C75	C	0.700756	-0.155065	0.413052
C76	C	0.700752	0.011476	0.413065
C77	C	0.700754	0.016777	0.346038
C78	C	0.700747	-0.063835	0.312525
C79	C	0.700745	-0.134984	0.212168
C80	C	0.700741	-0.058401	0.244018
C81	C	0.700746	-0.113301	0.938273
C82	C	0.700744	-0.118937	1.009607
C83	C	0.490565	-0.100905	0.930080
C84	C	0.419230	-0.102334	0.998634
C85	C	0.490572	0.217215	0.719894
C86	C	0.419240	0.323753	0.717113
C87	C	0.490568	0.200609	0.930078
C88	C	0.419235	0.301511	0.998631
C89	C	0.910932	-0.393999	0.526099
C90	C	0.982265	-0.494902	0.457546
C91	C	0.910935	-0.092485	0.526098
C92	C	0.982270	-0.091056	0.457544
C93	C	0.910927	-0.410605	0.736283
C94	C	0.982260	-0.517144	0.739065
C95	C	0.385730	-0.158649	0.989785
C96	C	0.318713	-0.160015	1.054193
C97	C	0.285191	-0.105057	1.127448
C98	C	0.318698	-0.048740	1.136295
C99	C	0.385718	-0.047383	1.071889
C100	C	0.385741	0.429429	0.756849
C101	C	0.318727	0.529542	0.754233
C102	C	0.285207	0.523976	0.711885
C103	C	0.318712	0.418290	0.672144
C104	C	0.385730	0.318179	0.674756
C105	C	0.385734	0.286776	1.071875
C106	C	0.318718	0.381574	1.136295
C107	C	0.285199	0.491107	1.127469
C108	C	0.318706	0.505840	1.054218
C109	C	0.385725	0.411043	0.989800
C110	C	1.015774	-0.480167	0.384303
C111	C	1.082811	-0.574966	0.319884
C112	C	1.116334	-0.684499	0.328709
C113	C	1.082822	-0.699232	0.401960
C114	C	1.015791	-0.604434	0.466378
C115	C	1.015777	-0.034752	0.466392
C116	C	1.082813	-0.033414	0.401986
C117	C	1.116336	-0.088375	0.328730
C118	C	1.082827	-0.144687	0.319883
C119	C	1.015797	-0.146031	0.384289
C120	C	1.015758	-0.511542	0.781420
C121	C	1.082774	-0.611637	0.784048
C122	C	1.116294	-0.717333	0.744316
C123	C	1.082789	-0.722933	0.701959
C124	C	1.015770	-0.622838	0.699336
H125	H	0.413005	-0.192438	0.791332
H126	H	0.988509	-0.616445	0.526014
H127	H	-0.011502	-0.000957	0.664837
F128	F	1.118479	-0.835432	0.659672
F129	F	1.118424	-0.605654	0.829127
F130	F	0.980139	-0.205954	0.374860
F131	F	0.700752	-0.226431	0.247829
H132	H	0.413022	-0.203417	0.930143
F133	F	1.034385	0.058271	0.574287
F134	F	0.980112	0.023747	0.544351
F135	F	1.034380	0.256757	0.574281
H136	H	0.864925	0.456806	0.652396
F137	F	0.421368	0.426743	0.911850
F138	F	0.283039	-0.200303	0.796517
F139	F	0.220483	-0.193467	0.792040
F140	F	0.213878	0.630534	0.709113
F141	F	0.421401	0.435378	0.801927
H142	H	0.988503	-0.627415	0.664843
F143	F	0.118469	-0.249593	0.829094
H144	H	0.700756	0.077108	0.440359
H145	H	0.700750	0.086743	0.318760
F146	F	1.187624	-0.823854	0.747114
F147	F	-0.019892	-0.241418	0.823700
H148	H	0.551819	0.600246	0.796740
H149	H	1.110132	-0.189434	0.260230
H150	H	0.551822	0.425798	0.796736
H151	H	0.413015	0.197597	1.079075
F152	F	0.980107	-0.363602	0.374893
H153	H	0.700746	0.031638	0.015848
H154	H	0.700739	-0.270500	0.015824
F155	F	0.421359	0.012566	1.081318
F156	F	0.283066	0.365871	1.214246
H157	H	0.110077	-0.008119	0.669592
F158	F	0.283078	0.642009	0.796535
F159	F	0.700738	0.042164	0.145826
F160	F	0.213869	0.591990	1.196036
H161	H	0.291395	-0.003997	1.195948
F162	F	0.283062	-0.219952	1.044761
F163	F	0.283021	0.056216	0.627091
H164	H	0.413010	0.032993	0.642411
F165	F	1.118461	0.026527	0.411418
H166	H	0.230618	-0.106170	1.179886
F167	F	0.283028	0.412384	0.627077
F168	F	0.700763	-0.246524	0.448705
H169	H	0.700747	-0.215396	0.318743
H170	H	0.412996	0.232138	0.642400
H171	H	0.988477	-0.425488	0.813775
F172	F	0.864942	0.083862	0.652407
H173	H	0.291405	0.595034	1.047044
H174	H	1.110085	-0.562948	0.260246
F175	F	0.700741	-0.301614	0.145797
H176	H	0.189375	-0.015929	0.674736
H177	H	1.170914	-0.761680	0.276250
F178	F	0.700731	0.033046	0.208361
H179	H	1.110125	-0.788425	0.409137
F180	F	1.187676	-0.086934	0.260189
