data_functionalizedCrystal
_audit_creation_method	'MofGen! by Chris Wilmer'
_symmetry_space_group_name_H-M	'P1'
_symmetry_Int_Tables_number	1
_symmetry_cell_setting	triclinic
loop_
_symmetry_equiv_pos_as_xyz
  x,y,z
_cell_length_a	23.532356
_cell_length_b	23.532361
_cell_length_c	13.448316
_cell_angle_alpha	89.997511
_cell_angle_beta	89.998461
_cell_angle_gamma	97.171287
loop_
_atom_site_label
_atom_site_type_symbol
_atom_site_fract_x
_atom_site_fract_y
_atom_site_fract_z
O1	O	-0.069012	0.755266	-0.082575
O2	O	-0.079043	0.589397	-0.082597
O3	O	0.008907	0.677348	-0.082599
O4	O	-0.156962	0.667314	-0.082572
O5	O	0.008913	0.677337	0.082785
O6	O	-0.079037	0.589386	0.082787
O7	O	-0.069006	0.755255	0.082809
Cu8	Cu	-0.074021	0.672319	0.097899
Cu9	Cu	-0.074028	0.672332	-0.097687
O10	O	-0.156956	0.667303	0.082811
C11	C	-0.078789	0.568175	0.000092
C12	C	-0.078034	0.504956	0.000083
C13	C	-0.074733	0.231719	-0.090062
C14	C	-0.075448	0.291119	-0.090064
O15	O	-0.075800	0.321850	-0.166732
N16	N	-0.075806	0.320819	0.000087
C17	C	-0.075444	0.291116	0.090246
O18	O	-0.075814	0.321832	0.166926
C19	C	-0.074725	0.231718	0.090247
C20	C	-0.074372	0.202021	0.000090
C21	C	-0.074380	0.202022	-0.180212
C22	C	-0.073666	0.142626	-0.180209
C23	C	-0.073305	0.112928	-0.090057
C24	C	-0.073658	0.142625	0.000093
C25	C	-0.074358	0.202018	0.180406
C26	C	-0.073638	0.142616	0.180399
C27	C	-0.073286	0.112918	0.090242
C28	C	-0.072584	0.053531	0.090248
N29	N	-0.072226	0.023832	0.000097
C30	C	-0.072586	0.053530	-0.090055
C31	C	-0.076953	0.415856	0.090236
C32	C	-0.077676	0.475252	0.090236
C33	C	-0.077679	0.475251	-0.090075
C34	C	-0.076960	0.415853	-0.090073
C35	C	-0.076594	0.386157	0.000085
C36	C	-0.071088	-0.071205	-0.090043
C37	C	-0.070376	-0.130607	-0.090032
C38	C	-0.070370	-0.130600	0.090278
C39	C	-0.071085	-0.071204	0.090268
C40	C	-0.071441	-0.041508	0.000099
O41	O	-0.072228	0.022763	0.166877
O42	O	-0.072209	0.022808	-0.166723
C43	C	-0.178176	0.667560	0.000123
C44	C	-0.241394	0.668314	0.000134
C45	C	-0.633410	0.673058	-0.090065
C46	C	-0.692809	0.673775	-0.090069
O47	O	-0.723530	0.674170	-0.166738
N48	N	-0.722515	0.674125	0.000081
C49	C	-0.692817	0.673763	0.090241
O50	O	-0.723538	0.674127	0.166920
C51	C	-0.633419	0.673050	0.090245
C52	C	-0.603717	0.672694	0.000089
C53	C	-0.603708	0.672703	-0.180213
C54	C	-0.544313	0.671984	-0.180208
C55	C	-0.514620	0.671621	-0.090054
C56	C	-0.544322	0.671976	0.000094
C57	C	-0.603721	0.672692	0.180404
C58	C	-0.544319	0.671979	0.180400
C59	C	-0.514617	0.671623	0.090245
C60	C	-0.455234	0.670894	0.090253
N61	N	-0.425528	0.670544	0.000103
C62	C	-0.455221	0.670907	-0.090051
C63	C	-0.817559	0.675262	0.090227
C64	C	-0.876957	0.675971	0.090224
C65	C	-0.876945	0.675984	-0.090087
C66	C	-0.817546	0.675271	-0.090083
C67	C	-0.787853	0.674912	0.000077
C68	C	-0.330487	0.669398	-0.090033
C69	C	-0.271087	0.668677	-0.090020
C70	C	-0.271104	0.668667	0.090290
C71	C	-0.330500	0.669385	0.090278
C72	C	-0.360189	0.669752	0.000108
O73	O	-0.424475	0.670500	0.166883
O74	O	-0.424492	0.670551	-0.166717
C75	C	0.030127	0.677092	0.000087
C76	C	0.093345	0.676338	0.000070
C77	C	-0.069260	0.776477	0.000118
C78	C	-0.070015	0.839695	0.000120
N79	N	-0.074017	0.672314	0.235463
N80	N	-0.074028	0.672342	-0.235251
C81	C	-0.035088	0.711271	0.287502
C82	C	-0.035088	0.711275	0.391605
C83	C	-0.074019	0.672324	0.443668
C84	C	-0.112949	0.633363	0.391621
C85	C	-0.112946	0.633357	0.287520
C86	C	-0.112953	0.633379	0.608601
C87	C	-0.112956	0.633385	0.712710
C88	C	-0.035094	0.711296	0.712687
C89	C	-0.035091	0.711291	0.608586
C90	C	-0.074023	0.672330	0.556546
H91	H	-0.070091	-0.154784	-0.163452
C92	C	0.007733	0.754151	0.769932
N93	N	0.039988	0.786429	0.813054
H94	H	-0.003389	0.742996	0.433975
C95	C	-0.155774	0.590514	0.551361
N96	N	-0.188026	0.558229	0.508247
C97	C	-0.069971	-0.163279	0.189441
N98	N	-0.069666	-0.187894	0.264131
C99	C	-0.155779	0.590534	0.769976
N100	N	-0.188034	0.558256	0.813109
C101	C	-0.071484	-0.038549	-0.189233
N102	N	-0.071786	-0.013953	-0.263943
C103	C	-0.076564	0.383193	0.189425
N104	N	-0.076273	0.358594	0.264133
C105	C	-0.073240	0.109953	0.279584
N106	N	-0.072942	0.085352	0.354289
C107	C	0.007735	0.754139	0.551319
N108	N	0.039994	0.786411	0.508186
H109	H	-0.077972	0.499442	-0.163482
H110	H	-0.246907	0.668386	-0.163439
C111	C	-0.511661	0.671582	0.279586
N112	N	-0.487064	0.671280	0.354293
H113	H	-0.074672	0.226196	-0.253629
C114	C	-0.155775	0.590506	0.230277
N115	N	-0.188036	0.558229	0.187164
H116	H	-0.354654	0.669698	-0.163458
H117	H	-0.073377	0.118452	-0.253624
H118	H	-0.144646	0.601645	0.434016
H119	H	-0.627878	0.673001	-0.253631
C120	C	-0.076566	0.383193	-0.189252
N121	N	-0.076267	0.358596	-0.263958
H122	H	-0.077972	0.499426	0.163651
C123	C	-0.784903	0.674856	0.189416
N124	N	-0.760310	0.674550	0.264126
C125	C	0.007740	0.754121	0.230243
N126	N	0.040002	0.786395	0.187119
C127	C	-0.363173	0.669773	0.189453
N128	N	-0.387777	0.670072	0.264154
H129	H	-0.074643	0.226187	0.253821
C130	C	-0.071477	-0.038537	0.189445
N131	N	-0.071766	-0.013935	0.264147
H132	H	-0.627894	0.672987	0.253819
H133	H	-0.520135	0.671699	-0.253622
C134	C	-0.784878	0.674893	-0.189261
N135	N	-0.760274	0.674613	-0.263966
H136	H	-0.901136	0.676250	0.163638
C137	C	-0.909618	0.676390	-0.189259
N138	N	-0.934229	0.676696	-0.263950
C139	C	-0.238431	0.668265	0.189455
N140	N	-0.213819	0.667966	0.264146
