data_functionalizedCrystal
_audit_creation_method	'MofGen! by Chris Wilmer'
_symmetry_space_group_name_H-M	'P1'
_symmetry_Int_Tables_number	1
_symmetry_cell_setting	triclinic
loop_
_symmetry_equiv_pos_as_xyz
  x,y,z
_cell_length_a	8.497374
_cell_length_b	12.759400
_cell_length_c	12.759401
_cell_angle_alpha	89.985155
_cell_angle_beta	89.999632
_cell_angle_gamma	90.008022
loop_
_atom_site_label
_atom_site_type_symbol
_atom_site_fract_x
_atom_site_fract_y
_atom_site_fract_z
Zn1	Zn	0.891904	-0.418444	-1.606068
Zn2	Zn	0.628108	-0.594091	-1.606017
Zn3	Zn	0.628137	-0.418427	-1.430425
Zn4	Zn	0.891846	-0.594082	-1.430358
O5	O	0.759999	-0.506261	-1.518217
O6	O	0.856923	-0.441755	-1.753082
O7	O	0.407350	-0.570785	-1.582732
O8	O	0.663163	-0.271408	-1.453773
O9	O	0.663113	-0.570802	-1.753045
O10	O	0.856951	-0.271421	-1.582817
O11	O	0.407371	-0.441725	-1.453725
O12	O	0.663107	-0.441717	-1.283395
O13	O	1.112616	-0.570787	-1.453659
O14	O	0.856853	-0.570770	-1.283346
O15	O	1.112658	-0.441746	-1.582752
O16	O	0.663058	-0.741110	-1.582667
O17	O	0.856824	-0.741104	-1.453611
C18	C	0.759966	-0.779228	-1.518155
C19	C	0.760005	-0.896005	-1.518224
C20	C	0.759978	-0.506241	-1.245250
C21	C	0.760006	-0.506258	-1.128473
C22	C	0.659222	-0.950835	-1.585498
C23	C	0.659270	-1.060559	-1.585563
C24	C	0.860889	-1.060613	-1.451070
C25	C	0.860847	-0.950891	-1.451012
C26	C	0.542814	-0.950805	-1.663143
C27	C	0.542862	-1.060529	-1.663208
C28	C	1.171479	-0.506262	-1.518209
C29	C	1.350123	-0.506274	-1.518212
C30	C	0.760021	-0.506281	-1.792250
C31	C	0.760031	-0.506290	-1.909027
C32	C	0.760066	-0.232228	-1.518308
C33	C	0.760095	-0.115451	-1.518347
C34	C	0.860722	-0.573564	-1.073613
C35	C	0.860739	-0.573577	-0.963889
C36	C	0.659310	-0.438977	-0.963895
C37	C	0.659302	-0.438959	-1.073617
C38	C	0.977011	-0.651278	-1.073609
C39	C	0.977028	-0.651291	-0.963885
H40	H	0.942927	-0.906249	-1.396242
C41	C	0.917612	-0.755626	-1.119578
N42	N	0.872869	-0.834221	-1.154203
C43	C	1.133929	-0.612083	-0.917917
N44	N	1.252100	-0.582545	-0.883292
C45	C	0.548520	-0.364909	-1.133959
N46	N	0.465074	-0.309131	-1.179409
H47	H	0.426703	-0.916826	-1.634043
H48	H	1.099249	-0.629612	-1.103391
C49	C	0.602112	-1.106409	-1.767629
N50	N	0.646737	-1.140966	-1.846277
H51	H	0.575625	-0.920956	-1.744480
C52	C	0.971800	-1.120997	-1.377133
N53	N	1.055336	-1.166478	-1.321440
H54	H	0.420664	-1.090358	-1.641496
C55	C	0.932525	-0.761173	-0.923637
N56	N	0.899003	-0.843933	-0.893322
H57	H	0.577322	-0.384183	-0.919217
