data_functionalizedCrystal
_audit_creation_method	'MofGen! by Chris Wilmer'
_symmetry_space_group_name_H-M	'P1'
_symmetry_Int_Tables_number	1
_symmetry_cell_setting	triclinic
loop_
_symmetry_equiv_pos_as_xyz
  x,y,z
_cell_length_a	10.540535
_cell_length_b	14.044220
_cell_length_c	13.101039
_cell_angle_alpha	86.332523
_cell_angle_beta	86.607812
_cell_angle_gamma	91.143740
loop_
_atom_site_label
_atom_site_type_symbol
_atom_site_fract_x
_atom_site_fract_y
_atom_site_fract_z
O1	O	1.705801	-0.128473	-0.085234
O2	O	2.205801	0.371527	0.414766
O3	O	1.337661	-0.141073	-0.085233
O4	O	1.837661	0.358927	0.414767
O5	O	1.516204	0.003248	-0.085224
O6	O	2.016204	0.503248	0.414776
O7	O	1.527257	-0.272795	-0.085244
O8	O	2.027257	0.227205	0.414756
O9	O	1.503396	-0.007124	0.085206
O10	O	2.003396	0.492876	0.585206
O11	O	1.324852	-0.151446	0.085196
O12	O	1.824852	0.348554	0.585196
O13	O	1.692992	-0.138845	0.085195
O14	O	2.192992	0.361155	0.585195
Zn15	Zn	1.506889	-0.146792	0.112255
Zn16	Zn	2.006889	0.353208	0.612255
Zn17	Zn	1.523764	-0.133126	-0.112293
Zn18	Zn	2.023764	0.366874	0.387707
O19	O	1.514449	-0.283167	0.085185
O20	O	2.014449	0.216833	0.585185
C21	C	1.283858	-0.145315	-0.000018
C22	C	1.783858	0.354685	0.499982
C23	C	1.142624	-0.142491	-0.000018
C24	C	1.642624	0.357509	0.499982
C25	C	1.504962	0.033409	-0.000009
C26	C	2.004962	0.533409	0.499991
C27	C	1.490532	0.138732	-0.000007
C28	C	1.990532	0.638732	0.499993
C29	C	1.746795	-0.134603	-0.000022
C30	C	2.246795	0.365397	0.499978
C31	C	1.888030	-0.137427	-0.000030
C32	C	2.388030	0.362573	0.499970
C33	C	1.935353	-0.242799	-0.000035
C34	C	2.435353	0.257201	0.499965
C35	C	2.082225	-0.245795	0.000358
C36	C	2.582225	0.254205	0.500358
C37	C	2.085210	-0.095239	0.097115
C38	C	2.585210	0.404761	0.597115
C39	C	1.938213	-0.093001	0.097190
C40	C	2.438213	0.406999	0.597190
C41	C	1.952723	-0.079672	-0.096626
C42	C	2.452723	0.420328	0.403374
C43	C	2.099657	-0.084468	-0.097897
C44	C	2.599657	0.415532	0.402103
C45	C	1.525691	-0.313328	-0.000032
C46	C	2.025691	0.186672	0.499968
C47	C	1.540121	-0.418650	-0.000040
C48	C	2.040121	0.081350	0.499960
N49	N	1.495381	-0.156118	0.265503
N50	N	1.995381	0.343882	0.765503
C51	C	1.464153	0.331573	-0.000022
C52	C	1.964153	0.831573	0.499978
C53	C	1.566495	0.388515	-0.000025
C54	C	2.066495	0.888515	0.499975
C55	C	1.551817	0.495818	-0.000034
C56	C	2.051817	0.995818	0.499966
C57	C	1.478829	0.224260	-0.000014
C58	C	1.978829	0.724260	0.499986
N59	N	1.535281	-0.123793	-0.265541
N60	N	2.035281	0.376207	0.234459
C61	C	1.479725	-0.168815	0.474544
C62	C	1.979725	0.331185	0.974544
C63	C	1.550933	-0.111099	0.525424
C64	C	2.050933	0.388901	1.025424
C65	C	1.542222	-0.118164	0.641742
C66	C	2.042222	0.381836	1.141742
C67	C	1.488434	-0.161752	0.358216
C68	C	1.988434	0.338248	0.858216
H69	H	2.120992	-0.283131	-0.069261
H70	H	2.620992	0.216869	0.430739
H71	H	1.365518	0.363409	-0.000024
H72	H	1.865518	0.863409	0.499976
H73	H	1.665143	0.356681	-0.000095
H74	H	2.165143	0.856681	0.499905
Cl75	Cl	1.900666	-0.123406	-0.210329
Cl76	Cl	2.400666	0.376594	0.289671
H77	H	1.618440	-0.056381	0.481625
H78	H	2.118440	0.443619	0.981625
H79	H	1.412224	-0.223531	0.518338
H80	H	1.912224	0.276469	1.018338
Cl81	Cl	2.130196	-0.158370	0.209140
Cl82	Cl	2.630196	0.341630	0.709140
H83	H	1.890694	-0.286820	0.069510
H84	H	2.390694	0.213180	0.569510
Cl85	Cl	1.884954	-0.298733	-0.107565
Cl86	Cl	2.384954	0.201267	0.392435
Cl87	Cl	1.873343	-0.155285	0.209709
Cl88	Cl	2.373343	0.344715	0.709709
Cl89	Cl	2.124505	-0.316254	0.108483
Cl90	Cl	2.624505	0.183746	0.608483
H91	H	2.124628	-0.019398	0.100458
H92	H	2.624628	0.480602	0.600458
Cl93	Cl	1.890106	0.025863	0.103648
Cl94	Cl	2.390106	0.525863	0.603648
H95	H	2.137571	-0.118781	-0.169757
H96	H	2.637571	0.381219	0.330243
H97	H	1.922764	-0.002089	-0.097563
H98	H	2.422764	0.497911	0.402437
Cl99	Cl	2.164290	0.032503	-0.107393
Cl100	Cl	2.664290	0.532503	0.392607
