data_functionalizedCrystal
_audit_creation_method	'MofGen! by Chris Wilmer'
_symmetry_space_group_name_H-M	'P1'
_symmetry_Int_Tables_number	1
_symmetry_cell_setting	triclinic
loop_
_symmetry_equiv_pos_as_xyz
  x,y,z
_cell_length_a	14.560432
_cell_length_b	14.628931
_cell_length_c	14.560432
_cell_angle_alpha	59.999869
_cell_angle_beta	90.000049
_cell_angle_gamma	60.001318
loop_
_atom_site_label
_atom_site_type_symbol
_atom_site_fract_x
_atom_site_fract_y
_atom_site_fract_z
Zr1	Zr	0.884752	1.000600	-0.120528
O2	O	0.738109	1.191301	-0.267174
O3	O	0.929706	0.809896	-0.075572
O4	O	0.929709	1.000600	-0.267175
O5	O	0.738104	1.000598	0.075567
O6	O	1.080847	1.000604	-0.267175
O7	O	0.738106	1.000597	-0.075572
O8	O	1.080841	0.659470	0.075566
O9	O	0.738109	1.341733	-0.267175
O10	O	1.061671	0.888340	-0.056400
O11	O	0.948877	0.888338	0.056394
O12	O	0.948881	1.112867	-0.169193
O13	O	0.836087	1.112865	-0.056400
Zr14	Zr	1.125796	1.000609	0.120521
Zr15	Zr	1.125799	1.000606	-0.120528
Zr16	Zr	0.884749	1.000602	0.120521
Zr17	Zr	0.884753	1.240522	-0.120528
Zr18	Zr	1.125795	0.760687	0.120521
O19	O	1.080842	1.191313	0.075566
O20	O	1.080847	1.191310	-0.267175
O21	O	0.738104	1.191304	0.075566
O22	O	1.272439	0.809908	0.267168
O23	O	1.272444	0.809905	-0.075573
O24	O	0.929701	0.809899	0.267168
O25	O	1.272444	1.000611	-0.075573
O26	O	1.080839	1.000609	0.267168
O27	O	0.929701	1.000605	0.267168
O28	O	1.272442	1.000612	0.075566
O29	O	0.929710	1.341738	-0.267175
O30	O	1.080838	0.659471	0.267168
O31	O	1.272439	0.659476	0.267168
O32	O	1.272442	0.659474	0.075566
O33	O	0.738107	1.341734	-0.075573
O34	O	0.929707	1.341739	-0.075573
O35	O	1.061668	0.888342	0.169187
O36	O	1.174462	0.888344	0.056393
O37	O	1.061671	1.112871	-0.056400
O38	O	0.948877	1.112869	0.056393
C39	C	1.005274	0.700499	-0.000003
C40	C	1.005273	0.598646	-0.000003
C41	C	1.061227	0.553238	-0.055956
C42	C	1.061228	0.447968	-0.055957
C43	C	0.703761	1.000597	-0.000003
C44	C	0.601430	1.000594	-0.000003
C45	C	0.719167	0.766185	0.117744
C46	C	0.729959	0.648985	0.176612
C47	C	0.633806	0.648990	0.176609
C48	C	0.526854	0.766209	0.117734
C49	C	0.516062	0.883409	0.058867
C50	C	0.612223	0.883391	0.058873
C51	C	0.398326	1.117815	-0.058872
C52	C	0.494477	1.117813	-0.058877
C53	C	0.291374	1.235034	-0.117746
C54	C	0.280581	1.352237	-0.176622
C55	C	0.376742	1.352227	-0.176618
C56	C	0.483686	1.235013	-0.117745
C57	C	1.306787	1.000612	-0.000004
C58	C	1.409118	1.000615	-0.000004
C59	C	1.005279	1.000602	-0.301519
C60	C	1.005280	1.000601	-0.403851
C61	C	1.005274	1.300710	-0.000004
C62	C	1.005275	1.402563	-0.000004
C63	C	0.838743	1.000588	-0.596138
C64	C	0.755479	1.000584	-0.548056
C65	C	0.755478	1.000587	-0.451908
C66	C	0.838753	1.000590	-0.403837
C67	C	0.922017	1.000594	-0.451918
C68	C	0.922007	1.000595	-0.548070
C69	C	1.088544	1.000605	-0.451932
C70	C	1.088542	1.000611	-0.548085
C71	C	1.171818	1.000608	-0.403860
C72	C	1.255080	1.000621	-0.451946
C73	C	1.255077	1.000620	-0.548101
C74	C	1.171806	1.000615	-0.596166
C75	C	1.005270	1.000607	0.301512
C76	C	1.005268	1.000608	0.403844
C77	C	1.306787	0.700507	-0.000004
C78	C	1.409117	0.598657	-0.000004
C79	C	1.005269	0.700502	0.301513
C80	C	1.005268	0.598650	0.403845
C81	C	1.306782	0.700510	0.301512
C82	C	1.409111	0.598660	0.403844
C83	C	0.703766	1.300699	-0.301519
C84	C	0.601437	1.402549	-0.403851
C85	C	0.703761	1.300702	-0.000003
C86	C	0.601431	1.402552	-0.000003
C87	C	1.005279	1.300707	-0.301520
C88	C	1.005281	1.402559	-0.403851
C89	C	1.398788	0.553247	-0.055957
C90	C	1.504551	0.447979	-0.055958
C91	C	1.061219	0.553243	0.505420
C92	C	1.061218	0.447974	0.611187
C93	C	1.510686	0.553254	0.393513
C94	C	1.616450	0.447987	0.499277
H95	H	1.109136	0.592290	-0.103855
H96	H	1.109121	0.408923	0.698325
Cl97	Cl	1.359764	1.000614	-0.608532
H98	H	0.213086	1.235030	-0.117738
Cl99	Cl	1.171791	1.000620	-0.717043
Cl100	Cl	1.619520	0.462852	0.073968
Cl101	Cl	1.471585	0.462853	0.614250
Cl102	Cl	1.135185	0.387690	-0.129928
H103	H	0.687681	1.000577	-0.412757
Cl104	Cl	1.264250	0.613543	-0.129924
Cl105	Cl	0.931301	0.462849	0.073955
H106	H	1.495882	0.408923	-0.103857
H107	H	1.496260	0.559605	0.047894
Cl108	Cl	0.405977	0.766212	0.117752
H109	H	1.109116	0.592307	0.514081
H110	H	1.703587	0.408934	0.490606
Cl111	Cl	0.931310	0.462838	0.466322
Cl112	Cl	1.395726	0.538373	0.538384
Cl113	Cl	0.604572	1.234990	-0.117738
H114	H	0.957361	0.559595	0.395184
H115	H	0.957373	0.559585	0.047903
H116	H	1.519352	0.592314	0.306370
H117	H	0.797465	0.766169	0.117743
H118	H	0.642598	0.553555	0.224548
Cl119	Cl	0.864413	0.501632	0.250643
H120	H	0.367942	1.447666	-0.224540
Cl121	Cl	0.146131	1.499580	-0.250618
Cl122	Cl	0.838723	1.000609	-0.717023
H123	H	0.838755	1.000576	-0.325540
Cl124	Cl	0.650799	1.000574	-0.608487
H125	H	1.171818	1.000602	-0.325567
Cl126	Cl	1.359762	1.000613	-0.391506
