data_functionalizedCrystal
_audit_creation_method	'MofGen! by Chris Wilmer'
_symmetry_space_group_name_H-M	'P1'
_symmetry_Int_Tables_number	1
_symmetry_cell_setting	triclinic
loop_
_symmetry_equiv_pos_as_xyz
  x,y,z
_cell_length_a	19.188930
_cell_length_b	27.732048
_cell_length_c	18.266242
_cell_angle_alpha	89.988683
_cell_angle_beta	89.977082
_cell_angle_gamma	82.893716
loop_
_atom_site_label
_atom_site_type_symbol
_atom_site_fract_x
_atom_site_fract_y
_atom_site_fract_z
O1	O	0.925764	0.060348	-0.061124
O2	O	1.425764	0.560348	0.438876
O3	O	0.722401	0.068472	-0.061075
O4	O	1.222401	0.568472	0.438925
O5	O	0.830399	-0.005968	-0.061087
O6	O	1.330399	0.494032	0.438913
O7	O	0.817767	0.134787	-0.061112
O8	O	1.317767	0.634787	0.438888
O9	O	0.830381	-0.005971	0.060675
O10	O	1.330381	0.494029	0.560675
O11	O	0.722383	0.068468	0.060687
O12	O	1.222383	0.568468	0.560687
O13	O	0.925746	0.060344	0.060638
O14	O	1.425746	0.560344	0.560638
Zn15	Zn	0.824062	0.064405	0.079995
Zn16	Zn	1.324062	0.564405	0.579995
Zn17	Zn	0.824086	0.064410	-0.080432
Zn18	Zn	1.324086	0.564410	0.419568
O19	O	0.817749	0.134783	0.060650
O20	O	1.317749	0.634783	0.560650
C21	C	0.696383	0.068207	-0.000187
C22	C	1.196383	0.568207	0.499813
C23	C	0.618883	0.067417	-0.000168
C24	C	1.118883	0.567417	0.499832
C25	C	0.573681	0.111096	-0.000187
C26	C	1.073681	0.611096	0.499813
C27	C	0.500862	0.110354	-0.000195
C28	C	1.000862	0.610354	0.499805
C29	C	0.473249	0.065931	-0.000199
C30	C	0.973249	0.565931	0.499801
C31	C	0.518461	0.022246	-0.000175
C32	C	1.018461	0.522246	0.499825
C33	C	0.591278	0.022990	-0.000160
C34	C	1.091278	0.522990	0.499840
N35	N	0.365491	0.031976	-0.041663
N36	N	0.865491	0.531976	0.458337
N37	N	0.296317	0.031273	-0.041679
N38	N	0.796317	0.531273	0.458321
C39	C	0.253854	0.063689	-0.000243
C40	C	0.753854	0.563689	0.499757
N41	N	0.283177	0.096842	0.041201
N42	N	0.783177	0.596842	0.541201
N43	N	0.352358	0.097546	0.041213
N44	N	0.852358	0.597546	0.541213
C45	C	0.394291	0.065120	-0.000215
C46	C	0.894291	0.565120	0.499785
C47	C	0.129692	0.106566	-0.000270
C48	C	0.629692	0.606566	0.499730
C49	C	0.056872	0.105822	-0.000273
C50	C	0.556872	0.605822	0.499727
C51	C	0.074473	0.017714	-0.000261
C52	C	0.574473	0.517714	0.499739
C53	C	0.147292	0.018459	-0.000250
C54	C	0.647292	0.518459	0.499750
C55	C	0.174897	0.062886	-0.000258
C56	C	0.674897	0.562886	0.499742
C57	C	0.830125	-0.023977	-0.000204
C58	C	1.330125	0.476023	0.499796
C59	C	0.829326	-0.077635	-0.000198
C60	C	1.329326	0.422365	0.499802
C61	C	0.888119	-0.416270	-0.000250
C62	C	1.388119	0.083730	0.499750
C63	C	0.885157	-0.617939	-0.000259
C64	C	1.385157	-0.117939	0.499741
O65	O	0.938918	-0.649030	-0.000304
O66	O	1.438918	-0.149030	0.499696
N67	N	0.821118	-0.637258	-0.000243
N68	N	1.321118	-0.137258	0.499757
C69	C	0.757816	-0.606157	-0.000229
C70	C	1.257816	-0.106157	0.499771
O71	O	0.703280	-0.627217	-0.000223
O72	O	1.203280	-0.127217	0.499777
C73	C	0.760780	-0.404489	-0.000225
C74	C	1.260780	0.095511	0.499775
C75	C	0.824822	-0.385173	-0.000234
C76	C	1.324822	0.114827	0.499766
C77	C	0.952156	-0.396953	-0.000259
C78	C	1.452156	0.103047	0.499741
C79	C	0.952896	-0.346539	-0.000253
C80	C	1.452896	0.153461	0.499747
C81	C	0.889599	-0.315441	-0.000237
C82	C	1.389599	0.184559	0.499763
C83	C	0.825562	-0.334759	-0.000227
C84	C	1.325562	0.165241	0.499773
C85	C	0.697478	-0.373389	-0.000216
C86	C	1.197478	0.126611	0.499784
C87	C	0.698225	-0.322969	-0.000217
C88	C	1.198225	0.177031	0.499783
C89	C	0.762267	-0.303653	-0.000226
C90	C	1.262267	0.196347	0.499774
C91	C	0.763005	-0.253247	-0.000205
C92	C	1.263005	0.246753	0.499795
N93	N	0.827043	-0.233928	-0.000221
N94	N	1.327043	0.266072	0.499779
C95	C	0.890340	-0.265025	-0.000237
C96	C	1.390340	0.234975	0.499763
C97	C	0.756265	-0.712036	-0.000230
C98	C	1.256265	-0.212036	0.499770
C99	C	0.755524	-0.762452	-0.000230
C100	C	1.255524	-0.262452	0.499770
C101	C	0.882865	-0.774231	-0.000261
C102	C	1.382865	-0.274231	0.499739
C103	C	0.883605	-0.723813	-0.000256
C104	C	1.383605	-0.223813	0.499744
C105	C	0.820303	-0.692716	-0.000246
C106	C	1.320303	-0.192716	0.499754
C107	C	0.891889	-0.159151	-0.000223
C108	C	1.391889	0.340849	0.499777
C109	C	0.892623	-0.108732	-0.000214
C110	C	1.392623	0.391268	0.499786
C111	C	0.765283	-0.096958	-0.000186
C112	C	1.265283	0.403042	0.499814
C113	C	0.764549	-0.147373	-0.000192
C114	C	1.264549	0.352627	0.499808
C115	C	0.827857	-0.178468	-0.000213
C116	C	1.327857	0.321532	0.499787
O117	O	0.709272	-0.222127	-0.000168
O118	O	1.209272	0.277873	0.499832
O119	O	0.944868	-0.243956	-0.000259
O120	O	1.444868	0.256044	0.499741
C121	C	0.887379	-0.466684	-0.000256
C122	C	1.387379	0.033316	0.499744
C123	C	0.823342	-0.486001	-0.000246
C124	C	1.323342	0.013999	0.499754
C125	C	0.760045	-0.454904	-0.000230
C126	C	1.260045	0.045096	0.499770
C127	C	0.822601	-0.536418	-0.000246
C128	C	1.322601	-0.036418	0.499754
C129	C	0.885898	-0.567515	-0.000262
C130	C	1.385898	-0.067515	0.499738
C131	C	0.949936	-0.548195	-0.000278
C132	C	1.449936	-0.048195	0.499722
C133	C	0.950676	-0.497781	-0.000272
C134	C	1.450676	0.002219	0.499728
C135	C	0.696007	-0.474223	-0.000214
C136	C	1.196007	0.025777	0.499786
C137	C	0.695272	-0.524638	-0.000220
C138	C	1.195272	-0.024638	0.499780
C139	C	0.758569	-0.555735	-0.000236
C140	C	1.258569	-0.055735	0.499764
C141	C	0.951765	0.060609	-0.000251
C142	C	1.451765	0.560609	0.499749
C143	C	1.029264	0.061399	-0.000275
C144	C	1.529264	0.561399	0.499725
C145	C	0.818023	0.152793	-0.000235
C146	C	1.318023	0.652793	0.499765
C147	C	0.818821	0.206450	-0.000246
C148	C	1.318821	0.706450	0.499754
N149	N	0.824051	0.064402	0.189482
N150	N	1.324051	0.564402	0.689482
N151	N	0.824103	0.064410	-0.189919
N152	N	1.324103	0.564410	0.310081
C153	C	0.871887	0.031456	0.227785
C154	C	1.371887	0.531456	0.727785
C155	C	0.871892	0.031454	0.304430
C156	C	1.371892	0.531454	0.804430
C157	C	0.824066	0.064406	0.342769
C158	C	1.324066	0.564406	0.842769
C159	C	0.776220	0.097354	0.304456
C160	C	1.276220	0.597354	0.804456
C161	C	0.776213	0.097352	0.227813
C162	C	1.276213	0.597352	0.727813
N163	N	0.814718	0.107196	0.463095
N164	N	1.314718	0.607196	0.963095
N165	N	0.814729	0.107196	0.535903
N166	N	1.314729	0.607196	1.035903
C167	C	0.824086	0.064413	0.573691
C168	C	1.324086	0.564413	1.073691
N169	N	0.833444	0.021627	0.535921
N170	N	1.333444	0.521627	1.035921
N171	N	0.833436	0.021628	0.463106
N172	N	1.333436	0.521628	0.963106
C173	C	0.824069	0.064411	0.425876
C174	C	1.324069	0.564411	0.925876
C175	C	0.871930	0.031462	0.695102
C176	C	1.371930	0.531462	1.195102
C177	C	0.871929	0.031459	0.771748
C178	C	1.371929	0.531459	1.271748
C179	C	0.776261	0.097363	0.771772
C180	C	1.276261	0.597363	1.271772
C181	C	0.776258	0.097362	0.695127
C182	C	1.276258	0.597362	1.195127
C183	C	0.824096	0.064412	0.656797
C184	C	1.324096	0.564412	1.156797
H185	H	0.944776	-0.093007	-0.000219
H186	H	1.444776	0.406993	0.499781
O187	O	0.635262	-0.019410	-0.000245
O188	O	1.135262	0.480590	0.499755
C189	C	0.677928	-0.021619	-0.063310
C190	C	1.177928	0.478381	0.436690
H191	H	0.681207	0.016741	-0.084338
H192	H	1.181207	0.516741	0.415662
H193	H	0.732851	-0.039740	-0.049117
H194	H	1.232851	0.460260	0.450883
H195	H	0.654230	-0.043643	-0.107468
H196	H	1.154230	0.456357	0.392532
O197	O	0.918394	-0.000485	0.341726
O198	O	1.418394	0.499515	0.841726
C199	C	0.961198	0.025334	0.386011
C200	C	1.461198	0.525334	0.886011
H201	H	0.932976	0.063205	0.397495
H202	H	1.432976	0.563205	0.897495
H203	H	0.972472	0.005141	0.439909
H204	H	1.472472	0.505141	0.939909
H205	H	1.012757	0.028532	0.356443
H206	H	1.512757	0.528532	0.856443
O207	O	0.635310	-0.392201	-0.000313
O208	O	1.135310	0.107799	0.499687
C209	C	0.631074	-0.420989	-0.063389
C210	C	1.131074	0.079011	0.436611
H211	H	0.686246	-0.433662	-0.084416
H212	H	1.186246	0.066338	0.415584
H213	H	0.603588	-0.453945	-0.049211
H214	H	1.103588	0.046055	0.450789
H215	H	0.599962	-0.398639	-0.107543
H216	H	1.099962	0.101361	0.392457
H217	H	0.051991	-0.018456	-0.000309
H218	H	0.551991	0.481544	0.499691
H219	H	0.152169	0.142741	-0.000266
H220	H	0.652169	0.642741	0.499734
O221	O	0.729694	0.129381	0.341581
O222	O	1.229694	0.629381	0.841581
C223	C	0.687480	0.158469	0.291334
C224	C	1.187480	0.658469	0.791334
H225	H	0.686903	0.138650	0.236707
H226	H	1.186903	0.638650	0.736707
H227	H	0.631646	0.165936	0.313506
H228	H	1.131646	0.665936	0.813506
H229	H	0.709755	0.194340	0.283156
H230	H	1.209755	0.694340	0.783156
O231	O	0.918305	-0.000595	0.808990
O232	O	1.418305	0.499405	1.308990
C233	C	0.881249	-0.030348	0.853365
C234	C	1.381249	0.469652	1.353365
H235	H	0.826196	-0.031075	0.830296
H236	H	1.326196	0.468925	1.330296
H237	H	0.910158	-0.068816	0.854231
H238	H	1.410158	0.431184	1.354231
H239	H	0.877428	-0.015215	0.911449
H240	H	1.377428	0.484785	1.411449
H241	H	0.020068	0.141392	-0.000285
H242	H	0.520068	0.641392	0.499715
O243	O	0.918377	-0.000601	0.190666
O244	O	1.418377	0.499399	0.690666
C245	C	0.960612	-0.029672	0.240915
C246	C	1.460612	0.470328	0.740915
H247	H	0.931999	-0.030166	0.295565
H248	H	1.431999	0.469834	0.795565
H249	H	0.971681	-0.068295	0.218782
H250	H	1.471681	0.431705	0.718782
H251	H	1.012307	-0.014065	0.249031
H252	H	1.512307	0.485935	0.749031
H253	H	0.184097	-0.017109	-0.000238
H254	H	0.684097	0.482891	0.499762
O255	O	0.456914	0.152772	-0.000089
O256	O	0.956914	0.652772	0.499911
C257	C	0.414215	0.154976	0.062951
C258	C	0.914215	0.654976	0.562951
H259	H	0.441125	0.130205	0.107043
H260	H	0.941125	0.630205	0.607043
H261	H	0.405590	0.193931	0.084104
H262	H	0.905590	0.693931	0.584104
H263	H	0.361402	0.142575	0.048683
H264	H	0.861402	0.642575	0.548683
O265	O	0.633074	-0.543422	-0.000082
O266	O	1.133074	-0.043422	0.499918
C267	C	0.628820	-0.572256	0.062963
C268	C	1.128820	-0.072256	0.562963
H269	H	0.665163	-0.560417	0.107040
H270	H	1.165163	-0.060417	0.607040
H271	H	0.572494	-0.567618	0.084135
H272	H	1.072494	-0.067618	0.584135
H273	H	0.645362	-0.612046	0.048694
H274	H	1.145362	-0.112046	0.548694
H275	H	0.943441	-0.184464	-0.000243
H276	H	1.443441	0.315536	0.499757
H277	H	1.005046	-0.330816	-0.000263
H278	H	1.505046	0.169184	0.499737
O279	O	0.634563	-0.443970	-0.000099
O280	O	1.134563	0.056030	0.499901
C281	C	0.631161	-0.414474	0.062977
C282	C	1.131161	0.085526	0.562977
H283	H	0.686548	-0.412035	0.083987
H284	H	1.186548	0.087965	0.583987
H285	H	0.604729	-0.376527	0.048808
H286	H	1.104729	0.123473	0.548808
H287	H	0.599455	-0.431010	0.107142
H288	H	1.099455	0.068990	0.607142
H289	H	0.737308	0.124191	0.663939
H290	H	1.237308	0.624191	1.163939
O291	O	1.013712	-0.427088	-0.000240
O292	O	1.513712	0.072912	0.499760
C293	C	1.070382	-0.399216	-0.000268
C294	C	1.570382	0.100784	0.499732
H295	H	1.052228	-0.361554	0.022784
H296	H	1.552228	0.138446	0.522784
H297	H	1.114694	-0.417899	0.035078
H298	H	1.614694	0.082101	0.535078
H299	H	1.090051	-0.395658	-0.058686
H300	H	1.590051	0.104342	0.441314
H301	H	0.935754	-0.708089	-0.000264
H302	H	1.435754	-0.208089	0.499736
O303	O	0.600379	0.154293	-0.000155
O304	O	1.100379	0.654293	0.499845
C305	C	0.544861	0.192686	-0.000191
C306	C	1.044861	0.692686	0.499809
H307	H	0.495520	0.179240	0.022850
H308	H	0.995520	0.679240	0.522850
H309	H	0.559723	0.223710	0.035161
H310	H	1.059723	0.723710	0.535161
H311	H	0.534446	0.206154	-0.058610
H312	H	1.034446	0.706154	0.441390
H313	H	0.934404	-0.799559	-0.000274
H314	H	1.434404	-0.299559	0.499726
O315	O	0.729678	0.129293	0.190567
O316	O	1.229678	0.629293	0.690567
C317	C	0.686897	0.103480	0.146246
C318	C	1.186897	0.603480	0.646246
H319	H	0.686131	0.065362	0.169356
H320	H	1.186131	0.565362	0.669356
H321	H	0.631190	0.123298	0.145394
H322	H	1.131190	0.623298	0.645394
H323	H	0.708775	0.100909	0.088151
H324	H	1.208775	0.600909	0.588151
O325	O	0.693357	-0.781270	-0.000312
O326	O	1.193357	-0.281270	0.499688
C327	C	0.689118	-0.810062	-0.063383
C328	C	1.189118	-0.310062	0.436617
H329	H	0.744289	-0.822731	-0.084418
H330	H	1.244289	-0.322731	0.415582
H331	H	0.661641	-0.843021	-0.049197
H332	H	1.161641	-0.343021	0.450803
H333	H	0.657996	-0.787716	-0.107535
H334	H	1.157996	-0.287716	0.392465
O335	O	0.918418	-0.000595	0.657975
O336	O	1.418418	0.499405	1.157975
C337	C	0.960650	-0.029670	0.708223
C338	C	1.460650	0.470330	1.208223
H339	H	0.932035	-0.030167	0.762871
H340	H	1.432035	0.469833	1.262871
H341	H	0.971717	-0.068292	0.686085
H342	H	1.471717	0.431708	1.186085
H343	H	1.012345	-0.014065	0.716344
H344	H	1.512345	0.485935	1.216344
O345	O	0.729773	0.129306	0.809085
O346	O	1.229773	0.629306	1.309085
C347	C	0.686974	0.103492	0.853435
C348	C	1.186974	0.603492	1.353435
H349	H	0.715194	0.065620	0.864916
H350	H	1.215194	0.565620	1.364916
H351	H	0.675712	0.123688	0.907329
H352	H	1.175712	0.623688	1.407329
H353	H	0.635409	0.100295	0.823923
H354	H	1.135409	0.600295	1.323923
H355	H	0.704714	-0.686720	-0.000222
H356	H	1.204714	-0.186720	0.499778
H357	H	0.495974	-0.013923	-0.000188
H358	H	0.995974	0.486077	0.499812
O359	O	0.636686	-0.292811	-0.000304
O360	O	1.136686	0.207189	0.499696
C361	C	0.597794	-0.301531	-0.063370
C362	C	1.097794	0.198469	0.436630
H363	H	0.615368	-0.339808	-0.084400
H364	H	1.115368	0.160192	0.415600
H365	H	0.539520	-0.297872	-0.049177
H366	H	1.039520	0.202128	0.450823
H367	H	0.607044	-0.273965	-0.107526
H368	H	1.107044	0.226035	0.392474
O369	O	0.702278	-0.166059	-0.000213
O370	O	1.202278	0.333941	0.499787
C371	C	0.646570	-0.127798	-0.000176
C372	C	1.146570	0.372202	0.499824
H373	H	0.665770	-0.093581	-0.023219
H374	H	1.165770	0.406419	0.476781
H375	H	0.601834	-0.138236	-0.035526
H376	H	1.101834	0.361764	0.464474
H377	H	0.627058	-0.120640	0.058244
H378	H	1.127058	0.379360	0.558244
O379	O	1.012905	-0.479044	-0.000416
O380	O	1.512905	0.020956	0.499584
C381	C	1.051469	-0.494953	-0.063479
C382	C	1.551469	0.005047	0.436521
H383	H	1.014014	-0.505355	-0.107546
H384	H	1.514014	-0.005355	0.392454
H385	H	1.080848	-0.464471	-0.084653
H386	H	1.580848	0.035529	0.415347
H387	H	1.090729	-0.527897	-0.049232
H388	H	1.590729	-0.027897	0.450768
O389	O	1.011406	-0.578428	-0.000425
O390	O	1.511406	-0.078428	0.499575
C391	C	1.014777	-0.607940	-0.063483
C392	C	1.514777	-0.107940	0.436517
H393	H	0.978878	-0.589392	-0.107546
H394	H	1.478878	-0.089392	0.392454
H395	H	1.071082	-0.613725	-0.084668
H396	H	1.571082	-0.113725	0.415332
H397	H	0.997101	-0.644567	-0.049225
H398	H	1.497101	-0.144567	0.450775
H399	H	0.713749	-0.071630	-0.000171
H400	H	1.213749	0.428370	0.499829
