data_functionalizedCrystal
_audit_creation_method	'MofGen! by Chris Wilmer'
_symmetry_space_group_name_H-M	'P1'
_symmetry_Int_Tables_number	1
_symmetry_cell_setting	triclinic
loop_
_symmetry_equiv_pos_as_xyz
  x,y,z
_cell_length_a	10.654562
_cell_length_b	10.654551
_cell_length_c	9.730223
_cell_angle_alpha	90.001469
_cell_angle_beta	89.996961
_cell_angle_gamma	84.487733
loop_
_atom_site_label
_atom_site_type_symbol
_atom_site_fract_x
_atom_site_fract_y
_atom_site_fract_z
O1	O	1.667825	0.176469	-0.114371
O2	O	1.302349	0.193259	-0.114353
O3	O	1.493489	0.002125	-0.114363
O4	O	1.476685	0.367603	-0.114361
O5	O	1.493487	0.002130	0.114217
O6	O	1.302347	0.193263	0.114227
O7	O	1.667823	0.176474	0.114209
Zn8	Zn	1.485085	0.184869	0.150510
Zn9	Zn	1.485088	0.184863	-0.150654
O10	O	1.476683	0.367607	0.114219
C11	C	1.255550	0.192025	-0.000061
C12	C	1.116108	0.188327	-0.000054
C13	C	1.492254	-0.044670	-0.000076
C14	C	1.488562	-0.184114	-0.000085
C15	C	1.050576	0.186604	0.124534
C16	C	0.919554	0.183139	0.124511
C17	C	0.919606	0.183125	-0.124700
C18	C	1.050627	0.186581	-0.124675
C19	C	1.116057	0.188350	0.249155
C20	C	1.050524	0.186629	0.373753
C21	C	0.919502	0.183165	0.373730
C22	C	0.854012	0.181421	0.249109
C23	C	1.486831	-0.249629	-0.124682
C24	C	1.483351	-0.380649	-0.124675
C25	C	1.483338	-0.380629	0.124535
C26	C	1.486809	-0.249610	0.124527
C27	C	1.488584	-0.184132	-0.249294
C28	C	1.486854	-0.249647	-0.373901
C29	C	1.483374	-0.380668	-0.373894
C30	C	1.481623	-0.446173	-0.249281
C31	C	1.714622	0.177708	-0.000086
C32	C	1.854064	0.181406	-0.000102
C33	C	1.477918	0.414403	-0.000071
C34	C	1.481610	0.553846	-0.000071
N35	N	1.485092	0.184873	0.356046
N36	N	1.485090	0.184850	-0.356190
C37	C	1.569751	0.100268	0.427968
C38	C	1.569747	0.100253	0.571851
C39	C	1.400422	0.269459	0.571878
C40	C	1.400420	0.269467	0.427998
C41	C	1.654422	0.015674	0.356017
C42	C	1.739089	-0.068937	0.427938
C43	C	1.739086	-0.068952	0.571821
C44	C	1.654415	0.015644	0.643783
H45	H	1.222741	0.191176	0.249187
O46	O	1.121148	0.188513	0.508163
H47	H	1.223263	0.191225	0.487252
O48	O	1.309115	0.360705	0.350392
H49	H	1.325957	0.458770	0.377986
O50	O	0.848960	0.181244	-0.259096
H51	H	0.884544	0.096446	-0.318828
O52	O	1.488685	-0.178944	0.258915
H53	H	1.491381	-0.076834	0.237972
H54	H	1.654435	0.015682	0.238860
H55	H	1.808018	-0.137819	0.369340
O56	O	0.848813	0.181310	0.508107
H57	H	0.916361	0.183115	0.594761
H58	H	1.808016	-0.137853	0.630379
H59	H	1.103984	0.187989	-0.226126
O60	O	1.309116	0.360711	0.649483
H61	H	1.323351	0.346501	0.761616
H62	H	0.747325	0.178596	0.249100
H63	H	1.478771	-0.552857	-0.249286
O64	O	1.492631	-0.042855	-0.249296
H65	H	1.493659	-0.008327	-0.356876
H66	H	1.654411	0.015616	0.760942
O67	O	1.488728	-0.179006	-0.508302
H68	H	1.575765	-0.129772	-0.514281
O69	O	1.481466	-0.451333	-0.508281
H70	H	1.483263	-0.383772	-0.594926
O71	O	1.481483	-0.451277	0.258934
H72	H	1.478798	-0.553392	0.238007
