data_functionalizedCrystal
_audit_creation_method	'MofGen! by Chris Wilmer'
_symmetry_space_group_name_H-M	'P1'
_symmetry_Int_Tables_number	1
_symmetry_cell_setting	triclinic
loop_
_symmetry_equiv_pos_as_xyz
  x,y,z
_cell_length_a	23.532355
_cell_length_b	23.532407
_cell_length_c	15.072220
_cell_angle_alpha	90.014019
_cell_angle_beta	89.998161
_cell_angle_gamma	82.838088
loop_
_atom_site_label
_atom_site_type_symbol
_atom_site_fract_x
_atom_site_fract_y
_atom_site_fract_z
O1	O	0.755278	0.068998	0.073671
O2	O	0.589410	0.079032	0.073700
O3	O	0.677346	-0.008918	0.073668
O4	O	0.667342	0.156948	0.073703
O5	O	0.677340	-0.008928	-0.073897
O6	O	0.589404	0.079022	-0.073865
O7	O	0.755272	0.068988	-0.073894
Zn8	Zn	0.672337	0.074003	-0.097309
Zn9	Zn	0.672345	0.074017	0.097115
O10	O	0.667337	0.156937	-0.073862
C11	C	0.568191	0.078776	-0.000079
C12	C	0.504972	0.078022	-0.000068
C13	C	0.112955	0.073278	-0.080544
C14	C	0.053556	0.072561	-0.080548
O15	O	0.022835	0.072165	-0.148956
N16	N	0.023850	0.072211	-0.000110
C17	C	0.053548	0.072572	0.080336
O18	O	0.022827	0.072208	0.148754
C19	C	0.112947	0.073286	0.080339
C20	C	0.142649	0.073641	-0.000104
C21	C	0.142657	0.073633	-0.160980
C22	C	0.202052	0.074352	-0.160976
C23	C	0.231746	0.074715	-0.080536
C24	C	0.202044	0.074360	-0.000100
C25	C	0.142645	0.073643	0.160784
C26	C	0.202048	0.074356	0.160780
C27	C	0.231749	0.074712	0.080337
C28	C	0.291133	0.075442	0.080344
N29	N	0.320838	0.075792	-0.000094
C30	C	0.291144	0.075428	-0.080534
C31	C	-0.071193	0.071073	0.080324
C32	C	-0.130592	0.070364	0.080323
C33	C	-0.130580	0.070351	-0.080561
C34	C	-0.071181	0.071065	-0.080559
C35	C	-0.041488	0.071423	-0.000113
C36	C	0.415878	0.076938	-0.080519
C37	C	0.475279	0.077659	-0.080508
C38	C	0.475262	0.077668	0.080375
C39	C	0.415867	0.076950	0.080365
C40	C	0.386177	0.076583	-0.000090
O41	O	0.321892	0.075835	0.148717
O42	O	0.321874	0.075785	-0.148940
C43	C	0.677088	-0.030139	-0.000116
C44	C	0.676322	-0.093356	-0.000123
C45	C	0.723557	-0.492468	-0.000083
C46	C	0.722845	-0.551868	-0.000076
O47	O	0.766632	-0.588620	-0.000051
N48	N	0.670568	-0.574484	-0.000067
C49	C	0.618998	-0.537697	-0.000057
O50	O	0.574467	-0.562388	-0.000048
C51	C	0.619710	-0.478298	-0.000057
C52	C	0.671991	-0.455685	-0.000075
C53	C	0.775834	-0.469854	-0.000100
C54	C	0.776545	-0.410458	-0.000108
C55	C	0.724979	-0.373676	-0.000100
C56	C	0.672703	-0.396289	-0.000083
C57	C	0.568141	-0.441512	-0.000040
C58	C	0.568858	-0.382110	-0.000040
C59	C	0.621139	-0.359497	-0.000057
C60	C	0.621848	-0.300110	-0.000084
N61	N	0.674126	-0.277494	-0.000092
C62	C	0.725691	-0.314277	-0.000100
C63	C	0.617507	-0.662439	-0.000054
C64	C	0.616794	-0.721837	-0.000060
C65	C	0.720642	-0.736004	-0.000078
C66	C	0.721354	-0.676605	-0.000078
C67	C	0.669784	-0.639823	-0.000063
C68	C	0.727181	-0.189540	-0.000119
C69	C	0.727888	-0.130138	-0.000131
C70	C	0.624041	-0.115977	-0.000109
C71	C	0.623334	-0.175373	-0.000101
C72	C	0.674909	-0.212154	-0.000103
O73	O	0.578084	-0.263323	-0.000105
O74	O	0.770216	-0.289577	-0.000098
C75	C	0.776492	0.069244	-0.000113
C76	C	0.839710	0.069998	-0.000118
C77	C	0.667594	0.178158	-0.000076
C78	C	0.668360	0.241375	-0.000063
N79	N	0.672336	0.073993	-0.229998
C80	C	0.672345	0.074012	-0.589199
C81	C	0.719549	0.027108	-0.551582
C82	C	0.719427	0.026936	-0.448756
C83	C	0.672341	0.074003	-0.410995
C84	C	0.612994	0.061372	-0.448331
C85	C	0.613274	0.061041	-0.551188
C86	C	0.683953	0.133689	-0.551266
C87	C	0.685304	0.133281	-0.448402
C88	C	0.672335	0.073999	-0.310282
C89	C	0.672347	0.074015	-0.689912
N90	N	0.672350	0.074022	0.229803
H91	H	0.226230	0.074638	-0.226481
H92	H	0.391711	0.076644	-0.146033
H93	H	0.770463	-0.111731	-0.000148
O94	O	0.599028	0.004394	-0.414236
H95	H	0.556971	-0.004057	-0.441089
O96	O	-0.162672	0.070053	-0.167284
H97	H	-0.184480	0.030936	-0.171200
H98	H	-0.154771	0.070083	0.145827
H99	H	0.726285	0.145915	-0.577205
O100	O	-0.039169	0.071471	0.167095
H101	H	-0.069809	0.071114	0.223021
O102	O	0.642673	0.181649	-0.414377
H103	H	0.611439	0.164115	-0.370079
H104	H	0.728960	0.142873	-0.424001
O105	O	0.777742	-0.652217	-0.000091
H106	H	0.780552	-0.625483	0.060052
H107	H	0.712046	-0.017358	-0.424166
O108	O	0.383826	0.076575	0.167126
H109	H	0.362066	0.037425	0.170961
H110	H	0.118487	0.073336	-0.226488
H111	H	0.602993	0.017530	-0.575195
H112	H	0.819117	-0.392053	-0.000119
O113	O	0.507314	0.078052	-0.167274
H114	H	0.476684	0.077677	-0.223207
O115	O	-0.039147	0.071451	-0.167320
H116	H	-0.069780	0.071079	-0.223250
O117	O	0.110621	0.073230	0.247548
H118	H	0.141260	0.073585	0.303474
H119	H	0.577111	0.093923	-0.576073
H120	H	0.817827	-0.499797	-0.000103
H121	H	0.649527	0.168590	-0.575596
H122	H	0.762629	-0.765963	-0.000081
H123	H	0.499449	0.077967	0.145867
O124	O	0.234075	0.074747	0.247547
H125	H	0.203437	0.074385	0.303477
H126	H	0.769178	-0.219481	-0.000117
H127	H	0.574222	-0.740243	-0.000061
O128	O	0.565360	0.105439	-0.415941
H129	H	0.563792	0.104478	-0.342362
O130	O	0.561883	-0.622767	-0.000061
H131	H	0.525415	-0.648478	-0.000066
O132	O	0.709922	-0.031236	-0.585834
H133	H	0.667096	-0.041052	-0.564341
H134	H	0.525569	-0.459912	-0.000020
H135	H	0.582057	-0.086018	-0.000105
O136	O	0.513236	-0.342436	-0.000034
H137	H	0.476767	-0.368144	-0.000030
O138	O	0.777877	0.036832	-0.415315
H139	H	0.777848	0.036721	-0.341674
O140	O	0.566947	-0.199769	-0.000085
H141	H	0.531211	-0.164210	-0.000077
H142	H	0.763824	0.034452	-0.576317
