data_functionalizedCrystal
_audit_creation_method	'MofGen! by Chris Wilmer'
_symmetry_space_group_name_H-M	'P1'
_symmetry_Int_Tables_number	1
_symmetry_cell_setting	triclinic
loop_
_symmetry_equiv_pos_as_xyz
  x,y,z
_cell_length_a	9.730223
_cell_length_b	14.971486
_cell_length_c	14.971486
_cell_angle_alpha	96.385871
_cell_angle_beta	90.001545
_cell_angle_gamma	90.004750
loop_
_atom_site_label
_atom_site_type_symbol
_atom_site_fract_x
_atom_site_fract_y
_atom_site_fract_z
O1	O	0.114132	-1.186940	0.116559
O2	O	0.114170	-0.926539	0.130518
O3	O	0.114140	-1.063719	-0.006662
O4	O	0.114162	-1.049760	0.253738
O5	O	-0.114439	-1.063717	-0.006658
O6	O	-0.114410	-0.926538	0.130521
O7	O	-0.114447	-1.186938	0.116562
Zn8	Zn	-0.150721	-1.056738	0.123542
Zn9	Zn	0.150443	-1.056740	0.123538
O10	O	-0.114418	-1.049758	0.253742
C11	C	-0.000115	-0.893214	0.129895
C12	C	-0.000101	-0.793917	0.128024
N13	N	-0.356257	-1.056743	0.123545
C14	C	-0.000149	-1.063094	-0.039985
C15	C	-0.000148	-1.061223	-0.139282
C16	C	-0.428196	-1.117501	0.062822
C17	C	-0.572079	-1.117499	0.062811
C18	C	-0.572071	-0.995977	0.184254
C19	C	-0.428191	-0.995975	0.184259
C20	C	-0.428202	-1.187664	-0.007289
C21	C	-0.572085	-1.187662	-0.007300
N22	N	0.355980	-1.056742	0.123528
C23	C	-0.000159	-1.220263	0.117185
C24	C	-0.000164	-1.319561	0.119056
C25	C	-0.000096	-0.736692	0.208614
C26	C	-0.000117	-0.643392	0.206850
C27	C	-0.000133	-0.607320	0.124497
C28	C	-0.000141	-0.664552	0.043902
C29	C	-0.000131	-0.757850	0.045666
C30	C	-0.000161	-0.470090	0.040231
C31	C	-0.000169	-0.376786	0.038466
C32	C	-0.000147	-0.355632	0.201415
C33	C	-0.000136	-0.448930	0.203179
C34	C	-0.000143	-0.506156	0.122584
C35	C	-0.000160	-1.141812	-0.196507
C36	C	-0.000146	-1.140049	-0.289807
C37	C	-0.000129	-1.057696	-0.325879
C38	C	-0.000112	-0.977101	-0.268646
C39	C	-0.000117	-0.978865	-0.175349
C40	C	-0.000107	-0.973430	-0.463109
C41	C	-0.000105	-0.971665	-0.556413
C42	C	-0.000136	-1.134614	-0.577567
C43	C	-0.000141	-1.136378	-0.484269
C44	C	-0.000126	-1.055782	-0.427043
C45	C	-0.000125	-1.050384	0.287065
C46	C	-0.000118	-1.052254	0.386362
H47	H	-0.369619	-0.946493	0.233697
H48	H	-0.630655	-0.946501	0.233685
H49	H	-0.000134	-0.804443	-0.019958
C50	C	-0.000078	-0.776363	0.299203
H51	H	-0.000091	-0.728916	0.346946
H52	H	0.079636	-0.812311	0.303280
H53	H	-0.079796	-0.812325	0.303279
H54	H	-0.000168	-0.516682	-0.025399
H55	H	-0.000174	-0.635175	-0.023152
C56	C	-0.000194	-0.337107	-0.052120
H57	H	-0.000215	-0.384550	-0.099867
H58	H	0.079513	-0.301145	-0.056199
H59	H	-0.079919	-0.301158	-0.056184
H60	H	-0.000144	-1.200238	-0.624165
C61	C	-0.367908	-1.275168	0.021470
H62	H	-0.270398	-1.272180	0.020501
H63	H	-0.398056	-1.324752	-0.018887
H64	H	-0.398058	-1.282545	0.080555
C65	C	-0.000055	-0.881079	-0.596092
H66	H	-0.000021	-0.833332	-0.548649
H67	H	-0.079757	-0.876990	-0.632053
H68	H	0.079674	-0.877024	-0.632042
C69	C	-0.000094	-0.884776	-0.400162
H70	H	-0.000097	-0.835476	-0.435006
H71	H	0.079614	-0.882075	-0.363322
H72	H	-0.079818	-0.882079	-0.363332
H73	H	-0.616702	-1.166425	-0.072106
C74	C	-0.000122	-0.488608	0.293765
H75	H	-0.000134	-0.441166	0.341513
H76	H	0.079590	-0.524559	0.297839
H77	H	-0.079842	-0.524569	0.297836
H78	H	-0.611144	-1.256284	0.007501
H79	H	-0.000182	-1.208874	-0.167145
H80	H	-0.000090	-0.910047	-0.298024
H81	H	-0.000112	-0.596802	0.272474
C82	C	-0.000106	-0.890217	-0.112401
H83	H	-0.000108	-0.840917	-0.147245
H84	H	0.079604	-0.887520	-0.075563
H85	H	-0.079828	-0.887517	-0.075569
C86	C	-0.375437	-1.167735	-0.100005
H87	H	-0.451374	-1.159530	-0.138138
H88	H	-0.321204	-1.216714	-0.125796
H89	H	-0.321195	-1.114648	-0.093277
C90	C	-0.000174	-1.228697	-0.352751
H91	H	-0.000205	-1.277996	-0.317905
H92	H	0.079536	-1.231406	-0.389585
H93	H	-0.079895	-1.231388	-0.389586
C94	C	-0.000144	-0.292688	0.290069
H95	H	-0.000168	-0.231956	0.277227
H96	H	0.079576	-0.303622	0.323829
H97	H	-0.079856	-0.303641	0.323838
H98	H	-0.000164	-1.203437	-0.454903
