data_functionalizedCrystal
_audit_creation_method	'MofGen! by Chris Wilmer'
_symmetry_space_group_name_H-M	'P1'
_symmetry_Int_Tables_number	1
_symmetry_cell_setting	triclinic
loop_
_symmetry_equiv_pos_as_xyz
  x,y,z
_cell_length_a	19.077399
_cell_length_b	19.120786
_cell_length_c	19.076919
_cell_angle_alpha	89.730680
_cell_angle_beta	94.479523
_cell_angle_gamma	94.858661
loop_
_atom_site_label
_atom_site_type_symbol
_atom_site_fract_x
_atom_site_fract_y
_atom_site_fract_z
Zn1	Zn	1.051344	-0.251333	-0.345051
Zn2	Zn	1.051372	-0.363879	-0.222539
Zn3	Zn	0.938198	-0.251352	-0.231905
Zn4	Zn	0.928398	-0.373669	-0.344705
O5	O	0.992328	-0.310058	-0.286050
O6	O	1.150165	-0.262157	-0.325025
O7	O	1.040472	-0.344863	-0.125303
O8	O	0.957297	-0.153058	-0.250978
O9	O	1.150185	-0.344844	-0.235016
O10	O	1.040424	-0.153044	-0.334106
O11	O	0.957324	-0.262190	-0.132183
O12	O	0.838081	-0.271683	-0.250642
O13	O	0.940594	-0.361531	-0.443230
O14	O	0.830881	-0.361549	-0.333516
O15	O	1.030922	-0.271650	-0.443484
O16	O	1.030970	-0.463469	-0.234681
O17	O	0.940621	-0.470662	-0.324435
C18	C	0.808859	-0.317681	-0.293058
C19	C	0.730369	-0.320960	-0.296073
C20	C	0.697221	-0.275647	-0.254417
C21	C	0.623471	-0.278733	-0.257249
C22	C	0.582869	-0.327130	-0.301740
C23	C	0.616021	-0.372447	-0.343397
C24	C	0.689770	-0.369364	-0.340561
C25	C	0.361904	-0.341380	-0.314837
C26	C	0.288150	-0.344459	-0.317672
C27	C	0.295604	-0.250745	-0.231522
C28	C	0.369354	-0.247663	-0.228694
C29	C	0.402500	-0.292983	-0.270348
N30	N	0.507485	-0.330285	-0.304638
N31	N	0.477884	-0.289831	-0.267446
C32	C	0.984754	-0.492551	-0.278519
C33	C	0.981577	-0.570621	-0.275318
C34	C	1.023329	-0.607233	-0.317132
C35	C	1.020342	-0.680588	-0.314126
C36	C	0.975604	-0.717329	-0.269301
C37	C	0.933847	-0.680711	-0.227485
C38	C	0.936832	-0.607358	-0.230495
C39	C	0.964426	-0.938811	-0.258048
C40	C	0.961446	-1.012169	-0.255039
C41	C	1.047940	-1.012041	-0.341681
C42	C	1.050924	-0.938686	-0.344685
C43	C	1.009164	-0.902075	-0.302871
C44	C	0.972551	-0.792309	-0.266226
C45	C	1.012214	-0.827097	-0.305951
C46	C	1.176514	-0.302407	-0.279015
C47	C	1.255002	-0.299146	-0.276016
C48	C	0.984662	-0.317680	-0.469605
C49	C	0.981395	-0.320928	-0.547826
C50	C	0.999951	-0.126853	-0.293625
C51	C	1.003199	-0.048782	-0.296854
C52	C	1.026886	-0.275661	-0.584707
C53	C	1.023808	-0.278710	-0.658204
C54	C	0.975241	-0.327031	-0.694818
C55	C	0.929745	-0.372301	-0.657931
C56	C	0.932820	-0.369248	-0.584436
C57	C	0.960998	-0.341178	-0.914610
C58	C	0.957928	-0.344230	-0.988111
C59	C	1.051990	-0.250638	-0.988379
C60	C	1.055064	-0.247591	-0.914882
C61	C	1.009565	-0.292859	-0.878002
N62	N	0.972095	-0.330151	-0.769943
N63	N	1.012708	-0.289735	-0.802878
C64	C	1.000007	-0.302414	-0.103209
C65	C	1.003419	-0.298962	-0.024992
H66	H	0.255093	-0.383869	-0.353906
H67	H	0.930425	-0.909008	-0.224000
H68	H	0.402408	-0.208258	-0.192459
H69	H	0.897418	-0.710631	-0.190991
O70	O	0.910705	-0.391074	-1.023758
C71	C	0.864978	-0.354735	-1.069650
H72	H	0.891647	-0.300933	-1.081913
H73	H	0.814156	-0.348005	-1.043640
C74	C	0.814900	-0.462892	-1.123291
C75	C	0.847658	-0.396813	-1.138357
H76	H	0.804213	-0.488848	-1.165672
H77	H	0.845705	-0.487375	-1.092371
H78	H	0.772552	-0.457274	-1.101615
H79	H	0.890009	-0.402431	-1.160025
H80	H	0.816859	-0.372332	-1.169283
O81	O	0.591385	-0.234642	-0.216764
C82	C	0.643035	-0.191274	-0.176878
H83	H	0.694507	-0.187887	-0.203786
H84	H	0.652041	-0.214359	-0.122028
C85	C	0.554541	-0.121449	-0.138007
C86	C	0.617758	-0.117285	-0.171059
H87	H	0.538949	-0.075810	-0.134414
H88	H	0.519743	-0.150669	-0.164877
H89	H	0.562054	-0.140690	-0.092302
H90	H	0.610242	-0.098053	-0.216766
H91	H	0.652555	-0.088061	-0.144197
H92	H	0.902831	-0.577549	-0.196447
H93	H	1.048636	-0.797181	-0.342450
O94	O	0.929059	-0.828084	-0.222774
C95	C	0.880007	-0.874089	-0.262805
H96	H	0.902190	-0.886211	-0.314763
H97	H	0.828493	-0.848363	-0.273643
C98	C	0.838801	-0.927832	-0.157892
C99	C	0.866049	-0.942724	-0.221705
H100	H	0.830188	-0.970168	-0.132539
H101	H	0.871846	-0.896835	-0.130922
H102	H	0.795876	-0.906392	-0.166933
H103	H	0.908978	-0.964155	-0.212663
H104	H	0.833011	-0.973726	-0.248673
H105	H	0.730274	-0.236232	-0.218194
O106	O	0.263293	-0.206801	-0.191080
C107	C	0.189494	-0.219887	-0.203133
H108	H	0.176225	-0.275501	-0.224244
H109	H	0.168727	-0.180713	-0.243194
C110	C	0.171157	-0.143667	-0.107734
C111	C	0.154859	-0.211975	-0.133658
H112	H	0.149792	-0.138783	-0.064880
H113	H	0.220877	-0.134848	-0.099615
H114	H	0.153850	-0.111029	-0.141125
H115	H	0.172174	-0.244610	-0.100271
H116	H	0.105141	-0.220799	-0.141769
H117	H	0.388882	-0.378283	-0.348755
H118	H	0.716758	-0.406262	-0.374481
H119	H	1.054347	-0.710394	-0.348170
O120	O	0.888735	-0.413249	-0.548520
C121	C	0.928834	-0.455187	-0.502610
H122	H	0.983840	-0.427732	-0.490591
H123	H	0.933240	-0.508096	-0.528482
C124	C	0.824820	-0.500334	-0.448511
C125	C	0.892377	-0.466610	-0.433743
H126	H	0.802331	-0.507383	-0.406031
H127	H	0.797803	-0.472082	-0.479442
H128	H	0.828501	-0.544421	-0.470072
H129	H	0.888694	-0.422521	-0.412191
H130	H	0.919392	-0.494856	-0.402806
O131	O	0.916764	-0.385213	-0.878899
C132	C	0.873225	-0.428499	-0.926979
H133	H	0.899865	-0.431920	-0.978158
H134	H	0.820347	-0.405313	-0.937919
C135	C	0.828386	-0.498278	-0.832728
C136	C	0.861109	-0.502485	-0.895585
H137	H	0.820909	-0.543916	-0.813362
H138	H	0.857717	-0.469114	-0.800335
H139	H	0.784325	-0.478954	-0.841853
H140	H	0.905173	-0.521800	-0.886458
H141	H	0.831785	-0.531654	-0.927976
H142	H	1.059762	-0.577323	-0.353630
O143	O	0.576478	-0.419398	-0.386600
C144	C	0.504276	-0.412415	-0.380161
H145	H	0.497400	-0.357642	-0.359829
H146	H	0.483184	-0.453336	-0.341705
C147	C	0.471636	-0.490774	-0.477513
C148	C	0.463189	-0.423498	-0.452546
H149	H	0.446290	-0.497614	-0.522162
H150	H	0.520279	-0.495481	-0.481850
H151	H	0.454059	-0.524867	-0.445460
H152	H	0.480773	-0.389407	-0.484594
H153	H	0.414548	-0.418786	-0.448216
H154	H	1.089032	-0.213783	-1.018414
O155	O	1.102261	-0.200587	-0.879429
C156	C	1.141767	-0.161297	-0.927741
H157	H	1.110753	-0.162241	-0.981335
H158	H	1.194000	-0.185117	-0.932449
C159	C	1.194348	-0.083769	-0.835935
C160	C	1.156253	-0.084923	-0.901759
H161	H	1.203287	-0.036658	-0.819907
H162	H	1.167734	-0.110240	-0.803385
H163	H	1.237871	-0.103622	-0.839867
H164	H	1.112728	-0.065079	-0.897824
H165	H	1.182860	-0.058446	-0.934308
H166	H	1.087352	-0.908773	-0.381185
H167	H	1.081938	-1.041857	-0.375724
H168	H	0.925013	-1.042082	-0.218537
O169	O	1.074086	-0.228659	-0.549255
C170	C	1.113588	-0.189370	-0.597571
H171	H	1.082573	-0.190317	-0.651163
H172	H	1.165822	-0.213188	-0.602279
C173	C	1.166170	-0.111835	-0.505770
C174	C	1.128073	-0.112994	-0.571592
H175	H	1.175108	-0.064724	-0.489744
H176	H	1.139559	-0.138306	-0.473217
H177	H	1.209694	-0.131687	-0.509702
H178	H	1.084547	-0.093151	-0.567657
H179	H	1.154678	-0.086518	-0.604143
H180	H	1.060854	-0.241850	-0.688230
H181	H	0.890198	-0.411643	-0.687748
