data_functionalizedCrystal
_audit_creation_method	'MofGen! by Chris Wilmer'
_symmetry_space_group_name_H-M	'P1'
_symmetry_Int_Tables_number	1
_symmetry_cell_setting	triclinic
loop_
_symmetry_equiv_pos_as_xyz
  x,y,z
_cell_length_a	27.440280
_cell_length_b	27.440280
_cell_length_c	18.878441
_cell_angle_alpha	59.994450
_cell_angle_beta	90.003338
_cell_angle_gamma	60.007024
loop_
_atom_site_label
_atom_site_type_symbol
_atom_site_fract_x
_atom_site_fract_y
_atom_site_fract_z
Zr1	Zr	0.469581	0.533354	-0.092938
O2	O	0.391780	0.635025	-0.206068
O3	O	0.493421	0.431686	-0.058249
O4	O	0.493439	0.533348	-0.206037
O5	O	0.391759	0.533368	0.058287
O6	O	0.573642	0.533338	-0.206022
O7	O	0.391762	0.533364	-0.058280
O8	O	0.573610	0.351485	0.058343
O9	O	0.391791	0.715221	-0.206078
O10	O	0.563456	0.473495	-0.043454
O11	O	0.503599	0.473505	0.043528
O12	O	0.503621	0.593198	-0.130473
O13	O	0.443764	0.593208	-0.043491
Zr14	Zr	0.597491	0.533345	0.092996
Zr15	Zr	0.597495	0.533339	-0.092915
Zr16	Zr	0.469577	0.533360	0.092973
Zr17	Zr	0.469600	0.661257	-0.092954
Zr18	Zr	0.597473	0.405442	0.093013
O19	O	0.573651	0.635012	0.058307
O20	O	0.573657	0.635004	-0.206035
O21	O	0.391774	0.635033	0.058274
O22	O	0.675293	0.431673	0.206126
O23	O	0.675299	0.431665	-0.058216
O24	O	0.493416	0.431695	0.206093
O25	O	0.675314	0.533331	-0.058229
O26	O	0.573633	0.533351	0.206095
O27	O	0.493431	0.533360	0.206080
O28	O	0.675311	0.533334	0.058339
O29	O	0.493466	0.715209	-0.206060
O30	O	0.573607	0.351489	0.206118
O31	O	0.675282	0.351477	0.206136
O32	O	0.675285	0.351473	0.058362
O33	O	0.391788	0.715226	-0.058304
O34	O	0.493463	0.715214	-0.058285
O35	O	0.563452	0.473501	0.130531
O36	O	0.623308	0.473491	0.043550
O37	O	0.563473	0.593194	-0.043469
O38	O	0.503617	0.593203	0.043512
C39	C	0.533513	0.373362	0.000050
C40	C	0.533505	0.319064	0.000056
C41	C	0.373535	0.533368	-0.000000
C42	C	0.319232	0.533374	-0.000010
C43	C	0.577719	0.040177	0.064264
C44	C	0.577713	0.091199	0.064268
O45	O	0.615292	0.080020	0.118877
N46	N	0.533531	0.160894	0.000039
C47	C	0.489354	0.179566	-0.064202
O48	O	0.451773	0.243531	-0.118834
C49	C	0.489362	0.128544	-0.064208
C50	C	0.533544	0.058850	0.000030
C51	C	0.621898	-0.029513	0.128497
C52	C	0.621902	-0.080532	0.128494
C53	C	0.577728	-0.061859	0.064259
C54	C	0.533549	0.007832	0.000027
C55	C	0.445189	0.147217	-0.128452
C56	C	0.445201	0.096189	-0.128453
C57	C	0.489383	0.026494	-0.064216
C58	C	0.489379	-0.024514	-0.064211
N59	N	0.533562	-0.094208	0.000018
C60	C	0.577737	-0.112881	0.064253
C61	C	0.489340	0.286711	-0.064185
C62	C	0.489329	0.337732	-0.064176
C63	C	0.577689	0.249362	0.064293
C64	C	0.577697	0.198341	0.064287
C65	C	0.533523	0.217017	0.000043
C66	C	0.577743	-0.220019	0.064243
C67	C	0.577742	-0.271038	0.064237
C68	C	0.489384	-0.182664	-0.064235
C69	C	0.489382	-0.131649	-0.064226
C70	C	0.533567	-0.150332	0.000017
O71	O	0.451822	-0.013386	-0.118794
O72	O	0.615316	-0.176846	0.118869
C73	C	0.013768	0.470854	0.045476
C74	C	-0.037251	0.470850	0.045484
O75	O	-0.037076	0.417711	0.084141
N76	N	-0.094001	0.533333	0.000060
C77	C	-0.099731	0.595824	-0.045367
O78	O	-0.152686	0.648970	-0.084003
C79	C	-0.048714	0.595827	-0.045370
C80	C	0.008036	0.533340	0.000050
C81	C	0.070515	0.408372	0.090893
C82	C	0.121530	0.408376	0.090884
C83	C	0.115798	0.470862	0.045458
C84	C	0.059051	0.533344	0.000041
C85	C	-0.054445	0.658317	-0.090791
C86	C	-0.003421	0.658315	-0.090789
C87	C	0.053328	0.595828	-0.045369
C88	C	0.104333	0.595834	-0.045394
N89	N	0.161083	0.533351	0.000030
C90	C	0.166815	0.470866	0.045456
C91	C	-0.206870	0.595813	-0.045358
C92	C	-0.257887	0.595811	-0.045362
C93	C	-0.195403	0.470837	0.045491
C94	C	-0.144385	0.470840	0.045489
C95	C	-0.150120	0.533330	0.000066
C96	C	0.273948	0.470879	0.045432
C97	C	0.324964	0.470888	0.045416
C98	C	0.262476	0.595862	-0.045433
C99	C	0.211463	0.595853	-0.045421
C100	C	0.217203	0.533356	0.000018
O101	O	0.104204	0.648947	-0.084029
O102	O	0.219772	0.417728	0.084094
C103	C	0.693537	0.533330	0.000058
C104	C	0.747840	0.533324	0.000068
C105	C	0.533541	0.533342	-0.232518
C106	C	0.533543	0.533340	-0.311442
C107	C	0.533560	0.693336	0.000009
C108	C	0.533568	0.747634	0.000002
C109	C	0.502296	0.595841	-0.696840
C110	C	0.502295	0.595838	-0.622679
C111	C	0.533532	0.533352	-0.540178
C112	C	0.564767	0.470865	-0.531839
C113	C	0.564764	0.470869	-0.606000
C114	C	0.564772	0.470861	-0.377268
C115	C	0.564777	0.470857	-0.303101
C116	C	0.502304	0.595831	-0.393947
C117	C	0.502301	0.595835	-0.468107
C118	C	0.533537	0.533347	-0.459763
C119	C	0.533531	0.533356	0.232576
C120	C	0.533530	0.533359	0.311500
C121	C	0.693514	0.373343	0.000079
C122	C	0.747809	0.319039	0.000095
C123	C	0.533508	0.373369	0.232596
C124	C	0.533498	0.319074	0.311527
C125	C	0.693509	0.373351	0.232625
C126	C	0.747802	0.319049	0.311566
C127	C	0.373564	0.693348	-0.232567
C128	C	0.319270	0.747650	-0.311508
C129	C	0.373559	0.693355	-0.000020
C130	C	0.319264	0.747660	-0.000037
C131	C	0.533565	0.693329	-0.232538
C132	C	0.533574	0.747625	-0.311469
C133	C	0.742064	0.293539	-0.045319
C134	C	0.793075	0.242521	-0.045321
C135	C	0.849831	0.217001	0.000098
C136	C	0.855574	0.242505	0.045514
C137	C	0.804564	0.293526	0.045510
C138	C	0.564736	0.293574	0.394017
C139	C	0.564725	0.242564	0.468188
C140	C	0.533479	0.217052	0.459868
C141	C	0.502237	0.242557	0.377370
C142	C	0.502245	0.293569	0.303200
C143	C	0.804549	0.293543	0.303234
C144	C	0.855568	0.242527	0.377401
C145	C	0.849840	0.217015	0.459898
C146	C	0.793087	0.242526	0.468229
C147	C	0.742069	0.293544	0.394063
C148	C	0.262524	0.773162	-0.303176
C149	C	0.211505	0.824193	-0.377342
C150	C	0.217233	0.849708	-0.459840
C151	C	0.273986	0.824194	-0.468171
C152	C	0.325003	0.773167	-0.394005
C153	C	0.325009	0.773165	0.045370
C154	C	0.273997	0.824197	0.045351
C155	C	0.217242	0.849719	-0.000070
C156	C	0.211498	0.824212	-0.045483
C157	C	0.262509	0.773184	-0.045469
C158	C	0.564826	0.773121	-0.303121
C159	C	0.564847	0.824130	-0.377278
C160	C	0.533612	0.849647	-0.459782
C161	C	0.502359	0.824146	-0.468129
C162	C	0.502342	0.773134	-0.393973
H163	H	0.613722	-0.235241	0.116556
O164	O	0.468590	0.321078	0.214201
H165	H	0.500169	0.311263	0.178305
O166	O	0.280159	0.851717	-0.557154
H167	H	0.304924	0.808891	-0.564694
H168	H	0.257819	0.646736	-0.082420
O169	O	0.533483	0.162020	0.539868
H170	H	0.560464	0.148570	0.598624
O171	O	0.916776	0.215009	0.368407
H172	H	0.912183	0.241313	0.298580
H173	H	0.891387	0.175473	0.520282
H174	H	0.590296	0.844888	-0.370465
H175	H	0.901791	0.221719	0.082492
H176	H	0.695856	0.314317	-0.082316
O177	O	0.533623	0.904676	-0.539764
H178	H	0.560598	0.918121	-0.520089
O179	O	0.468557	0.215014	0.368415
H180	H	0.434031	0.224795	0.400034
O181	O	0.468605	0.663231	-0.402954
H182	H	0.500145	0.666218	-0.371329
H183	H	0.409215	0.203959	-0.180768
H184	H	-0.100645	0.709201	-0.127776
O185	O	0.386209	0.745642	-0.402996
H186	H	0.381615	0.771955	-0.472823
O187	O	0.625404	-0.346209	0.133524
H188	H	0.604164	-0.371577	0.170558
H189	H	0.788387	0.221762	-0.082304
H190	H	0.809250	0.314281	0.082498
O191	O	0.468629	0.745638	-0.402976
H192	H	0.420618	0.788477	-0.438998
O193	O	0.182734	0.340978	0.139883
H194	H	0.207472	0.337978	0.094042
O195	O	0.598461	0.403466	-0.368275
H196	H	0.632985	0.400486	-0.399897
O197	O	0.669568	-0.155700	0.197762
H198	H	0.700286	-0.160101	0.242413
H199	H	0.453363	0.301928	-0.116499
O200	O	0.680866	0.321034	0.403063
H201	H	0.675679	0.344270	0.439080
H202	H	0.657873	-0.044729	0.180805
H203	H	0.075192	0.357486	0.127889
H204	H	0.476928	0.844930	-0.535314
O205	O	0.256304	0.745675	-0.094440
H206	H	0.278049	0.755462	-0.144639
O207	O	0.810735	0.321062	0.214259
H208	H	0.858769	0.294756	0.220939
H209	H	0.613675	0.141595	0.116595
H210	H	0.278686	0.844956	0.082335
H211	H	0.590181	0.314340	0.400808
H212	H	0.453416	-0.167471	-0.116530
O213	O	0.468603	0.663238	-0.785823
H214	H	0.446880	0.706685	-0.779160
H215	H	-0.190743	0.419957	0.082476
O216	O	0.625344	0.229223	0.133570
H217	H	0.617917	0.276414	0.122768
H218	H	-0.304092	0.646694	-0.082358
O219	O	0.598434	0.215049	0.557163
H220	H	0.620172	0.241351	0.550480
O221	O	0.904847	0.161973	0.000097
H222	H	0.931786	0.115480	0.067725
H223	H	0.165281	0.845000	-0.082464
O224	O	0.386220	0.745652	0.094349
H225	H	0.381635	0.771976	0.125903
O226	O	0.386175	0.403490	0.094408
H227	H	0.381585	0.360041	0.126002
H228	H	0.175711	0.891269	-0.000075
O229	O	0.598526	0.745597	-0.214138
H230	H	0.620265	0.771894	-0.220806
H231	H	0.590197	0.419987	-0.464660
H232	H	0.788432	0.221747	0.535408
H233	H	0.257848	0.752391	-0.236009
H234	H	0.175686	0.891257	-0.520223
O235	O	0.441676	0.412901	-0.133461
H236	H	0.410966	0.417305	-0.178129
O237	O	0.468605	0.663229	-0.631671
H238	H	0.446889	0.706680	-0.701498
H239	H	0.165299	0.844958	-0.370543
H240	H	0.590196	0.419989	-0.599203
O241	O	0.397552	0.116332	-0.197742
H242	H	0.366829	0.173367	-0.242400
H243	H	0.476869	0.646717	-0.535282
O244	O	-0.083178	0.403445	0.094482
H245	H	-0.087770	0.359998	0.126070
H246	H	0.278630	0.419988	0.082434
O247	O	0.441730	-0.056476	-0.133510
H248	H	0.397183	-0.045084	-0.130369
O249	O	-0.213041	0.663207	-0.094378
H250	H	-0.237814	0.693193	-0.068168
O251	O	-0.009606	0.725716	-0.139789
H252	H	-0.057640	0.769161	-0.171374
H253	H	0.165254	0.646735	-0.082416
H254	H	0.590209	0.419975	-0.235927
