data_functionalizedCrystal
_audit_creation_method	'MofGen! by Chris Wilmer'
_symmetry_space_group_name_H-M	'P1'
_symmetry_Int_Tables_number	1
_symmetry_cell_setting	triclinic
loop_
_symmetry_equiv_pos_as_xyz
  x,y,z
_cell_length_a	14.971486
_cell_length_b	14.044220
_cell_length_c	14.048226
_cell_angle_alpha	89.992807
_cell_angle_beta	89.998499
_cell_angle_gamma	88.401503
loop_
_atom_site_label
_atom_site_type_symbol
_atom_site_fract_x
_atom_site_fract_y
_atom_site_fract_z
O1	O	1.196679	0.123538	-0.079053
O2	O	1.696679	0.623538	0.420947
O3	O	0.937444	0.138332	-0.079079
O4	O	1.437444	0.638332	0.420921
O5	O	1.063171	-0.007054	-0.079057
O6	O	1.563171	0.492946	0.420943
O7	O	1.070953	0.268924	-0.079075
O8	O	1.570953	0.768924	0.420925
O9	O	1.063153	-0.007063	0.079264
O10	O	1.563153	0.492937	0.579264
O11	O	0.937427	0.138323	0.079242
O12	O	1.437427	0.638323	0.579242
O13	O	1.196662	0.123529	0.079268
O14	O	1.696662	0.623529	0.579268
Zn15	Zn	1.067042	0.130925	0.104392
Zn16	Zn	1.567042	0.630925	0.604392
Zn17	Zn	1.067064	0.130936	-0.104203
Zn18	Zn	1.567064	0.630936	0.395797
O19	O	1.070936	0.268915	0.079246
O20	O	1.570936	0.768915	0.579246
C21	C	0.904059	0.137666	0.000078
C22	C	1.404059	0.637666	0.500078
C23	C	0.804606	0.135683	0.000069
C24	C	1.304606	0.635683	0.500069
C25	C	0.754109	0.221093	0.000064
C26	C	1.254109	0.721093	0.500064
C27	C	0.660662	0.219225	0.000079
C28	C	1.160662	0.719225	0.500079
C29	C	0.617714	0.131945	0.000090
C30	C	1.117714	0.631945	0.500090
C31	C	0.668218	0.046528	0.000097
C32	C	1.168218	0.546528	0.500097
C33	C	0.761663	0.048398	0.000090
C34	C	1.261663	0.548398	0.500090
C35	C	0.473449	0.042638	0.000111
C36	C	0.973449	0.542638	0.500111
C37	C	0.379997	0.040767	0.000117
C38	C	0.879997	0.540767	0.500117
C39	C	0.372448	0.213465	0.000100
C40	C	0.872448	0.713465	0.500100
C41	C	0.465893	0.215334	0.000092
C42	C	0.965893	0.715334	0.500092
C43	C	0.516390	0.129917	0.000097
C44	C	1.016390	0.629917	0.500097
C45	C	1.059755	-0.042377	0.000104
C46	C	1.559755	0.457623	0.500104
C47	C	1.049594	-0.147614	0.000104
C48	C	1.549594	0.352386	0.500104
C49	C	1.031018	-0.340297	0.000088
C50	C	1.531018	0.159703	0.500088
C51	C	1.103085	-0.397848	0.000093
C52	C	1.603085	0.102152	0.500093
C53	C	1.092748	-0.505063	0.000084
C54	C	1.592748	-0.005063	0.500084
C55	C	1.041353	-0.233071	0.000097
C56	C	1.541353	0.266929	0.500097
C57	C	1.230047	0.124195	0.000109
C58	C	1.730047	0.624195	0.500109
C59	C	1.329501	0.126178	0.000112
C60	C	1.829501	0.626178	0.500112
C61	C	1.074351	0.304238	0.000083
C62	C	1.574351	0.804238	0.500083
C63	C	1.084512	0.409475	0.000077
C64	C	1.584512	0.909475	0.500077
N65	N	1.067033	0.130916	0.246753
N66	N	1.567033	0.630916	0.746753
N67	N	1.067080	0.130937	-0.246564
N68	N	1.567080	0.630937	0.253436
C69	C	1.122726	0.066566	0.296581
C70	C	1.622726	0.566566	0.796581
C71	C	1.122732	0.066566	0.396238
C72	C	1.622732	0.566566	0.896238
C73	C	1.067049	0.130921	0.446066
C74	C	1.567049	0.630921	0.946066
C75	C	1.011350	0.195274	0.396232
C76	C	1.511350	0.695274	0.896232
C77	C	1.011340	0.195269	0.296576
C78	C	1.511340	0.695269	0.796576
C79	C	1.011376	0.195281	0.603946
C80	C	1.511376	0.695281	1.103946
C81	C	1.011387	0.195287	0.703609
C82	C	1.511387	0.695287	1.203609
C83	C	1.122768	0.066577	0.703608
C84	C	1.622768	0.566577	1.203608
C85	C	1.122758	0.066573	0.603953
C86	C	1.622758	0.566573	1.103953
C87	C	1.067060	0.130927	0.554125
C88	C	1.567060	0.630927	1.054125
H89	H	0.789070	0.292167	0.000054
H90	H	1.289070	0.792167	0.500054
C91	C	0.513135	0.311339	0.000081
C92	C	1.013135	0.811339	0.500081
H93	H	0.469679	0.361943	0.000089
H94	H	0.969679	0.861943	0.500089
H95	H	0.549431	0.315661	-0.055130
H96	H	1.049431	0.815661	0.444870
H97	H	0.549430	0.315649	0.055297
H98	H	1.049430	0.815649	0.555297
H99	H	1.168080	0.014166	0.436808
H100	H	1.668080	0.514166	0.936808
C101	C	1.196923	-0.355644	0.000114
C102	C	1.696923	0.144356	0.500114
H103	H	1.240781	-0.405854	0.000111
H104	H	1.740781	0.094146	0.500111
H105	H	1.203931	-0.317534	0.055328
H106	H	1.703931	0.182466	0.555328
H107	H	1.203952	-0.317514	-0.055099
H108	H	1.703952	0.182486	0.444901
C109	C	1.184007	-0.004217	0.549143
C110	C	1.684007	0.495783	1.049143
H111	H	1.217173	-0.042550	0.593090
H112	H	1.717173	0.457450	1.093090
H113	H	1.223956	0.029948	0.510253
H114	H	1.723956	0.529948	1.010253
H115	H	1.148668	-0.043738	0.510282
H116	H	1.648668	0.456262	1.010282
H117	H	0.619551	0.288775	0.000074
H118	H	1.119551	0.788775	0.500074
C119	C	1.183976	-0.004227	0.241778
C120	C	1.683976	0.495773	0.741778
H121	H	1.217139	-0.042557	0.285731
H122	H	1.717139	0.457443	0.785731
H123	H	1.223929	0.029934	0.202889
H124	H	1.723929	0.529934	0.702889
H125	H	1.148640	-0.043750	0.202917
H126	H	1.648640	0.456250	0.702917
C127	C	0.950082	0.266055	0.241761
C128	C	1.450082	0.766055	0.741761
H129	H	0.958044	0.256829	0.175273
H130	H	1.458044	0.756829	0.675273
H131	H	0.964839	0.329342	0.258078
H132	H	1.464839	0.829342	0.758078
H133	H	0.889559	0.255647	0.258104
H134	H	1.389559	0.755647	0.758104
H135	H	0.961562	-0.371545	0.000079
H136	H	1.461562	0.128455	0.500079
H137	H	1.168119	0.014178	0.744184
H138	H	1.668119	0.514178	1.244184
C139	C	0.950076	0.266015	0.758418
C140	C	1.450076	0.766015	1.258418
H141	H	0.916877	0.304316	0.714471
H142	H	1.416877	0.804316	1.214471
H143	H	0.985351	0.305561	0.797312
H144	H	1.485351	0.805561	1.297312
H145	H	0.910145	0.231780	0.797275
H146	H	1.410145	0.731780	1.297275
C147	C	0.950114	0.266074	0.549137
C148	C	1.450114	0.766074	1.049137
H149	H	0.916960	0.304410	0.593084
H150	H	1.416960	0.804410	1.093084
H151	H	0.910153	0.231911	0.510269
H152	H	1.410153	0.731911	1.010269
H153	H	0.985446	0.305592	0.510253
H154	H	1.485446	0.805592	1.010253
H155	H	0.966007	0.247670	0.436807
H156	H	1.466007	0.747670	0.936807
H157	H	0.331329	0.283015	0.000099
H158	H	0.831329	0.783015	0.500099
H159	H	0.514561	-0.026919	0.000117
H160	H	1.014561	0.473081	0.500117
C161	C	0.332756	-0.055238	0.000135
C162	C	0.832756	0.444762	0.500135
H163	H	0.376212	-0.105841	0.000150
H164	H	0.876212	0.394159	0.500150
H165	H	0.296458	-0.059557	-0.055072
H166	H	0.796458	0.440443	0.444928
H167	H	0.296461	-0.059549	0.055355
H168	H	0.796461	0.440451	0.555355
H169	H	0.633242	-0.024537	0.000121
H170	H	1.133242	0.475463	0.500121
H171	H	0.802776	-0.021152	0.000093
H172	H	1.302776	0.478848	0.500093
