data_functionalizedCrystal
_audit_creation_method	'MofGen! by Chris Wilmer'
_symmetry_space_group_name_H-M	'P1'
_symmetry_Int_Tables_number	1
_symmetry_cell_setting	triclinic
loop_
_symmetry_equiv_pos_as_xyz
  x,y,z
_cell_length_a	11.169417
_cell_length_b	12.645330
_cell_length_c	11.169409
_cell_angle_alpha	89.967722
_cell_angle_beta	89.980176
_cell_angle_gamma	90.018570
loop_
_atom_site_label
_atom_site_type_symbol
_atom_site_fract_x
_atom_site_fract_y
_atom_site_fract_z
Zn1	Zn	1.834901	-0.421929	-0.678543
Zn2	Zn	1.834765	-0.599240	-0.477860
Zn3	Zn	1.634187	-0.421993	-0.477878
Zn4	Zn	1.634169	-0.599153	-0.678505
O5	O	1.734505	-0.510579	-0.578197
O6	O	2.002833	-0.445458	-0.651931
O7	O	1.808108	-0.575791	-0.309913
O8	O	1.660877	-0.273637	-0.504519
O9	O	2.002732	-0.575728	-0.504490
O10	O	1.808341	-0.273590	-0.651948
O11	O	1.660745	-0.445569	-0.309925
O12	O	1.466235	-0.445485	-0.504483
O13	O	1.660846	-0.575581	-0.846460
O14	O	1.466221	-0.575644	-0.651883
O15	O	1.808323	-0.445375	-0.846488
O16	O	1.808090	-0.747575	-0.504453
O17	O	1.660713	-0.747512	-0.651866
C18	C	1.422681	-0.510563	-0.578181
C19	C	1.289281	-0.510581	-0.578203
C20	C	1.734418	-0.786008	-0.578180
C21	C	1.734490	-0.903838	-0.578213
C22	C	1.642158	-1.071407	-0.671236
C23	C	1.641685	-0.948847	-0.670937
C24	C	1.700247	-0.948447	-0.451730
C25	C	1.699683	-1.071046	-0.452295
C26	C	1.861631	-1.070922	-0.610646
C27	C	1.860852	-0.948315	-0.613412
C28	C	2.047548	-0.510596	-0.578213
C29	C	2.180948	-0.510603	-0.578220
C30	C	1.734597	-0.510461	-0.891239
C31	C	1.734637	-0.510411	-1.024639
C32	C	1.734626	-0.234073	-0.578240
C33	C	1.734677	-0.116243	-0.578258
C34	C	1.734483	-0.510619	-0.266372
C35	C	1.734676	-0.510371	-0.132972
H36	H	1.663386	-1.100807	-0.765330
H37	H	1.608410	-0.917841	-0.423796
H38	H	1.933414	-0.917671	-0.550623
H39	H	1.548628	-1.102311	-0.650053
H40	H	1.892868	-1.101755	-0.701309
H41	H	1.886676	-0.919154	-0.706497
O42	O	1.943728	-1.105651	-0.529797
C43	C	1.886791	-1.170546	-0.444310
H44	H	1.800750	-1.204070	-0.483951
H45	H	1.864564	-1.121802	-0.361402
C46	C	2.076526	-1.220819	-0.360690
C47	C	1.970854	-1.262001	-0.409381
H48	H	2.128380	-1.277230	-0.339138
H49	H	2.114886	-1.177095	-0.418281
H50	H	2.057987	-1.180199	-0.291605
H51	H	1.989392	-1.302608	-0.478472
H52	H	1.932498	-1.305734	-0.351800
O53	O	1.529325	-0.914095	-0.645472
C54	C	1.448982	-0.951661	-0.733016
H55	H	1.487884	-1.025255	-0.777249
H56	H	1.434212	-0.887841	-0.803611
C57	C	1.280843	-0.889105	-0.619203
C58	C	1.328618	-0.979499	-0.673524
H59	H	1.206594	-0.906272	-0.582509
H60	H	1.334970	-0.863792	-0.560225
H61	H	1.268544	-0.835930	-0.678042
H62	H	1.340929	-1.032667	-0.614683
H63	H	1.274489	-1.004822	-0.732491
H64	H	1.764146	-1.100710	-0.380657
O65	O	1.588970	-1.105413	-0.419740
C66	C	1.539574	-1.166513	-0.513021
H67	H	1.614694	-1.199107	-0.571426
H68	H	1.477976	-1.114956	-0.569726
C69	C	1.375090	-1.218841	-0.387690
C70	C	1.467354	-1.258881	-0.459418
H71	H	1.330536	-1.275815	-0.354627
H72	H	1.408365	-1.177674	-0.324846
H73	H	1.323771	-1.175876	-0.434955
H74	H	1.518680	-1.301833	-0.412149
H75	H	1.434086	-1.300057	-0.522253
H76	H	1.765497	-0.919296	-0.380561
H77	H	1.663110	-0.918682	-0.764723
