data_functionalizedCrystal
_audit_creation_method	'MofGen! by Chris Wilmer'
_symmetry_space_group_name_H-M	'P1'
_symmetry_Int_Tables_number	1
_symmetry_cell_setting	triclinic
loop_
_symmetry_equiv_pos_as_xyz
  x,y,z
_cell_length_a	14.519731
_cell_length_b	13.596369
_cell_length_c	10.654536
_cell_angle_alpha	89.988927
_cell_angle_beta	95.914583
_cell_angle_gamma	90.006024
loop_
_atom_site_label
_atom_site_type_symbol
_atom_site_fract_x
_atom_site_fract_y
_atom_site_fract_z
O1	O	1.224709	0.081818	-0.164743
O2	O	0.956335	0.081822	-0.184102
O3	O	1.096696	0.081787	0.008376
O4	O	1.084348	0.081853	-0.357221
O5	O	1.096678	-0.081796	0.008366
O6	O	0.956317	-0.081761	-0.184112
O7	O	1.224692	-0.081765	-0.164754
Zn8	Zn	1.090502	-0.107735	-0.174435
Zn9	Zn	1.090525	0.107792	-0.174421
O10	O	1.084331	-0.081730	-0.357232
C11	C	0.921962	0.000031	-0.183200
C12	C	0.819568	0.000031	-0.180482
N13	N	1.090493	-0.254827	-0.174443
C14	C	0.736412	0.000034	-0.178273
C15	C	0.632089	0.000034	-0.175513
C16	C	0.548939	0.000034	-0.173323
C17	C	0.444609	0.000035	-0.170564
C18	C	1.090498	-0.343825	-0.174446
C19	C	1.090507	-0.455476	-0.174438
C20	C	1.090518	-0.544467	-0.174423
C21	C	1.090529	-0.656125	-0.174416
C22	C	1.259064	0.000028	-0.165655
C23	C	1.361459	0.000035	-0.168373
C24	C	1.095782	-0.000011	0.055161
C25	C	1.093074	-0.000031	0.194579
N26	N	1.090541	0.254884	-0.174402
C27	C	1.260911	-0.000048	0.224146
C28	C	1.343553	-0.000069	0.304426
C29	C	1.341003	-0.000085	0.435420
C30	C	1.255801	-0.000078	0.486135
C31	C	1.173158	-0.000058	0.405855
C32	C	1.175718	-0.000044	0.274860
C33	C	1.005323	-0.000033	0.376288
C34	C	1.007872	-0.000023	0.245294
C35	C	0.920121	-0.000026	0.427003
C36	C	0.837477	-0.000012	0.346722
C37	C	0.840031	0.000003	0.215721
C38	C	0.925229	-0.000003	0.165013
C39	C	1.085248	0.000033	0.595985
C40	C	1.087965	-0.000054	0.456569
H41	H	1.262996	-0.000048	0.117485
H42	H	0.772733	0.000024	0.150362
H43	H	0.918050	-0.000033	0.533666
H44	H	0.768112	0.000000	0.388026
C45	C	1.437271	-0.000080	0.248636
C46	C	1.462087	-0.085019	0.162651
C47	C	1.555804	-0.085027	0.106864
C48	C	1.624705	-0.000096	0.137063
C49	C	1.599890	0.084850	0.223053
C50	C	1.506173	0.084858	0.278839
H51	H	1.411082	-0.147896	0.140292
H52	H	1.574174	-0.147910	0.043209
H53	H	1.694080	-0.000102	0.095766
H54	H	1.650896	0.147727	0.245411
H55	H	1.487804	0.147741	0.342494
H56	H	0.927317	0.000004	0.058353
H57	H	1.253731	-0.000080	0.592799
H58	H	1.408297	-0.000095	0.500786
