data_functionalizedCrystal
_audit_creation_method	'MofGen! by Chris Wilmer'
_symmetry_space_group_name_H-M	'P1'
_symmetry_Int_Tables_number	1
_symmetry_cell_setting	triclinic
loop_
_symmetry_equiv_pos_as_xyz
  x,y,z
_cell_length_a	14.519731
_cell_length_b	13.596369
_cell_length_c	11.026607
_cell_angle_alpha	89.997861
_cell_angle_beta	96.137435
_cell_angle_gamma	90.006024
loop_
_atom_site_label
_atom_site_type_symbol
_atom_site_fract_x
_atom_site_fract_y
_atom_site_fract_z
O1	O	1.250096	0.081791	0.159249
O2	O	1.583429	0.415124	0.492583
O3	O	1.916763	0.748457	0.825916
O4	O	0.984705	0.081792	0.177962
O5	O	1.318038	0.415125	0.511296
O6	O	1.651371	0.748459	0.844629
O7	O	1.095405	0.081788	-0.008097
O8	O	1.428738	0.415121	0.325236
O9	O	1.762072	0.748455	0.658570
O10	O	1.139396	0.081795	0.345309
O11	O	1.472729	0.415128	0.678642
O12	O	1.806062	0.748462	1.011976
O13	O	1.095389	-0.081795	-0.008087
O14	O	1.428723	0.251538	0.325247
O15	O	1.762056	0.584872	0.658580
O16	O	0.984689	-0.081791	0.177973
O17	O	1.318022	0.251542	0.511306
O18	O	1.651356	0.584876	0.844639
O19	O	1.250080	-0.081792	0.159260
O20	O	1.583414	0.251541	0.492593
O21	O	1.916747	0.584875	0.825926
Zn22	Zn	1.117382	-0.107764	0.168618
Zn23	Zn	1.450715	0.225569	0.501951
Zn24	Zn	1.784049	0.558903	0.835284
Zn25	Zn	1.117403	0.107764	0.168604
Zn26	Zn	1.450736	0.441097	0.501938
Zn27	Zn	1.784070	0.774430	0.835271
O28	O	1.139380	-0.081788	0.345319
O29	O	1.472713	0.251545	0.678653
O30	O	1.806047	0.584879	1.011986
C31	C	0.950193	0.000001	0.177091
C32	C	1.283526	0.333334	0.510424
C33	C	1.616860	0.666667	0.843757
C34	C	0.847380	0.000001	0.174463
C35	C	1.180713	0.333334	0.507797
C36	C	1.514047	0.666668	0.841130
C37	C	0.763884	0.000005	0.172328
C38	C	1.097217	0.333338	0.505662
C39	C	1.430551	0.666672	0.838995
C40	C	0.659136	0.000005	0.169661
C41	C	0.992469	0.333339	0.502994
C42	C	1.325802	0.666672	0.836327
C43	C	0.575648	0.000005	0.167543
C44	C	0.908981	0.333339	0.500877
C45	C	1.242315	0.666672	0.834210
C46	C	0.470893	0.000007	0.164876
C47	C	0.804226	0.333341	0.498209
C48	C	1.137560	0.666674	0.831543
N49	N	1.117375	-0.254856	0.168626
N50	N	1.450708	0.078478	0.501960
N51	N	1.784041	0.411811	0.835293
C52	C	1.117380	-0.343854	0.168629
C53	C	1.450713	-0.010520	0.501962
C54	C	1.784046	0.322813	0.835296
C55	C	1.117387	-0.455505	0.168621
C56	C	1.450721	-0.122172	0.501954
C57	C	1.784054	0.211162	0.835287
C58	C	1.117397	-0.544495	0.168607
C59	C	1.450730	-0.211162	0.501940
C60	C	1.784064	0.122171	0.835274
C61	C	1.117406	-0.656154	0.168600
C62	C	1.450740	-0.322821	0.501933
C63	C	1.784073	0.010513	0.835266
C64	C	1.284592	0.000001	0.160131
C65	C	1.617925	0.333335	0.493465
C66	C	1.951259	0.666668	0.826798
C67	C	1.387405	0.000007	0.162759
C68	C	1.720738	0.333341	0.496092
C69	C	2.054072	0.666674	0.829425
C70	C	1.087282	-0.000002	-0.053321
C71	C	1.420615	0.333331	0.280012
C72	C	1.753948	0.666664	0.613345
C73	C	1.063089	0.000001	-0.188090
C74	C	1.396422	0.333335	0.145243
C75	C	1.729756	0.666668	0.478576
N76	N	1.117416	0.254856	0.168586
N77	N	1.450749	0.588189	0.501919
N78	N	1.784083	0.921522	0.835253
C79	C	1.129889	0.000002	-0.261744
C80	C	1.463222	0.333336	0.071589
C81	C	1.796556	0.666669	0.404922
C82	C	1.104886	0.000006	-0.401035
C83	C	1.438220	0.333339	-0.067702
C84	C	1.771553	0.666673	0.265631
C85	C	1.147503	0.000004	0.390543
C86	C	1.480837	0.333338	0.723877
C87	C	1.814170	0.666671	1.057210
C88	C	1.171696	0.000007	0.525312
C89	C	1.505029	0.333341	0.858646
C90	C	1.838363	0.666674	1.191979
H91	H	1.205589	-0.000004	-0.221681
H92	H	1.538922	0.333329	0.111652
H93	H	1.872255	0.666663	0.444986
H94	H	0.987389	0.000008	-0.228154
H95	H	1.320722	0.333341	0.105180
H96	H	1.654056	0.666675	0.438513
C97	C	1.002612	0.000005	-0.455147
C98	C	1.335945	0.333339	-0.121814
C99	C	1.669278	0.666672	0.211520
N100	N	0.925580	0.000002	-0.495906
N101	N	1.258913	0.333335	-0.162573
N102	N	1.592246	0.666668	0.170761
C103	C	1.273971	0.000006	-0.420579
C104	C	1.607305	0.333339	-0.087246
C105	C	1.940638	0.666672	0.246088
N106	N	1.351004	0.000003	-0.379823
N107	N	1.684337	0.333336	-0.046490
N108	N	2.017671	0.666669	0.286844
