data_functionalizedCrystal
_audit_creation_method	'MofGen! by Chris Wilmer'
_symmetry_space_group_name_H-M	'P1'
_symmetry_Int_Tables_number	1
_symmetry_cell_setting	triclinic
loop_
_symmetry_equiv_pos_as_xyz
  x,y,z
_cell_length_a	16.176319
_cell_length_b	19.288864
_cell_length_c	19.288865
_cell_angle_alpha	83.136245
_cell_angle_beta	90.012037
_cell_angle_gamma	90.021265
loop_
_atom_site_label
_atom_site_type_symbol
_atom_site_fract_x
_atom_site_fract_y
_atom_site_fract_z
O1	O	-0.069021	-0.921351	-0.086649
O2	O	-0.068966	-0.719090	-0.098338
O3	O	-0.068979	-0.826065	0.008637
O4	O	-0.069008	-0.814376	-0.193624
O5	O	0.068515	-0.826050	0.008643
O6	O	0.068527	-0.719076	-0.098331
O7	O	0.068472	-0.921336	-0.086643
Cu8	Cu	0.081054	-0.820205	-0.092486
Cu9	Cu	-0.081548	-0.820222	-0.092494
O10	O	0.068485	-0.814362	-0.193617
C11	C	-0.000212	-0.693207	-0.097959
C12	C	-0.000190	-0.616103	-0.096830
N13	N	0.195419	-0.820198	-0.092480
N14	N	-0.195913	-0.820235	-0.092495
C15	C	0.238678	-0.867580	-0.045131
C16	C	0.325225	-0.867584	-0.045130
C17	C	0.368512	-0.820207	-0.092483
C18	C	0.325247	-0.772820	-0.139834
C19	C	0.238702	-0.772814	-0.139831
C20	C	0.674276	-0.772844	-0.139847
C21	C	0.760827	-0.772855	-0.139848
C22	C	0.760799	-0.867614	-0.045147
C23	C	0.674253	-0.867607	-0.045143
C24	C	0.630996	-0.820218	-0.092492
C25	C	0.537152	-0.820214	-0.092491
C26	C	0.462354	-0.820214	-0.092487
C27	C	-0.000229	-0.825682	0.034516
C28	C	-0.000222	-0.824553	0.111620
C29	C	-0.000284	-0.947220	-0.087022
C30	C	-0.000311	-1.024324	-0.088151
C31	C	-0.000212	-0.571407	-0.159598
C32	C	-0.000221	-0.498960	-0.158537
C33	C	-0.000225	-0.471212	-0.094705
C34	C	-0.000198	-0.515918	-0.031929
C35	C	-0.000181	-0.588364	-0.032991
C36	C	-0.048415	-0.362955	-0.044528
C37	C	-0.048437	-0.290511	-0.043468
C38	C	-0.000274	-0.247767	-0.091425
C39	C	0.047901	-0.277474	-0.140454
C40	C	0.047918	-0.349920	-0.141516
C41	C	-0.000243	-0.392658	-0.093546
C42	C	-0.000305	-0.124514	-0.153047
C43	C	-0.000309	-0.052066	-0.151984
C44	C	-0.000294	-0.069026	-0.025374
C45	C	-0.000281	-0.141473	-0.026439
C46	C	-0.000291	-0.169212	-0.090278
C47	C	-0.000266	-0.814745	-0.219497
C48	C	-0.000279	-0.815874	-0.296601
C49	C	-0.000235	-0.887321	0.156316
C50	C	-0.000248	-0.886260	0.228763
C51	C	-0.000231	-0.822428	0.256511
C52	C	-0.000222	-0.759652	0.211805
C53	C	-0.000218	-0.760714	0.139359
C54	C	0.047944	-0.772243	0.364801
C55	C	0.047944	-0.771183	0.437245
C56	C	-0.000248	-0.819148	0.479956
C57	C	-0.048431	-0.868185	0.450216
C58	C	-0.048427	-0.869247	0.377770
C59	C	-0.000236	-0.821269	0.335065
C60	C	-0.000277	-0.880770	0.603209
C61	C	-0.000295	-0.879707	0.675657
C62	C	-0.000261	-0.753097	0.658697
C63	C	-0.000251	-0.754162	0.586250
C64	C	-0.000255	-0.818001	0.558511
H65	H	0.360445	-0.906166	-0.006575
C66	C	0.647794	-0.908702	0.075229
C67	C	0.626753	-0.919681	0.006970
H68	H	0.618490	-0.940847	0.107420
H69	H	0.705537	-0.915447	0.081937
H70	H	0.633611	-0.862368	0.082625
H71	H	0.640942	-0.966014	-0.000429
H72	H	0.568998	-0.912942	0.000259
C73	C	-0.070939	-0.993864	0.265519
C74	C	-0.000257	-0.955259	0.277905
H75	H	-0.070940	-1.036462	0.295854
H76	H	-0.118874	-0.967690	0.273902
H77	H	-0.070930	-1.003631	0.218402
H78	H	-0.000269	-0.945488	0.325021
H79	H	0.047691	-0.981438	0.269528
H80	H	0.087193	-0.733182	0.330030
H81	H	-0.000163	-0.624756	0.018124
C82	C	0.075935	-0.649811	0.443343
C83	C	0.100904	-0.717282	0.469930
H84	H	0.108628	-0.616534	0.463524
H85	H	0.082833	-0.643584	0.394092
H86	H	0.019409	-0.643554	0.454395
H87	H	0.157428	-0.723541	0.458874
H88	H	0.094013	-0.723511	0.519193
H89	H	0.796028	-0.906199	-0.006590
H90	H	-0.087668	-0.266328	-0.003549
C91	C	0.683009	-0.679183	-0.233462
C92	C	0.626735	-0.720759	-0.191898
H93	H	0.653655	-0.647031	-0.265600
H94	H	0.716786	-0.654297	-0.204613
H95	H	0.716742	-0.708028	-0.258372
H96	H	0.593006	-0.691915	-0.166984
H97	H	0.592943	-0.745647	-0.220750
H98	H	0.203481	-0.734229	-0.178387
H99	H	0.796070	-0.734273	-0.178409
C100	C	-0.070944	-0.462225	-0.266115
C101	C	-0.000256	-0.449815	-0.227534
H102	H	-0.070968	-0.431882	-0.308708
H103	H	-0.070925	-0.509333	-0.275887
H104	H	-0.118880	-0.453862	-0.239918
H105	H	0.047681	-0.458182	-0.253730
H106	H	-0.000267	-0.402695	-0.217764
H107	H	0.360497	-0.734242	-0.178387
C108	C	-0.070912	-0.643048	-0.234248
C109	C	-0.000233	-0.601887	-0.229773
H110	H	-0.070930	-0.661860	-0.277576
H111	H	-0.070886	-0.680043	-0.197029
H112	H	-0.118855	-0.615153	-0.231187
H113	H	0.047710	-0.629784	-0.232830
H114	H	-0.000252	-0.564888	-0.267003
H115	H	-0.000236	-0.703049	0.549857
H116	H	-0.087675	-0.907242	0.484990
H117	H	0.087146	-0.374105	-0.181435
H118	H	0.087121	-0.242673	-0.179505
H119	H	-0.000301	-0.147101	-0.205028
C120	C	-0.000343	-0.042583	-0.277237
C121	C	-0.000334	-0.002932	-0.220984
H122	H	-0.000363	-0.012248	-0.319835
H123	H	0.047607	-0.071169	-0.275021
H124	H	-0.048287	-0.071216	-0.275011
H125	H	0.047614	0.025697	-0.223207
H126	H	-0.048288	0.025666	-0.223202
C127	C	-0.000323	0.034492	0.032472
C128	C	-0.000302	-0.038535	0.044793
H129	H	-0.000332	0.053317	0.075792
H130	H	0.047617	0.049867	0.006646
H131	H	-0.048277	0.049819	0.006631
H132	H	0.047656	-0.053862	0.070630
H133	H	-0.048246	-0.053916	0.070630
H134	H	-0.000268	-0.177866	0.024674
C135	C	-0.143669	-0.368563	0.051432
C136	C	-0.101371	-0.409935	0.008185
H137	H	-0.176365	-0.397567	0.083969
H138	H	-0.104944	-0.343511	0.075867
H139	H	-0.178396	-0.336560	0.023789
H140	H	-0.066639	-0.441935	0.035828
H141	H	-0.140100	-0.434999	-0.016252
H142	H	-0.000284	-0.932751	0.580622
C143	C	-0.070872	-0.508106	0.076309
C144	C	-0.000204	-0.485423	0.038238
H145	H	-0.070869	-0.489283	0.119630
H146	H	-0.118817	-0.492770	0.050472
H147	H	-0.070847	-0.557650	0.084654
H148	H	-0.000232	-0.435879	0.029889
H149	H	0.047753	-0.500755	0.064081
H150	H	-0.000310	-0.930822	0.712049
C151	C	-0.143702	-0.965016	0.397859
C152	C	-0.101396	-0.923138	0.345078
H153	H	-0.176408	-0.998281	0.377673
H154	H	-0.104981	-0.988614	0.429336
H155	H	-0.178419	-0.936553	0.422354
H156	H	-0.066674	-0.951600	0.320586
H157	H	-0.140121	-0.899538	0.313588
C158	C	-0.070916	-0.644867	0.666527
C159	C	-0.000246	-0.682930	0.689188
H160	H	-0.070911	-0.601550	0.685357
H161	H	-0.070902	-0.636519	0.616990
H162	H	-0.118865	-0.670716	0.681877
H163	H	0.047703	-0.657082	0.673833
H164	H	-0.000252	-0.691276	0.738735
C165	C	-0.070881	-0.685022	0.283430
C166	C	-0.000203	-0.689487	0.242304
H167	H	-0.070867	-0.641705	0.302261
H168	H	-0.118818	-0.688070	0.255511
H169	H	-0.070881	-0.722258	0.320418
H170	H	-0.000206	-0.652253	0.205313
H171	H	0.047748	-0.686432	0.270224
C172	C	-0.000185	-0.635460	0.129873
C173	C	-0.000195	-0.691714	0.090224
H174	H	-0.000164	-0.592863	0.099537
H175	H	-0.048134	-0.637683	0.158468
H176	H	0.047761	-0.637678	0.158498
H177	H	-0.048144	-0.689499	0.061603
H178	H	0.047758	-0.689491	0.061618
H179	H	0.203439	-0.906162	-0.006574
H180	H	-0.000241	-0.939303	0.133736
