data_functionalizedCrystal
_audit_creation_method	'MofGen! by Chris Wilmer'
_symmetry_space_group_name_H-M	'P1'
_symmetry_Int_Tables_number	1
_symmetry_cell_setting	triclinic
loop_
_symmetry_equiv_pos_as_xyz
  x,y,z
_cell_length_a	27.732064
_cell_length_b	16.109301
_cell_length_c	15.186229
_cell_angle_alpha	90.005167
_cell_angle_beta	90.004285
_cell_angle_gamma	96.944547
loop_
_atom_site_label
_atom_site_type_symbol
_atom_site_fract_x
_atom_site_fract_y
_atom_site_fract_z
O1	O	0.641335	-0.098991	-0.073074
O2	O	0.500606	-0.114018	-0.073111
O3	O	0.574837	0.014574	-0.073083
O4	O	0.567105	-0.227583	-0.073103
O5	O	0.574832	0.014576	0.073375
O6	O	0.500601	-0.114017	0.073346
O7	O	0.641330	-0.098989	0.073383
Zn8	Zn	0.570965	-0.106503	0.096618
Zn9	Zn	0.570972	-0.106505	-0.096346
O10	O	0.567100	-0.227581	0.073355
C11	C	0.482595	-0.113700	0.000113
C12	C	0.428937	-0.112744	0.000099
C13	C	0.051519	-0.030242	0.000156
C14	C	0.253194	-0.033762	0.000133
O15	O	0.284179	0.030256	0.000171
N16	N	0.272641	-0.110015	0.000123
C17	C	0.241665	-0.185393	0.000124
O18	O	0.262833	-0.250331	0.000124
C19	C	0.039991	-0.181873	0.000154
C20	C	0.020547	-0.105615	0.000155
C21	C	0.032075	0.046009	0.000159
C22	C	-0.018341	0.046888	0.000160
C23	C	-0.049313	-0.028484	0.000158
C24	C	-0.029868	-0.104736	0.000156
C25	C	0.009016	-0.257250	0.000162
C26	C	-0.041405	-0.256363	0.000171
C27	C	-0.060849	-0.180106	0.000172
C28	C	-0.111256	-0.179229	0.000156
N29	N	-0.130703	-0.102977	0.000166
C30	C	-0.099731	-0.027604	0.000167
C31	C	0.347547	-0.187236	0.000107
C32	C	0.397965	-0.188116	0.000098
C33	C	0.409491	-0.036485	0.000109
C34	C	0.359072	-0.035605	0.000111
C35	C	0.328101	-0.110983	0.000117
C36	C	-0.205608	-0.025764	0.000169
C37	C	-0.256029	-0.024891	0.000166
C38	C	-0.267550	-0.176522	0.000160
C39	C	-0.217134	-0.177395	0.000158
C40	C	-0.186163	-0.102009	0.000165
O41	O	-0.142269	-0.243213	0.000128
O42	O	-0.120908	0.037325	0.000187
C43	C	0.101935	-0.031122	0.000155
C44	C	0.121379	-0.107373	0.000153
C45	C	0.090407	-0.182746	0.000152
C46	C	0.171797	-0.108253	0.000144
C47	C	0.202769	-0.032881	0.000145
C48	C	0.183322	0.043372	0.000156
C49	C	0.132906	0.044251	0.000157
C50	C	0.109854	-0.258998	0.000142
C51	C	0.160270	-0.259871	0.000140
C52	C	0.191242	-0.184499	0.000141
C53	C	0.574521	0.045546	0.000146
C54	C	0.573582	0.137829	0.000147
C55	C	0.659341	-0.099308	0.000157
C56	C	0.712999	-0.100264	0.000165
C57	C	0.567415	-0.258553	0.000124
C58	C	0.568354	-0.350837	0.000117
N59	N	0.570964	-0.106500	0.228311
C60	C	0.615446	0.360616	0.000144
C61	C	0.614560	0.447325	0.000137
C62	C	0.526487	0.426370	0.000117
C63	C	0.527374	0.339662	0.000119
C64	C	0.571855	0.306788	0.000136
C65	C	0.570082	0.480205	0.000128
C66	C	0.569121	0.574219	0.000120
C67	C	0.572816	0.212767	0.000143
N68	N	0.570976	-0.106500	-0.228039
C69	C	0.603845	-0.049579	0.454046
C70	C	0.603846	-0.049577	0.546236
C71	C	0.538092	-0.163425	0.546220
C72	C	0.538089	-0.163422	0.454032
C73	C	0.570968	-0.106500	0.407947
C74	C	0.570973	-0.106501	0.592325
C75	C	0.570974	-0.106499	0.692281
C76	C	0.570966	-0.106501	0.307985
H77	H	0.084641	-0.320377	0.000142
H78	H	-0.066620	-0.317747	0.000180
H79	H	0.434717	0.024886	0.000106
H80	H	0.630616	-0.003228	0.416526
O81	O	0.506104	-0.218608	0.409205
C82	C	0.440112	-0.237080	0.305069
C83	C	0.476297	-0.174498	0.355797
H84	H	0.416010	-0.201442	0.261863
H85	H	0.416580	-0.277760	0.353799
H86	H	0.460984	-0.278378	0.261943
H87	H	0.455465	-0.133146	0.398925
H88	H	0.499828	-0.133876	0.307020
O89	O	0.635830	0.005747	0.590879
C90	C	0.701031	0.118700	0.581160
C91	C	0.664841	0.056074	0.530493
H92	H	0.724489	0.159417	0.532360
H93	H	0.725204	0.083132	0.624294
H94	H	0.680163	0.159953	0.624346
H95	H	0.685670	0.014805	0.487258
H96	H	0.640668	0.091694	0.487414
H97	H	0.491875	0.295832	0.000110
O98	O	0.658640	0.328642	0.000308
C99	C	0.710746	0.242879	0.076160
C100	C	0.661815	0.279045	0.076100
H101	H	0.713325	0.202758	0.137422
H102	H	0.741769	0.296218	0.076218
H103	H	0.713356	0.202838	0.014841
H104	H	0.659159	0.319075	0.137409
H105	H	0.630817	0.225667	0.075996
H106	H	0.650056	0.491150	0.000141
O107	O	-0.274938	0.049168	0.000013
C108	C	-0.325194	0.138144	-0.075830
C109	C	-0.303805	0.054255	-0.075778
H110	H	-0.348545	0.142277	-0.137091
H111	H	-0.294412	0.191894	-0.075883
H112	H	-0.348486	0.142341	-0.014510
H113	H	-0.280518	0.049977	-0.137088
H114	H	-0.334609	0.000545	-0.075679
O115	O	0.317444	-0.260440	0.000258
C116	C	0.253820	-0.347445	0.076095
C117	C	0.287889	-0.264520	0.076051
H118	H	0.229909	-0.350763	0.137357
H119	H	0.276359	-0.402122	0.076138
H120	H	0.229946	-0.350813	0.014776
H121	H	0.311770	-0.261070	0.137360
H122	H	0.265320	-0.209882	0.075962
H123	H	0.057288	0.107390	0.000163
O124	O	0.506205	-0.218689	0.591124
C125	C	0.477052	-0.269122	0.733137
C126	C	0.513197	-0.206499	0.682396
H127	H	0.482685	-0.259276	0.806939
H128	H	0.483339	-0.335657	0.715066
H129	H	0.438345	-0.258754	0.714962
H130	H	0.551918	-0.216791	0.700544
H131	H	0.506867	-0.139986	0.700471
O132	O	0.340266	0.038544	0.000157
C133	C	0.357033	0.188847	0.000107
C134	C	0.378391	0.104929	0.000074
H135	H	0.387846	0.242541	0.000022
H136	H	0.333742	0.193116	0.061419
H137	H	0.333694	0.193005	-0.061165
H138	H	0.401752	0.100715	0.061305
H139	H	0.401654	0.100696	-0.061278
O140	O	-0.175509	0.047443	0.000325
C141	C	-0.111876	0.134459	0.076161
C142	C	-0.145942	0.051532	0.076113
H143	H	-0.087956	0.137783	0.137419
H144	H	-0.134417	0.189134	0.076217
H145	H	-0.088011	0.137825	0.014838
H146	H	-0.169815	0.048083	0.137426
H147	H	-0.123372	-0.003104	0.076011
O148	O	0.027815	-0.331401	0.000206
C149	C	0.011041	-0.481703	0.000171
C150	C	-0.010312	-0.397781	0.000137
H151	H	-0.019775	-0.535393	0.000097
H152	H	0.034342	-0.485960	0.061478
H153	H	0.034369	-0.485881	-0.061106
H154	H	-0.033663	-0.393547	0.061373
H155	H	-0.033585	-0.393560	-0.061210
O156	O	0.113965	0.118275	0.000279
C157	C	0.063771	0.207311	0.076192
C158	C	0.085176	0.123436	0.076151
H159	H	0.040499	0.211518	0.137536
H160	H	0.040419	0.211530	0.014944
H161	H	0.094582	0.261009	0.076150
H162	H	0.054396	0.069690	0.076224
H163	H	0.108540	0.119290	0.137394
H164	H	-0.034167	0.108985	0.000164
O165	O	0.416791	-0.262247	-0.000033
C166	C	0.422365	-0.392100	-0.075945
C167	C	0.401009	-0.308182	-0.075902
H168	H	0.409622	-0.429255	-0.137288
H169	H	0.409597	-0.429366	-0.014696
H170	H	0.463720	-0.379777	-0.075909
H171	H	0.359653	-0.320429	-0.075969
H172	H	0.413815	-0.270942	-0.137146
O173	O	-0.198323	-0.251543	0.000187
C174	C	-0.215082	-0.401847	0.000124
C175	C	-0.236445	-0.317934	0.000102
H176	H	-0.245893	-0.455546	0.000037
H177	H	-0.191783	-0.406106	0.061434
H178	H	-0.191750	-0.406008	-0.061151
H179	H	-0.259799	-0.313716	0.061336
H180	H	-0.259716	-0.313711	-0.061247
O181	O	0.483270	0.458267	-0.000050
C182	C	0.407713	0.466843	-0.075914
C183	C	0.456645	0.430681	-0.075847
H184	H	0.386169	0.444540	-0.137180
H185	H	0.414538	0.538065	-0.075968
H186	H	0.386191	0.444648	-0.014598
H187	H	0.478192	0.452813	-0.137152
H188	H	0.449785	0.359463	-0.075747
H189	H	0.208548	0.104743	0.000152
O190	O	-0.297690	-0.249681	0.000045
C191	C	-0.361299	-0.336707	-0.075841
C192	C	-0.327199	-0.253817	-0.075819
H193	H	-0.385158	-0.340085	-0.137179
H194	H	-0.385219	-0.340080	-0.014586
H195	H	-0.338736	-0.391352	-0.075799
H196	H	-0.349724	-0.199125	-0.075892
H197	H	-0.303277	-0.250516	-0.137068
H198	H	0.176096	-0.321974	0.000132
