data_functionalizedCrystal
_audit_creation_method	'MofGen! by Chris Wilmer'
_symmetry_space_group_name_H-M	'P1'
_symmetry_Int_Tables_number	1
_symmetry_cell_setting	triclinic
loop_
_symmetry_equiv_pos_as_xyz
  x,y,z
_cell_length_a	19.121063
_cell_length_b	19.805407
_cell_length_c	19.805399
_cell_angle_alpha	89.980427
_cell_angle_beta	92.411105
_cell_angle_gamma	92.469032
loop_
_atom_site_label
_atom_site_type_symbol
_atom_site_fract_x
_atom_site_fract_y
_atom_site_fract_z
Zn1	Zn	-0.279631	1.023234	-0.394203
Zn2	Zn	0.220369	1.523234	0.105797
Zn3	Zn	-0.397083	1.018317	-0.285838
Zn4	Zn	0.102917	1.518317	0.214162
Zn5	Zn	-0.279650	0.910048	-0.281028
Zn6	Zn	0.220350	1.410048	0.218972
Zn7	Zn	-0.397046	0.905182	-0.398983
Zn8	Zn	0.102954	1.405182	0.101017
O9	O	-0.338352	0.964195	-0.340013
O10	O	0.161648	1.464195	0.159987
O11	O	-0.295218	1.117298	-0.379840
O12	O	0.204782	1.617298	0.120160
O13	O	-0.381529	1.003934	-0.190484
O14	O	0.118471	1.503934	0.309516
O15	O	-0.181363	0.929156	-0.292028
O16	O	0.318637	1.429156	0.207972
O17	O	-0.381510	1.113686	-0.300225
O18	O	0.118490	1.613686	0.199775
O19	O	-0.181348	1.012313	-0.375177
O20	O	0.318652	1.512313	0.124823
O21	O	-0.295251	0.924388	-0.186951
O22	O	0.204749	1.424388	0.313049
O23	O	-0.295215	0.814686	-0.296663
O24	O	0.204785	1.314686	0.203337
O25	O	-0.381447	0.920863	-0.493065
O26	O	0.118553	1.420863	0.006935
O27	O	-0.381465	0.811111	-0.383324
O28	O	0.118535	1.311111	0.116676
O29	O	-0.295182	1.007595	-0.489553
O30	O	0.204818	1.507595	0.010447
O31	O	-0.495363	0.999216	-0.304860
O32	O	0.004637	1.499216	0.195140
O33	O	-0.495335	0.916096	-0.387987
O34	O	0.004665	1.416096	0.112013
C35	C	-0.338339	0.788340	-0.339991
C36	C	0.161661	1.288340	0.160009
C37	C	-0.338350	0.713107	-0.339998
C38	C	0.161650	1.213107	0.160002
C39	C	-0.520833	0.956613	-0.347479
C40	C	-0.020833	1.456613	0.152521
C41	C	-0.598899	0.953431	-0.350696
C42	C	-0.098899	1.453431	0.149304
C43	C	-0.383328	0.675917	-0.385055
C44	C	0.116672	1.175917	0.114945
C45	C	-0.383329	0.605228	-0.385064
C46	C	0.116671	1.105228	0.114936
C47	C	-0.338356	0.571732	-0.340013
C48	C	0.161644	1.071732	0.159987
C49	C	-0.293373	0.608927	-0.294954
C50	C	0.206627	1.108927	0.205046
C51	C	-0.293368	0.679614	-0.294948
C52	C	0.206632	1.179614	0.205052
C53	C	-0.293388	0.323853	-0.294977
C54	C	0.206612	0.823853	0.205023
C55	C	-0.293397	0.253161	-0.294985
C56	C	0.206603	0.753161	0.205015
C57	C	-0.383349	0.249467	-0.385093
C58	C	0.116651	0.749467	0.114907
C59	C	-0.383345	0.320154	-0.385087
C60	C	0.116655	0.820154	0.114913
C61	C	-0.338360	0.357344	-0.340031
C62	C	0.161640	0.857344	0.159969
C63	C	-0.338358	0.433992	-0.340022
C64	C	0.161642	0.933992	0.159978
C65	C	-0.338360	0.495084	-0.340018
C66	C	0.161640	0.995084	0.159982
C67	C	-0.635566	0.995246	-0.308963
C68	C	-0.135566	1.495246	0.191037
C69	C	-0.708917	0.992258	-0.311992
C70	C	-0.208917	1.492258	0.188008
C71	C	-0.745601	0.947451	-0.356752
C72	C	-0.245601	1.447451	0.143248
C73	C	-0.708929	0.905634	-0.398489
C74	C	-0.208929	1.405634	0.101511
C75	C	-0.635579	0.908626	-0.395463
C76	C	-0.135579	1.408626	0.104537
C77	C	-0.967071	0.936252	-0.368056
C78	C	-0.467071	1.436252	0.131944
C79	C	-1.040426	0.933262	-0.371078
C80	C	-0.540426	1.433262	0.128922
C81	C	-1.040409	1.019887	-0.284581
C82	C	-0.540409	1.519887	0.215419
C83	C	-0.967058	1.022872	-0.281556
C84	C	-0.467058	1.522872	0.218444
C85	C	-0.930393	0.981058	-0.323296
C86	C	-0.430393	1.481058	0.176704
C87	C	-0.820578	0.944394	-0.359848
C88	C	-0.320578	1.444394	0.140152
C89	C	-0.855417	0.984119	-0.320203
C90	C	-0.355417	1.484119	0.179797
C91	C	-0.155159	0.971825	-0.332532
C92	C	0.344841	1.471825	0.167468
C93	C	-0.077093	0.975077	-0.329345
C94	C	0.422907	1.475077	0.170655
C95	C	-0.338308	0.964235	-0.516554
C96	C	0.161692	1.464235	-0.016554
C97	C	-0.338289	0.964252	-0.591785
C98	C	0.161711	1.464252	-0.091785
C99	C	-0.338366	1.140737	-0.340036
C100	C	0.161634	1.640737	0.159964
C101	C	-0.338372	1.215969	-0.340046
C102	C	0.161628	1.715969	0.159954
C103	C	-0.293369	1.009414	-0.625302
C104	C	0.206631	1.509414	-0.125302
C105	C	-0.293349	1.009422	-0.695989
C106	C	0.206651	1.509422	-0.195989
C107	C	-0.338253	0.964270	-0.733159
C108	C	0.161747	1.464270	-0.233159
C109	C	-0.383175	0.919103	-0.699638
C110	C	0.116825	1.419103	-0.199638
C111	C	-0.383191	0.919093	-0.628952
C112	C	0.116809	1.419093	-0.128952
C113	C	-0.383109	0.919144	-0.984709
C114	C	0.116891	1.419144	-0.484709
C115	C	-0.383091	0.919159	-1.055400
C116	C	0.116909	1.419159	-0.555400
C117	C	-0.293267	1.009474	-1.051747
C118	C	0.206733	1.509474	-0.551747
C119	C	-0.293283	1.009463	-0.981060
C120	C	0.206717	1.509463	-0.481060
C121	C	-0.338202	0.964294	-0.947545
C122	C	0.161798	1.464294	-0.447545
C123	C	-0.338223	0.964285	-0.870897
C124	C	0.161777	1.464285	-0.370897
C125	C	-0.338236	0.964282	-0.809806
C126	C	0.161764	1.464282	-0.309806
C127	C	-0.338346	0.964197	-0.164157
C128	C	0.161654	1.464197	0.335843
C129	C	-0.338167	0.964319	-0.088918
C130	C	0.161833	1.464319	0.411082
H131	H	-0.419953	0.703185	-0.421739
H132	H	0.080047	1.203185	0.078261
H133	H	-1.070292	0.896783	-0.407538
H134	H	-0.570292	1.396783	0.092462
H135	H	-0.419970	0.347424	-0.421771
H136	H	0.080030	0.847424	0.078229
H137	H	-0.256805	1.046184	-0.595043
H138	H	0.243195	1.546184	-0.095043
H139	H	-0.419976	0.219179	-0.421783
H140	H	0.080024	0.719179	0.078217
H141	H	-0.605703	1.031730	-0.272512
H142	H	-0.105703	1.531730	0.227488
H143	H	-0.605726	0.874577	-0.429447
H144	H	-0.105726	1.374577	0.070553
H145	H	-0.256772	1.046199	-0.723275
H146	H	0.243228	1.546199	-0.223275
H147	H	-0.937224	0.902204	-0.402041
H148	H	-0.437224	1.402204	0.097959
H149	H	-0.738803	0.869154	-0.434936
H150	H	-0.238803	1.369154	0.065064
H151	H	-0.825547	1.020604	-0.283763
H152	H	-0.325547	1.520604	0.216237
H153	H	-0.419658	0.882388	-1.085662
H154	H	0.080342	1.382388	-0.585662
H155	H	-0.256720	1.046232	-0.950800
H156	H	0.243280	1.546232	-0.450800
H157	H	-0.419695	0.882374	-0.957430
H158	H	0.080305	1.382374	-0.457430
H159	H	-0.256689	1.046250	-1.079043
H160	H	0.243311	1.546250	-0.579043
H161	H	-0.419734	0.882337	-0.729907
H162	H	0.080266	1.382337	-0.229907
H163	H	-0.256739	0.709894	-0.258261
H164	H	0.243261	1.209894	0.241739
H165	H	-0.850454	0.907910	-0.396289
H166	H	-0.350454	1.407910	0.103711
H167	H	-0.419956	0.574951	-0.421754
H168	H	0.080044	1.074951	0.078246
H169	H	-0.419762	0.882310	-0.601663
H170	H	0.080238	1.382310	-0.101663
H171	H	-0.256770	0.225890	-0.258298
H172	H	0.243230	0.725890	0.241702
H173	H	-0.256751	0.581649	-0.258275
H174	H	0.243249	1.081649	0.241725
H175	H	-0.256764	0.354124	-0.258284
H176	H	0.243236	0.854124	0.241716
H177	H	-0.738768	1.026308	-0.278008
H178	H	-0.238768	1.526308	0.221992
H179	H	-1.070270	1.053931	-0.250600
H180	H	-0.570270	1.553931	0.249400
H181	H	-0.937192	1.059358	-0.245110
H182	H	-0.437192	1.559358	0.254890
