data_functionalizedCrystal
_audit_creation_method	'MofGen! by Chris Wilmer'
_symmetry_space_group_name_H-M	'P1'
_symmetry_Int_Tables_number	1
_symmetry_cell_setting	triclinic
loop_
_symmetry_equiv_pos_as_xyz
  x,y,z
_cell_length_a	14.971486
_cell_length_b	10.268362
_cell_length_c	11.792254
_cell_angle_alpha	90.005455
_cell_angle_beta	83.906363
_cell_angle_gamma	89.999627
loop_
_atom_site_label
_atom_site_type_symbol
_atom_site_fract_x
_atom_site_fract_y
_atom_site_fract_z
O1	O	1.187543	0.108151	0.147907
O2	O	1.687543	0.608151	0.647907
O3	O	0.927214	0.108187	0.165619
O4	O	1.427214	0.608187	0.665619
O5	O	1.063690	0.108159	-0.008447
O6	O	1.563690	0.608159	0.491553
O7	O	1.051067	0.108179	0.321973
O8	O	1.551067	0.608179	0.821973
O9	O	1.063678	-0.108442	-0.008455
O10	O	1.563678	0.391558	0.491545
O11	O	0.927202	-0.108414	0.165612
O12	O	1.427202	0.391586	0.665612
O13	O	1.187531	-0.108450	0.147900
O14	O	1.687531	0.391550	0.647900
Cu15	Cu	1.057365	-0.128209	0.156755
Cu16	Cu	1.557365	0.371791	0.656755
Cu17	Cu	1.057379	0.127946	0.156764
Cu18	Cu	1.557379	0.627946	0.656764
O19	O	1.051055	-0.108422	0.321966
O20	O	1.551055	0.391578	0.821966
C21	C	0.893880	-0.000109	0.164823
C22	C	1.393880	0.499891	0.664823
C23	C	0.794574	-0.000096	0.162450
C24	C	1.294574	0.499904	0.662450
N25	N	1.057362	-0.308375	0.156748
N26	N	1.557362	0.191625	0.656748
C27	C	0.737762	-0.000092	0.264709
C28	C	1.237762	0.499908	0.764709
C29	C	0.644453	-0.000111	0.262472
C30	C	1.144453	0.499889	0.762472
C31	C	0.607958	-0.000126	0.157974
C32	C	1.107958	0.499874	0.657974
C33	C	0.664778	-0.000134	0.055707
C34	C	1.164778	0.499866	0.555707
C35	C	0.758084	-0.000124	0.057945
C36	C	1.258084	0.499876	0.557945
C37	C	0.470296	-0.000152	0.051049
C38	C	0.970296	0.499848	0.551049
C39	C	0.376983	-0.000160	0.048810
C40	C	0.876983	0.499840	0.548810
C41	C	0.356665	-0.000140	0.255575
C42	C	0.856665	0.499860	0.755575
C43	C	0.449972	-0.000129	0.257814
C44	C	0.949972	0.499871	0.757814
C45	C	0.506785	-0.000135	0.155546
C46	C	1.006785	0.499865	0.655546
C47	C	1.057375	-0.574046	0.156761
C48	C	1.557375	-0.074046	0.656761
C49	C	1.057365	-0.426208	0.156757
C50	C	1.557365	0.073792	0.656757
C51	C	1.220865	-0.000151	0.148695
C52	C	1.720865	0.499849	0.648695
C53	C	1.320171	-0.000156	0.151069
C54	C	1.820171	0.499844	0.651069
C55	C	1.062889	-0.000141	-0.050737
C56	C	1.562889	0.499859	0.449263
C57	C	1.060509	-0.000140	-0.176734
C58	C	1.560509	0.499860	0.323266
N59	N	1.057390	0.308112	0.156761
N60	N	1.557390	0.808112	0.656761
C61	C	1.058575	-0.000135	-0.279058
C62	C	1.558575	0.499865	0.220942
C63	C	1.056157	-0.000122	-0.407429
C64	C	1.556157	0.499878	0.092571
C65	C	1.051856	-0.000119	0.364255
C66	C	1.551856	0.499881	0.864255
C67	C	1.054236	-0.000112	0.490253
C68	C	1.554236	0.499888	0.990253
H69	H	0.767468	-0.000079	0.349803
H70	H	1.267468	0.499921	0.849803
H71	H	0.479682	-0.000105	0.342905
H72	H	0.979682	0.499895	0.842905
H73	H	0.347273	-0.000174	-0.036281
H74	H	0.847273	0.499826	0.463719
C75	C	0.624640	-0.000149	-0.059241
C76	C	1.124640	0.499851	0.440759
H77	H	0.671842	-0.000161	-0.119823
H78	H	1.171842	0.499839	0.380177
H79	H	0.588660	0.075381	-0.064411
H80	H	1.088660	0.575381	0.435589
H81	H	0.588668	-0.075695	-0.064414
H82	H	1.088668	0.424305	0.435586
H83	H	0.598200	-0.000106	0.345742
H84	H	1.098200	0.499894	0.845742
C85	C	0.820577	-0.000116	-0.054540
C86	C	1.320577	0.499884	0.445460
H87	H	0.785481	-0.000112	-0.117096
H88	H	1.285481	0.499888	0.382904
H89	H	0.857406	-0.075643	-0.057971
H90	H	1.357406	0.424357	0.442029
H91	H	0.857391	0.075433	-0.057957
H92	H	1.357391	0.575433	0.442043
H93	H	0.310403	-0.000141	0.338845
H94	H	0.810403	0.499859	0.838845
H95	H	0.516551	-0.000159	-0.032229
H96	H	1.016551	0.499841	0.467771
