data_functionalizedCrystal
_audit_creation_method	'MofGen! by Chris Wilmer'
_symmetry_space_group_name_H-M	'P1'
_symmetry_Int_Tables_number	1
_symmetry_cell_setting	triclinic
loop_
_symmetry_equiv_pos_as_xyz
  x,y,z
_cell_length_a	11.169417
_cell_length_b	19.077068
_cell_length_c	11.169409
_cell_angle_alpha	92.259065
_cell_angle_beta	89.980176
_cell_angle_gamma	92.327792
loop_
_atom_site_label
_atom_site_type_symbol
_atom_site_fract_x
_atom_site_fract_y
_atom_site_fract_z
Zn1	Zn	1.815630	-0.280126	-0.697665
Zn2	Zn	1.807395	-0.397846	-0.505018
Zn3	Zn	1.614913	-0.280169	-0.497002
Zn4	Zn	1.606803	-0.397789	-0.705659
O5	O	1.711185	-0.338983	-0.601336
O6	O	1.982486	-0.295748	-0.672119
O7	O	1.781809	-0.382278	-0.336008
O8	O	1.648378	-0.181673	-0.516921
O9	O	1.976436	-0.382237	-0.530582
O10	O	1.795844	-0.181642	-0.664347
O11	O	1.640393	-0.295821	-0.330119
O12	O	1.445887	-0.295766	-0.524672
O13	O	1.634556	-0.382139	-0.872546
O14	O	1.439929	-0.382181	-0.677971
O15	O	1.787981	-0.295693	-0.866672
O16	O	1.773945	-0.496329	-0.538333
O17	O	1.626571	-0.496287	-0.685743
C18	C	1.399361	-0.338972	-0.601320
C19	C	1.265960	-0.338984	-0.601343
C20	C	1.698517	-0.521846	-0.613802
C21	C	1.693208	-0.600075	-0.619175
C22	C	1.767503	-0.636826	-0.545014
C23	C	1.762516	-0.710331	-0.550075
C24	C	1.683227	-0.747084	-0.629291
C25	C	1.608929	-0.710328	-0.703460
C26	C	1.613923	-0.636824	-0.698404
C27	C	1.660064	-0.966916	-0.652640
C28	C	1.655073	-1.040425	-0.657687
C29	C	1.808662	-1.040424	-0.504303
C30	C	1.813643	-0.966918	-0.499250
C31	C	1.739350	-0.930169	-0.573423
N32	N	1.678125	-0.822218	-0.634463
N33	N	1.744459	-0.855036	-0.568256
C34	C	2.024226	-0.338994	-0.601353
C35	C	2.157626	-0.338999	-0.601360
C36	C	1.711282	-0.338905	-0.914373
C37	C	1.711324	-0.338871	-1.047771
C38	C	1.723935	-0.155406	-0.588848
C39	C	1.729368	-0.077176	-0.583526
C40	C	1.711160	-0.339010	-0.289513
C41	C	1.711365	-0.338845	-0.156103
H42	H	1.832062	-0.606907	-0.480503
O43	O	1.890781	-0.931328	-0.422278
C44	C	1.955271	-0.979528	-0.357887
H45	H	1.955837	-1.031899	-0.410647
H46	H	1.910841	-0.987409	-0.267235
C47	C	2.084274	-0.886466	-0.273937
C48	C	2.084978	-0.950787	-0.338742
H49	H	2.164282	-0.868736	-0.262122
H50	H	2.040824	-0.853992	-0.317315
H51	H	2.047243	-0.893042	-0.198401
H52	H	2.121995	-0.944208	-0.414282
H53	H	2.128438	-0.983259	-0.295377
O54	O	1.577919	-1.076157	-0.734477
C55	C	1.497557	-1.118756	-0.669011
H56	H	1.491689	-1.096653	-0.572962
H57	H	1.530881	-1.174448	-0.668731
C58	C	1.379892	-1.147064	-0.845595
C59	C	1.372677	-1.119913	-0.727628
H60	H	1.302862	-1.147781	-0.881754
H61	H	1.434036	-1.118367	-0.889703
H62	H	1.407667	-1.193471	-0.845346
H63	H	1.344918	-1.073504	-0.727880
H64	H	1.318526	-1.148603	-0.683522
H65	H	1.599569	-0.937001	-0.713032
O66	O	1.531939	-0.746136	-0.780305
C67	C	1.543478	-0.818893	-0.768885
H68	H	1.582150	-0.828960	-0.676990
H69	H	1.605940	-0.839687	-0.841559
C70	C	1.371972	-0.844318	-0.895243
C71	C	1.419460	-0.856683	-0.782371
H72	H	1.295474	-0.867630	-0.903567
H73	H	1.364200	-0.795301	-0.902941
H74	H	1.424035	-0.861647	-0.955792
H75	H	1.367405	-0.839347	-0.721825
H76	H	1.427221	-0.905699	-0.774663
O77	O	1.880795	-1.076231	-0.432392
C78	C	1.859374	-1.148989	-0.453818
H79	H	1.819325	-1.159000	-0.547089
H80	H	1.794091	-1.169919	-0.384004
C81	C	2.027450	-1.174370	-0.330982
C82	C	1.978271	-1.186667	-0.445542
H83	H	2.100789	-1.197614	-0.325872
H84	H	2.041880	-1.125353	-0.316542
H85	H	1.973036	-1.191813	-0.272816
H86	H	2.032678	-1.169217	-0.503704
H87	H	1.963853	-1.235683	-0.459991
O88	O	1.834728	-0.745922	-0.477911
C89	C	1.905795	-0.697722	-0.406924
H90	H	1.860192	-0.645353	-0.399128
H91	H	1.997462	-0.689835	-0.450404
C92	C	1.977210	-0.790785	-0.290756
C93	C	1.921194	-0.726466	-0.281172
H94	H	1.986714	-0.808517	-0.213188
H95	H	1.929334	-0.823259	-0.338584
H96	H	2.053593	-0.784204	-0.326994
H97	H	1.844807	-0.733050	-0.244949
H98	H	1.969057	-0.693994	-0.233335
O99	O	1.541636	-0.601231	-0.770493
C100	C	1.470605	-0.649429	-0.841520
H101	H	1.462902	-0.701851	-0.795958
H102	H	1.513992	-0.657183	-0.933236
C103	C	1.354273	-0.556407	-0.912716
C104	C	1.344804	-0.620790	-0.856751
H105	H	1.276675	-0.538740	-0.922117
H106	H	1.402130	-0.523934	-0.864868
H107	H	1.390434	-0.562877	-0.989140
H108	H	1.308658	-0.614317	-0.780323
H109	H	1.296938	-0.653261	-0.904587
