data_functionalizedCrystal
_audit_creation_method	'MofGen! by Chris Wilmer'
_symmetry_space_group_name_H-M	'P1'
_symmetry_Int_Tables_number	1
_symmetry_cell_setting	triclinic
loop_
_symmetry_equiv_pos_as_xyz
  x,y,z
_cell_length_a	6.817900
_cell_length_b	17.296766
_cell_length_c	23.753023
_cell_angle_alpha	100.239935
_cell_angle_beta	100.067528
_cell_angle_gamma	102.621013
loop_
_atom_site_label
_atom_site_type_symbol
_atom_site_fract_x
_atom_site_fract_y
_atom_site_fract_z
V1	V	-3.988644	-0.112147	-0.184198
O2	O	-3.977024	0.004345	-0.174767
O3	O	-3.940286	-0.221365	-0.188635
O4	O	-3.923681	-0.110880	-0.261933
O5	O	-3.993744	-0.106905	-0.100962
V6	V	-4.474413	-0.098159	-0.173550
O7	O	-4.244976	-0.142831	-0.207554
O8	O	-4.668278	-0.067475	-0.150193
O9	O	-4.299564	0.011059	-0.169112
O10	O	-4.603430	-0.214652	-0.182980
O11	O	-4.586710	-0.103402	-0.256786
O12	O	-4.316169	-0.099426	-0.095814
C13	C	-3.785833	-0.247976	-0.187200
C14	C	-3.827472	-0.337266	-0.191346
C15	C	-3.817955	-0.367446	-0.140290
C16	C	-3.857098	-0.451344	-0.144188
C17	C	-3.905743	-0.505061	-0.199143
C18	C	-3.915265	-0.474877	-0.250203
C19	C	-3.876136	-0.390980	-0.246304
C20	C	-4.025353	-0.758964	-0.213565
C21	C	-4.064475	-0.842865	-0.217460
C22	C	-4.006309	-0.819328	-0.111445
C23	C	-3.967171	-0.735430	-0.107551
C24	C	-3.976707	-0.705253	-0.158611
C25	C	-3.945747	-0.590819	-0.203128
C26	C	-3.936717	-0.619497	-0.154625
C27	C	-3.764651	-0.107040	-0.280698
C28	C	-3.792820	-0.106727	-0.344284
C29	C	-4.006118	-0.178484	-0.750592
C30	C	-4.032621	-0.178202	-0.810341
O31	O	-4.079028	-0.240653	-0.851436
N32	N	-4.007493	-0.104456	-0.828239
C33	C	-3.955879	-0.030987	-0.786384
O34	O	-3.936941	0.031766	-0.807094
C35	C	-3.929391	-0.031270	-0.726637
C36	C	-3.954503	-0.105021	-0.708742
C37	C	-4.031229	-0.252229	-0.732697
C38	C	-4.004724	-0.252511	-0.672952
C39	C	-3.953109	-0.179047	-0.631102
C40	C	-3.927998	-0.105302	-0.648997
C41	C	-3.877792	0.042198	-0.684783
C42	C	-3.851308	0.041909	-0.625033
C43	C	-3.876419	-0.031842	-0.607139
C44	C	-3.849878	-0.032120	-0.547403
N45	N	-3.875006	-0.105867	-0.529505
C46	C	-3.926621	-0.179330	-0.571355
C47	C	-4.011511	-0.030398	-0.911858
C48	C	-4.037983	-0.030114	-0.971604
C49	C	-4.114728	-0.177330	-0.995557
C50	C	-4.088240	-0.177613	-0.935810
C51	C	-4.036639	-0.104145	-0.893961
C52	C	-3.870954	-0.179916	-0.445885
C53	C	-3.844436	-0.180190	-0.386134
C54	C	-3.767704	-0.032975	-0.362187
C55	C	-3.794210	-0.032700	-0.421932
C56	C	-3.845845	-0.106177	-0.463782
O57	O	-3.803479	0.030298	-0.506275
O58	O	-3.945577	-0.242073	-0.550637
C59	C	-4.117359	0.037665	-0.170546
C60	C	-4.054959	0.126955	-0.166404
C61	C	-4.138542	-0.103269	-0.077047
C62	C	-4.089612	-0.103578	-0.013460
H63	H	-3.985357	-0.634565	-0.247873
H64	H	-3.912995	-0.239748	-0.479953
H65	H	-4.156761	-0.237148	-1.029643
H66	H	-3.998553	-0.843907	-0.069875
H67	H	-4.104079	-0.886601	-0.262213
H68	H	-4.033094	-0.734404	-0.255142
H69	H	-3.883908	-0.366410	-0.287880
H70	H	-3.897119	-0.575757	-0.109882
H71	H	-3.778330	-0.323714	-0.095540
H72	H	-3.773772	0.027354	-0.436502
H73	H	-4.017505	0.029942	-0.986167
H74	H	-4.025187	-0.312567	-0.658389
H75	H	-3.864882	-0.240250	-0.371569
H76	H	-3.969476	0.029433	-0.877786
H77	H	-4.073264	-0.312056	-0.766767
H78	H	-4.108690	-0.237668	-0.921245
H79	H	-3.725669	0.026837	-0.328102
H80	H	-3.857324	0.102255	-0.699341
H81	H	-3.809295	0.101737	-0.590961
H82	H	-3.849351	-0.475912	-0.102613
H83	H	-3.927575	-0.691698	-0.062801
H84	H	-3.954888	-0.518620	-0.294948
