data_functionalizedCrystal
_audit_creation_method	'MofGen! by Chris Wilmer'
_symmetry_space_group_name_H-M	'P1'
_symmetry_Int_Tables_number	1
_symmetry_cell_setting	triclinic
loop_
_symmetry_equiv_pos_as_xyz
  x,y,z
_cell_length_a	12.827893
_cell_length_b	12.827893
_cell_length_c	12.827885
_cell_angle_alpha	89.974949
_cell_angle_beta	90.021189
_cell_angle_gamma	89.998281
loop_
_atom_site_label
_atom_site_type_symbol
_atom_site_fract_x
_atom_site_fract_y
_atom_site_fract_z
Zn1	Zn	-1.597756	-0.416032	-0.590937
Zn2	Zn	-1.264423	-0.082699	-0.257603
Zn3	Zn	-0.931089	0.250634	0.075730
Zn4	Zn	-1.597686	-0.590810	-0.416211
Zn5	Zn	-1.264353	-0.257476	-0.082878
Zn6	Zn	-0.931020	0.075857	0.250455
Zn7	Zn	-1.422997	-0.416078	-0.416204
Zn8	Zn	-1.089664	-0.082744	-0.082871
Zn9	Zn	-0.756331	0.250589	0.250462
Zn10	Zn	-1.423019	-0.590727	-0.590905
Zn11	Zn	-1.089685	-0.257393	-0.257572
Zn12	Zn	-0.756352	0.075940	0.075761
O13	O	-1.510365	-0.503412	-0.503564
O14	O	-1.177031	-0.170078	-0.170231
O15	O	-0.843698	0.163255	0.163102
O16	O	-1.743983	-0.439233	-0.567775
O17	O	-1.410649	-0.105899	-0.234441
O18	O	-1.077316	0.227434	0.098892
O19	O	-1.574475	-0.567685	-0.269974
O20	O	-1.241142	-0.234352	0.063359
O21	O	-0.907809	0.098982	0.396692
O22	O	-1.446200	-0.269836	-0.439393
O23	O	-1.112866	0.063498	-0.106060
O24	O	-0.779533	0.396831	0.227274
O25	O	-1.743932	-0.567641	-0.439405
O26	O	-1.410598	-0.234307	-0.106072
O27	O	-1.077265	0.099026	0.227262
O28	O	-1.574594	-0.269802	-0.567768
O29	O	-1.241261	0.063531	-0.234435
O30	O	-0.907927	0.396864	0.098899
O31	O	-1.446132	-0.439310	-0.269969
O32	O	-1.112799	-0.105977	0.063364
O33	O	-0.779465	0.227356	0.396698
O34	O	-1.276764	-0.439230	-0.439363
O35	O	-0.943431	-0.105896	-0.106030
O36	O	-0.610097	0.227437	0.227304
O37	O	-1.446236	-0.567499	-0.737146
O38	O	-1.112903	-0.234166	-0.403812
O39	O	-0.779570	0.099168	-0.070479
O40	O	-1.276780	-0.567543	-0.567715
O41	O	-0.943447	-0.234210	-0.234382
O42	O	-0.610113	0.099123	0.098952
O43	O	-1.574615	-0.439152	-0.737169
O44	O	-1.241281	-0.105819	-0.403835
O45	O	-0.907948	0.227515	-0.070502
O46	O	-1.574496	-0.737035	-0.439375
O47	O	-1.241163	-0.403701	-0.106041
O48	O	-0.907829	-0.070368	0.227292
O49	O	-1.446169	-0.736974	-0.567722
O50	O	-1.112835	-0.403640	-0.234388
O51	O	-0.779502	-0.070307	0.098945
C52	C	-1.238855	-0.503383	-0.503535
C53	C	-0.905521	-0.170050	-0.170202
C54	C	-0.572188	0.163284	0.163131
C55	C	-1.122702	-0.503396	-0.503548
C56	C	-0.789368	-0.170063	-0.170214
C57	C	-0.456035	0.163271	0.163119
C58	C	-1.070942	-0.439967	-0.567167
C59	C	-0.737609	-0.106633	-0.233833
C60	C	-0.404275	0.226700	0.099500
C61	C	-0.950892	-0.439978	-0.567181
C62	C	-0.617558	-0.106645	-0.233847
C63	C	-0.284225	0.226688	0.099486
C64	C	-1.510356	-0.774921	-0.503568
C65	C	-1.177022	-0.441588	-0.170235
C66	C	-0.843689	-0.108255	0.163098
C67	C	-1.510447	-0.891075	-0.503605
C68	C	-1.177114	-0.557741	-0.170272
C69	C	-0.843781	-0.224408	0.163062
C70	C	-1.510436	-0.503311	-0.776135
C71	C	-1.177102	-0.169978	-0.442801
C72	C	-0.843769	0.163355	-0.109468
C73	C	-1.510466	-0.503268	-0.892288
C74	C	-1.177133	-0.169935	-0.558955
C75	C	-0.843799	0.163398	-0.225621
C76	C	-0.782935	-0.503432	-0.503586
C77	C	-0.449601	-0.170099	-0.170252
C78	C	-0.116268	0.163234	0.163081
C79	C	-0.899088	-0.503419	-0.503573
C80	C	-0.565754	-0.170086	-0.170240
C81	C	-0.232421	0.163247	0.163093
C82	C	-1.510402	-0.230841	-0.503583
C83	C	-1.177069	0.102492	-0.170250
C84	C	-0.843735	0.435825	0.163083
C85	C	-1.510418	-0.114688	-0.503591
C86	C	-1.177085	0.218645	-0.170258
C87	C	-0.843751	0.551978	0.163075
C88	C	-1.446898	-0.062920	-0.440077
C89	C	-1.113565	0.270413	-0.106744
C90	C	-0.780232	0.603747	0.226589
C91	C	-1.446913	0.057130	-0.440084
C92	C	-1.113580	0.390464	-0.106751
C93	C	-0.780247	0.723797	0.226582
C94	C	-1.573999	-0.439746	-0.944084
C95	C	-1.240665	-0.106412	-0.610751
C96	C	-0.907332	0.226921	-0.277417
C97	C	-1.574031	-0.439700	-1.064134
C98	C	-1.240698	-0.106367	-0.730801
C99	C	-0.907365	0.226967	-0.397468
C100	C	-1.510354	-0.503436	-0.232054
C101	C	-1.177021	-0.170103	0.101279
C102	C	-0.843687	0.163231	0.434612
C103	C	-1.510526	-0.503184	-0.115902
C104	C	-1.177193	-0.169851	0.217432
C105	C	-0.843859	0.163482	0.550765
H106	H	-0.906380	-0.385678	-0.621651
H107	H	-0.573046	-0.052344	-0.288317
H108	H	-0.239713	0.280989	0.045016
H109	H	-1.115505	-0.385650	-0.621618
H110	H	-0.782172	-0.052316	-0.288285
H111	H	-0.448839	0.281017	0.045048
H112	H	-1.564836	0.064413	-0.557981
H113	H	-1.231502	0.397746	-0.224647
H114	H	-0.898169	0.731079	0.108686
H115	H	-1.078138	-0.557707	-0.449090
H116	H	-0.744805	-0.224374	-0.115757
H117	H	-0.411471	0.108960	0.217577
H118	H	-1.564807	-0.070133	-0.557977
H119	H	-1.231474	0.263200	-0.224644
H120	H	-0.898141	0.596533	0.108690
Cl121	Cl	-0.967798	-0.587274	-0.419480
Cl122	Cl	-0.634465	-0.253941	-0.086146
Cl123	Cl	-0.301132	0.079392	0.247187
Cl124	Cl	-1.362904	-0.131702	-0.356123
Cl125	Cl	-1.029571	0.201631	-0.022790
Cl126	Cl	-0.696238	0.534964	0.310544
H127	H	-1.628363	-0.385392	-0.899552
H128	H	-1.295030	-0.052059	-0.566218
H129	H	-0.961697	0.281275	-0.232885
H130	H	-1.392535	0.101649	-0.385703
H131	H	-1.059202	0.434982	-0.052370
H132	H	-0.725869	0.768315	0.280963
Cl133	Cl	-1.658020	-0.355736	-1.132900
Cl134	Cl	-1.324687	-0.022403	-0.799567
Cl135	Cl	-0.991353	0.310930	-0.466233
Cl136	Cl	-1.426515	-0.587180	-0.961033
Cl137	Cl	-1.093182	-0.253847	-0.627700
Cl138	Cl	-0.759848	0.079487	-0.294367
Cl139	Cl	-1.426546	-0.587163	-1.047143
Cl140	Cl	-1.093213	-0.253829	-0.713810
Cl141	Cl	-0.759879	0.079504	-0.380476
