data_functionalizedCrystal
_audit_creation_method	'MofGen! by Chris Wilmer'
_symmetry_space_group_name_H-M	'P1'
_symmetry_Int_Tables_number	1
_symmetry_cell_setting	triclinic
loop_
_symmetry_equiv_pos_as_xyz
  x,y,z
_cell_length_a	18.050590
_cell_length_b	18.050588
_cell_length_c	18.050582
_cell_angle_alpha	90.021152
_cell_angle_beta	89.999233
_cell_angle_gamma	90.018727
loop_
_atom_site_label
_atom_site_type_symbol
_atom_site_fract_x
_atom_site_fract_y
_atom_site_fract_z
Zn1	Zn	1.135286	-0.295921	0.419609
Zn2	Zn	1.635286	0.204079	0.919609
Zn3	Zn	1.135193	-0.420105	0.295422
Zn4	Zn	1.635193	0.079895	0.795422
Zn5	Zn	1.011105	-0.295910	0.295467
Zn6	Zn	1.511105	0.204090	0.795467
Zn7	Zn	1.011050	-0.420051	0.419605
Zn8	Zn	1.511050	0.079949	0.919605
O9	O	1.073158	-0.357997	0.357526
O10	O	1.573158	0.142003	0.857526
O11	O	1.239198	-0.312422	0.403118
O12	O	1.739198	0.187578	0.903118
O13	O	1.118717	-0.403648	0.191503
O14	O	1.618717	0.096352	0.691503
O15	O	1.027639	-0.191987	0.311955
O16	O	1.527639	0.308013	0.811955
O17	O	1.239130	-0.403659	0.311879
O18	O	1.739130	0.096341	0.811879
O19	O	1.118874	-0.191995	0.403162
O20	O	1.618874	0.308005	0.903162
O21	O	1.027550	-0.312402	0.191536
O22	O	1.527550	0.187598	0.691536
O23	O	0.907173	-0.312350	0.311951
O24	O	1.407173	0.187650	0.811951
O25	O	1.027546	-0.403567	0.523530
O26	O	1.527546	0.096433	1.023530
O27	O	0.907133	-0.403555	0.403154
O28	O	1.407133	0.096445	0.903154
O29	O	1.118821	-0.312370	0.523533
O30	O	1.618821	0.187630	1.023533
O31	O	1.118664	-0.524022	0.311874
O32	O	1.618664	-0.024022	0.811874
O33	O	1.027456	-0.523982	0.403111
O34	O	1.527456	-0.023982	0.903111
C35	C	0.880206	-0.357946	0.357558
C36	C	1.380206	0.142054	0.857558
C37	C	0.797660	-0.357942	0.357589
C38	C	1.297660	0.142058	0.857589
C39	C	0.598209	-0.407682	0.407067
C40	C	1.098209	0.092318	0.907067
C41	C	0.548818	-0.339967	0.425341
C42	C	1.048818	0.160033	0.925341
C43	C	0.646530	-0.357984	0.357553
C44	C	1.146530	0.142016	0.857553
C45	C	0.548840	-0.425737	0.339278
C46	C	1.048840	0.074263	0.839278
C47	C	0.500545	-0.358030	0.357519
C48	C	1.000545	0.141970	0.857519
C49	C	0.598226	-0.290233	0.375862
C50	C	1.098226	0.209767	0.875862
C51	C	0.598252	-0.376049	0.289767
C52	C	1.098252	0.123951	0.789767
C53	C	0.548883	-0.308287	0.308015
C54	C	1.048883	0.191713	0.808015
C55	C	0.730628	-0.357958	0.357574
C56	C	1.230628	0.142042	0.857574
C57	C	0.416448	-0.358047	0.357498
C58	C	0.916448	0.141953	0.857498
C59	C	1.073064	-0.550949	0.357503
C60	C	1.573064	-0.050949	0.857503
C61	C	1.073092	-0.633495	0.357519
C62	C	1.573092	-0.133495	0.857519
C63	C	1.023571	-0.882325	0.407133
C64	C	1.523571	-0.382325	0.907133
C65	C	1.091288	-0.832870	0.425339
C66	C	1.591288	-0.332870	0.925339
C67	C	1.073246	-0.930615	0.357560
C68	C	1.573246	-0.430615	0.857560
C69	C	1.005457	-0.832989	0.339369
C70	C	1.505457	-0.332989	0.839369
C71	C	1.073167	-0.784630	0.357542
C72	C	1.573167	-0.284630	0.857542
C73	C	1.140999	-0.882246	0.375801
C74	C	1.640999	-0.382246	0.875801
C75	C	1.055123	-0.882370	0.289799
C76	C	1.555123	-0.382370	0.789799
C77	C	1.122886	-0.832936	0.307979
C78	C	1.622886	-0.332936	0.807979
C79	C	1.073291	-1.014713	0.357573
C80	C	1.573291	-0.514713	0.857573
C81	C	1.073130	-0.700533	0.357529
C82	C	1.573130	-0.200533	0.857529
C83	C	1.266864	-0.358048	0.357494
C84	C	1.766864	0.141952	0.857494
C85	C	1.349410	-0.358070	0.357480
C86	C	1.849410	0.141930	0.857480
C87	C	1.073187	-0.357964	0.551231
C88	C	1.573187	0.142036	1.051231
C89	C	1.073200	-0.357950	0.633777
C90	C	1.573200	0.142050	1.133777
C91	C	1.073273	-0.164291	0.357564
C92	C	1.573273	0.335709	0.857564
C93	C	1.073322	-0.081745	0.357581
C94	C	1.573322	0.418255	0.857581
C95	C	1.073172	-0.357976	0.164574
C96	C	1.573172	0.142024	0.664574
C97	C	1.073304	-0.357781	0.082028
C98	C	1.573304	0.142219	0.582028
C99	C	1.023602	-0.407475	0.833226
C100	C	1.523602	0.092525	1.333226
C101	C	1.091357	-0.425641	0.882599
C102	C	1.591357	0.074359	1.382599
C103	C	1.073236	-0.357893	0.784908
C104	C	1.573236	0.142107	1.284908
C105	C	1.005519	-0.339706	0.882616
C106	C	1.505519	0.160294	1.382616
C107	C	1.073266	-0.357840	0.930893
C108	C	1.573266	0.142160	1.430893
C109	C	1.141027	-0.376095	0.833194
C110	C	1.641027	0.123905	1.333194
C111	C	1.055143	-0.290128	0.833206
C112	C	1.555143	0.209872	1.333206
C113	C	1.122945	-0.308269	0.882557
C114	C	1.622945	0.191731	1.382557
C115	C	1.073219	-0.357926	0.700809
C116	C	1.573219	0.142074	1.200809
C117	C	1.073291	-0.357807	1.014989
C118	C	1.573291	0.142193	1.514989
H119	H	0.527104	-0.324702	0.482651
H120	H	1.027104	0.175298	0.982651
H121	H	0.619870	-0.449636	0.448987
H122	H	1.119870	0.050364	0.948987
H123	H	0.948163	-0.811348	0.323991
H124	H	1.448163	-0.311348	0.823991
C125	C	1.179651	-0.803818	0.251338
C126	C	1.679651	-0.303818	0.751338
H127	H	1.227733	-0.820774	0.264375
H128	H	1.727733	-0.320774	0.764375
H129	H	1.167216	-0.821515	0.203354
H130	H	1.667216	-0.321515	0.703354
H131	H	1.179033	-0.751191	0.251354
H132	H	1.679033	-0.251191	0.751354
H133	H	1.164980	-0.266316	0.904081
H134	H	1.664980	0.233684	1.404081
H135	H	0.619828	-0.232937	0.391368
H136	H	1.119828	0.267063	0.891368
H137	H	1.039802	-0.232860	0.811493
H138	H	1.539802	0.267140	1.311493
H139	H	0.948239	-0.324346	0.904325
H140	H	1.448239	0.175654	1.404325
C141	C	1.111962	-0.803495	0.502736
C142	C	1.611962	-0.303495	1.002736
H143	H	1.155775	-0.774510	0.499391
H144	H	1.655775	-0.274510	0.999391
H145	H	1.072677	-0.773821	0.521319
H146	H	1.572677	-0.273821	1.021319
H147	H	1.120200	-0.844040	0.535246
H148	H	1.620200	-0.344040	1.035246
H149	H	0.527143	-0.483016	0.323838
H150	H	1.027143	0.016984	0.823838
H151	H	0.981648	-0.904009	0.449096
H152	H	1.481648	-0.404009	0.949096
H153	H	0.981668	-0.449460	0.811566
H154	H	1.481668	0.050540	1.311566
C155	C	1.112054	-0.503023	0.911917
C156	C	1.612054	-0.003023	1.411917
H157	H	1.076730	-0.538215	0.895031
H158	H	1.576730	-0.038215	1.395031
H159	H	1.159829	-0.516267	0.894269
H160	H	1.659829	-0.016267	1.394269
H161	H	1.112353	-0.502329	0.964542
H162	H	1.612353	-0.002329	1.464542
H163	H	1.198310	-0.903794	0.391245
H164	H	1.698310	-0.403794	0.891245
H165	H	1.198324	-0.391520	0.811576
H166	H	1.698324	0.108480	1.311576
H167	H	0.619982	-0.391334	0.232474
H168	H	1.119982	0.108666	0.732474
C169	C	0.519798	-0.251479	0.251430
C170	C	1.019798	0.248521	0.751430
H171	H	0.490835	-0.276186	0.215072
H172	H	0.990835	0.223814	0.715072
H173	H	0.490159	-0.215704	0.276151
H174	H	0.990159	0.284296	0.776151
H175	H	0.560462	-0.227507	0.228149
H176	H	1.060462	0.272493	0.728149
C177	C	1.034427	-0.911773	0.212424
C178	C	1.534427	-0.411773	0.712424
H179	H	0.986250	-0.894940	0.199578
H180	H	1.486250	-0.394940	0.699578
H181	H	1.069193	-0.894129	0.177076
H182	H	1.569193	-0.394129	0.677076
H183	H	1.035051	-0.964397	0.212889
H184	H	1.535051	-0.464397	0.712889
