data_functionalizedCrystal
_audit_creation_method	'MofGen! by Chris Wilmer'
_symmetry_space_group_name_H-M	'P1'
_symmetry_Int_Tables_number	1
_symmetry_cell_setting	triclinic
loop_
_symmetry_equiv_pos_as_xyz
  x,y,z
_cell_length_a	11.026607
_cell_length_b	10.489741
_cell_length_c	9.482900
_cell_angle_alpha	99.430409
_cell_angle_beta	78.636152
_cell_angle_gamma	96.562595
loop_
_atom_site_label
_atom_site_type_symbol
_atom_site_fract_x
_atom_site_fract_y
_atom_site_fract_z
O1	O	1.633618	0.519526	-0.120902
O2	O	1.279780	0.458584	-0.120903
O3	O	1.464749	0.305229	-0.120894
O4	O	1.448649	0.672881	-0.120911
O5	O	1.427179	0.336539	0.120897
O6	O	1.242210	0.489894	0.120887
O7	O	1.596048	0.550836	0.120889
Cu8	Cu	1.415698	0.523224	0.142965
Cu9	Cu	1.460129	0.486196	-0.142980
O10	O	1.411079	0.704190	0.120879
C11	C	1.215686	0.462996	-0.000008
C12	C	1.080679	0.429482	-0.000008
C13	C	1.007683	0.522021	-0.000014
C14	C	0.868146	0.487384	-0.000014
C15	C	1.444748	0.273085	0.000000
C16	C	1.441110	0.130655	-0.000002
C17	C	1.323420	0.036624	-0.000013
C18	C	1.360492	-0.027831	0.119202
C19	C	1.397561	-0.058669	-0.119184
C20	C	1.478215	0.068088	0.119312
C21	C	1.515284	0.037242	-0.119182
C22	C	1.552438	-0.027163	0.000063
C23	C	1.660143	0.546423	-0.000010
C24	C	1.795151	0.579936	-0.000019
C25	C	1.431080	0.736334	-0.000018
C26	C	1.434720	0.878763	-0.000025
N27	N	1.384457	0.549268	0.344084
N28	N	1.491380	0.460144	-0.344099
C29	C	1.450906	0.493869	0.416286
C30	C	1.424922	0.515551	0.583703
H31	H	0.827348	0.382504	-0.000046
O32	O	0.849187	0.718861	-0.000005
H33	H	0.774485	0.781379	0.000007
O34	O	1.026643	0.290564	-0.000002
H35	H	0.925526	0.285158	-0.000011
O36	O	1.551727	0.409764	0.333984
H37	H	1.642244	0.451328	0.363073
O38	O	1.523353	0.140731	0.252966
H39	H	1.618073	0.114706	0.253263
O40	O	1.195229	0.074238	0.000135
H41	H	1.131268	0.048519	0.099249
O42	O	1.273800	-0.066130	0.252717
H43	H	1.178787	-0.040923	0.252478
O44	O	1.680708	-0.064424	0.000141
H45	H	1.713861	-0.012888	0.099197
O46	O	1.601938	0.075597	-0.252684
H47	H	1.568254	0.024293	-0.351506
O48	O	1.352332	-0.131508	-0.252695
H49	H	1.257250	-0.106213	-0.252433
H50	H	1.348785	0.579029	0.645823
H51	H	1.048490	0.626890	-0.000010
H52	H	1.567508	0.396654	0.593781
O53	O	1.283619	0.633364	0.426357
H54	H	1.279041	0.637206	0.544942
