data_functionalizedCrystal
_audit_creation_method	'MofGen! by Chris Wilmer'
_symmetry_space_group_name_H-M	'P1'
_symmetry_Int_Tables_number	1
_symmetry_cell_setting	triclinic
loop_
_symmetry_equiv_pos_as_xyz
  x,y,z
_cell_length_a	6.817900
_cell_length_b	11.102244
_cell_length_c	14.125465
_cell_angle_alpha	94.634221
_cell_angle_beta	100.398878
_cell_angle_gamma	108.604870
loop_
_atom_site_label
_atom_site_type_symbol
_atom_site_fract_x
_atom_site_fract_y
_atom_site_fract_z
V1	V	-4.017262	-0.174747	-0.299974
V2	V	-3.517262	0.325253	0.200026
O3	O	-3.978095	0.009521	-0.294266
O4	O	-3.478095	0.509521	0.205734
O5	O	-3.994678	-0.347574	-0.297920
O6	O	-3.494678	0.152426	0.202080
O7	O	-3.952932	-0.171566	-0.430804
O8	O	-3.452932	0.328434	0.069196
O9	O	-4.020130	-0.167706	-0.160462
O10	O	-3.520130	0.332294	0.339538
V11	V	-4.499609	-0.152764	-0.283287
V12	V	-3.999609	0.347236	0.216713
O13	O	-4.281100	-0.222967	-0.336577
O14	O	-3.781100	0.277033	0.163423
O15	O	-4.685968	-0.104545	-0.246684
O16	O	-4.185968	0.395455	0.253316
O17	O	-4.298986	0.020063	-0.285342
O18	O	-3.798986	0.520063	0.214658
O19	O	-4.656173	-0.337032	-0.288995
O20	O	-4.156173	0.162968	0.211005
O21	O	-4.614137	-0.159805	-0.422799
O22	O	-4.114137	0.340195	0.077201
O23	O	-4.340732	-0.155945	-0.152457
O24	O	-3.840732	0.344055	0.347543
C25	C	-3.846475	-0.389721	-0.293187
C26	C	-3.346475	0.110279	0.206813
C27	C	-3.909191	-0.531006	-0.292380
C28	C	-3.409191	-0.031006	0.207620
C29	C	-3.906168	-0.579563	-0.203898
C30	C	-3.406168	-0.079563	0.296102
C31	C	-3.965107	-0.712318	-0.203151
C32	C	-3.465107	-0.212318	0.296849
C33	C	-4.030082	-0.747949	-0.379374
C34	C	-3.530082	-0.247949	0.120626
C35	C	-3.971157	-0.615196	-0.380121
C36	C	-3.471157	-0.115196	0.119879
C37	C	-3.844201	-0.495372	-0.116157
C38	C	-3.344201	0.004628	0.383843
C39	C	-3.841174	-0.543928	-0.027668
C40	C	-3.341174	-0.043928	0.472332
C41	C	-3.900113	-0.676683	-0.026921
C42	C	-3.400113	-0.176683	0.473079
C43	C	-3.962080	-0.760882	-0.114662
C44	C	-3.462080	-0.260882	0.385338
C45	C	-3.793222	-0.165203	-0.462693
C46	C	-3.293222	0.334797	0.037307
C47	C	-3.822079	-0.163746	-0.569647
C48	C	-3.322079	0.336254	-0.069647
C49	C	-3.874973	-0.161074	-0.765470
C50	C	-3.374973	0.338926	-0.265470
C51	C	-4.061266	-0.166434	-0.817791
C52	C	-3.561266	0.333566	-0.317791
C53	C	-4.090699	-0.164948	-0.926754
C54	C	-3.590699	0.335052	-0.426754
C55	C	-3.845532	-0.162561	-0.656497
C56	C	-3.345532	0.337439	-0.156497
C57	C	-4.110533	0.062203	-0.290072
C58	C	-3.610533	0.562203	0.209928
C59	C	-4.027055	0.203487	-0.290885
C60	C	-3.527055	0.703487	0.209115
C61	C	-4.163786	-0.162312	-0.120564
C62	C	-3.663786	0.337688	0.379436
C63	C	-4.114166	-0.163763	-0.013608
C64	C	-3.614166	0.336237	0.486392
H65	H	-3.790733	-0.475365	0.043767
H66	H	-3.290733	0.024635	0.543767
F67	F	-3.896916	-0.728357	0.067254
F68	F	-3.396916	-0.228357	0.567254
H69	H	-4.198659	-0.172153	-0.780753
H70	H	-3.698659	0.327847	-0.280753
H71	H	-3.973650	-0.575663	-0.452171
H72	H	-3.473650	-0.075663	0.047829
F73	F	-4.024830	-0.902173	-0.113863
F74	F	-3.524830	-0.402173	0.386137
F75	F	-3.781460	-0.354082	-0.116945
F76	F	-3.281460	0.145918	0.383055
H77	H	-3.737599	-0.155370	-0.802508
H78	H	-3.237599	0.344630	-0.302508
H79	H	-4.080534	-0.816513	-0.450808
H80	H	-3.580534	-0.316513	0.049192
