data_functionalizedCrystal
_audit_creation_method	'MofGen! by Chris Wilmer'
_symmetry_space_group_name_H-M	'P1'
_symmetry_Int_Tables_number	1
_symmetry_cell_setting	triclinic
loop_
_symmetry_equiv_pos_as_xyz
  x,y,z
_cell_length_a	10.686285
_cell_length_b	10.686154
_cell_length_c	18.215399
_cell_angle_alpha	85.652172
_cell_angle_beta	85.609148
_cell_angle_gamma	89.656155
loop_
_atom_site_label
_atom_site_type_symbol
_atom_site_fract_x
_atom_site_fract_y
_atom_site_fract_z
Zn1	Zn	-0.352140	-1.956161	-0.313053
Zn2	Zn	-0.561927	-1.972163	-0.179912
Zn3	Zn	-0.368288	-1.746394	-0.198647
Zn4	Zn	-0.577957	-1.762486	-0.311585
O5	O	-0.465078	-1.859301	-0.250799
O6	O	-0.366502	-2.133822	-0.288165
O7	O	-0.536290	-1.942177	-0.079413
O8	O	-0.190602	-1.760789	-0.222278
O9	O	-0.520632	-2.145578	-0.190348
O10	O	-0.178738	-1.914904	-0.306331
O11	O	-0.394024	-1.776306	-0.093177
O12	O	-0.409568	-1.572990	-0.220855
O13	O	-0.547952	-1.788215	-0.414765
O14	O	-0.563610	-1.584813	-0.303830
O15	O	-0.382046	-1.930507	-0.415843
O16	O	-0.739597	-1.957780	-0.188924
O17	O	-0.751374	-1.803731	-0.285664
C18	C	-0.490082	-1.533387	-0.264216
C19	C	-0.500809	-1.393961	-0.269972
C20	C	-0.791000	-1.884272	-0.235117
C21	C	-0.930421	-1.895070	-0.228427
C22	C	-0.137881	-1.834266	-0.266558
C23	C	0.001551	-1.823598	-0.273273
C24	C	-0.464986	-1.859371	-0.442753
C25	C	-0.464946	-1.859400	-0.524553
C26	C	-0.439971	-1.186487	-0.237323
C27	C	-0.429255	-1.325914	-0.231560
C28	C	-0.378482	-1.933515	-0.713312
C29	C	-0.378444	-1.933527	-0.790172
C30	C	-0.551210	-1.785360	-0.789037
C31	C	-0.551241	-1.785341	-0.712179
C32	C	-0.464878	-1.859426	-0.674318
C33	C	-0.464810	-1.859457	-0.828036
C34	C	-0.464769	-1.859469	-0.911371
C35	C	-0.464916	-1.859412	-0.590978
C36	C	-0.465074	-1.859297	-0.059594
C37	C	-0.464741	-1.859483	0.022198
H38	H	-0.570277	-1.345555	-0.307261
N39	N	-0.644439	-1.705418	-0.670128
H40	H	-0.698676	-1.760830	-0.633340
H41	H	-0.597843	-1.643383	-0.643136
N42	N	-0.994545	-1.987071	-0.170781
H43	H	-0.973364	-1.965906	-0.120066
H44	H	-1.088375	-1.981965	-0.174070
N45	N	-0.934314	-1.731603	-0.330911
H46	H	-0.875963	-1.778381	-0.365526
H47	H	-0.999590	-1.685461	-0.359834
N48	N	-0.337239	-1.390026	-0.182154
H49	H	-0.342361	-1.483880	-0.184902
H50	H	-0.249409	-1.360327	-0.198936
N51	N	-0.644336	-1.705453	-0.829886
H52	H	-0.698545	-1.760880	-0.856882
H53	H	-0.698989	-1.658510	-0.793485
H54	H	-0.308089	-1.993855	-0.821917
N55	N	-0.285336	-2.013415	-0.672474
H56	H	-0.230598	-2.060349	-0.708842
H57	H	-0.231216	-1.957903	-0.645481
