data_functionalizedCrystal
_audit_creation_method	'MofGen! by Chris Wilmer'
_symmetry_space_group_name_H-M	'P1'
_symmetry_Int_Tables_number	1
_symmetry_cell_setting	triclinic
loop_
_symmetry_equiv_pos_as_xyz
  x,y,z
_cell_length_a	27.732048
_cell_length_b	27.732048
_cell_length_c	14.421503
_cell_angle_alpha	90.000679
_cell_angle_beta	90.002062
_cell_angle_gamma	82.642655
loop_
_atom_site_label
_atom_site_type_symbol
_atom_site_fract_x
_atom_site_fract_y
_atom_site_fract_z
O1	O	0.640930	0.057510	0.077002
O2	O	0.500137	0.066256	0.077032
O3	O	0.574906	-0.008514	0.076998
O4	O	0.566161	0.132280	0.077035
O5	O	0.574894	-0.008503	-0.077225
O6	O	0.500124	0.066267	-0.077192
O7	O	0.640918	0.057521	-0.077221
Cu8	Cu	0.570520	0.061895	-0.091288
Cu9	Cu	0.570535	0.061882	0.091099
O10	O	0.566148	0.132291	-0.077188
C11	C	0.482124	0.066078	-0.000077
C12	C	0.428469	0.065525	-0.000066
C13	C	0.089654	0.106229	-0.000096
C14	C	-0.112006	0.104178	-0.000104
O15	O	-0.143262	0.141398	-0.000135
N16	N	-0.131130	0.059843	-0.000115
C17	C	-0.099835	0.016017	-0.000128
O18	O	-0.120728	-0.021740	-0.000147
C19	C	0.101824	0.018068	-0.000126
C20	C	0.120944	0.062407	-0.000107
C21	C	0.108775	0.150563	-0.000077
C22	C	0.159187	0.151076	-0.000070
C23	C	0.190477	0.107253	-0.000081
C24	C	0.171356	0.062919	-0.000100
C25	C	0.133117	-0.025757	-0.000147
C26	C	0.183535	-0.025240	-0.000149
C27	C	0.202655	0.019098	-0.000129
C28	C	0.253059	0.019609	-0.000103
N29	N	0.272183	0.063944	-0.000093
C30	C	0.240892	0.107766	-0.000082
C31	C	-0.205709	0.014943	-0.000128
C32	C	-0.256124	0.014430	-0.000127
C33	C	-0.268291	0.102591	-0.000104
C34	C	-0.217876	0.103104	-0.000099
C35	C	-0.186585	0.059278	-0.000118
C36	C	0.346761	0.108839	-0.000066
C37	C	0.397178	0.109347	-0.000055
C38	C	0.409341	0.021186	-0.000082
C39	C	0.358929	0.020678	-0.000088
C40	C	0.327639	0.064508	-0.000084
O41	O	0.284343	-0.017592	-0.000084
O42	O	0.261794	0.145518	-0.000085
C43	C	0.039242	0.105716	-0.000103
C44	C	0.020120	0.061382	-0.000121
C45	C	0.051411	0.017560	-0.000132
C46	C	-0.030294	0.060869	-0.000120
C47	C	-0.061585	0.104691	-0.000109
C48	C	-0.042461	0.149026	-0.000099
C49	C	0.007951	0.149539	-0.000092
C50	C	0.032287	-0.026775	-0.000143
C51	C	-0.018125	-0.027284	-0.000149
C52	C	-0.049416	0.016538	-0.000138
C53	C	0.574716	-0.026515	-0.000116
C54	C	0.574164	-0.080170	-0.000124
C55	C	0.614867	-0.418985	-0.000084
C56	C	0.612816	-0.620645	-0.000071
O57	O	0.650037	-0.651900	-0.000038
N58	N	0.568481	-0.639768	-0.000063
C59	C	0.524656	-0.608474	-0.000052
O60	O	0.486899	-0.629367	-0.000035
C61	C	0.526707	-0.406815	-0.000058
C62	C	0.571045	-0.387694	-0.000076
C63	C	0.659202	-0.399864	-0.000101
C64	C	0.659714	-0.349452	-0.000110
C65	C	0.615892	-0.318161	-0.000101
C66	C	0.571557	-0.337282	-0.000084
C67	C	0.482882	-0.375521	-0.000040
C68	C	0.483399	-0.325104	-0.000040
C69	C	0.527737	-0.305983	-0.000058
C70	C	0.528247	-0.255580	-0.000084
N71	N	0.572583	-0.236456	-0.000093
C72	C	0.616405	-0.267747	-0.000101
C73	C	0.523582	-0.714348	-0.000050
C74	C	0.523069	-0.764762	-0.000050
C75	C	0.611230	-0.776930	-0.000068
C76	C	0.611742	-0.726514	-0.000074
C77	C	0.567917	-0.695224	-0.000058
C78	C	0.617477	-0.161878	-0.000120
C79	C	0.617986	-0.111461	-0.000132
C80	C	0.529825	-0.099298	-0.000109
C81	C	0.529316	-0.149710	-0.000102
C82	C	0.573147	-0.180999	-0.000104
O83	O	0.491047	-0.224296	-0.000107
O84	O	0.654156	-0.246844	-0.000098
C85	C	0.614355	-0.469397	-0.000076
C86	C	0.570021	-0.488518	-0.000059
C87	C	0.526198	-0.457228	-0.000051
C88	C	0.569508	-0.538933	-0.000059
C89	C	0.613330	-0.570223	-0.000068
C90	C	0.657665	-0.551100	-0.000076
C91	C	0.658177	-0.500688	-0.000084
C92	C	0.481863	-0.476351	-0.000042
C93	C	0.481355	-0.526764	-0.000035
C94	C	0.525177	-0.558054	-0.000044
C95	C	0.658931	0.057699	-0.000111
C96	C	0.712586	0.058252	-0.000116
C97	C	0.566338	0.150292	-0.000072
C98	C	0.566891	0.203947	-0.000058
N99	N	0.570513	0.061904	-0.219570
C100	C	0.535934	0.096462	-0.469208
C101	C	0.579543	0.105518	-0.531017
C102	C	0.570525	0.061892	-0.408731
C103	C	0.526927	0.052848	-0.531016
C104	C	0.570532	0.061882	-0.591453
C105	C	0.614156	0.070970	-0.469179
C106	C	0.561512	0.018281	-0.469173
C107	C	0.605152	0.027318	-0.530954
C108	C	0.570520	0.061900	-0.303470
C109	C	0.570543	0.061875	-0.696711
N110	N	0.570545	0.061869	0.219380
H111	H	-0.271687	-0.021674	-0.000128
H112	H	0.695819	-0.333889	-0.000120
H113	H	0.490054	0.045202	-0.558181
H114	H	0.553867	-0.018584	-0.441987
C115	C	-0.171685	-0.032607	0.000008
C116	C	-0.142376	-0.034890	0.079341
C117	C	-0.111026	-0.078683	0.079497
H118	H	-0.190239	-0.059121	0.000053
H119	H	-0.151737	-0.034246	-0.053745
H120	H	-0.162322	-0.033256	0.133080
H121	H	-0.123812	-0.008386	0.079313
H122	H	-0.091078	-0.080322	0.025744
H123	H	-0.129584	-0.105193	0.079539
H124	H	-0.091133	-0.080236	0.133319
H125	H	-0.033688	-0.063392	-0.000157
H126	H	0.434827	-0.014492	-0.000088
H127	H	0.651037	0.078660	-0.442131
C128	C	0.644274	-0.011612	-0.566836
C129	C	0.689814	-0.001916	-0.535353
C130	C	0.725866	-0.037762	-0.568401
H131	H	0.638198	-0.042534	-0.544745
H132	H	0.643920	-0.011575	-0.632711
H133	H	0.690168	-0.001958	-0.469492
H134	H	0.695906	0.028999	-0.557441
H135	H	0.725512	-0.037725	-0.634276
H136	H	0.719785	-0.068682	-0.546308
H137	H	0.756770	-0.031186	-0.547051
H138	H	0.174750	0.187180	-0.000054
H139	H	0.506711	0.125720	-0.442097
H140	H	0.412743	0.145454	-0.000039
C141	C	0.074887	0.198198	-0.000013
C142	C	0.102434	0.237128	0.000026
C143	C	0.071237	0.281020	0.000106
H144	H	0.054952	0.199911	-0.053776
H145	H	0.054978	0.199855	0.053793
H146	H	0.122335	0.235472	-0.053775
H147	H	0.122368	0.235431	0.053785
H148	H	0.051328	0.282676	0.053912
H149	H	0.051303	0.282728	-0.053658
H150	H	0.089923	0.307439	0.000140
C151	C	0.066176	-0.074409	-0.000103
C152	C	0.038632	-0.113340	-0.000090
C153	C	0.069831	-0.157231	-0.000035
H154	H	0.086109	-0.076112	-0.053865
H155	H	0.086087	-0.076073	0.053704
H156	H	0.018729	-0.111677	-0.053891
H157	H	0.018700	-0.111653	0.053669
H158	H	0.089742	-0.158895	0.053771
H159	H	0.089762	-0.158929	-0.053799
H160	H	0.051147	-0.183651	-0.000018
C161	C	0.312875	0.156477	-0.000005
C162	C	0.340420	0.195408	0.000039
C163	C	0.309221	0.239299	0.000115
H164	H	0.292942	0.158189	-0.053771
H165	H	0.292964	0.158132	0.053798
H166	H	0.360323	0.193753	-0.053759
H167	H	0.360352	0.193712	0.053801
H168	H	0.289310	0.240954	0.053918
H169	H	0.289290	0.241006	-0.053652
H170	H	0.327906	0.265718	0.000154
C171	C	0.433262	-0.547614	-0.000060
C172	C	0.442185	-0.598462	-0.000073
C173	C	0.397895	-0.617684	-0.000098
H174	H	0.415207	-0.536899	0.053713
H175	H	0.415222	-0.536880	-0.053856
H176	H	0.460216	-0.609191	0.053718
H177	H	0.460232	-0.609191	-0.053842
H178	H	0.379856	-0.606950	-0.053894
H179	H	0.379844	-0.606965	0.053676
H180	H	0.403944	-0.652186	-0.000115
C181	C	0.659931	-0.705851	-0.000035
C182	C	0.698195	-0.744050	-0.000021
C183	C	0.742595	-0.725037	0.000031
H184	H	0.662032	-0.686444	-0.053799
H185	H	0.661995	-0.686454	0.053770
H186	H	0.696132	-0.763439	-0.053821
H187	H	0.696110	-0.763461	0.053739
H188	H	0.744659	-0.705640	0.053836
H189	H	0.744691	-0.705630	-0.053734
H190	H	0.768562	-0.750952	0.000049
H191	H	0.343360	-0.015426	-0.000091
C192	C	0.217426	-0.072875	-0.000115
C193	C	0.189886	-0.111810	-0.000108
C194	C	0.221088	-0.155698	-0.000061
H195	H	0.237358	-0.074574	-0.053879
H196	H	0.237338	-0.074540	0.053690
H197	H	0.169982	-0.110146	-0.053908
H198	H	0.169955	-0.110126	0.053652
H199	H	0.241000	-0.157362	0.053745
H200	H	0.241019	-0.157392	-0.053825
H201	H	0.202407	-0.182120	-0.000047
C202	C	0.434230	-0.442463	-0.000088
C203	C	0.395298	-0.470007	-0.000103
C204	C	0.351408	-0.438808	-0.000163
H205	H	0.432526	-0.422528	0.053674
H206	H	0.432566	-0.422554	-0.053896
H207	H	0.396961	-0.489908	0.053700
H208	H	0.396986	-0.489941	-0.053860
H209	H	0.349744	-0.418899	-0.053971
H210	H	0.349709	-0.418874	0.053599
H211	H	0.324988	-0.457492	-0.000182
C212	C	0.665027	-0.195900	-0.000272
C213	C	0.667299	-0.225209	-0.079602
C214	C	0.711091	-0.256561	-0.079774
H215	H	0.691542	-0.177347	-0.000332
H216	H	0.666674	-0.215848	0.053483
H217	H	0.665658	-0.205264	-0.133343
H218	H	0.640795	-0.243773	-0.079559
H219	H	0.712738	-0.276508	-0.026019
H220	H	0.737602	-0.238003	-0.079832
H221	H	0.712637	-0.276453	-0.133594
H222	H	0.117558	-0.061861	-0.000163
H223	H	-0.067947	0.184708	-0.000086
C224	C	-0.197092	0.151228	0.000109
C225	C	-0.168512	0.154100	0.079465
C226	C	-0.149368	0.198430	0.079694
H227	H	-0.177649	0.153317	-0.053609
H228	H	-0.222940	0.177265	0.000169
H229	H	-0.142668	0.128071	0.079396
H230	H	-0.187945	0.152020	0.133196
H231	H	-0.175215	0.224467	0.079754
H232	H	-0.129926	0.200515	0.025972
H233	H	-0.129978	0.200387	0.133539
H234	H	0.493213	-0.165279	-0.000113
H235	H	0.654093	-0.095896	-0.000149
H236	H	-0.293777	0.138273	-0.000096
C237	C	0.589622	0.154728	-0.567196
C238	C	0.553292	0.190789	-0.535937
C239	C	0.562554	0.236127	-0.569253
H240	H	0.620338	0.161455	-0.545135
H241	H	0.589824	0.154296	-0.633068
H242	H	0.553095	0.191222	-0.470079
H243	H	0.522572	0.184078	-0.557996
H244	H	0.562756	0.235695	-0.635125
H245	H	0.593271	0.242849	-0.547190
H246	H	0.537903	0.260599	-0.548056
C247	C	0.706837	-0.433752	-0.000162
C248	C	0.745767	-0.406205	-0.000200
C249	C	0.789658	-0.437402	-0.000277
H250	H	0.708550	-0.453685	0.053601
H251	H	0.708493	-0.453662	-0.053968
H252	H	0.744111	-0.386302	0.053600
H253	H	0.744069	-0.386272	-0.053959
H254	H	0.791314	-0.457313	-0.054083
H255	H	0.791367	-0.457334	0.053487
H256	H	0.816077	-0.418716	-0.000311
H257	H	0.023514	0.185643	-0.000077
H258	H	0.646911	-0.802415	-0.000075
C259	C	0.474880	-0.785424	0.000006
C260	C	0.436615	-0.747225	0.000040
C261	C	0.392216	-0.766238	0.000110
H262	H	0.472770	-0.804830	-0.053758
H263	H	0.472824	-0.804823	0.053811
H264	H	0.438670	-0.727835	-0.053759
H265	H	0.438709	-0.727816	0.053801
H266	H	0.390160	-0.785637	0.053915
H267	H	0.390111	-0.785644	-0.053655
H268	H	0.366248	-0.740323	0.000142
H269	H	0.487892	-0.688875	-0.000037
H270	H	0.446777	-0.391080	-0.000020
C271	C	0.435763	-0.291212	-0.000070
C272	C	0.396829	-0.318753	-0.000076
C273	C	0.352941	-0.287550	-0.000118
H274	H	0.434067	-0.271280	0.053695
H275	H	0.434096	-0.271301	-0.053875
H276	H	0.398495	-0.338656	0.053723
H277	H	0.398510	-0.338684	-0.053837
H278	H	0.351274	-0.267638	-0.053923
H279	H	0.351249	-0.267619	0.053647
H280	H	0.326519	-0.306232	-0.000131
C281	C	0.482197	-0.065399	-0.000138
C282	C	0.443255	-0.092930	-0.000142
C283	C	0.399373	-0.061719	-0.000171
H284	H	0.480507	-0.045469	0.053630
H285	H	0.480531	-0.045485	-0.053939
H286	H	0.444920	-0.112836	0.053654
H287	H	0.444929	-0.112859	-0.053906
H288	H	0.397707	-0.041805	-0.053972
H289	H	0.397688	-0.041791	0.053598
H290	H	0.372946	-0.080394	-0.000182
C291	C	0.705229	-0.585102	0.000110
C292	C	0.707514	-0.614387	0.079471
C293	C	0.751323	-0.645713	0.079686
H294	H	0.706903	-0.605070	-0.053605
H295	H	0.731725	-0.566515	0.000153
H296	H	0.681026	-0.632973	0.079420
H297	H	0.705849	-0.594432	0.133199
H298	H	0.777819	-0.627126	0.079730
H299	H	0.752993	-0.665678	0.025969
H300	H	0.752881	-0.665584	0.133536
H301	H	0.694282	-0.485125	-0.000099
