data_functionalizedCrystal
_audit_creation_method	'MofGen! by Chris Wilmer'
_symmetry_space_group_name_H-M	'P1'
_symmetry_Int_Tables_number	1
_symmetry_cell_setting	triclinic
loop_
_symmetry_equiv_pos_as_xyz
  x,y,z
_cell_length_a	19.077105
_cell_length_b	10.686285
_cell_length_c	19.077251
_cell_angle_alpha	92.254502
_cell_angle_beta	94.506220
_cell_angle_gamma	83.162422
loop_
_atom_site_label
_atom_site_type_symbol
_atom_site_fract_x
_atom_site_fract_y
_atom_site_fract_z
Zn1	Zn	1.118976	-0.613294	0.416686
Zn2	Zn	1.122533	-0.815419	0.290509
Zn3	Zn	0.995650	-0.595601	0.294810
Zn4	Zn	1.009406	-0.815386	0.403627
O5	O	1.061641	-0.709925	0.351408
O6	O	1.218404	-0.647524	0.403613
O7	O	1.101433	-0.778868	0.192733
O8	O	1.004764	-0.421376	0.318242
O9	O	1.221017	-0.796025	0.310912
O10	O	1.095371	-0.434375	0.407784
O11	O	1.008213	-0.617369	0.195894
O12	O	0.898519	-0.617337	0.305580
O13	O	1.028210	-0.795969	0.503705
O14	O	0.908626	-0.778813	0.385527
O15	O	1.108710	-0.647493	0.513299
O16	O	1.114772	-0.991986	0.298249
O17	O	1.031658	-0.991962	0.381357
C18	C	0.877914	-0.696153	0.344604
C19	C	0.799317	-0.690293	0.341708
C20	C	1.075114	-1.037759	0.337935
C21	C	1.080943	-1.178015	0.332197
C22	C	0.767674	-0.771727	0.381896
C23	C	0.693823	-0.766205	0.379180
C24	C	0.651616	-0.679253	0.336271
C25	C	0.683263	-0.597809	0.296081
C26	C	0.757113	-0.603326	0.298802
C27	C	0.430182	-0.653718	0.323681
C28	C	0.356328	-0.648209	0.320962
C29	C	0.366892	-0.816604	0.404062
C30	C	0.440743	-0.822119	0.406776
C31	C	0.472384	-0.740671	0.366589
N32	N	0.576128	-0.673608	0.333491
N33	N	0.547870	-0.746310	0.369373
C34	C	1.246086	-0.723752	0.358239
C35	C	1.324685	-0.729644	0.361150
C36	C	1.069597	-0.723701	0.534715
C37	C	1.072988	-0.729571	0.612830
C38	C	1.048136	-0.380813	0.364950
C39	C	1.042381	-0.240565	0.370720
C40	C	1.026048	-0.648247	0.651173
C41	C	1.029232	-0.653773	0.724570
C42	C	1.079359	-0.740619	0.759622
C43	C	1.126301	-0.821952	0.721274
C44	C	1.123113	-0.816431	0.647878
C45	C	1.094093	-0.766153	0.978955
C46	C	1.097278	-0.771666	1.052356
C47	C	1.000207	-0.603488	1.055647
C48	C	0.997027	-0.597969	0.982250
C49	C	1.043967	-0.679307	0.943907
N50	N	1.082615	-0.746267	0.834645
N51	N	1.040706	-0.673664	0.868885
C52	C	1.053716	-0.696226	1.168812
C53	C	1.050338	-0.690341	1.090699
H54	H	0.802034	-0.842538	0.416835
H55	H	0.455935	-0.587406	0.290953
F56	F	0.311409	-0.555665	0.275285
H57	H	0.991006	-0.587555	0.755786
H58	H	0.648892	-0.527005	0.261146
F59	F	0.660150	-0.852879	0.421954
H60	H	0.782875	-0.537007	0.266080
H61	H	1.132307	-0.832397	0.947744
F62	F	1.129920	-1.248269	0.283338
F63	F	0.950253	-0.516932	1.096458
H64	H	1.004907	-1.186819	0.408092
H65	H	0.985233	-0.577521	0.622640
H66	H	0.956207	-0.527254	0.953715
H67	H	1.161342	-0.882645	0.616660
H68	H	1.138100	-0.842387	1.080893
H69	H	0.475104	-0.892927	0.441716
F70	F	0.333212	-0.903283	0.446828
H71	H	1.167112	-0.892670	0.749819
