data_functionalizedCrystal
_audit_creation_method	'MofGen! by Chris Wilmer'
_symmetry_space_group_name_H-M	'P1'
_symmetry_Int_Tables_number	1
_symmetry_cell_setting	triclinic
loop_
_symmetry_equiv_pos_as_xyz
  x,y,z
_cell_length_a	15.297475
_cell_length_b	13.897448
_cell_length_c	15.296720
_cell_angle_alpha	80.353909
_cell_angle_beta	88.382886
_cell_angle_gamma	80.320483
loop_
_atom_site_label
_atom_site_type_symbol
_atom_site_fract_x
_atom_site_fract_y
_atom_site_fract_z
Zn1	Zn	1.253455	-0.750725	0.726608
Zn2	Zn	1.278728	-0.889621	0.580126
Zn3	Zn	1.132329	-0.696535	0.554848
Zn4	Zn	1.106953	-0.880140	0.701254
O5	O	1.192866	-0.804255	0.640709
O6	O	1.379388	-0.795796	0.728367
O7	O	1.280504	-0.845298	0.454198
O8	O	1.148440	-0.568756	0.577665
O9	O	1.397955	-0.897843	0.620747
O10	O	1.237431	-0.608569	0.703856
O11	O	1.172946	-0.703438	0.435627
O12	O	1.006383	-0.694244	0.553080
O13	O	1.105191	-0.881683	0.827192
O14	O	0.987740	-0.829138	0.660644
O15	O	1.212825	-0.786602	0.845820
O16	O	1.255899	-1.023331	0.596162
O17	O	1.129697	-1.016365	0.685154
C18	C	0.965278	-0.754783	0.601368
C19	C	0.867911	-0.733644	0.584559
C20	C	0.554781	-0.955341	0.760852
C21	C	0.646262	-0.975208	0.776642
C22	C	0.701679	-0.914818	0.728623
C23	C	0.665605	-0.834559	0.664810
C24	C	0.574115	-0.814694	0.649012
C25	C	0.721013	-0.774172	0.616784
C26	C	0.684939	-0.693913	0.552970
C27	C	0.593458	-0.674051	0.537176
C28	C	0.538042	-0.734441	0.585196
C29	C	0.812503	-0.794037	0.632581
C30	C	0.831837	-0.653391	0.520742
C31	C	0.740356	-0.633523	0.504951
C32	C	1.192807	-1.054852	0.640673
C33	C	1.192856	-1.162080	0.640700
C34	C	1.192939	-1.358403	0.640771
C35	C	1.192890	-1.249155	0.640734
C36	C	1.421344	-0.853922	0.680204
C37	C	1.518707	-0.875087	0.697035
C38	C	1.153358	-0.839129	0.869177
C39	C	1.136522	-0.853991	0.966536
C40	C	1.192947	-0.552688	0.640769
C41	C	1.192981	-0.445485	0.640795
C42	C	1.232271	-0.769458	0.413139
C43	C	1.249277	-0.754362	0.315809
C44	C	1.313229	-0.697877	1.279771
C45	C	1.329053	-0.683917	1.188298
C46	C	1.280921	-0.726434	1.132853
C47	C	1.216964	-0.782914	1.168890
C48	C	1.201143	-0.796882	1.260373
C49	C	1.168836	-0.825439	1.113455
C50	C	1.104878	-0.881919	1.149492
C51	C	1.089060	-0.895883	1.240966
C52	C	1.137191	-0.853367	1.296411
C53	C	1.184656	-0.811471	1.021973
C54	C	1.072570	-0.910475	1.002574
C55	C	1.056746	-0.924435	1.094047
H56	H	0.463549	-0.718267	0.572344
C57	C	1.456698	-0.687460	1.333596
C58	C	1.366134	-0.651152	1.340716
H59	H	1.489361	-0.658616	1.371226
H60	H	1.475265	-0.671050	1.273965
H61	H	1.466889	-0.757340	1.350785
H62	H	1.355942	-0.581273	1.323521
H63	H	1.347560	-0.667556	1.400359
H64	H	1.124311	-0.864730	1.370897
C65	C	1.364603	-0.652524	1.012380
C66	C	1.298306	-0.711080	1.032303
H67	H	1.375330	-0.643036	0.950300
H68	H	1.417539	-0.684658	1.042833
H69	H	1.345894	-0.590156	1.030482
H70	H	1.317019	-0.773451	1.014207
H71	H	1.245360	-0.678947	1.001839
C72	C	1.009146	-1.082775	1.114798
C73	C	0.986450	-0.986524	1.133664
H74	H	0.965744	-1.121102	1.139252
H75	H	1.065396	-1.111966	1.139962
H76	H	1.011675	-1.080532	1.052381
H77	H	0.983927	-0.988766	1.196081
H78	H	0.930184	-0.957327	1.108503
C79	C	0.500987	-1.019084	0.904232
C80	C	0.493864	-1.021706	0.813632
H81	H	0.463380	-1.060062	0.936818
H82	H	0.483776	-0.953020	0.914556
H83	H	0.560635	-1.042409	0.922767
H84	H	0.434216	-0.998375	0.795095
H85	H	0.511069	-1.087784	0.803302
H86	H	1.036988	-0.941882	1.270306
H87	H	0.675627	-1.040557	0.828598
H88	H	1.236730	-0.765483	0.992640
C89	C	0.621760	-0.537018	0.428219
C90	C	0.553805	-0.585833	0.467029
H91	H	0.597277	-0.482553	0.384918
H92	H	0.663232	-0.581604	0.400804
H93	H	0.650846	-0.513778	0.472616
H94	H	0.524722	-0.609080	0.422633
H95	H	0.512317	-0.541239	0.494444
H96	H	0.841865	-0.859385	0.684539
H97	H	1.033379	-0.945098	0.957431
H98	H	1.381129	-0.637934	1.158964
H99	H	0.876958	-0.604218	0.481639
C100	C	0.822197	-1.019844	0.812140
C101	C	0.802236	-0.936649	0.745986
H102	H	0.884278	-1.033315	0.822865
H103	H	0.804131	-1.075230	0.793309
H104	H	0.791727	-1.007398	0.865115
H105	H	0.832701	-0.949098	0.693008
H106	H	0.820311	-0.881250	0.764813
H107	H	0.710971	-0.568175	0.452993
