data_functionalizedCrystal
_audit_creation_method	'MofGen! by Chris Wilmer'
_symmetry_space_group_name_H-M	'P1'
_symmetry_Int_Tables_number	1
_symmetry_cell_setting	triclinic
loop_
_symmetry_equiv_pos_as_xyz
  x,y,z
_cell_length_a	10.540539
_cell_length_b	19.188930
_cell_length_c	9.616153
_cell_angle_alpha	89.992615
_cell_angle_beta	89.995174
_cell_angle_gamma	83.835137
loop_
_atom_site_label
_atom_site_type_symbol
_atom_site_fract_x
_atom_site_fract_y
_atom_site_fract_z
O1	O	1.683724	0.098389	-0.115598
O2	O	1.314107	0.107659	-0.115617
O3	O	1.509582	0.001439	-0.115579
O4	O	1.488249	0.204608	-0.115635
O5	O	1.509555	0.001441	0.115712
O6	O	1.314080	0.107661	0.115675
O7	O	1.683697	0.098391	0.115694
Zn8	Zn	1.498885	0.103026	0.152407
Zn9	Zn	1.498920	0.103023	-0.152330
O10	O	1.488222	0.204610	0.115657
C11	C	1.266806	0.106965	0.000027
C12	C	1.125904	0.104885	0.000021
C13	C	1.508878	-0.024575	0.000070
C14	C	1.506804	-0.102094	0.000082
C15	C	0.944233	0.025184	0.000583
C16	C	1.090805	0.027292	0.000047
C17	C	1.063423	0.142224	-0.132063
C18	C	0.916937	0.139576	-0.132158
C19	C	0.916384	0.141157	0.130863
C20	C	1.063350	0.141872	0.132594
C21	C	1.621502	-0.146253	0.000095
C22	C	1.619554	-0.219090	0.000072
C23	C	1.502901	-0.247764	0.000065
C24	C	1.388187	-0.203595	0.000045
C25	C	1.390139	-0.130760	0.000053
N26	N	1.413724	-0.356363	0.078774
N27	N	1.411878	-0.425554	0.078769
C28	C	1.497014	-0.467212	0.000037
N29	N	1.584085	-0.437067	-0.078672
N30	N	1.585935	-0.367870	-0.078661
C31	C	1.500772	-0.326741	0.000055
C32	C	1.609608	-0.590350	0.000023
C33	C	1.607655	-0.663188	-0.000008
C34	C	1.376285	-0.647691	-0.000021
C35	C	1.378241	-0.574855	-0.000004
C36	C	1.494906	-0.546189	0.000025
C37	C	1.730998	0.099085	0.000047
C38	C	1.871901	0.101165	0.000044
C39	C	1.488927	0.230625	0.000004
C40	C	1.491000	0.308143	-0.000017
N41	N	1.498870	0.103028	0.360381
N42	N	1.498945	0.103016	-0.360304
C43	C	1.393992	0.159658	0.580731
C44	C	1.394216	0.159870	0.419564
C45	C	1.631228	0.119601	0.418832
C46	C	1.630655	0.120002	0.580050
C47	C	1.472715	0.029640	0.580311
C48	C	1.469658	0.030115	0.419084
H49	H	1.134055	-0.002088	0.094731
H50	H	1.704603	-0.567009	0.000040
H51	H	1.654959	0.172529	0.378429
H52	H	1.295284	0.149839	0.619541
O53	O	0.880393	0.103009	-0.262914
H54	H	0.812947	0.139155	-0.324562
O55	O	0.875343	0.107887	0.263483
H56	H	0.769753	0.109688	0.265390
O57	O	1.120583	0.107863	-0.262264
H58	H	1.193474	0.064198	-0.233235
H59	H	1.716500	-0.122918	0.000113
O60	O	1.731372	-0.710822	-0.000001
H61	H	1.735989	-0.744390	0.094257
O62	O	0.907252	-0.015425	0.126054
H63	H	0.836914	0.018107	0.189371
O64	O	1.347661	0.008761	0.634231
H65	H	1.365378	-0.041151	0.692906
O66	O	1.263869	0.146679	0.367214
H67	H	1.263896	0.146819	0.251789
H68	H	1.104902	0.114594	0.230309
O69	O	1.266418	-0.083129	0.000049
H70	H	1.287374	-0.027665	0.000053
H71	H	1.281303	-0.671037	-0.000034
H72	H	1.086329	0.198442	0.140553
O73	O	1.091371	0.217703	-0.138619
H74	H	1.150236	0.229430	-0.047590
H75	H	1.372296	0.017553	0.380883
O76	O	1.415806	0.231365	0.634337
H77	H	1.501076	0.226839	0.702790
H78	H	0.867922	0.197202	0.131740
O79	O	0.905123	-0.015262	-0.124154
H80	H	0.834395	0.018518	-0.186536
H81	H	1.712958	-0.255051	0.000077
H82	H	1.284841	-0.538899	-0.000006
H83	H	1.133213	-0.002297	-0.094785
H84	H	1.410915	0.214309	0.380970
H85	H	1.293208	-0.226946	0.000036
H86	H	1.653830	0.173535	0.617625
O87	O	1.564358	-0.028409	0.365745
H88	H	1.615480	-0.055299	0.454907
H89	H	1.711170	0.080409	0.619052
H90	H	0.867739	0.195380	-0.138168
H91	H	1.711167	0.079472	0.380494
O92	O	1.574084	-0.026211	0.630827
H93	H	1.642823	-0.001873	0.697903
