data_functionalizedCrystal
_audit_creation_method	'MofGen! by Chris Wilmer'
_symmetry_space_group_name_H-M	'P1'
_symmetry_Int_Tables_number	1
_symmetry_cell_setting	triclinic
loop_
_symmetry_equiv_pos_as_xyz
  x,y,z
_cell_length_a	13.897448
_cell_length_b	17.077404
_cell_length_c	13.897441
_cell_angle_alpha	90.020654
_cell_angle_beta	90.030599
_cell_angle_gamma	90.015662
loop_
_atom_site_label
_atom_site_type_symbol
_atom_site_fract_x
_atom_site_fract_y
_atom_site_fract_z
Zn1	Zn	-0.384036	1.200101	0.545379
Zn2	Zn	-0.545358	1.200014	0.384080
Zn3	Zn	-0.384073	1.068827	0.384098
Zn4	Zn	-0.545285	1.068812	0.545333
O5	O	-0.464688	1.134439	0.464723
O6	O	-0.405451	1.309936	0.523994
O7	O	-0.524009	1.182582	0.249101
O8	O	-0.249086	1.086283	0.405518
O9	O	-0.523974	1.309873	0.405489
O10	O	-0.249060	1.182729	0.524011
O11	O	-0.405514	1.086200	0.249114
O12	O	-0.405443	0.958978	0.405474
O13	O	-0.523850	1.086258	0.680321
O14	O	-0.523885	0.958967	0.523933
O15	O	-0.405381	1.182715	0.680355
O16	O	-0.680330	1.182568	0.405445
O17	O	-0.680277	1.086174	0.523916
C18	C	-0.464661	0.930491	0.464701
C19	C	-0.464672	0.843241	0.464715
C20	C	-0.403068	0.802285	0.526515
C21	C	-0.403074	0.720304	0.526519
C22	C	-0.464690	0.679282	0.464728
C23	C	-0.526298	0.720244	0.402921
C24	C	-0.526286	0.802223	0.402912
C25	C	-0.526320	0.549374	0.402945
C26	C	-0.526333	0.467389	0.402954
C27	C	-0.403107	0.467455	0.526552
C28	C	-0.403096	0.549434	0.526543
C29	C	-0.464705	0.590391	0.464737
C30	C	-0.715303	1.134381	0.464695
C31	C	-0.822516	1.134429	0.464715
C32	C	-1.018812	1.134511	0.464776
C33	C	-0.909579	1.134463	0.464745
C34	C	-0.213095	1.134518	0.464772
C35	C	-0.105881	1.134551	0.464793
C36	C	-0.464603	1.134494	0.716316
C37	C	-0.464567	1.134518	0.823530
C38	C	-0.464716	1.339183	0.464745
C39	C	-0.464728	1.426433	0.464754
C40	C	-0.464704	1.134428	0.214108
C41	C	-0.464468	1.134557	0.106895
C42	C	-0.464501	1.134539	1.019825
C43	C	-0.464540	1.134525	0.910592
H44	H	-0.576508	0.433991	0.352639
H45	H	-0.576486	0.582718	0.352614
O46	O	-0.343390	0.427590	0.586637
C47	C	-0.398393	0.380199	0.648859
H48	H	-0.471448	0.367891	0.614707
H49	H	-0.409082	0.411819	0.720318
C50	C	-0.255620	0.317461	0.708380
C51	C	-0.345345	0.302338	0.666429
H52	H	-0.222897	0.269434	0.719223
H53	H	-0.218562	0.349391	0.666463
H54	H	-0.264540	0.343813	0.767924
H55	H	-0.336423	0.275996	0.606881
H56	H	-0.382400	0.270402	0.708337
O57	O	-0.343369	0.680436	0.586606
C58	C	-0.398373	0.633046	0.648828
H59	H	-0.471428	0.620737	0.614673
H60	H	-0.409065	0.664668	0.720285
C61	C	-0.255602	0.570310	0.708356
C62	C	-0.345326	0.555186	0.666403
H63	H	-0.222879	0.522283	0.719201
H64	H	-0.218544	0.602239	0.666439
H65	H	-0.264525	0.596663	0.767899
H66	H	-0.336402	0.528842	0.606856
H67	H	-0.382382	0.523251	0.708311
O68	O	-0.343198	0.589372	0.586433
C69	C	-0.280811	0.636767	0.531616
H70	H	-0.314740	0.649010	0.458454
H71	H	-0.209317	0.605182	0.521151
C72	C	-0.221737	0.699627	0.674563
C73	C	-0.263412	0.714670	0.584706
H74	H	-0.211000	0.747680	0.707312
H75	H	-0.263765	0.667694	0.711495
H76	H	-0.162163	0.673304	0.665829
H77	H	-0.322990	0.740983	0.593442
H78	H	-0.221394	0.746608	0.547777
H79	H	-0.576451	0.835568	0.352588
O80	O	-0.343351	0.842166	0.586643
C81	C	-0.398335	0.889616	0.648828
H82	H	-0.474317	0.864904	0.654657
H83	H	-0.401613	0.951735	0.618993
C84	C	-0.258009	0.921270	0.742026
C85	C	-0.351329	0.890913	0.749191
H86	H	-0.229012	0.922073	0.803933
H87	H	-0.220964	0.889304	0.700129
H88	H	-0.260753	0.973033	0.717159
H89	H	-0.348582	0.839148	0.774045
H90	H	-0.388372	0.922870	0.791095
O91	O	-0.586288	0.680482	0.342945
C92	C	-0.682448	0.700497	0.363872
H93	H	-0.684481	0.760034	0.400939
H94	H	-0.715003	0.654375	0.413415
C95	C	-0.738266	0.631117	0.224208
C96	C	-0.740764	0.704244	0.269728
H97	H	-0.774240	0.633425	0.166137
H98	H	-0.673481	0.617629	0.210111
H99	H	-0.765394	0.592689	0.265504
H100	H	-0.713626	0.742668	0.228437
H101	H	-0.805545	0.717738	0.283816
