data_functionalizedCrystal
_audit_creation_method	'MofGen! by Chris Wilmer'
_symmetry_space_group_name_H-M	'P1'
_symmetry_Int_Tables_number	1
_symmetry_cell_setting	triclinic
loop_
_symmetry_equiv_pos_as_xyz
  x,y,z
_cell_length_a	21.395362
_cell_length_b	10.686285
_cell_length_c	21.395356
_cell_angle_alpha	85.610420
_cell_angle_beta	89.964122
_cell_angle_gamma	85.645931
loop_
_atom_site_label
_atom_site_type_symbol
_atom_site_fract_x
_atom_site_fract_y
_atom_site_fract_z
Zn1	Zn	0.977029	-0.501825	-0.335536
Zn2	Zn	1.477029	-0.001825	0.164464
Zn3	Zn	0.985028	-0.712833	-0.222749
Zn4	Zn	1.485028	-0.212833	0.277251
Zn5	Zn	0.872263	-0.501920	-0.230734
Zn6	Zn	1.372263	-0.001920	0.269266
Zn7	Zn	0.880294	-0.712823	-0.327454
Zn8	Zn	1.380294	-0.212823	0.172546
O9	O	0.928654	-0.607350	-0.279118
O10	O	1.428654	-0.107350	0.220882
O11	O	1.065767	-0.529781	-0.320616
O12	O	1.565767	-0.029781	0.179384
O13	O	0.970055	-0.684898	-0.136129
O14	O	1.470055	-0.184898	0.363871
O15	O	0.879451	-0.325336	-0.251360
O16	O	1.379451	0.174664	0.248640
O17	O	1.071643	-0.684807	-0.237751
O18	O	1.571643	-0.184807	0.262249
O19	O	0.956423	-0.325267	-0.328358
O20	O	1.456423	0.174733	0.171642
O21	O	0.887207	-0.529941	-0.141995
O22	O	1.387207	-0.029941	0.358005
O23	O	0.785651	-0.529932	-0.243524
O24	O	1.285651	-0.029932	0.256476
O25	O	0.893140	-0.684790	-0.416206
O26	O	1.393140	-0.184790	0.083794
O27	O	0.791552	-0.684882	-0.314583
O28	O	1.291552	-0.184882	0.185417
O29	O	0.964211	-0.529771	-0.422144
O30	O	1.464211	-0.029771	0.077856
O31	O	0.977844	-0.889403	-0.229914
O32	O	1.477844	-0.389403	0.270086
O33	O	0.900896	-0.889396	-0.306841
O34	O	1.400896	-0.389396	0.193159
C35	C	0.765868	-0.607417	-0.279043
C36	C	1.265868	-0.107417	0.220957
C37	C	0.696229	-0.607476	-0.279025
C38	C	1.196229	-0.107476	0.220975
C39	C	0.941127	-0.935182	-0.266648
C40	C	1.441127	-0.435182	0.233352
C41	C	0.946520	-1.075430	-0.261334
C42	C	1.446520	-0.575430	0.238666
C43	C	0.666609	-0.688265	-0.315962
C44	C	1.166609	-0.188265	0.184038
C45	C	0.601173	-0.688234	-0.315991
C46	C	1.101173	-0.188234	0.184009
C47	C	0.565359	-0.607427	-0.279071
C48	C	1.065359	-0.107427	0.220929
C49	C	0.594987	-0.526622	-0.242132
C50	C	1.094987	-0.026622	0.257868
C51	C	0.660422	-0.526647	-0.242109
C52	C	1.160422	-0.026647	0.257891
C53	C	0.461254	-0.597282	-0.223051
C54	C	0.961254	-0.097282	0.276949
C55	C	0.395820	-0.597266	-0.223073
C56	C	0.895820	-0.097266	0.276927
C57	C	0.363535	-0.607345	-0.279144
C58	C	0.863535	-0.107345	0.220856
C59	C	0.396693	-0.617466	-0.335193
C60	C	0.896693	-0.117466	0.164807
C61	C	0.462128	-0.617490	-0.335170
C62	C	0.962128	-0.117490	0.164830
C63	C	0.494406	-0.607391	-0.279093
C64	C	0.994406	-0.107391	0.220907
C65	C	0.262962	-0.688105	-0.316115
C66	C	0.762962	-0.188105	0.183885
C67	C	0.197524	-0.688065	-0.316146
C68	C	0.697524	-0.188065	0.183854
C69	C	0.191339	-0.526460	-0.242281
C70	C	0.691339	-0.026460	0.257719
C71	C	0.256775	-0.526493	-0.242257
C72	C	0.756775	-0.026493	0.257743
C73	C	0.292583	-0.607322	-0.279172
C74	C	0.792583	-0.107322	0.220828
C75	C	1.092074	-0.607284	-0.279194
C76	C	1.592074	-0.107284	0.220806
C77	C	1.161715	-0.607256	-0.279227
C78	C	1.661715	-0.107256	0.220773
C79	C	0.928679	-0.607269	-0.442545
C80	C	1.428679	-0.107269	0.057455
C81	C	0.928691	-0.607235	-0.512187
C82	C	1.428691	-0.107235	-0.012187
C83	C	0.916149	-0.278238	-0.291652
C84	C	1.416149	0.221762	0.208348
C85	C	0.910820	-0.137991	-0.296993
C86	C	1.410820	0.362009	0.203007
C87	C	0.965748	-0.526315	-1.017084
C88	C	1.465748	-0.026315	-0.517084
C89	C	0.965744	-0.526346	-0.951648
C90	C	1.465744	-0.026346	-0.451648
C91	C	0.928738	-0.607067	-0.915832
C92	C	1.428738	-0.107067	-0.415832
C93	C	0.891744	-0.687786	-0.945458
C94	C	1.391744	-0.187786	-0.445458
C95	C	0.891754	-0.687762	-1.010893
C96	C	1.391754	-0.187762	-0.510893
C97	C	0.872653	-0.617091	-0.811757
C98	C	1.372653	-0.117091	-0.311757
C99	C	0.872642	-0.617106	-0.746323
C100	C	1.372642	-0.117106	-0.246323
C101	C	0.928709	-0.607147	-0.714008
C102	C	1.428709	-0.107147	-0.214008
C103	C	0.984788	-0.597148	-0.747136
C104	C	1.484788	-0.097148	-0.247136
C105	C	0.984797	-0.597124	-0.812571
C106	C	1.484797	-0.097124	-0.312571
C107	C	0.928724	-0.607102	-0.844879
C108	C	1.428724	-0.107102	-0.344879
C109	C	0.965699	-0.526472	-0.613437
C110	C	1.465699	-0.026472	-0.113437
C111	C	0.965697	-0.526511	-0.547998
C112	C	1.465697	-0.026511	-0.047998
C113	C	0.891691	-0.687945	-0.541810
C114	C	1.391691	-0.187945	-0.041810
C115	C	0.891699	-0.687913	-0.607247
C116	C	1.391699	-0.187913	-0.107247
C117	C	0.928702	-0.607169	-0.643056
C118	C	1.428702	-0.107169	-0.143056
C119	C	0.928660	-0.607340	-0.116331
C120	C	1.428660	-0.107340	0.383669
C121	C	0.928757	-0.607019	-0.046703
C122	C	1.428757	-0.107019	0.453297
H123	H	0.577051	-0.754022	-0.346071
H124	H	1.077051	-0.254022	0.153929
H125	H	0.995829	-0.460725	-0.642594
H126	H	1.495829	0.039275	-0.142594
C127	C	1.006389	-0.437733	-0.515418
C128	C	1.506389	0.062267	-0.015418
H129	H	1.028422	-0.389637	-0.546120
H130	H	1.528422	0.110363	-0.046120
H131	H	1.035523	-0.485990	-0.488067
H132	H	1.535523	0.014010	0.011933
H133	H	0.980322	-0.382778	-0.491975
H134	H	1.480322	0.117222	0.008025
C135	C	1.046478	-0.586143	-0.849012
C136	C	1.546478	-0.086143	-0.349012
H137	H	1.038450	-0.587549	-0.892610
H138	H	1.538450	-0.087549	-0.392610
H139	H	1.075439	-0.654775	-0.835685
H140	H	1.575439	-0.154775	-0.335685
H141	H	1.063592	-0.509315	-0.841230
H142	H	1.563592	-0.009315	-0.341230
C143	C	0.693005	-0.437782	-0.201473
C144	C	1.193005	0.062218	0.298527
H145	H	0.662307	-0.389653	-0.179486
H146	H	1.162307	0.110347	0.320514
H147	H	0.716482	-0.382881	-0.227564
H148	H	1.216482	0.117119	0.272436
H149	H	0.720324	-0.485998	-0.172288
H150	H	1.220324	0.014002	0.327712
H151	H	0.826993	-0.625201	-0.838062
H152	H	1.326993	-0.125201	-0.338062
H153	H	0.162180	-0.460659	-0.212224
H154	H	0.662180	0.039341	0.287776
C155	C	0.863961	-1.065410	-0.343734
C156	C	1.363961	-0.565410	0.156266
H157	H	0.866367	-0.977508	-0.341300
H158	H	1.366367	-0.477508	0.158700
H159	H	0.822691	-1.087048	-0.333703
H160	H	1.322691	-0.587048	0.166297
H161	H	0.873926	-1.086878	-0.385040
H162	H	1.373926	-0.586878	0.114960
H163	H	0.981208	-1.129169	-0.226732
H164	H	1.481208	-0.629169	0.273268
H165	H	0.173409	-0.753851	-0.346228
H166	H	0.673409	-0.253851	0.153772
H167	H	0.861562	-0.753675	-0.512649
H168	H	1.361562	-0.253675	-0.012649
C169	C	0.289360	-0.437640	-0.201617
C170	C	0.789360	0.062360	0.298383
H171	H	0.258661	-0.389516	-0.179628
H172	H	0.758661	0.110484	0.320372
H173	H	0.312836	-0.382734	-0.227706
H174	H	0.812836	0.117266	0.272294
H175	H	0.316679	-0.485859	-0.172434
H176	H	0.816679	0.014141	0.327566
H177	H	0.292118	-0.753915	-0.346178
H178	H	0.792118	-0.253915	0.153822
H179	H	0.995882	-0.460573	-1.046237
H180	H	1.495882	0.039427	-0.546237
C181	C	0.851036	-0.776573	-0.906064
C182	C	1.351036	-0.276573	-0.406064
H183	H	0.856323	-0.765020	-0.862851
H184	H	1.356323	-0.265020	-0.362851
H185	H	0.863429	-0.861344	-0.913559
H186	H	1.363429	-0.361344	-0.413559
H187	H	0.808237	-0.758115	-0.917474
H188	H	1.308237	-0.258115	-0.417474
H189	H	0.861630	-0.753483	-1.035007
H190	H	1.361630	-0.253483	-0.535007
C191	C	1.006428	-0.437553	-0.919061
C192	C	1.506428	0.062447	-0.419061
H193	H	1.028462	-0.389455	-0.949760
H194	H	1.528462	0.110545	-0.449760
H195	H	1.035560	-0.485799	-0.891704
H196	H	1.535560	0.014201	-0.391704
H197	H	0.980353	-0.382601	-0.895624
H198	H	1.480353	0.117399	-0.395624
C199	C	0.359353	-0.586223	-0.161417
C200	C	0.859353	-0.086223	0.338583
H201	H	0.315761	-0.587695	-0.169457
H202	H	0.815761	-0.087695	0.330543
H203	H	0.367135	-0.509377	-0.144338
H204	H	0.867135	-0.009377	0.355662
H205	H	0.372663	-0.654832	-0.132417
H206	H	0.872663	-0.154832	0.367583
C207	C	0.810960	-0.628102	-0.709886
C208	C	1.310960	-0.128102	-0.209886
H209	H	0.818982	-0.626674	-0.666288
H210	H	1.318982	-0.126674	-0.166288
H211	H	0.793851	-0.704927	-0.717670
H212	H	1.293851	-0.204927	-0.217670
H213	H	0.781995	-0.559468	-0.723215
H214	H	1.281995	-0.059468	-0.223215
C215	C	0.851000	-0.776673	-0.639829
C216	C	1.351000	-0.276673	-0.139829
H217	H	0.828955	-0.824746	-0.609129
H218	H	1.328955	-0.324746	-0.109129
H219	H	0.877058	-0.831630	-0.663273
H220	H	1.377058	-0.331630	-0.163273
H221	H	0.821868	-0.728397	-0.667180
H222	H	1.321868	-0.228397	-0.167180
H223	H	0.487535	-0.589069	-0.177389
H224	H	0.987535	-0.089069	0.322611
C225	C	0.361191	-0.628541	-0.396877
C226	C	0.861191	-0.128541	0.103123
H227	H	0.390310	-0.634576	-0.430251
H228	H	0.890310	-0.134576	0.069749
H229	H	0.332941	-0.556227	-0.405201
H230	H	0.832941	-0.056227	0.094799
H231	H	0.338426	-0.701673	-0.393233
H232	H	0.838426	-0.201673	0.106767
C233	C	1.046464	-0.586187	-0.711600
C234	C	1.546464	-0.086187	-0.211600
H235	H	1.038430	-0.587645	-0.667884
H236	H	1.538430	-0.087645	-0.167884
H237	H	1.063577	-0.509356	-0.725261
H238	H	1.563577	-0.009356	-0.225261
H239	H	1.075432	-0.654814	-0.719721
H240	H	1.575432	-0.154814	-0.219721
H241	H	0.489122	-0.625727	-0.380807
H242	H	0.989122	-0.125727	0.119193
C243	C	0.705994	-0.777160	-0.356575
C244	C	1.205994	-0.277160	0.143425
H245	H	0.678977	-0.825262	-0.378582
H246	H	1.178977	-0.325262	0.121418
H247	H	0.733576	-0.832084	-0.330468
H248	H	1.233576	-0.332084	0.169532
H249	H	0.729721	-0.728962	-0.385742
H250	H	1.229721	-0.228962	0.114258
C251	C	0.555595	-0.437737	-0.201522
C252	C	1.055595	0.062263	0.298478
H253	H	0.512381	-0.449301	-0.206821
H254	H	1.012381	0.050699	0.293179
H255	H	0.563122	-0.352987	-0.213981
H256	H	1.063122	0.147013	0.286019
H257	H	0.566973	-0.456102	-0.158705
H258	H	1.066973	0.043898	0.341295
