data_functionalizedCrystal
_audit_creation_method	'MofGen! by Chris Wilmer'
_symmetry_space_group_name_H-M	'P1'
_symmetry_Int_Tables_number	1
_symmetry_cell_setting	triclinic
loop_
_symmetry_equiv_pos_as_xyz
  x,y,z
_cell_length_a	10.654562
_cell_length_b	9.065215
_cell_length_c	9.130313
_cell_angle_alpha	89.999667
_cell_angle_beta	89.996930
_cell_angle_gamma	84.752401
loop_
_atom_site_label
_atom_site_type_symbol
_atom_site_fract_x
_atom_site_fract_y
_atom_site_fract_z
O1	O	1.668644	0.207318	-0.121893
O2	O	1.303246	0.227042	-0.121874
O3	O	1.493499	0.002496	-0.121877
O4	O	1.478390	0.431864	-0.121889
O5	O	1.493497	0.002502	0.121721
O6	O	1.303243	0.227048	0.121725
O7	O	1.668642	0.207324	0.121706
Cu8	Cu	1.485942	0.217187	0.143958
Cu9	Cu	1.485945	0.217179	-0.144126
O10	O	1.478388	0.431870	0.121710
C11	C	1.256441	0.225593	-0.000072
C12	C	1.116981	0.221248	-0.000065
C13	C	1.051441	0.219225	0.132709
C14	C	0.920403	0.215154	0.132685
C15	C	0.920456	0.215137	-0.132900
C16	C	1.051493	0.219197	-0.132874
C17	C	1.051409	0.219242	0.286043
C18	C	0.920371	0.215171	0.286018
C19	C	1.492047	-0.052479	-0.000079
C20	C	1.487708	-0.216299	-0.000084
C21	C	1.715446	0.208773	-0.000099
C22	C	1.854906	0.213118	-0.000115
C23	C	1.479840	0.486845	-0.000092
C24	C	1.484180	0.650665	-0.000097
N25	N	1.485949	0.217191	0.346581
N26	N	1.485948	0.217164	-0.346748
C27	C	1.570216	0.117796	0.423231
C28	C	1.570212	0.117778	0.576568
C29	C	1.401672	0.316563	0.576590
C30	C	1.401670	0.316573	0.423256
C31	C	1.667525	0.003033	0.423219
C32	C	1.667522	0.003016	0.576556
H33	H	0.874487	0.317142	0.344880
H34	H	1.333043	0.397495	0.360849
H35	H	1.097265	0.117276	0.344929
C36	C	1.123596	0.221396	-0.278924
C37	C	1.200910	0.352065	-0.315453
C38	C	1.273017	0.354257	-0.461507
C39	C	1.267811	0.225779	-0.571033
C40	C	1.190494	0.095101	-0.534507
C41	C	1.118386	0.092909	-0.388452
H42	H	1.204767	0.447180	-0.234373
H43	H	1.330252	0.450995	-0.488546
H44	H	1.321189	0.227402	-0.679151
H45	H	1.186637	-0.000015	-0.615587
H46	H	1.061151	-0.003829	-0.361414
H47	H	1.645634	-0.110375	0.381604
H48	H	1.333054	0.397476	0.639036
C49	C	1.798019	0.037199	0.632799
C50	C	1.876053	-0.075960	0.729763
C51	C	2.006538	-0.041764	0.786013
C52	C	2.058989	0.105591	0.745298
C53	C	1.980954	0.218760	0.648330
C54	C	1.850469	0.184564	0.592080
H55	H	1.837227	-0.185050	0.759907
H56	H	2.064305	-0.125541	0.857796
H57	H	2.155582	0.130904	0.786938
H58	H	2.019780	0.327850	0.618186
H59	H	1.792702	0.268340	0.520297
C60	C	1.091948	0.364601	0.350329
C61	C	1.177735	0.360725	0.486267
C62	C	1.218272	0.506086	0.550552
C63	C	1.173023	0.655323	0.478900
C64	C	1.087231	0.659205	0.342954
C65	C	1.046693	0.513844	0.278669
H66	H	1.211235	0.250245	0.539316
H67	H	1.281781	0.503211	0.651189
H68	H	1.203031	0.762927	0.526488
H69	H	1.053731	0.769684	0.289905
H70	H	0.983184	0.516718	0.178032
H71	H	0.890357	0.107566	0.333601
H72	H	0.867119	0.213467	-0.241028
H73	H	1.758851	0.038974	0.375655
H74	H	1.636585	-0.104155	0.624108
