data_functionalizedCrystal
_audit_creation_method	'MofGen! by Chris Wilmer'
_symmetry_space_group_name_H-M	'P1'
_symmetry_Int_Tables_number	1
_symmetry_cell_setting	triclinic
loop_
_symmetry_equiv_pos_as_xyz
  x,y,z
_cell_length_a	14.472310
_cell_length_b	11.792241
_cell_length_c	11.792241
_cell_angle_alpha	84.193416
_cell_angle_beta	89.998842
_cell_angle_gamma	89.991153
loop_
_atom_site_label
_atom_site_type_symbol
_atom_site_fract_x
_atom_site_fract_y
_atom_site_fract_z
O1	O	0.076752	-1.506924	-0.155560
O2	O	0.576752	-1.006924	0.344440
O3	O	0.076773	-1.176583	-0.171593
O4	O	0.576773	-0.676583	0.328407
O5	O	0.076755	-1.349770	0.001594
O6	O	0.576755	-0.849770	0.501594
O7	O	0.076769	-1.333737	-0.328747
O8	O	0.576769	-0.833737	0.171253
O9	O	-0.076927	-1.349725	0.001584
O10	O	0.423073	-0.849725	0.501584
O11	O	-0.076909	-1.176538	-0.171603
O12	O	0.423091	-0.676538	0.328397
O13	O	-0.076930	-1.506879	-0.155570
O14	O	0.423070	-1.006879	0.344430
Cu15	Cu	-0.090952	-1.341704	-0.163587
Cu16	Cu	0.409048	-0.841704	0.336413
Cu17	Cu	0.090795	-1.341757	-0.163576
Cu18	Cu	0.590795	-0.841757	0.336424
O19	O	-0.076913	-1.333692	-0.328757
O20	O	0.423087	-0.833692	0.171243
C21	C	-0.000065	-1.134269	-0.170591
C22	C	0.499935	-0.634269	0.329409
C23	C	-0.000057	-1.008255	-0.167576
C24	C	0.499943	-0.508255	0.332424
N25	N	-0.218783	-1.341675	-0.163595
N26	N	0.281217	-0.841675	0.336405
C27	C	-0.000085	-1.348740	0.043880
C28	C	0.499915	-0.848740	0.543880
C29	C	-0.000084	-1.345726	0.169894
C30	C	0.499916	-0.845726	0.669894
C31	C	-0.592874	-1.341756	-0.163571
C32	C	-0.092874	-0.841756	0.336429
C33	C	-0.553699	-1.248772	-0.255925
C34	C	-0.053699	-0.748772	0.244075
C35	C	-0.446611	-1.248990	-0.256266
C36	C	0.053389	-0.748990	0.243734
C37	C	-0.407283	-1.341715	-0.163583
C38	C	0.092717	-0.841715	0.336417
C39	C	-0.446127	-1.460302	-0.190178
C40	C	0.053873	-0.960302	0.309822
C41	C	-0.553248	-1.459780	-0.190836
C42	C	-0.053248	-0.959780	0.309164
C43	C	-0.553407	-1.317207	-0.044353
C44	C	-0.053407	-0.817207	0.455647
C45	C	-0.446279	-1.314496	-0.045130
C46	C	0.053721	-0.814496	0.454870
C47	C	-0.302395	-1.341699	-0.163587
C48	C	0.197605	-0.841699	0.336413
C49	C	-0.697762	-1.341779	-0.163569
C50	C	-0.197762	-0.841779	0.336431
N51	N	0.218626	-1.341795	-0.163559
N52	N	0.718626	-0.841795	0.336441
C53	C	-0.000090	-1.549192	-0.156572
C54	C	0.499910	-1.049192	0.343428
C55	C	-0.000092	-1.675206	-0.159587
C56	C	0.499908	-1.175206	0.340413
C57	C	-0.000084	-0.777543	-0.162034
C58	C	0.499916	-0.277543	0.337966
C59	C	-0.000069	-0.905928	-0.165113
C60	C	0.499931	-0.405928	0.334887
C61	C	-0.000070	-1.334721	-0.371043
C62	C	0.499930	-0.834721	0.128957
C63	C	-0.000065	-1.337736	-0.497057
C64	C	0.499935	-0.837736	0.002943
C65	C	-0.000068	-1.340183	0.400606
C66	C	0.499932	-0.840183	0.900606
C67	C	-0.000077	-1.343262	0.272221
C68	C	0.499923	-0.843262	0.772221
H69	H	-0.420350	-1.160865	-0.240313
H70	H	0.079650	-0.660865	0.259687
N71	N	-0.587460	-1.268270	-0.366261
N72	N	-0.087460	-0.768270	0.133739
N73	N	-0.640247	-1.350349	-0.377173
N74	N	-0.140247	-0.850349	0.122827
H75	H	-0.664092	-1.364125	-0.455096
H76	H	-0.164092	-0.864125	0.044904
H77	H	-0.419512	-1.377765	0.026872
H78	H	0.080488	-0.877765	0.526872
H79	H	-0.420974	-1.264742	-0.344720
H80	H	0.079026	-0.764742	0.155280
N81	N	-0.585205	-1.402236	0.041887
N82	N	-0.085205	-0.902236	0.541887
N83	N	-0.632273	-1.374026	0.123367
N84	N	-0.132273	-0.874026	0.623367
H85	H	-0.654737	-1.434079	0.184268
H86	H	-0.154737	-0.934079	0.684268
H87	H	-0.578222	-1.481302	-0.277803
H88	H	-0.078222	-0.981302	0.222197
H89	H	-0.580470	-1.232571	-0.018960
H90	H	-0.080470	-0.732571	0.481040
N91	N	-0.414154	-1.549226	-0.108099
N92	N	0.085846	-1.049226	0.391901
N93	N	-0.367391	-1.629516	-0.139514
N94	N	0.132609	-1.129516	0.360486
H95	H	-0.344809	-1.692319	-0.081545
H96	H	0.155191	-1.192319	0.418455
N97	N	-0.585748	-1.549233	-0.109704
N98	N	-0.085748	-1.049233	0.390296
N99	N	-0.529314	-1.611853	-0.052782
N100	N	-0.029314	-1.111853	0.447218
H101	H	-0.552262	-1.675033	0.004513
H102	H	-0.052262	-1.175033	0.504513
H103	H	-0.579482	-1.160364	-0.240224
H104	H	-0.079482	-0.660364	0.259776
H105	H	-0.420892	-1.227258	-0.024964
H106	H	0.079108	-0.727258	0.475036
N107	N	-0.412450	-1.487916	-0.298038
N108	N	0.087550	-0.987916	0.201962
N109	N	-0.359854	-1.420458	-0.355499
N110	N	0.140146	-0.920458	0.144501
H111	H	-0.336069	-1.439954	-0.431678
H112	H	0.163931	-0.939954	0.068322
