data_functionalizedCrystal
_audit_creation_method	'MofGen! by Chris Wilmer'
_symmetry_space_group_name_H-M	'P1'
_symmetry_Int_Tables_number	1
_symmetry_cell_setting	triclinic
loop_
_symmetry_equiv_pos_as_xyz
  x,y,z
_cell_length_a	10.686220
_cell_length_b	16.120484
_cell_length_c	10.685986
_cell_angle_alpha	88.260869
_cell_angle_beta	99.031303
_cell_angle_gamma	97.070967
loop_
_atom_site_label
_atom_site_type_symbol
_atom_site_fract_x
_atom_site_fract_y
_atom_site_fract_z
Zn1	Zn	1.868237	-0.207318	-0.586231
Zn2	Zn	2.201570	0.126015	-0.252898
Zn3	Zn	2.534904	0.459349	0.080435
Zn4	Zn	1.871914	-0.356704	-0.386391
Zn5	Zn	2.205247	-0.023371	-0.053058
Zn6	Zn	2.538580	0.309963	0.280275
Zn7	Zn	1.670575	-0.227247	-0.391915
Zn8	Zn	2.003908	0.106086	-0.058582
Zn9	Zn	2.337242	0.439420	0.274752
Zn10	Zn	1.643516	-0.356645	-0.614830
Zn11	Zn	1.976849	-0.023311	-0.281497
Zn12	Zn	2.310182	0.310022	0.051836
O13	O	1.763560	-0.286978	-0.494842
O14	O	2.096894	0.046355	-0.161509
O15	O	2.430227	0.379688	0.171825
O16	O	2.047032	-0.218819	-0.545441
O17	O	2.380365	0.114514	-0.212108
O18	O	2.713699	0.447848	0.121225
O19	O	1.858069	-0.347896	-0.210199
O20	O	2.191402	-0.014563	0.123134
O21	O	2.524736	0.318770	0.456467
O22	O	1.706581	-0.107931	-0.408034
O23	O	2.039914	0.225402	-0.074701
O24	O	2.373248	0.558735	0.258633
O25	O	2.049733	-0.328572	-0.398620
O26	O	2.383067	0.004761	-0.065287
O27	O	2.716400	0.338094	0.268047
O28	O	1.851802	-0.093290	-0.550797
O29	O	2.185136	0.240044	-0.217464
O30	O	2.518469	0.573377	0.115869
O31	O	1.710146	-0.252785	-0.214258
O32	O	2.043480	0.080549	0.119076
O33	O	2.376813	0.413882	0.452409
O34	O	1.488678	-0.252727	-0.435766
O35	O	1.822011	0.080606	-0.102432
O36	O	2.155345	0.413939	0.230901
O37	O	1.660462	-0.328471	-0.787961
O38	O	1.993796	0.004862	-0.454628
O39	O	2.327129	0.338195	-0.121295
O40	O	1.468798	-0.347795	-0.599541
O41	O	1.802131	-0.014462	-0.266207
O42	O	2.135464	0.318871	0.067126
O43	O	1.825564	-0.218762	-0.766950
O44	O	2.158897	0.114572	-0.433616
O45	O	2.492231	0.447905	-0.100283
O46	O	1.831831	-0.473368	-0.426351
O47	O	2.165164	-0.140035	-0.093018
O48	O	2.498497	0.193298	0.240315
O49	O	1.664028	-0.473325	-0.594185
O50	O	1.997361	-0.139991	-0.260851
O51	O	2.330694	0.193342	0.072482
C52	C	1.432505	-0.302418	-0.521357
C53	C	1.765838	0.030915	-0.188024
C54	C	2.099171	0.364249	0.145310
C55	C	1.290874	-0.309042	-0.532732
C56	C	1.624207	0.024292	-0.199398
C57	C	1.957540	0.357625	0.133935
C58	C	1.745424	-0.503595	-0.512797
C59	C	2.078758	-0.170262	-0.179464
C60	C	2.412091	0.163071	0.153870
C61	C	1.737779	-0.596257	-0.520511
C62	C	2.071113	-0.262924	-0.187178
C63	C	2.404446	0.070409	0.146156
C64	C	1.723827	-0.765911	-0.534620
C65	C	2.057160	-0.432577	-0.201287
C66	C	2.390493	-0.099244	0.132046
C67	C	1.803521	-0.807194	-0.455066
C68	C	2.136854	-0.473861	-0.121733
C69	C	2.470187	-0.140527	0.211601
C70	C	1.795758	-0.901595	-0.462916
C71	C	2.129091	-0.568262	-0.129583
C72	C	2.462424	-0.234928	0.203750
C73	C	1.731588	-0.671501	-0.526772
C74	C	2.064922	-0.338168	-0.193438
C75	C	2.398255	-0.004835	0.139895
C76	C	2.095909	-0.271479	-0.468224
C77	C	2.429242	0.061854	-0.134891
C78	C	2.762575	0.395187	0.198442
C79	C	2.237536	-0.264874	-0.456881
C80	C	2.570869	0.068459	-0.123548
C81	C	2.904202	0.401792	0.209785
C82	C	1.739585	-0.271387	-0.824613
C83	C	2.072918	0.061947	-0.491279
C84	C	2.406251	0.395280	-0.157946
C85	C	1.729368	-0.264743	-0.965141
C86	C	2.062701	0.068591	-0.631808
C87	C	2.396034	0.401924	-0.298475
C88	C	1.781800	-0.069513	-0.476842
C89	C	2.115133	0.263820	-0.143508
C90	C	2.448467	0.597154	0.189825
C91	C	1.789572	0.023158	-0.469171
C92	C	2.122906	0.356491	-0.135838
C93	C	2.456239	0.689825	0.197496
C94	C	1.787521	-0.302446	-0.166343
C95	C	2.120855	0.030887	0.166990
C96	C	2.454188	0.364221	0.500323
C97	C	1.798005	-0.308844	-0.025776
C98	C	2.131338	0.024490	0.307557
C99	C	2.464671	0.357823	0.640891
H100	H	1.300222	-0.221994	-0.383240
H101	H	1.633556	0.111339	-0.049906
H102	H	1.966889	0.444672	0.283427
H103	H	1.228180	-0.351930	-0.606371
H104	H	1.561514	-0.018597	-0.273037
H105	H	1.894847	0.314736	0.060296
F106	F	1.900319	-0.760726	-0.358332
F107	F	2.233652	-0.427392	-0.024999
F108	F	2.566985	-0.094059	0.308334
F109	F	1.627031	-0.812379	-0.631342
F110	F	1.960365	-0.479046	-0.298009
F111	F	2.293698	-0.145712	0.035324
F112	F	1.885037	-0.364830	-0.953108
F113	F	2.218370	-0.031497	-0.619775
F114	F	2.551704	0.301836	-0.286442
F115	F	1.642344	-0.208744	-1.037813
F116	F	1.975677	0.124589	-0.704479
F117	F	2.309011	0.457923	-0.371146
