data_functionalizedCrystal
_audit_creation_method	'MofGen! by Chris Wilmer'
_symmetry_space_group_name_H-M	'P1'
_symmetry_Int_Tables_number	1
_symmetry_cell_setting	triclinic
loop_
_symmetry_equiv_pos_as_xyz
  x,y,z
_cell_length_a	16.120484
_cell_length_b	12.759401
_cell_length_c	12.759393
_cell_angle_alpha	89.983222
_cell_angle_beta	92.862882
_cell_angle_gamma	92.928294
loop_
_atom_site_label
_atom_site_type_symbol
_atom_site_fract_x
_atom_site_fract_y
_atom_site_fract_z
Zn1	Zn	-0.331791	1.584976	-0.615094
Zn2	Zn	-0.471229	1.575927	-0.448307
Zn3	Zn	-0.331842	1.409275	-0.439442
Zn4	Zn	-0.471172	1.400327	-0.623951
O5	O	-0.401508	1.492626	-0.531699
O6	O	-0.350291	1.730796	-0.592973
O7	O	-0.452784	1.553778	-0.300113
O8	O	-0.215169	1.440113	-0.455326
O9	O	-0.452735	1.724148	-0.470436
O10	O	-0.215132	1.569200	-0.584377
O11	O	-0.350377	1.431339	-0.293600
O12	O	-0.350321	1.261067	-0.463914
O13	O	-0.452637	1.424864	-0.769794
O14	O	-0.452686	1.254493	-0.599471
O15	O	-0.350235	1.560524	-0.763287
O16	O	-0.587887	1.545102	-0.479024
O17	O	-0.587845	1.416089	-0.608068
C18	C	-0.618116	1.478671	-0.545492
C19	C	-0.710782	1.472798	-0.551427
C20	C	-0.401504	1.219659	-0.531692
C21	C	-0.401522	1.102881	-0.531716
C22	C	-0.401424	1.492705	-0.805727
C23	C	-0.401388	1.492739	-0.922501
C24	C	-0.880443	1.462080	-0.562286
C25	C	-0.921733	1.523361	-0.501128
C26	C	-1.016139	1.517397	-0.507170
C27	C	-0.786029	1.468042	-0.556246
C28	C	-0.184055	1.506664	-0.517875
C29	C	-0.091389	1.512646	-0.511984
C30	C	-0.401514	1.766659	-0.531706
C31	C	-0.401516	1.883436	-0.531709
C32	C	-0.348225	1.941716	-0.461131
C33	C	-0.348225	2.051441	-0.461136
C34	C	-0.454815	2.044593	-0.602301
C35	C	-0.454810	1.934871	-0.602300
C36	C	-0.294930	1.890281	-0.390539
C37	C	-0.241635	1.948563	-0.319954
C38	C	-0.241636	2.058287	-0.319960
C39	C	-0.294931	2.109729	-0.390550
C40	C	-0.348062	1.563387	-0.973977
C41	C	-0.348032	1.563414	-1.083699
C42	C	-0.454661	1.422141	-1.090461
C43	C	-0.454687	1.422110	-0.980740
C44	C	-0.294764	1.634016	-0.915737
C45	C	-0.241434	1.704670	-0.967212
C46	C	-0.241404	1.704697	-1.076935
C47	C	-0.294704	1.634069	-1.135182
C48	C	-0.401532	1.492612	-0.258733
C49	C	-0.401333	1.492797	-0.141944
H50	H	-0.886182	1.580303	-0.444231
H51	H	-0.498207	2.086486	-0.659772
H52	H	-0.198239	1.906671	-0.262489
H53	H	-0.498097	1.364567	-0.938828
Br54	Br	-0.527130	1.855768	-0.698093
Br55	Br	-0.169298	2.137381	-0.224182
H56	H	-0.294784	1.634004	-0.826396
H57	H	-0.915991	1.405141	-0.619177
H58	H	-0.198035	1.762166	-0.919780
H59	H	-0.294665	1.634085	-1.224524
Br60	Br	-0.294930	1.741371	-0.390524
H61	H	-0.294919	2.199075	-0.390559
H62	H	-0.197975	1.762220	-1.118842
H63	H	-0.498055	1.364639	-1.137894
