data_functionalizedCrystal
_audit_creation_method	'MofGen! by Chris Wilmer'
_symmetry_space_group_name_H-M	'P1'
_symmetry_Int_Tables_number	1
_symmetry_cell_setting	triclinic
loop_
_symmetry_equiv_pos_as_xyz
  x,y,z
_cell_length_a	42.784839
_cell_length_b	42.784841
_cell_length_c	42.784893
_cell_angle_alpha	90.002418
_cell_angle_beta	59.997780
_cell_angle_gamma	119.999863
loop_
_atom_site_label
_atom_site_type_symbol
_atom_site_fract_x
_atom_site_fract_y
_atom_site_fract_z
O1	O	0.275695	-0.214412	-0.009300
O2	O	0.211692	-0.168961	0.009253
O3	O	0.275692	-0.168961	-0.054750
O4	O	0.211694	-0.214412	0.054702
O5	O	0.223708	-0.220945	-0.054749
O6	O	0.159708	-0.220945	0.009253
O7	O	0.223710	-0.266397	-0.009300
Cu8	Cu	0.186962	-0.248417	-0.000023
Cu9	Cu	0.248440	-0.186940	-0.000024
O10	O	0.159710	-0.266396	0.054703
C11	C	0.051021	-0.022778	0.028112
C12	C	0.013142	-0.041761	0.028375
C13	C	0.051018	-0.079378	0.028116
C14	C	0.013139	-0.098275	0.028379
C15	C	-0.005578	-0.079377	0.028112
C16	C	0.069652	-0.041762	0.028379
C17	C	0.152948	0.113708	0.017863
C18	C	0.173786	0.152360	0.014965
C19	C	0.155902	0.171750	0.013509
C20	C	0.178499	0.213661	0.010359
C21	C	0.117177	0.152485	0.014953
C22	C	0.096339	0.113835	0.017857
C23	C	0.114226	0.094447	0.019312
C24	C	-0.131813	-0.113936	0.017859
C25	C	-0.167567	-0.131750	0.014961
C26	C	-0.185502	-0.169024	0.013506
C27	C	-0.224264	-0.188340	0.010358
C28	C	-0.167685	-0.188485	0.014954
C29	C	-0.131938	-0.170675	0.017859
C30	C	-0.114002	-0.133396	0.019309
C31	C	0.152939	-0.113943	0.017877
C32	C	0.173778	-0.131757	0.014977
C33	C	0.155892	-0.169032	0.013523
C34	C	0.178486	-0.188349	0.010377
C35	C	0.117170	-0.188491	0.014967
C36	C	0.096334	-0.170675	0.017865
C37	C	0.114220	-0.133401	0.019323
C38	C	0.091629	0.052537	0.022456
C39	C	0.073617	0.019131	0.024964
C40	C	0.073613	-0.098693	0.024971
C41	C	0.091623	-0.114089	0.022466
C42	C	-0.044339	-0.098690	0.024964
C43	C	-0.075237	-0.114084	0.022456
O44	O	-0.327856	-0.266388	-0.009322
O45	O	-0.236954	-0.220935	0.009228
O46	O	-0.236950	-0.220939	-0.054773
O47	O	-0.327860	-0.266385	0.054680
O48	O	-0.236948	-0.168954	-0.054776
O49	O	-0.236952	-0.168950	0.009225
O50	O	-0.327854	-0.214403	-0.009325
Cu51	Cu	-0.282403	-0.186930	-0.000050
Cu52	Cu	-0.282405	-0.248408	-0.000046
O53	O	-0.327858	-0.214400	0.054676
C54	C	0.384390	-0.079141	-0.361606
C55	C	0.422270	-0.041526	-0.380503
C56	C	0.384390	-0.079141	-0.305008
C57	C	0.422270	-0.041526	-0.323990
C58	C	0.440988	-0.022543	-0.361606
C59	C	0.365758	-0.098038	-0.323991
C60	C	0.282465	-0.170819	-0.396168
C61	C	0.261627	-0.188759	-0.413983
C62	C	0.279513	-0.169420	-0.451257
C63	C	0.256917	-0.188867	-0.470572
C64	C	0.318239	-0.132140	-0.470717
C65	C	0.339076	-0.114205	-0.452905
C66	C	0.321187	-0.133546	-0.415628
C67	C	0.567227	0.113942	-0.453282
C68	C	0.602981	0.152594	-0.471222
C69	C	0.620916	0.171985	-0.451883
C70	C	0.659678	0.213894	-0.471328
C71	C	0.603097	0.152719	-0.414603
C72	C	0.567349	0.114068	-0.396667
C73	C	0.549414	0.094682	-0.416011
C74	C	0.282465	-0.170819	-0.168522
C75	C	0.261624	-0.188757	-0.129868
C76	C	0.279510	-0.169418	-0.110479
C77	C	0.256914	-0.188865	-0.068568
C78	C	0.318233	-0.132140	-0.129742
C79	C	0.339070	-0.114203	-0.168394
C80	C	0.321184	-0.133548	-0.187782
C81	C	0.343783	-0.114094	-0.396315
C82	C	0.361794	-0.098590	-0.380920
C83	C	0.361794	-0.098590	-0.263099
C84	C	0.343783	-0.114094	-0.229693
C85	C	0.479750	0.019366	-0.381054
C86	C	0.510649	0.052771	-0.396557
C87	C	0.440758	-0.356212	-0.028193
C88	C	0.422041	-0.393827	-0.028459
C89	C	0.384158	-0.356213	-0.028190
C90	C	0.365526	-0.393828	-0.028456
C91	C	0.384160	-0.412810	-0.028193
C92	C	0.422038	-0.337315	-0.028456
C93	C	0.567000	-0.264532	-0.017949
C94	C	0.602755	-0.246591	-0.015053
C95	C	0.620692	-0.265931	-0.013601
C96	C	0.659455	-0.246483	-0.010453
C97	C	0.602873	-0.303210	-0.015048
C98	C	0.567125	-0.321146	-0.017949
C99	C	0.549188	-0.301805	-0.019399
C100	C	0.339356	-0.549295	-0.017951
C101	C	0.318645	-0.587947	-0.015055
C102	C	0.279915	-0.607338	-0.013597
C103	C	0.257452	-0.649247	-0.010452
C104	C	0.261899	-0.588073	-0.015042
C105	C	0.282613	-0.549422	-0.017945
C106	C	0.321343	-0.530035	-0.019397
C107	C	0.339344	-0.264537	-0.017936
C108	C	0.318628	-0.246599	-0.015032
C109	C	0.279898	-0.265939	-0.013577
C110	C	0.257433	-0.246493	-0.010426
C111	C	0.261884	-0.303217	-0.015022
C112	C	0.282601	-0.321153	-0.017924
C113	C	0.321334	-0.301808	-0.019385
C114	C	0.510421	-0.321258	-0.022542
C115	C	0.479522	-0.336762	-0.025048
C116	C	0.361696	-0.336765	-0.025041
C117	C	0.343793	-0.321261	-0.022532
C118	C	0.361701	-0.454719	-0.025047
C119	C	0.343799	-0.488125	-0.022541
O120	O	0.223728	0.336934	-0.009323
O121	O	0.159726	0.227482	0.009227
O122	O	0.223729	0.291478	-0.054775
O123	O	0.159725	0.272938	0.054678
O124	O	0.275711	0.291477	-0.054771
O125	O	0.211707	0.227481	0.009230
O126	O	0.275710	0.336932	-0.009320
Cu127	Cu	0.248455	0.282206	-0.000045
Cu128	Cu	0.186981	0.282208	-0.000049
O129	O	0.211707	0.272936	0.054681
O130	O	0.763271	0.337164	-0.496871
O131	O	0.672367	0.227713	-0.451422
O132	O	0.672365	0.291711	-0.451418
O133	O	0.763273	0.273165	-0.496876
O134	O	0.672366	0.291712	-0.503402
O135	O	0.672368	0.227714	-0.503407
O136	O	0.763272	0.337165	-0.548856
Cu137	Cu	0.717820	0.282440	-0.530878
Cu138	Cu	0.717819	0.282438	-0.469400
O139	O	0.763275	0.273167	-0.548860
O140	O	0.211690	-0.214417	-0.548617
O141	O	0.275691	-0.168962	-0.503167
O142	O	0.211689	-0.168964	-0.503163
O143	O	0.275692	-0.214415	-0.548621
O144	O	0.159706	-0.220947	-0.451179
O145	O	0.223708	-0.220945	-0.451183
O146	O	0.159707	-0.266400	-0.496633
Cu147	Cu	0.186961	-0.248419	-0.469161
Cu148	Cu	0.248437	-0.186943	-0.530639
O149	O	0.223709	-0.266398	-0.496637
C150	C	-0.005343	-0.412572	0.361558
C151	C	0.013375	-0.393590	0.380456
C152	C	0.051255	-0.355974	0.304961
C153	C	0.069887	-0.337077	0.323944
C154	C	0.051254	-0.355974	0.361560
C155	C	0.013375	-0.393589	0.323943
C156	C	-0.131582	-0.549057	0.396116
C157	C	-0.167336	-0.587709	0.413930
C158	C	-0.185271	-0.607098	0.451205
C159	C	-0.224034	-0.649009	0.470519
C160	C	-0.167452	-0.587833	0.470666
C161	C	-0.131705	-0.549184	0.452854
C162	C	-0.113770	-0.529796	0.415578
C163	C	0.096061	-0.321414	0.453239
C164	C	0.116773	-0.303600	0.471179
C165	C	0.155502	-0.266327	0.451842
C166	C	0.177965	-0.247011	0.471288
C167	C	0.173517	-0.246866	0.414562
C168	C	0.152802	-0.264677	0.396625
C169	C	0.114073	-0.301955	0.415968
C170	C	0.096064	-0.321412	0.168474
C171	C	0.116779	-0.303599	0.129820
C172	C	0.155508	-0.266324	0.110432
C173	C	0.177972	-0.247009	0.068521
C174	C	0.173522	-0.246865	0.129696
C175	C	0.152807	-0.264680	0.168348
C176	C	0.114075	-0.301953	0.187735
C177	C	-0.075004	-0.487887	0.396265
C178	C	-0.044106	-0.454481	0.380871
C179	C	0.073715	-0.336660	0.263052
C180	C	0.091618	-0.321265	0.229646
C181	C	0.073714	-0.336661	0.381009
C182	C	0.091616	-0.321267	0.396513
C183	C	0.051046	-0.022794	-0.361634
C184	C	0.069679	-0.041778	-0.380530
C185	C	-0.005555	-0.079390	-0.305034
C186	C	0.013163	-0.098288	-0.324016
C187	C	0.051045	-0.079393	-0.361631
C188	C	0.013164	-0.041775	-0.324018
C189	C	0.095858	0.113693	-0.396200
C190	C	0.116571	0.152344	-0.414015
C191	C	0.155302	0.171732	-0.451290
C192	C	0.177767	0.213642	-0.470607
C193	C	0.173317	0.152465	-0.470750
C194	C	0.152600	0.113815	-0.452936
C195	C	0.113869	0.094429	-0.415659
C196	C	0.152973	-0.113959	-0.453306
C197	C	0.173810	-0.131775	-0.471245
C198	C	0.155926	-0.169048	-0.451906
C199	C	0.178519	-0.188366	-0.471350
C200	C	0.117198	-0.188507	-0.414626
C201	C	0.096358	-0.170694	-0.396690
C202	C	0.114251	-0.133416	-0.416035
C203	C	-0.131801	-0.113944	-0.168548
C204	C	-0.167554	-0.131755	-0.129895
C205	C	-0.185491	-0.169029	-0.110504
C206	C	-0.224255	-0.188343	-0.068593
C207	C	-0.167671	-0.188490	-0.129767
C208	C	-0.131918	-0.170677	-0.168418
C209	C	-0.113988	-0.133404	-0.187808
C210	C	0.091411	0.052521	-0.396344
C211	C	0.073508	0.019115	-0.380949
C212	C	-0.044320	-0.098701	-0.263125
C213	C	-0.075220	-0.114094	-0.229719
C214	C	0.073641	-0.098707	-0.381079
C215	C	0.091652	-0.114103	-0.396582
C216	C	-0.615853	-0.356193	0.361535
C217	C	-0.634487	-0.393808	0.380433
C218	C	-0.559253	-0.356195	0.304938
C219	C	-0.577972	-0.393810	0.323921
C220	C	-0.615854	-0.412792	0.361537
C221	C	-0.577972	-0.337297	0.323920
C222	C	-0.660661	-0.264512	0.396093
C223	C	-0.681373	-0.246571	0.413906
C224	C	-0.720104	-0.265909	0.451181
C225	C	-0.742568	-0.246461	0.470495
C226	C	-0.738120	-0.303189	0.470643
C227	C	-0.717405	-0.321125	0.452831
C228	C	-0.678674	-0.301785	0.415554
C229	C	-0.717784	-0.549275	0.453218
C230	C	-0.738622	-0.587926	0.471159
C231	C	-0.720740	-0.607319	0.451822
C232	C	-0.743333	-0.649227	0.471268
C233	C	-0.682012	-0.588055	0.414542
C234	C	-0.661170	-0.549403	0.396604
C235	C	-0.679063	-0.530016	0.415946
C236	C	-0.433006	-0.264522	0.168449
C237	C	-0.397253	-0.246585	0.129796
C238	C	-0.379317	-0.265926	0.110407
C239	C	-0.340553	-0.246480	0.068496
C240	C	-0.397138	-0.303204	0.129672
C241	C	-0.432891	-0.321139	0.168324
C242	C	-0.450820	-0.301793	0.187711
C243	C	-0.656216	-0.321238	0.396242
C244	C	-0.638314	-0.336743	0.380848
C245	C	-0.520488	-0.336748	0.263028
C246	C	-0.489588	-0.321245	0.229622
C247	C	-0.638451	-0.454700	0.380987
C248	C	-0.656463	-0.488106	0.396492
C249	C	0.440756	0.310302	-0.361620
C250	C	0.422038	0.310564	-0.380518
C251	C	0.384160	0.310312	-0.305026
C252	C	0.365528	0.310574	-0.324010
C253	C	0.384159	0.310303	-0.361624
C254	C	0.422038	0.310573	-0.324006
C255	C	0.566989	0.300046	-0.396172
C256	C	0.602741	0.297145	-0.413984
C257	C	0.620675	0.295684	-0.451257
C258	C	0.659436	0.292531	-0.470569
C259	C	0.602857	0.297127	-0.470719
C260	C	0.567111	0.300033	-0.452909
C261	C	0.549177	0.301493	-0.415634
C262	C	0.339351	0.300042	-0.453303
C263	C	0.318640	0.297142	-0.471244
C264	C	0.279912	0.295690	-0.451908
C265	C	0.257449	0.292541	-0.471354
C266	C	0.261899	0.297143	-0.414629
C267	C	0.282613	0.300049	-0.396692
C268	C	0.321341	0.301496	-0.416033
C269	C	0.339354	0.300088	-0.168540
C270	C	0.318640	0.297192	-0.129888
C271	C	0.279912	0.295742	-0.110501
C272	C	0.257450	0.292601	-0.068591
C273	C	0.261898	0.297184	-0.129766
C274	C	0.282612	0.300078	-0.168417
C275	C	0.321344	0.301533	-0.187802
C276	C	0.510413	0.304640	-0.396323
C277	C	0.479516	0.307151	-0.380931
C278	C	0.361701	0.307173	-0.263117
C279	C	0.343799	0.304671	-0.229712
C280	C	0.361700	0.307154	-0.381073
C281	C	0.343798	0.304644	-0.396578
O282	O	0.275503	0.336913	-0.548651
O283	O	0.211494	0.227461	-0.503201
O284	O	0.275490	0.291455	-0.503192
O285	O	0.211507	0.272919	-0.548659
O286	O	0.223502	0.291457	-0.451211
O287	O	0.159506	0.227463	-0.451219
O288	O	0.223515	0.336915	-0.496669
Cu289	Cu	0.186764	0.282189	-0.469197
Cu290	Cu	0.248246	0.282187	-0.530672
O291	O	0.159519	0.272921	-0.496677
C292	C	0.051032	0.254111	0.361530
C293	C	0.013154	0.253851	0.380425
C294	C	0.051031	0.254102	0.304932
C295	C	0.013153	0.253842	0.323913
C296	C	-0.005564	0.254113	0.361527
C297	C	0.069663	0.253840	0.323916
C298	C	0.152954	0.264360	0.396096
C299	C	0.173791	0.267260	0.413911
C300	C	0.155906	0.268721	0.451185
C301	C	0.178502	0.271871	0.470501
C302	C	0.117182	0.267279	0.470643
C303	C	0.096345	0.264374	0.452830
C304	C	0.114233	0.262915	0.415555
C305	C	-0.131796	0.264379	0.453195
C306	C	-0.167548	0.267281	0.471133
C307	C	-0.185483	0.268734	0.451793
C308	C	-0.224243	0.271886	0.471236
C309	C	-0.167664	0.267282	0.414515
C310	C	-0.131919	0.264374	0.396581
C311	C	-0.113984	0.262925	0.415925
C312	C	0.152952	0.264325	0.168451
C313	C	0.173792	0.267221	0.129798
C314	C	0.155907	0.268673	0.110407
C315	C	0.178502	0.271814	0.068498
C316	C	0.117186	0.267232	0.129669
C317	C	0.096350	0.264339	0.168320
C318	C	0.114234	0.262881	0.187709
C319	C	0.091638	0.259769	0.396240
C320	C	0.073627	0.257260	0.380845
C321	C	0.073626	0.257242	0.263024
C322	C	0.091636	0.259743	0.229619
C323	C	-0.044324	0.257264	0.380973
C324	C	-0.075221	0.259775	0.396474
H325	H	0.064802	-0.186523	0.019045
C326	C	-0.007997	-0.140039	-0.303429
C327	C	-0.024828	-0.171527	-0.319943
C328	C	-0.045986	-0.213276	-0.299359
C329	C	-0.050312	-0.223537	-0.262260
C330	C	-0.033480	-0.192048	-0.245744
C331	C	-0.012323	-0.150299	-0.266329
H332	H	-0.021627	-0.163932	-0.347408
H333	H	-0.058446	-0.236586	-0.311586
H334	H	-0.065974	-0.254442	-0.247023
H335	H	-0.036682	-0.199643	-0.218280
H336	H	0.000137	-0.126989	-0.254102
H337	H	-0.562326	-0.306401	0.308670
H338	H	-0.002525	-0.129181	0.028805
H339	H	0.064321	0.097912	-0.365848
C340	C	0.622604	-0.324481	-0.013452
C341	C	0.641979	-0.338179	-0.046824
C342	C	0.661710	-0.359451	-0.045228
C343	C	0.662066	-0.367025	-0.010260
C344	C	0.642690	-0.353327	0.023115
C345	C	0.622960	-0.332055	0.021519
H346	H	0.641716	-0.332572	-0.072712
H347	H	0.676052	-0.369591	-0.069935
H348	H	0.676672	-0.382773	-0.009078
H349	H	0.642953	-0.358934	0.049003
H350	H	0.608617	-0.321915	0.046226
H351	H	0.370885	0.301223	-0.469054
C352	C	0.262791	-0.192090	-0.189851
C353	C	0.248486	-0.175416	-0.207705
C354	C	0.228815	-0.196681	-0.229038
C355	C	0.223450	-0.234621	-0.232517
C356	C	0.237756	-0.251298	-0.214663
C357	C	0.257427	-0.230033	-0.193330
H358	H	0.252457	-0.147328	-0.205130
H359	H	0.218224	-0.184336	-0.242255
H360	H	0.208888	-0.250364	-0.248309
H361	H	0.233785	-0.279386	-0.217238
H362	H	0.268017	-0.242378	-0.180113
C363	C	0.219297	0.295588	-0.108443
C364	C	0.219597	0.328955	-0.122449
C365	C	0.176997	0.327358	-0.101129
C366	C	0.134095	0.292394	-0.065801
C367	C	0.133793	0.259024	-0.051793
C368	C	0.176394	0.260621	-0.073114
H369	H	0.251357	0.354841	-0.148602
H370	H	0.177221	0.352061	-0.111498
H371	H	0.102560	0.291212	-0.050018
H372	H	0.102033	0.233139	-0.025640
H373	H	0.176169	0.235918	-0.062744
H374	H	-0.182052	0.268464	0.501484
C375	C	-0.675669	-0.414396	0.422184
C376	C	-0.718698	-0.451498	0.432442
C377	C	-0.759879	-0.472085	0.474191
C378	C	-0.758031	-0.455570	0.505681
C379	C	-0.715000	-0.418466	0.495424
C380	C	-0.673819	-0.397879	0.453676
H381	H	-0.720068	-0.463725	0.409130
H382	H	-0.791734	-0.499552	0.481784
H383	H	-0.788516	-0.470810	0.536586
H384	H	-0.713630	-0.406239	0.518736
H385	H	-0.641964	-0.370412	0.446083
C386	C	0.338455	0.295606	-0.108698
C387	C	0.352873	0.326592	-0.090883
C388	C	0.372691	0.325008	-0.069694
C389	C	0.378091	0.292438	-0.066320
C390	C	0.363673	0.261450	-0.084136
C391	C	0.343856	0.263034	-0.105325
H392	H	0.348876	0.350704	-0.093379
H393	H	0.383364	0.347947	-0.056505
H394	H	0.392762	0.291265	-0.050635
H395	H	0.367671	0.237337	-0.081639
H396	H	0.333183	0.240094	-0.118514
H397	H	0.167518	0.263140	0.184235
H398	H	-0.629125	-0.248761	0.365741
H399	H	0.167516	0.097925	0.019049
C400	C	0.443201	-0.295564	-0.029030
C401	C	0.416359	-0.285301	0.003740
C402	C	0.437521	-0.243551	0.003166
C403	C	0.485524	-0.212064	-0.030178
C404	C	0.512369	-0.222326	-0.062950
C405	C	0.491207	-0.264076	-0.062376
H406	H	0.380822	-0.308610	0.028425
H407	H	0.417649	-0.235954	0.027427
H408	H	0.501190	-0.181158	-0.030602
H409	H	0.547906	-0.199016	-0.087635
H410	H	0.511080	-0.271672	-0.086637
H411	H	0.370607	-0.083853	-0.468752
H412	H	0.230097	-0.219111	-0.398135
C413	C	0.216410	-0.110370	-0.512248
C414	C	0.216051	-0.096634	-0.545260
C415	C	0.258652	-0.075229	-0.586263
C416	C	0.301612	-0.067558	-0.594253
C417	C	0.301973	-0.081295	-0.561239
C418	C	0.259371	-0.102700	-0.520237
H419	H	0.184248	-0.102312	-0.539347
H420	H	0.258385	-0.065060	-0.610702
H421	H	0.333148	-0.051713	-0.624605
H422	H	0.333776	-0.075617	-0.567153
H423	H	0.259639	-0.112869	-0.495798
H424	H	0.267941	0.301250	-0.184099
C425	C	0.216384	0.173550	0.013371
C426	C	0.217643	0.191373	0.044350
C427	C	0.260242	0.212564	0.042754
C428	C	0.301581	0.215931	0.010180
C429	C	0.300322	0.198108	-0.020801
C430	C	0.257724	0.176917	-0.019206
H431	H	0.187040	0.188881	0.068465
H432	H	0.261173	0.225758	0.065689
H433	H	0.333114	0.231618	0.008999
H434	H	0.330925	0.200600	-0.044916
H435	H	0.256793	0.163723	-0.042140
C436	C	0.324354	0.311155	-0.303426
C437	C	0.303762	0.311446	-0.261963
C438	C	0.262590	0.312027	-0.241381
C439	C	0.242009	0.312317	-0.262263
C440	C	0.262601	0.312025	-0.303729
C441	C	0.303773	0.311444	-0.324310
H442	H	0.318997	0.311231	-0.246502
H443	H	0.247346	0.312242	-0.210685
H444	H	0.211531	0.312747	-0.247027
H445	H	0.247366	0.312240	-0.319189
H446	H	0.319016	0.311229	-0.355006
C447	C	-0.007798	-0.414182	0.303362
C448	C	0.019031	-0.420117	0.266258
C449	C	-0.002147	-0.440711	0.245682
C450	C	-0.050153	-0.455369	0.262210
C451	C	-0.076984	-0.449434	0.299317
C452	C	-0.055807	-0.428840	0.319893
H453	H	0.054570	-0.409266	0.254020
H454	H	0.017716	-0.445104	0.218213
H455	H	-0.065829	-0.470614	0.246979
H456	H	-0.112524	-0.460285	0.311554
H457	H	-0.075670	-0.424447	0.347362
C458	C	-0.452729	-0.243241	0.189772
C459	C	-0.501561	-0.259904	0.207627
C460	C	-0.521285	-0.238625	0.228950
C461	C	-0.492176	-0.200683	0.232418
C462	C	-0.443341	-0.184018	0.214563
C463	C	-0.423617	-0.205297	0.193240
H464	H	-0.523112	-0.287993	0.205061
H465	H	-0.557437	-0.250962	0.242168
H466	H	-0.506777	-0.184931	0.248203
H467	H	-0.421790	-0.155929	0.217129
H468	H	-0.387465	-0.192960	0.180022
C469	C	0.262797	-0.528233	-0.019532
C470	C	0.248380	-0.510414	0.011452
C471	C	0.228563	-0.489225	0.009866
C472	C	0.223162	-0.485854	-0.022704
C473	C	0.237579	-0.503673	-0.053691
C474	C	0.257397	-0.524862	-0.052104
H475	H	0.252378	-0.512909	0.035564
H476	H	0.217891	-0.476034	0.032804
H477	H	0.208492	-0.470169	-0.023878
H478	H	0.233582	-0.501178	-0.077803
H479	H	0.268069	-0.538053	-0.075043
H480	H	0.102618	0.168275	0.013770
H481	H	0.102623	0.268466	0.500992
H482	H	0.064825	-0.186540	-0.366338
H483	H	0.267896	-0.186572	-0.365817
H484	H	-0.182060	-0.603623	0.501016
C485	C	0.443436	-0.020936	-0.303404
C486	C	0.422849	-0.041808	-0.261939
C487	C	0.444016	-0.021218	-0.241355
C488	C	0.485771	0.020243	-0.262236
C489	C	0.506361	0.041117	-0.303703
C490	C	0.485194	0.020528	-0.324287
H491	H	0.391937	-0.072502	-0.246481
H492	H	0.428774	-0.036671	-0.210659
H493	H	0.501440	0.035485	-0.246998
H494	H	0.537272	0.071812	-0.319162
H495	H	0.500436	0.035980	-0.354983
H496	H	0.332799	-0.116397	-0.501067
H497	H	0.617463	0.295940	-0.501068
C498	C	0.097508	0.268829	0.108343
C499	C	0.050435	0.235461	0.122347
C500	C	0.030757	0.237057	0.101022
C501	C	0.058153	0.272021	0.065693
C502	C	0.105229	0.305391	0.051687
C503	C	0.124906	0.303795	0.073012
H504	H	0.030153	0.209576	0.148501
H505	H	-0.004092	0.212354	0.111391
H506	H	0.043586	0.273203	0.049907
H507	H	0.125511	0.331276	0.025533
H508	H	0.159755	0.328498	0.062643
C509	C	-0.112320	0.262777	0.355578
C510	C	-0.063517	0.293754	0.323341
C511	C	-0.043917	0.292159	0.282337
C512	C	-0.073119	0.259586	0.273570
C513	C	-0.121924	0.228606	0.305807
C514	C	-0.141524	0.230201	0.346811
H515	H	-0.041898	0.317869	0.329831
H516	H	-0.007788	0.315093	0.258473
H517	H	-0.058610	0.258405	0.243216
H518	H	-0.143544	0.204491	0.299317
H519	H	-0.177653	0.207268	0.370675
C520	C	-0.661561	-0.205569	0.392498
C521	C	-0.656166	-0.196808	0.354529
C522	C	-0.636354	-0.155806	0.333120
C523	C	-0.621938	-0.123566	0.349680
C524	C	-0.627332	-0.132326	0.387652
C525	C	-0.647144	-0.173328	0.409061
H526	H	-0.666839	-0.220675	0.342268
H527	H	-0.632361	-0.149321	0.305010
H528	H	-0.607272	-0.093214	0.333832
H529	H	-0.616660	-0.108459	0.399912
H530	H	-0.651137	-0.179813	0.437170
C531	C	-0.780722	-0.324459	0.511643
C532	C	-0.781912	-0.307792	0.543810
C533	C	-0.824516	-0.329064	0.584812
C534	C	-0.865928	-0.367004	0.593646
C535	C	-0.864739	-0.383674	0.561478
C536	C	-0.822136	-0.362401	0.520476
H537	H	-0.751255	-0.279704	0.537271
H538	H	-0.825396	-0.316724	0.608625
H539	H	-0.897466	-0.382752	0.623998
H540	H	-0.895396	-0.411761	0.568017
H541	H	-0.821255	-0.374742	0.496663
H542	H	-0.117214	-0.083584	0.019042
C543	C	0.622350	-0.205589	-0.013456
C544	C	0.641623	-0.172579	-0.046828
C545	C	0.661217	-0.131577	-0.045230
C546	C	0.661538	-0.123584	-0.010261
C547	C	0.642265	-0.156596	0.023113
C548	C	0.622671	-0.197598	0.021515
H549	H	0.641386	-0.178494	-0.072716
H550	H	0.675485	-0.107140	-0.069936
H551	H	0.676043	-0.093232	-0.009078
H552	H	0.642502	-0.150680	0.049001
H553	H	0.608403	-0.222035	0.046221
H554	H	-0.002524	-0.026519	0.028802
H555	H	0.064808	0.098152	0.019035
H556	H	-0.182059	-0.115906	-0.114213
C557	C	-0.112069	-0.072940	-0.189874
C558	C	-0.072741	-0.053346	-0.232388
C559	C	-0.053004	-0.012341	-0.253715
C560	C	-0.072595	0.009069	-0.232526
C561	C	-0.111925	-0.010525	-0.190009
C562	C	-0.131662	-0.051529	-0.168683
H563	H	-0.058237	-0.069196	-0.248075
H564	H	-0.023889	0.002163	-0.285188
H565	H	-0.057985	0.039424	-0.248313
H566	H	-0.126430	0.005325	-0.174322
H567	H	-0.160777	-0.066034	-0.137209
C568	C	-0.112077	0.262774	0.474477
C569	C	-0.072756	0.259577	0.454752
C570	C	-0.053037	0.257970	0.476032
C571	C	-0.072639	0.259561	0.517036
C572	C	-0.111962	0.262758	0.536763
C573	C	-0.131681	0.264365	0.515483
H574	H	-0.058244	0.258400	0.424396
H575	H	-0.023928	0.255604	0.461428
H576	H	-0.058042	0.258371	0.532788
H577	H	-0.126474	0.263935	0.567118
H578	H	-0.160790	0.266731	0.530086
C579	C	0.096963	-0.325000	0.108630
C580	C	0.049856	-0.338724	0.122733
C581	C	0.030038	-0.360124	0.101542
C582	C	0.057327	-0.367799	0.066249
C583	C	0.104437	-0.354075	0.052145
C584	C	0.124255	-0.332675	0.073335
H585	H	0.029652	-0.333043	0.148860
H586	H	-0.004836	-0.370284	0.111984
H587	H	0.042657	-0.383641	0.050563
H588	H	0.124641	-0.359756	0.026017
H589	H	0.159130	-0.322515	0.062893
C590	C	0.338443	-0.205594	-0.013443
C591	C	0.385550	-0.172588	-0.046824
C592	C	0.405367	-0.131582	-0.045237
C593	C	0.378077	-0.123581	-0.010269
C594	C	0.330967	-0.156588	0.023114
C595	C	0.311150	-0.197595	0.021527
H596	H	0.405754	-0.178509	-0.072711
H597	H	0.440241	-0.107148	-0.069949
H598	H	0.392747	-0.093226	-0.009095
H599	H	0.310763	-0.150667	0.049001
H600	H	0.276276	-0.222028	0.046240
H601	H	-0.667447	-0.603843	0.398798
C602	C	-0.187400	-0.229493	-0.108438
C603	C	-0.158296	-0.238326	-0.104963
C604	C	-0.178024	-0.279327	-0.083635
C605	C	-0.226856	-0.311494	-0.065784
C606	C	-0.255963	-0.302661	-0.069259
C607	C	-0.236235	-0.261660	-0.090586
H608	H	-0.122145	-0.214514	-0.118178
H609	H	-0.156476	-0.285866	-0.081063
H610	H	-0.241459	-0.341846	-0.049996
H611	H	-0.292114	-0.326474	-0.056043
H612	H	-0.257783	-0.255122	-0.093159
C613	C	0.096759	0.173537	-0.392610
C614	C	0.091364	0.176910	-0.354641
C615	C	0.071553	0.198103	-0.333235
C616	C	0.057137	0.215924	-0.349799
C617	C	0.062532	0.212552	-0.387770
C618	C	0.082343	0.191358	-0.409176
H619	H	0.102035	0.163717	-0.342378
H620	H	0.067559	0.200599	-0.305127
H621	H	0.042472	0.231612	-0.333953
H622	H	0.051860	0.225744	-0.400033
H623	H	0.086337	0.188862	-0.437285
H624	H	0.333308	0.295959	-0.501595
H625	H	0.167522	0.263171	0.365746
C626	C	0.172415	0.092624	-0.474339
C627	C	0.177817	0.089251	-0.512310
C628	C	0.197634	0.068059	-0.533713
C629	C	0.212048	0.050241	-0.517145
C630	C	0.206646	0.053614	-0.479171
C631	C	0.186830	0.074805	-0.457768
H632	H	0.167147	0.102441	-0.524577
H633	H	0.201632	0.065563	-0.561824
H634	H	0.226717	0.034554	-0.532988
H635	H	0.217316	0.040423	-0.466904
H636	H	0.182831	0.077302	-0.429658
H637	H	0.064816	0.263199	0.468675
C638	C	0.219282	-0.324495	-0.013424
C639	C	0.177869	-0.362435	0.019153
C640	C	0.135270	-0.383712	0.020750
C641	C	0.134083	-0.367049	-0.010230
C642	C	0.175497	-0.329107	-0.042810
C643	C	0.218097	-0.307830	-0.044407
H644	H	0.178747	-0.374772	0.042089
H645	H	0.104612	-0.411800	0.044868
H646	H	0.102548	-0.382800	-0.009048
H647	H	0.174620	-0.316770	-0.065746
H648	H	0.248754	-0.279742	-0.068525
H649	H	0.102606	-0.218843	0.013783
H650	H	0.204850	0.168253	-0.501099
C651	C	-0.186932	-0.608900	0.392523
C652	C	-0.206207	-0.594802	0.378787
C653	C	-0.225801	-0.615994	0.357379
C654	C	-0.226120	-0.651283	0.349706
C655	C	-0.206844	-0.665382	0.363442
C656	C	-0.187250	-0.644191	0.384850
H657	H	-0.205971	-0.568678	0.384467
H658	H	-0.240070	-0.605556	0.347211
H659	H	-0.240625	-0.666970	0.333858
H660	H	-0.207080	-0.691507	0.357762
H661	H	-0.172981	-0.654629	0.395018
C662	C	0.097521	-0.229508	-0.393350
C663	C	0.083210	-0.261676	-0.410016
C664	C	0.063534	-0.302677	-0.388740
C665	C	0.058169	-0.311509	-0.350798
C666	C	0.072480	-0.279340	-0.334130
C667	C	0.092156	-0.238339	-0.355406
H668	H	0.087181	-0.255138	-0.438105
H669	H	0.052940	-0.326490	-0.401079
H670	H	0.043604	-0.341860	-0.335048
H671	H	0.068509	-0.285878	-0.306041
H672	H	0.102750	-0.214526	-0.343067
H673	H	0.437707	0.310988	-0.411425
H674	H	0.100131	-0.026521	0.028807
H675	H	0.167506	-0.083593	0.019063
H676	H	0.205322	0.268398	0.114116
C677	C	0.110837	0.253259	0.303329
C678	C	0.131429	0.252978	0.324202
C679	C	0.172602	0.252396	0.303615
C680	C	0.193181	0.252097	0.262154
C681	C	0.172589	0.252378	0.241279
C682	C	0.131417	0.252959	0.261866
H683	H	0.116195	0.253200	0.354896
H684	H	0.187845	0.252188	0.319069
H685	H	0.223659	0.251666	0.246915
H686	H	0.187824	0.252156	0.210585
H687	H	0.116174	0.253168	0.246412
C688	C	-0.781222	-0.609116	0.512162
C689	C	-0.780863	-0.595017	0.545173
C690	C	-0.823464	-0.616206	0.586176
C691	C	-0.866425	-0.651496	0.594167
C692	C	-0.866785	-0.665597	0.561154
C693	C	-0.824184	-0.644407	0.520152
H694	H	-0.749060	-0.568892	0.539259
H695	H	-0.823197	-0.605767	0.610614
H696	H	-0.897961	-0.667182	0.624519
H697	H	-0.898589	-0.691722	0.567069
H698	H	-0.824452	-0.654846	0.495713
H699	H	0.437704	0.310998	-0.308766
C700	C	-0.112105	-0.527994	0.474259
C701	C	-0.111781	-0.492703	0.481934
C702	C	-0.092179	-0.471514	0.503338
C703	C	-0.072902	-0.485614	0.517068
C704	C	-0.073225	-0.520907	0.509393
C705	C	-0.092827	-0.542096	0.487988
H706	H	-0.126051	-0.482263	0.471771
H707	H	-0.091940	-0.445388	0.509020
H708	H	-0.058392	-0.469929	0.532912
H709	H	-0.058955	-0.531347	0.519556
H710	H	-0.093066	-0.568222	0.482307
C711	C	0.622337	0.295553	-0.392576
C712	C	0.622655	0.260583	-0.384899
C713	C	0.642250	0.258990	-0.363491
C714	C	0.661527	0.292367	-0.349759
C715	C	0.661210	0.327339	-0.357435
C716	C	0.641615	0.328932	-0.378844
H717	H	0.608384	0.235874	-0.395065
H718	H	0.642484	0.233102	-0.357808
H719	H	0.676032	0.291188	-0.333911
H720	H	0.675481	0.352049	-0.347270
H721	H	0.641381	0.354820	-0.384527
C722	C	-0.187391	0.268877	0.393239
C723	C	-0.236226	0.237902	0.409907
C724	C	-0.255952	0.239499	0.388631
C725	C	-0.226843	0.272073	0.350687
C726	C	-0.178006	0.303050	0.334017
C727	C	-0.158280	0.301453	0.355293
H728	H	-0.257776	0.213787	0.437998
H729	H	-0.292105	0.216567	0.400972
H730	H	-0.241446	0.273255	0.334937
H731	H	-0.156455	0.327165	0.305927
H732	H	-0.122127	0.324385	0.342952
H733	H	0.552629	0.098160	-0.469035
H734	H	0.335043	-0.409068	-0.028878
H735	H	0.552391	0.301235	-0.365822
H736	H	0.205307	-0.115910	0.013801
C737	C	-0.556811	-0.414402	0.303335
C738	C	-0.515061	-0.393533	0.261870
C739	C	-0.493902	-0.414125	0.241285
C740	C	-0.514493	-0.455587	0.262166
C741	C	-0.556245	-0.476459	0.303634
C742	C	-0.577404	-0.455867	0.324219
H743	H	-0.499817	-0.362838	0.246410
H744	H	-0.462995	-0.398674	0.210588
H745	H	-0.498830	-0.470831	0.246928
H746	H	-0.571489	-0.507154	0.319094
H747	H	-0.608311	-0.471318	0.354916
C748	C	-0.377410	-0.324482	0.108349
C749	C	-0.406515	-0.362422	0.104876
C750	C	-0.386788	-0.383700	0.083554
C751	C	-0.337956	-0.367038	0.065705
C752	C	-0.308849	-0.329095	0.069177
C753	C	-0.328575	-0.307817	0.090499
H754	H	-0.442665	-0.374759	0.118089
H755	H	-0.408336	-0.411788	0.080984
H756	H	-0.323354	-0.382789	0.049921
H757	H	-0.272698	-0.316758	0.055964
H758	H	-0.307028	-0.279729	0.093069
H759	H	0.370892	-0.533512	-0.019136
C760	C	0.443197	-0.414420	-0.029025
C761	C	0.422604	-0.455885	-0.029309
C762	C	0.443754	-0.476481	-0.029870
C763	C	0.485498	-0.455611	-0.030146
C764	C	0.506093	-0.414144	-0.029862
C765	C	0.484943	-0.393549	-0.029301
H766	H	0.391700	-0.471336	-0.029105
H767	H	0.428508	-0.507177	-0.030081
H768	H	0.501155	-0.470857	-0.030561
H769	H	0.536997	-0.398693	-0.030066
H770	H	0.500189	-0.362852	-0.029090
C771	C	-0.377650	-0.205580	0.108605
C772	C	-0.406847	-0.196806	0.105233
C773	C	-0.387242	-0.155800	0.084043
C774	C	-0.338439	-0.123569	0.066223
C775	C	-0.309240	-0.132342	0.069594
C776	C	-0.328845	-0.173348	0.090785
H777	H	-0.442976	-0.220667	0.118425
H778	H	-0.408858	-0.149306	0.081547
H779	H	-0.323927	-0.093213	0.050537
H780	H	-0.273111	-0.108482	0.056403
H781	H	-0.307229	-0.179843	0.093280
H782	H	-0.182070	-0.115902	0.013781
C783	C	0.547511	0.301620	-0.474315
C784	C	0.567233	0.300013	-0.515312
C785	C	0.547632	0.301598	-0.536718
C786	C	0.508309	0.304792	-0.517126
C787	C	0.488585	0.306400	-0.476125
C788	C	0.508186	0.304814	-0.454720
H789	H	0.596345	0.297648	-0.529818
H790	H	0.562234	0.300408	-0.567069
H791	H	0.493800	0.305965	-0.532971
H792	H	0.459473	0.308764	-0.461620
H793	H	0.493584	0.306005	-0.424369
C794	C	0.216387	0.268850	0.392507
C795	C	0.216021	0.235473	0.378776
C796	C	0.258618	0.237065	0.357371
C797	C	0.301581	0.272033	0.349697
C798	C	0.301948	0.305413	0.363428
C799	C	0.259351	0.303821	0.384833
H800	H	0.184215	0.209585	0.384457
H801	H	0.258345	0.212355	0.347207
H802	H	0.333113	0.273211	0.333852
H803	H	0.333754	0.331301	0.357748
H804	H	0.259624	0.328531	0.394998
C805	C	0.219300	0.295549	-0.393357
C806	C	0.218114	0.326525	-0.410028
C807	C	0.175513	0.324929	-0.388756
C808	C	0.134100	0.292356	-0.350813
C809	C	0.135285	0.261377	-0.334140
C810	C	0.177885	0.262973	-0.355412
H811	H	0.248772	0.350640	-0.438118
H812	H	0.174636	0.347861	-0.401099
H813	H	0.102564	0.291174	-0.335066
H814	H	0.104626	0.237262	-0.306050
H815	H	0.178762	0.240040	-0.343069
H816	H	0.617485	0.168277	-0.501573
H817	H	-0.732075	-0.351477	0.468678
C818	C	0.622825	0.174045	-0.393329
C819	C	0.671658	0.191901	-0.409996
C820	C	0.691385	0.213228	-0.388721
C821	C	0.662278	0.216699	-0.350779
C822	C	0.613441	0.198843	-0.334110
C823	C	0.593714	0.177516	-0.355385
H824	H	0.693208	0.189332	-0.438085
H825	H	0.727537	0.226446	-0.401061
H826	H	0.676880	0.232487	-0.335030
H827	H	0.591891	0.201412	-0.306021
H828	H	0.557562	0.164298	-0.343045
C829	C	0.337912	-0.110862	-0.108417
C830	C	0.352230	-0.127525	-0.090568
C831	C	0.371909	-0.106247	-0.069244
C832	C	0.377270	-0.068308	-0.065770
C833	C	0.362951	-0.051643	-0.083620
C834	C	0.343272	-0.072921	-0.104944
H835	H	0.348262	-0.155612	-0.093139
H836	H	0.382509	-0.118584	-0.056031
H837	H	0.391838	-0.052557	-0.049986
H838	H	0.366919	-0.023556	-0.081049
H839	H	0.332672	-0.060584	-0.118157
C840	C	0.381954	0.301683	-0.189864
C841	C	0.401767	0.300091	-0.168674
C842	C	0.444365	0.301685	-0.189999
C843	C	0.467151	0.304870	-0.232513
C844	C	0.447339	0.306462	-0.253705
C845	C	0.404740	0.304869	-0.232381
H846	H	0.384899	0.297733	-0.137200
H847	H	0.459031	0.300506	-0.174311
H848	H	0.498685	0.306049	-0.248299
H849	H	0.464207	0.308820	-0.285179
H850	H	0.390074	0.306047	-0.248069
H851	H	-0.732353	-0.533492	0.468971
H852	H	0.267945	0.301232	-0.366341
C853	C	0.338458	-0.609137	-0.013461
C854	C	0.385568	-0.595039	-0.046835
C855	C	0.405380	-0.616230	-0.045240
C856	C	0.378083	-0.651519	-0.010272
C857	C	0.330970	-0.665619	0.023105
C858	C	0.311157	-0.644428	0.021510
H859	H	0.405777	-0.568914	-0.072723
H860	H	0.440256	-0.605792	-0.069948
H861	H	0.392749	-0.667206	-0.009091
H862	H	0.310760	-0.691744	0.048993
H863	H	0.276281	-0.654866	0.046218
H864	H	0.370598	-0.083850	-0.184076
H865	H	-0.182293	-0.218837	0.013775
H866	H	-0.117435	-0.186523	0.019040
C867	C	0.096961	-0.325007	0.512182
C868	C	0.124260	-0.332678	0.520172
C869	C	0.104449	-0.354086	0.561174
C870	C	0.057339	-0.367823	0.594186
C871	C	0.030037	-0.360152	0.586197
C872	C	0.049848	-0.338745	0.545195
H873	H	0.159137	-0.322508	0.495733
H874	H	0.124660	-0.359764	0.567088
H875	H	0.042673	-0.383670	0.624539
H876	H	-0.004839	-0.370322	0.610636
H877	H	0.029637	-0.333066	0.539281
C878	C	0.443443	-0.020940	-0.422258
C879	C	0.422860	-0.041814	-0.443138
C880	C	0.444037	-0.021229	-0.484894
C881	C	0.485796	0.020230	-0.505770
C882	C	0.506381	0.041106	-0.484890
C883	C	0.485205	0.020522	-0.443134
H884	H	0.391945	-0.072506	-0.427684
H885	H	0.428798	-0.036684	-0.500350
H886	H	0.501472	0.035468	-0.536680
H887	H	0.537296	0.071799	-0.500344
H888	H	0.500443	0.035976	-0.427678
C889	C	0.219298	-0.609400	-0.013443
C890	C	0.177885	-0.612872	0.019137
C891	C	0.135282	-0.634200	0.020738
C892	C	0.134094	-0.652055	-0.010240
C893	C	0.175509	-0.648584	-0.042822
C894	C	0.218111	-0.627256	-0.044423
H895	H	0.178763	-0.599654	0.042071
H896	H	0.104624	-0.636770	0.044858
H897	H	0.102557	-0.667843	-0.009055
H898	H	0.174630	-0.661802	-0.065757
H899	H	0.248769	-0.624686	-0.068543
C900	C	0.111068	-0.295327	0.303357
C901	C	0.131664	-0.274452	0.261890
C902	C	0.172845	-0.232704	0.241303
C903	C	0.193429	-0.211832	0.262183
C904	C	0.172833	-0.232708	0.303652
C905	C	0.131652	-0.274455	0.324238
H906	H	0.116427	-0.289902	0.246432
H907	H	0.188092	-0.217251	0.210605
H908	H	0.223914	-0.180928	0.246943
H909	H	0.188070	-0.217257	0.319110
H910	H	0.116405	-0.289908	0.354936
H911	H	-0.002298	-0.408829	0.411365
H912	H	0.100165	-0.026535	-0.411435
H913	H	0.335269	-0.128941	-0.308748
C914	C	0.216116	-0.205865	0.393289
C915	C	0.259016	-0.197936	0.385712
C916	C	0.301617	-0.156935	0.364439
C917	C	0.301319	-0.123862	0.350741
C918	C	0.258418	-0.131790	0.358318
C919	C	0.215816	-0.172792	0.379592
H920	H	0.259238	-0.222419	0.395852
H921	H	0.333376	-0.151066	0.358830
H922	H	0.332855	-0.093511	0.334993
H923	H	0.258195	-0.107308	0.348178
H924	H	0.184058	-0.178660	0.385200
H925	H	-0.002500	-0.026531	-0.308780
H926	H	-0.447397	-0.351491	0.184007
H927	H	0.064821	0.263164	0.184001
C928	C	0.216125	-0.205862	0.108372
C929	C	0.257537	-0.197029	0.104899
C930	C	0.300138	-0.156027	0.083577
C931	C	0.301326	-0.123858	0.065728
C932	C	0.259912	-0.132691	0.069200
C933	C	0.217311	-0.173692	0.090522
H934	H	0.256659	-0.220843	0.118113
H935	H	0.330795	-0.149489	0.081007
H936	H	0.332861	-0.093507	0.049944
H937	H	0.260790	-0.108876	0.055987
H938	H	0.186654	-0.180230	0.093093
C939	C	0.219031	-0.229762	-0.108679
C940	C	0.176064	-0.237762	-0.073388
C941	C	0.133471	-0.278768	-0.052199
C942	C	0.133845	-0.311774	-0.066301
C943	C	0.176813	-0.303775	-0.101594
C944	C	0.219406	-0.262769	-0.122783
H945	H	0.175786	-0.213328	-0.062947
H946	H	0.101663	-0.284689	-0.026073
H947	H	0.102315	-0.342129	-0.050616
H948	H	0.177092	-0.328209	-0.112036
H949	H	0.251214	-0.256848	-0.148909
H950	H	-0.116983	-0.533275	0.365765
H951	H	0.552845	0.098385	-0.366316
H952	H	0.370881	-0.248784	-0.019122
H953	H	0.552400	-0.248780	-0.019131
H954	H	0.552621	-0.351498	-0.019128
H955	H	0.267931	-0.351506	-0.019101
H956	H	0.064526	-0.351765	0.468991
H957	H	0.064523	-0.351759	0.184259
H958	H	0.167470	-0.248829	0.366274
H959	H	0.167477	-0.248833	0.184031
H960	H	0.167543	-0.083608	-0.469060
H961	H	-0.117412	-0.186525	-0.184100
H962	H	-0.002510	0.253416	0.308669
H963	H	-0.629638	-0.533721	0.366252
H964	H	-0.002512	0.253428	0.411332
