data_functionalizedCrystal
_audit_creation_method	'MofGen! by Chris Wilmer'
_symmetry_space_group_name_H-M	'P1'
_symmetry_Int_Tables_number	1
_symmetry_cell_setting	triclinic
loop_
_symmetry_equiv_pos_as_xyz
  x,y,z
_cell_length_a	17.699104
_cell_length_b	19.288859
_cell_length_c	18.366186
_cell_angle_alpha	89.994011
_cell_angle_beta	90.010768
_cell_angle_gamma	96.787378
loop_
_atom_site_label
_atom_site_type_symbol
_atom_site_fract_x
_atom_site_fract_y
_atom_site_fract_z
O1	O	-1.003945	0.087906	-0.060578
O2	O	-0.783553	0.099319	-0.060573
O3	O	-0.900120	-0.007510	-0.060571
O4	O	-0.887378	0.194735	-0.060580
O5	O	-0.900100	-0.007515	0.060528
O6	O	-0.783533	0.099314	0.060526
O7	O	-1.003925	0.087901	0.060521
Zn8	Zn	-0.893726	0.093606	0.079751
Zn9	Zn	-0.893752	0.093613	-0.079803
O10	O	-0.887358	0.194730	0.060520
C11	C	-0.755347	0.098905	-0.000023
C12	C	-0.671331	0.097671	-0.000021
C13	C	-0.146380	0.153417	-0.000023
C14	C	-0.225322	0.154572	-0.000027
C15	C	-0.274030	0.091859	-0.000025
C16	C	-0.243791	0.027987	-0.000027
C17	C	-0.164850	0.026832	-0.000029
C18	C	-0.562151	0.032643	-0.000020
C19	C	-0.641096	0.033802	-0.000015
C20	C	-0.622623	0.160383	-0.000018
C21	C	-0.543682	0.159228	-0.000020
C22	C	-0.513450	0.095356	-0.000026
C23	C	-0.427852	0.094104	-0.000023
C24	C	-0.359626	0.093111	-0.000021
C25	C	-0.899700	-0.033390	-0.000022
C26	C	-0.898472	-0.110495	-0.000023
C27	C	-0.958559	-0.674461	-0.000044
C28	C	-0.959720	-0.602013	-0.000038
C29	C	-0.891323	-0.557392	-0.000036
C30	C	-0.821761	-0.585224	-0.000023
C31	C	-0.820602	-0.657670	-0.000022
C32	C	-0.840321	-0.436180	-0.042460
C33	C	-0.841482	-0.363735	-0.042466
C34	C	-0.894895	-0.333941	-0.000036
C35	C	-0.947158	-0.376603	0.042390
C36	C	-0.945999	-0.449050	0.042391
C37	C	-0.892572	-0.478834	-0.000037
C38	C	-0.965711	-0.227561	-0.000037
C39	C	-0.966869	-0.155111	-0.000026
C40	C	-0.828909	-0.138324	-0.000019
C41	C	-0.827753	-0.210772	-0.000022
C42	C	-0.896156	-0.255387	-0.000035
C43	C	-0.032131	0.088315	-0.000027
C44	C	-0.116147	0.089549	-0.000023
C45	C	-0.887777	0.220610	-0.000031
C46	C	-0.889006	0.297715	-0.000035
N47	N	-0.893714	0.093601	0.188642
N48	N	-0.893770	0.093613	-0.188694
C49	C	-0.945346	0.046321	0.226743
C50	C	-0.945351	0.046317	0.302971
C51	C	-0.893730	0.093607	0.341095
C52	C	-0.842088	0.140891	0.302984
C53	C	-0.842080	0.140888	0.226758
C54	C	-0.883597	0.156882	0.461853
C55	C	-0.883611	0.156886	0.538078
C56	C	-0.893752	0.093616	0.576202
C57	C	-0.903895	0.030339	0.538093
C58	C	-0.903887	0.030336	0.461866
C59	C	-0.893733	0.093615	0.423750
C60	C	-0.945393	0.046328	0.696958
C61	C	-0.945392	0.046324	0.773188
C62	C	-0.842133	0.140904	0.773200
C63	C	-0.842130	0.140902	0.696972
C64	C	-0.893764	0.093614	0.658856
H65	H	-0.647246	0.212390	-0.000016
F66	F	-0.491848	0.225975	-0.000019
H67	H	-0.106728	0.204485	-0.000020
F68	F	-0.295631	-0.038757	-0.000027
H69	H	-1.014258	-0.710782	-0.000050
H70	H	-0.912144	-0.021186	0.430841
H71	H	-0.987434	0.007822	0.665923
F72	F	-0.132675	-0.041144	-0.000028
F73	F	-1.000345	-0.004005	0.813739
F74	F	-0.529986	-0.035335	-0.000040
H75	H	-1.016360	-0.579353	-0.000045
H76	H	-0.912153	-0.021182	0.569132
H77	H	-0.680753	-0.017269	-0.000016
F78	F	-1.001617	-0.494451	0.087546
H79	H	-0.766073	-0.548888	-0.000020
F80	F	-0.785865	-0.318338	-0.087625
H81	H	-0.249934	0.206579	-0.000034
F82	F	-0.787178	0.191227	0.656419
H83	H	-0.796816	-0.460430	-0.077007
F84	F	-0.787190	0.191228	0.813770
F85	F	-1.004010	-0.344902	0.087549
H86	H	-1.021409	-0.263888	-0.000047
H87	H	-1.023510	-0.132459	-0.000029
F88	F	-1.000296	-0.004008	0.186179
H89	H	-0.763962	-0.680324	-0.000013
H90	H	-0.875326	0.208408	0.430818
F91	F	-0.756115	-0.090839	-0.000009
H92	H	-0.771115	-0.233426	-0.000020
F93	F	-0.872821	0.224230	0.578630
H94	H	-0.987398	0.007814	0.333999
H95	H	-0.800057	0.179394	0.334029
F96	F	-0.787123	0.191213	0.186206
