data_functionalizedCrystal
_audit_creation_method	'MofGen! by Chris Wilmer'
_symmetry_space_group_name_H-M	'P1'
_symmetry_Int_Tables_number	1
_symmetry_cell_setting	triclinic
loop_
_symmetry_equiv_pos_as_xyz
  x,y,z
_cell_length_a	21.295420
_cell_length_b	21.295417
_cell_length_c	19.121175
_cell_angle_alpha	87.588747
_cell_angle_beta	92.457308
_cell_angle_gamma	90.027953
loop_
_atom_site_label
_atom_site_type_symbol
_atom_site_fract_x
_atom_site_fract_y
_atom_site_fract_z
Zn1	Zn	0.977486	-0.265832	0.397106
Zn2	Zn	1.310819	0.067501	0.730439
Zn3	Zn	1.644152	0.400835	1.063772
Zn4	Zn	0.972915	-0.366611	0.279651
Zn5	Zn	1.306249	-0.033278	0.612984
Zn6	Zn	1.639582	0.300055	0.946317
Zn7	Zn	0.867735	-0.261357	0.279670
Zn8	Zn	1.201069	0.071976	0.613004
Zn9	Zn	1.534402	0.405309	0.946337
Zn10	Zn	0.872178	-0.371062	0.397060
Zn11	Zn	1.205511	-0.037729	0.730393
Zn12	Zn	1.538845	0.295604	1.063726
O13	O	0.922579	-0.316216	0.338372
O14	O	1.255912	0.017118	0.671705
O15	O	1.589245	0.350451	1.005038
O16	O	1.064969	-0.279211	0.381536
O17	O	1.398302	0.054123	0.714869
O18	O	1.731636	0.387456	1.048203
O19	O	0.955191	-0.348914	0.181370
O20	O	1.288524	-0.015580	0.514703
O21	O	1.621858	0.317753	0.848037
O22	O	0.882347	-0.173863	0.295276
O23	O	1.215681	0.159471	0.628609
O24	O	1.549014	0.492804	0.961942
O25	O	1.061611	-0.353253	0.295242
O26	O	1.394945	-0.019919	0.628576
O27	O	1.728278	0.313414	0.961909
O28	O	0.962980	-0.177150	0.381555
O29	O	1.296314	0.156183	0.714888
O30	O	1.629647	0.489517	1.048222
O31	O	0.877916	-0.271584	0.181384
O32	O	1.211249	0.061749	0.514718
O33	O	1.544583	0.395083	0.848051
O34	O	0.780235	-0.275900	0.295231
O35	O	1.113568	0.057433	0.628564
O36	O	1.446902	0.390767	0.961898
O37	O	0.889919	-0.360839	0.495349
O38	O	1.223252	-0.027506	0.828682
O39	O	1.556586	0.305828	1.162016
O40	O	0.783499	-0.356500	0.381477
O41	O	1.116832	-0.023167	0.714810
O42	O	1.450166	0.310167	1.048143
O43	O	0.967288	-0.283527	0.495383
O44	O	1.300622	0.049807	0.828716
O45	O	1.633955	0.383140	1.162050
O46	O	0.959499	-0.455290	0.295198
O47	O	1.292832	-0.121957	0.628531
O48	O	1.626166	0.211377	0.961865
O49	O	0.885488	-0.458560	0.381458
O50	O	1.218821	-0.125227	0.714791
O51	O	1.552154	0.208106	1.048124
C52	C	0.759026	-0.316198	0.338351
C53	C	1.092360	0.017135	0.671685
C54	C	1.425693	0.350469	1.005018
C55	C	0.689058	-0.316206	0.338359
C56	C	1.022392	0.017127	0.671693
C57	C	1.355725	0.350461	1.005026
C58	C	0.191315	-0.358257	0.383236
C59	C	0.524649	-0.024923	0.716569
C60	C	0.857982	0.308410	1.049903
C61	C	0.257058	-0.358256	0.383229
C62	C	0.590391	-0.024923	0.716562
C63	C	0.923724	0.308410	1.049895
C64	C	0.288220	-0.316231	0.338394
C65	C	0.621554	0.017102	0.671727
C66	C	0.954887	0.350436	1.005060
C67	C	0.253635	-0.274213	0.293550
C68	C	0.586968	0.059120	0.626883
C69	C	0.920301	0.392454	0.960217
C70	C	0.187894	-0.274219	0.293554
C71	C	0.521227	0.059115	0.626887
C72	C	0.854560	0.392448	0.960220
N73	N	0.391259	-0.260912	0.333112
N74	N	0.724592	0.072421	0.666446
N75	N	1.057926	0.405754	0.999779
N76	N	0.453711	-0.260909	0.333113
N77	N	0.787044	0.072424	0.666446
N78	N	1.120377	0.405758	0.999780
C79	C	0.486294	-0.316213	0.338379
C80	C	0.819628	0.017121	0.671712
C81	C	1.152961	0.350454	1.005045
N82	N	0.454068	-0.371521	0.343658
N83	N	0.787401	-0.038188	0.676991
N84	N	1.120735	0.295145	1.010324
N85	N	0.391611	-0.371524	0.343661
N86	N	0.724944	-0.038191	0.676994
N87	N	1.058278	0.295143	1.010327
C88	C	0.359505	-0.316220	0.338384
C89	C	0.692839	0.017113	0.671718
C90	C	1.026172	0.350446	1.005051
C91	C	0.592157	-0.358231	0.383208
C92	C	0.925490	-0.024897	0.716541
C93	C	1.258824	0.308436	1.049875
C94	C	0.657900	-0.358231	0.383196
C95	C	0.991234	-0.024898	0.716529
C96	C	1.324567	0.308435	1.049862
C97	C	0.654476	-0.274183	0.293521
C98	C	0.987810	0.059151	0.626854
C99	C	1.321143	0.392484	0.960187
C100	C	0.588734	-0.274187	0.293529
C101	C	0.922068	0.059146	0.626863
C102	C	1.255401	0.392479	0.960196
C103	C	0.557579	-0.316211	0.338377
C104	C	0.890912	0.017123	0.671710
C105	C	1.224245	0.350456	1.005043
C106	C	0.922497	-0.479766	0.338336
C107	C	1.255830	-0.146433	0.671669
C108	C	1.589164	0.186901	1.005003
C109	C	0.922521	-0.549734	0.338344
C110	C	1.255854	-0.216401	0.671678
C111	C	1.589187	0.116932	1.005011
C112	C	0.964484	-0.584257	0.383302
C113	C	1.297818	-0.250924	0.716635
C114	C	1.631151	0.082410	1.049969
C115	C	0.964507	-0.650000	0.383319
C116	C	1.297841	-0.316667	0.716653
C117	C	1.631174	0.016667	1.049986
C118	C	0.922572	-0.681218	0.338366
C119	C	1.255906	-0.347884	0.671700
C120	C	1.589239	-0.014551	1.005033
C121	C	0.880601	-0.646687	0.293406
C122	C	1.213934	-0.313354	0.626739
C123	C	1.547267	0.019979	0.960072
C124	C	0.880575	-0.580946	0.293394
C125	C	1.213908	-0.247612	0.626728
C126	C	1.547241	0.085721	0.960061
N127	N	0.915472	-0.782129	0.276900
N128	N	1.248805	-0.448796	0.610233
N129	N	1.582138	-0.115463	0.943567
N130	N	0.915500	-0.844581	0.276913
N131	N	1.248833	-0.511248	0.610246
N132	N	1.582167	-0.177915	0.943579
C133	C	0.922647	-0.879294	0.338398
C134	C	1.255981	-0.545960	0.671731
C135	C	1.589314	-0.212627	1.005065
N136	N	0.929777	-0.849195	0.399872
N137	N	1.263111	-0.515862	0.733205
N138	N	1.596444	-0.182528	1.066539
N139	N	0.929752	-0.786737	0.399859
N140	N	1.263085	-0.453404	0.733192
N141	N	1.596419	-0.120071	1.066525
C142	C	0.922596	-0.752503	0.338374
C143	C	1.255929	-0.419170	0.671707
C144	C	1.589262	-0.085837	1.005040
C145	C	0.964638	-0.985103	0.383379
C146	C	1.297971	-0.651769	0.716712
C147	C	1.631305	-0.318436	1.050045
C148	C	0.964657	-1.050847	0.383397
C149	C	1.297990	-0.717514	0.716730
C150	C	1.631323	-0.384180	1.050064
C151	C	0.880753	-1.047533	0.293477
C152	C	1.214087	-0.714199	0.626810
C153	C	1.547420	-0.380866	0.960144
C154	C	0.880732	-0.981790	0.293465
C155	C	1.214065	-0.648456	0.626798
C156	C	1.547398	-0.315123	0.960131
C157	C	0.922677	-0.950579	0.338414
C158	C	1.256011	-0.617245	0.671748
C159	C	1.589344	-0.283912	1.005081
C160	C	1.086770	-0.316234	0.338392
C161	C	1.420103	0.017099	0.671726
C162	C	1.753436	0.350433	1.005059
C163	C	1.156738	-0.316242	0.338401
C164	C	1.490071	0.017091	0.671734
C165	C	1.823405	0.350425	1.005068
C166	C	0.929609	-0.323178	0.521562
C167	C	1.262942	0.010155	0.854896
C168	C	1.596276	0.343488	1.188229
C169	C	0.932605	-0.326145	0.599627
C170	C	1.265938	0.007188	0.932961
C171	C	1.599272	0.340521	1.266294
C172	C	0.922678	-0.152027	0.338423
C173	C	1.256012	0.181306	0.671756
C174	C	1.589345	0.514639	1.005089
C175	C	0.922721	-0.082060	0.338444
C176	C	1.256054	0.251273	0.671778
C177	C	1.589387	0.584607	1.005111
C178	C	0.915612	-0.309235	0.155894
C179	C	1.248945	0.024098	0.489227
C180	C	1.582278	0.357432	0.822560
C181	C	0.912738	-0.306090	0.077829
C182	C	1.246071	0.027243	0.411162
C183	C	1.579404	0.360576	0.744496
C184	C	0.893781	-0.287279	0.636309
C185	C	1.227115	0.046055	0.969643
C186	C	1.560448	0.379388	1.302976
C187	C	0.896594	-0.290072	0.709660
C188	C	1.229927	0.043261	1.042993
C189	C	1.563261	0.376595	1.376326
C190	C	0.938234	-0.331729	0.746327
C191	C	1.271567	0.001604	1.079660
C192	C	1.604901	0.334938	1.412993
C193	C	0.977059	-0.370600	0.709639
C194	C	1.310393	-0.037266	1.042973
C195	C	1.643726	0.296067	1.376306
C196	C	0.974243	-0.367809	0.636290
C197	C	1.307576	-0.034476	0.969624
C198	C	1.640910	0.298857	1.302957
C199	C	0.948747	-0.342171	0.967793
C200	C	1.282080	-0.008838	1.301126
C201	C	1.615414	0.324496	1.634460
C202	C	0.951562	-0.344957	1.041147
C203	C	1.284895	-0.011624	1.374480
C204	C	1.618228	0.321710	1.707814
C205	C	0.871095	-0.264430	1.041162
C206	C	1.204428	0.068904	1.374495
C207	C	1.537762	0.402237	1.707829
C208	C	0.868285	-0.261640	0.967812
C209	C	1.201618	0.071693	1.301145
C210	C	1.534952	0.405026	1.634478
C211	C	0.907108	-0.300514	0.931131
C212	C	1.240441	0.032820	1.264464
C213	C	1.573775	0.366153	1.597798
C214	C	0.941111	-0.334583	0.821302
C215	C	1.274445	-0.001250	1.154636
C216	C	1.607778	0.332083	1.487969
C217	C	0.904227	-0.297662	0.856156
C218	C	1.237560	0.035672	1.189490
C219	C	1.570894	0.369005	1.522823
H220	H	0.998674	-0.678114	0.419938
H221	H	1.332008	-0.344781	0.753271
H222	H	1.665341	-0.011447	1.086604
O223	O	0.154231	-0.233383	0.250093
O224	O	0.487565	0.099950	0.583427
O225	O	0.820898	0.433283	0.916760
C226	C	0.079697	-0.148025	0.240805
C227	C	0.413031	0.185309	0.574138
C228	C	0.746364	0.518642	0.907471
C229	C	0.117778	-0.194239	0.290104
C230	C	0.451111	0.139095	0.623438
C231	C	0.784444	0.472428	0.956771
H232	H	0.050225	-0.116355	0.273134
H233	H	0.383559	0.216978	0.606468
H234	H	0.716892	0.550311	0.939801
H235	H	0.047451	-0.175460	0.204046
H236	H	0.380785	0.157873	0.537380
H237	H	0.714118	0.491207	0.870713
H238	H	0.113265	-0.118016	0.208731
H239	H	0.446598	0.215318	0.542065
H240	H	0.779931	0.548651	0.875398
H241	H	0.084258	-0.224259	0.322223
H242	H	0.417591	0.109074	0.655557
H243	H	0.750924	0.442408	0.988890
H244	H	0.150032	-0.166765	0.326817
H245	H	0.483365	0.166568	0.660150
H246	H	0.816698	0.499901	0.993483
H247	H	0.870322	-0.263747	0.826299
H248	H	1.203655	0.069586	1.159632
H249	H	1.536989	0.402920	1.492966
H250	H	0.566789	-0.392449	0.419725
H251	H	0.900122	-0.059116	0.753058
H252	H	1.233455	0.274217	1.086391
O253	O	0.853275	-0.246798	0.600803
O254	O	1.186609	0.086536	0.934136
O255	O	1.519942	0.419869	1.267469
C256	C	0.773782	-0.167200	0.608568
C257	C	1.107115	0.166133	0.941901
C258	C	1.440449	0.499466	1.275235
C259	C	0.819619	-0.213025	0.648863
C260	C	1.152952	0.120308	0.982197
C261	C	1.486286	0.453642	1.315530
H262	H	0.746568	-0.139873	0.647407
H263	H	1.079901	0.193460	0.980741
H264	H	1.413235	0.526793	1.314074
H265	H	0.739490	-0.194763	0.574234
H266	H	1.072823	0.138571	0.907568
H267	H	1.406156	0.471904	1.240901
H268	H	0.801391	-0.133007	0.574222
H269	H	1.134724	0.200326	0.907556
H270	H	1.468058	0.533660	1.240889
H271	H	0.792062	-0.247228	0.683247
H272	H	1.125395	0.086105	1.016580
H273	H	1.458729	0.419438	1.349913
H274	H	0.853912	-0.185422	0.683153
H275	H	1.187245	0.147912	1.016486
H276	H	1.520578	0.481245	1.349819
H277	H	0.998638	-0.558847	0.419905
H278	H	1.331971	-0.225514	0.753238
H279	H	1.665304	0.107820	1.086571
O280	O	0.684840	-0.233382	0.250032
O281	O	1.018173	0.099951	0.583365
O282	O	1.351506	0.433284	0.916698
C283	C	0.784599	-0.196155	0.210247
C284	C	1.117932	0.137179	0.543580
C285	C	1.451265	0.470512	0.876913
C286	C	0.750289	-0.242383	0.259550
C287	C	1.083623	0.090951	0.592883
C288	C	1.416956	0.424284	0.926216
H289	H	0.837520	-0.203424	0.217914
H290	H	1.170853	0.129909	0.551248
H291	H	1.504187	0.463242	0.884581
H292	H	0.772222	-0.145872	0.222682
H293	H	1.105555	0.187462	0.556015
H294	H	1.438888	0.520795	0.889349
H295	H	0.769446	-0.204975	0.153602
H296	H	1.102779	0.128358	0.486935
H297	H	1.436113	0.461691	0.820268
H298	H	0.765423	-0.233619	0.316211
H299	H	1.098757	0.099714	0.649544
H300	H	1.432090	0.433047	0.982878
H301	H	0.762667	-0.292650	0.247054
H302	H	1.096001	0.040683	0.580387
H303	H	1.429334	0.374017	0.913721
O304	O	0.283803	-0.233368	0.249930
O305	O	0.617137	0.099966	0.583263
O306	O	0.950470	0.433299	0.916596
C307	C	0.273472	-0.149986	0.161008
C308	C	0.606805	0.183347	0.494342
C309	C	0.940138	0.516680	0.827675
C310	C	0.239227	-0.196218	0.210367
C311	C	0.572561	0.137116	0.543700
C312	C	0.905894	0.470449	0.877034
H313	H	0.237448	-0.119929	0.129020
H314	H	0.570781	0.213404	0.462353
H315	H	0.904114	0.546737	0.795686
H316	H	0.302802	-0.177408	0.124180
H317	H	0.636136	0.155926	0.457514
H318	H	0.969469	0.489259	0.790847
H319	H	0.305525	-0.118365	0.193326
H320	H	0.638859	0.214968	0.526659
H321	H	0.972192	0.548301	0.859993
H322	H	0.207142	-0.227850	0.178106
H323	H	0.540475	0.105484	0.511439
H324	H	0.873808	0.438817	0.844773
H325	H	0.209936	-0.168757	0.247197
H326	H	0.543270	0.164576	0.580530
H327	H	0.876603	0.497909	0.913864
H328	H	0.846605	-1.072949	0.256880
H329	H	1.179939	-0.739616	0.590213
H330	H	1.513272	-0.406283	0.923546
H331	H	1.010960	-0.404521	0.739500
H332	H	1.344294	-0.071188	1.072833
H333	H	1.677627	0.262146	1.406166
H334	H	0.846456	-0.672109	0.256806
H335	H	1.179789	-0.338776	0.590139
H336	H	1.513123	-0.005442	0.923473
O337	O	0.839951	-0.948345	0.249719
O338	O	1.173284	-0.615012	0.583052
O339	O	1.506617	-0.281679	0.916386
C340	C	0.756711	-0.951999	0.160561
C341	C	1.090044	-0.618666	0.493894
C342	C	1.423378	-0.285332	0.827227
C343	C	0.802875	-0.989950	0.210056
C344	C	1.136208	-0.656617	0.543389
C345	C	1.469542	-0.323284	0.876722
H346	H	0.726714	-0.985621	0.128490
H347	H	1.060048	-0.652287	0.461824
H348	H	1.393381	-0.318954	0.795157
H349	H	0.784188	-0.919831	0.123815
H350	H	1.117521	-0.586498	0.457148
H351	H	1.450855	-0.253165	0.790481
H352	H	0.725024	-0.922443	0.192776
H353	H	1.058357	-0.589110	0.526110
H354	H	1.391690	-0.255776	0.859443
H355	H	0.834573	-1.019543	0.177897
H356	H	1.167907	-0.686209	0.511230
H357	H	1.501240	-0.352876	0.844563
H358	H	0.775359	-1.022079	0.246804
H359	H	1.108692	-0.688745	0.580137
H360	H	1.442026	-0.355412	0.913470
O361	O	1.011928	-0.405655	0.600731
O362	O	1.345261	-0.072321	0.934064
O363	O	1.678594	0.261012	1.267398
C364	C	1.041521	-0.511884	0.578220
C365	C	1.374854	-0.178550	0.911554
C366	C	1.708188	0.154783	1.244887
C367	C	0.998819	-0.469092	0.618547
C368	C	1.332153	-0.135759	0.951880
C369	C	1.665486	0.197574	1.285213
H370	H	1.030929	-0.563182	0.592598
H371	H	1.364262	-0.229849	0.925931
H372	H	1.697596	0.103485	1.259265
H373	H	1.092853	-0.501440	0.592661
H374	H	1.426186	-0.168107	0.925994
H375	H	1.759520	0.165227	1.259327
H376	H	1.032364	-0.502703	0.519502
H377	H	1.365697	-0.169369	0.852835
H378	H	1.699030	0.163964	1.186169
H379	H	1.007921	-0.478249	0.677274
H380	H	1.341254	-0.144916	1.010607
H381	H	1.674588	0.188418	1.343941
H382	H	0.947502	-0.479545	0.604048
H383	H	1.280835	-0.146211	0.937381
H384	H	1.614168	0.187122	1.270714
H385	H	0.686052	-0.392449	0.419704
H386	H	1.019385	-0.059116	0.753037
H387	H	1.352719	0.274218	1.086371
H388	H	0.560581	-0.239972	0.257022
H389	H	0.893914	0.093361	0.590355
H390	H	1.227248	0.426694	0.923689
O391	O	1.005362	-1.084481	0.427050
O392	O	1.338695	-0.751148	0.760383
O393	O	1.672029	-0.417814	1.093716
C394	C	1.042612	-1.187226	0.466889
C395	C	1.375945	-0.853893	0.800222
C396	C	1.709278	-0.520560	1.133555
C397	C	0.996470	-1.149213	0.417428
C398	C	1.329803	-0.815880	0.750761
C399	C	1.663136	-0.482546	1.084095
H400	H	1.035447	-1.239569	0.459116
H401	H	1.368781	-0.906235	0.792450
H402	H	1.702114	-0.572902	1.125783
H403	H	1.033689	-1.176485	0.523524
H404	H	1.367023	-0.843152	0.856857
H405	H	1.700356	-0.509819	1.190190
H406	H	1.092896	-1.173759	0.454607
H407	H	1.426229	-0.840425	0.787940
H408	H	1.759562	-0.507092	1.121274
H409	H	0.946168	-1.162659	0.429646
H410	H	1.279502	-0.829325	0.762980
H411	H	1.612835	-0.495992	1.096313
H412	H	1.005447	-1.159958	0.360808
H413	H	1.338780	-0.826624	0.694141
H414	H	1.672113	-0.493291	1.027474
H415	H	0.846402	-0.552837	0.256784
H416	H	1.179735	-0.219503	0.590117
H417	H	1.513069	0.113830	0.923450
O418	O	0.986530	-0.379947	0.932276
O419	O	1.319863	-0.046614	1.265609
O420	O	1.653196	0.286720	1.598943
C421	C	1.066625	-0.460126	0.940008
C422	C	1.399959	-0.126793	1.273342
C423	C	1.733292	0.206541	1.606675
C424	C	1.023877	-0.417372	0.980322
C425	C	1.357210	-0.084038	1.313655
C426	C	1.690543	0.249295	1.646989
H427	H	1.096822	-0.490404	0.978836
H428	H	1.430155	-0.157071	1.312169
H429	H	1.763489	0.176262	1.645502
H430	H	1.098281	-0.429950	0.905704
H431	H	1.431615	-0.096617	1.239037
H432	H	1.764948	0.236717	1.572370
H433	H	1.036383	-0.491708	0.905632
H434	H	1.369716	-0.158375	1.238966
H435	H	1.703049	0.174958	1.572299
H436	H	1.054070	-0.385782	1.014736
H437	H	1.387404	-0.052449	1.348069
H438	H	1.720737	0.280885	1.681403
H439	H	0.992217	-0.447585	1.014582
H440	H	1.325551	-0.114252	1.347916
H441	H	1.658884	0.219082	1.681249
H442	H	0.998791	-0.959690	0.419982
H443	H	1.332124	-0.626356	0.753315
H444	H	1.665458	-0.293023	1.086648
H445	H	0.285216	-0.392470	0.419741
H446	H	0.618549	-0.059137	0.753074
H447	H	0.951882	0.274197	1.086408
O448	O	0.858807	-0.252411	0.745317
O449	O	1.192140	0.080923	1.078651
O450	O	1.525473	0.414256	1.411984
C451	C	0.777008	-0.247092	0.828133
C452	C	1.110342	0.086241	1.161466
C453	C	1.443675	0.419575	1.494799
C454	C	0.819763	-0.289815	0.787787
C455	C	1.153096	0.043519	1.121120
C456	C	1.486430	0.376852	1.454454
H457	H	0.745440	-0.277315	0.862490
H458	H	1.078773	0.056018	1.195824
H459	H	1.412107	0.389351	1.529157
H460	H	0.746722	-0.216856	0.789351
H461	H	1.080056	0.116478	1.122684
H462	H	1.413389	0.449811	1.456018
H463	H	0.807248	-0.215469	0.862464
H464	H	1.140581	0.117864	1.195797
H465	H	1.473915	0.451198	1.529131
H466	H	0.789572	-0.321476	0.753455
H467	H	1.122905	0.011858	1.086788
H468	H	1.456239	0.345191	1.420121
H469	H	0.850053	-0.320008	0.826607
H470	H	1.183386	0.013325	1.159940
H471	H	1.516719	0.346658	1.493273
O472	O	0.833356	-0.226612	1.076686
O473	O	1.166689	0.106721	1.410019
O474	O	1.500023	0.440055	1.743352
C475	C	0.753214	-0.146479	1.068958
C476	C	1.086547	0.186854	1.402292
C477	C	1.419881	0.520188	1.735625
C478	C	0.795933	-0.189261	1.028642
C479	C	1.129266	0.144072	1.361975
C480	C	1.462600	0.477406	1.695309
H481	H	0.722937	-0.116279	1.030133
H482	H	1.056271	0.217054	1.363466
H483	H	1.389604	0.550388	1.696799
H484	H	0.783419	-0.114829	1.103295
H485	H	1.116753	0.218505	1.436628
H486	H	1.450086	0.551838	1.769962
H487	H	0.721628	-0.176694	1.103303
H488	H	1.054961	0.156639	1.436636
H489	H	1.388294	0.489972	1.769970
H490	H	0.827527	-0.159095	0.994259
H491	H	1.160860	0.174239	1.327593
H492	H	1.494193	0.507572	1.660926
H493	H	0.765690	-0.220915	0.994350
H494	H	1.099024	0.112419	1.327683
H495	H	1.432357	0.445752	1.661016
O496	O	0.992074	-0.385342	1.076802
O497	O	1.325407	-0.052008	1.410135
O498	O	1.658740	0.281325	1.743468
C499	C	1.080201	-0.396982	1.159668
C500	C	1.413535	-0.063649	1.493001
C501	C	1.746868	0.269684	1.826334
C502	C	1.034378	-0.351180	1.119318
C503	C	1.367711	-0.017846	1.452651
C504	C	1.701045	0.315487	1.785984
H505	H	1.114407	-0.369382	1.194063
H506	H	1.447741	-0.036048	1.527396
H507	H	1.781074	0.297285	1.860729
H508	H	1.107513	-0.424283	1.120888
H509	H	1.440846	-0.090950	1.454222
H510	H	1.774180	0.242384	1.787555
H511	H	1.052573	-0.431202	1.193962
H512	H	1.385906	-0.097868	1.527295
H513	H	1.719240	0.235465	1.860628
H514	H	1.061958	-0.316922	1.085023
H515	H	1.395291	0.016411	1.418356
H516	H	1.728624	0.349745	1.751689
H517	H	1.007065	-0.323925	1.158135
H518	H	1.340399	0.009409	1.491468
H519	H	1.673732	0.342742	1.824801
O520	O	0.827922	-0.221111	0.932161
O521	O	1.161256	0.112223	1.265494
O522	O	1.494589	0.445556	1.598828
C523	C	0.816325	-0.133002	0.849336
C524	C	1.149659	0.200331	1.182669
C525	C	1.482992	0.533664	1.516003
C526	C	0.862105	-0.178852	0.889681
C527	C	1.195438	0.154481	1.223014
C528	C	1.528771	0.487814	1.556348
H529	H	0.843943	-0.098833	0.814970
H530	H	1.177276	0.234500	1.148303
H531	H	1.510609	0.567833	1.481637
H532	H	0.789066	-0.105653	0.888119
H533	H	1.122399	0.227680	1.221452
H534	H	1.455732	0.561013	1.554785
H535	H	0.782066	-0.160611	0.815014
H536	H	1.115399	0.172723	1.148347
H537	H	1.448732	0.506056	1.481680
H538	H	0.896402	-0.151293	0.924004
H539	H	1.229736	0.182041	1.257338
H540	H	1.563069	0.515374	1.590671
H541	H	0.889319	-0.206202	0.850860
H542	H	1.222652	0.127131	1.184194
H543	H	1.555985	0.460465	1.517527
O544	O	0.161150	-0.399145	0.426812
O545	O	0.494483	-0.065811	0.760146
O546	O	0.827816	0.267522	1.093479
C547	C	0.171487	-0.482489	0.515777
C548	C	0.504821	-0.149155	0.849110
C549	C	0.838154	0.184178	1.182444
C550	C	0.205731	-0.436223	0.466456
C551	C	0.539064	-0.102890	0.799789
C552	C	0.872397	0.230443	1.133123
H553	H	0.207516	-0.512470	0.547852
H554	H	0.540850	-0.179136	0.881186
H555	H	0.874183	0.154197	1.214519
H556	H	0.139474	-0.514178	0.483496
H557	H	0.472807	-0.180845	0.816829
H558	H	0.806141	0.152489	1.150163
H559	H	0.142115	-0.455033	0.552532
H560	H	0.475448	-0.121700	0.885865
H561	H	0.808782	0.211634	1.219199
H562	H	0.235137	-0.463628	0.429691
H563	H	0.568470	-0.130294	0.763025
H564	H	0.901803	0.203039	1.096358
H565	H	0.237706	-0.404534	0.498781
H566	H	0.571040	-0.071200	0.832114
H567	H	0.904373	0.262133	1.165447
H568	H	0.975014	-0.368501	0.851165
H569	H	1.308347	-0.035168	1.184498
H570	H	1.641681	0.298165	1.517832
