data_functionalizedCrystal
_audit_creation_method	'MofGen! by Chris Wilmer'
_symmetry_space_group_name_H-M	'P1'
_symmetry_Int_Tables_number	1
_symmetry_cell_setting	triclinic
loop_
_symmetry_equiv_pos_as_xyz
  x,y,z
_cell_length_a	19.188925
_cell_length_b	14.044220
_cell_length_c	13.101039
_cell_angle_alpha	86.332523
_cell_angle_beta	86.655898
_cell_angle_gamma	91.834287
loop_
_atom_site_label
_atom_site_type_symbol
_atom_site_fract_x
_atom_site_fract_y
_atom_site_fract_z
O1	O	0.937292	-0.113040	-0.085168
O2	O	0.735009	-0.128971	-0.085181
O3	O	0.833114	0.016966	-0.085164
O4	O	0.839187	-0.258977	-0.085184
O5	O	0.826076	0.006478	0.085264
O6	O	0.727971	-0.139459	0.085248
O7	O	0.930254	-0.123528	0.085261
Zn8	Zn	0.827995	-0.133159	0.112314
Zn9	Zn	0.837268	-0.119340	-0.112234
O10	O	0.832150	-0.269465	0.085244
C11	C	0.705446	-0.133700	0.000032
C12	C	0.627842	-0.132153	0.000027
C13	C	0.826937	0.047025	0.000050
C14	C	0.819008	0.152218	0.000051
C15	C	0.959818	-0.118799	0.000046
C16	C	1.037422	-0.120345	0.000044
C17	C	1.594335	-0.045067	0.000047
C18	C	1.521417	-0.043605	0.000041
C19	C	1.482009	-0.129237	0.000037
C20	C	1.515525	-0.216334	0.000012
C21	C	1.588441	-0.217793	0.000007
N22	N	1.362938	-0.194800	0.058048
N23	N	1.293671	-0.193409	0.058054
C24	C	1.262316	-0.124848	0.000049
N25	N	1.302846	-0.057717	-0.057950
N26	N	1.372119	-0.059105	-0.057952
C27	C	1.402943	-0.127665	0.000042
C28	C	1.149744	-0.036171	0.000062
C29	C	1.076826	-0.034713	0.000050
C30	C	1.070934	-0.207445	0.000030
C31	C	1.143851	-0.208900	0.000032
C32	C	1.183252	-0.123261	0.000052
C33	C	0.838327	-0.299524	0.000028
C34	C	0.846256	-0.404716	0.000020
N35	N	0.821672	-0.142589	0.265561
C36	C	0.804513	0.344820	0.000035
C37	C	0.860748	0.402688	0.000036
C38	C	0.852683	0.509858	0.000027
C39	C	0.812577	0.237639	0.000044
N40	N	0.843596	-0.109902	-0.265481
C41	C	0.813070	-0.155427	0.474602
C42	C	0.852197	-0.097067	0.525484
C43	C	0.847410	-0.104210	0.641802
C44	C	0.817855	-0.148285	0.358274
H45	H	1.494131	0.027313	0.000057
H46	H	0.750316	0.375763	0.000029
C47	C	0.966604	0.386359	0.087671
C48	C	0.933920	0.360921	0.000056
H49	H	1.011777	0.360575	0.087681
H50	H	0.939505	0.361811	0.147087
H51	H	0.970707	0.453947	0.087653
H52	H	0.929812	0.293333	0.000077
H53	H	0.961025	0.385465	-0.059376
C54	C	0.863843	0.039437	0.404957
C55	C	0.902180	-0.022179	0.466496
H56	H	0.894673	0.085721	0.368572
H57	H	0.830859	0.070605	0.446905
H58	H	0.840007	0.003770	0.357648
H59	H	0.926012	0.013487	0.513811
H60	H	0.935177	-0.053349	0.424545
C61	C	1.231544	0.057012	0.087685
C62	C	1.193057	0.057963	0.000072
H63	H	1.258277	0.115130	0.087691
H64	H	1.261937	0.004944	0.087674
H65	H	1.200516	0.050331	0.147109
H66	H	1.224086	0.064637	-0.059353
H67	H	1.162661	0.110046	0.000074
C68	C	1.047081	-0.348821	-0.087600
C69	C	1.027625	-0.301575	0.000020
H70	H	1.020338	-0.406931	-0.087610
H71	H	1.095297	-0.362150	-0.087594
H72	H	1.038790	-0.309426	-0.147019
H73	H	1.035921	-0.340967	0.059440
H74	H	0.979398	-0.288248	0.000024
C75	C	0.727742	-0.282703	0.464115
C76	C	0.762998	-0.230118	0.533715
H77	H	0.696828	-0.328808	0.500620
H78	H	0.760657	-0.314088	0.422265
H79	H	0.701821	-0.240873	0.422269
H80	H	0.788923	-0.271947	0.575556
H81	H	0.730078	-0.198731	0.575583
H82	H	1.626410	0.024668	0.000062
H83	H	1.615722	-0.288711	-0.000007
C84	C	1.401131	-0.290793	0.000026
C85	C	1.472209	-0.310463	0.000011
H86	H	1.374392	-0.348908	0.000028
H87	H	1.392845	-0.251416	-0.059396
H88	H	1.387950	-0.258729	0.059469
H89	H	1.485392	-0.342521	-0.059436
H90	H	1.480500	-0.349855	0.059439
H91	H	1.049546	0.036207	0.000060
H92	H	1.171133	-0.279815	0.000021
