data_functionalizedCrystal
_audit_creation_method	'MofGen! by Chris Wilmer'
_symmetry_space_group_name_H-M	'P1'
_symmetry_Int_Tables_number	1
_symmetry_cell_setting	triclinic
loop_
_symmetry_equiv_pos_as_xyz
  x,y,z
_cell_length_a	17.699077
_cell_length_b	17.699083
_cell_length_c	18.366186
_cell_angle_alpha	89.992864
_cell_angle_beta	89.991511
_cell_angle_gamma	83.281795
loop_
_atom_site_label
_atom_site_type_symbol
_atom_site_fract_x
_atom_site_fract_y
_atom_site_fract_z
O1	O	1.004084	0.095691	-0.060541
O2	O	0.783705	0.108148	-0.060545
O3	O	0.900120	-0.008270	-0.060537
O4	O	0.887668	0.212109	-0.060550
O5	O	0.900101	-0.008276	0.060563
O6	O	0.783685	0.108142	0.060554
O7	O	1.004064	0.095685	0.060558
Zn8	Zn	0.893871	0.101913	0.079783
Zn9	Zn	0.893897	0.101920	-0.079770
O10	O	0.887648	0.212103	0.060550
C11	C	0.755498	0.107700	0.000004
C12	C	0.671479	0.106363	0.000003
C13	C	0.632001	0.105730	0.066015
C14	C	0.553059	0.104462	0.066016
C15	C	0.513595	0.103832	0.000004
C16	C	0.553079	0.104463	-0.066013
C17	C	0.632021	0.105725	-0.066013
C18	C	0.234716	0.099369	-0.066014
C19	C	0.155768	0.098109	-0.066009
C20	C	0.155753	0.098105	0.066015
C21	C	0.234695	0.099368	0.066015
C22	C	0.274173	0.099995	-0.000002
C23	C	0.359772	0.101369	-0.000002
C24	C	0.427997	0.102464	0.000003
C25	C	0.899664	-0.036470	0.000013
C26	C	0.898326	-0.120488	0.000013
C27	C	0.966659	-0.169110	0.000015
C28	C	0.965397	-0.248054	0.000009
C29	C	0.895800	-0.278373	0.000006
C30	C	0.827461	-0.229744	0.000001
C31	C	0.828724	-0.150803	0.000002
C32	C	0.822366	-0.548107	-0.000005
C33	C	0.821108	-0.627055	-0.000004
C34	C	0.959039	-0.645358	0.000002
C35	C	0.960302	-0.566417	0.000003
C36	C	0.891963	-0.517795	-0.000005
C37	C	0.893333	-0.432196	0.000000
C38	C	0.894430	-0.363971	0.000005
C39	C	1.032271	0.096133	0.000007
C40	C	1.116289	0.097470	0.000004
C41	C	0.888104	0.240303	-0.000002
C42	C	0.889443	0.324321	-0.000007
N43	N	0.893859	0.101907	0.188674
N44	N	0.893915	0.101920	-0.188662
C45	C	0.945425	0.050383	0.226778
C46	C	0.945429	0.050379	0.303006
C47	C	0.893876	0.101913	0.341127
C48	C	0.842300	0.153442	0.303014
C49	C	0.842292	0.153439	0.226787
C50	C	0.883833	0.170863	0.461883
C51	C	0.883846	0.170867	0.538108
C52	C	0.893897	0.101923	0.576235
C53	C	0.903950	0.032972	0.538127
C54	C	0.903942	0.032969	0.461900
C55	C	0.893879	0.101922	0.423782
C56	C	0.945471	0.050390	0.696994
C57	C	0.945471	0.050386	0.773223
C58	C	0.842345	0.153455	0.773229
C59	C	0.842342	0.153453	0.697001
C60	C	0.893909	0.101921	0.658888
H61	H	0.266822	0.099885	0.119769
H62	H	0.266849	0.099877	-0.119769
O63	O	1.001064	-0.005198	0.655867
H64	H	1.060053	0.004352	0.670476
H65	H	0.875635	0.227009	0.430847
H66	H	0.123639	0.097595	-0.119767
H67	H	0.520942	0.103945	-0.119762
O68	O	0.748656	-0.495679	-0.000004
H69	H	0.745928	-0.459274	-0.049365
O70	O	1.001058	-0.005192	0.344112
H71	H	0.969281	-0.041944	0.378854
O72	O	0.674562	0.106411	0.137216
H73	H	0.703675	0.158558	0.140370
H74	H	0.123602	0.097592	0.119769
O75	O	1.032748	-0.697805	0.000003
H76	H	1.066044	-0.687052	0.049369
H77	H	0.912126	-0.023173	0.430876
H78	H	0.773080	-0.111214	0.000001
H79	H	0.912134	-0.023169	0.569168
O80	O	0.510474	0.103787	0.137214
H81	H	0.551177	0.104449	0.183116
H82	H	0.664163	0.106242	-0.119767
H83	H	1.023333	-0.144431	0.000023
O84	O	0.746041	-0.659762	-0.000009
H85	H	0.713225	-0.640227	-0.049374
O86	O	1.001098	-0.005181	0.814327
H87	H	1.036959	-0.041004	0.775015
H88	H	1.021041	-0.287639	0.000012
H89	H	1.016974	-0.541735	0.000009
O90	O	1.001031	-0.005205	0.185669
H91	H	1.036883	-0.041040	0.224977
O92	O	0.752393	-0.262440	0.000005
H93	H	0.762993	-0.325502	0.000015
H94	H	0.800366	0.195412	0.804266
O95	O	0.786733	0.209035	0.655895
H96	H	0.750889	0.244875	0.695207
H97	H	0.875665	0.227011	0.569130
O98	O	0.786698	0.209031	0.344123
H99	H	0.795373	0.200384	0.403530
H100	H	0.800300	0.195397	0.195762
