data_functionalizedCrystal
_audit_creation_method	'MofGen! by Chris Wilmer'
_symmetry_space_group_name_H-M	'P1'
_symmetry_Int_Tables_number	1
_symmetry_cell_setting	triclinic
loop_
_symmetry_equiv_pos_as_xyz
  x,y,z
_cell_length_a	15.299816
_cell_length_b	18.050591
_cell_length_c	15.296720
_cell_angle_alpha	99.654681
_cell_angle_beta	110.757046
_cell_angle_gamma	80.345724
loop_
_atom_site_label
_atom_site_type_symbol
_atom_site_fract_x
_atom_site_fract_y
_atom_site_fract_z
Zn1	Zn	0.461305	-1.116933	0.590176
Zn2	Zn	0.794638	-0.783599	0.923509
Zn3	Zn	1.127971	-0.450266	1.256842
Zn4	Zn	0.589901	-1.153491	0.461611
Zn5	Zn	0.923234	-0.820158	0.794944
Zn6	Zn	1.256568	-0.486824	1.128278
Zn7	Zn	0.434421	-1.011081	0.434665
Zn8	Zn	0.767754	-0.677748	0.767998
Zn9	Zn	1.101088	-0.344415	1.101332
Zn10	Zn	0.616712	-1.011020	0.617034
Zn11	Zn	0.950045	-0.677687	0.950368
Zn12	Zn	1.283379	-0.344353	1.283701
O13	O	0.525585	-1.073131	0.525872
O14	O	0.858918	-0.739798	0.859205
O15	O	1.192251	-0.406465	1.192538
O16	O	0.478394	-1.225706	0.573158
O17	O	0.811727	-0.892373	0.906491
O18	O	1.145060	-0.559039	1.239824
O19	O	0.546805	-1.149925	0.327910
O20	O	0.880138	-0.816592	0.661243
O21	O	1.213471	-0.483259	0.994576
O22	O	0.307880	-1.009849	0.432777
O23	O	0.641213	-0.676515	0.766110
O24	O	0.974546	-0.343182	1.099443
O25	O	0.572873	-1.252565	0.478702
O26	O	0.906206	-0.919232	0.812035
O27	O	1.239539	-0.585898	1.145368
O28	O	0.327631	-1.087617	0.547029
O29	O	0.660964	-0.754284	0.880363
O30	O	0.994298	-0.420950	1.213696
O31	O	0.432574	-1.045298	0.308113
O32	O	0.765908	-0.711964	0.641446
O33	O	1.099241	-0.378631	0.974779
O34	O	0.458572	-0.907149	0.458820
O35	O	0.791905	-0.573816	0.792154
O36	O	1.125238	-0.240483	1.125487
O37	O	0.618568	-1.009744	0.743598
O38	O	0.951902	-0.676411	1.076932
O39	O	1.285235	-0.343077	1.410265
O40	O	0.592500	-0.907104	0.592806
O41	O	0.925834	-0.573771	0.926140
O42	O	1.259167	-0.240438	1.259473
O43	O	0.504391	-1.087558	0.723865
O44	O	0.837725	-0.754224	1.057199
O45	O	1.171058	-0.420891	1.390532
O46	O	0.723565	-1.149866	0.504746
O47	O	1.056898	-0.816533	0.838079
O48	O	1.390232	-0.483199	1.171412
O49	O	0.743263	-1.045193	0.618935
O50	O	1.076596	-0.711860	0.952268
O51	O	1.409930	-0.378527	1.285601
C52	C	0.525529	-0.880181	0.525805
C53	C	0.858862	-0.546847	0.859138
C54	C	1.192196	-0.213514	1.192471
C55	C	0.525531	-0.797636	0.525802
C56	C	0.858865	-0.464302	0.859135
C57	C	1.192198	-0.130969	1.192469
C58	C	0.767153	-1.101508	0.567699
C59	C	1.100486	-0.768175	0.901032
C60	C	1.433820	-0.434841	1.234366
C61	C	0.870502	-1.113712	0.585624
C62	C	1.203836	-0.780378	0.918957
C63	C	1.537169	-0.447045	1.252291
C64	C	0.452643	-0.548788	0.453057
C65	C	0.785976	-0.215455	0.786390
C66	C	1.119310	0.117879	1.119724
C67	C	0.444679	-0.585550	0.534005
C68	C	0.778012	-0.252216	0.867338
C69	C	1.111346	0.081117	1.200672
C70	C	0.525569	-0.500512	0.525863
C71	C	0.858902	-0.167179	0.859197
C72	C	1.192236	0.166155	1.192530
C73	C	0.533471	-0.610828	0.444883
C74	C	0.866805	-0.277495	0.778216
C75	C	1.200138	0.055839	1.111549
C76	C	0.525547	-0.646499	0.525828
C77	C	0.858881	-0.313166	0.859162
C78	C	1.192214	0.020168	1.192495
C79	C	0.517569	-0.536176	0.606849
C80	C	0.850902	-0.202842	0.940182
C81	C	1.184236	0.130491	1.273516
C82	C	0.606391	-0.561461	0.517676
C83	C	0.939724	-0.228128	0.851009
C84	C	1.273058	0.105206	1.184343
C85	C	0.598470	-0.598197	0.598688
C86	C	0.931803	-0.264864	0.932021
C87	C	1.265136	0.068469	1.265355
C88	C	0.525579	-0.416412	0.525882
C89	C	0.858912	-0.083079	0.859215
C90	C	1.192246	0.250254	1.192549
C91	C	0.525539	-0.730596	0.525819
C92	C	0.858873	-0.397262	0.859153
C93	C	1.192206	-0.063929	1.192486
C94	C	0.283077	-1.044662	0.483901
C95	C	0.616410	-0.711328	0.817234
C96	C	0.949743	-0.377995	1.150568
C97	C	0.179734	-1.032530	0.466016
C98	C	0.513067	-0.699196	0.799349
C99	C	0.846401	-0.365863	1.132683
C100	C	1.120968	-0.986358	0.398075
C101	C	1.454302	-0.653024	0.731408
C102	C	1.787635	-0.319691	1.064741
C103	C	1.023867	-0.974887	0.381235
C104	C	1.357200	-0.641554	0.714569
C105	C	1.690533	-0.308221	1.047902
C106	C	0.985521	-1.009593	0.432331
C107	C	1.318854	-0.676259	0.765664
C108	C	1.652187	-0.342926	1.098997
C109	C	1.044286	-1.055770	0.500269
C110	C	1.377619	-0.722437	0.833602
C111	C	1.710953	-0.389103	1.166935
C112	C	1.141398	-1.067236	0.517115
C113	C	1.474731	-0.733903	0.850448
C114	C	1.808065	-0.400570	1.183782
C115	C	1.005950	-1.090471	0.551371
C116	C	1.339284	-0.757138	0.884704
C117	C	1.672617	-0.423805	1.218038
C118	C	1.064716	-1.136649	0.619309
C119	C	1.398049	-0.803315	0.952643
C120	C	1.731382	-0.469982	1.285976
C121	C	1.161818	-1.148114	0.636152
C122	C	1.495151	-0.814780	0.969485
C123	C	1.828484	-0.481447	1.302818
C124	C	1.200164	-1.113408	0.585056
C125	C	1.533497	-0.780075	0.918390
C126	C	1.866830	-0.446742	1.251723
C127	C	0.908838	-1.079005	0.534525
C128	C	1.242172	-0.745672	0.867858
C129	C	1.575505	-0.412338	1.201192
C130	C	0.929268	-1.159884	0.653565
C131	C	1.262601	-0.826550	0.986899
C132	C	1.595935	-0.493217	1.320232
C133	C	1.026370	-1.171354	0.670404
C134	C	1.359703	-0.838021	1.003738
C135	C	1.693036	-0.504687	1.337071
C136	C	0.567469	-1.044566	0.768416
C137	C	0.900803	-0.711233	1.101749
C138	C	1.234136	-0.377899	1.435082
C139	C	0.585318	-1.032393	0.871774
C140	C	0.918651	-0.699060	1.205107
C141	C	1.251985	-0.365727	1.538440
C142	C	0.525622	-0.266835	0.525920
C143	C	0.858955	0.066498	0.859253
C144	C	1.192289	0.399831	1.192587
C145	C	0.525588	-0.349380	0.525892
C146	C	0.858922	-0.016047	0.859225
C147	C	1.192255	0.317286	1.192558
C148	C	0.483796	-1.101620	0.284259
C149	C	0.817129	-0.768287	0.617593
C150	C	1.150462	-0.434953	0.950926
C151	C	0.465685	-1.113906	0.180857
C152	C	0.799019	-0.780573	0.514190
C153	C	1.132352	-0.447239	0.847523
C154	C	0.397854	-1.160141	1.122028
C155	C	0.731187	-0.826807	1.455361
C156	C	1.064521	-0.493474	1.788694
C157	C	0.381086	-1.171582	1.024918
C158	C	0.714419	-0.838249	1.358252
C159	C	1.047752	-0.504916	1.691585
C160	C	0.432142	-1.136786	0.986627
C161	C	0.765475	-0.803453	1.319960
C162	C	1.098809	-0.470119	1.653294
C163	C	0.499970	-1.090546	1.045455
C164	C	0.833303	-0.757213	1.378789
C165	C	1.166637	-0.423879	1.712122
C166	C	0.516745	-1.079108	1.142575
C167	C	0.850078	-0.745774	1.475909
C168	C	1.183412	-0.412441	1.809242
C169	C	0.551033	-1.055753	1.007175
C170	C	0.884367	-0.722420	1.340508
C171	C	1.217700	-0.389086	1.673841
C172	C	0.618861	-1.009513	1.066003
C173	C	0.952195	-0.676180	1.399336
C174	C	1.285528	-0.342847	1.732670
C175	C	0.635633	-0.998077	1.163113
C176	C	0.968966	-0.664743	1.496447
C177	C	1.302299	-0.331410	1.829780
C178	C	0.584577	-1.032873	1.201404
C179	C	0.917910	-0.699540	1.534738
C180	C	1.251243	-0.366206	1.868071
C181	C	0.534258	-1.067191	0.910055
C182	C	0.867592	-0.733858	1.243388
C183	C	1.200925	-0.400525	1.576721
C184	C	0.653149	-0.986159	0.930602
C185	C	0.986483	-0.652825	1.263936
C186	C	1.319816	-0.319492	1.597269
C187	C	0.669918	-0.974717	1.027712
C188	C	1.003251	-0.641383	1.361045
C189	C	1.336584	-0.308050	1.694379
H190	H	0.390952	-0.527080	0.391560
H191	H	0.724286	-0.193747	0.724893
H192	H	1.057619	0.139587	1.058226
H193	H	0.376320	-0.596533	0.540934
H194	H	0.709654	-0.263199	0.874267
H195	H	1.042987	0.070134	1.207600
Cl196	Cl	0.720918	-0.939961	1.237069
Cl197	Cl	1.054251	-0.606627	1.570403
Cl198	Cl	1.387585	-0.273294	1.903736
Cl199	Cl	0.543809	-0.660807	0.339173
Cl200	Cl	0.877143	-0.327473	0.672507
Cl201	Cl	1.210476	0.005860	1.005840
H202	H	0.479031	-1.104840	0.862166
H203	H	0.812364	-0.771506	1.195499
H204	H	1.145698	-0.438173	1.528832
H205	H	1.152200	-0.958102	0.356484
H206	H	1.485533	-0.624768	0.689818
H207	H	1.818867	-0.291435	1.023151
Cl208	Cl	0.411058	-1.151168	0.864544
Cl209	Cl	0.744391	-0.817835	1.197877
Cl210	Cl	1.077724	-0.484502	1.531211
Cl211	Cl	1.100256	-1.229402	0.755811
Cl212	Cl	1.433590	-0.896069	1.089144
Cl213	Cl	1.766923	-0.562735	1.422478
Cl214	Cl	0.295820	-1.229710	0.950970
Cl215	Cl	0.629154	-0.896376	1.284303
Cl216	Cl	0.962487	-0.563043	1.617637
Cl217	Cl	1.322205	-1.128004	0.606029
Cl218	Cl	1.655538	-0.794671	0.939362
Cl219	Cl	1.988871	-0.461338	1.272695
H220	H	0.598226	-1.023560	1.280478
H221	H	0.931559	-0.690227	1.613812
H222	H	1.264892	-0.356893	1.947145
Cl223	Cl	0.950000	-0.916830	0.295841
Cl224	Cl	1.283333	-0.583497	0.629175
Cl225	Cl	1.616666	-0.250163	0.962508
Cl226	Cl	0.834974	-1.020957	0.449119
Cl227	Cl	1.168307	-0.687623	0.782452
Cl228	Cl	1.501641	-0.354290	1.115785
Cl229	Cl	0.333686	-1.203886	1.170172
Cl230	Cl	0.667019	-0.870553	1.503505
Cl231	Cl	1.000353	-0.537220	1.836838
Cl232	Cl	0.881070	-1.203514	0.717805
Cl233	Cl	1.214403	-0.870181	1.051138
Cl234	Cl	1.547736	-0.536848	1.384472
H235	H	1.209663	-1.185711	0.691475
H236	H	1.542997	-0.852377	1.024809
H237	H	1.876330	-0.519044	1.358142
Cl238	Cl	0.755186	-0.916590	1.101678
Cl239	Cl	1.088519	-0.583257	1.435011
Cl240	Cl	1.421853	-0.249923	1.768345
H241	H	0.660143	-0.619750	0.660304
H242	H	0.993476	-0.286417	0.993637
H243	H	1.326809	0.046917	1.326970
H244	H	0.674723	-0.550448	0.510729
H245	H	1.008057	-0.217114	0.844063
H246	H	1.341390	0.116219	1.177396
H247	H	0.694725	-0.957826	0.899427
H248	H	1.028059	-0.624493	1.232760
H249	H	1.361392	-0.291159	1.566094
Cl250	Cl	0.863506	-0.994874	0.411485
Cl251	Cl	1.196839	-0.661541	0.744818
Cl252	Cl	1.530172	-0.328207	1.078152
Cl253	Cl	0.507107	-0.486325	0.712570
Cl254	Cl	0.840440	-0.152991	1.045903
Cl255	Cl	1.173774	0.180342	1.379237
