data_functionalizedCrystal
_audit_creation_method	'MofGen! by Chris Wilmer'
_symmetry_space_group_name_H-M	'P1'
_symmetry_Int_Tables_number	1
_symmetry_cell_setting	triclinic
loop_
_symmetry_equiv_pos_as_xyz
  x,y,z
_cell_length_a	10.489741
_cell_length_b	10.723024
_cell_length_c	9.798715
_cell_angle_alpha	90.001978
_cell_angle_beta	90.001001
_cell_angle_gamma	84.503522
loop_
_atom_site_label
_atom_site_type_symbol
_atom_site_fract_x
_atom_site_fract_y
_atom_site_fract_z
O1	O	-1.693940	-0.176060	-0.113403
O2	O	-1.193940	0.323940	0.386597
O3	O	-1.322734	-0.192587	-0.113424
O4	O	-0.822734	0.307413	0.386576
O5	O	-1.516899	-0.002753	-0.113408
O6	O	-1.016899	0.497247	0.386592
O7	O	-1.499774	-0.365895	-0.113419
O8	O	-0.999774	0.134105	0.386581
O9	O	-1.516885	-0.002752	0.113574
O10	O	-1.016885	0.497248	0.613574
O11	O	-1.322719	-0.192586	0.113558
O12	O	-0.822719	0.307414	0.613558
O13	O	-1.693925	-0.176060	0.113579
O14	O	-1.193925	0.323940	0.613579
Zn15	Zn	-1.508320	-0.184323	0.149607
Zn16	Zn	-1.008320	0.315677	0.649607
Zn17	Zn	-1.508339	-0.184324	-0.149452
Zn18	Zn	-1.008339	0.315676	0.350548
O19	O	-1.499760	-0.365894	0.113563
O20	O	-0.999760	0.134106	0.613563
C21	C	-1.275196	-0.191338	0.000065
C22	C	-0.775196	0.308662	0.500065
C23	C	-1.133569	-0.187604	0.000057
C24	C	-0.633569	0.312396	0.500057
C25	C	-1.515646	0.043748	0.000082
C26	C	-1.015646	0.543748	0.500082
C27	C	-1.511917	0.182305	0.000077
C28	C	-1.011917	0.682305	0.500077
C29	C	-1.741464	-0.177308	0.000088
C30	C	-1.241464	0.322692	0.500088
C31	C	-1.883091	-0.181043	0.000087
C32	C	-1.383091	0.318957	0.500087
C33	C	-1.065506	-0.066818	0.000073
C34	C	-0.565506	0.433182	0.500073
C35	C	-0.973349	-0.123876	-0.111840
C36	C	-0.473349	0.376124	0.388160
C37	C	-0.973369	-0.123905	0.111947
C38	C	-0.473369	0.376095	0.611947
C39	C	-1.043278	-0.244712	-0.111949
C40	C	-0.543278	0.255288	0.388051
C41	C	-1.043307	-0.244723	0.111939
C42	C	-0.543307	0.255277	0.611939
C43	C	-0.951178	-0.301869	-0.000002
C44	C	-0.451178	0.198131	0.499998
C45	C	-1.501013	-0.412395	0.000071
C46	C	-1.001013	0.087605	0.500071
C47	C	-1.504742	-0.550951	0.000067
C48	C	-1.004742	-0.050951	0.500067
N49	N	-1.508316	-0.184322	0.353707
N50	N	-1.008316	0.315678	0.853707
C51	C	-1.620562	0.257221	0.000081
C52	C	-1.120562	0.757221	0.500081
C53	C	-1.616711	0.400426	0.000076
C54	C	-1.116711	0.900426	0.500076
N55	N	-1.508353	-0.184315	-0.353551
N56	N	-1.008353	0.315685	0.146449
C57	C	-1.589841	-0.104264	0.421490
C58	C	-1.089841	0.395736	0.921490
C59	C	-1.589861	-0.104260	0.578653
C60	C	-1.089861	0.395740	1.078653
H61	H	-1.115259	0.032476	-0.000064
H62	H	-0.615259	0.532476	0.499936
C63	C	-1.379081	0.362105	0.000063
C64	C	-0.879081	0.862105	0.500063
H65	H	-1.308335	0.411188	0.000066
H66	H	-0.808335	0.911188	0.500066
H67	H	-1.375693	0.310739	-0.079086
H68	H	-0.875693	0.810739	0.420914
H69	H	-1.375685	0.310755	0.079231
H70	H	-0.875685	0.810755	0.579231
H71	H	-1.659619	-0.035722	0.363174
H72	H	-1.159619	0.464278	0.863174
H73	H	-1.438530	-0.252855	0.412026
H74	H	-0.938530	0.247145	0.912026
H75	H	-1.416051	0.224185	0.000062
H76	H	-0.916051	0.724185	0.500062
C77	C	-1.684151	-0.011661	0.657390
C78	C	-1.184151	0.488339	1.157390
H79	H	-1.671788	-0.023799	0.752692
H80	H	-1.171788	0.476201	1.252692
H81	H	-1.769480	-0.025764	0.634026
H82	H	-1.269480	0.474236	1.134026
H83	H	-1.669336	0.071719	0.634044
H84	H	-1.169336	0.571719	1.134044
C85	C	-1.084874	-0.313725	-0.239892
C86	C	-0.584874	0.186275	0.260108
H87	H	-1.175230	-0.315649	-0.239140
H88	H	-0.675230	0.184351	0.260860
H89	H	-1.044693	-0.396969	-0.240183
H90	H	-0.544693	0.103031	0.259817
H91	H	-1.060378	-0.271119	-0.319287
H92	H	-0.560378	0.228881	0.180713
C93	C	-1.750073	0.200656	0.000093
C94	C	-1.250073	0.700656	0.500093
H95	H	-1.735671	0.111826	0.000105
H96	H	-1.235671	0.611826	0.500105
H97	H	-1.797232	0.227614	-0.079056
H98	H	-1.297232	0.727614	0.420944
H99	H	-1.797212	0.227621	0.079262
H100	H	-1.297212	0.727621	0.579262
H101	H	-1.709719	0.464802	0.000085
H102	H	-1.209719	0.964802	0.500085
C103	C	-0.931559	-0.054843	0.239765
C104	C	-0.431559	0.445157	0.739765
H105	H	-0.971098	0.028657	0.239618
H106	H	-0.471098	0.528657	0.739618
H107	H	-0.841130	-0.053624	0.239298
H108	H	-0.341130	0.446376	0.739298
H109	H	-0.956685	-0.096943	0.319238
H110	H	-0.456685	0.403057	0.819238
H111	H	-1.438557	-0.252864	0.588167
H112	H	-0.938557	0.247136	1.088167
H113	H	-0.901691	-0.401268	-0.000066
H114	H	-0.401691	0.098732	0.499934
H115	H	-1.074314	-0.295789	0.206556
H116	H	-0.574314	0.204211	0.706556
C117	C	-0.931490	-0.054839	-0.239646
C118	C	-0.431490	0.445161	0.260354
H119	H	-0.971005	0.028670	-0.239511
H120	H	-0.471005	0.528670	0.260489
H121	H	-0.956582	-0.096946	-0.319123
H122	H	-0.456582	0.403054	0.180877
H123	H	-0.841054	-0.053626	-0.239131
H124	H	-0.341054	0.446374	0.260869
