data_functionalizedCrystal
_audit_creation_method	'MofGen! by Chris Wilmer'
_symmetry_space_group_name_H-M	'P1'
_symmetry_Int_Tables_number	1
_symmetry_cell_setting	triclinic
loop_
_symmetry_equiv_pos_as_xyz
  x,y,z
_cell_length_a	15.186229
_cell_length_b	10.654550
_cell_length_c	10.654550
_cell_angle_alpha	84.484931
_cell_angle_beta	89.996404
_cell_angle_gamma	89.999884
loop_
_atom_site_label
_atom_site_type_symbol
_atom_site_fract_x
_atom_site_fract_y
_atom_site_fract_z
O1	O	0.073163	-1.667839	-0.176397
O2	O	0.073179	-1.302361	-0.193203
O3	O	0.073165	-1.493503	-0.002061
O4	O	0.073177	-1.476697	-0.367540
O5	O	-0.073292	-1.493490	-0.002058
O6	O	-0.073279	-1.302348	-0.193201
O7	O	-0.073295	-1.667826	-0.176395
Zn8	Zn	-0.096540	-1.485085	-0.184797
Zn9	Zn	0.096424	-1.485102	-0.184801
O10	O	-0.073281	-1.476684	-0.367537
C11	C	-0.000048	-1.255556	-0.191968
C12	C	-0.000042	-1.116113	-0.188276
N13	N	-0.228232	-1.485083	-0.184794
C14	C	-0.000063	-1.492263	0.044738
C15	C	-0.000062	-1.488571	0.184181
C16	C	-0.453962	-1.569750	-0.100185
C17	C	-0.546151	-1.569754	-0.100182
C18	C	-0.546148	-1.400438	-0.269407
C19	C	-0.453960	-1.400429	-0.269403
C20	C	-0.407869	-1.485092	-0.184793
C21	C	-0.592247	-1.485105	-0.184795
C22	C	-0.692203	-1.485109	-0.184792
C23	C	-0.307907	-1.485087	-0.184794
N24	N	0.228117	-1.485114	-0.184794
C25	C	-0.000066	-1.714631	-0.177630
C26	C	-0.000066	-1.854074	-0.181322
C27	C	-0.000041	-1.036628	-0.300818
C28	C	-0.000056	-0.905607	-0.297341
C29	C	-0.000070	-0.933570	-0.068772
C30	C	-0.000061	-1.064588	-0.072250
C31	C	-0.000051	-1.477925	-0.414336
C32	C	-0.000046	-1.481616	-0.553779
C33	C	-0.000066	-1.601112	0.263667
C34	C	-0.000056	-1.597636	0.394688
C35	C	-0.000039	-1.369066	0.366725
C36	C	-0.000044	-1.372544	0.235706
H37	H	-0.416437	-1.638686	-0.031289
H38	H	-0.000057	-1.689279	0.459401
F39	F	-0.000068	-1.149188	0.047539
F40	F	-0.595203	-1.659855	-0.010128
F41	F	-0.000032	-1.252755	0.151106
H42	H	-0.583684	-1.331509	-0.338296
H43	H	-0.000032	-1.078574	-0.395294
H44	H	-0.000057	-0.840894	-0.388984
H45	H	-0.000079	-1.695588	0.221720
H46	H	-0.416429	-1.331485	-0.338302
H47	H	-0.000091	-0.891602	0.025693
H48	H	-0.000026	-1.274601	0.408693
