data_functionalizedCrystal
_audit_creation_method	'MofGen! by Chris Wilmer'
_symmetry_space_group_name_H-M	'P1'
_symmetry_Int_Tables_number	1
_symmetry_cell_setting	triclinic
loop_
_symmetry_equiv_pos_as_xyz
  x,y,z
_cell_length_a	10.685980
_cell_length_b	12.594516
_cell_length_c	10.685986
_cell_angle_alpha	85.591821
_cell_angle_beta	90.307287
_cell_angle_gamma	94.378643
loop_
_atom_site_label
_atom_site_type_symbol
_atom_site_fract_x
_atom_site_fract_y
_atom_site_fract_z
Zn1	Zn	1.863641	-0.247756	-0.856555
Zn2	Zn	1.879598	-0.438326	-0.646783
Zn3	Zn	1.669919	-0.274957	-0.630698
Zn4	Zn	1.653848	-0.440300	-0.840398
O5	O	1.766752	-0.350335	-0.743608
O6	O	2.041309	-0.260826	-0.842222
O7	O	1.865188	-0.427213	-0.469098
O8	O	1.695664	-0.122398	-0.660688
O9	O	2.053032	-0.400837	-0.688103
O10	O	1.837991	-0.102414	-0.826625
O11	O	1.711137	-0.307186	-0.457281
O12	O	1.492237	-0.309100	-0.645021
O13	O	1.668274	-0.404201	-1.018092
O14	O	1.480429	-0.430577	-0.799087
O15	O	1.822408	-0.262740	-1.029963
O16	O	1.849605	-0.587539	-0.672436
O17	O	1.683747	-0.588989	-0.814684
C18	C	1.440815	-0.373005	-0.718556
C19	C	1.301375	-0.382727	-0.707868
C20	C	1.766695	-0.626881	-0.743582
C21	C	1.766783	-0.745178	-0.743622
C22	C	1.857083	-0.813592	-0.666350
C23	C	1.878968	-0.875303	-0.783203
C24	C	1.745049	-0.894251	-0.626854
C25	C	1.788722	-0.805323	-0.860539
C26	C	1.654755	-0.824274	-0.704109
C27	C	1.676591	-0.885951	-0.821037
C28	C	2.093962	-0.327577	-0.768759
C29	C	2.233399	-0.317879	-0.779477
C30	C	1.741768	-0.330656	-1.070818
C31	C	1.731122	-0.322271	-1.210256
C32	C	1.766841	-0.072705	-0.743665
C33	C	1.766878	0.045605	-0.743689
C34	C	1.791710	-0.369855	-0.417677
C35	C	1.802600	-0.377924	-0.278259
H36	H	1.281878	-0.254916	-0.848958
C37	C	2.005234	-0.905658	-0.828073
C38	C	1.988118	-0.960748	-0.936543
C39	C	2.104411	-0.988699	-0.977922
H40	H	2.041933	-0.950069	-0.764359
H41	H	2.059028	-0.842828	-0.846301
H42	H	1.934343	-1.023568	-0.918309
H43	H	1.951438	-0.916357	-1.000282
H44	H	2.158205	-0.925869	-0.996150
H45	H	2.141101	-1.033106	-0.914200
H46	H	2.092815	-1.026071	-1.051529
H47	H	1.661788	-0.268208	-1.258709
C48	C	1.720291	-0.946085	-0.495246
C49	C	1.610563	-1.014344	-0.495494
C50	C	1.587737	-1.062119	-0.374284
H51	H	1.710518	-0.892347	-0.439139
H52	H	1.789013	-0.985949	-0.468970
H53	H	1.541857	-0.974483	-0.521754
H54	H	1.620308	-1.068102	-0.551576
H55	H	1.656459	-1.101983	-0.348008
H56	H	1.577969	-1.008373	-0.318187
H57	H	1.513292	-1.108445	-0.374439
C58	C	1.236658	-0.466809	-0.615412
C59	C	1.156049	-0.536060	-0.680609
C60	C	1.096424	-0.613537	-0.595485
H61	H	1.189598	-0.432963	-0.556923
H62	H	1.297960	-0.506251	-0.571942
H63	H	1.094755	-0.496623	-0.724058
H64	H	1.203077	-0.569932	-0.739092
H65	H	1.157726	-0.652979	-0.552015
H66	H	1.049371	-0.579681	-0.537001
H67	H	1.041733	-0.660539	-0.639710
H68	H	1.933454	-0.781834	-0.601068
C69	C	1.813490	-0.753608	-0.992198
C70	C	1.813234	-0.642568	-0.990610
C71	C	1.836068	-0.594890	-1.111863
H72	H	1.749791	-0.778820	-1.047299
H73	H	1.892872	-0.771366	-1.020419
H74	H	1.733863	-0.624818	-0.962406
H75	H	1.876933	-0.617326	-0.935534
H76	H	1.915450	-0.612648	-1.140084
H77	H	1.772365	-0.620110	-1.166954
H78	H	1.835909	-0.519544	-1.110799
H79	H	1.600261	-0.917498	-0.886494
H80	H	1.560006	-0.801510	-0.670621
H81	H	1.871948	-0.431980	-1.229800
