data_functionalizedCrystal
_audit_creation_method	'MofGen! by Chris Wilmer'
_symmetry_space_group_name_H-M	'P1'
_symmetry_Int_Tables_number	1
_symmetry_cell_setting	triclinic
loop_
_symmetry_equiv_pos_as_xyz
  x,y,z
_cell_length_a	17.077404
_cell_length_b	13.031981
_cell_length_c	17.077396
_cell_angle_alpha	82.787914
_cell_angle_beta	89.978556
_cell_angle_gamma	97.189606
loop_
_atom_site_label
_atom_site_type_symbol
_atom_site_fract_x
_atom_site_fract_y
_atom_site_fract_z
Zn1	Zn	1.160409	-0.416159	-0.404155
Zn2	Zn	1.143665	-0.590954	-0.256202
Zn3	Zn	1.029138	-0.416190	-0.272895
Zn4	Zn	1.012464	-0.590886	-0.387427
O5	O	1.086419	-0.503547	-0.330170
O6	O	1.268034	-0.439362	-0.384542
O7	O	1.128443	-0.567812	-0.148565
O8	O	1.060538	-0.269923	-0.304294
O9	O	1.255731	-0.567783	-0.275842
O10	O	1.156982	-0.269900	-0.400729
O11	O	1.044301	-0.439414	-0.160830
O12	O	0.917081	-0.439348	-0.288074
O13	O	1.032119	-0.567667	-0.499497
O14	O	0.904830	-0.567696	-0.372220
O15	O	1.140813	-0.439296	-0.511787
O16	O	1.112275	-0.737208	-0.259622
O17	O	1.015882	-0.737158	-0.356033
C18	C	0.882474	-0.503519	-0.330144
C19	C	0.795223	-0.503532	-0.330149
C20	C	0.425796	-0.436827	-0.386865
C21	C	0.507777	-0.436820	-0.386857
C22	C	0.542370	-0.503569	-0.330187
C23	C	0.494977	-0.570338	-0.273527
C24	C	0.412997	-0.570350	-0.273539
C25	C	0.665850	-0.570307	-0.273505
C26	C	0.747836	-0.570293	-0.273492
C27	C	0.760630	-0.436776	-0.386822
C28	C	0.678650	-0.436788	-0.386834
C29	C	0.631263	-0.503556	-0.330173
C30	C	1.060473	-0.775108	-0.304218
C31	C	1.049445	-0.891282	-0.293143
C32	C	1.092216	-0.942982	-0.335966
C33	C	1.080819	-1.063055	-0.324520
C34	C	1.291160	-0.503576	-0.330196
C35	C	1.378409	-0.503589	-0.330207
C36	C	1.086474	-0.503470	-0.534921
C37	C	1.086497	-0.503437	-0.622174
C38	C	1.112488	-0.230926	-0.356240
C39	C	1.123596	-0.114752	-0.367349
C40	C	1.143097	-0.436589	-0.669565
C41	C	1.143110	-0.436554	-0.751549
C42	C	1.086526	-0.503374	-0.786140
C43	C	1.029920	-0.570225	-0.738743
C44	C	1.029904	-0.570254	-0.656761
C45	C	1.029958	-0.570162	-0.909619
C46	C	1.029974	-0.570135	-0.991606
C47	C	1.143163	-0.436463	-1.004407
C48	C	1.143147	-0.436491	-0.922425
C49	C	1.086542	-0.503344	-0.875034
C50	C	1.086417	-0.503549	-0.126222
C51	C	1.086574	-0.503287	-0.038997
H52	H	0.397637	-0.382466	-0.433007
H53	H	0.627269	-0.624681	-0.227368
Cl54	Cl	1.214239	-0.352587	-0.626088
Cl55	Cl	1.193165	-1.045860	-0.437043
H56	H	0.983808	-0.624678	-0.618177
Cl57	Cl	0.538466	-0.654257	-0.202288
H58	H	1.189201	-0.382122	-0.790132
H59	H	0.775999	-0.624650	-0.227349
Cl60	Cl	0.958831	-0.654127	-1.035092
H61	H	0.983853	-0.624585	-0.871036
H62	H	0.983846	-0.624627	-0.766913
Cl63	Cl	0.979876	-0.960180	-0.223457
Cl64	Cl	1.214324	-0.352420	-1.063984
Cl65	Cl	0.567345	-0.352892	-0.458090
H66	H	0.374415	-0.624716	-0.227404
H67	H	0.650487	-0.382430	-0.432977
Cl68	Cl	0.820202	-0.352834	-0.458050
H69	H	1.137269	-0.898353	-0.381106
H70	H	1.189227	-0.382087	-0.894264
Cl71	Cl	1.011247	-1.131949	-0.254830
