data_functionalizedCrystal
_audit_creation_method	'MofGen! by Chris Wilmer'
_symmetry_space_group_name_H-M	'P1'
_symmetry_Int_Tables_number	1
_symmetry_cell_setting	triclinic
loop_
_symmetry_equiv_pos_as_xyz
  x,y,z
_cell_length_a	14.519731
_cell_length_b	14.519731
_cell_length_c	13.596369
_cell_angle_alpha	90.005365
_cell_angle_beta	89.993633
_cell_angle_gamma	96.311147
loop_
_atom_site_label
_atom_site_type_symbol
_atom_site_fract_x
_atom_site_fract_y
_atom_site_fract_z
O1	O	1.223868	-0.120977	-0.081806
O2	O	1.557201	0.212356	0.251528
O3	O	1.890534	0.545690	0.584861
O4	O	0.955395	-0.135193	-0.081809
O5	O	1.288728	0.198141	0.251525
O6	O	1.622061	0.531474	0.584858
O7	O	1.096739	0.006152	-0.081787
O8	O	1.430072	0.339485	0.251546
O9	O	1.763406	0.672818	0.584880
O10	O	1.082523	-0.262321	-0.081827
O11	O	1.415857	0.071012	0.251506
O12	O	1.749190	0.404345	0.584840
O13	O	1.096721	0.006143	0.081796
O14	O	1.430054	0.339476	0.415129
O15	O	1.763387	0.672809	0.748462
O16	O	0.955376	-0.135202	0.081774
O17	O	1.288709	0.198132	0.415108
O18	O	1.622043	0.531465	0.748441
O19	O	1.223849	-0.120986	0.081777
O20	O	1.557183	0.212347	0.415111
O21	O	1.890516	0.545681	0.748444
Zn22	Zn	1.089610	-0.128095	0.107748
Zn23	Zn	1.422943	0.205238	0.441081
Zn24	Zn	1.756276	0.538571	0.774415
Zn25	Zn	1.089634	-0.128083	-0.107779
Zn26	Zn	1.422967	0.205250	0.225554
Zn27	Zn	1.756301	0.538583	0.558887
O28	O	1.082505	-0.262330	0.081756
O29	O	1.415838	0.071003	0.415089
O30	O	1.749171	0.404336	0.748423
C31	C	0.921026	-0.134531	-0.000017
C32	C	1.254359	0.198802	0.333316
C33	C	1.587693	0.532136	0.666649
C34	C	0.818645	-0.132535	-0.000017
C35	C	1.151979	0.200798	0.333316
C36	C	1.485312	0.534132	0.666649
C37	C	0.735501	-0.130913	-0.000021
C38	C	1.068835	0.202420	0.333312
C39	C	1.402168	0.535753	0.666646
C40	C	0.631192	-0.128887	-0.000021
C41	C	0.964526	0.204447	0.333312
C42	C	1.297859	0.537780	0.666645
C43	C	0.548053	-0.127278	-0.000021
C44	C	0.881386	0.206055	0.333312
C45	C	1.214720	0.539388	0.666646
C46	C	0.443738	-0.125252	-0.000023
C47	C	0.777071	0.208081	0.333311
C48	C	1.110404	0.541415	0.666644
C49	C	1.096064	0.040507	0.000007
C50	C	1.429397	0.373840	0.333341
C51	C	1.762730	0.707173	0.666674
C52	C	1.094068	0.142887	0.000016
C53	C	1.427401	0.476220	0.333350
C54	C	1.760734	0.809554	0.666683
C55	C	1.258218	-0.121648	-0.000016
C56	C	1.591551	0.211686	0.333317
C57	C	1.924885	0.545019	0.666650
C58	C	1.360598	-0.123644	-0.000022
C59	C	1.693932	0.209690	0.333311
C60	C	2.027265	0.543023	0.666644
C61	C	1.092446	0.226031	0.000021
C62	C	1.425779	0.559365	0.333354
C63	C	1.759113	0.892698	0.666687
C64	C	1.090419	0.330340	0.000022
C65	C	1.423753	0.663674	0.333355
C66	C	1.757086	0.997007	0.666688
C67	C	1.088811	0.413479	0.000022
C68	C	1.422144	0.746813	0.333355
C69	C	1.755478	1.080146	0.666689
C70	C	1.086785	0.517795	0.000025
C71	C	1.420118	0.851128	0.333358
C72	C	1.753451	1.184462	0.666692
N73	N	1.089600	-0.128103	0.254840
N74	N	1.422933	0.205231	0.588173
N75	N	1.756267	0.538564	0.921507
C76	C	1.083180	0.703315	-0.000020
C77	C	1.416513	1.036648	0.333313
C78	C	1.749847	1.369981	0.666646
C79	C	1.085176	0.600934	0.000025
C80	C	1.418509	0.934268	0.333359
C81	C	1.751843	1.267601	0.666692
C82	C	1.089604	-0.128105	0.343838
C83	C	1.422937	0.205228	0.677171
C84	C	1.756271	0.538561	1.010505
C85	C	1.089612	-0.128100	0.455489
C86	C	1.422946	0.205233	0.788823
C87	C	1.756279	0.538567	1.122156
C88	C	1.089624	-0.128090	0.544480
C89	C	1.422957	0.205243	0.877813
C90	C	1.756290	0.538577	1.211146
C91	C	1.089633	-0.128085	0.656138
C92	C	1.422967	0.205248	0.989472
C93	C	1.756300	0.538581	1.322805
N94	N	1.089645	-0.128076	0.745129
N95	N	1.422978	0.205258	1.078462
N96	N	1.756312	0.538591	1.411795
