data_functionalizedCrystal
_audit_creation_method	'MofGen! by Chris Wilmer'
_symmetry_space_group_name_H-M	'P1'
_symmetry_Int_Tables_number	1
_symmetry_cell_setting	triclinic
loop_
_symmetry_equiv_pos_as_xyz
  x,y,z
_cell_length_a	13.262522
_cell_length_b	14.853567
_cell_length_c	12.376457
_cell_angle_alpha	101.296114
_cell_angle_beta	63.170097
_cell_angle_gamma	84.049876
loop_
_atom_site_label
_atom_site_type_symbol
_atom_site_fract_x
_atom_site_fract_y
_atom_site_fract_z
O1	O	1.512396	0.019120	-0.558964
O2	O	1.185326	0.050729	-0.458412
O3	O	1.357598	-0.096776	-0.511378
O4	O	1.340123	0.166625	-0.505998
O5	O	1.314545	-0.059948	-0.310129
O6	O	1.142273	0.087557	-0.257163
O7	O	1.469343	0.055948	-0.357715
Zn8	Zn	1.298972	0.077600	-0.275487
Zn9	Zn	1.355696	0.029077	-0.540641
O10	O	1.297070	0.203453	-0.304750
C11	C	1.121942	0.070758	-0.344919
C12	C	0.997220	0.075561	-0.306576
C13	C	0.915164	0.097895	-0.178855
C14	C	0.797981	0.102401	-0.142820
C15	C	0.762842	0.084580	-0.234502
C16	C	0.844898	0.062252	-0.362226
C17	C	0.962094	0.057739	-0.398265
C18	C	0.809772	0.044423	-0.453912
C19	C	0.891828	0.022095	-0.581636
C20	C	1.009012	0.017584	-0.617668
C21	C	1.044150	0.035405	-0.525986
C22	C	0.692577	0.048936	-0.417873
C23	C	0.739507	0.008780	-0.637283
C24	C	0.856690	0.004274	-0.673318
C25	C	1.335280	-0.111909	-0.410513
C26	C	1.332910	-0.211867	-0.409794
C27	C	1.220543	-0.618354	-0.375227
C28	C	1.425206	-0.650641	-0.438148
C29	C	1.427438	-0.556728	-0.438841
C30	C	1.326221	-0.493624	-0.407725
C31	C	1.222772	-0.524432	-0.375916
C32	C	1.530883	-0.525910	-0.470637
C33	C	1.533119	-0.431993	-0.471330
C34	C	1.431903	-0.368888	-0.440222
C35	C	1.328449	-0.399701	-0.408413
C36	C	1.227232	-0.336597	-0.377297
C37	C	1.123780	-0.367410	-0.345496
C38	C	1.121555	-0.461327	-0.344808
C39	C	1.434127	-0.274971	-0.440910
C40	C	1.229461	-0.242675	-0.377985
C41	C	1.532727	0.035918	-0.471211
C42	C	1.657450	0.031114	-0.509562
C43	C	1.319388	0.218585	-0.405617
C44	C	1.321760	0.318541	-0.406343
N45	N	1.260268	0.110714	-0.094528
N46	N	1.394409	-0.004045	-0.721602
C47	C	1.484255	-0.080932	0.191591
C48	C	1.511338	-0.104109	0.064924
C49	C	1.448572	-0.050405	0.025055
C50	C	1.358720	0.026479	0.111865
C51	C	1.331640	0.049663	0.238542
C52	C	1.295957	0.080190	0.072006
C53	C	1.206105	0.157075	0.158815
C54	C	1.179029	0.180254	0.285480
C55	C	1.241795	0.126550	0.325349
C56	C	1.323037	0.057006	-0.054672
C57	C	1.170423	0.187602	-0.007721
C58	C	1.143340	0.210778	0.118946
H59	H	1.139568	0.031740	-0.555319
H60	H	1.617357	-0.406914	-0.497225
H61	H	1.219741	0.145418	0.428492
H62	H	0.923516	-0.013906	-0.777313
C63	C	0.953820	0.117537	-0.078018
N64	N	0.982933	0.132350	-0.002060
H65	H	1.105875	0.242864	0.356159
H66	H	1.613286	-0.577294	-0.495959
C67	C	1.012445	-0.297984	-0.311270
N68	N	0.928590	-0.245689	-0.285493
C69	C	1.547918	-0.241080	-0.475889
N70	N	1.633632	-0.215555	-0.502240
C71	C	0.633935	0.089547	-0.194858
N72	N	0.536835	0.093295	-0.164992
C73	C	1.118112	-0.173266	-0.343758
N74	N	1.034243	-0.120989	-0.317977
C75	C	0.700860	-0.010823	-0.738141
N76	N	0.671743	-0.025587	-0.814100
H77	H	1.119315	0.231334	-0.040181
H78	H	1.075822	-0.000610	-0.721669
H79	H	1.535356	-0.124647	0.224061
C80	C	1.007762	-0.495225	-0.309805
N81	N	0.922052	-0.520760	-0.283431
H82	H	1.136316	-0.643448	-0.349341
H83	H	1.396195	-0.005593	-0.125342
H84	H	1.470627	-0.069279	-0.078084
H85	H	1.584495	-0.166707	-0.005752
C86	C	1.536537	-0.720056	-0.472367
N87	N	1.620396	-0.772345	-0.498145
C88	C	1.044501	0.295349	0.214452
N89	N	0.970055	0.359046	0.286389
H90	H	0.625776	0.067123	-0.313880
C91	C	0.707725	0.126980	-0.002328
N92	N	0.639741	0.145503	0.103499
