data_functionalizedCrystal
_audit_creation_method	'MofGen! by Chris Wilmer'
_symmetry_space_group_name_H-M	'P1'
_symmetry_Int_Tables_number	1
_symmetry_cell_setting	triclinic
loop_
_symmetry_equiv_pos_as_xyz
  x,y,z
_cell_length_a	6.817900
_cell_length_b	19.551786
_cell_length_c	14.125465
_cell_angle_alpha	96.297102
_cell_angle_beta	100.398878
_cell_angle_gamma	101.662645
loop_
_atom_site_label
_atom_site_type_symbol
_atom_site_fract_x
_atom_site_fract_y
_atom_site_fract_z
V1	V	-3.982338	-0.096073	-0.300420
O2	O	-3.979997	0.005234	-0.294242
O3	O	-3.925214	-0.191091	-0.298808
O4	O	-3.918644	-0.094325	-0.431242
O5	O	-3.986613	-0.092202	-0.160890
V6	V	-4.469078	-0.083988	-0.283678
O7	O	-4.236539	-0.122584	-0.337146
O8	O	-4.665074	-0.057477	-0.246951
O9	O	-4.302996	0.011030	-0.285290
O10	O	-4.588816	-0.185295	-0.289856
O11	O	-4.582200	-0.087859	-0.423207
O12	O	-4.309566	-0.085737	-0.152856
C13	C	-3.768587	-0.214263	-0.294182
C14	C	-3.803067	-0.291940	-0.293736
C15	C	-4.024498	-0.841878	-0.202477
C16	C	-3.992084	-0.768892	-0.202886
C17	C	-4.002936	-0.742156	-0.291191
C18	C	-4.046157	-0.788413	-0.379091
C19	C	-4.078550	-0.861398	-0.378679
C20	C	-4.088988	-0.636351	-0.363021
C21	C	-4.056607	-0.563367	-0.363431
C22	C	-3.903018	-0.517047	-0.292468
C23	C	-3.781834	-0.543718	-0.221080
C24	C	-3.814227	-0.616703	-0.220668
C25	C	-3.967813	-0.663017	-0.291649
C26	C	-3.824641	-0.391658	-0.205017
C27	C	-3.792215	-0.318670	-0.205430
C28	C	-3.846310	-0.338194	-0.381639
C29	C	-3.878714	-0.411180	-0.381222
C30	C	-3.867887	-0.437908	-0.292909
C31	C	-3.760205	-0.090827	-0.463115
C32	C	-3.789354	-0.090025	-0.570065
C33	C	-3.842782	-0.088556	-0.765881
C34	C	-4.028004	-0.091503	-0.818216
C35	C	-4.057733	-0.090686	-0.927175
C36	C	-3.813044	-0.089374	-0.656913
C37	C	-4.122964	0.034198	-0.289913
C38	C	-4.067722	0.111874	-0.290366
C39	C	-4.131347	-0.089237	-0.120978
C40	C	-4.081437	-0.090034	-0.014027
H41	H	-3.855136	-0.316427	-0.453538
H42	H	-3.913923	-0.448836	-0.452792
H43	H	-4.015674	-0.863635	-0.130565
C44	C	-4.126116	-0.912276	-0.475363
C45	C	-4.161758	-0.992556	-0.474911
C46	C	-4.209331	-1.043436	-0.571596
C47	C	-4.221262	-1.014034	-0.668733
C48	C	-4.185619	-0.933749	-0.669189
C49	C	-4.138046	-0.882870	-0.572504
H50	H	-4.152927	-1.014325	-0.403001
H51	H	-4.235716	-1.102868	-0.571258
H52	H	-4.256478	-1.051698	-0.740305
H53	H	-4.194450	-0.911981	-0.741099
H54	H	-4.111661	-0.823438	-0.572841
H55	H	-3.706547	-0.085420	-0.802905
C56	C	-3.680918	-0.646043	-0.142155
C57	C	-3.678998	-0.624596	-0.033728
C58	C	-3.545679	-0.653935	0.044783
C59	C	-3.414280	-0.704722	0.014867
C60	C	-3.416196	-0.726171	-0.093565
C61	C	-3.549514	-0.696832	-0.172076
H62	H	-3.776271	-0.586998	-0.011578
H63	H	-3.544262	-0.638056	0.125051
H64	H	-3.315590	-0.726440	0.072985
H65	H	-3.318922	-0.763769	-0.115715
H66	H	-3.550931	-0.712711	-0.252344
H67	H	-3.956873	-0.731230	-0.131314
C68	C	-4.257923	-0.687300	-0.441097
C69	C	-4.391218	-0.657967	-0.519617
C70	C	-4.560130	-0.708916	-0.597697
C71	C	-4.595746	-0.789197	-0.597256
C72	C	-4.462447	-0.818534	-0.518732
C73	C	-4.293535	-0.767586	-0.440653
H74	H	-4.364856	-0.598534	-0.519946
H75	H	-4.658806	-0.687198	-0.655825
H76	H	-4.720784	-0.826913	-0.655055
H77	H	-4.488808	-0.877967	-0.518403
H78	H	-4.194858	-0.789303	-0.382525
H79	H	-3.656768	-0.506005	-0.163296
H80	H	-4.054987	-0.766641	-0.450990
H81	H	-4.164253	-0.094648	-0.781193
H82	H	-3.757007	-0.281015	-0.133857
C83	C	-3.812708	-0.421066	-0.107878
C84	C	-4.000448	-0.472031	-0.088818
C85	C	-3.988513	-0.501438	0.008320
C86	C	-3.788837	-0.479879	0.086399
C87	C	-3.601082	-0.428912	0.067342
C88	C	-3.613018	-0.399505	-0.029797
H89	H	-4.148273	-0.487993	-0.146619
H90	H	-4.127502	-0.539168	0.022427
H91	H	-3.780001	-0.501648	0.158307
H92	H	-3.453257	-0.412950	0.125143
H93	H	-3.474028	-0.361775	-0.043904
C94	C	-4.189910	-0.534035	-0.441955
C95	C	-4.191780	-0.555486	-0.550375
C96	C	-4.325089	-0.526157	-0.628903
C97	C	-4.456529	-0.475378	-0.599011
C98	C	-4.454664	-0.453925	-0.490586
C99	C	-4.321354	-0.483253	-0.412058
H100	H	-4.094476	-0.593078	-0.572508
H101	H	-4.326469	-0.542039	-0.709167
H102	H	-4.555212	-0.453668	-0.657142
H103	H	-4.551967	-0.416333	-0.468453
H104	H	-4.319974	-0.467372	-0.331794
