data_functionalizedCrystal
_audit_creation_method	'MofGen! by Chris Wilmer'
_symmetry_space_group_name_H-M	'P1'
_symmetry_Int_Tables_number	1
_symmetry_cell_setting	triclinic
loop_
_symmetry_equiv_pos_as_xyz
  x,y,z
_cell_length_a	12.645331
_cell_length_b	12.645330
_cell_length_c	12.645323
_cell_angle_alpha	89.971021
_cell_angle_beta	89.978207
_cell_angle_gamma	90.011625
loop_
_atom_site_label
_atom_site_type_symbol
_atom_site_fract_x
_atom_site_fract_y
_atom_site_fract_z
Zn1	Zn	1.620759	-0.422039	-0.599431
Zn2	Zn	1.620659	-0.599333	-0.422164
Zn3	Zn	1.443477	-0.422081	-0.422175
Zn4	Zn	1.443471	-0.599258	-0.599379
O5	O	1.532092	-0.510678	-0.510787
O6	O	1.769093	-0.445572	-0.575933
O7	O	1.597116	-0.575869	-0.273818
O8	O	1.467038	-0.273728	-0.445714
O9	O	1.769020	-0.575829	-0.445696
O10	O	1.597286	-0.273697	-0.575943
O11	O	1.466941	-0.445643	-0.273826
O12	O	1.295129	-0.445570	-0.445665
O13	O	1.467028	-0.575700	-0.747734
O14	O	1.295125	-0.575741	-0.575856
O15	O	1.597281	-0.445499	-0.747771
O16	O	1.597111	-0.747670	-0.445646
O17	O	1.466931	-0.747615	-0.575845
C18	C	1.256662	-0.510653	-0.510757
C19	C	1.138832	-0.510667	-0.510769
C20	C	0.971235	-0.428400	-0.429317
C21	C	1.093795	-0.428613	-0.428958
C22	C	1.094322	-0.622342	-0.480250
C23	C	0.971723	-0.621893	-0.479694
C24	C	0.971678	-0.482323	-0.623054
C25	C	1.094284	-0.479828	-0.622430
C26	C	1.532038	-0.786108	-0.510762
C27	C	1.532113	-0.903938	-0.510787
C28	C	1.613877	-1.071492	-0.428712
C29	C	1.614143	-0.948932	-0.428913
C30	C	1.562411	-0.948316	-0.622532
C31	C	1.563060	-1.070914	-0.622096
C32	C	1.420018	-1.071264	-0.482218
C33	C	1.420555	-0.948660	-0.479712
C34	C	1.808597	-0.510704	-0.510819
C35	C	1.926427	-0.510715	-0.510832
C36	C	1.532165	-0.510586	-0.787293
C37	C	1.532197	-0.510547	-0.905123
C38	C	1.532174	-0.234173	-0.510836
C39	C	1.532209	-0.116343	-0.510856
C40	C	1.450260	-0.592441	-0.949981
C41	C	1.449971	-0.592133	-1.072541
C42	C	1.502318	-0.398649	-1.073029
C43	C	1.501690	-0.399189	-0.950431
C44	C	1.644288	-0.539437	-0.950313
C45	C	1.643720	-0.541835	-1.072919
C46	C	1.532079	-0.510692	-0.235357
C47	C	1.532253	-0.510433	-0.117528
H48	H	0.940774	-0.402310	-0.650808
H49	H	1.397710	-0.919665	-0.397477
H50	H	1.595187	-0.918931	-0.346056
H51	H	1.560184	-0.335930	-1.102168
H52	H	1.124945	-0.535408	-0.686413
H53	H	0.943081	-0.645970	-0.397654
H54	H	1.123380	-0.397648	-0.645443
Cl55	Cl	1.322751	-0.563231	-0.902424
Cl56	Cl	1.478818	-0.720094	-1.118998
H57	H	1.366930	-0.572951	-1.101868
H58	H	1.595157	-1.101048	-0.345613
Cl59	Cl	1.687593	-0.900789	-0.660612
Cl60	Cl	1.478746	-0.720856	-0.904469
Cl61	Cl	1.375207	-0.361452	-0.906274
Cl62	Cl	1.741486	-1.118931	-0.457628
H63	H	1.671590	-0.619601	-0.919394
Cl64	Cl	1.326069	-1.116047	-0.574584
Cl65	Cl	0.925956	-0.719793	-0.567352
H66	H	0.942704	-0.542277	-0.683790
Cl67	Cl	1.141649	-0.660157	-0.354944
H68	H	1.123496	-0.685312	-0.537758
Cl69	Cl	1.742436	-0.903522	-0.458166
Cl70	Cl	1.589853	-0.301739	-0.904609
H71	H	1.666297	-0.624105	-1.102000
Cl72	Cl	1.321536	-0.901393	-0.565312
Cl73	Cl	1.377247	-0.360204	-1.120425
Cl74	Cl	1.743003	-0.456458	-1.120197
H75	H	1.705331	-0.479786	-0.921310
H76	H	1.123888	-0.345802	-0.448088
Cl77	Cl	1.689671	-1.114942	-0.659545
H78	H	0.941763	-0.345340	-0.448241
Cl79	Cl	1.475201	-1.116719	-0.719801
H80	H	0.940390	-0.446958	-0.346645
H81	H	1.123075	-0.447379	-0.345797
H82	H	1.504739	-0.919167	-0.685375
Cl83	Cl	1.377478	-1.119142	-0.358603
