data_functionalizedCrystal
_audit_creation_method	'MofGen! by Chris Wilmer'
_symmetry_space_group_name_H-M	'P1'
_symmetry_Int_Tables_number	1
_symmetry_cell_setting	triclinic
loop_
_symmetry_equiv_pos_as_xyz
  x,y,z
_cell_length_a	19.077105
_cell_length_b	29.839131
_cell_length_c	19.076919
_cell_angle_alpha	92.267459
_cell_angle_beta	90.076224
_cell_angle_gamma	87.737628
loop_
_atom_site_label
_atom_site_type_symbol
_atom_site_fract_x
_atom_site_fract_y
_atom_site_fract_z
Zn1	Zn	1.058171	-0.217337	-0.440392
Zn2	Zn	1.062777	-0.289569	-0.322877
Zn3	Zn	0.945391	-0.211319	-0.318186
Zn4	Zn	0.940599	-0.289298	-0.435629
O5	O	1.001735	-0.251881	-0.379271
O6	O	1.157112	-0.229551	-0.428760
O7	O	1.051139	-0.276784	-0.223924
O8	O	0.960429	-0.149253	-0.334427
O9	O	1.160497	-0.282620	-0.342422
O10	O	1.043288	-0.153674	-0.424211
O11	O	0.964896	-0.219294	-0.220477
O12	O	0.846425	-0.219031	-0.329809
O13	O	0.952262	-0.282158	-0.534592
O14	O	0.842904	-0.276322	-0.416094
O15	O	1.038641	-0.229288	-0.538091
O16	O	1.046493	-0.352398	-0.337803
O17	O	0.956729	-0.352199	-0.420642
C18	C	0.819169	-0.246995	-0.371926
C19	C	0.741065	-0.244915	-0.368801
C20	C	1.001609	-0.368599	-0.379231
C21	C	1.001619	-0.418534	-0.379240
C22	C	0.702560	-0.273809	-0.412186
C23	C	0.629174	-0.271849	-0.409252
C24	C	0.594294	-0.240998	-0.362930
C25	C	0.632804	-0.212102	-0.319543
C26	C	0.706189	-0.214059	-0.322481
C27	C	0.375011	-0.231938	-0.349338
C28	C	0.301621	-0.229984	-0.346403
C29	C	0.297996	-0.289731	-0.436113
C30	C	0.371382	-0.291688	-0.439043
C31	C	0.409886	-0.262790	-0.395659
N32	N	0.519281	-0.238996	-0.359929
N33	N	0.484897	-0.264790	-0.398664
C34	C	1.048554	-0.728276	-0.336206
C35	C	1.048639	-0.915952	-0.336237
O36	O	1.088445	-0.940297	-0.299616
N37	N	1.001878	-0.939328	-0.379330
C38	C	0.955095	-0.915782	-0.422422
O39	O	0.915329	-0.939972	-0.459082
C40	C	0.955014	-0.728107	-0.422395
C41	C	1.001773	-0.704734	-0.379293
C42	C	1.095310	-0.704902	-0.293109
C43	C	1.095285	-0.657986	-0.293099
C44	C	1.048505	-0.634443	-0.336186
C45	C	1.001749	-0.657817	-0.379283
C46	C	0.908235	-0.704563	-0.465490
C47	C	0.908220	-0.657641	-0.465480
C48	C	0.954979	-0.634267	-0.422379
C49	C	0.954944	-0.587358	-0.422360
N50	N	1.001705	-0.563982	-0.379267
C51	C	1.048485	-0.587525	-0.336180
C52	C	0.955141	-1.014314	-0.422432
C53	C	0.955160	-1.061233	-0.422439
C54	C	1.048705	-1.061399	-0.336254
C55	C	1.048682	-1.014480	-0.336245
C56	C	1.001902	-0.990938	-0.379339
C57	C	1.048430	-0.488997	-0.336161
C58	C	1.048399	-0.442077	-0.336153
C59	C	0.954857	-0.441914	-0.422340
C60	C	0.954885	-0.488831	-0.422346
C61	C	1.001677	-0.512371	-0.379255
O62	O	0.915164	-0.562985	-0.458967
O63	O	1.088256	-0.563328	-0.299537
C64	C	1.048578	-0.775192	-0.336216
C65	C	1.001822	-0.798566	-0.379313
C66	C	0.955041	-0.775024	-0.422401
C67	C	1.001841	-0.845485	-0.379319
C68	C	1.048622	-0.869027	-0.336232
C69	C	1.095383	-0.845651	-0.293139
C70	C	1.095359	-0.798735	-0.293129
C71	C	0.908280	-0.798400	-0.465494
C72	C	0.908308	-0.845316	-0.465500
C73	C	0.955089	-0.868859	-0.422413
C74	C	1.185013	-0.256787	-0.386645
C75	C	1.263116	-0.258877	-0.389788
C76	C	0.994403	-0.256364	-0.562551
C77	C	0.991279	-0.258274	-0.640654
C78	C	1.001879	-0.134708	-0.379327
C79	C	1.001941	-0.084775	-0.379351
C80	C	1.034782	-0.231647	-0.679169
C81	C	1.031838	-0.233440	-0.752555
C82	C	0.985394	-0.261863	-0.787424
C83	C	0.941886	-0.288492	-0.748903
C84	C	0.944827	-0.286696	-0.675518
C85	C	0.971772	-0.270184	-1.006704
C86	C	0.968835	-0.271978	-1.080093
C87	C	1.058787	-0.216925	-1.083741
C88	C	1.061727	-0.215134	-1.010355
C89	C	1.018216	-0.241761	-0.971840
N90	N	0.982385	-0.263698	-0.862436
N91	N	1.021222	-0.239924	-0.896830
C92	C	1.009078	-0.247384	-0.196706
C93	C	1.012338	-0.245351	-0.118609
H94	H	0.730954	-0.298932	-0.449904
H95	H	1.133472	-0.864828	-0.258053
H96	H	0.917045	-0.995150	-0.457526
C97	C	1.100169	-1.087301	-0.288861
C98	C	1.071994	-1.117430	-0.232452
C99	C	1.123459	-1.143334	-0.185066
C100	C	1.203100	-1.139109	-0.194089
C101	C	1.231280	-1.108979	-0.250500
C102	C	1.179814	-1.083075	-0.297886
H103	H	1.013035	-1.120559	-0.225771
H104	H	1.102598	-1.165638	-0.143307
H105	H	1.241198	-1.158285	-0.159011
H106	H	1.290238	-1.105850	-0.257181
H107	H	1.200675	-1.060770	-0.339645
H108	H	0.936353	-0.291872	-0.975354
H109	H	0.870155	-0.723586	-0.500584
H110	H	0.597826	-0.295378	-0.444580
C111	C	0.409748	-0.325621	-0.490005
C112	C	0.367394	-0.357401	-0.537733
C113	C	0.405760	-0.391335	-0.588695
C114	C	0.486480	-0.393488	-0.591928
C115	C	0.528839	-0.361707	-0.544197
C116	C	0.490473	-0.327773	-0.493236
H117	H	0.307635	-0.355808	-0.535342
H118	H	0.374402	-0.414862	-0.624028
H119	H	0.514881	-0.418608	-0.629652
H120	H	0.588597	-0.363300	-0.546589
H121	H	0.521831	-0.304246	-0.457903
C122	C	1.085871	-0.200380	-0.640817
C123	C	1.079793	-0.149404	-0.650701
C124	C	1.130882	-0.118135	-0.612351
C125	C	1.188050	-0.137842	-0.564116
C126	C	1.194130	-0.188821	-0.554230
C127	C	1.143041	-0.220090	-0.592580
H128	H	1.037472	-0.134813	-0.686409
H129	H	1.126381	-0.080397	-0.619669
H130	H	1.225869	-0.114695	-0.535727
H131	H	1.236451	-0.203411	-0.518522
H132	H	1.147543	-0.257827	-0.585261
C133	C	1.079696	-0.204150	-0.794919
C134	C	1.132816	-0.226327	-0.847584
C135	C	1.180677	-0.197035	-0.889947
C136	C	1.175419	-0.145566	-0.879644
C137	C	1.122297	-0.123386	-0.826976
C138	C	1.074436	-0.152678	-0.784614
H139	H	1.136710	-0.264430	-0.855213
H140	H	1.220002	-0.213455	-0.928935
H141	H	1.210849	-0.123882	-0.911003
H142	H	1.118403	-0.085282	-0.819348
H143	H	1.035112	-0.136258	-0.745626
H144	H	0.904068	-0.311633	-0.777298
H145	H	0.917078	-1.080260	-0.457529
C146	C	0.917766	-0.303261	-1.118452
C147	C	0.869922	-0.332561	-1.076090
C148	C	0.818869	-0.363850	-1.114449
C149	C	0.815658	-0.365839	-1.195170
C150	C	0.863503	-0.336538	-1.237536
C151	C	0.914557	-0.305248	-1.199177
H152	H	0.872297	-0.331090	-1.016331
H153	H	0.783450	-0.385541	-1.083086
H154	H	0.777865	-0.389001	-1.223566
H155	H	0.861128	-0.338009	-1.297295
H156	H	0.949975	-0.283558	-1.230540
C157	C	0.856757	-0.631746	-0.512883
C158	C	0.777116	-0.635977	-0.503872
C159	C	0.725652	-0.610083	-0.551272
C160	C	0.753830	-0.579956	-0.607683
C161	C	0.833475	-0.575723	-0.616696
C162	C	0.884939	-0.601618	-0.569296
H163	H	0.756254	-0.658280	-0.462111
H164	H	0.666694	-0.613217	-0.544599
H165	H	0.715733	-0.560787	-0.642771
H166	H	0.854337	-0.553420	-0.658457
H167	H	0.943897	-0.598484	-0.575969
H168	H	0.909395	-0.308375	-0.644159
H169	H	0.916812	-0.507863	-0.457445
H170	H	1.099548	-0.191990	-0.981970
H171	H	1.133408	-0.724066	-0.258022
H172	H	0.266638	-0.313257	-0.471435
C173	C	0.417351	-0.200159	-0.301597
C174	C	0.407074	-0.148968	-0.307053
C175	C	0.449415	-0.117190	-0.259301
C176	C	0.502032	-0.136603	-0.206092
C177	C	0.512311	-0.187796	-0.200633
C178	C	0.469971	-0.219574	-0.248385
H179	H	0.368122	-0.134595	-0.346444
H180	H	0.441805	-0.079293	-0.263342
H181	H	0.533375	-0.113078	-0.170743
H182	H	0.551264	-0.202169	-0.161243
H183	H	0.477581	-0.257471	-0.244344
H184	H	0.604399	-0.186981	-0.281829
C185	C	0.903399	-0.416013	-0.469735
C186	C	0.905879	-0.424545	-0.549851
C187	C	0.854424	-0.398643	-0.597250
C188	C	0.800488	-0.364210	-0.564534
C189	C	0.798006	-0.355677	-0.484414
C190	C	0.849462	-0.381579	-0.437014
H191	H	0.945807	-0.450035	-0.574073
H192	H	0.856261	-0.404960	-0.656560
H193	H	0.762398	-0.345036	-0.599622
H194	H	0.758078	-0.330186	-0.460191
H195	H	0.847624	-0.375262	-0.377704
H196	H	0.273224	-0.204856	-0.308686
H197	H	1.133435	-0.779707	-0.258032
H198	H	0.737539	-0.190529	-0.287155
H199	H	1.086476	-0.423047	-0.301052
H200	H	0.870225	-0.864343	-0.500597
H201	H	1.086534	-0.508158	-0.301074
H202	H	1.133363	-0.638958	-0.258004
C203	C	0.856816	-0.772509	-0.512893
C204	C	0.777176	-0.776746	-0.503876
C205	C	0.725705	-0.750857	-0.551276
C206	C	0.753873	-0.720732	-0.607693
C207	C	0.833516	-0.716494	-0.616713
C208	C	0.884988	-0.742382	-0.569313
H209	H	0.756321	-0.799047	-0.462110
H210	H	0.666748	-0.753995	-0.544599
H211	H	0.715771	-0.701568	-0.642782
H212	H	0.854372	-0.694192	-0.658479
H213	H	0.943945	-0.739245	-0.575990
H214	H	1.086757	-0.995452	-0.301148
H215	H	1.094209	-0.195246	-1.115107
