data_functionalizedCrystal
_audit_creation_method	'MofGen! by Chris Wilmer'
_symmetry_space_group_name_H-M	'P1'
_symmetry_Int_Tables_number	1
_symmetry_cell_setting	triclinic
loop_
_symmetry_equiv_pos_as_xyz
  x,y,z
_cell_length_a	14.519709
_cell_length_b	17.038278
_cell_length_c	13.596369
_cell_angle_alpha	89.986926
_cell_angle_beta	90.000291
_cell_angle_gamma	87.395324
loop_
_atom_site_label
_atom_site_type_symbol
_atom_site_fract_x
_atom_site_fract_y
_atom_site_fract_z
O1	O	1.231710	0.102502	-0.081679
O2	O	1.565043	0.435836	0.251654
O3	O	1.898377	0.769169	0.584988
O4	O	0.964157	0.114573	-0.081711
O5	O	1.297490	0.447907	0.251622
O6	O	1.630823	0.781240	0.584956
O7	O	1.096344	-0.005280	-0.081670
O8	O	1.429678	0.328053	0.251663
O9	O	1.763011	0.661387	0.584996
O10	O	1.099522	0.222356	-0.081720
O11	O	1.432855	0.555689	0.251613
O12	O	1.766189	0.889022	0.584947
O13	O	1.096330	-0.005286	0.081913
O14	O	1.429663	0.328047	0.415246
O15	O	1.762996	0.661380	0.748579
O16	O	0.964142	0.114567	0.081872
O17	O	1.297475	0.447900	0.415205
O18	O	1.630809	0.781234	0.748539
O19	O	1.231695	0.102496	0.081904
O20	O	1.565029	0.435829	0.415237
O21	O	1.898362	0.769163	0.748570
Zn22	Zn	1.097916	0.108530	0.107860
Zn23	Zn	1.431250	0.441864	0.441193
Zn24	Zn	1.764583	0.775197	0.774527
Zn25	Zn	1.097936	0.108539	-0.107667
Zn26	Zn	1.431269	0.441872	0.225666
Zn27	Zn	1.764602	0.775206	0.558999
O28	O	1.099508	0.222349	0.081863
O29	O	1.432841	0.555683	0.415196
O30	O	1.766174	0.889016	0.748530
C31	C	0.929746	0.114008	0.000077
C32	C	1.263080	0.447341	0.333410
C33	C	1.596413	0.780674	0.666743
C34	C	0.827236	0.112322	0.000066
C35	C	1.160570	0.445655	0.333399
C36	C	1.493903	0.778988	0.666732
C37	C	1.093445	-0.034416	0.000125
C38	C	1.426778	0.298917	0.333458
C39	C	1.760111	0.632250	0.666792
C40	C	1.084816	-0.121223	0.000137
C41	C	1.418149	0.212110	0.333470
C42	C	1.751482	0.545444	0.666804
C43	C	0.451866	0.106116	0.000112
C44	C	0.785199	0.439449	0.333445
C45	C	1.118532	0.772782	0.666778
C46	C	0.556305	0.107839	0.000099
C47	C	0.889639	0.441172	0.333432
C48	C	1.222972	0.774506	0.666765
C49	C	0.639548	0.109219	0.000088
C50	C	0.972881	0.442552	0.333421
C51	C	1.306214	0.775885	0.666754
C52	C	0.743994	0.110942	0.000076
C53	C	1.077327	0.444276	0.333410
C54	C	1.410661	0.777609	0.666743
C55	C	1.031804	-0.611721	0.000041
C56	C	1.365137	-0.278387	0.333374
C57	C	1.698470	0.054946	0.666708
C58	C	1.039919	-0.530157	0.000051
C59	C	1.373252	-0.196824	0.333385
C60	C	1.706585	0.136510	0.666718
C61	C	1.127267	-0.498582	0.000075
C62	C	1.460600	-0.165249	0.333409
C63	C	1.793934	0.168085	0.666742
C64	C	1.206505	-0.548575	0.000079
C65	C	1.539838	-0.215242	0.333412
C66	C	1.873172	0.118091	0.666745
C67	C	1.198389	-0.630137	0.000061
C68	C	1.531723	-0.296804	0.333394
C69	C	1.865056	0.036529	0.666728
C70	C	1.155938	-0.252778	0.000123
C71	C	1.489272	0.080555	0.333456
C72	C	1.822605	0.413888	0.666789
C73	C	1.164048	-0.171210	0.000143
C74	C	1.497381	0.162123	0.333477
C75	C	1.830715	0.495457	0.666810
C76	C	0.997461	-0.152797	0.000114
C77	C	1.330794	0.180536	0.333448
C78	C	1.664128	0.513869	0.666781
C79	C	0.989353	-0.234362	0.000103
C80	C	1.322686	0.098972	0.333436
C81	C	1.656019	0.432305	0.666769
C82	C	1.068591	-0.284348	0.000101
C83	C	1.401924	0.048986	0.333434
C84	C	1.735258	0.382319	0.666767
C85	C	1.135564	-0.415211	0.000089
C86	C	1.468897	-0.081878	0.333422
C87	C	1.802230	0.251455	0.666756
C88	C	1.060293	-0.367717	0.000080
C89	C	1.393627	-0.034384	0.333413
C90	C	1.726960	0.298950	0.666746
C91	C	1.266105	0.103062	0.000114
C92	C	1.599439	0.436395	0.333447
C93	C	1.932772	0.769728	0.666781
C94	C	1.368616	0.104748	0.000119
C95	C	1.701949	0.438081	0.333452
C96	C	2.035282	0.771414	0.666785
C97	C	1.102407	0.251486	0.000065
C98	C	1.435740	0.584819	0.333399
C99	C	1.769074	0.918152	0.666732
C100	C	1.111036	0.338292	0.000047
C101	C	1.444369	0.671626	0.333380
C102	C	1.777703	1.004959	0.666714
N103	N	1.097910	0.108524	0.254952
N104	N	1.431243	0.441858	0.588285
N105	N	1.764577	0.775191	0.921619
N106	N	1.097949	0.108539	-0.254759
N107	N	1.431282	0.441872	0.078574
N108	N	1.764615	0.775206	0.411907
C109	C	1.097934	0.108540	0.656243
C110	C	1.431268	0.441873	0.989576
C111	C	1.764601	0.775206	1.322910
C112	C	1.097925	0.108538	0.544592
C113	C	1.431258	0.441871	0.877925
C114	C	1.764592	0.775205	1.211258
C115	C	1.097923	0.108533	0.455601
C116	C	1.431256	0.441866	0.788934
C117	C	1.764589	0.775199	1.122268
C118	C	1.097912	0.108530	0.343943
C119	C	1.431246	0.441863	0.677276
C120	C	1.764579	0.775196	1.010609
H121	H	0.960676	-0.637422	0.000033
H122	H	1.294009	-0.304089	0.333366
H123	H	1.627342	0.029245	0.666700
H124	H	1.235181	-0.145505	0.000163
H125	H	1.568514	0.187828	0.333497
H126	H	1.901848	0.521161	0.666830
F127	F	1.299468	-0.514969	0.000096
F128	F	1.632801	-0.181635	0.333430
F129	F	1.966135	0.151698	0.666763
H130	H	1.206683	-0.389494	0.000141
H131	H	1.540016	-0.056160	0.333475
H132	H	1.873350	0.277173	0.666808
H133	H	1.220460	-0.293468	0.000127
H134	H	1.553793	0.039866	0.333461
H135	H	1.887127	0.373199	0.666794
F136	F	1.282719	-0.683337	0.000063
F137	F	1.616053	-0.350004	0.333396
F138	F	1.949386	-0.016671	0.666729
H139	H	0.932950	-0.112090	0.000115
H140	H	1.266283	0.221243	0.333448
H141	H	1.599617	0.554576	0.666781
H142	H	0.918225	-0.260063	0.000072
H143	H	1.251558	0.073270	0.333405
H144	H	1.584892	0.406603	0.666739
F145	F	0.967334	-0.401323	0.000048
F146	F	1.300667	-0.067990	0.333381
F147	F	1.634001	0.265343	0.666714
H148	H	0.975399	-0.489460	0.000043
H149	H	1.308732	-0.156127	0.333377
H150	H	1.642066	0.177206	0.666710
