data_functionalizedCrystal
_audit_creation_method	'MofGen! by Chris Wilmer'
_symmetry_space_group_name_H-M	'P1'
_symmetry_Int_Tables_number	1
_symmetry_cell_setting	triclinic
loop_
_symmetry_equiv_pos_as_xyz
  x,y,z
_cell_length_a	19.288859
_cell_length_b	14.044220
_cell_length_c	13.101039
_cell_angle_alpha	93.673600
_cell_angle_beta	86.652663
_cell_angle_gamma	88.161302
loop_
_atom_site_label
_atom_site_type_symbol
_atom_site_fract_x
_atom_site_fract_y
_atom_site_fract_z
O1	O	0.925436	0.123426	0.085238
O2	O	0.724200	0.139379	0.085236
O3	O	0.821798	-0.006569	0.085227
O4	O	0.827838	0.269375	0.085248
O5	O	0.828803	-0.017054	-0.085203
O6	O	0.731205	0.128895	-0.085194
O7	O	0.932441	0.112942	-0.085192
Zn8	Zn	0.832936	0.119254	-0.112253
Zn9	Zn	0.823706	0.133067	0.112297
O10	O	0.834843	0.258891	-0.085183
C11	C	0.701793	0.133625	0.000021
C12	C	0.624591	0.132087	0.000020
C13	C	0.065384	0.207319	0.000027
C14	C	0.137923	0.208772	0.000032
C15	C	0.177128	0.123136	0.000024
C16	C	0.143786	0.036041	0.000037
C17	C	0.071248	0.034591	0.000041
C18	C	0.296749	0.055596	-0.059694
C19	C	0.369287	0.057050	-0.059705
C20	C	0.400862	0.127607	0.000014
C21	C	0.359890	0.196726	0.059731
C22	C	0.287351	0.195275	0.059735
C23	C	0.255784	0.124700	0.000019
C24	C	0.512850	0.216273	0.000014
C25	C	0.585391	0.217724	0.000026
C26	C	0.591253	0.044990	0.000020
C27	C	0.518713	0.043542	0.000019
C28	C	0.479516	0.129186	0.000011
C29	C	0.822656	-0.047115	0.000012
C30	C	0.814769	-0.152307	0.000010
C31	C	0.800347	-0.344905	0.000025
C32	C	0.856291	-0.402779	0.000028
C33	C	0.848267	-0.509947	0.000037
C34	C	0.808370	-0.237727	0.000017
C35	C	0.954848	0.118697	0.000026
C36	C	1.032051	0.120235	0.000034
C37	C	0.833985	0.299436	0.000035
C38	C	0.841873	0.404628	0.000043
N39	N	0.817407	0.142488	0.265546
N40	N	0.839239	0.109826	-0.265502
C41	C	0.808831	0.155305	0.474589
C42	C	0.847814	0.097012	0.525461
C43	C	0.843042	0.104143	0.641780
C44	C	0.813602	0.148175	0.358260
H45	H	0.033473	0.277058	0.000025
H46	H	0.884771	0.041748	0.481656
H47	H	0.385596	0.254183	0.108357
H48	H	0.253995	0.251553	0.108360
H49	H	0.771875	0.210564	0.518390
H50	H	0.746431	-0.375842	0.000027
H51	H	0.165069	0.279688	0.000017
H52	H	0.910209	-0.371835	0.000098
H53	H	0.480934	0.286010	0.000010
H54	H	0.623173	-0.024737	0.000022
H55	H	0.491574	-0.027371	0.000018
H56	H	0.612529	0.288641	0.000029
H57	H	0.402641	0.000773	-0.108335
H58	H	0.271048	-0.001865	-0.108326
H59	H	0.175712	-0.033684	0.000033
H60	H	0.044109	-0.036325	0.000047
