data_functionalizedCrystal
_audit_creation_method	'MofGen! by Chris Wilmer'
_symmetry_space_group_name_H-M	'P1'
_symmetry_Int_Tables_number	1
_symmetry_cell_setting	triclinic
loop_
_symmetry_equiv_pos_as_xyz
  x,y,z
_cell_length_a	10.686220
_cell_length_b	13.032721
_cell_length_c	10.685880
_cell_angle_alpha	102.020524
_cell_angle_beta	89.641569
_cell_angle_gamma	100.973619
loop_
_atom_site_label
_atom_site_type_symbol
_atom_site_fract_x
_atom_site_fract_y
_atom_site_fract_z
Zn1	Zn	1.925388	-0.332655	-0.616943
Zn2	Zn	1.885824	-0.498367	-0.434375
Zn3	Zn	1.699211	-0.334827	-0.423622
Zn4	Zn	1.688425	-0.525454	-0.664590
O5	O	1.799712	-0.422826	-0.534883
O6	O	2.097407	-0.342392	-0.577285
O7	O	1.849025	-0.466246	-0.255697
O8	O	1.750286	-0.185410	-0.424826
O9	O	2.068340	-0.464140	-0.443153
O10	O	1.916457	-0.183815	-0.566858
O11	O	1.711922	-0.346094	-0.247797
O12	O	1.520513	-0.372359	-0.471027
O13	O	1.731902	-0.510306	-0.835522
O14	O	1.512588	-0.512411	-0.648066
O15	O	1.905998	-0.368657	-0.800515
O16	O	1.838566	-0.651089	-0.489354
O17	O	1.693538	-0.670989	-0.658492
C18	C	1.470587	-0.445561	-0.563551
C19	C	1.329784	-0.455315	-0.575850
C20	C	1.760624	-0.699705	-0.580285
C21	C	1.744021	-0.818150	-0.599741
C22	C	1.808448	-0.861074	-0.524780
C23	C	1.791290	-0.983493	-0.544886
C24	C	2.130122	-0.400002	-0.506103
C25	C	2.270923	-0.390277	-0.493839
C26	C	1.822160	-0.442261	-0.865263
C27	C	1.831726	-0.450543	-1.006051
C28	C	1.838988	-0.144864	-0.489328
C29	C	1.855726	-0.026413	-0.469915
C30	C	1.777435	-0.403384	-0.205769
C31	C	1.768157	-0.394785	-0.064911
H32	H	1.723429	-1.037371	-0.623958
C33	C	1.685590	-0.322834	-0.988604
C34	C	1.559128	-0.356580	-1.035400
C35	C	1.483028	-0.290333	-0.965119
H36	H	1.715533	-0.251177	-0.996823
H37	H	1.689793	-0.326678	-0.900958
H38	H	1.554931	-0.352725	-1.123024
H39	H	1.529148	-0.428227	-1.027179
H40	H	1.487231	-0.294177	-0.877473
H41	H	1.512981	-0.218679	-0.973343
H42	H	1.397213	-0.313226	-0.996852
C43	C	1.914275	-0.522565	-1.082277
C44	C	2.040725	-0.488848	-1.035436
C45	C	2.116801	-0.555175	-1.105610
H46	H	1.910152	-0.518797	-1.169937
H47	H	1.884238	-0.594201	-1.073973
H48	H	2.070754	-0.417230	-1.043751
H49	H	2.044888	-0.492620	-0.947785
H50	H	2.086764	-0.626812	-1.097306
H51	H	2.112667	-0.551403	-1.193266
H52	H	2.202603	-0.532314	-1.073831
H53	H	1.676166	-0.872031	-0.678807
H54	H	1.272450	-0.518468	-0.655470
C55	C	1.898722	-0.789188	-0.419207
C56	C	1.830414	-0.725570	-0.333784
C57	C	1.913529	-0.659347	-0.236504
H58	H	1.963250	-0.744662	-0.455648
H59	H	1.936896	-0.831954	-0.374704
H60	H	1.792260	-0.682808	-0.378281
H61	H	1.765891	-0.770067	-0.297311
H62	H	1.951703	-0.702113	-0.192000
H63	H	1.978053	-0.614828	-0.272956
H64	H	1.867192	-0.616181	-0.178526
H65	H	1.923597	-0.972536	-0.390852
H66	H	1.328249	-0.327134	-0.414217
