data_functionalizedCrystal
_audit_creation_method	'MofGen! by Chris Wilmer'
_symmetry_space_group_name_H-M	'P1'
_symmetry_Int_Tables_number	1
_symmetry_cell_setting	triclinic
loop_
_symmetry_equiv_pos_as_xyz
  x,y,z
_cell_length_a	12.759395
_cell_length_b	12.759399
_cell_length_c	12.759393
_cell_angle_alpha	90.031461
_cell_angle_beta	90.021657
_cell_angle_gamma	90.015679
loop_
_atom_site_label
_atom_site_type_symbol
_atom_site_fract_x
_atom_site_fract_y
_atom_site_fract_z
Zn1	Zn	-1.606259	0.418194	-0.594050
Zn2	Zn	-1.606151	0.593911	-0.418369
Zn3	Zn	-1.430559	0.418249	-0.418382
Zn4	Zn	-1.430549	0.593833	-0.594003
O5	O	-1.518379	0.506047	-0.506201
O6	O	-1.753266	0.441513	-0.570760
O7	O	-1.582817	0.570665	-0.271350
O8	O	-1.453916	0.271220	-0.441710
O9	O	-1.753186	0.570612	-0.441688
O10	O	-1.583002	0.271180	-0.570773
O11	O	-1.453811	0.441606	-0.271359
O12	O	-1.283537	0.441530	-0.441664
O13	O	-1.453898	0.570479	-0.741030
O14	O	-1.283529	0.570532	-0.570692
O15	O	-1.582992	0.441437	-0.741065
O16	O	-1.582806	0.740922	-0.441642
O17	O	-1.453792	0.740865	-0.570679
C18	C	-1.245412	0.506029	-0.506175
C19	C	-1.128635	0.506047	-0.506188
C20	C	-1.518315	0.779014	-0.506177
C21	C	-1.518384	0.895791	-0.506202
C22	C	-1.518456	0.505943	-0.780234
C23	C	-1.518488	0.505899	-0.897011
C24	C	-1.128666	0.640593	-0.640328
C25	C	-1.073820	0.707874	-0.707399
C26	C	-0.964098	0.707885	-0.707408
C27	C	-0.909220	0.640606	-0.640342
C28	C	-0.964065	0.573325	-0.573270
C29	C	-1.073790	0.573324	-0.573266
C30	C	-0.964035	0.438775	-0.439138
C31	C	-1.073757	0.438768	-0.439122
C32	C	-0.909157	0.371496	-0.372071
C33	C	-0.964002	0.304219	-0.304994
C34	C	-1.073731	0.304212	-0.304986
C35	C	-1.128602	0.371488	-0.372051
C36	C	-0.792413	0.506061	-0.506220
C37	C	-0.909189	0.506056	-0.506209
C38	C	-1.518473	0.232013	-0.506248
C39	C	-1.518512	0.115237	-0.506268
C40	C	-1.585638	0.950648	-0.439089
C41	C	-1.585705	1.060372	-0.439124
C42	C	-1.451255	1.060372	-0.573389
C43	C	-1.451194	0.950650	-0.573358
C44	C	-1.585734	0.438657	-1.061624
C45	C	-1.585714	0.438697	-0.951900
C46	C	-1.451286	0.573072	-0.951852
C47	C	-1.451312	0.573036	-1.061574
C48	C	-1.518364	0.506074	-0.233234
C49	C	-1.518535	0.505822	-0.116458
H50	H	-1.218007	0.640599	-0.640319
C51	C	-1.658530	0.891218	-0.366015
C52	C	-1.635741	0.918036	-0.262054
C53	C	-1.702880	0.863324	-0.194711
H54	H	-1.648928	0.817998	-0.375463
H55	H	-1.729140	0.909150	-0.381398
H56	H	-1.565148	0.900096	-0.246676
H57	H	-1.645349	0.991246	-0.252574
H58	H	-1.773490	0.881256	-0.210094
H59	H	-1.693273	0.790107	-0.204168
H60	H	-1.687433	0.881519	-0.124167
C61	C	-0.904556	0.231241	-0.232015
C62	C	-0.931204	0.253970	-0.128021
C63	C	-0.876470	0.186755	-0.060764
H64	H	-0.831339	0.240811	-0.241489
H65	H	-0.922586	0.160651	-0.247452
H66	H	-0.913167	0.324543	-0.112590
H67	H	-1.004411	0.244394	-0.118515
H68	H	-0.894500	0.116164	-0.076200
H69	H	-0.803256	0.196330	-0.070246
H70	H	-0.894550	0.202160	0.009803
H71	H	-1.396550	1.105052	-0.628063
C72	C	-1.658541	0.365588	-0.892431
C73	C	-1.635675	0.261632	-0.919127
C74	C	-1.702736	0.194249	-0.864358
H75	H	-1.729168	0.380818	-0.910380
H76	H	-1.648899	0.375157	-0.819211
H77	H	-1.645325	0.252068	-0.992330
H78	H	-1.565060	0.246369	-0.901175
H79	H	-1.693094	0.203818	-0.791139
H80	H	-1.773359	0.209488	-0.882312
H81	H	-1.687224	0.123707	-0.882457
C82	C	-1.378336	0.645921	-0.892072
C83	C	-1.392672	0.631557	-0.784245
C84	C	-1.325475	0.698636	-0.729147
H85	H	-1.393623	0.716550	-0.909912
H86	H	-1.307733	0.630521	-0.909990
H87	H	-1.463259	0.646964	-0.766335
H88	H	-1.377378	0.560941	-0.766375
H89	H	-1.254872	0.683236	-0.747064
H90	H	-1.340768	0.769261	-0.746995
H91	H	-1.335186	0.688892	-0.655981
H92	H	-1.396589	0.627735	-1.106221
C93	C	-1.658926	1.119758	-0.366317
C94	C	-1.762828	1.092891	-0.389291
C95	C	-1.830325	1.147548	-0.322233
H96	H	-1.649522	1.192985	-0.375863
H97	H	-1.643644	1.101814	-0.295691
H98	H	-1.778104	1.110842	-0.459900
H99	H	-1.772265	1.019673	-0.379739
H100	H	-1.815044	1.129605	-0.251607
H101	H	-1.820912	1.220773	-0.331784
H102	H	-1.900829	1.129320	-0.337805
H103	H	-1.396427	0.905983	-0.628015
C104	C	-1.658548	0.365561	-1.121267
C105	C	-1.599101	0.298174	-1.184243
C106	C	-1.666144	0.230815	-1.239187
H107	H	-1.704342	0.405617	-1.164155
H108	H	-1.698549	0.325506	-1.072924
H109	H	-1.559118	0.338225	-1.232581
H110	H	-1.553310	0.258095	-1.141382
H111	H	-1.706144	0.190760	-1.190844
H112	H	-1.711934	0.270879	-1.282068
H113	H	-1.625818	0.185079	-1.281915
C114	C	-1.133463	0.231202	-0.232278
C115	C	-1.241300	0.245572	-0.246635
C116	C	-1.296353	0.178323	-0.179683
H117	H	-1.115569	0.246420	-0.161618
H118	H	-1.115563	0.160610	-0.247798
H119	H	-1.259192	0.316148	-0.231107
H120	H	-1.259225	0.230347	-0.317280
H121	H	-1.278454	0.107731	-0.195203
H122	H	-1.278451	0.193546	-0.109028
H123	H	-1.369526	0.188057	-0.189422
C124	C	-1.133349	0.780787	-0.780386
C125	C	-1.106732	0.758027	-0.884381
C126	C	-1.161556	0.825160	-0.951647
H127	H	-1.115392	0.851397	-0.765022
H128	H	-1.206560	0.771139	-0.770846
H129	H	-1.033537	0.767684	-0.893915
H130	H	-1.124692	0.687429	-0.899777
H131	H	-1.234768	0.815512	-0.942107
H132	H	-1.143595	0.895767	-0.936274
H133	H	-1.143512	0.809720	-1.022215
H134	H	-0.919443	0.762665	-0.762028
H135	H	-0.819815	0.371505	-0.372088
C136	C	-0.790093	0.640805	-0.640471
C137	C	-0.753808	0.714140	-0.713548
C138	C	-0.644074	0.714362	-0.713684
H139	H	-0.765163	0.573093	-0.658799
H140	H	-0.765199	0.658943	-0.572660
H141	H	-0.778691	0.695995	-0.781345
H142	H	-0.778709	0.781862	-0.695237
H143	H	-0.619180	0.732500	-0.645873
H144	H	-0.619154	0.646646	-0.732010
H145	H	-0.619440	0.764125	-0.763259
H146	H	-1.217943	0.371491	-0.372048
