data_functionalizedCrystal
_audit_creation_method	'MofGen! by Chris Wilmer'
_symmetry_space_group_name_H-M	'P1'
_symmetry_Int_Tables_number	1
_symmetry_cell_setting	triclinic
loop_
_symmetry_equiv_pos_as_xyz
  x,y,z
_cell_length_a	19.805407
_cell_length_b	12.645330
_cell_length_c	19.805399
_cell_angle_alpha	90.023856
_cell_angle_beta	90.019573
_cell_angle_gamma	90.012646
loop_
_atom_site_label
_atom_site_type_symbol
_atom_site_fract_x
_atom_site_fract_y
_atom_site_fract_z
Zn1	Zn	1.034800	-0.422064	0.382737
Zn2	Zn	1.534800	0.077936	0.882737
Zn3	Zn	1.034742	-0.599342	0.269556
Zn4	Zn	1.534742	-0.099342	0.769556
Zn5	Zn	0.921615	-0.422093	0.269562
Zn6	Zn	1.421615	0.077907	0.769562
Zn7	Zn	0.921606	-0.599286	0.382703
Zn8	Zn	1.421606	-0.099286	0.882703
O9	O	0.978191	-0.510696	0.326140
O10	O	1.478191	-0.010696	0.826140
O11	O	1.129509	-0.445592	0.367735
O12	O	1.629509	0.054408	0.867735
O13	O	1.019715	-0.575865	0.174840
O14	O	1.519715	-0.075865	0.674840
O15	O	0.936657	-0.273742	0.284591
O16	O	1.436657	0.226258	0.784591
O17	O	1.129467	-0.575837	0.284582
O18	O	1.629467	-0.075837	0.784582
O19	O	1.019814	-0.273721	0.367741
O20	O	1.519814	0.226279	0.867741
O21	O	0.936601	-0.445641	0.174844
O22	O	1.436601	0.054359	0.674844
O23	O	0.826897	-0.445587	0.284558
O24	O	1.326897	0.054413	0.784558
O25	O	0.936642	-0.575741	0.477424
O26	O	1.436642	-0.075741	0.977424
O27	O	0.826890	-0.575769	0.367683
O28	O	1.326890	-0.075769	0.867683
O29	O	1.019805	-0.445537	0.477449
O30	O	1.519805	0.054463	0.977449
O31	O	1.019706	-0.747682	0.284549
O32	O	1.519706	-0.247682	0.784549
O33	O	0.936585	-0.747640	0.367677
O34	O	1.436585	-0.247640	0.867677
C35	C	0.802335	-0.510676	0.326118
C36	C	1.302335	-0.010676	0.826118
C37	C	0.727103	-0.510693	0.326124
C38	C	1.227103	-0.010693	0.826124
C39	C	0.978157	-0.786126	0.326124
C40	C	1.478157	-0.286126	0.826124
C41	C	0.978204	-0.903956	0.326139
C42	C	1.478204	-0.403956	0.826139
C43	C	0.691773	-0.578581	0.369337
C44	C	1.191773	-0.078581	0.869337
C45	C	0.621084	-0.578583	0.369347
C46	C	1.121084	-0.078583	0.869347
C47	C	0.585727	-0.510701	0.326140
C48	C	1.085727	-0.010701	0.826140
C49	C	0.621062	-0.442805	0.282925
C50	C	1.121062	0.057195	0.782925
C51	C	0.691749	-0.442799	0.282919
C52	C	1.191749	0.057201	0.782919
C53	C	0.335989	-0.442829	0.282947
C54	C	0.835989	0.057171	0.782947
C55	C	0.265297	-0.442843	0.282955
C56	C	0.765297	0.057157	0.782955
C57	C	0.265324	-0.578613	0.369375
C58	C	0.765324	-0.078613	0.869375
C59	C	0.336011	-0.578606	0.369369
C60	C	0.836011	-0.078606	0.869369
C61	C	0.371340	-0.510707	0.326157
C62	C	0.871340	-0.010707	0.826157
C63	C	0.447988	-0.510705	0.326148
C64	C	0.947988	-0.010705	0.826148
C65	C	0.509080	-0.510708	0.326145
C66	C	1.009080	-0.010708	0.826145
C67	C	1.030412	-1.071502	0.273737
C68	C	1.530412	-0.571502	0.773737
C69	C	1.030582	-0.948942	0.273865
C70	C	1.530582	-0.448942	0.773865
C71	C	0.997546	-0.948344	0.397486
C72	C	1.497546	-0.448344	0.897486
C73	C	0.997960	-1.070942	0.397208
C74	C	1.497960	-0.570942	0.897208
C75	C	0.906635	-1.071282	0.307898
C76	C	1.406635	-0.571282	0.807898
C77	C	0.906978	-0.948677	0.306298
C78	C	1.406978	-0.448677	0.806298
C79	C	1.154734	-0.510717	0.326162
C80	C	1.654734	-0.010717	0.826162
C81	C	1.229966	-0.510726	0.326171
C82	C	1.729966	-0.010726	0.826171
C83	C	0.978229	-0.510629	0.502682
C84	C	1.478229	-0.010629	1.002682
C85	C	0.978245	-0.510601	0.577914
C86	C	1.478245	-0.010601	1.077914
C87	C	0.978243	-0.234191	0.326170
C88	C	1.478243	0.265809	0.826170
C89	C	0.978266	-0.116361	0.326184
C90	C	1.478266	0.383639	0.826184
C91	C	0.978192	-0.510686	0.150284
C92	C	1.478192	-0.010686	0.650284
C93	C	0.978307	-0.510416	0.075052
C94	C	1.478307	-0.010416	0.575052
C95	C	1.021549	-0.442800	0.613273
C96	C	1.521549	0.057200	1.113273
C97	C	1.021556	-0.442770	0.683961
C98	C	1.521556	0.057230	1.183961
C99	C	0.978262	-0.510546	0.719290
C100	C	1.478262	-0.010546	1.219290
C101	C	0.934953	-0.578349	0.683927
C102	C	1.434953	-0.078349	1.183927
C103	C	0.934943	-0.578374	0.613240
C104	C	1.434943	-0.078374	1.113240
C105	C	0.934991	-0.578250	0.969000
C106	C	1.434991	-0.078250	1.469000
C107	C	0.935006	-0.578223	1.039692
C108	C	1.435006	-0.078223	1.539692
C109	C	1.021604	-0.442646	1.039722
C110	C	1.521604	0.057354	1.539722
C111	C	1.021594	-0.442671	0.969035
C112	C	1.521594	0.057329	1.469035
C113	C	0.978283	-0.510470	0.933678
C114	C	1.478283	-0.010470	1.433678
C115	C	0.978275	-0.510501	0.857029
C116	C	1.478275	-0.010501	1.357029
C117	C	0.978273	-0.510521	0.795937
C118	C	1.478273	-0.010521	1.295937
H119	H	0.720556	-0.633862	0.404519
H120	H	1.220556	-0.133862	0.904519
C121	C	0.582224	-0.653324	0.416839
C122	C	1.082224	-0.153324	0.916839
H123	H	0.613406	-0.693779	0.442553
H124	H	1.113406	-0.193779	0.942553
H125	H	0.554646	-0.612898	0.446394
H126	H	1.054646	-0.112898	0.946394
H127	H	0.554654	-0.699444	0.390856
H128	H	1.054654	-0.199444	0.890856
H129	H	0.899699	-0.633530	0.712697
H130	H	1.399699	-0.133530	1.212697
H131	H	0.364796	-0.633886	0.404551
H132	H	0.864796	-0.133886	0.904551
H133	H	1.056821	-0.387562	0.712747
H134	H	1.556821	0.112438	1.212747
H135	H	0.899747	-0.633416	1.068455
H136	H	1.399747	-0.133416	1.568455
H137	H	0.236551	-0.633895	0.404563
H138	H	0.736551	-0.133895	0.904563
C139	C	1.102249	-0.909202	0.290211
C140	C	1.602249	-0.409202	0.790211
H141	H	1.102600	-0.834075	0.290340
H142	H	1.602600	-0.334075	0.790340
H143	H	1.115500	-0.934548	0.333370
H144	H	1.615500	-0.434548	0.833370
H145	H	1.132864	-0.934455	0.256997
H146	H	1.632864	-0.434455	0.756997
H147	H	0.899734	-0.633472	0.940221
H148	H	1.399734	-0.133472	1.440221
H149	H	1.018481	-0.918934	0.220963
H150	H	1.518481	-0.418934	0.720963
C151	C	1.014342	-1.111560	0.202077
C152	C	1.514342	-0.611560	0.702077
H153	H	0.975683	-1.155993	0.203497
H154	H	1.475683	-0.655993	0.703497
H155	H	1.005687	-1.053022	0.173305
H156	H	1.505687	-0.553022	0.673305
H157	H	1.051760	-1.150442	0.185226
H158	H	1.551760	-0.650442	0.685226
H159	H	0.236511	-0.387559	0.247770
H160	H	0.736511	0.112441	0.747770
H161	H	1.050318	-1.099456	0.412697
H162	H	1.550318	-0.599456	0.912697
H163	H	0.899673	-0.633573	0.584452
H164	H	1.399673	-0.133573	1.084452
H165	H	0.364745	-0.387549	0.247756
H166	H	0.864745	0.112451	0.747756
C167	C	1.101701	-1.113001	0.289895
C168	C	1.601701	-0.613001	0.789895
H169	H	1.099824	-1.157543	0.328465
H170	H	1.599824	-0.657543	0.828465
H171	H	1.118355	-1.152032	0.252448
H172	H	1.618355	-0.652032	0.752448
H173	H	1.130904	-1.055020	0.298754
H174	H	1.630904	-0.555020	0.798754
C175	C	0.947791	-0.909012	0.451692
C176	C	1.447791	-0.409012	0.951692
H177	H	0.960413	-0.936799	0.494430
H178	H	1.460413	-0.436799	0.994430
H179	H	0.948793	-0.833951	0.453366
H180	H	1.448793	-0.333951	0.953366
H181	H	0.903464	-0.932048	0.440722
H182	H	1.403464	-0.432048	0.940722
C183	C	0.582171	-0.368140	0.235396
C184	C	1.082171	0.131860	0.735396
H185	H	0.535012	-0.377875	0.241582
H186	H	1.035012	0.122125	0.741582
H187	H	0.593765	-0.296931	0.245376
H188	H	1.093765	0.203069	0.745376
H189	H	0.593738	-0.383571	0.189899
H190	H	1.093738	0.116429	0.689899
C191	C	0.730612	-0.368120	0.235386
C192	C	1.230612	0.131880	0.735386
H193	H	0.699432	-0.327698	0.209651
H194	H	1.199432	0.172302	0.709651
H195	H	0.758202	-0.321984	0.261330
H196	H	1.258202	0.178016	0.761330
H197	H	0.758172	-0.408611	0.205844
H198	H	1.258172	0.091389	0.705844
C199	C	1.069216	-0.368118	0.930173
C200	C	1.569216	0.131882	1.430173
H201	H	1.063011	-0.377849	0.883010
H202	H	1.563011	0.122151	1.383010
H203	H	1.059325	-0.296886	0.941765
H204	H	1.559325	0.203114	1.441765
H205	H	1.114695	-0.383639	0.941764
H206	H	1.614695	0.116361	1.441764
C207	C	1.069242	-0.368060	1.078616
C208	C	1.569242	0.131940	1.578616
H209	H	1.063045	-0.377741	1.125775
H210	H	1.563045	0.122259	1.625775
H211	H	1.114714	-0.383588	1.067039
H212	H	1.614714	0.116412	1.567039
H213	H	1.059346	-0.296831	1.067036
H214	H	1.559346	0.203169	1.567036
H215	H	1.049313	-0.917557	0.413233
H216	H	1.549313	-0.417557	0.913233
C217	C	0.948889	-1.111032	0.451803
C218	C	1.448889	-0.611032	0.951803
H219	H	0.928794	-1.052388	0.474057
H220	H	1.428794	-0.552388	0.974057
H221	H	0.914686	-1.152841	0.431325
H222	H	1.414686	-0.652841	0.931325
H223	H	0.972926	-1.152583	0.483721
H224	H	1.472926	-0.652583	0.983721
C225	C	0.882876	-1.113153	0.238837
C226	C	1.382876	-0.613153	0.738837
H227	H	0.916424	-1.158522	0.220507
H228	H	1.416424	-0.658522	0.720507
H229	H	0.841952	-1.151381	0.244327
H230	H	1.341952	-0.651381	0.744327
H231	H	0.875610	-1.055380	0.209062
H232	H	1.375610	-0.555380	0.709062
H233	H	0.892395	-0.919676	0.253792
H234	H	1.392395	-0.419676	0.753792
C235	C	0.851657	-0.907328	0.354115
C236	C	1.351657	-0.407328	0.854115
H237	H	0.871364	-0.862053	0.386956
H238	H	1.371364	-0.362053	0.886956
H239	H	0.818997	-0.869106	0.328858
H240	H	1.318997	-0.369106	0.828858
H241	H	0.830490	-0.965322	0.376047
H242	H	1.330490	-0.465322	0.876047
H243	H	0.867782	-1.100293	0.346097
H244	H	1.367782	-0.600293	0.846097
C245	C	1.069171	-0.368241	0.574417
C246	C	1.569171	0.131759	1.074417
H247	H	1.094956	-0.327849	0.605602
H248	H	1.594956	0.172151	1.105602
H249	H	1.098652	-0.408798	0.546841
H250	H	1.598652	0.091202	1.046841
H251	H	1.043276	-0.322055	0.546845
H252	H	1.543276	0.177945	1.046845
