data_functionalizedCrystal
_audit_creation_method	'MofGen! by Chris Wilmer'
_symmetry_space_group_name_H-M	'P1'
_symmetry_Int_Tables_number	1
_symmetry_cell_setting	triclinic
loop_
_symmetry_equiv_pos_as_xyz
  x,y,z
_cell_length_a	6.817900
_cell_length_b	7.190334
_cell_length_c	10.943632
_cell_angle_alpha	92.181865
_cell_angle_beta	71.161120
_cell_angle_gamma	119.388224
loop_
_atom_site_label
_atom_site_type_symbol
_atom_site_fract_x
_atom_site_fract_y
_atom_site_fract_z
V1	V	4.249948	0.664950	-0.176571
O2	O	4.205109	0.652345	0.010604
O3	O	4.226969	0.660352	-0.352148
O4	O	4.286555	0.954981	-0.172925
O5	O	4.145110	0.355676	-0.169860
V6	V	4.719267	0.627965	-0.154292
O7	O	4.542364	0.746081	-0.225440
O8	O	4.877049	0.546834	-0.105423
O9	O	4.519040	0.632563	0.021285
O10	O	4.881504	0.640570	-0.341467
O11	O	4.941503	0.937239	-0.161003
O12	O	4.459454	0.337934	-0.157938
C13	C	4.075403	0.649849	-0.394979
C14	C	4.138468	0.648022	-0.538510
C15	C	4.151421	1.025675	-0.166356
C16	C	4.264895	1.267232	-0.164501
C17	C	3.980859	0.635876	-0.615700
C18	C	4.024880	0.463699	-0.688880
C19	C	4.206849	0.816967	-0.721079
C20	C	4.181584	0.475723	-0.609786
C21	C	4.363604	0.829149	-0.641991
C22	C	4.407728	0.656937	-0.715133
C23	C	4.333947	0.643060	0.064109
C24	C	4.250125	0.644900	0.207639
H25	H	3.882327	0.309168	-0.710116
O26	O	4.623544	0.667203	-0.766806
C27	C	4.838860	0.495210	-0.885903
C28	C	4.594324	0.483355	-0.827471
H29	H	4.815311	0.346568	-0.934941
H30	H	4.970307	0.646560	-0.961126
H31	H	4.911980	0.501224	-0.804809
H32	H	4.520990	0.477258	-0.908475
H33	H	4.463038	0.332028	-0.752217
H34	H	4.170229	0.331364	-0.561465
O35	O	4.533416	1.013328	-0.616377
C36	C	4.664638	1.220450	-0.451450
C37	C	4.472187	1.011734	-0.480271
H38	H	4.615177	1.219252	-0.341411
H39	H	4.846627	1.230963	-0.494071
H40	H	4.674503	1.365739	-0.497551
H41	H	4.462104	0.866328	-0.434175
H42	H	4.290295	1.001411	-0.437677
O43	O	4.219899	0.988910	-0.778722
C44	C	4.010343	1.171914	-0.793301
C45	C	3.995275	0.977128	-0.727906
H46	H	3.828745	1.162429	-0.752262
H47	H	4.152867	1.327637	-0.773024
H48	H	4.060549	1.169799	-0.903113
H49	H	3.944995	0.979036	-0.618079
H50	H	3.852806	0.821492	-0.748288
H51	H	3.799704	0.626769	-0.572245
