data_functionalizedCrystal
_audit_creation_method	'MofGen! by Chris Wilmer'
_symmetry_space_group_name_H-M	'P1'
_symmetry_Int_Tables_number	1
_symmetry_cell_setting	triclinic
loop_
_symmetry_equiv_pos_as_xyz
  x,y,z
_cell_length_a	27.732048
_cell_length_b	27.732048
_cell_length_c	14.421503
_cell_angle_alpha	89.999321
_cell_angle_beta	89.997938
_cell_angle_gamma	82.642655
loop_
_atom_site_label
_atom_site_type_symbol
_atom_site_fract_x
_atom_site_fract_y
_atom_site_fract_z
O1	O	0.640930	0.057510	-0.077002
O2	O	0.890930	0.307510	0.172998
O3	O	1.140930	0.557510	0.422998
O4	O	1.390930	0.807510	0.672998
O5	O	0.500137	0.066256	-0.077032
O6	O	0.750137	0.316256	0.172968
O7	O	1.000137	0.566256	0.422968
O8	O	1.250137	0.816256	0.672968
O9	O	0.574906	-0.008514	-0.076998
O10	O	0.824906	0.241486	0.173002
O11	O	1.074906	0.491486	0.423002
O12	O	1.324906	0.741486	0.673002
O13	O	0.566161	0.132280	-0.077035
O14	O	0.816161	0.382280	0.172965
O15	O	1.066161	0.632280	0.422965
O16	O	1.316161	0.882280	0.672965
O17	O	0.574894	-0.008503	0.077225
O18	O	0.824894	0.241497	0.327225
O19	O	1.074894	0.491497	0.577225
O20	O	1.324894	0.741497	0.827225
O21	O	0.500124	0.066267	0.077192
O22	O	0.750124	0.316267	0.327192
O23	O	1.000124	0.566267	0.577192
O24	O	1.250124	0.816267	0.827192
O25	O	0.640918	0.057521	0.077221
O26	O	0.890918	0.307521	0.327221
O27	O	1.140918	0.557521	0.577221
O28	O	1.390918	0.807521	0.827221
Cu29	Cu	0.570520	0.061895	0.091288
Cu30	Cu	0.820520	0.311895	0.341288
Cu31	Cu	1.070520	0.561895	0.591288
Cu32	Cu	1.320520	0.811895	0.841288
Cu33	Cu	0.570535	0.061882	-0.091099
Cu34	Cu	0.820535	0.311882	0.158901
Cu35	Cu	1.070535	0.561882	0.408901
Cu36	Cu	1.320535	0.811882	0.658901
O37	O	0.566148	0.132291	0.077188
O38	O	0.816148	0.382291	0.327188
O39	O	1.066148	0.632291	0.577188
O40	O	1.316148	0.882291	0.827188
C41	C	0.482124	0.066078	0.000077
C42	C	0.732124	0.316078	0.250077
C43	C	0.982124	0.566078	0.500077
C44	C	1.232124	0.816078	0.750077
C45	C	0.428469	0.065525	0.000066
C46	C	0.678469	0.315525	0.250066
C47	C	0.928469	0.565525	0.500066
C48	C	1.178469	0.815525	0.750066
C49	C	0.089654	0.106229	0.000096
C50	C	0.339654	0.356229	0.250096
C51	C	0.589654	0.606229	0.500096
C52	C	0.839654	0.856229	0.750096
C53	C	-0.112006	0.104178	0.000104
C54	C	0.137994	0.354178	0.250104
C55	C	0.387994	0.604178	0.500104
C56	C	0.637994	0.854178	0.750104
O57	O	-0.143262	0.141398	0.000135
O58	O	0.106738	0.391398	0.250135
O59	O	0.356738	0.641398	0.500135
O60	O	0.606738	0.891398	0.750135
N61	N	-0.131130	0.059843	0.000115
N62	N	0.118870	0.309843	0.250115
N63	N	0.368870	0.559843	0.500115
N64	N	0.618870	0.809843	0.750115
C65	C	-0.099835	0.016017	0.000128
C66	C	0.150165	0.266017	0.250128
C67	C	0.400165	0.516017	0.500128
C68	C	0.650165	0.766017	0.750128
O69	O	-0.120728	-0.021740	0.000147
O70	O	0.129272	0.228260	0.250147
O71	O	0.379272	0.478260	0.500147
O72	O	0.629272	0.728260	0.750147
C73	C	0.101824	0.018068	0.000126
C74	C	0.351824	0.268068	0.250126
C75	C	0.601824	0.518068	0.500126
C76	C	0.851824	0.768068	0.750126
C77	C	0.120944	0.062407	0.000107
C78	C	0.370944	0.312407	0.250107
C79	C	0.620944	0.562407	0.500107
C80	C	0.870944	0.812407	0.750107
C81	C	0.108775	0.150563	0.000077
C82	C	0.358775	0.400563	0.250077
C83	C	0.608775	0.650563	0.500077
C84	C	0.858775	0.900563	0.750077
C85	C	0.159187	0.151076	0.000070
C86	C	0.409187	0.401076	0.250070
C87	C	0.659187	0.651076	0.500070
C88	C	0.909187	0.901076	0.750070
C89	C	0.190477	0.107253	0.000081
C90	C	0.440477	0.357253	0.250081
C91	C	0.690477	0.607253	0.500081
C92	C	0.940477	0.857253	0.750081
C93	C	0.171356	0.062919	0.000100
C94	C	0.421356	0.312919	0.250100
C95	C	0.671356	0.562919	0.500100
C96	C	0.921356	0.812919	0.750100
C97	C	0.133117	-0.025757	0.000147
C98	C	0.383117	0.224243	0.250147
C99	C	0.633117	0.474243	0.500147
C100	C	0.883117	0.724243	0.750147
C101	C	0.183535	-0.025240	0.000149
C102	C	0.433535	0.224760	0.250149
C103	C	0.683535	0.474760	0.500149
C104	C	0.933535	0.724760	0.750149
C105	C	0.202655	0.019098	0.000129
C106	C	0.452655	0.269098	0.250129
C107	C	0.702655	0.519098	0.500129
C108	C	0.952655	0.769098	0.750129
C109	C	0.253059	0.019609	0.000103
C110	C	0.503059	0.269609	0.250103
C111	C	0.753059	0.519609	0.500103
C112	C	1.003059	0.769609	0.750103
N113	N	0.272183	0.063944	0.000093
N114	N	0.522183	0.313944	0.250093
N115	N	0.772183	0.563944	0.500093
N116	N	1.022183	0.813944	0.750093
C117	C	0.240892	0.107766	0.000082
C118	C	0.490892	0.357766	0.250082
C119	C	0.740892	0.607766	0.500082
C120	C	0.990892	0.857766	0.750082
C121	C	-0.205709	0.014943	0.000128
C122	C	0.044291	0.264943	0.250128
C123	C	0.294291	0.514943	0.500128
C124	C	0.544291	0.764943	0.750128
C125	C	-0.256124	0.014430	0.000127
C126	C	-0.006124	0.264430	0.250127
C127	C	0.243876	0.514430	0.500127
C128	C	0.493876	0.764430	0.750127
C129	C	-0.268291	0.102591	0.000104
C130	C	-0.018291	0.352591	0.250104
C131	C	0.231709	0.602591	0.500104
C132	C	0.481709	0.852591	0.750104
C133	C	-0.217876	0.103104	0.000099
C134	C	0.032124	0.353104	0.250099
C135	C	0.282124	0.603104	0.500099
C136	C	0.532124	0.853104	0.750099
C137	C	-0.186585	0.059278	0.000118
C138	C	0.063415	0.309278	0.250118
C139	C	0.313415	0.559278	0.500118
C140	C	0.563415	0.809278	0.750118
C141	C	0.346761	0.108839	0.000066
C142	C	0.596761	0.358839	0.250066
C143	C	0.846761	0.608839	0.500066
C144	C	1.096761	0.858839	0.750066
C145	C	0.397178	0.109347	0.000055
C146	C	0.647178	0.359347	0.250055
C147	C	0.897178	0.609347	0.500055
C148	C	1.147178	0.859347	0.750055
C149	C	0.409341	0.021186	0.000082
C150	C	0.659341	0.271186	0.250082
C151	C	0.909341	0.521186	0.500082
C152	C	1.159341	0.771186	0.750082
C153	C	0.358929	0.020678	0.000088
C154	C	0.608929	0.270678	0.250088
C155	C	0.858929	0.520678	0.500088
C156	C	1.108929	0.770678	0.750088
C157	C	0.327639	0.064508	0.000084
C158	C	0.577639	0.314508	0.250084
C159	C	0.827639	0.564508	0.500084
C160	C	1.077639	0.814508	0.750084
O161	O	0.284343	-0.017592	0.000084
O162	O	0.534343	0.232408	0.250084
O163	O	0.784343	0.482408	0.500084
O164	O	1.034343	0.732408	0.750084
O165	O	0.261794	0.145518	0.000085
O166	O	0.511794	0.395518	0.250085
O167	O	0.761794	0.645518	0.500085
O168	O	1.011794	0.895518	0.750085
C169	C	0.039242	0.105716	0.000103
C170	C	0.289242	0.355716	0.250103
C171	C	0.539242	0.605716	0.500103
C172	C	0.789242	0.855716	0.750103
C173	C	0.020120	0.061382	0.000121
C174	C	0.270120	0.311382	0.250121
C175	C	0.520120	0.561382	0.500121
C176	C	0.770120	0.811382	0.750121
C177	C	0.051411	0.017560	0.000132
C178	C	0.301411	0.267560	0.250132
C179	C	0.551411	0.517560	0.500132
C180	C	0.801411	0.767560	0.750132
C181	C	-0.030294	0.060869	0.000120
C182	C	0.219706	0.310869	0.250120
C183	C	0.469706	0.560869	0.500120
C184	C	0.719706	0.810869	0.750120
C185	C	-0.061585	0.104691	0.000109
C186	C	0.188415	0.354691	0.250109
C187	C	0.438415	0.604691	0.500109
C188	C	0.688415	0.854691	0.750109
C189	C	-0.042461	0.149026	0.000099
C190	C	0.207539	0.399026	0.250099
C191	C	0.457539	0.649026	0.500099
C192	C	0.707539	0.899026	0.750099
C193	C	0.007951	0.149539	0.000092
C194	C	0.257951	0.399539	0.250092
C195	C	0.507951	0.649539	0.500092
C196	C	0.757951	0.899539	0.750092
C197	C	0.032287	-0.026775	0.000143
C198	C	0.282287	0.223225	0.250143
C199	C	0.532287	0.473225	0.500143
C200	C	0.782287	0.723225	0.750143
C201	C	-0.018125	-0.027284	0.000149
C202	C	0.231875	0.222716	0.250149
C203	C	0.481875	0.472716	0.500149
C204	C	0.731875	0.722716	0.750149
C205	C	-0.049416	0.016538	0.000138
C206	C	0.200584	0.266538	0.250138
C207	C	0.450584	0.516538	0.500138
C208	C	0.700584	0.766538	0.750138
C209	C	0.574716	-0.026515	0.000116
C210	C	0.824716	0.223485	0.250116
C211	C	1.074716	0.473485	0.500116
C212	C	1.324716	0.723485	0.750116
C213	C	0.574164	-0.080170	0.000124
C214	C	0.824164	0.169830	0.250124
C215	C	1.074164	0.419830	0.500124
C216	C	1.324164	0.669830	0.750124
C217	C	0.614867	-0.418985	0.000084
C218	C	0.864867	-0.168985	0.250084
C219	C	1.114867	0.081015	0.500084
C220	C	1.364867	0.331015	0.750084
C221	C	0.612816	-0.620645	0.000071
C222	C	0.862816	-0.370645	0.250071
C223	C	1.112816	-0.120645	0.500071
C224	C	1.362816	0.129355	0.750071
O225	O	0.650037	-0.651900	0.000038
O226	O	0.900037	-0.401900	0.250038
O227	O	1.150037	-0.151900	0.500038
O228	O	1.400037	0.098100	0.750038
N229	N	0.568481	-0.639768	0.000063
N230	N	0.818481	-0.389768	0.250063
N231	N	1.068481	-0.139768	0.500063
N232	N	1.318481	0.110232	0.750063
C233	C	0.524656	-0.608474	0.000052
C234	C	0.774656	-0.358474	0.250052
C235	C	1.024656	-0.108474	0.500052
C236	C	1.274656	0.141526	0.750052
O237	O	0.486899	-0.629367	0.000035
O238	O	0.736899	-0.379367	0.250035
O239	O	0.986899	-0.129367	0.500035
O240	O	1.236899	0.120633	0.750035
C241	C	0.526707	-0.406815	0.000058
C242	C	0.776707	-0.156815	0.250058
C243	C	1.026707	0.093185	0.500058
C244	C	1.276707	0.343185	0.750058
C245	C	0.571045	-0.387694	0.000076
C246	C	0.821045	-0.137694	0.250076
C247	C	1.071045	0.112306	0.500076
C248	C	1.321045	0.362306	0.750076
C249	C	0.659202	-0.399864	0.000101
C250	C	0.909202	-0.149864	0.250101
C251	C	1.159202	0.100136	0.500101
C252	C	1.409202	0.350136	0.750101
C253	C	0.659714	-0.349452	0.000110
C254	C	0.909714	-0.099452	0.250110
C255	C	1.159714	0.150548	0.500110
C256	C	1.409714	0.400548	0.750110
C257	C	0.615892	-0.318161	0.000101
C258	C	0.865892	-0.068161	0.250101
C259	C	1.115892	0.181839	0.500101
C260	C	1.365892	0.431839	0.750101
C261	C	0.571557	-0.337282	0.000084
C262	C	0.821557	-0.087282	0.250084
C263	C	1.071557	0.162718	0.500084
C264	C	1.321557	0.412718	0.750084
C265	C	0.482882	-0.375521	0.000040
C266	C	0.732882	-0.125521	0.250040
C267	C	0.982882	0.124479	0.500040
C268	C	1.232882	0.374479	0.750040
C269	C	0.483399	-0.325104	0.000040
C270	C	0.733399	-0.075104	0.250040
C271	C	0.983399	0.174896	0.500040
C272	C	1.233399	0.424896	0.750040
C273	C	0.527737	-0.305983	0.000058
C274	C	0.777737	-0.055983	0.250058
C275	C	1.027737	0.194017	0.500058
C276	C	1.277737	0.444017	0.750058
C277	C	0.528247	-0.255580	0.000084
C278	C	0.778247	-0.005580	0.250084
C279	C	1.028247	0.244420	0.500084
C280	C	1.278247	0.494420	0.750084
N281	N	0.572583	-0.236456	0.000093
N282	N	0.822583	0.013544	0.250093
N283	N	1.072583	0.263544	0.500093
N284	N	1.322583	0.513544	0.750093
C285	C	0.616405	-0.267747	0.000101
C286	C	0.866405	-0.017747	0.250101
C287	C	1.116405	0.232253	0.500101
C288	C	1.366405	0.482253	0.750101
C289	C	0.523582	-0.714348	0.000050
C290	C	0.773582	-0.464348	0.250050
C291	C	1.023582	-0.214348	0.500050
C292	C	1.273582	0.035652	0.750050
C293	C	0.523069	-0.764762	0.000050
C294	C	0.773069	-0.514762	0.250050
C295	C	1.023069	-0.264762	0.500050
C296	C	1.273069	-0.014762	0.750050
C297	C	0.611230	-0.776930	0.000068
C298	C	0.861230	-0.526930	0.250068
C299	C	1.111230	-0.276930	0.500068
C300	C	1.361230	-0.026930	0.750068
C301	C	0.611742	-0.726514	0.000074
C302	C	0.861742	-0.476514	0.250074
C303	C	1.111742	-0.226514	0.500074
C304	C	1.361742	0.023486	0.750074
C305	C	0.567917	-0.695224	0.000058
C306	C	0.817917	-0.445224	0.250058
C307	C	1.067917	-0.195224	0.500058
C308	C	1.317917	0.054776	0.750058
C309	C	0.617477	-0.161878	0.000120
C310	C	0.867477	0.088122	0.250120
C311	C	1.117477	0.338122	0.500120
C312	C	1.367477	0.588122	0.750120
C313	C	0.617986	-0.111461	0.000132
C314	C	0.867986	0.138539	0.250132
C315	C	1.117986	0.388539	0.500132
C316	C	1.367986	0.638539	0.750132
C317	C	0.529825	-0.099298	0.000109
C318	C	0.779825	0.150702	0.250109
C319	C	1.029825	0.400702	0.500109
C320	C	1.279825	0.650702	0.750109
C321	C	0.529316	-0.149710	0.000102
C322	C	0.779316	0.100290	0.250102
C323	C	1.029316	0.350290	0.500102
C324	C	1.279316	0.600290	0.750102
C325	C	0.573147	-0.180999	0.000104
C326	C	0.823147	0.069001	0.250104
C327	C	1.073147	0.319001	0.500104
C328	C	1.323147	0.569001	0.750104
O329	O	0.491047	-0.224296	0.000107
O330	O	0.741047	0.025704	0.250107
O331	O	0.991047	0.275704	0.500107
O332	O	1.241047	0.525704	0.750107
O333	O	0.654156	-0.246844	0.000098
O334	O	0.904156	0.003156	0.250098
O335	O	1.154156	0.253156	0.500098
O336	O	1.404156	0.503156	0.750098
C337	C	0.614355	-0.469397	0.000076
C338	C	0.864355	-0.219397	0.250076
C339	C	1.114355	0.030603	0.500076
C340	C	1.364355	0.280603	0.750076
C341	C	0.570021	-0.488518	0.000059
C342	C	0.820021	-0.238518	0.250059
C343	C	1.070021	0.011482	0.500059
C344	C	1.320021	0.261482	0.750059
C345	C	0.526198	-0.457228	0.000051
C346	C	0.776198	-0.207228	0.250051
C347	C	1.026198	0.042772	0.500051
C348	C	1.276198	0.292772	0.750051
C349	C	0.569508	-0.538933	0.000059
C350	C	0.819508	-0.288933	0.250059
C351	C	1.069508	-0.038933	0.500059
C352	C	1.319508	0.211067	0.750059
C353	C	0.613330	-0.570223	0.000068
C354	C	0.863330	-0.320223	0.250068
C355	C	1.113330	-0.070223	0.500068
C356	C	1.363330	0.179777	0.750068
C357	C	0.657665	-0.551100	0.000076
C358	C	0.907665	-0.301100	0.250076
C359	C	1.157665	-0.051100	0.500076
C360	C	1.407665	0.198900	0.750076
C361	C	0.658177	-0.500688	0.000084
C362	C	0.908177	-0.250688	0.250084
C363	C	1.158177	-0.000688	0.500084
C364	C	1.408177	0.249312	0.750084
C365	C	0.481863	-0.476351	0.000042
C366	C	0.731863	-0.226351	0.250042
C367	C	0.981863	0.023649	0.500042
C368	C	1.231863	0.273649	0.750042
C369	C	0.481355	-0.526764	0.000035
C370	C	0.731355	-0.276764	0.250035
C371	C	0.981355	-0.026764	0.500035
C372	C	1.231355	0.223236	0.750035
C373	C	0.525177	-0.558054	0.000044
C374	C	0.775177	-0.308054	0.250044
C375	C	1.025177	-0.058054	0.500044
C376	C	1.275177	0.191946	0.750044
C377	C	0.658931	0.057699	0.000111
C378	C	0.908931	0.307699	0.250111
C379	C	1.158931	0.557699	0.500111
C380	C	1.408931	0.807699	0.750111
C381	C	0.712586	0.058252	0.000116
C382	C	0.962586	0.308252	0.250116
C383	C	1.212586	0.558252	0.500116
C384	C	1.462586	0.808252	0.750116
C385	C	0.566338	0.150292	0.000072
C386	C	0.816338	0.400292	0.250072
C387	C	1.066338	0.650292	0.500072
C388	C	1.316338	0.900292	0.750072
C389	C	0.566891	0.203947	0.000058
C390	C	0.816891	0.453947	0.250058
C391	C	1.066891	0.703947	0.500058
C392	C	1.316891	0.953947	0.750058
N393	N	0.570513	0.061904	0.219570
N394	N	0.820513	0.311904	0.469570
N395	N	1.070513	0.561904	0.719570
N396	N	1.320513	0.811904	0.969570
N397	N	0.570545	0.061869	-0.219380
N398	N	0.820545	0.311869	0.030620
N399	N	1.070545	0.561869	0.280620
N400	N	1.320545	0.811869	0.530620
C401	C	0.535934	0.096462	0.469208
C402	C	0.785934	0.346462	0.719208
C403	C	1.035934	0.596462	0.969208
C404	C	1.285934	0.846462	1.219208
C405	C	0.579543	0.105518	0.531017
C406	C	0.829543	0.355518	0.781017
C407	C	1.079543	0.605518	1.031017
C408	C	1.329543	0.855518	1.281017
C409	C	0.570525	0.061892	0.408731
C410	C	0.820525	0.311892	0.658731
C411	C	1.070525	0.561892	0.908731
C412	C	1.320525	0.811892	1.158731
C413	C	0.526927	0.052848	0.531016
C414	C	0.776927	0.302848	0.781016
C415	C	1.026927	0.552848	1.031016
C416	C	1.276927	0.802848	1.281016
C417	C	0.570532	0.061882	0.591453
C418	C	0.820532	0.311882	0.841453
C419	C	1.070532	0.561882	1.091453
C420	C	1.320532	0.811882	1.341453
C421	C	0.614156	0.070970	0.469179
C422	C	0.864156	0.320970	0.719179
C423	C	1.114156	0.570970	0.969179
C424	C	1.364156	0.820970	1.219179
C425	C	0.561512	0.018281	0.469173
C426	C	0.811512	0.268281	0.719173
C427	C	1.061512	0.518281	0.969173
C428	C	1.311512	0.768281	1.219173
C429	C	0.605152	0.027318	0.530954
C430	C	0.855152	0.277318	0.780954
C431	C	1.105152	0.527318	1.030954
C432	C	1.355152	0.777318	1.280954
C433	C	0.570520	0.061900	0.303470
C434	C	0.820520	0.311900	0.553470
C435	C	1.070520	0.561900	0.803470
C436	C	1.320520	0.811900	1.053470
C437	C	0.570543	0.061875	0.696711
C438	C	0.820543	0.311875	0.946711
C439	C	1.070543	0.561875	1.196711
C440	C	1.320543	0.811875	1.446711
H441	H	0.321291	0.144530	0.000065
H442	H	0.571291	0.394530	0.250065
H443	H	0.821291	0.644530	0.500065
H444	H	1.071291	0.894530	0.750065
H445	H	0.634440	-0.001923	0.557895
H446	H	0.884440	0.248077	0.807895
H447	H	1.134440	0.498077	1.057895
H448	H	1.384440	0.748077	1.307895
H449	H	0.447710	-0.299629	0.000025
H450	H	0.697710	-0.049629	0.250025
H451	H	0.947710	0.200371	0.500025
H452	H	1.197710	0.450371	0.750025
H453	H	0.694889	-0.425336	0.000105
H454	H	0.944889	-0.175336	0.250105
H455	H	1.194889	0.074664	0.500105
H456	H	1.444889	0.324664	0.750105
H457	H	0.653168	-0.187348	0.000118
H458	H	0.903168	0.062652	0.250118
H459	H	1.153168	0.312652	0.500118
H460	H	1.403168	0.562652	0.750118
Br461	Br	0.422705	-0.401458	0.000013
Br462	Br	0.672705	-0.151458	0.250013
Br463	Br	0.922705	0.098542	0.500013
Br464	Br	1.172705	0.348542	0.750013
H465	H	0.412743	0.145454	0.000039
H466	H	0.662743	0.395454	0.250039
H467	H	0.912743	0.645454	0.500039
H468	H	1.162743	0.895454	0.750039
H469	H	0.587173	0.142395	0.558181
H470	H	0.837173	0.392395	0.808181
H471	H	1.087173	0.642395	1.058181
H472	H	1.337173	0.892395	1.308181
Br473	Br	0.675628	0.083784	0.424105
Br474	Br	0.925628	0.333784	0.674105
Br475	Br	1.175628	0.583784	0.924105
Br476	Br	1.425628	0.833784	1.174105
H477	H	0.553867	-0.018584	0.441987
H478	H	0.803867	0.231416	0.691987
H479	H	1.053867	0.481416	0.941987
H480	H	1.303867	0.731416	1.191987
H481	H	0.490054	0.045202	0.558181
H482	H	0.740054	0.295202	0.808181
H483	H	0.990054	0.545202	1.058181
H484	H	1.240054	0.795202	1.308181
Br485	Br	0.185128	0.211252	0.000048
Br486	Br	0.435128	0.461252	0.250048
Br487	Br	0.685128	0.711252	0.500048
Br488	Br	0.935128	0.961252	0.750048
Br489	Br	0.107181	-0.085934	0.000153
Br490	Br	0.357181	0.164066	0.250153
Br491	Br	0.607181	0.414066	0.500153
Br492	Br	0.857181	0.664066	0.750153
H493	H	-0.293777	0.138273	0.000096
H494	H	-0.043777	0.388273	0.250096
H495	H	0.206223	0.638273	0.500096
H496	H	0.456223	0.888273	0.750096
H497	H	0.646911	-0.802415	0.000075
H498	H	0.896911	-0.552415	0.250075
H499	H	1.146911	-0.302415	0.500075
H500	H	1.396911	-0.052415	0.750075
H501	H	0.695819	-0.333889	0.000120
H502	H	0.945819	-0.083889	0.250120
H503	H	1.195819	0.166111	0.500120
H504	H	1.445819	0.416111	0.750120
Br505	Br	0.225997	-0.084721	0.000179
Br506	Br	0.475997	0.165279	0.250179
Br507	Br	0.725997	0.415279	0.500179
Br508	Br	0.975997	0.665279	0.750179
Br509	Br	-0.191932	0.163278	0.000073
Br510	Br	0.058068	0.413278	0.250073
Br511	Br	0.308068	0.663278	0.500073
Br512	Br	0.558068	0.913278	0.750073
Br513	Br	0.066317	0.210045	0.000062
Br514	Br	0.316317	0.460045	0.250062
Br515	Br	0.566317	0.710045	0.500062
Br516	Br	0.816317	0.960045	0.750062
Br517	Br	-0.282067	-0.045745	0.000125
Br518	Br	-0.032067	0.204255	0.250125
Br519	Br	0.217933	0.454255	0.500125
Br520	Br	0.467933	0.704255	0.750125
Br521	Br	0.469143	-0.175661	0.000099
Br522	Br	0.719143	0.074339	0.250099
Br523	Br	0.969143	0.324339	0.500099
Br524	Br	1.219143	0.574339	0.750099
H525	H	0.343360	-0.015426	0.000091
H526	H	0.593360	0.234574	0.250091
H527	H	0.843360	0.484574	0.500091
H528	H	1.093360	0.734574	0.750091
Br529	Br	-0.163250	-0.044540	0.000153
Br530	Br	0.086750	0.205460	0.250153
Br531	Br	0.336750	0.455460	0.500153
Br532	Br	0.586750	0.705460	0.750153
Br533	Br	0.671917	-0.700570	0.000100
Br534	Br	0.921917	-0.450570	0.250100
Br535	Br	1.171917	-0.200570	0.500100
Br536	Br	1.421917	0.049430	0.750100
H537	H	0.494146	-0.073812	0.000106
H538	H	0.744146	0.176188	0.250106
H539	H	0.994146	0.426188	0.500106
H540	H	1.244146	0.676188	0.750106
Br541	Br	0.462893	-0.790705	0.000048
Br542	Br	0.712893	-0.540705	0.250048
Br543	Br	0.962893	-0.290705	0.500048
Br544	Br	1.212893	-0.040705	0.750048
Br545	Br	0.451816	-0.038284	0.000099
Br546	Br	0.701816	0.211716	0.250099
Br547	Br	0.951816	0.461716	0.500099
Br548	Br	1.201816	0.711716	0.750099
Br549	Br	0.464098	-0.671889	0.000026
Br550	Br	0.714098	-0.421889	0.250026
Br551	Br	0.964098	-0.171889	0.500026
Br552	Br	1.214098	0.078111	0.750026
Br553	Br	0.487226	0.145224	0.424015
Br554	Br	0.737226	0.395224	0.674015
Br555	Br	0.987226	0.645224	0.924015
Br556	Br	1.237226	0.895224	1.174015
H557	H	0.023514	0.185643	0.000077
H558	H	0.273514	0.435643	0.250077
H559	H	0.523514	0.685643	0.500077
H560	H	0.773514	0.935643	0.750077
H561	H	-0.067947	0.184708	0.000086
H562	H	0.182053	0.434708	0.250086
H563	H	0.432053	0.684708	0.500086
H564	H	0.682053	0.934708	0.750086
H565	H	-0.033688	-0.063392	0.000157
H566	H	0.216312	0.186608	0.250157
H567	H	0.466312	0.436608	0.500157
H568	H	0.716312	0.686608	0.750157
H569	H	0.694282	-0.485125	0.000099
H570	H	0.944282	-0.235125	0.250099
H571	H	1.194282	0.014875	0.500099
H572	H	1.444282	0.264875	0.750099
H573	H	0.654093	-0.095896	0.000149
H574	H	0.904093	0.154104	0.250149
H575	H	1.154093	0.404104	0.500149
H576	H	1.404093	0.654104	0.750149
Br577	Br	0.717137	-0.593575	0.000095
Br578	Br	0.967137	-0.343575	0.250095
Br579	Br	1.217137	-0.093575	0.500095
Br580	Br	1.467137	0.156425	0.750095
H581	H	0.057760	-0.062462	0.000154
H582	H	0.307760	0.187538	0.250154
H583	H	0.557760	0.437538	0.500154
H584	H	0.807760	0.687538	0.750154
Br585	Br	0.421176	-0.552706	0.000018
Br586	Br	0.671176	-0.302706	0.250018
Br587	Br	0.921176	-0.052706	0.500018
Br588	Br	1.171176	0.197294	0.750018
H589	H	0.446177	-0.450879	0.000034
H590	H	0.696177	-0.200879	0.250034
H591	H	0.946177	0.049121	0.500034
H592	H	1.196177	0.299121	0.750034
