data_functionalizedCrystal
_audit_creation_method	'MofGen! by Chris Wilmer'
_symmetry_space_group_name_H-M	'P1'
_symmetry_Int_Tables_number	1
_symmetry_cell_setting	triclinic
loop_
_symmetry_equiv_pos_as_xyz
  x,y,z
_cell_length_a	10.654556
_cell_length_b	10.723022
_cell_length_c	9.130313
_cell_angle_alpha	89.996649
_cell_angle_beta	89.998135
_cell_angle_gamma	84.477382
loop_
_atom_site_label
_atom_site_type_symbol
_atom_site_fract_x
_atom_site_fract_y
_atom_site_fract_z
O1	O	1.667807	0.175313	-0.121740
O2	O	2.167807	0.675313	0.378260
O3	O	1.302327	0.192004	-0.121755
O4	O	1.802327	0.692004	0.378245
O5	O	1.493499	0.002083	-0.121742
O6	O	1.993499	0.502083	0.378258
O7	O	1.476636	0.365233	-0.121753
O8	O	1.976636	0.865233	0.378247
O9	O	1.493486	0.002078	0.121857
O10	O	1.993486	0.502078	0.621857
O11	O	1.302314	0.191998	0.121844
O12	O	1.802314	0.691998	0.621844
O13	O	1.667794	0.175307	0.121859
O14	O	2.167794	0.675307	0.621859
Cu15	Cu	1.485053	0.183652	0.144094
Cu16	Cu	1.985053	0.683652	0.644094
Cu17	Cu	1.485069	0.183659	-0.143990
Cu18	Cu	1.985069	0.683659	0.356010
O19	O	1.476623	0.365227	0.121846
O20	O	1.976623	0.865227	0.621846
C21	C	1.255523	0.190774	0.000043
C22	C	1.755523	0.690774	0.500043
C23	C	1.116081	0.187102	0.000037
C24	C	1.616081	0.687102	0.500037
C25	C	0.919543	0.181936	-0.132737
C26	C	1.419543	0.681936	0.367263
C27	C	1.050565	0.185378	-0.132746
C28	C	1.550565	0.685378	0.367254
C29	C	1.050569	0.185371	0.132839
C30	C	1.550569	0.685371	0.632839
C31	C	0.919551	0.181920	0.132846
C32	C	1.419551	0.681920	0.632846
C33	C	1.492265	-0.044419	0.000056
C34	C	1.992265	0.455581	0.500056
C35	C	1.488595	-0.182974	0.000051
C36	C	1.988595	0.317026	0.500051
C37	C	1.591768	-0.401135	0.000048
C38	C	2.091768	0.098865	0.500048
C39	C	1.595564	-0.257931	0.000053
C40	C	2.095564	0.242069	0.500053
C41	C	1.714598	0.176537	0.000058
C42	C	2.214598	0.676537	0.500058
C43	C	1.854041	0.180209	0.000054
C44	C	2.354041	0.680209	0.500054
C45	C	1.477856	0.411730	0.000045
C46	C	1.977856	0.911730	0.500045
C47	C	1.481526	0.550285	0.000041
C48	C	1.981526	1.050285	0.500041
N49	N	1.485051	0.183647	0.346717
N50	N	1.985051	0.683647	0.846717
N51	N	1.485080	0.183654	-0.346612
N52	N	1.985080	0.683654	0.153388
C53	C	1.569731	0.099586	0.423374
C54	C	2.069731	0.599586	0.923374
C55	C	1.569743	0.099586	0.576711
C56	C	2.069743	0.599586	1.076711
C57	C	1.400392	0.267719	0.576719
C58	C	1.900392	0.767719	1.076719
C59	C	1.400375	0.267712	0.423385
C60	C	1.900375	0.767712	0.923385
H61	H	1.103892	0.186782	-0.240878
H62	H	1.603892	0.686782	0.259122
Br63	Br	1.744405	-0.508505	0.000076
Br64	Br	2.244405	-0.008505	0.500076
H65	H	1.389955	-0.385288	0.000049
H66	H	1.889955	0.114712	0.500049
H67	H	1.638678	0.031133	0.360954
H68	H	2.138678	0.531133	0.860954
H69	H	1.331451	0.336165	0.639158
H70	H	1.831451	0.836165	1.139158
Br71	Br	1.684663	-0.014507	0.680744
Br72	Br	2.184663	0.485493	1.180744
H73	H	1.689953	-0.216103	0.000006
H74	H	2.189953	0.283897	0.500006
Br75	Br	1.331260	-0.252672	0.000024
Br76	Br	1.831260	0.247328	0.500024
Br77	Br	0.830647	0.179568	0.313076
Br78	Br	1.330647	0.679568	0.813076
Br79	Br	0.830640	0.179609	-0.312953
Br80	Br	1.330640	0.679609	0.187047
Br81	Br	1.139483	0.187705	0.313048
Br82	Br	1.639483	0.687705	0.813048
H83	H	1.331412	0.336165	0.360966
H84	H	1.831412	0.836165	0.860966
