data_functionalizedCrystal
_audit_creation_method	'MofGen! by Chris Wilmer'
_symmetry_space_group_name_H-M	'P1'
_symmetry_Int_Tables_number	1
_symmetry_cell_setting	triclinic
loop_
_symmetry_equiv_pos_as_xyz
  x,y,z
_cell_length_a	10.654550
_cell_length_b	8.559649
_cell_length_c	9.730223
_cell_angle_alpha	89.997407
_cell_angle_beta	89.999957
_cell_angle_gamma	77.131797
loop_
_atom_site_label
_atom_site_type_symbol
_atom_site_fract_x
_atom_site_fract_y
_atom_site_fract_z
O1	O	1.644681	0.224185	-0.114181
O2	O	1.276996	0.245543	-0.114206
O3	O	1.493232	0.002621	-0.114190
O4	O	1.428445	0.467107	-0.114197
O5	O	1.493220	0.002614	0.114390
O6	O	1.276985	0.245537	0.114374
O7	O	1.644669	0.224178	0.114398
Zn8	Zn	1.460825	0.234856	0.150678
Zn9	Zn	1.460841	0.234865	-0.150486
O10	O	1.428434	0.467100	0.114383
C11	C	1.230355	0.243972	0.000081
C12	C	1.091396	0.239280	0.000071
C13	C	0.997136	0.382309	0.000073
C14	C	0.866571	0.377890	0.000097
C15	C	0.924541	0.087402	0.000112
C16	C	1.055103	0.091822	0.000097
C17	C	1.498136	-0.056858	0.000097
C18	C	1.512750	-0.234076	0.000091
C19	C	1.691311	0.225750	0.000109
C20	C	1.830270	0.230442	0.000109
C21	C	1.423530	0.526579	0.000092
C22	C	1.408915	0.703797	0.000089
N23	N	1.460824	0.234849	0.356214
N24	N	1.460853	0.234860	-0.356022
C25	C	1.556598	0.127329	0.428147
C26	C	1.556610	0.127330	0.572030
C27	C	1.365070	0.342385	0.572035
C28	C	1.365053	0.342375	0.428154
H29	H	0.789827	0.494359	0.000101
C30	C	1.660629	0.010797	0.349931
C31	C	1.729236	0.096663	0.267291
C32	C	1.825065	-0.010656	0.195221
H33	H	1.621998	-0.056182	0.293729
H34	H	1.717746	-0.053256	0.413310
H35	H	1.672128	0.160689	0.203919
H36	H	1.767896	0.163637	0.323458
H37	H	1.882182	-0.074709	0.258600
H38	H	1.786423	-0.077629	0.139027
H39	H	1.871634	0.047589	0.139152
H40	H	1.026680	0.502378	0.000062
H41	H	1.308837	-0.213815	0.000087
H42	H	1.634596	0.039775	0.630594
H43	H	0.894975	-0.032654	0.000141
C44	C	1.646285	-0.343738	-0.000110
C45	C	1.713065	-0.314041	-0.117691
C46	C	1.836084	-0.415014	-0.117914
H47	H	1.638890	-0.452298	-0.000172
H48	H	1.691842	-0.323794	0.079560
H49	H	1.667519	-0.333997	-0.197340
H50	H	1.720495	-0.205501	-0.117653
H51	H	1.881641	-0.395070	-0.038244
H52	H	1.828676	-0.523568	-0.117973
H53	H	1.881413	-0.394868	-0.197685
H54	H	1.131856	-0.024657	0.000100
C55	C	1.260917	0.458941	0.650076
C56	C	1.140157	0.431558	0.615129
C57	C	1.044182	0.538886	0.687006
H58	H	1.264074	0.565699	0.626545
H59	H	1.274562	0.443539	0.746081
H60	H	1.126515	0.446973	0.519146
H61	H	1.136958	0.324820	0.638664
H62	H	1.057827	0.523484	0.783011
H63	H	1.047351	0.645638	0.663469
H64	H	0.962237	0.520312	0.663314
H65	H	1.287057	0.429932	0.369583
