data_functionalizedCrystal
_audit_creation_method	'MofGen! by Chris Wilmer'
_symmetry_space_group_name_H-M	'P1'
_symmetry_Int_Tables_number	1
_symmetry_cell_setting	triclinic
loop_
_symmetry_equiv_pos_as_xyz
  x,y,z
_cell_length_a	21.295417
_cell_length_b	19.121141
_cell_length_c	21.295411
_cell_angle_alpha	92.464691
_cell_angle_beta	89.978356
_cell_angle_gamma	92.416218
loop_
_atom_site_label
_atom_site_type_symbol
_atom_site_fract_x
_atom_site_fract_y
_atom_site_fract_z
Zn1	Zn	-0.291823	-1.073733	-0.396943
Zn2	Zn	0.208177	-0.573733	0.103057
Zn3	Zn	-0.397071	-1.073624	-0.291665
Zn4	Zn	0.102929	-0.573624	0.208335
Zn5	Zn	-0.287323	-0.956272	-0.287200
Zn6	Zn	0.212677	-0.456272	0.212800
Zn7	Zn	-0.392556	-0.956238	-0.392411
Zn8	Zn	0.107444	-0.456238	0.107589
O9	O	-0.342193	-1.014967	-0.342055
O10	O	0.157807	-0.514967	0.157945
O11	O	-0.309557	-1.172003	-0.386744
O12	O	0.190443	-0.672003	0.113256
O13	O	-0.382518	-1.058026	-0.202982
O14	O	0.117482	-0.558026	0.297018
O15	O	-0.199833	-0.971914	-0.301786
O16	O	0.300167	-0.471914	0.198214
O17	O	-0.386882	-1.171923	-0.309396
O18	O	0.113118	-0.671923	0.190604
O19	O	-0.203139	-1.058212	-0.382414
O20	O	0.296861	-0.558212	0.117586
O21	O	-0.301887	-0.971808	-0.199701
O22	O	0.198113	-0.471808	0.300299
O23	O	-0.297509	-0.857983	-0.297391
O24	O	0.202491	-0.357983	0.202609
O25	O	-0.379188	-0.971855	-0.481102
O26	O	0.120812	-0.471855	0.018898
O27	O	-0.374824	-0.857958	-0.374688
O28	O	0.125176	-0.357958	0.125312
O29	O	-0.305180	-1.058179	-0.484433
O30	O	0.194820	-0.558179	0.015567
O31	O	-0.484559	-1.057993	-0.305000
O32	O	0.015441	-0.557993	0.195000
O33	O	-0.481242	-0.971750	-0.379018
O34	O	0.018758	-0.471750	0.120982
C35	C	-0.335189	-0.832487	-0.335064
C36	C	0.164811	-0.332487	0.164936
C37	C	-0.332208	-0.754421	-0.332088
C38	C	0.167792	-0.254421	0.167912
C39	C	-0.371122	-0.717751	-0.370871
C40	C	0.128878	-0.217751	0.129129
C41	C	-0.368312	-0.644400	-0.368078
C42	C	0.131688	-0.144400	0.131922
C43	C	-0.326592	-0.607720	-0.326498
C44	C	0.173408	-0.107720	0.173502
C45	C	-0.287674	-0.644395	-0.287713
C46	C	0.212326	-0.144395	0.212287
C47	C	-0.290480	-0.717745	-0.290509
C48	C	0.209520	-0.217745	0.209491
C49	C	-0.316097	-0.386251	-0.316046
C50	C	0.183903	0.113749	0.183954
C51	C	-0.313295	-0.312896	-0.313251
C52	C	0.186705	0.187104	0.186749
C53	C	-0.393933	-0.312905	-0.393618
C54	C	0.106067	0.187095	0.106382
C55	C	-0.396738	-0.386256	-0.396408
C56	C	0.103262	0.113744	0.103592
C57	C	-0.357818	-0.422925	-0.357625
C58	C	0.142182	0.077075	0.142375
C59	C	-0.323720	-0.532743	-0.323640
C60	C	0.176280	-0.032743	0.176360
C61	C	-0.360687	-0.497901	-0.360486
C62	C	0.139313	0.002099	0.139514
C63	C	-0.505741	-1.014875	-0.342016
C64	C	-0.005741	-0.514875	0.157984
C65	C	-0.575710	-1.014900	-0.342023
C66	C	-0.075710	-0.514900	0.157977
C67	C	-0.610285	-1.059847	-0.303525
C68	C	-0.110285	-0.559847	0.196475
C69	C	-0.676028	-1.059879	-0.303541
C70	C	-0.176028	-0.559879	0.196459
C71	C	-0.707195	-1.014953	-0.342047
C72	C	-0.207195	-0.514953	0.157953
C73	C	-0.672612	-0.970003	-0.380553
C74	C	-0.172612	-0.470003	0.119447
C75	C	-0.606870	-0.969977	-0.380541
C76	C	-0.106870	-0.469977	0.119459
N77	N	-0.808107	-0.953513	-0.344492
N78	N	-0.308107	-0.453513	0.155508
N79	N	-0.870560	-0.953540	-0.344500
N80	N	-0.370560	-0.453540	0.155500
C81	C	-0.905273	-1.015032	-0.342086
C82	C	-0.405273	-0.515032	0.157914
N83	N	-0.875174	-1.076496	-0.339652
N84	N	-0.375174	-0.576496	0.160348
N85	N	-0.812715	-1.076468	-0.339641
N86	N	-0.312715	-0.576468	0.160359
C87	C	-0.778481	-1.014977	-0.342065
C88	C	-0.278481	-0.514977	0.157935
C89	C	-1.011134	-1.060018	-0.303603
C90	C	-0.511134	-0.560018	0.196397
C91	C	-1.076879	-1.060052	-0.303623
C92	C	-0.576879	-0.560052	0.196377
C93	C	-1.073461	-0.970170	-0.380631
C94	C	-0.573461	-0.470170	0.119369
C95	C	-1.007718	-0.970142	-0.380615
C96	C	-0.507718	-0.470142	0.119385
C97	C	-0.976558	-1.015065	-0.342097
C98	C	-0.476558	-0.515065	0.157903
C99	C	-0.178007	-1.015079	-0.342108
C100	C	0.321993	-0.515079	0.157892
C101	C	-0.108041	-1.015126	-0.342130
C102	C	0.391959	-0.515126	0.157870
C103	C	-0.342182	-1.015025	-0.506247
C104	C	0.157818	-0.515025	-0.006247
C105	C	-0.342177	-1.015050	-0.576216
C106	C	0.157823	-0.515050	-0.076216
C107	C	-0.349222	-0.198160	-0.349066
C108	C	0.150778	0.301840	0.150934
C109	C	-0.352208	-0.276226	-0.352035
C110	C	0.147792	0.223774	0.147965
C111	C	-0.303639	-1.059997	-0.610818
C112	C	0.196361	-0.559997	-0.110818
C113	C	-0.303612	-1.059996	-0.676560
C114	C	0.196388	-0.559996	-0.176560
C115	C	-0.342134	-1.015056	-0.707699
C116	C	0.157866	-0.515056	-0.207699
C117	C	-0.380675	-0.970100	-0.673089
C118	C	0.119325	-0.470100	-0.173089
C119	C	-0.380696	-0.970098	-0.607348
C120	C	0.119304	-0.470098	-0.107348
N121	N	-0.396994	-1.009637	-0.810707
N122	N	0.103006	-0.509637	-0.310707
N123	N	-0.396972	-1.009644	-0.873159
N124	N	0.103028	-0.509644	-0.373159
C125	C	-0.342071	-1.015060	-0.905774
C126	C	0.157929	-0.515060	-0.405774
N127	N	-0.287191	-1.020483	-0.873579
N128	N	0.212809	-0.520483	-0.373579
N129	N	-0.287214	-1.020480	-0.811121
N130	N	0.212786	-0.520480	-0.311121
C131	C	-0.342115	-1.015053	-0.778984
C132	C	0.157885	-0.515053	-0.278984
C133	C	-0.303500	-1.060008	-1.011661
C134	C	0.196500	-0.560008	-0.511661
C135	C	-0.303471	-1.060002	-1.077405
C136	C	0.196529	-0.560002	-0.577405
C137	C	-0.380540	-0.970110	-1.073932
C138	C	0.119460	-0.470110	-0.573932
C139	C	-0.380562	-0.970113	-1.008190
C140	C	0.119438	-0.470113	-0.508190
C141	C	-0.342043	-1.015065	-0.977059
C142	C	0.157957	-0.515065	-0.477059
C143	C	-0.342160	-1.014949	-0.178502
C144	C	0.157840	-0.514949	0.321498
C145	C	-0.341993	-1.015061	-0.108539
C146	C	0.158007	-0.515061	0.391461
H147	H	-0.425618	-0.283041	-0.425193
H148	H	0.074382	0.216959	0.074807
H149	H	-0.411898	-0.933512	-1.099284
H150	H	0.088102	-0.433512	-0.599284
H151	H	-0.279314	-0.283033	-0.279395
H152	H	0.220686	0.216967	0.220605
H153	H	-0.979566	-0.933539	-0.411961
H154	H	-0.479566	-0.433539	0.088039
O155	O	-0.422224	-0.921626	-0.706668
O156	O	0.077776	-0.421626	-0.206668
H157	H	-0.415738	-0.929182	-0.758196
H158	H	0.084262	-0.429182	-0.258196
O159	O	-0.262093	-1.108479	-0.577243
O160	O	0.237907	-0.608479	-0.077243
H161	H	-0.228870	-1.077069	-0.546078
H162	H	0.271130	-0.577069	-0.046078
O163	O	-0.274141	-0.425798	-0.274199
O164	O	0.225859	0.074202	0.225801
H165	H	-0.244671	-0.387967	-0.244806
H166	H	0.255329	0.112033	0.255194
H167	H	-0.258789	-0.747601	-0.258931
H168	H	0.241211	-0.247601	0.241069
O169	O	-0.262032	-1.108474	-0.713880
O170	O	0.237968	-0.608474	-0.213880
H171	H	-0.228784	-1.077057	-0.742612
H172	H	0.271216	-0.577057	-0.242612
H173	H	-0.412078	-0.933494	-0.579175
H174	H	0.087922	-0.433494	-0.079175
O175	O	-0.242689	-0.604839	-0.242848
O176	O	0.257311	-0.104839	0.257152
H177	H	-0.247285	-0.547673	-0.247407
H178	H	0.252715	-0.047673	0.252593
H179	H	-1.098837	-0.933593	-0.411987
H180	H	-0.598837	-0.433593	0.088013
H181	H	-0.411948	-0.933516	-0.980017
H182	H	0.088052	-0.433516	-0.480017
O183	O	-0.261950	-1.108481	-0.978076
O184	O	0.238050	-0.608481	-0.478076
H185	H	-0.235138	-1.139727	-1.013184
H186	H	0.264862	-0.639727	-0.513184
H187	H	-0.394653	-0.527768	-0.394343
H188	H	0.105347	-0.027768	0.105657
H189	H	-0.272085	-1.096602	-1.105577
H190	H	0.227915	-0.596602	-0.605577
O191	O	-0.576679	-1.108309	-0.261991
O192	O	-0.076679	-0.608309	0.238009
H193	H	-0.588877	-1.096301	-0.212119
H194	H	-0.088877	-0.596301	0.287881
O195	O	-0.416118	-0.757312	-0.415721
O196	O	0.083882	-0.257312	0.084279
H197	H	-0.442699	-0.719487	-0.442225
H198	H	0.057301	-0.219487	0.057775
H199	H	-0.289753	-0.502871	-0.289784
H200	H	0.210247	-0.002871	0.210216
H201	H	-0.697992	-0.933425	-0.411906
H202	H	-0.197992	-0.433425	0.088094
O203	O	-0.410403	-0.604845	-0.409787
O204	O	0.089597	-0.104845	0.090213
H205	H	-0.439934	-0.642674	-0.439121
H206	H	0.060066	-0.142674	0.060879
O207	O	-0.713332	-1.108353	-0.262011
O208	O	-0.213332	-0.608353	0.237989
H209	H	-0.680619	-1.139582	-0.235222
H210	H	-0.180619	-0.639582	0.264778
H211	H	-0.430713	-0.416116	-0.430266
H212	H	0.069287	0.083884	0.069734
H213	H	-0.578719	-0.933375	-0.411892
H214	H	-0.078719	-0.433375	0.088108
H215	H	-0.985763	-1.096600	-0.272241
H216	H	-0.485763	-0.596600	0.227759
O217	O	-1.114175	-1.108531	-0.262097
O218	O	-0.614175	-0.608531	0.237903
H219	H	-1.081460	-1.139757	-0.235308
H220	H	-0.581460	-0.639757	0.264692
