data_functionalizedCrystal
_audit_creation_method	'MofGen! by Chris Wilmer'
_symmetry_space_group_name_H-M	'P1'
_symmetry_Int_Tables_number	1
_symmetry_cell_setting	triclinic
loop_
_symmetry_equiv_pos_as_xyz
  x,y,z
_cell_length_a	18.215407
_cell_length_b	18.215405
_cell_length_c	17.077396
_cell_angle_alpha	90.031591
_cell_angle_beta	90.016808
_cell_angle_gamma	90.022344
loop_
_atom_site_label
_atom_site_type_symbol
_atom_site_fract_x
_atom_site_fract_y
_atom_site_fract_z
Zn1	Zn	1.125071	-0.293034	0.443769
Zn2	Zn	1.124980	-0.416108	0.312496
Zn3	Zn	1.002004	-0.293054	0.312523
Zn4	Zn	1.001970	-0.416058	0.443726
O5	O	1.063506	-0.354564	0.378129
O6	O	1.228043	-0.309373	0.426362
O7	O	1.108643	-0.399813	0.202653
O8	O	1.018382	-0.190067	0.329963
O9	O	1.227976	-0.399794	0.329917
O10	O	1.108799	-0.190053	0.426389
O11	O	1.018293	-0.309407	0.202673
O12	O	0.899015	-0.309358	0.329921
O13	O	1.018323	-0.399710	0.553579
O14	O	0.898990	-0.399729	0.426315
O15	O	1.108765	-0.309324	0.553611
O16	O	1.108610	-0.519085	0.329875
O17	O	1.018235	-0.519049	0.426288
C18	C	0.872300	-0.354541	0.378117
C19	C	0.790501	-0.354549	0.378130
C20	C	0.525450	-0.401697	0.428252
C21	C	0.602308	-0.401690	0.428248
C22	C	0.602304	-0.307447	0.328019
C23	C	0.525447	-0.307457	0.328020
C24	C	0.487021	-0.354581	0.378140
C25	C	0.640738	-0.354564	0.378136
C26	C	0.724071	-0.354557	0.378132
C27	C	0.403682	-0.354590	0.378144
C28	C	1.063428	-0.545770	0.378091
C29	C	1.063463	-0.627569	0.378101
C30	C	1.110631	-0.815757	0.327991
C31	C	1.110664	-0.892616	0.328010
C32	C	1.016475	-0.892618	0.428323
C33	C	1.016447	-0.815761	0.428308
C34	C	1.063524	-0.777332	0.378137
C35	C	1.063585	-0.931048	0.378171
C36	C	1.063620	-1.014382	0.378192
C37	C	1.063489	-0.693993	0.378117
C38	C	1.255459	-0.354587	0.378141
C39	C	1.337258	-0.354597	0.378147
C40	C	1.063551	-0.354509	0.582873
C41	C	1.063570	-0.354486	0.670123
C42	C	1.063604	-0.162611	0.378184
C43	C	1.063646	-0.080812	0.378207
C44	C	1.063504	-0.354564	0.174181
C45	C	1.063628	-0.354380	0.086932
C46	C	1.110665	-0.307419	0.711131
C47	C	1.110674	-0.307394	0.793111
C48	C	1.063591	-0.354441	0.834082
C49	C	1.016490	-0.401511	0.793069
C50	C	1.016478	-0.401531	0.711090
C51	C	1.016520	-0.401467	0.963939
C52	C	1.016533	-0.401448	1.045923
C53	C	1.110715	-0.307330	1.045961
C54	C	1.110703	-0.307350	0.963982
C55	C	1.063604	-0.354421	0.922974
H56	H	0.494158	-0.269089	0.287209
H57	H	0.978146	-0.923916	0.469169
O58	O	0.970788	-0.778397	0.477106
C59	C	1.012644	-0.733860	0.527822
H60	H	1.070610	-0.756977	0.532732
H61	H	0.985992	-0.732963	0.588207
H62	H	1.015174	-0.675627	0.503541
H63	H	0.633593	-0.440057	0.469053
O64	O	0.970838	-0.447291	0.671161
C65	C	1.012711	-0.494848	0.623747
H66	H	1.068494	-0.468900	0.611489
H67	H	0.982726	-0.504717	0.566088
H68	H	1.020772	-0.549381	0.655322
H69	H	1.149046	-0.269044	0.930625
O70	O	1.156327	-0.778508	0.279152
C71	C	1.140286	-0.797342	0.200904
H72	H	1.112018	-0.853169	0.199261
H73	H	1.193421	-0.799956	0.165759
H74	H	1.102449	-0.754134	0.174418
H75	H	1.149007	-0.269110	0.677778
O76	O	1.156494	-0.261652	0.832825
C77	C	1.198039	-0.220123	0.779084
H78	H	1.200560	-0.250284	0.720639
H79	H	1.256030	-0.212279	0.802781
H80	H	1.171121	-0.164227	0.770376
H81	H	1.149064	-0.269002	1.079353
H82	H	0.978152	-0.439815	0.826434
O83	O	1.156441	-0.930055	0.279414
C84	C	1.146386	-1.006132	0.290195
H85	H	1.122198	-1.016592	0.350731
H86	H	1.201544	-1.035279	0.285006
H87	H	1.107288	-1.028044	0.243567
O88	O	0.970725	-0.447169	1.085603
C89	C	0.929159	-0.488727	1.031831
H90	H	0.926616	-0.458600	0.973402
H91	H	0.871177	-0.496558	1.055513
H92	H	0.956073	-0.544629	1.023099
O93	O	0.970877	-0.447228	0.924010
C94	C	1.012758	-0.494782	0.876599
H95	H	1.068539	-0.468828	0.864345
H96	H	0.982777	-0.504654	0.818938
H97	H	1.020822	-0.549313	0.908175
H98	H	0.494166	-0.440068	0.469064
O99	O	0.639746	-0.261692	0.279413
C100	C	0.715823	-0.271796	0.290145
H101	H	0.726330	-0.295966	0.350678
H102	H	0.745044	-0.216660	0.284926
H103	H	0.737612	-0.310929	0.243510
