data_functionalizedCrystal
_audit_creation_method	'MofGen! by Chris Wilmer'
_symmetry_space_group_name_H-M	'P1'
_symmetry_Int_Tables_number	1
_symmetry_cell_setting	triclinic
loop_
_symmetry_equiv_pos_as_xyz
  x,y,z
_cell_length_a	14.044220
_cell_length_b	14.519709
_cell_length_c	12.503572
_cell_angle_alpha	93.528838
_cell_angle_beta	86.164750
_cell_angle_gamma	88.434511
loop_
_atom_site_label
_atom_site_type_symbol
_atom_site_fract_x
_atom_site_fract_y
_atom_site_fract_z
O1	O	-1.263535	-0.217488	0.089210
O2	O	-0.763535	0.282512	0.589210
O3	O	-0.987553	-0.209462	0.089237
O4	O	-0.487553	0.290538	0.589237
O5	O	-1.132861	-0.079828	0.089213
O6	O	-0.632861	0.420172	0.589213
O7	O	-1.118227	-0.347123	0.089234
O8	O	-0.618227	0.152877	0.589234
O9	O	-1.121933	-0.089595	-0.089427
O10	O	-0.621933	0.410405	0.410573
O11	O	-0.976625	-0.219229	-0.089403
O12	O	-0.476625	0.280771	0.410597
O13	O	-1.252607	-0.227255	-0.089430
O14	O	-0.752607	0.272745	0.410570
Cu15	Cu	-1.113618	-0.224134	-0.105728
Cu16	Cu	-0.613618	0.275866	0.394272
Cu17	Cu	-1.126542	-0.212583	0.105535
Cu18	Cu	-0.626542	0.287417	0.605535
O19	O	-1.107299	-0.356890	-0.089406
O20	O	-0.607299	0.143110	0.410594
C21	C	-0.946769	-0.210833	-0.000079
C22	C	-0.446769	0.289167	0.499921
C23	C	-0.841526	-0.200356	-0.000069
C24	C	-0.341526	0.299644	0.499931
C25	C	-1.293391	-0.225884	-0.000111
C26	C	-0.793391	0.274116	0.499889
C27	C	-1.398634	-0.236361	-0.000114
C28	C	-0.898634	0.263639	0.499886
C29	C	-1.126715	-0.050296	-0.000107
C30	C	-0.626715	0.449704	0.499893
C31	C	-1.124671	0.052250	-0.000107
C32	C	-0.624671	0.552250	0.499893
C33	C	-0.648831	-0.181202	-0.000092
C34	C	-0.148831	0.318798	0.499908
C35	C	-0.591324	-0.255510	-0.000091
C36	C	-0.091324	0.244490	0.499909
C37	C	-0.484102	-0.244853	-0.000104
C38	C	0.015898	0.255147	0.499896
C39	C	-0.756063	-0.191858	-0.000079
C40	C	-0.256063	0.308142	0.499921
C41	C	-1.113446	-0.386421	-0.000083
C42	C	-0.613446	0.113579	0.499917
C43	C	-1.115490	-0.488967	-0.000076
C44	C	-0.615490	0.011033	0.499924
N45	N	-1.104535	-0.232258	-0.254318
N46	N	-0.604535	0.267742	0.245682
C47	C	-1.117148	0.427754	-0.000078
C48	C	-0.617148	0.927754	0.499922
C49	C	-1.119237	0.323277	-0.000087
C50	C	-0.619237	0.823277	0.499913
C51	C	-1.120909	0.240005	-0.000094
C52	C	-0.620909	0.740005	0.499906
C53	C	-1.122999	0.135522	-0.000100
C54	C	-0.622999	0.635522	0.499900
C55	C	-1.091174	-0.244217	-0.473431
C56	C	-0.591174	0.255783	0.026569
C57	C	-1.148990	-0.192497	-0.526768
C58	C	-0.648990	0.307503	-0.026768
C59	C	-1.141556	-0.199151	-0.648690
C60	C	-0.641556	0.300849	-0.148690
C61	C	-1.098607	-0.237564	-0.351498
C62	C	-0.598607	0.262436	0.148502
N63	N	-1.135632	-0.204453	0.254126
N64	N	-0.635632	0.295547	0.754126
H65	H	-0.622617	-0.327131	-0.000080
H66	H	-0.122617	0.172869	0.499920
O67	O	-1.025386	-0.303020	-0.528017
O68	O	-0.525386	0.196980	-0.028017
C69	C	-0.973103	-0.349825	-0.454421
C70	C	-0.473103	0.150175	0.045579
H71	H	-0.976711	-0.307618	-0.374221
H72	H	-0.476711	0.192382	0.125779
H73	H	-0.895476	-0.359506	-0.487024
H74	H	-0.395476	0.140494	0.012976
H75	H	-1.004842	-0.420198	-0.442506
H76	H	-0.504842	0.079802	0.057494
O77	O	-0.611473	-0.095772	0.000095
O78	O	-0.111473	0.404228	0.500095
C79	C	-0.560547	-0.080157	0.092597
C80	C	-0.060547	0.419843	0.592597
H81	H	-0.588050	-0.126708	0.157262
H82	H	-0.088050	0.373292	0.657262
H83	H	-0.571062	-0.004845	0.123657
H84	H	-0.071062	0.495155	0.623657
H85	H	-0.481351	-0.096288	0.071673
H86	H	0.018649	0.403712	0.571673
O87	O	-1.214508	-0.133608	-0.471848
O88	O	-0.714508	0.366392	0.028152
C89	C	-1.207301	-0.139838	-0.360578
C90	C	-0.707301	0.360162	0.139422
H91	H	-1.173273	-0.209563	-0.345275
H92	H	-0.673273	0.290437	0.154725
H93	H	-1.281584	-0.132791	-0.317635
H94	H	-0.781584	0.367209	0.182365
H95	H	-1.161221	-0.082199	-0.328846
H96	H	-0.661221	0.417801	0.171154
