data_functionalizedCrystal
_audit_creation_method	'MofGen! by Chris Wilmer'
_symmetry_space_group_name_H-M	'P1'
_symmetry_Int_Tables_number	1
_symmetry_cell_setting	triclinic
loop_
_symmetry_equiv_pos_as_xyz
  x,y,z
_cell_length_a	19.851628
_cell_length_b	14.560438
_cell_length_c	19.851628
_cell_angle_alpha	60.002331
_cell_angle_beta	89.998032
_cell_angle_gamma	60.003548
loop_
_atom_site_label
_atom_site_type_symbol
_atom_site_fract_x
_atom_site_fract_y
_atom_site_fract_z
Zr1	Zr	0.648930	1.005306	-0.088333
O2	O	0.541380	1.196888	-0.195872
O3	O	0.681895	0.813723	-0.055381
O4	O	0.681900	1.005325	-0.195900
O5	O	0.541377	1.005271	0.055508
O6	O	0.792749	1.005343	-0.195906
O7	O	0.541376	1.005285	-0.055352
O8	O	0.792741	0.662601	0.055457
O9	O	0.541385	1.348013	-0.195855
O10	O	0.778685	0.892538	-0.041314
O11	O	0.695960	0.892514	0.041424
O12	O	0.695966	1.118102	-0.124019
O13	O	0.613241	1.118078	-0.041281
Zr14	Zr	0.825722	1.005313	0.088467
Zr15	Zr	0.825721	1.005335	-0.088343
Zr16	Zr	0.648931	1.005284	0.088477
Zr17	Zr	0.648937	1.246334	-0.088307
Zr18	Zr	0.825715	0.764285	0.088441
O19	O	0.792756	1.196896	0.055515
O20	O	0.792754	1.196928	-0.195886
O21	O	0.541382	1.196856	0.055529
O22	O	0.933272	0.813731	0.196006
O23	O	0.933269	0.813763	-0.055395
O24	O	0.681898	0.813691	0.196020
O25	O	0.933275	1.005348	-0.055374
O26	O	0.792752	1.005294	0.196034
O27	O	0.681903	1.005276	0.196040
O28	O	0.933276	1.005334	0.055486
O29	O	0.681910	1.348035	-0.195863
O30	O	0.792742	0.662584	0.195997
O31	O	0.933267	0.662606	0.195990
O32	O	0.933266	0.662624	0.055450
O33	O	0.541386	1.347995	-0.055315
O34	O	0.681911	1.348018	-0.055323
O35	O	0.778686	0.892517	0.124153
O36	O	0.861411	0.892541	0.041415
O37	O	0.778691	1.118105	-0.041290
O38	O	0.695967	1.118081	0.041448
C39	C	0.737317	0.703821	0.000035
C40	C	0.737314	0.601498	0.000024
C41	C	0.676251	0.636623	-0.061015
C42	C	0.676264	0.540434	-0.060974
C43	C	0.798407	0.373997	0.061153
C44	C	0.798396	0.470185	0.061107
C45	C	0.615168	0.767936	-0.122099
C46	C	0.554100	0.803067	-0.183142
C47	C	0.554113	0.706878	-0.183101
C48	C	0.615195	0.575558	-0.122016
C49	C	0.516187	1.005274	0.000079
C50	C	0.441135	1.005262	0.000084
C51	C	0.304871	0.882304	0.045168
C52	C	0.237424	0.943775	0.077872
C53	C	0.303703	1.005296	0.000073
C54	C	0.237415	0.943817	-0.032604
C55	C	0.170954	1.005319	0.000063
C56	C	0.237245	1.066767	0.032823
C57	C	0.237247	1.066792	-0.077696
C58	C	0.169787	1.128352	-0.045011
C59	C	0.380178	1.005279	0.000081
C60	C	0.094478	1.005346	0.000057
C61	C	0.958464	1.005345	0.000055
C62	C	1.033517	1.005357	0.000051
C63	C	0.737324	1.005337	-0.221095
C64	C	0.737323	1.005347	-0.296155
C65	C	0.737335	1.306798	0.000100
C66	C	0.737338	1.409121	0.000111
C67	C	0.692221	1.128305	-0.567490
C68	C	0.659520	1.066840	-0.500034
C69	C	0.737326	1.005296	-0.566300
C70	C	0.769986	1.066825	-0.500042
C71	C	0.737323	1.005327	-0.433571
C72	C	0.704580	0.943829	-0.499833
C73	C	0.815089	0.943831	-0.499851
C74	C	0.782408	0.882276	-0.432382
C75	C	0.737326	1.005281	-0.642763
C76	C	0.737322	1.005333	-0.357106
C77	C	0.737328	1.005282	0.221229
C78	C	0.737328	1.005272	0.296289
C79	C	0.958456	0.703856	0.000022
C80	C	1.033505	0.601546	0.000007
C81	C	0.737319	0.703793	0.221196
C82	C	0.737317	0.601461	0.296246
C83	C	0.958457	0.703828	0.221184
C84	C	1.033508	0.601508	0.296229
C85	C	0.516194	1.306791	-0.221050
C86	C	0.441144	1.409111	-0.296095
C87	C	0.516196	1.306763	0.000112
C88	C	0.441147	1.409073	0.000127
C89	C	0.737333	1.306826	-0.221062
C90	C	0.737335	1.409158	-0.296111
C91	C	1.025567	0.553498	-0.043191
C92	C	1.096077	0.457380	-0.043222
C93	C	1.174524	0.409304	-0.000049
C94	C	1.182461	0.457361	0.043151
C95	C	1.111952	0.553484	0.043176
C96	C	0.780497	0.553406	0.374681
C97	C	0.780492	0.457268	0.445204
C98	C	0.737310	0.409180	0.437291
C99	C	0.694124	0.457244	0.358847
C100	C	0.694125	0.553387	0.288326
C101	C	1.111941	0.553470	0.288283
C102	C	1.182465	0.457343	0.358789
C103	C	1.174554	0.409249	0.437241
C104	C	1.096113	0.457297	0.445186
C105	C	1.025590	0.553429	0.374680
C106	C	0.362711	1.457160	-0.288148
C107	C	0.292187	1.553317	-0.358654
C108	C	0.300097	1.601416	-0.437106
C109	C	0.378539	1.553362	-0.445051
C110	C	0.449061	1.457214	-0.374546
C111	C	0.449085	1.457131	0.043318
C112	C	0.378575	1.553276	0.043329
C113	C	0.300127	1.601355	0.000154
C114	C	0.292191	1.553293	-0.043042
C115	C	0.362700	1.457157	-0.043058
C116	C	0.780526	1.457216	-0.288172
C117	C	0.780544	1.553355	-0.358682
C118	C	0.737367	1.601441	-0.437131
C119	C	0.694175	1.553373	-0.445069
C120	C	0.694162	1.457230	-0.374560
H121	H	0.848135	0.267072	0.110886
F122	F	1.087707	0.406099	0.528687
H123	H	1.231985	0.330973	0.494644
F124	F	0.208712	1.604439	-0.350181
H125	H	0.658966	0.418076	0.352416
F126	F	0.236549	0.875854	-0.068723
H127	H	0.658965	0.592500	0.224463
F128	F	0.387039	1.604405	0.089310
H129	H	0.961729	0.592529	0.381162
H130	H	0.737384	1.679728	-0.494537
F131	F	0.225091	1.703672	0.000179
H132	H	1.118397	0.592614	0.224409
F133	F	0.094318	1.264390	-0.094850
F134	F	0.826464	0.604565	0.383122
F135	F	0.354273	1.405985	-0.204660
H136	H	0.242667	1.679706	-0.494510
F137	F	0.386945	1.604563	-0.528553
H138	H	0.797609	1.118844	-0.499395
H139	H	1.246329	0.418232	0.352305
H140	H	0.659021	1.592540	-0.508952
F141	F	0.737317	0.306854	0.512355
F142	F	0.532534	1.406078	-0.383016
F143	F	0.532568	1.405982	0.089272
H144	H	0.676872	0.891885	-0.500422
F145	F	0.236544	0.875828	0.163832
F146	F	0.826512	1.604500	-0.350216
H147	H	0.228310	1.592454	-0.078195
H148	H	0.356225	1.418031	-0.078227
F149	F	0.901027	0.875954	-0.500781
H150	H	0.815686	1.418079	-0.224301
F151	F	0.489101	0.942823	-0.248154
F152	F	0.238028	1.134655	0.069039
H153	H	0.658987	1.418111	-0.381036
H154	H	0.820542	0.778204	-0.374635
H155	H	0.504393	0.735488	-0.232810
F156	F	0.615213	0.473188	-0.121982
F157	F	0.863390	0.432803	0.126069
F158	F	0.615147	0.870315	-0.122145
H159	H	0.815662	0.418146	0.509069
H160	H	0.237951	1.118734	-0.143447
H161	H	0.654033	1.232291	-0.625332
H162	H	0.961697	0.592640	-0.078358
H163	H	1.089599	0.418263	-0.078400
F164	F	0.380462	0.746378	0.095074
F165	F	0.573562	1.134785	-0.499154
H166	H	1.231931	0.331033	-0.000076
H167	H	1.246342	0.418204	0.078300
F168	F	1.120413	0.604603	0.089162
