data_functionalizedCrystal
_audit_creation_method	'MofGen! by Chris Wilmer'
_symmetry_space_group_name_H-M	'P1'
_symmetry_Int_Tables_number	1
_symmetry_cell_setting	triclinic
loop_
_symmetry_equiv_pos_as_xyz
  x,y,z
_cell_length_a	16.974897
_cell_length_b	27.732048
_cell_length_c	15.455313
_cell_angle_alpha	92.637842
_cell_angle_beta	83.675220
_cell_angle_gamma	83.022347
loop_
_atom_site_label
_atom_site_type_symbol
_atom_site_fract_x
_atom_site_fract_y
_atom_site_fract_z
O1	O	1.055455	0.057354	-0.146151
O2	O	0.824372	0.065668	-0.129950
O3	O	0.947090	-0.008872	-0.138537
O4	O	0.932737	0.131894	-0.137564
O5	O	0.940072	-0.004627	0.006216
O6	O	0.817354	0.069913	0.014803
O7	O	1.048438	0.061599	-0.001398
Cu8	Cu	0.932255	0.066144	0.019920
Cu9	Cu	0.940554	0.061123	-0.151268
O10	O	0.925720	0.136139	0.007189
C11	C	0.791308	0.067552	-0.055501
C12	C	0.703245	0.066835	-0.049326
C13	C	0.665690	0.064186	-0.125324
C14	C	0.582942	0.063520	-0.119509
C15	C	0.537752	0.065501	-0.037696
C16	C	0.575312	0.068152	0.038307
C17	C	0.658057	0.068821	0.032492
C18	C	0.289870	0.063752	-0.011842
C19	C	0.207120	0.063081	-0.006032
C20	C	0.214756	0.058450	-0.163849
C21	C	0.297503	0.059116	-0.169657
C22	C	0.335055	0.061770	-0.093654
N23	N	0.453171	0.064819	-0.031750
N24	N	0.419634	0.062455	-0.099601
C25	C	0.943280	-0.024757	-0.066137
C26	C	0.942372	-0.078413	-0.066066
C27	C	1.009181	-0.417105	-0.070795
C28	C	1.005815	-0.618771	-0.070571
O29	O	1.066907	-0.649914	-0.074892
N30	N	0.933048	-0.638031	-0.065468
C31	C	0.861117	-0.606870	-0.060427
O32	O	0.799148	-0.627879	-0.056091
C33	C	0.864484	-0.405205	-0.060657
C34	C	0.937256	-0.385948	-0.065751
C35	C	1.081947	-0.397848	-0.075889
C36	C	1.082787	-0.347434	-0.075941
C37	C	1.010862	-0.316278	-0.070897
C38	C	0.938096	-0.335535	-0.065803
C39	C	0.792555	-0.374046	-0.055623
C40	C	0.793403	-0.323627	-0.055683
C41	C	0.866175	-0.304370	-0.060777
C42	C	0.867011	-0.253964	-0.060810
N43	N	0.939779	-0.234705	-0.065913
C44	C	1.011704	-0.265862	-0.070956
C45	C	0.859355	-0.712748	-0.060305
C46	C	0.858513	-0.763164	-0.060246
C47	C	1.003211	-0.775061	-0.070391
C48	C	1.004052	-0.724644	-0.070444
C49	C	0.932122	-0.693488	-0.065408
C50	C	1.013463	-0.159989	-0.071063
C51	C	1.014297	-0.109570	-0.071110
C52	C	0.869600	-0.097677	-0.060969
C53	C	0.868765	-0.148091	-0.060917
C54	C	0.940703	-0.179246	-0.065968
O55	O	0.805953	-0.222793	-0.056501
O56	O	1.073665	-0.244844	-0.075311
C57	C	1.008341	-0.467519	-0.070744
C58	C	0.935575	-0.486776	-0.065649
C59	C	0.863650	-0.455619	-0.060606
C60	C	0.934733	-0.537192	-0.065590
C61	C	1.006658	-0.568348	-0.070633
C62	C	1.079425	-0.549089	-0.075736
C63	C	1.080266	-0.498675	-0.075787
C64	C	0.790882	-0.474879	-0.055503
C65	C	0.790048	-0.525293	-0.055451
C66	C	0.861973	-0.556449	-0.060495
C67	C	1.081501	0.059715	-0.075849
C68	C	1.169565	0.060431	-0.082029
C69	C	0.929530	0.152024	-0.065213
C70	C	0.930438	0.205680	-0.065289
N71	N	0.926424	0.069674	0.140323
N72	N	0.946392	0.057589	-0.271672
C73	C	0.978577	0.038019	0.182068
C74	C	0.974174	0.040693	0.273184
C75	C	0.917622	0.075026	0.322553
C76	C	0.865464	0.106683	0.280803
C77	C	0.869863	0.104006	0.189688
C78	C	0.898633	0.086569	0.595463
C79	C	0.894239	0.089245	0.686584
C80	C	1.002949	0.023254	0.678959
C81	C	1.007346	0.020581	0.587843
C82	C	0.955185	0.052237	0.546100
N83	N	0.913122	0.077762	0.415688
N84	N	0.959682	0.049498	0.452967
H85	H	0.170325	0.064707	0.060594
H86	H	0.856163	0.112345	0.561484
H87	H	0.334292	0.057500	-0.236278
O88	O	0.810599	0.140020	0.328887
C89	C	0.755614	0.173374	0.472631
C90	C	0.817797	0.135603	0.418284
H91	H	0.761401	0.169809	0.544919
H92	H	0.766336	0.211552	0.454067
H93	H	0.693023	0.166701	0.459134
H94	H	0.880412	0.142231	0.431752
H95	H	0.807005	0.097438	0.436856
H96	H	1.053396	-0.007375	0.547648
O97	O	0.819167	0.134808	0.149272
C98	C	0.710847	0.200526	0.166447
C99	C	0.768228	0.165680	0.212327
H100	H	0.669637	0.225487	0.217407
H101	H	0.746817	0.223375	0.121415
H102	H	0.673569	0.178484	0.126545
H103	H	0.805519	0.187683	0.252275
H104	H	0.732211	0.142830	0.257308
O105	O	1.033537	0.004624	0.134247
C106	C	1.140925	-0.060529	0.136310
C107	C	1.078710	-0.022739	0.190569
H108	H	1.177475	-0.082656	0.181822
H109	H	1.109071	-0.085884	0.096074
H110	H	1.182326	-0.040998	0.090851
H111	H	1.037290	-0.042230	0.236076
H112	H	1.110616	0.002613	0.230747
O113	O	0.178218	0.055964	-0.237646
C114	C	0.079697	0.094386	-0.321987
C115	C	0.121025	0.097266	-0.238382
H116	H	0.033436	0.127769	-0.322600
H117	H	0.126167	0.093117	-0.381491
H118	H	0.048856	0.060117	-0.323733
H119	H	0.151865	0.131532	-0.236551
H120	H	0.074520	0.098508	-0.178916
H121	H	0.320436	0.065909	0.050046
H122	H	0.799254	-0.778837	-0.056083
O123	O	0.531303	0.070052	0.117712
C124	C	0.400442	0.071102	0.196615
C125	C	0.450186	0.068937	0.106633
H126	H	0.334848	0.070212	0.187689
H127	H	0.422443	0.038541	0.233871
H128	H	0.407209	0.106194	0.234907
H129	H	0.443442	0.033866	0.068269
H130	H	0.428174	0.101522	0.069443
H131	H	1.063309	-0.708969	-0.074593
O132	O	0.709460	0.062282	-0.204867
C133	C	0.708295	0.057597	-0.360785
C134	C	0.658632	0.059759	-0.270757
H135	H	0.667224	0.055546	-0.414081
H136	H	0.739533	0.091627	-0.366979
H137	H	0.754914	0.023978	-0.367942
H138	H	0.611973	0.093356	-0.263539
H139	H	0.627451	0.025705	-0.264604
O140	O	0.546384	0.060881	-0.193271
C141	C	0.466920	0.015549	-0.278967
C142	C	0.508270	0.018483	-0.195386
H143	H	0.436109	-0.018732	-0.280714
H144	H	0.420656	0.048923	-0.279672
H145	H	0.513438	0.014269	-0.338428
H146	H	0.461810	0.019748	-0.135880
H147	H	0.554549	-0.014890	-0.194758
O148	O	1.053578	-0.007568	0.719418
C149	C	1.099705	-0.090910	0.744033
C150	C	1.042343	-0.056056	0.698145
H151	H	1.090630	-0.130119	0.726865
H152	H	1.164057	-0.085331	0.721635
H153	H	1.086856	-0.083075	0.817629
H154	H	1.055119	-0.063869	0.624542
H155	H	0.978009	-0.061641	0.720613
O156	O	1.151892	-0.428039	-0.080753
C157	C	1.295501	-0.434503	-0.090857
C158	C	1.216341	-0.400261	-0.085342
H159	H	1.347629	-0.412058	-0.094587
H160	H	1.295845	-0.456621	-0.030491
H161	H	1.301630	-0.460188	-0.151643
H162	H	1.210160	-0.374547	-0.024593
H163	H	1.216031	-0.378177	-0.145750
H164	H	0.688633	0.070980	0.094377
O165	O	0.839222	0.122607	0.734414
C166	C	0.731874	0.187787	0.732366
C167	C	0.794127	0.150024	0.678094
H168	H	0.695409	0.209971	0.686854
H169	H	0.690395	0.168280	0.777782
H170	H	0.763776	0.213091	0.772648
H171	H	0.762293	0.124710	0.637760
H172	H	0.835602	0.169563	0.632734
O173	O	1.085063	-0.090946	-0.076105
C174	C	1.228492	-0.108076	-0.086112
C175	C	1.148411	-0.129230	-0.080477
H176	H	1.279728	-0.139017	-0.089629
H177	H	1.235496	-0.086558	-0.146987
H178	H	1.229527	-0.082984	-0.025823
H179	H	1.147320	-0.154342	-0.140722
H180	H	1.141438	-0.150719	-0.019564
H181	H	1.072043	-0.185350	-0.075178
H182	H	0.733297	-0.389715	-0.051480
O183	O	0.798133	-0.166862	-0.056081
C184	C	0.716826	-0.219041	-0.125164
C185	C	0.796856	-0.197832	-0.130731
H186	H	0.715761	-0.244077	-0.185519
H187	H	0.709868	-0.240614	-0.064352
H188	H	0.665574	-0.188102	-0.121522
H189	H	0.848156	-0.228740	-0.134407
H190	H	0.803745	-0.176246	-0.191534
O191	O	1.153435	-0.328680	-0.081013
C192	C	1.242033	-0.280898	-0.162001
C193	C	1.161988	-0.302092	-0.156345
H194	H	1.248981	-0.259406	-0.222912
H195	H	1.243137	-0.255790	-0.101748
H196	H	1.293271	-0.311841	-0.165556
H197	H	1.110706	-0.271181	-0.152817
H198	H	1.160953	-0.327213	-0.216598
O199	O	1.073152	-0.805262	-0.075263
C200	C	1.216766	-0.811760	-0.085408
C201	C	1.137622	-0.777500	-0.079866
H202	H	1.268911	-0.789329	-0.089150
H203	H	1.217110	-0.833882	-0.025048
H204	H	1.222866	-0.837440	-0.146198
H205	H	1.131471	-0.751791	-0.019114
H206	H	1.137312	-0.755412	-0.140269
O207	O	0.789402	-0.682553	-0.055361
C208	C	0.645796	-0.676088	-0.045333
C209	C	0.724957	-0.710334	-0.050914
H210	H	0.593673	-0.698535	-0.041755
H211	H	0.639578	-0.650424	0.015492
H212	H	0.645541	-0.653947	-0.105673
H213	H	0.725268	-0.732506	0.009380
H214	H	0.731145	-0.735966	-0.111777
O215	O	1.149308	-0.579335	-0.080485
C216	C	1.269112	-0.602736	-0.014187
C217	C	1.189992	-0.568457	-0.008684
H218	H	1.302035	-0.593947	0.043847
H219	H	1.256046	-0.642084	-0.013222
H220	H	1.307857	-0.597534	-0.077305
H221	H	1.151208	-0.573616	0.054427
H222	H	1.203116	-0.529122	-0.009698
O223	O	0.799764	-0.067390	-0.056228
C224	C	0.720419	-0.005728	-0.125387
C225	C	0.799532	-0.040013	-0.130867
H226	H	0.720212	0.016423	-0.185716
H227	H	0.668229	-0.028125	-0.121791
H228	H	0.714268	0.019923	-0.064555
H229	H	0.805761	-0.065671	-0.191694
H230	H	0.851682	-0.017586	-0.134415
H231	H	0.734828	-0.298261	-0.051583
H232	H	1.139524	-0.483002	-0.079935
H233	H	0.730784	-0.540966	-0.051295
H234	H	0.732311	-0.449515	-0.051398
O235	O	1.024731	0.009897	0.313776
C236	C	1.037485	-0.053121	0.415457
C237	C	0.980137	-0.018276	0.369536
H238	H	1.001453	-0.075901	0.460564
H239	H	1.078649	-0.078149	0.364555
H240	H	1.074815	-0.031081	0.455295
H241	H	0.942755	-0.040276	0.329701
H242	H	0.939026	0.006753	0.420481
