data_functionalizedCrystal
_audit_creation_method	'MofGen! by Chris Wilmer'
_symmetry_space_group_name_H-M	'P1'
_symmetry_Int_Tables_number	1
_symmetry_cell_setting	triclinic
loop_
_symmetry_equiv_pos_as_xyz
  x,y,z
_cell_length_a	6.817900
_cell_length_b	7.190329
_cell_length_c	12.850268
_cell_angle_alpha	86.121086
_cell_angle_beta	91.777450
_cell_angle_gamma	113.843368
loop_
_atom_site_label
_atom_site_type_symbol
_atom_site_fract_x
_atom_site_fract_y
_atom_site_fract_z
V1	V	3.556597	-0.621539	0.124419
O2	O	3.607587	-0.619020	-0.025815
O3	O	3.458888	-0.608332	0.265780
O4	O	3.327067	-0.896700	0.113801
O5	O	3.740321	-0.328656	0.127216
V6	V	4.070085	-0.587596	0.107478
O7	O	3.752126	-0.695997	0.161581
O8	O	4.324753	-0.513139	0.070316
O9	O	3.944587	-0.600803	-0.033883
O10	O	4.136492	-0.590115	0.257712
O11	O	4.003758	-0.880480	0.104681
O12	O	4.076409	-0.312435	0.118095
C13	C	3.297764	-0.596225	0.300514
C14	C	3.297956	-0.587097	0.418193
C15	C	3.129618	-0.964056	0.106644
C16	C	3.020903	-1.193169	0.098751
C17	C	3.769077	-0.612916	-0.068611
C18	C	3.747710	-0.622091	-0.186288
V19	V	3.554248	-0.590695	0.609050
O20	O	3.589934	-0.598062	0.761768
O21	O	3.459235	-0.593093	0.462165
O22	O	3.590406	-0.304662	0.614112
O23	O	3.457855	-0.888490	0.608769
V24	V	4.007590	-0.678981	0.653709
O25	O	3.810523	-0.541640	0.584837
O26	O	4.177269	-0.777286	0.703039
O27	O	3.891417	-0.652167	0.788140
O28	O	4.082980	-0.684457	0.507541
O29	O	4.215058	-0.394030	0.660539
O30	O	3.760246	-0.940598	0.636193
C31	C	3.465290	-0.219174	0.612022
C32	C	3.573427	0.009973	0.619895
