data_functionalizedCrystal
_audit_creation_method	'MofGen! by Chris Wilmer'
_symmetry_space_group_name_H-M	'P1'
_symmetry_Int_Tables_number	1
_symmetry_cell_setting	triclinic
loop_
_symmetry_equiv_pos_as_xyz
  x,y,z
_cell_length_a	27.435584
_cell_length_b	27.434948
_cell_length_c	27.431174
_cell_angle_alpha	60.005483
_cell_angle_beta	60.011353
_cell_angle_gamma	59.993028
loop_
_atom_site_label
_atom_site_type_symbol
_atom_site_fract_x
_atom_site_fract_y
_atom_site_fract_z
O1	O	0.067437	-0.712144	0.595551
O2	O	0.025356	-0.554453	0.479848
O3	O	0.125206	-0.654236	0.479781
O4	O	-0.032412	-0.612361	0.595618
O5	O	0.158328	-0.621117	0.512835
O6	O	0.058479	-0.521333	0.512902
O7	O	0.100560	-0.679025	0.628605
Zn8	Zn	0.084778	-0.594921	0.576001
Zn9	Zn	0.041138	-0.638557	0.532452
O10	O	0.000710	-0.579241	0.628672
N11	N	0.114563	-0.565144	0.605726
N12	N	0.011358	-0.668338	0.502727
C13	C	0.156385	-0.523520	0.904506
C14	C	0.413419	-0.523497	0.647322
C15	C	0.156253	-0.523488	0.647384
C16	C	0.156238	-0.266354	0.647407
C17	C	0.197637	-0.390463	0.688753
C18	C	0.197646	-0.482126	0.688741
C19	C	0.220575	-0.459215	0.711654
C20	C	0.320555	-0.441991	0.659023
C21	C	0.383051	-0.462825	0.638179
C22	C	0.383069	-0.563942	0.676737
C23	C	0.320575	-0.543107	0.697583
C24	C	0.212704	-0.359206	0.627313
C25	C	0.191849	-0.296705	0.606496
C26	C	0.140866	-0.296722	0.708562
C27	C	0.161721	-0.359223	0.729379
C28	C	0.136200	-0.467030	0.703858
C29	C	0.115361	-0.487857	0.683021
C30	C	0.217408	-0.538877	0.631968
C31	C	0.238249	-0.518050	0.652796
C32	C	0.136259	-0.467047	0.811668
C33	C	0.115461	-0.487892	0.874167
C34	C	0.217537	-0.538923	0.874131
C35	C	0.238333	-0.518080	0.811631
C36	C	0.197693	-0.482140	0.780401
C37	C	0.289320	-0.482131	0.688723
C38	C	0.132699	-0.546027	0.973247
C39	C	0.482158	-0.545613	0.624075
C40	C	0.132521	-0.546006	0.624886
C41	C	0.132917	-0.197607	0.625310
C42	C	-0.098217	-0.686189	0.484419
C43	C	-0.006438	-0.686322	0.392891
C44	C	-0.006621	-0.777944	0.484592
C45	C	-0.006606	-0.686315	0.484649
C46	C	-0.029470	-0.709193	0.461638
N47	N	0.538410	-0.565162	0.605628
O48	O	0.742647	-0.575135	0.458625
O49	O	0.742821	-0.691181	0.616169
O50	O	0.742757	-0.690917	0.516248
O51	O	0.742711	-0.575399	0.558546
O52	O	0.643472	-0.657878	0.549405
O53	O	0.643536	-0.658142	0.649326
O54	O	0.643362	-0.542096	0.491782
Zn55	Zn	0.627685	-0.594873	0.575818
Zn56	Zn	0.758498	-0.638404	0.532133
O57	O	0.643426	-0.542360	0.591702
N58	N	0.847774	-0.668115	0.502317
N59	N	0.114542	-0.141354	0.605766
O60	O	-0.032397	0.062987	0.595660
O61	O	0.125155	0.062987	0.479633
O62	O	0.025219	0.062974	0.479910
O63	O	0.067539	0.063001	0.595383
O64	O	0.058343	-0.036320	0.513009
O65	O	0.158279	-0.036306	0.512732
O66	O	0.000728	-0.036306	0.628759
Zn67	Zn	0.084763	-0.052071	0.576000
Zn68	Zn	0.041120	0.078752	0.532392
O69	O	0.100664	-0.036292	0.628482
N70	N	0.011333	0.168036	0.502628
N71	N	0.114782	-0.565197	1.029501
O72	O	0.104681	-0.712124	1.233827
O73	O	-0.011334	-0.554523	1.233839
O74	O	-0.011066	-0.654443	1.233797
O75	O	0.104414	-0.612204	1.233869
O76	O	0.022028	-0.621336	1.134509
O77	O	0.021760	-0.521417	1.134551
O78	O	0.137775	-0.679018	1.134539
Zn79	Zn	0.085022	-0.594961	1.118780
Zn80	Zn	0.041420	-0.638580	1.249597
O81	O	0.137508	-0.579098	1.134580
N82	N	0.011658	-0.668350	1.338876
C83	C	0.037974	-0.518023	0.480435
C84	C	0.161625	-0.641592	0.480351
C85	C	0.087941	-0.715455	0.628017
C86	C	-0.035710	-0.591885	0.628101
C87	C	0.693199	-0.690642	0.652596
C88	C	0.693122	-0.690315	0.528855
C89	C	0.692981	-0.542634	0.455356
C90	C	0.693062	-0.542961	0.579095
C91	C	0.161524	0.013463	0.480164
C92	C	0.037807	0.013324	0.480547
C93	C	-0.035683	0.013341	0.628188
C94	C	0.088076	0.013357	0.627845
C95	C	-0.010764	-0.518114	1.184196
C96	C	-0.010426	-0.641846	1.184125
C97	C	0.137205	-0.715426	1.184182
C98	C	0.136875	-0.591687	1.184231
H99	H	0.103160	-0.437777	0.786243
H100	H	0.028745	0.013321	0.444270
H101	H	0.097136	0.013366	0.664120
O102	O	0.413371	-0.623177	0.685301
C103	C	0.432523	-0.709382	0.666940
C104	C	0.398159	-0.642302	0.657209
H105	H	0.420247	-0.724861	0.644222
H106	H	0.420251	-0.735572	0.716807
H107	H	0.482552	-0.717363	0.646958
H108	H	0.348123	-0.634264	0.677156
H109	H	0.410482	-0.616146	0.607335
O110	O	-0.089742	-0.581304	0.671483
C111	C	-0.177411	-0.610268	0.736762
C112	C	-0.116237	-0.622308	0.687625
H113	H	-0.198844	-0.643420	0.749837
H114	H	-0.207506	-0.562864	0.719402
H115	H	-0.171148	-0.615629	0.777458
H116	H	-0.122443	-0.616979	0.646912
H117	H	-0.086163	-0.669707	0.705033
O118	O	0.693361	-0.734123	0.706548
C119	C	0.744858	-0.797196	0.778429
C120	C	0.744755	-0.747964	0.717312
H121	H	0.786398	-0.808393	0.787157
H122	H	0.744922	-0.838825	0.778515
H123	H	0.703299	-0.780786	0.814885
H124	H	0.786306	-0.764318	0.680822
H125	H	0.744659	-0.706345	0.717277
H126	H	0.288361	-0.530376	0.786177
O127	O	-0.054162	-0.464093	1.184225
C128	C	-0.081902	-0.365732	1.184215
C129	C	-0.032706	-0.426889	1.184197
H130	H	-0.064569	-0.335631	1.184180
H131	H	-0.122620	-0.371961	1.225768
H132	H	-0.094928	-0.344315	1.142664
H133	H	-0.019630	-0.448339	1.225720
H134	H	0.007979	-0.420621	1.142616
O135	O	0.215444	0.013713	0.436671
C136	C	0.321729	-0.037258	0.407473
C137	C	0.260704	-0.037606	0.456781
H138	H	0.358337	-0.078751	0.423709
H139	H	0.330282	0.004362	0.396331
H140	H	0.321736	-0.037144	0.365853
H141	H	0.260652	-0.037741	0.498431
H142	H	0.252175	-0.079222	0.467871
O143	O	0.692996	-0.499146	0.401379
C144	C	0.744348	-0.433843	0.313742
C145	C	0.744400	-0.483080	0.374865
H146	H	0.785910	-0.420848	0.292282
H147	H	0.702803	-0.393112	0.320015
H148	H	0.744309	-0.451149	0.283657
H149	H	0.744460	-0.465830	0.404982
H150	H	0.785941	-0.523801	0.368546
H151	H	-0.080930	0.013340	0.664614
O152	O	0.027320	-0.463960	0.437096
C153	C	0.056170	-0.376215	0.371856
C154	C	0.068292	-0.437423	0.420945
H155	H	0.089296	-0.354748	0.358774
H156	H	0.008762	-0.346165	0.389266
H157	H	0.061503	-0.382441	0.331152
H158	H	0.062992	-0.431254	0.461665
H159	H	0.115695	-0.467452	0.403487
O160	O	0.215673	-0.652328	0.437025
C161	C	0.313967	-0.723086	0.409422
C162	C	0.252791	-0.711004	0.458545
H163	H	0.343990	-0.770529	0.426798
H164	H	0.335488	-0.690017	0.396374
H165	H	0.307695	-0.717666	0.368706
H166	H	0.259011	-0.716432	0.499294
H167	H	0.231290	-0.744070	0.471543
O168	O	0.098747	-0.769536	0.671297
C169	C	0.169591	-0.867812	0.698781
C170	C	0.157428	-0.806597	0.649711
H171	H	0.217037	-0.897789	0.681351
H172	H	0.136547	-0.889363	0.711831
H173	H	0.164201	-0.861585	0.739509
H174	H	0.162826	-0.812772	0.608951
H175	H	0.190470	-0.785067	0.636711
H176	H	0.693140	-0.726605	0.519802
H177	H	0.693053	-0.506675	0.588146
O178	O	-0.053616	-0.652692	1.184022
C179	C	-0.080902	-0.723592	1.183941
C180	C	-0.031933	-0.711385	1.184043
H181	H	-0.063394	-0.771049	1.183971
H182	H	-0.093915	-0.690562	1.142360
H183	H	-0.121672	-0.718213	1.225464
H184	H	0.008869	-0.716772	1.142548
H185	H	-0.018971	-0.744413	1.225652
H186	H	0.173631	-0.760687	1.184171
O187	O	0.180102	-0.580804	1.184221
C188	C	0.207393	-0.509899	1.184290
C189	C	0.158390	-0.522140	1.184287
H190	H	0.189853	-0.462475	1.184355
H191	H	0.248139	-0.515203	1.142730
H192	H	0.220454	-0.542981	1.225834
H193	H	0.145279	-0.489069	1.142771
H194	H	0.117677	-0.516857	1.225874
H195	H	0.250633	-0.568176	0.899553
O196	O	0.055760	-0.473143	0.904441
C197	C	-0.043288	-0.420344	0.897874
C198	C	0.024305	-0.436990	0.863512
H199	H	-0.068739	-0.391122	0.864798
H200	H	-0.055608	-0.394867	0.927120
H201	H	-0.055557	-0.462761	0.927148
H202	H	0.036622	-0.394603	0.834205
H203	H	0.036588	-0.462490	0.834304
H204	H	0.065328	-0.475552	0.695316
O205	O	0.096677	-0.432116	0.738743
C206	C	-0.006742	-0.383736	0.787212
C207	C	0.037953	-0.423267	0.747685
H208	H	-0.054230	-0.376580	0.794464
H209	H	0.000401	-0.338756	0.764328
H210	H	0.000519	-0.406645	0.832146
H211	H	0.030719	-0.400411	0.702745
H212	H	0.030799	-0.468245	0.770617
H213	H	0.288283	-0.530335	0.640482
O214	O	0.256884	-0.573682	0.596967
C215	C	0.337741	-0.581650	0.504983
C216	C	0.293051	-0.542170	0.544561
H217	H	0.367002	-0.556193	0.462610
H218	H	0.312337	-0.593938	0.492627
H219	H	0.366996	-0.624070	0.530438
H220	H	0.263785	-0.499725	0.519143
H221	H	0.318491	-0.529930	0.556920
O222	O	0.413302	-0.423750	0.609315
C223	C	0.406690	-0.321261	0.573297
C224	C	0.372355	-0.365447	0.605982
H225	H	0.373599	-0.274115	0.570603
H226	H	0.435915	-0.323127	0.526288
H227	H	0.435981	-0.333841	0.598841
H228	H	0.343031	-0.352898	0.580488
H229	H	0.343167	-0.363574	0.652994
O230	O	0.290131	-0.382783	0.650522
C231	C	0.219614	-0.307153	0.696575
C232	C	0.254022	-0.374224	0.706287
H233	H	0.190422	-0.300210	0.741652
H234	H	0.190296	-0.289532	0.669136
H235	H	0.252689	-0.282055	0.671740
H236	H	0.220990	-0.399371	0.731138
H237	H	0.283349	-0.391798	0.733701
O238	O	0.247562	-0.389461	0.587771
C239	C	0.295946	-0.382847	0.484336
C240	C	0.256455	-0.348510	0.529054
H241	H	0.303159	-0.349753	0.436854
H242	H	0.273056	-0.412091	0.491500
H243	H	0.340898	-0.412124	0.491555
H244	H	0.211496	-0.319201	0.521863
H245	H	0.279392	-0.319303	0.521880
O246	O	0.290204	-0.582090	0.726527
C247	C	0.219652	-0.623811	0.817323
C248	C	0.254019	-0.579651	0.784618
H249	H	0.190378	-0.621845	0.864291
H250	H	0.252700	-0.670988	0.820120
H251	H	0.190402	-0.611261	0.791748
H252	H	0.283269	-0.592146	0.810166
H253	H	0.220938	-0.532485	0.781815
H254	H	0.111630	-0.271286	0.741644
O255	O	0.206380	-0.266311	0.546816
C256	C	0.170419	-0.195703	0.464093
C257	C	0.153880	-0.230097	0.531684
H258	H	0.127983	-0.166407	0.451839
H259	H	0.199643	-0.228739	0.438600
H260	H	0.195882	-0.166469	0.451807
H261	H	0.128396	-0.259332	0.544025
H262	H	0.124684	-0.197029	0.557139
H263	H	0.149444	-0.384673	0.779411
