data_functionalizedCrystal
_audit_creation_method	'MofGen! by Chris Wilmer'
_symmetry_space_group_name_H-M	'P1'
_symmetry_Int_Tables_number	1
_symmetry_cell_setting	triclinic
loop_
_symmetry_equiv_pos_as_xyz
  x,y,z
_cell_length_a	12.594517
_cell_length_b	12.594510
_cell_length_c	11.169416
_cell_angle_alpha	90.031841
_cell_angle_beta	89.993774
_cell_angle_gamma	89.988729
loop_
_atom_site_label
_atom_site_type_symbol
_atom_site_fract_x
_atom_site_fract_y
_atom_site_fract_z
Zn1	Zn	1.627307	-0.601599	0.477830
Zn2	Zn	1.627216	-0.423628	0.678574
Zn3	Zn	1.449312	-0.423658	0.477889
Zn4	Zn	1.449311	-0.601589	0.678456
O5	O	1.538286	-0.512619	0.578187
O6	O	1.776241	-0.577982	0.504484
O7	O	1.603579	-0.274686	0.652027
O8	O	1.472961	-0.447279	0.309932
O9	O	1.776174	-0.447228	0.651970
O10	O	1.603734	-0.578012	0.309888
O11	O	1.472873	-0.274708	0.504585
O12	O	1.300366	-0.447270	0.504470
O13	O	1.472960	-0.750536	0.651768
O14	O	1.300365	-0.577994	0.651825
O15	O	1.603733	-0.750543	0.504369
O16	O	1.603578	-0.447218	0.846508
O17	O	1.472872	-0.577965	0.846421
C18	C	1.261745	-0.512635	0.578142
C19	C	1.143440	-0.512667	0.578152
C20	C	1.074217	-0.583631	0.658455
C21	C	1.003399	-0.609805	0.549024
C22	C	1.003459	-0.486469	0.687673
C23	C	1.074180	-0.538892	0.468662
C24	C	1.074246	-0.415511	0.607385
C25	C	1.003460	-0.441648	0.497878
C26	C	1.538357	-0.790240	0.578049
C27	C	1.538387	-0.908545	0.577990
C28	C	1.609535	-0.977802	0.497814
C29	C	1.512457	-1.048609	0.468429
C30	C	1.635522	-1.048538	0.607291
C31	C	1.441256	-0.977793	0.548549
C32	C	1.564387	-0.977716	0.687461
C33	C	1.467241	-1.048491	0.658118
C34	C	1.815907	-0.512603	0.578234
C35	C	1.934213	-0.512596	0.578254
C36	C	1.538244	-0.512610	0.890012
C37	C	1.538324	-0.512643	1.023412
C38	C	1.538278	-0.236078	0.578239
C39	C	1.538454	-0.117773	0.577960
C40	C	1.538358	-0.512650	0.265145
C41	C	1.538388	-0.512663	0.131745
H42	H	1.105389	-0.333403	0.632108
H43	H	1.490488	-1.079749	0.375839
O44	O	1.343336	-0.940707	0.518803
C45	C	1.344486	-0.828765	0.519160
H46	H	1.429298	-0.799458	0.505828
H47	H	1.312845	-0.798430	0.608488
C48	C	1.169752	-0.823049	0.433264
C49	C	1.273918	-0.787053	0.416880
H50	H	1.126219	-0.797317	0.370178
H51	H	1.168974	-0.898466	0.433027
H52	H	1.143399	-0.797766	0.507708
H53	H	1.300274	-0.812347	0.342445
H54	H	1.274698	-0.711638	0.417102
H55	H	0.972389	-0.464344	0.780251
H56	H	0.972588	-0.381607	0.429934
H57	H	1.669597	-0.946761	0.429972
H58	H	0.972280	-0.691937	0.524334
H59	H	1.407033	-1.079333	0.725908
H60	H	1.717640	-1.079617	0.632083
O61	O	1.111244	-0.655455	0.739180
C62	C	1.075121	-0.757743	0.707969
H63	H	1.055233	-0.759890	0.608431
H64	H	1.001063	-0.777599	0.762210
C65	C	1.186993	-0.837119	0.857320
C66	C	1.162575	-0.839758	0.735063
H67	H	1.240936	-0.887711	0.874037
H68	H	1.211327	-0.768205	0.878352
H69	H	1.125270	-0.853662	0.902506
H70	H	1.224293	-0.823201	0.689880
H71	H	1.138253	-0.908671	0.714025
O72	O	1.111254	-0.565439	0.358269
C73	C	1.223196	-0.565173	0.359552
H74	H	1.252523	-0.576880	0.455193
H75	H	1.253503	-0.486016	0.323792
C76	C	1.228900	-0.641621	0.162598
C77	C	1.264920	-0.656008	0.280064
H78	H	1.254638	-0.697648	0.113562
H79	H	1.153482	-0.641796	0.161730
H80	H	1.254158	-0.575653	0.132814
H81	H	1.239650	-0.721968	0.309851
H82	H	1.340334	-0.655846	0.280935
O83	O	1.590503	-0.940659	0.797978
C84	C	1.516456	-0.978220	0.882627
H85	H	1.476987	-1.053317	0.847030
H86	H	1.453462	-0.914860	0.899113
C87	C	1.622457	-0.911158	1.044630
C88	C	1.573987	-1.003399	1.000913
H89	H	1.657943	-0.926685	1.117596
H90	H	1.672343	-0.885848	0.987601
H91	H	1.569953	-0.858366	1.058359
H92	H	1.626492	-1.056183	0.987171
H93	H	1.524111	-1.028718	1.057942
