data_functionalizedCrystal
_audit_creation_method	'MofGen! by Chris Wilmer'
_symmetry_space_group_name_H-M	'P1'
_symmetry_Int_Tables_number	1
_symmetry_cell_setting	triclinic
loop_
_symmetry_equiv_pos_as_xyz
  x,y,z
_cell_length_a	12.759401
_cell_length_b	17.640280
_cell_length_c	12.759393
_cell_angle_alpha	78.768122
_cell_angle_beta	89.980596
_cell_angle_gamma	78.800674
loop_
_atom_site_label
_atom_site_type_symbol
_atom_site_fract_x
_atom_site_fract_y
_atom_site_fract_z
Zn1	Zn	1.690817	-0.314626	-0.509540
Zn2	Zn	1.726241	-0.446823	-0.298370
Zn3	Zn	1.515129	-0.314666	-0.333866
Zn4	Zn	1.550621	-0.446761	-0.474025
O5	O	1.620702	-0.380719	-0.403950
O6	O	1.842539	-0.332170	-0.481536
O7	O	1.698209	-0.429335	-0.156046
O8	O	1.508756	-0.204054	-0.386888
O9	O	1.868565	-0.429295	-0.326390
O10	O	1.637833	-0.204024	-0.515955
O11	O	1.543106	-0.332240	-0.182125
O12	O	1.372814	-0.332180	-0.352450
O13	O	1.569246	-0.429190	-0.625769
O14	O	1.398890	-0.429230	-0.455425
O15	O	1.672247	-0.332111	-0.651862
O16	O	1.732623	-0.557421	-0.291953
O17	O	1.603596	-0.557376	-0.421006
C18	C	1.347731	-0.380704	-0.403936
C19	C	1.230957	-0.380716	-0.403950
C20	C	1.052748	-0.330131	-0.350476
C21	C	1.162468	-0.330116	-0.350468
C22	C	1.189720	-0.431329	-0.457452
C23	C	1.080001	-0.431340	-0.457466
C24	C	1.037016	-0.271698	-0.288706
C25	C	1.146736	-0.271683	-0.288698
C26	C	1.675833	-0.586078	-0.348796
C27	C	1.699515	-0.673932	-0.325236
C28	C	1.441227	-0.962891	-0.583315
C29	C	1.463481	-1.045442	-0.561143
C30	C	1.597921	-1.045424	-0.426896
C31	C	1.575681	-0.962871	-0.449060
C32	C	1.497332	-0.921610	-0.527270
C33	C	1.631787	-0.921590	-0.393015
C34	C	1.609545	-0.839044	-0.415174
C35	C	1.531197	-0.797778	-0.493378
C36	C	1.475090	-0.839064	-0.549429
C37	C	1.710130	-0.962852	-0.314801
C38	C	1.766236	-0.921572	-0.258756
C39	C	1.743999	-0.839024	-0.280919
C40	C	1.665652	-0.797758	-0.359123
C41	C	1.800106	-0.797738	-0.224868
C42	C	1.777864	-0.715192	-0.247027
C43	C	1.643410	-0.715212	-0.381282
C44	C	1.894740	-0.380735	-0.403965
C45	C	2.011518	-0.380742	-0.403972
C46	C	1.620754	-0.380639	-0.678005
C47	C	1.620776	-0.380605	-0.794791
C48	C	1.565384	-0.174558	-0.459343
C49	C	1.541811	-0.086704	-0.482948
C50	C	1.674417	-0.330051	-0.863243
C51	C	1.674434	-0.330023	-0.972975
C52	C	1.567169	-0.431109	-0.945792
C53	C	1.567146	-0.431133	-0.836063
C54	C	1.736350	-0.271692	-0.878937
C55	C	1.736367	-0.271663	-0.988669
C56	C	1.620695	-0.380741	-0.130977
C57	C	1.620817	-0.380553	-0.014252
H58	H	1.513082	-0.730564	-0.511410
H59	H	1.661709	-1.079029	-0.363215
H60	H	1.008818	-0.293563	-0.205499
C61	C	1.803460	-0.588643	-0.221389
C62	C	1.839535	-0.669809	-0.185425
H63	H	1.841529	-0.560627	-0.183350
H64	H	1.815143	-0.575081	-0.295626
H65	H	1.729245	-0.575173	-0.209563
H66	H	1.913749	-0.683280	-0.197259
H67	H	1.827861	-0.683376	-0.111171
C68	C	1.848113	-0.368144	-0.745303
C69	C	1.848624	-0.301311	-0.825032
H70	H	1.917429	-0.386433	-0.712030
H71	H	1.798074	-0.354958	-0.693411
H72	H	1.828505	-0.408374	-0.776403
H73	H	1.868224	-0.261079	-0.793931
H74	H	1.898679	-0.314494	-0.876933
H75	H	1.523462	-0.472296	-0.780333
C76	C	1.932548	-1.014340	-0.219368
C77	C	1.852344	-0.966935	-0.172782
H78	H	1.985707	-1.042341	-0.166289
H79	H	1.902311	-1.050732	-0.249571
H80	H	1.964029	-0.982091	-0.273828
H81	H	1.820857	-0.999184	-0.118327
H82	H	1.882584	-0.930538	-0.142562
C83	C	1.381305	-0.712531	-0.643014
C84	C	1.388973	-0.793702	-0.635405
H85	H	1.328146	-0.684528	-0.696094
H86	H	1.362329	-0.699050	-0.576037
H87	H	1.448237	-0.698967	-0.662090
H88	H	1.322043	-0.807267	-0.616321
H89	H	1.407943	-0.807188	-0.702397
C90	C	1.282285	-0.197152	-0.346217
C91	C	1.171629	-0.193211	-0.349274
H92	H	1.297652	-0.148710	-0.383622
H93	H	1.307750	-0.206520	-0.273992
H94	H	1.316494	-0.238892	-0.378982
H95	H	1.137420	-0.151475	-0.316502
H96	H	1.146152	-0.183835	-0.421513
H97	H	1.180860	-0.288007	-0.202904
H98	H	1.863890	-0.831344	-0.161183
H99	H	1.691621	-0.213502	-1.038330
H100	H	1.417800	-1.079050	-0.606801
H101	H	1.377435	-0.929295	-0.647009
H102	H	0.990814	-0.210503	-0.327067
C103	C	1.899094	-0.369003	-0.966170
C104	C	1.852153	-0.293801	-1.022948
H105	H	1.970568	-0.382668	-0.987342
H106	H	1.899089	-0.369020	-0.891724
H107	H	1.859465	-0.406323	-0.980953
H108	H	1.891777	-0.256479	-1.008159
H109	H	1.852164	-0.293778	-1.097411
H110	H	1.046435	-0.472546	-0.501038
H111	H	1.728239	-1.030066	-0.296765
C112	C	1.551898	-0.564936	-0.943593
C113	C	1.508226	-0.486652	-0.991157
H114	H	1.515503	-0.599226	-0.971594
H115	H	1.625586	-0.576499	-0.958482
H116	H	1.544207	-0.572176	-0.868446
H117	H	1.515925	-0.479411	-1.066303
H118	H	1.434520	-0.475085	-0.976277
H119	H	1.245491	-0.472523	-0.501006
C120	C	1.585294	-0.689740	-0.565988
C121	C	1.557300	-0.669847	-0.467264
H122	H	1.532134	-0.661735	-0.619065
H123	H	1.652215	-0.676168	-0.585048
H124	H	1.590499	-0.744809	-0.560806
H125	H	1.552103	-0.614778	-0.472444
H126	H	1.490360	-0.683414	-0.448200
C127	C	1.653460	-0.138924	-0.959775
C128	C	1.684744	-0.189064	-0.860939
H129	H	1.621595	-0.087917	-0.948660
H130	H	1.714317	-0.135590	-1.002028
H131	H	1.603237	-0.159258	-0.995659
H132	H	1.734973	-0.168733	-0.825058
H133	H	1.623879	-0.192396	-0.818670
