data_functionalizedCrystal
_audit_creation_method	'MofGen! by Chris Wilmer'
_symmetry_space_group_name_H-M	'P1'
_symmetry_Int_Tables_number	1
_symmetry_cell_setting	triclinic
loop_
_symmetry_equiv_pos_as_xyz
  x,y,z
_cell_length_a	17.699077
_cell_length_b	15.625429
_cell_length_c	16.776229
_cell_angle_alpha	71.916203
_cell_angle_beta	89.993415
_cell_angle_gamma	83.780415
loop_
_atom_site_label
_atom_site_type_symbol
_atom_site_fract_x
_atom_site_fract_y
_atom_site_fract_z
O1	O	1.004378	0.113982	-0.099220
O2	O	0.784037	0.128821	-0.103512
O3	O	0.900092	-0.009850	-0.063427
O4	O	0.888322	0.252653	-0.139305
O5	O	0.900077	-0.009858	0.069151
O6	O	0.784022	0.128812	0.029067
O7	O	1.004362	0.113974	0.033359
Zn8	Zn	0.894189	0.121392	0.052263
Zn9	Zn	0.894210	0.121403	-0.122416
O10	O	0.888307	0.252644	-0.006726
C11	C	0.755831	0.128286	-0.037070
C12	C	0.671808	0.126693	-0.036611
C13	C	0.632331	0.125938	0.035876
C14	C	0.553384	0.124428	0.036313
C15	C	0.513916	0.123679	-0.035739
C16	C	0.553400	0.124431	-0.108230
C17	C	0.632346	0.125935	-0.108665
C18	C	0.235021	0.118364	-0.106478
C19	C	0.156069	0.116863	-0.106038
C20	C	0.156059	0.116857	0.038500
C21	C	0.235005	0.118361	0.038065
C22	C	0.274482	0.119108	-0.034424
C23	C	0.360085	0.120744	-0.034897
C24	C	0.428314	0.122049	-0.035268
C25	C	0.899551	-0.043441	0.012569
C26	C	0.897953	-0.143518	0.041491
C27	C	0.892715	-0.472639	-0.224701
C28	C	0.891210	-0.566676	-0.197499
C29	C	0.891193	-0.566672	-0.052971
C30	C	0.892702	-0.472633	-0.080160
C31	C	0.893463	-0.425624	-0.166026
C32	C	0.893450	-0.425618	-0.021486
C33	C	0.894955	-0.331587	-0.048674
C34	C	0.895713	-0.284570	-0.134536
C35	C	0.894968	-0.331592	-0.193214
C36	C	0.892684	-0.472628	0.064380
C37	C	0.893431	-0.425613	0.123054
C38	C	0.894942	-0.331581	0.095867
C39	C	0.895700	-0.284565	0.010004
C40	C	0.895687	-0.284559	0.154545
C41	C	0.897192	-0.190528	0.127357
C42	C	0.897205	-0.190533	-0.017183
C43	C	1.032568	0.114509	-0.033085
C44	C	1.116591	0.116101	-0.033549
C45	C	0.888848	0.286235	-0.082723
C46	C	0.890447	0.386313	-0.111651
N47	N	0.894181	0.121383	0.171476
N48	N	0.894224	0.121404	-0.241627
C49	C	0.945586	0.060005	0.230936
C50	C	0.945590	0.060004	0.314388
C51	C	0.894193	0.121387	0.338378
C52	C	0.842782	0.182768	0.278912
C53	C	0.842775	0.182764	0.195463
C54	C	0.842809	0.182786	0.615454
C55	C	0.842822	0.182787	0.698910
C56	C	0.945625	0.060026	0.734380
C57	C	0.945618	0.060022	0.650930
C58	C	0.894205	0.121400	0.591472
C59	C	0.894200	0.121399	0.500984
C60	C	0.894200	0.121393	0.428863
H61	H	0.664459	0.126556	0.094546
H62	H	0.664487	0.126551	-0.167691
H63	H	0.267136	0.118975	0.096736
Cl64	Cl	0.106427	0.115912	0.129633
Cl65	Cl	0.503757	0.123495	0.127439
Cl66	Cl	0.106453	0.115919	-0.196624
H67	H	0.895061	-0.322847	0.224457
Cl68	Cl	0.284639	0.119305	-0.197608
H69	H	0.521259	0.123815	-0.166894
Cl70	Cl	0.890231	-0.625777	0.054971
H71	H	0.897831	-0.152257	-0.087104
H72	H	0.896930	-0.208003	-0.156671
Cl73	Cl	1.010208	-0.017162	0.200786
H74	H	0.800965	0.232774	0.718439
Cl75	Cl	0.895935	-0.272490	-0.301162
Cl76	Cl	1.010214	-0.017159	0.389139
H77	H	0.893341	-0.434362	-0.294621
Cl78	Cl	1.010236	-0.017144	0.620774
H79	H	0.890594	-0.604952	-0.245286
Cl80	Cl	0.890790	-0.590840	0.098558
H81	H	0.892810	-0.463900	0.192966
Cl82	Cl	0.898137	-0.131419	0.201120
H83	H	0.987486	0.010047	0.782801
Cl84	Cl	0.778181	0.259947	0.540713
Cl85	Cl	0.778163	0.259932	0.309070
Cl86	Cl	0.778145	0.259925	0.120714
