data_functionalizedCrystal
_audit_creation_method	'MofGen! by Chris Wilmer'
_symmetry_space_group_name_H-M	'P1'
_symmetry_Int_Tables_number	1
_symmetry_cell_setting	triclinic
loop_
_symmetry_equiv_pos_as_xyz
  x,y,z
_cell_length_a	10.540510
_cell_length_b	10.540535
_cell_length_c	9.016244
_cell_angle_alpha	89.996444
_cell_angle_beta	89.992396
_cell_angle_gamma	84.518476
loop_
_atom_site_label
_atom_site_type_symbol
_atom_site_fract_x
_atom_site_fract_y
_atom_site_fract_z
O1	O	1.685912	0.178716	-0.123355
O2	O	1.316494	0.195611	-0.123356
O3	O	1.509634	0.002455	-0.123340
O4	O	1.492772	0.371871	-0.123370
O5	O	1.509606	0.002460	0.123340
O6	O	1.316466	0.195615	0.123325
O7	O	1.685884	0.178720	0.123326
Cu8	Cu	1.501172	0.187168	0.145849
Cu9	Cu	1.501206	0.187163	-0.145879
O10	O	1.492744	0.371875	0.123310
C11	C	1.269176	0.194354	-0.000016
C12	C	1.128226	0.190587	-0.000016
C13	C	0.910769	0.324772	-0.000593
C14	C	1.057364	0.328790	-0.000029
C15	C	1.083451	0.119843	0.140853
C16	C	0.936690	0.116804	0.140963
C17	C	0.936917	0.113921	-0.139559
C18	C	1.083258	0.120476	-0.141413
C19	C	1.508357	-0.044845	0.000001
C20	C	1.504577	-0.185793	0.000003
C21	C	1.363561	-0.222449	-0.000009
C22	C	1.359584	-0.369049	-0.000595
C23	C	1.568965	-0.395127	-0.140623
C24	C	1.571965	-0.248362	-0.140715
C25	C	1.573984	-0.248496	0.139817
C26	C	1.567462	-0.394842	0.141638
C27	C	1.733201	0.179977	-0.000018
C28	C	1.874151	0.183744	-0.000027
C29	C	1.494021	0.419176	-0.000034
C30	C	1.497801	0.560124	-0.000046
N31	N	1.501158	0.187171	0.351035
N32	N	1.501230	0.187150	-0.351065
C33	C	1.397523	0.290150	0.586060
C34	C	1.397753	0.290535	0.414169
C35	C	1.633882	0.217290	0.413371
C36	C	1.633316	0.218020	0.585316
C37	C	1.473386	0.053735	0.585590
C38	C	1.470340	0.054600	0.413636
H39	H	1.132328	0.019578	-0.149911
H40	H	1.415651	0.389518	0.373014
H41	H	1.657669	0.315355	0.625397
N42	N	1.146234	-0.014919	0.147833
H43	H	1.078706	-0.076745	0.146448
H44	H	1.204448	-0.031332	0.059523
N45	N	1.341009	0.024309	0.359718
H46	H	1.283505	0.013834	0.447602
H47	H	1.302599	0.096176	0.294965
N48	N	1.094987	0.402551	0.133937
H49	H	1.016297	0.432571	0.192861
H50	H	1.154975	0.345742	0.198029
N51	N	1.266478	0.266532	0.640891
H52	H	1.245605	0.179493	0.607366
H53	H	1.264760	0.270668	0.752793
H54	H	1.658779	0.313525	0.370286
N55	N	1.420954	0.420536	0.643185
H56	H	1.498449	0.413173	0.709624
H57	H	1.435778	0.478208	0.556703
N58	N	1.498896	-0.432796	0.279394
H59	H	1.408324	-0.391710	0.278161
H60	H	1.498390	-0.528536	0.282051
H61	H	0.896461	0.165154	0.246256
H62	H	1.111887	0.171949	-0.245627
H63	H	1.310328	-0.178980	-0.100672
H64	H	0.867249	0.378305	0.099851
H65	H	1.712960	0.146021	0.626905
N66	N	1.563771	-0.051809	0.356743
H67	H	1.559454	-0.054767	0.244907
H68	H	1.652823	-0.036159	0.388519
N69	N	0.907587	-0.023525	-0.140817
H70	H	0.853913	-0.040538	-0.051493
H71	H	0.859428	-0.040902	-0.234331
H72	H	1.520163	-0.426016	-0.245651
H73	H	1.712939	0.144318	0.372473
H74	H	1.549000	-0.022928	0.626248
N75	N	1.285875	-0.407925	0.132863
H76	H	1.255678	-0.329764	0.192604
H77	H	1.209904	-0.451779	0.098802
N78	N	1.124280	0.184951	0.279701
H79	H	1.046580	0.215410	0.340103
H80	H	1.181866	0.122770	0.340244
N81	N	0.906201	-0.020103	0.149463
H82	H	0.944178	-0.068653	0.060932
H83	H	0.943282	-0.060144	0.243613
H84	H	1.378648	0.025066	0.629040
H85	H	1.086721	0.384134	-0.101013
N86	N	1.286267	-0.406772	-0.134862
H87	H	1.210042	-0.450726	-0.101798
H88	H	1.256484	-0.328074	-0.193877
N89	N	1.291819	-0.166860	0.133521
H90	H	1.290381	-0.070927	0.131580
H91	H	1.201604	-0.191600	0.131300
N92	N	0.880717	0.171767	-0.281000
H93	H	0.813991	0.243827	-0.256054
H94	H	0.950394	0.205579	-0.342126
N95	N	1.267114	0.266576	0.358336
H96	H	1.267011	0.266793	0.246317
H97	H	1.244734	0.181120	0.395533
N98	N	0.855215	0.396103	-0.134408
H99	H	0.805766	0.337699	-0.195964
H100	H	0.796381	0.471860	-0.100685
H101	H	1.523929	-0.208179	-0.246203
H102	H	1.675342	-0.225342	-0.146701
H103	H	1.529969	-0.206039	0.246413
N104	N	1.703767	-0.457865	-0.147033
H105	H	1.702185	-0.553443	-0.151540
H106	H	1.747629	-0.427620	-0.238265
H107	H	1.677733	-0.226312	0.141188
N108	N	1.701085	-0.459815	0.153470
H109	H	1.718439	-0.519625	0.066760
H110	H	1.764183	-0.393488	0.152530
