data_functionalizedCrystal
_audit_creation_method	'MofGen! by Chris Wilmer'
_symmetry_space_group_name_H-M	'P1'
_symmetry_Int_Tables_number	1
_symmetry_cell_setting	triclinic
loop_
_symmetry_equiv_pos_as_xyz
  x,y,z
_cell_length_a	12.376457
_cell_length_b	16.109301
_cell_length_c	16.109301
_cell_angle_alpha	83.461481
_cell_angle_beta	101.271640
_cell_angle_gamma	78.712882
loop_
_atom_site_label
_atom_site_type_symbol
_atom_site_fract_x
_atom_site_fract_y
_atom_site_fract_z
O1	O	0.093935	-1.119069	-0.090939
O2	O	0.593935	-0.619069	0.409061
O3	O	0.093954	-0.877010	-0.104235
O4	O	0.593954	-0.377010	0.395765
O5	O	0.093933	-1.004687	0.023442
O6	O	0.593933	-0.504687	0.523442
O7	O	0.093957	-0.991392	-0.218616
O8	O	0.593957	-0.491392	0.281384
O9	O	-0.094074	-0.972779	-0.008434
O10	O	0.405926	-0.472779	0.491566
O11	O	-0.094053	-0.845102	-0.136111
O12	O	0.405947	-0.345102	0.363889
O13	O	-0.094071	-1.087161	-0.122815
O14	O	0.405929	-0.587161	0.377185
Zn15	Zn	-0.123912	-0.961065	-0.134524
Zn16	Zn	0.376088	-0.461065	0.365476
Zn17	Zn	0.123795	-1.003105	-0.092526
Zn18	Zn	0.623795	-0.503105	0.407474
O19	O	-0.094050	-0.959484	-0.250492
O20	O	0.405950	-0.459484	0.249508
C21	C	-0.000047	-0.830081	-0.119634
C22	C	0.499953	-0.330081	0.380366
C23	C	-0.000041	-0.737787	-0.118018
C24	C	0.499959	-0.237787	0.381982
N25	N	-0.292966	-0.932380	-0.163185
N26	N	0.207034	-0.432380	0.336815
C27	C	-0.000068	-1.134090	-0.107415
C28	C	0.499932	-0.634090	0.392585
C29	C	-0.000067	-1.226385	-0.109030
C30	C	0.499933	-0.726385	0.390970
C31	C	-0.647978	-1.098385	0.002692
C32	C	-0.147978	-0.598385	0.502692
C33	C	-0.529642	-1.118457	0.022753
C34	C	-0.029642	-0.618457	0.522753
C35	C	-0.470467	-1.071939	-0.023730
C36	C	0.029533	-0.571939	0.476270
C37	C	-0.529640	-1.005346	-0.090277
C38	C	-0.029640	-0.505346	0.409723
C39	C	-0.647988	-0.985277	-0.110344
C40	C	-0.147988	-0.485277	0.389656
C41	C	-0.470477	-0.958831	-0.136766
C42	C	0.029523	-0.458831	0.363234
C43	C	-0.529650	-0.892238	-0.203313
C44	C	-0.029650	-0.392238	0.296687
C45	C	-0.647987	-0.872172	-0.223376
C46	C	-0.147987	-0.372172	0.276624
C47	C	-0.707162	-0.918689	-0.176894
C48	C	-0.207162	-0.418689	0.323106
C49	C	-0.352129	-0.978901	-0.116699
C50	C	0.147871	-0.478901	0.383301
C51	C	-0.352139	-0.865793	-0.229735
C52	C	0.147861	-0.365793	0.270265
C53	C	-0.470476	-0.845721	-0.249796
C54	C	0.029524	-0.345721	0.250204
N55	N	0.292848	-1.031797	-0.063858
N56	N	0.792848	-0.531797	0.436142
C57	C	-0.000071	-0.988194	0.038479
C58	C	0.499929	-0.488194	0.538479
C59	C	-0.000073	-0.986579	0.130774
C60	C	0.499927	-0.486579	0.630774
C61	C	-0.000047	-0.515514	-0.190026
C62	C	0.499953	-0.015514	0.309974
C63	C	-0.000054	-0.428792	-0.188503
C64	C	0.499946	0.071208	0.311497
C65	C	-0.000064	-0.448665	-0.037016
C66	C	0.499936	0.051335	0.462984
C67	C	-0.000065	-0.535383	-0.038541
C68	C	0.499935	-0.035383	0.461459
C69	C	-0.000050	-0.568806	-0.115048
C70	C	0.499950	-0.068806	0.384952
C71	C	-0.000057	-0.395366	-0.112000
C72	C	0.499943	0.104634	0.388000
C73	C	-0.000065	-0.301339	-0.110348
C74	C	0.499935	0.198661	0.389652
C75	C	-0.000045	-0.662839	-0.116700
C76	C	0.499955	-0.162839	0.383300
C77	C	-0.000044	-0.975977	-0.265528
C78	C	0.499956	-0.475977	0.234472
C79	C	-0.000035	-0.977594	-0.357822
C80	C	0.499965	-0.477594	0.142178
C81	C	-0.000060	-1.058589	0.353049
C82	C	0.499940	-0.558589	0.853049
C83	C	-0.000051	-1.057066	0.439771
C84	C	0.499949	-0.557066	0.939771
C85	C	-0.000044	-0.905579	0.419897
C86	C	0.499956	-0.405579	0.919897
C87	C	-0.000045	-0.907103	0.333178
C88	C	0.499955	-0.407103	0.833178
C89	C	-0.000059	-0.983610	0.299756
C90	C	0.499941	-0.483610	0.799756
C91	C	-0.000048	-0.980563	0.473197
C92	C	0.499952	-0.480563	0.973197
C93	C	-0.000038	-0.978911	0.567224
C94	C	0.499962	-0.478911	1.067224
C95	C	-0.000067	-0.985262	0.205722
C96	C	0.499933	-0.485262	0.705722
H97	H	-0.303961	-1.033121	-0.062517
H98	H	0.196039	-0.533121	0.437483
C99	C	-0.000050	-0.821422	0.456667
C100	C	0.499950	-0.321422	0.956667
N101	N	-0.000064	-0.758032	0.484360
N102	N	0.499936	-0.258032	0.984360
H103	H	-0.000041	-0.846043	0.289785
H104	H	0.499959	-0.346043	0.789785
H105	H	-0.374112	-1.088285	-0.007393
H106	H	0.125888	-0.588285	0.492607
H107	H	-0.481467	-1.172676	0.076934
H108	H	0.018533	-0.672676	0.576934
H109	H	-0.696166	-1.136258	0.040528
H110	H	-0.196166	-0.636258	0.540528
C111	C	-0.000063	-1.142750	0.316289
C112	C	0.499937	-0.642750	0.816289
N113	N	-0.000060	-1.206144	0.288605
N114	N	0.499940	-0.706144	0.788605
H115	H	-0.000053	-0.385404	-0.249559
H116	H	0.499947	0.114596	0.250441
C117	C	-0.837340	-0.896596	-0.198941
C118	C	-0.337340	-0.396596	0.301059
N119	N	-0.935392	-0.879952	-0.215540
N120	N	-0.435392	-0.379952	0.284460
H121	H	-0.696166	-0.817954	-0.277569
H122	H	-0.196166	-0.317954	0.222431
C123	C	-0.000070	-0.411893	0.047138
C124	C	0.499930	0.088107	0.547138
N125	N	-0.000070	-0.384198	0.110526
N126	N	0.499930	0.115802	0.610526
C127	C	-0.535581	-0.772468	-0.322995
C128	C	-0.035581	-0.272468	0.177005
N129	N	-0.584621	-0.717293	-0.378128
N130	N	-0.084621	-0.217293	0.121872
C131	C	-0.287052	-0.814618	-0.280868
C132	C	0.212948	-0.314618	0.219132
N133	N	-0.238021	-0.776078	-0.319379
N134	N	0.261979	-0.276078	0.180621
H135	H	-0.000049	-1.118122	0.483159
H136	H	0.499951	-0.618122	0.983159
H137	H	-0.000043	-0.542722	-0.252324
H138	H	0.499957	-0.042722	0.247676
C139	C	-0.000070	-0.594009	0.043945
C140	C	0.499930	-0.094009	0.543945
N141	N	-0.000076	-0.638165	0.106071
N142	N	0.499924	-0.138165	0.606071
