data_functionalizedCrystal
_audit_creation_method	'MofGen! by Chris Wilmer'
_symmetry_space_group_name_H-M	'P1'
_symmetry_Int_Tables_number	1
_symmetry_cell_setting	triclinic
loop_
_symmetry_equiv_pos_as_xyz
  x,y,z
_cell_length_a	25.639243
_cell_length_b	29.839132
_cell_length_c	25.639234
_cell_angle_alpha	90.027958
_cell_angle_beta	89.976852
_cell_angle_gamma	89.952013
loop_
_atom_site_label
_atom_site_type_symbol
_atom_site_fract_x
_atom_site_fract_y
_atom_site_fract_z
Zn1	Zn	0.799238	0.178848	-0.295645
Zn2	Zn	1.299238	0.678848	0.204355
Zn3	Zn	0.799141	0.253971	-0.208204
Zn4	Zn	1.299141	0.753971	0.291796
Zn5	Zn	0.711804	0.178859	-0.208218
Zn6	Zn	1.211804	0.678859	0.291782
Zn7	Zn	0.711750	0.253955	-0.295604
Zn8	Zn	1.211750	0.753955	0.204396
O9	O	0.755483	0.216408	-0.251918
O10	O	1.255483	0.716408	0.248082
O11	O	0.872391	0.188815	-0.284057
O12	O	1.372391	0.688815	0.215943
O13	O	0.787537	0.244018	-0.135041
O14	O	1.287537	0.744018	0.364959
O15	O	0.723465	0.115990	-0.219838
O16	O	1.223465	0.615990	0.280162
O17	O	0.872319	0.244007	-0.219815
O18	O	1.372319	0.744007	0.280185
O19	O	0.787703	0.115982	-0.284070
O20	O	1.287703	0.615982	0.215930
O21	O	0.723371	0.188834	-0.135051
O22	O	1.223371	0.688834	0.364949
O23	O	0.638631	0.188819	-0.219799
O24	O	1.138631	0.688819	0.280201
O25	O	0.723373	0.243981	-0.368774
O26	O	1.223373	0.743981	0.131226
O27	O	0.638592	0.243992	-0.284000
O28	O	1.138592	0.743992	0.216000
O29	O	0.787651	0.188800	-0.368804
O30	O	1.287651	0.688800	0.131196
O31	O	0.787485	0.316836	-0.219775
O32	O	1.287485	0.816836	0.280225
O33	O	0.723279	0.316824	-0.283987
O34	O	1.223279	0.816824	0.216013
C35	C	0.619641	0.216405	-0.251897
C36	C	1.119641	0.716405	0.248103
C37	C	0.561526	0.216415	-0.251900
C38	C	1.061526	0.716415	0.248100
C39	C	0.201195	0.187715	-0.285424
C40	C	0.701195	0.687715	0.214576
C41	C	0.146591	0.187714	-0.285428
C42	C	0.646591	0.687714	0.214572
O43	O	0.118381	0.163304	-0.313905
O44	O	0.618381	0.663304	0.186095
N45	N	0.119244	0.216407	-0.251932
N46	N	0.619244	0.716407	0.248068
C47	C	0.146504	0.245098	-0.218427
C48	C	0.646504	0.745098	0.281573
O49	O	0.118230	0.269503	-0.189937
O50	O	0.618230	0.769503	0.310063
C51	C	0.201108	0.245096	-0.218422
C52	C	0.701108	0.745096	0.281578
C53	C	0.228452	0.216405	-0.251923
C54	C	0.728452	0.716405	0.248077
C55	C	0.228539	0.159026	-0.318923
C56	C	0.728539	0.659026	0.181077
C57	C	0.283140	0.159027	-0.318920
C58	C	0.783140	0.659027	0.181080
C59	C	0.310396	0.187717	-0.285419
C60	C	0.810396	0.687717	0.214581
C61	C	0.283052	0.216406	-0.251921
C62	C	0.783052	0.716406	0.248079
C63	C	0.228367	0.273785	-0.184915
C64	C	0.728367	0.773785	0.315085
C65	C	0.282974	0.273780	-0.184912
C66	C	0.782974	0.773780	0.315088
C67	C	0.310318	0.245089	-0.218414
C68	C	0.810318	0.745089	0.281586
C69	C	0.364909	0.245098	-0.218417
C70	C	0.864909	0.745098	0.281583
N71	N	0.392256	0.216405	-0.251912
N72	N	0.892256	0.716405	0.248088
C73	C	0.365000	0.187715	-0.285413
C74	C	0.865000	0.687715	0.214587
C75	C	0.031834	0.245100	-0.218441
C76	C	0.531834	0.745100	0.281559
C77	C	-0.022769	0.245105	-0.218449
C78	C	0.477231	0.745105	0.281551
C79	C	-0.022678	0.187720	-0.285448
C80	C	0.477322	0.687720	0.214552
C81	C	0.031925	0.187718	-0.285443
C82	C	0.531925	0.687718	0.214557
C83	C	0.059181	0.216408	-0.251936
C84	C	0.559181	0.716408	0.248064
C85	C	0.479665	0.187719	-0.285406
C86	C	0.979665	0.687719	0.214594
C87	C	0.534270	0.187724	-0.285401
C88	C	1.034270	0.687724	0.214599
C89	C	0.534175	0.245107	-0.218400
C90	C	1.034175	0.745107	0.281600
C91	C	0.479574	0.245104	-0.218406
C92	C	0.979574	0.745104	0.281594
C93	C	0.452321	0.216407	-0.251910
C94	C	0.952321	0.716407	0.248090
O95	O	0.393154	0.269494	-0.189953
O96	O	0.893154	0.769494	0.310047
O97	O	0.393281	0.163310	-0.313894
O98	O	0.893281	0.663310	0.186106
C99	C	0.755380	0.333131	-0.251887
C100	C	1.255380	0.833131	0.248113
C101	C	0.755383	0.383065	-0.251891
C102	C	1.255383	0.883065	0.248109
C103	C	0.788939	0.692702	-0.218510
C104	C	1.288939	1.192702	0.281490
C105	C	0.788989	0.880375	-0.218522
C106	C	1.288989	1.380375	0.281478
O107	O	0.817462	0.904634	-0.190131
O108	O	1.317462	1.404634	0.309869
N109	N	0.755538	0.903850	-0.251926
N110	N	1.255538	1.403850	0.248074
C111	C	0.722075	0.880405	-0.285332
C112	C	1.222075	1.380405	0.214668
O113	O	0.693628	0.904678	-0.313749
O114	O	1.193628	1.404678	0.186251
C115	C	0.722028	0.692732	-0.285323
C116	C	1.222028	1.192732	0.214677
C117	C	0.755477	0.669259	-0.251913
C118	C	1.255477	1.169259	0.248087
C119	C	0.822386	0.669229	-0.185103
C120	C	1.322386	1.169229	0.314897
C121	C	0.822371	0.622313	-0.185098
C122	C	1.322371	1.122313	0.314902
C123	C	0.788909	0.598871	-0.218501
C124	C	1.288909	1.098871	0.281499
C125	C	0.755462	0.622344	-0.251908
C126	C	1.255462	1.122344	0.248092
C127	C	0.688568	0.669288	-0.318731
C128	C	1.188568	1.169288	0.181269
C129	C	0.688560	0.622367	-0.318727
C130	C	1.188560	1.122367	0.181273
C131	C	0.722009	0.598894	-0.285317
C132	C	1.222009	1.098894	0.214683
C133	C	0.721986	0.551986	-0.285306
C134	C	1.221986	1.051986	0.214694
N135	N	0.755436	0.528511	-0.251901
N136	N	1.255436	1.028511	0.248099
C137	C	0.788898	0.551953	-0.218499
C138	C	1.288898	1.051953	0.281501
C139	C	0.722101	0.978935	-0.285334
C140	C	1.222101	1.478935	0.214666
C141	C	0.722112	1.025853	-0.285336
C142	C	1.222112	1.525853	0.214664
C143	C	0.789027	1.025820	-0.218526
C144	C	1.289027	1.525820	0.281474
C145	C	0.789013	0.978901	-0.218522
C146	C	1.289013	1.478901	0.281478
C147	C	0.755552	0.955460	-0.251930
C148	C	1.255552	1.455460	0.248070
C149	C	0.788864	0.453427	-0.218491
C150	C	1.288864	0.953427	0.281509
C151	C	0.788845	0.406508	-0.218488
C152	C	1.288845	0.906508	0.281512
C153	C	0.721932	0.406545	-0.285300
C154	C	1.221932	0.906545	0.214700
C155	C	0.721949	0.453460	-0.285301
C156	C	1.221949	0.953460	0.214699
C157	C	0.755420	0.476900	-0.251895
C158	C	1.255420	0.976900	0.248105
O159	O	0.693531	0.527698	-0.313686
O160	O	1.193531	1.027698	0.186314
O161	O	0.817349	0.527671	-0.190095
O162	O	1.317349	1.027671	0.309905
C163	C	0.788953	0.739617	-0.218515
C164	C	1.288953	1.239617	0.281485
C165	C	0.755507	0.763090	-0.251922
C166	C	1.255507	1.263090	0.248078
C167	C	0.722045	0.739648	-0.285324
C168	C	1.222045	1.239648	0.214676
C169	C	0.755518	0.810008	-0.251924
C170	C	1.255518	1.310008	0.248076
C171	C	0.788979	0.833451	-0.218521
C172	C	1.288979	1.333451	0.281479
C173	C	0.822430	0.809975	-0.185117
C174	C	1.322430	1.309975	0.314883
C175	C	0.822415	0.763060	-0.185112
C176	C	1.322415	1.263060	0.314888
C177	C	0.688594	0.763123	-0.318729
C178	C	1.188594	1.263123	0.181271
C179	C	0.688611	0.810039	-0.318730
C180	C	1.188611	1.310039	0.181270
C181	C	0.722073	0.833481	-0.285328
C182	C	1.222073	1.333481	0.214672
C183	C	0.891856	0.216412	-0.251939
C184	C	1.391856	0.716412	0.248061
C185	C	0.949970	0.216413	-0.251948
C186	C	1.449970	0.716413	0.248052
C187	C	0.755582	1.099230	-0.251949
C188	C	1.255582	1.599230	0.248051
C189	C	0.755574	1.049295	-0.251934
C190	C	1.255574	1.549295	0.248066
C191	C	0.755517	0.216388	-0.388291
C192	C	1.255517	0.716388	0.111709
C193	C	0.755532	0.216379	-0.446405
C194	C	1.255532	0.716379	0.053595
C195	C	0.722135	0.187591	-0.806779
C196	C	1.222135	0.687591	-0.306779
C197	C	0.722138	0.187583	-0.861383
C198	C	1.222138	0.687583	-0.361383
O199	O	0.693716	0.163156	-0.889629
O200	O	1.193716	0.663156	-0.389629
N201	N	0.755549	0.216309	-0.888688
N202	N	1.255549	0.716309	-0.388688
C203	C	0.788956	0.245047	-0.861385
C204	C	1.288956	0.745047	-0.361385
O205	O	0.817375	0.269480	-0.889623
O206	O	1.317375	0.769480	-0.389623
C207	C	0.788950	0.245057	-0.806781
C208	C	1.288950	0.745057	-0.306781
C209	C	0.755540	0.216327	-0.779480
C210	C	1.255540	0.716327	-0.279480
C211	C	0.688728	0.158863	-0.779477
C212	C	1.188728	0.658863	-0.279477
C213	C	0.688726	0.158871	-0.724877
C214	C	1.188726	0.658871	-0.224877
C215	C	0.722131	0.187606	-0.697578
C216	C	1.222131	0.687606	-0.197578
C217	C	0.755538	0.216334	-0.724879
C218	C	1.255538	0.716334	-0.224879
C219	C	0.822354	0.273798	-0.779479
C220	C	1.322354	0.773798	-0.279479
C221	C	0.822345	0.273806	-0.724872
C222	C	1.322345	0.773806	-0.224872
C223	C	0.788935	0.245075	-0.697571
C224	C	1.288935	0.745075	-0.197571
C225	C	0.788942	0.245078	-0.642980
C226	C	1.288942	0.745078	-0.142980
N227	N	0.755530	0.216352	-0.615675
N228	N	1.255530	0.716352	-0.115675
C229	C	0.722125	0.187616	-0.642974
C230	C	1.222125	0.687616	-0.142974
C231	C	0.788965	0.245025	-0.976055
C232	C	1.288965	0.745025	-0.476055
C233	C	0.788974	0.245013	-1.030658
C234	C	1.288974	0.745013	-0.530658
C235	C	0.722155	0.187549	-1.030652
C236	C	1.222155	0.687549	-0.530652
C237	C	0.722149	0.187559	-0.976049
C238	C	1.222149	0.687559	-0.476049
C239	C	0.755554	0.216299	-0.948751
C240	C	1.255554	0.716299	-0.448751
C241	C	0.722124	0.187634	-0.528309
C242	C	1.222124	0.687634	-0.028309
C243	C	0.722126	0.187643	-0.473704
C244	C	1.222126	0.687643	0.026296
C245	C	0.788943	0.245109	-0.473714
C246	C	1.288943	0.745109	0.026286
C247	C	0.788943	0.245098	-0.528314
C248	C	1.288943	0.745098	-0.028314
C249	C	0.755529	0.216360	-0.555611
C250	C	1.255529	0.716360	-0.055611
O251	O	0.817347	0.269494	-0.614699
O252	O	1.317347	0.769494	-0.114699
O253	O	0.693706	0.163192	-0.614729
O254	O	1.193706	0.663192	-0.114729
C255	C	0.755479	0.216396	-0.116075
C256	C	1.255479	0.716396	0.383925
C257	C	0.755566	0.216278	-0.057961
C258	C	1.255566	0.716278	0.442039
H259	H	-0.045028	0.268474	-0.191174
H260	H	0.454972	0.768474	0.308826
H261	H	-0.044881	0.164358	-0.312725
H262	H	0.455119	0.664358	0.187275
H263	H	0.849609	0.603204	-0.157894
H264	H	1.349609	1.103204	0.342106
H265	H	0.661312	0.603283	-0.345933
H266	H	1.161312	1.103283	0.154067
Br267	Br	0.834295	0.284081	-0.565368
Br268	Br	1.334295	0.784081	-0.065368
Br269	Br	0.834280	0.284102	-0.436655
Br270	Br	1.334280	0.784102	0.063345
H271	H	0.457310	0.268472	-0.191133
H272	H	0.957310	0.768472	0.308867
Br273	Br	0.676806	0.148566	-0.939003
Br274	Br	1.176806	0.648566	-0.439003
Br275	Br	0.867814	0.731211	-0.139768
Br276	Br	1.367814	1.231211	0.360232
Br277	Br	0.834308	0.284030	-0.939013
Br278	Br	1.334308	0.784030	-0.439013
H279	H	0.694869	1.044961	-0.312537
H280	H	1.194869	1.544961	0.187463
H281	H	0.054022	0.268467	-0.191157
H282	H	0.554022	0.768467	0.308843
H283	H	0.694954	0.164151	-1.052889
H284	H	1.194954	0.664151	-0.552889
Br285	Br	0.643379	0.119879	-0.687833
Br286	Br	1.143379	0.619879	-0.187833
Br287	Br	0.442686	0.148772	-0.330876
Br288	Br	0.942686	0.648772	0.169124
H289	H	0.849637	0.688311	-0.157902
H290	H	1.349637	1.188311	0.342098
H291	H	0.694915	0.164232	-0.550527
H292	H	1.194915	0.664232	-0.050527
Br293	Br	0.676541	0.485318	-0.330631
Br294	Br	1.176541	0.985318	0.169369
Br295	Br	0.643210	0.841889	-0.364076
Br296	Br	1.143210	1.341889	0.135924
H297	H	0.556531	0.164360	-0.312684
H298	H	1.056531	0.664360	0.187316
H299	H	0.206113	0.297148	-0.157634
H300	H	0.706113	0.797148	0.342366
H301	H	0.694686	0.387451	-0.312494
H302	H	1.194686	0.887451	0.187506
Br303	Br	0.571176	0.284043	-0.172938
Br304	Br	1.071176	0.784043	0.327062
H305	H	0.661346	0.744040	-0.345930
H306	H	1.161346	1.244040	0.154070
H307	H	0.305398	0.135663	-0.346199
H308	H	0.805398	0.635663	0.153801
Br309	Br	0.319961	0.312719	-0.139437
Br310	Br	0.819961	0.812719	0.360563
H311	H	0.816083	0.387397	-0.191280
H312	H	1.316083	0.887397	0.308720
Br313	Br	0.867840	0.841799	-0.139783
Br314	Br	1.367840	1.341799	0.360217
Br315	Br	0.834325	0.283999	-1.067703
Br316	Br	1.334325	0.783999	-0.567703
H317	H	0.816120	0.472507	-0.191290
H318	H	1.316120	0.972507	0.308710
Br319	Br	0.676784	0.148647	-0.436655
Br320	Br	1.176784	0.648647	0.063345
H321	H	0.849559	0.297194	-0.801699
H322	H	1.349559	0.797194	-0.301699
H323	H	0.206353	0.135660	-0.346203
H324	H	0.706353	0.635660	0.153797
Br325	Br	0.069029	0.148779	-0.330910
Br326	Br	0.569029	0.648779	0.169090
Br327	Br	0.834409	0.947050	-0.173178
Br328	Br	1.334409	1.447050	0.326822
H329	H	0.661522	0.135463	-0.801698
H330	H	1.161522	0.635463	-0.301698
H331	H	0.816273	1.044915	-0.191329
H332	H	1.316273	1.544915	0.308671
Br333	Br	0.867680	0.312815	-0.687828
Br334	Br	1.367680	0.812815	-0.187828
H335	H	0.661327	0.688391	-0.345935
H336	H	1.161327	1.188391	0.154065
Br337	Br	0.676685	0.947128	-0.330678
Br338	Br	1.176685	1.447128	0.169322
