data_functionalizedCrystal
_audit_creation_method	'MofGen! by Chris Wilmer'
_symmetry_space_group_name_H-M	'P1'
_symmetry_Int_Tables_number	1
_symmetry_cell_setting	triclinic
loop_
_symmetry_equiv_pos_as_xyz
  x,y,z
_cell_length_a	16.992697
_cell_length_b	16.098571
_cell_length_c	16.974813
_cell_angle_alpha	90.591645
_cell_angle_beta	92.975198
_cell_angle_gamma	92.890263
loop_
_atom_site_label
_atom_site_type_symbol
_atom_site_fract_x
_atom_site_fract_y
_atom_site_fract_z
O1	O	-1.036585	0.080171	0.163769
O2	O	-0.808306	0.080076	0.161934
O3	O	-0.929158	0.072413	0.048523
O4	O	-0.915733	0.087833	0.277179
O5	O	-0.935391	-0.065649	0.055205
O6	O	-0.814539	-0.057987	0.168615
O7	O	-1.042818	-0.057891	0.170451
Zn8	Zn	-0.929668	-0.079859	0.170594
Zn9	Zn	-0.921456	0.102044	0.161790
O10	O	-0.921966	-0.050229	0.283861
C11	C	-0.782220	0.010889	0.162916
C12	C	-0.695204	0.010425	0.155879
N13	N	-0.935279	-0.204003	0.176602
C14	C	-0.644683	0.015004	0.223773
C15	C	-0.562924	0.014548	0.217157
C16	C	-0.531688	0.009519	0.142646
C17	C	-0.582215	0.004937	0.074747
C18	C	-0.663973	0.005388	0.081364
C19	C	-0.288204	0.007651	0.115221
C20	C	-0.206440	0.007203	0.108609
C21	C	-0.187155	0.016812	0.251019
C22	C	-0.268915	0.017267	0.257630
C23	C	-0.319435	0.012681	0.189731
N24	N	-0.448117	0.009055	0.135881
N25	N	-0.403004	0.013139	0.196496
C26	C	-0.961230	-0.726942	0.204493
C27	C	-0.957309	-0.640037	0.200285
C28	C	-0.908012	-0.600004	0.147355
C29	C	-0.862628	-0.646881	0.098637
C30	C	-0.866545	-0.733784	0.102850
C31	C	-0.893812	-0.337783	0.132096
C32	C	-0.889900	-0.250874	0.127885
C33	C	-0.984581	-0.244036	0.229535
C34	C	-0.988498	-0.330941	0.233740
C35	C	-0.943110	-0.377810	0.185024
C36	C	-0.904005	-0.511173	0.143051
C37	C	-0.947113	-0.466639	0.189333
C38	C	-0.068904	0.011301	0.169468
C39	C	-0.155919	0.011782	0.176503
C40	C	-0.931880	0.001402	0.022471
C41	C	-0.930695	-0.004498	-0.065112
N42	N	-0.915851	0.226187	0.155777
C43	C	-0.926742	0.067987	-0.109896
C44	C	-0.925623	0.062440	-0.192189
C45	C	-0.928463	-0.015592	-0.229697
C46	C	-0.932414	-0.088083	-0.184906
C47	C	-0.933527	-0.082535	-0.102614
C48	C	-0.925493	-0.040253	-0.475422
C49	C	-0.924382	-0.045795	-0.557720
C50	C	-0.917590	0.104729	-0.564997
C51	C	-0.918708	0.110269	-0.482704
C52	C	-0.922655	0.037779	-0.437920
N53	N	-0.927322	-0.021264	-0.313813
N54	N	-0.923790	0.043451	-0.353805
C55	C	-0.919244	0.020784	0.309913
C56	C	-0.920429	0.026690	0.397496
H57	H	-0.670109	0.019100	0.284447
H58	H	-0.146013	0.020544	0.306298
C59	C	-0.799841	-0.335814	0.031189
C60	C	-0.843933	-0.389300	0.078543
H61	H	-0.769052	-0.367625	-0.001877
H62	H	-0.766038	-0.299604	0.063767
H63	H	-0.834533	-0.303950	-0.000448
H64	H	-0.809240	-0.421161	0.110184
H65	H	-0.877739	-0.425525	0.045962
C66	C	-0.814592	-0.516703	0.047035
C67	C	-0.808443	-0.602879	0.040451
H68	H	-0.781145	-0.489542	0.011106
H69	H	-0.799152	-0.498882	0.099331
H70	H	-0.867649	-0.503242	0.035118
H71	H	-0.755387	-0.616341	0.052374
H72	H	-0.823878	-0.620707	-0.011857
H73	H	-0.181011	0.003108	0.047930
C74	C	-0.326588	0.070577	-0.007559
C75	C	-0.343727	0.002619	0.040586
H76	H	-0.360872	0.067471	-0.053636
H77	H	-0.273431	0.069585	-0.022154
H78	H	-0.333852	0.120763	0.020459
H79	H	-0.336457	-0.047568	0.012569
H80	H	-0.396897	0.003602	0.055179
H81	H	-0.916396	0.173812	-0.452171
H82	H	-0.556777	0.000830	0.014079
C83	C	-0.930208	-0.098594	-0.346050
C84	C	-0.929837	-0.119933	-0.426202
H85	H	-0.932886	-0.147789	-0.315663
H86	H	-0.974700	-0.066986	-0.337190
H87	H	-0.883282	-0.066546	-0.330936
H88	H	-0.976766	-0.151976	-0.441317
H89	H	-0.885341	-0.151555	-0.435066
H90	H	-0.849752	-0.218282	0.084784
H91	H	-0.924433	0.131530	-0.079364
C92	C	-0.674828	-0.004142	-0.060067
C93	C	-0.719508	0.000362	0.006732
H94	H	-0.709114	-0.007241	-0.106141
H95	H	-0.644722	-0.052260	-0.057357
H96	H	-0.640354	0.044031	-0.062009
H97	H	-0.753978	-0.047814	0.008679
H98	H	-0.749627	0.048486	0.004022
H99	H	-1.001376	-0.759530	0.247591
H100	H	-0.994263	-0.601878	0.239954
H101	H	-0.934721	-0.151619	-0.215451
C102	C	-1.040312	-0.451152	0.289386
C103	C	-1.001301	-0.510639	0.247512
H104	H	-1.073763	-0.478323	0.325304
H105	H	-1.071056	-0.419576	0.253520
H106	H	-1.002570	-0.415221	0.317744
H107	H	-1.039043	-0.546567	0.219150
H108	H	-0.970555	-0.542230	0.283384
H109	H	-0.914375	0.163746	-0.601468
C110	C	-0.940120	-0.231878	-0.103681
C111	C	-0.937864	-0.162213	-0.053384
H112	H	-0.942796	-0.281068	-0.073287
H113	H	-0.893842	-0.230685	-0.132803
H114	H	-0.985261	-0.231130	-0.139057
H115	H	-0.892719	-0.162957	-0.018012
H116	H	-0.984146	-0.163406	-0.024249
C117	C	-0.931192	-0.194032	-0.542264
C118	C	-0.927497	-0.131575	-0.598950
H119	H	-0.933111	-0.246985	-0.567720
H120	H	-0.977190	-0.188963	-0.513449
H121	H	-0.885771	-0.188513	-0.507188
H122	H	-0.972921	-0.137091	-0.634022
H123	H	-0.881494	-0.136647	-0.627778
H124	H	-0.521793	0.018277	0.272443
H125	H	-0.294340	0.021372	0.318304
C126	C	-0.919090	0.211781	-0.191121
C127	C	-0.921321	0.142119	-0.241419
H128	H	-0.916450	0.260972	-0.221516
H129	H	-0.873947	0.211059	-0.155758
H130	H	-0.965368	0.210560	-0.161987
H131	H	-0.875040	0.143336	-0.270549
H132	H	-0.966469	0.142841	-0.276796
H133	H	-1.021532	-0.205866	0.269197
C134	C	-0.772571	-0.731822	0.001945
C135	C	-0.816666	-0.785309	0.049296
H136	H	-0.741779	-0.763632	-0.031118
H137	H	-0.738771	-0.695611	0.034525
H138	H	-0.807262	-0.699957	-0.029694
H139	H	-0.781974	-0.817168	0.080940
H140	H	-0.850469	-0.821534	0.016713
H141	H	-1.028642	-0.363529	0.276839
H142	H	-0.863869	-0.478569	0.099953
