data_functionalizedCrystal
_audit_creation_method	'MofGen! by Chris Wilmer'
_symmetry_space_group_name_H-M	'P1'
_symmetry_Int_Tables_number	1
_symmetry_cell_setting	triclinic
loop_
_symmetry_equiv_pos_as_xyz
  x,y,z
_cell_length_a	19.188905
_cell_length_b	17.666332
_cell_length_c	9.065218
_cell_angle_alpha	90.000244
_cell_angle_beta	95.924779
_cell_angle_gamma	90.013693
loop_
_atom_site_label
_atom_site_type_symbol
_atom_site_fract_x
_atom_site_fract_y
_atom_site_fract_z
O1	O	0.927588	0.063070	-0.183993
O2	O	1.427588	0.563070	0.316007
O3	O	0.724467	0.063044	-0.208825
O4	O	1.224467	0.563044	0.291175
O5	O	0.830226	0.063056	0.018380
O6	O	1.330226	0.563056	0.518380
O7	O	0.821829	0.063058	-0.411198
O8	O	1.321829	0.563058	0.088802
O9	O	0.830212	-0.062841	0.018372
O10	O	1.330212	0.437159	0.518372
O11	O	0.724453	-0.062853	-0.208832
O12	O	1.224453	0.437147	0.291168
O13	O	0.927574	-0.062826	-0.184000
O14	O	1.427574	0.437174	0.316000
Cu15	Cu	0.826012	-0.074335	-0.196417
Cu16	Cu	1.326012	0.425665	0.303583
Cu17	Cu	0.826029	0.074553	-0.196408
Cu18	Cu	1.326029	0.574553	0.303592
O19	O	0.821815	-0.062839	-0.411205
O20	O	1.321815	0.437161	0.088795
C21	C	0.698442	0.000092	-0.208031
C22	C	1.198442	0.500092	0.291969
C23	C	0.620918	0.000082	-0.205635
C24	C	1.120918	0.500082	0.294365
N25	N	0.826005	-0.179054	-0.196422
N26	N	1.326005	0.320946	0.303578
C27	C	0.868949	-0.781097	-0.285622
C28	C	1.368949	-0.281097	0.214378
C29	C	0.868942	-0.701850	-0.285637
C30	C	1.368942	-0.201850	0.214363
C31	C	0.826035	-0.662236	-0.196393
C32	C	1.326035	-0.162236	0.303607
C33	C	0.783119	-0.701876	-0.107156
C34	C	1.283119	-0.201876	0.392844
C35	C	0.783121	-0.781122	-0.107155
C36	C	1.283121	-0.281122	0.392845
N37	N	0.823341	-0.537813	-0.067168
N38	N	1.323341	-0.037813	0.432832
N39	N	0.823342	-0.462532	-0.067172
N40	N	1.323342	0.037468	0.432828
C41	C	0.826023	-0.423472	-0.196393
C42	C	1.326023	0.076528	0.303607
N43	N	0.828716	-0.462536	-0.325610
N44	N	1.328716	0.037464	0.174390
N45	N	0.828718	-0.537823	-0.325603
N46	N	1.328718	-0.037823	0.174397
C47	C	0.826027	-0.576307	-0.196385
C48	C	1.326027	-0.076307	0.303615
C49	C	0.868925	-0.297912	-0.285648
C50	C	1.368925	0.202088	0.214352
C51	C	0.868914	-0.218663	-0.285666
C52	C	1.368914	0.281337	0.214334
C53	C	0.783094	-0.218691	-0.107171
C54	C	1.283094	0.281309	0.392829
C55	C	0.783102	-0.297938	-0.107167
C56	C	1.283102	0.202062	0.392833
C57	C	0.826021	-0.337544	-0.196403
C58	C	1.326021	0.162456	0.303597
C59	C	0.584525	0.068711	-0.204480
C60	C	1.084525	0.568711	0.295520
C61	C	0.511684	0.068720	-0.202213
C62	C	1.011684	0.568720	0.297787
C63	C	0.475240	0.000097	-0.201071
C64	C	0.975240	0.500097	0.298929
C65	C	0.511642	-0.068540	-0.202234
C66	C	1.011642	0.431460	0.297766
C67	C	0.584481	-0.068548	-0.204516
C68	C	1.084481	0.431452	0.295484
N69	N	0.365534	-0.050972	-0.113540
N70	N	0.865534	0.449028	0.386460
N71	N	0.296340	-0.050961	-0.111369
N72	N	0.796340	0.449039	0.388631
C73	C	0.255780	0.000116	-0.194199
C74	C	0.755780	0.500116	0.305801
N75	N	0.287029	0.051191	-0.279263
N76	N	0.787029	0.551191	0.220737
N77	N	0.356230	0.051182	-0.281427
N78	N	0.856230	0.551182	0.218573
C79	C	0.396259	0.000098	-0.198598
C80	C	0.896259	0.500098	0.301402
C81	C	0.140404	0.068759	-0.190588
C82	C	0.640404	0.568759	0.309412
C83	C	0.067561	0.068765	-0.188330
C84	C	0.567561	0.568765	0.311670
C85	C	0.067521	-0.068497	-0.188336
C86	C	0.567521	0.431503	0.311664
C87	C	0.140362	-0.068501	-0.190609
C88	C	0.640362	0.431499	0.309391
C89	C	0.176800	0.000129	-0.191728
C90	C	0.676800	0.500129	0.308272
C91	C	0.953598	0.000127	-0.184795
C92	C	1.453598	0.500127	0.315205
C93	C	1.031122	0.000142	-0.187190
C94	C	1.531122	0.500142	0.312810
C95	C	0.829412	0.000109	0.073335
C96	C	1.329412	0.500109	0.573335
C97	C	0.826999	0.000112	0.237093
C98	C	1.326999	0.500112	0.737093
N99	N	0.826041	0.179272	-0.196391
N100	N	1.326041	0.679272	0.303609
C101	C	0.822629	0.000110	-0.466160
C102	C	1.322629	0.500110	0.033840
C103	C	0.825042	0.000112	-0.629919
C104	C	1.325042	0.500112	-0.129919
H105	H	0.903896	-0.813340	-0.358288
H106	H	1.403896	-0.313340	0.141712
Br107	Br	0.018168	0.161912	-0.186781
Br108	Br	0.518168	0.661912	0.313219
Br109	Br	0.724883	-0.834910	0.013952
Br110	Br	1.224883	-0.334910	0.513952
Br111	Br	0.724854	-0.164937	0.013932
Br112	Br	1.224854	0.335063	0.513932
H113	H	0.614111	-0.124435	-0.205458
H114	H	1.114111	0.375565	0.294542
Br115	Br	0.724882	-0.648116	0.013950
Br116	Br	1.224882	-0.148116	0.513950
Br117	Br	0.633973	0.161851	-0.206002
Br118	Br	1.133973	0.661851	0.293998
Br119	Br	0.724868	-0.351726	0.013943
Br120	Br	1.224868	0.148274	0.513943
Br121	Br	0.462282	0.161865	-0.200649
Br122	Br	0.962282	0.661865	0.299351
H123	H	0.903870	-0.330161	-0.358316
H124	H	1.403870	0.169839	0.141684
H125	H	0.169994	-0.124386	-0.191539
H126	H	0.669994	0.375614	0.308461
Br127	Br	0.189859	0.161897	-0.192116
Br128	Br	0.689859	0.661897	0.307884
Br129	Br	0.927132	-0.164877	-0.406817
Br130	Br	1.427132	0.335123	0.093183
Br131	Br	0.462183	-0.161672	-0.200701
Br132	Br	0.962183	0.338328	0.299299
H133	H	0.037849	-0.124371	-0.187415
H134	H	0.537849	0.375629	0.312585
H135	H	0.903882	-0.669576	-0.358306
H136	H	1.403882	-0.169576	0.141694
