data_functionalizedCrystal
_audit_creation_method	'MofGen! by Chris Wilmer'
_symmetry_space_group_name_H-M	'P1'
_symmetry_Int_Tables_number	1
_symmetry_cell_setting	triclinic
loop_
_symmetry_equiv_pos_as_xyz
  x,y,z
_cell_length_a	10.723024
_cell_length_b	9.483334
_cell_length_c	10.723024
_cell_angle_alpha	99.428565
_cell_angle_beta	84.467869
_cell_angle_gamma	80.628577
loop_
_atom_site_label
_atom_site_type_symbol
_atom_site_fract_x
_atom_site_fract_y
_atom_site_fract_z
O1	O	1.637907	0.120875	0.194392
O2	O	1.274754	0.120880	0.211146
O3	O	1.464708	0.120872	0.021192
O4	O	1.447953	0.120883	0.384346
O5	O	1.503259	-0.120905	-0.017548
O6	O	1.313305	-0.120897	0.172406
O7	O	1.676458	-0.120902	0.155652
Cu8	Cu	1.498401	-0.142976	0.160492
Cu9	Cu	1.452811	0.142953	0.206306
O10	O	1.486504	-0.120894	0.345606
C11	C	1.247530	-0.000008	0.190557
C12	C	1.108975	-0.000007	0.186910
N13	N	1.530476	-0.344083	0.128268
C14	C	0.917218	-0.000007	0.073602
C15	C	1.060422	-0.000009	0.077370
C16	C	1.462256	-0.416310	0.196801
C17	C	1.488975	-0.583716	0.169977
C18	C	1.703682	-0.000011	0.176242
C19	C	1.842235	-0.000003	0.179891
C20	C	1.482764	-0.000015	-0.044677
C21	C	1.479115	-0.000010	-0.183231
N22	N	1.420745	0.344061	0.238520
C23	C	1.585403	-0.000009	-0.258213
C24	C	1.581634	-0.000004	-0.401416
C25	C	1.468447	-0.000004	0.411476
C26	C	1.472094	0.000000	0.550031
H27	H	1.124853	-0.000003	-0.013620
O28	O	1.031966	0.000193	0.295421
C29	C	0.935890	0.125434	0.320220
H30	H	0.921928	0.167178	0.227780
H31	H	0.842903	0.097278	0.361242
H32	H	0.965146	0.213116	0.391690
O33	O	0.867235	0.000247	-0.038217
C34	C	0.772752	0.125446	-0.026821
H35	H	0.790230	0.212969	0.052626
H36	H	0.776736	0.167475	-0.120562
H37	H	0.674892	0.097135	-0.003314
H38	H	0.884058	-0.000009	0.273675
O39	O	1.369124	-0.342077	0.290568
C40	C	1.422865	-0.254047	0.382013
H41	H	1.516379	-0.231381	0.336560
H42	H	1.353987	-0.146965	0.418487
H43	H	1.441683	-0.312609	0.464937
H44	H	1.567171	-0.645809	0.091445
O45	O	1.697403	-0.000200	-0.208513
C46	C	1.785652	-0.125435	-0.268742
H47	H	1.757653	-0.167186	-0.366056
H48	H	1.884936	-0.097268	-0.281271
H49	H	1.785730	-0.213116	-0.207603
O50	O	1.327451	-0.582102	0.332299
C51	C	1.269187	-0.681765	0.390787
H52	H	1.337612	-0.790288	0.375220
H53	H	1.244268	-0.637678	0.497327
H54	H	1.178570	-0.697919	0.347112
H55	H	1.608667	-0.406182	0.049741
H56	H	1.672626	-0.000010	-0.465849
O57	O	1.363524	0.000258	-0.373026
C58	C	1.338862	0.125455	-0.276805
H59	H	1.388264	0.212975	-0.309972
H60	H	1.231769	0.167490	-0.256169
H61	H	1.376606	0.097138	-0.186468
O62	O	1.367177	-0.000197	-0.232994
C63	C	1.318867	-0.125434	-0.212911
H64	H	1.360179	-0.167189	-0.128979
H65	H	1.210601	-0.097269	-0.191358
H66	H	1.346756	-0.213112	-0.302154
