data_functionalizedCrystal
_audit_creation_method	'MofGen! by Chris Wilmer'
_symmetry_space_group_name_H-M	'P1'
_symmetry_Int_Tables_number	1
_symmetry_cell_setting	triclinic
loop_
_symmetry_equiv_pos_as_xyz
  x,y,z
_cell_length_a	11.792241
_cell_length_b	15.995350
_cell_length_c	10.868271
_cell_angle_alpha	89.997096
_cell_angle_beta	89.999893
_cell_angle_gamma	83.842895
loop_
_atom_site_label
_atom_site_type_symbol
_atom_site_fract_x
_atom_site_fract_y
_atom_site_fract_z
O1	O	1.505951	0.114763	-0.102196
O2	O	2.005951	0.614763	0.397804
O3	O	1.175511	0.126591	-0.102224
O4	O	1.675511	0.626591	0.397776
O5	O	1.349764	-0.001170	-0.102208
O6	O	1.849764	0.498830	0.397792
O7	O	1.331698	0.242524	-0.102212
O8	O	1.831698	0.742524	0.397788
O9	O	1.349750	-0.001175	0.102436
O10	O	1.849750	0.498825	0.602436
O11	O	1.175497	0.126586	0.102420
O12	O	1.675497	0.626586	0.602420
O13	O	1.505937	0.114758	0.102448
O14	O	2.005937	0.614758	0.602448
Zn15	Zn	1.340715	0.120671	0.134926
Zn16	Zn	1.840715	0.620671	0.634926
Zn17	Zn	1.340734	0.120678	-0.134702
Zn18	Zn	1.840734	0.620678	0.365298
O19	O	1.331684	0.242519	0.102432
O20	O	1.831684	0.742519	0.602432
C21	C	1.133220	0.125845	0.000094
C22	C	1.633220	0.625845	0.500094
C23	C	1.007224	0.123621	0.000084
C24	C	1.507224	0.623621	0.500084
C25	C	1.349010	-0.032370	0.000112
C26	C	1.849010	0.467630	0.500112
C27	C	1.346771	-0.125331	0.000104
C28	C	1.846771	0.374669	0.500104
C29	C	0.776546	0.119532	0.000119
C30	C	1.276546	0.619532	0.500119
C31	C	0.904913	0.121804	0.000099
C32	C	1.404913	0.621804	0.500099
C33	C	1.338730	-0.463115	0.000108
C34	C	1.838730	0.036885	0.500108
C35	C	1.214630	-0.416244	-0.000362
C36	C	1.714630	0.083756	0.499638
C37	C	1.216870	-0.319544	0.000100
C38	C	1.716870	0.180456	0.500100
C39	C	1.342718	-0.295536	0.000105
C40	C	1.842718	0.204464	0.500105
C41	C	1.403921	-0.336339	0.116971
C42	C	1.903921	0.163661	0.616971
C43	C	1.400803	-0.432989	0.117068
C44	C	1.900803	0.067011	0.617068
C45	C	1.403383	-0.433329	-0.115651
C46	C	1.903383	0.066671	0.384349
C47	C	1.403354	-0.336384	-0.117195
C48	C	1.903354	0.163616	0.382805
C49	C	1.344979	-0.200829	0.000108
C50	C	1.844979	0.299171	0.500108
C51	C	1.336473	-0.557823	0.000113
C52	C	1.836473	-0.057823	0.500113
C53	C	1.548229	0.115504	0.000127
C54	C	2.048229	0.615504	0.500127
C55	C	1.674224	0.117727	0.000130
C56	C	2.174224	0.617727	0.500130
C57	C	1.332438	0.273719	0.000110
C58	C	1.832438	0.773719	0.500110
C59	C	1.334677	0.366680	0.000109
C60	C	1.834677	0.866680	0.500109
N61	N	1.340710	0.120666	0.318940
N62	N	1.840710	0.620666	0.818940
N63	N	1.340747	0.120676	-0.318716
N64	N	1.840747	0.620676	0.181284
C65	C	1.340728	0.120676	0.569946
C66	C	1.840728	0.620676	1.069946
C67	C	1.340714	0.120673	0.430269
C68	C	1.840714	0.620673	0.930269
H69	H	1.168760	-0.291338	-0.083674
H70	H	1.668760	0.208662	0.416326
F71	F	1.149801	-0.440756	-0.109904
F72	F	1.649801	0.059244	0.390096
F73	F	1.342450	-0.457180	0.231243
F74	F	1.842450	0.042820	0.731243
F75	F	1.519889	-0.474601	0.124017
F76	F	2.019889	0.025399	0.624017
H77	H	1.358607	-0.309336	-0.203649
H78	H	1.858607	0.190664	0.296351
F79	F	1.524770	-0.317329	0.122661
F80	F	2.024770	0.182671	0.622661
F81	F	1.348346	-0.299500	0.230640
F82	F	1.848346	0.200500	0.730640
H83	H	1.165243	-0.436064	0.082970
H84	H	1.665243	0.063936	0.582970
H85	H	1.495128	-0.320605	-0.124247
H86	H	1.995128	0.179395	0.375753
H87	H	1.168425	-0.291901	0.084008
H88	H	1.668425	0.208099	0.584008
F89	F	1.350350	-0.460405	-0.231428
F90	F	1.850350	0.039595	0.268572
H91	H	1.494881	-0.464675	-0.116432
H92	H	1.994881	0.035325	0.383568
