data_functionalizedCrystal
_audit_creation_method	'MofGen! by Chris Wilmer'
_symmetry_space_group_name_H-M	'P1'
_symmetry_Int_Tables_number	1
_symmetry_cell_setting	triclinic
loop_
_symmetry_equiv_pos_as_xyz
  x,y,z
_cell_length_a	18.050591
_cell_length_b	18.050590
_cell_length_c	18.050571
_cell_angle_alpha	89.911758
_cell_angle_beta	89.930298
_cell_angle_gamma	90.014558
loop_
_atom_site_label
_atom_site_type_symbol
_atom_site_fract_x
_atom_site_fract_y
_atom_site_fract_z
Zn1	Zn	1.135700	-0.295310	-0.420028
Zn2	Zn	1.635700	0.204690	0.079972
Zn3	Zn	1.135526	-0.419634	-0.295837
Zn4	Zn	1.635526	0.080366	0.204163
Zn5	Zn	1.011414	-0.295453	-0.295839
Zn6	Zn	1.511414	0.204547	0.204161
Zn7	Zn	1.011488	-0.419454	-0.419972
Zn8	Zn	1.511488	0.080546	0.080028
O9	O	1.073532	-0.357463	-0.357919
O10	O	1.573532	0.142537	0.142081
O11	O	1.239602	-0.311817	-0.403577
O12	O	1.739602	0.188183	0.096423
O13	O	1.118958	-0.403296	-0.191912
O14	O	1.618958	0.096704	0.308088
O15	O	1.027942	-0.191510	-0.312338
O16	O	1.527942	0.308490	0.187662
O17	O	1.239474	-0.403157	-0.312333
O18	O	1.739474	0.096843	0.187667
O19	O	1.119255	-0.191404	-0.403579
O20	O	1.619255	0.308596	0.096421
O21	O	1.027773	-0.312062	-0.191914
O22	O	1.527773	0.187938	0.308086
O23	O	0.907499	-0.311887	-0.312283
O24	O	1.407499	0.188113	0.187717
O25	O	1.028069	-0.402850	-0.523905
O26	O	1.528069	0.097150	-0.023905
O27	O	0.907554	-0.402990	-0.403483
O28	O	1.407554	0.097010	0.096517
O29	O	1.119327	-0.311642	-0.523946
O30	O	1.619327	0.188358	-0.023946
O31	O	1.119031	-0.523535	-0.312279
O32	O	1.619031	-0.023535	0.187721
O33	O	1.027900	-0.523402	-0.403481
O34	O	1.527900	-0.023402	0.096519
C35	C	0.880580	-0.357435	-0.357878
C36	C	1.380580	0.142565	0.142122
C37	C	0.798034	-0.357441	-0.357878
C38	C	1.298034	0.142559	0.142122
C39	C	0.598532	-0.307842	-0.308398
C40	C	1.098532	0.192158	0.191602
C41	C	0.549108	-0.375599	-0.290121
C42	C	1.049108	0.124401	0.209879
C43	C	0.646904	-0.357464	-0.357912
C44	C	1.146904	0.142536	0.142088
C45	C	0.549246	-0.289731	-0.376187
C46	C	1.049246	0.210269	0.123813
C47	C	0.500919	-0.357479	-0.357943
C48	C	1.000919	0.142521	0.142057
C49	C	0.598567	-0.425256	-0.339599
C50	C	1.098567	0.074744	0.160401
C51	C	0.598709	-0.339342	-0.425697
C52	C	1.098709	0.160658	0.074303
C53	C	0.549308	-0.407146	-0.407446
C54	C	1.049308	0.092854	0.092554
C55	C	0.731002	-0.357454	-0.357892
C56	C	1.231002	0.142546	0.142108
C57	C	0.416822	-0.357497	-0.357963
C58	C	0.916822	0.142503	0.142037
C59	C	1.073475	-0.550415	-0.357890
C60	C	1.573475	-0.050415	0.142110
C61	C	1.073518	-0.632961	-0.357902
C62	C	1.573518	-0.132961	0.142098
C63	C	1.123178	-0.832456	-0.308375
C64	C	1.623178	-0.332456	0.191625
C65	C	1.141371	-0.881719	-0.376158
C66	C	1.641371	-0.381719	0.123842
C67	C	1.073561	-0.784091	-0.357931
C68	C	1.573561	-0.284091	0.142069
C69	C	1.055443	-0.881910	-0.290180
C70	C	1.555443	-0.381910	0.209820
C71	C	1.073603	-0.930076	-0.357954
C72	C	1.573603	-0.430076	0.142046
C73	C	1.091789	-0.832267	-0.425749
C74	C	1.591789	-0.332267	0.074251
C75	C	1.005829	-0.832453	-0.339726
C76	C	1.505829	-0.332453	0.160274
C77	C	1.023996	-0.881694	-0.407555
C78	C	1.523996	-0.381694	0.092445
C79	C	1.073538	-0.699993	-0.357917
C80	C	1.573538	-0.199993	0.142083
C81	C	1.073625	-1.014173	-0.357976
C82	C	1.573625	-0.514173	0.142024
C83	C	1.267238	-0.357491	-0.357961
C84	C	1.767238	0.142509	0.142039
C85	C	1.349783	-0.357503	-0.357979
C86	C	1.849783	0.142497	0.142021
C87	C	1.073726	-0.357210	-0.551625
C88	C	1.573726	0.142790	-0.051625
C89	C	1.073809	-0.357103	-0.634171
C90	C	1.573809	0.142897	-0.134171
C91	C	1.073610	-0.163757	-0.357965
C92	C	1.573610	0.336243	0.142035
C93	C	1.073643	-0.081211	-0.357985
C94	C	1.573643	0.418789	0.142015
C95	C	1.073381	-0.357661	-0.164967
C96	C	1.573381	0.142339	0.335033
C97	C	1.073443	-0.357559	-0.082421
C98	C	1.573443	0.142441	0.417579
C99	C	1.023652	-0.308097	0.116990
C100	C	1.523652	0.191903	0.616990
C101	C	1.091320	-0.289398	0.166195
C102	C	1.591320	0.210602	0.666195
C103	C	1.073568	-0.357405	0.068709
C104	C	1.573568	0.142595	0.568709
C105	C	1.006022	-0.375919	0.166586
C106	C	1.506022	0.124081	0.666586
C107	C	1.073683	-0.357255	0.214694
C108	C	1.573683	0.142745	0.714694
C109	C	1.141271	-0.338672	0.116826
C110	C	1.641271	0.161328	0.616826
C111	C	1.055927	-0.425225	0.117213
C112	C	1.555927	0.074775	0.617213
C113	C	1.123643	-0.406552	0.166395
C114	C	1.623643	0.093448	0.666395
C115	C	1.073501	-0.357490	-0.015389
C116	C	1.573501	0.142510	0.484611
C117	C	1.073757	-0.357170	0.298790
C118	C	1.573757	0.142830	0.798790
H119	H	0.527829	-0.449164	-0.449331
H120	H	1.027829	0.050836	0.050669
H121	H	1.165152	-0.810834	-0.266511
H122	H	1.665152	-0.310834	0.233489
H123	H	0.620511	-0.323982	-0.482991
H124	H	1.120511	0.176018	0.017009
C125	C	0.876398	-0.829153	-0.370076
C126	C	1.376398	-0.329153	0.129924
C127	C	0.928502	-0.803209	-0.318892
C128	C	1.428502	-0.303209	0.181108
H129	H	0.828659	-0.811102	-0.357204
H130	H	1.328659	-0.311102	0.142796
H131	H	0.889219	-0.812179	-0.418247
H132	H	1.389219	-0.312179	0.081753
H133	H	0.875971	-0.881776	-0.369479
H134	H	1.375971	-0.381776	0.130521
H135	H	0.928932	-0.750586	-0.319494
H136	H	1.428932	-0.250586	0.180506
H137	H	0.915676	-0.820180	-0.270709
H138	H	1.415676	-0.320180	0.229291
C139	C	1.086742	-0.886482	-0.161012
C140	C	1.586742	-0.386482	0.338988
C141	C	1.034725	-0.911339	-0.212820
C142	C	1.534725	-0.411339	0.287180
H143	H	1.073952	-0.904646	-0.113253
H144	H	1.573952	-0.404646	0.386747
H145	H	1.134525	-0.904078	-0.174293
H146	H	1.634525	-0.404078	0.325707
H147	H	1.087016	-0.833861	-0.160348
H148	H	1.587016	-0.333861	0.339652
H149	H	1.034455	-0.963961	-0.213488
H150	H	1.534455	-0.463961	0.286512
H151	H	0.986929	-0.893747	-0.199535
H152	H	1.486929	-0.393747	0.300465
H153	H	0.527324	-0.390938	-0.232809
H154	H	1.027324	0.109062	0.267191
H155	H	0.948851	-0.391645	0.188432
H156	H	1.448851	0.108355	0.688432
H157	H	0.620147	-0.265924	-0.266480
H158	H	1.120147	0.234076	0.233520
H159	H	0.981464	-0.266425	0.095267
H160	H	1.481464	0.233575	0.595267
H161	H	0.620142	-0.482561	-0.324092
H162	H	1.120142	0.017439	0.175908
H163	H	1.106295	-0.231979	0.187717
H164	H	1.606295	0.268021	0.687717
C165	C	1.183315	-0.828447	-0.522313
C166	C	1.683315	-0.328447	-0.022313
C167	C	1.112594	-0.802968	-0.503134
C168	C	1.612594	-0.302968	-0.003134
H169	H	1.196158	-0.810361	-0.570088
H170	H	1.696158	-0.310361	-0.070088
H171	H	1.218318	-0.811191	-0.487081
H172	H	1.718318	-0.311191	0.012919
H173	H	1.183427	-0.881071	-0.522790
H174	H	1.683427	-0.381071	-0.022790
H175	H	1.112484	-0.750343	-0.502653
H176	H	1.612484	-0.250343	-0.002653
H177	H	1.077583	-0.820220	-0.538376
H178	H	1.577583	-0.320220	-0.038376
C179	C	1.217700	-0.317594	0.009889
C180	C	1.717700	0.182406	0.509889
C181	C	1.218470	-0.317352	0.087457
C182	C	1.718470	0.182648	0.587457
H183	H	1.265358	-0.304426	-0.008241
H184	H	1.765358	0.195574	0.491759
H185	H	1.205052	-0.365670	-0.007282
H186	H	1.705052	0.134330	0.492718
H187	H	1.182175	-0.282839	-0.007413
H188	H	1.682175	0.217161	0.492587
H189	H	1.253992	-0.352111	0.104760
H190	H	1.753992	0.147889	0.604760
H191	H	1.231127	-0.269269	0.104635
H192	H	1.731127	0.230731	0.604635
H193	H	1.040933	-0.482627	0.095674
H194	H	1.540933	0.017373	0.595674
C195	C	0.476153	-0.184973	-0.339215
C196	C	0.976153	0.315027	0.160785
C197	C	0.519999	-0.212395	-0.397040
C198	C	1.019999	0.287605	0.102960
H199	H	0.458103	-0.137226	-0.352084
H200	H	0.958103	0.362774	0.147916
H201	H	0.435573	-0.217471	-0.330947
H202	H	0.935573	0.282529	0.169053
H203	H	0.505051	-0.181611	-0.295401
H204	H	1.005051	0.318389	0.204599
H205	H	0.491099	-0.215762	-0.440853
H206	H	0.991099	0.284238	0.059147
H207	H	0.560584	-0.179889	-0.405318
H208	H	1.060584	0.320111	0.094682
C209	C	1.270571	-0.886099	-0.344988
C210	C	1.770571	-0.386099	0.155012
C211	C	1.218717	-0.910945	-0.396965
C212	C	1.718717	-0.410945	0.103035
H213	H	1.318320	-0.904145	-0.357829
H214	H	1.818320	-0.404145	0.142171
H215	H	1.271227	-0.833484	-0.344692
H216	H	1.771227	-0.333484	0.155308
H217	H	1.257336	-0.903830	-0.297194
H218	H	1.757336	-0.403830	0.202806
H219	H	1.231949	-0.893209	-0.444759
H220	H	1.731949	-0.393209	0.055241
H221	H	1.218063	-0.963571	-0.397269
H222	H	1.718063	-0.463571	0.102731
C223	C	0.986548	-0.885505	-0.535083
C224	C	1.486548	-0.385505	-0.035083
C225	C	0.967377	-0.910706	-0.464203
C226	C	1.467377	-0.410706	0.035797
H227	H	0.951598	-0.903421	-0.570055
H228	H	1.451598	-0.403421	-0.070055
H229	H	0.986512	-0.832887	-0.535661
H230	H	1.486512	-0.332887	-0.035661
H231	H	1.034534	-0.903126	-0.547606
H232	H	1.534534	-0.403126	-0.047606
H233	H	0.919394	-0.893080	-0.451677
H234	H	1.419394	-0.393080	0.048323
H235	H	0.967405	-0.963334	-0.463623
H236	H	1.467405	-0.463334	0.036377
C237	C	1.251466	-0.443110	0.170241
C238	C	1.751466	0.056890	0.670241
C239	C	1.180755	-0.462754	0.195504
C240	C	1.680755	0.037246	0.695504
H241	H	1.286725	-0.477803	0.188218
H242	H	1.786725	0.022197	0.688218
H243	H	1.252012	-0.443182	0.117624
H244	H	1.752012	0.056818	0.617624
H245	H	1.263621	-0.395027	0.187762
H246	H	1.763621	0.104973	0.687762
H247	H	1.168598	-0.510836	0.177979
H248	H	1.668598	-0.010836	0.677979
H249	H	1.180208	-0.462690	0.248132
H250	H	1.680208	0.037310	0.748132
