data_functionalizedCrystal
_audit_creation_method	'MofGen! by Chris Wilmer'
_symmetry_space_group_name_H-M	'P1'
_symmetry_Int_Tables_number	1
_symmetry_cell_setting	triclinic
loop_
_symmetry_equiv_pos_as_xyz
  x,y,z
_cell_length_a	15.944551
_cell_length_b	19.288865
_cell_length_c	14.421503
_cell_angle_alpha	90.000044
_cell_angle_beta	90.003941
_cell_angle_gamma	83.317493
loop_
_atom_site_label
_atom_site_type_symbol
_atom_site_fract_x
_atom_site_fract_y
_atom_site_fract_z
O1	O	-1.114185	-0.089572	-0.077026
O2	O	-0.780852	0.243762	0.256307
O3	O	-0.447519	0.577095	0.589641
O4	O	-0.869593	-0.100616	-0.077050
O5	O	-0.536260	0.232717	0.256283
O6	O	-0.202927	0.566051	0.589616
O7	O	-0.998957	0.006018	-0.077019
O8	O	-0.665624	0.339351	0.256314
O9	O	-0.332290	0.672685	0.589648
O10	O	-0.984822	-0.196206	-0.077057
O11	O	-0.651488	0.137128	0.256276
O12	O	-0.318155	0.470461	0.589609
O13	O	-0.998933	0.006000	0.077204
O14	O	-0.665600	0.339333	0.410538
O15	O	-0.332267	0.672667	0.743871
O16	O	-0.869570	-0.100634	0.077173
O17	O	-0.536236	0.232699	0.410506
O18	O	-0.202903	0.566033	0.743840
O19	O	-1.114162	-0.089589	0.077198
O20	O	-0.780828	0.243744	0.410531
O21	O	-0.447495	0.577077	0.743864
Cu22	Cu	-0.991863	-0.095113	0.091267
Cu23	Cu	-0.658530	0.238220	0.424600
Cu24	Cu	-0.325197	0.571553	0.757934
Cu25	Cu	-0.991891	-0.095092	-0.091120
Cu26	Cu	-0.658558	0.238241	0.242213
Cu27	Cu	-0.325225	0.571574	0.575547
O28	O	-0.984798	-0.196223	0.077166
O29	O	-0.651465	0.137110	0.410500
O30	O	-0.318131	0.470443	0.743833
C31	C	-0.998490	0.031887	0.000095
C32	C	-0.665157	0.365220	0.333429
C33	C	-0.331824	0.698553	0.666762
C34	C	-0.997125	0.108994	0.000103
C35	C	-0.663792	0.442327	0.333437
C36	C	-0.330458	0.775660	0.666770
C37	C	-0.838289	-0.100167	0.000059
C38	C	-0.504956	0.233167	0.333392
C39	C	-0.171623	0.566500	0.666725
C40	C	-0.745048	-0.098792	0.000050
C41	C	-0.411715	0.234541	0.333383
C42	C	-0.078382	0.567875	0.666717
C43	C	-1.145466	-0.090039	0.000087
C44	C	-0.812132	0.243294	0.333420
C45	C	-0.478799	0.576628	0.666753
C46	C	-1.238706	-0.091414	0.000089
C47	C	-0.905373	0.241920	0.333422
C48	C	-0.572040	0.575253	0.666756
C49	C	-0.530459	-0.029410	0.000081
C50	C	-0.197126	0.303924	0.333414
C51	C	0.136208	0.637257	0.666748
C52	C	-0.469326	-0.061620	-0.075965
C53	C	-0.135993	0.271714	0.257368
C54	C	0.197340	0.605047	0.590701
C55	C	-0.574332	-0.096305	0.000061
C56	C	-0.240999	0.237028	0.333395
C57	C	0.092335	0.570361	0.666728
C58	C	-0.469325	-0.061653	0.076087
C59	C	-0.135992	0.271680	0.409420
C60	C	0.197341	0.605014	0.742754
C61	C	-0.409429	-0.093898	0.000077
C62	C	-0.076095	0.239435	0.333410
C63	C	0.257238	0.572768	0.666743
C64	C	-0.514428	-0.128534	-0.076048
C65	C	-0.181094	0.204800	0.257286
C66	C	0.152239	0.538133	0.590619
C67	C	-0.514433	-0.128558	0.076073
C68	C	-0.181100	0.204776	0.409406
C69	C	0.152234	0.538109	0.742739
C70	C	-0.453318	-0.160816	0.000008
C71	C	-0.119985	0.172517	0.333341
C72	C	0.213349	0.505850	0.666675
C73	C	-0.669329	-0.097690	0.000052
C74	C	-0.335996	0.235643	0.333385
C75	C	-0.002662	0.568977	0.666719
C76	C	-0.314433	-0.092519	0.000079
C77	C	0.018900	0.240815	0.333413
C78	C	0.352234	0.574148	0.666746
C79	C	-0.985265	-0.222092	0.000050
C80	C	-0.651931	0.111241	0.333383
C81	C	-0.318598	0.444575	0.666716
C82	C	-0.986630	-0.299199	0.000036
C83	C	-0.653297	0.034134	0.333369
C84	C	-0.319963	0.367467	0.666702
N85	N	-0.991850	-0.095128	0.219548
N86	N	-0.658517	0.238206	0.552882
N87	N	-0.325183	0.571539	0.886215
C88	C	-1.073030	0.153490	0.000116
C89	C	-0.739696	0.486823	0.333449
C90	C	-0.406363	0.820157	0.666782
C91	C	-1.071747	0.225941	0.000101
C92	C	-0.738414	0.559274	0.333434
C93	C	-0.405080	0.892607	0.666767
C94	C	-0.994555	0.253891	0.000092
C95	C	-0.661222	0.587225	0.333426
C96	C	-0.327889	0.920558	0.666759
C97	C	-0.918641	0.209385	0.000075
C98	C	-0.585307	0.542719	0.333408
C99	C	-0.251974	0.876052	0.666742
C100	C	-0.919925	0.136936	0.000081
C101	C	-0.586592	0.470270	0.333414
C102	C	-0.253259	0.803603	0.666747
C103	C	-0.933865	0.362332	0.054108
C104	C	-0.600532	0.695666	0.387441
C105	C	-0.267199	1.028999	0.720774
C106	C	-0.932584	0.434780	0.054108
C107	C	-0.599250	0.768114	0.387441
C108	C	-0.265917	1.101447	0.720774
C109	C	-0.990589	0.477347	0.000071
C110	C	-0.657256	0.810681	0.333405
C111	C	-0.323923	1.144014	0.666738
C112	C	-1.049891	0.447459	-0.053953
C113	C	-0.716557	0.780793	0.279380
C114	C	-0.383224	1.114126	0.612713
C115	C	-1.051176	0.375011	-0.053948
C116	C	-0.717842	0.708344	0.279385
C117	C	-0.384509	1.041677	0.612719
C118	C	-0.993153	0.332449	0.000086
C119	C	-0.659820	0.665782	0.333419
C120	C	-0.326487	0.999116	0.666753
C121	C	-1.065108	0.600403	0.000066
C122	C	-0.731775	0.933737	0.333399
C123	C	-0.398442	1.267070	0.666733
C124	C	-1.063822	0.672855	0.000046
C125	C	-0.730489	1.006188	0.333379
C126	C	-0.397156	1.339522	0.666712
C127	C	-0.910714	0.656298	0.000029
C128	C	-0.577381	0.989631	0.333363
C129	C	-0.244047	1.322965	0.666696
C130	C	-0.912002	0.583848	0.000040
C131	C	-0.578669	0.917181	0.333374
C132	C	-0.245335	1.250515	0.666707
C133	C	-0.989201	0.555906	0.000063
C134	C	-0.655868	0.889239	0.333397
C135	C	-0.322535	1.222572	0.666730
C136	C	-0.932018	-0.144416	0.469188
C137	C	-0.598685	0.188917	0.802521
C138	C	-0.265351	0.522250	1.135854
C139	C	-1.007865	-0.157902	0.530995
C140	C	-0.674532	0.175431	0.864328
C141	C	-0.341199	0.508764	1.197662
C142	C	-0.991868	-0.095114	0.408710
C143	C	-0.658534	0.238220	0.742043
C144	C	-0.325201	0.571553	1.075376
C145	C	-0.916037	-0.081647	0.530996
C146	C	-0.582704	0.251687	0.864330
C147	C	-0.249371	0.585020	1.197663
C148	C	-0.991878	-0.095102	0.591431
C149	C	-0.658545	0.238232	0.924765
C150	C	-0.325211	0.571565	1.258098
C151	C	-1.067753	-0.108631	0.469156
C152	C	-0.734420	0.224703	0.802490
C153	C	-0.401086	0.558036	1.135823
C154	C	-0.975875	-0.032348	0.469152
C155	C	-0.642542	0.300985	0.802486
C156	C	-0.309209	0.634319	1.135819
C157	C	-1.051777	-0.045807	0.530932
C158	C	-0.718444	0.287526	0.864265
C159	C	-0.385111	0.620860	1.197598
C160	C	-0.991861	-0.095122	0.303449
C161	C	-0.658527	0.238211	0.636782
C162	C	-0.325194	0.571544	0.970115
C163	C	-0.991894	-0.095092	0.696690
C164	C	-0.658561	0.238241	1.030023
C165	C	-0.325227	0.571574	1.363357
N166	N	-0.991897	-0.095085	0.780599
N167	N	-0.658564	0.238248	1.113932
N168	N	-0.325231	0.571581	1.447265
H169	H	-0.564006	0.026108	-0.000002
H170	H	-0.230672	0.359442	0.333331
H171	H	0.102661	0.692775	0.666664
H172	H	-0.858113	0.100707	0.000071
H173	H	-0.524779	0.434040	0.333404
H174	H	-0.191446	0.767373	0.666738
H175	H	-0.881458	-0.186143	0.442078
H176	H	-0.548124	0.147191	0.775411
H177	H	-0.214791	0.480524	1.108744
H178	H	-1.133560	0.262176	0.000107
H179	H	-0.800226	0.595510	0.333440
H180	H	-0.466893	0.928843	0.666774
H181	H	-0.886628	0.327679	0.098115
H182	H	-0.553295	0.661013	0.431449
H183	H	-0.219961	0.994346	0.764782
H184	H	-0.449338	-0.033354	0.140376
H185	H	-0.116005	0.299979	0.473709
H186	H	0.217328	0.633313	0.807043
H187	H	-0.850192	0.547618	0.000036
H188	H	-0.516859	0.880951	0.333369
H189	H	-0.183525	1.214285	0.666702
H190	H	-0.855790	0.232147	0.000066
H191	H	-0.522457	0.565481	0.333400
H192	H	-0.189124	0.898814	0.666733
H193	H	-0.962314	0.020710	0.441967
H194	H	-0.628980	0.354043	0.775300
H195	H	-0.295647	0.687376	1.108634
H196	H	-1.135891	0.130744	0.000131
H197	H	-0.802558	0.464078	0.333464
H198	H	-0.469225	0.797411	0.666798
H199	H	-0.534446	-0.156836	0.140357
H200	H	-0.201112	0.176498	0.473691
H201	H	0.132221	0.509831	0.807024
H202	H	-0.449335	-0.033318	-0.140247
H203	H	-0.116002	0.300015	0.193087
H204	H	0.217332	0.633349	0.526420
H205	H	-1.021403	-0.210977	0.558159
H206	H	-0.688070	0.122357	0.891492
H207	H	-0.354736	0.455690	1.224825
H208	H	-1.099459	0.350679	-0.097938
H209	H	-0.766126	0.684012	0.235395
H210	H	-0.432793	1.017345	0.568728
H211	H	-0.847863	0.679055	0.000018
H212	H	-0.514530	1.012388	0.333351
H213	H	-0.181196	1.345721	0.666684
H214	H	-1.131900	-0.120079	0.442107
H215	H	-0.798566	0.213254	0.775440
H216	H	-0.465233	0.546587	1.108773
H217	H	-1.097124	0.482117	-0.097956
H218	H	-0.763791	0.815450	0.235378
H219	H	-0.430458	1.148783	0.568711
H220	H	-0.884293	0.459109	0.098092
H221	H	-0.550960	0.792442	0.431426
H222	H	-0.217626	1.125775	0.764759
H223	H	-1.127969	0.577652	0.000080
H224	H	-0.794635	0.910985	0.333414
H225	H	-0.461302	1.244318	0.666747
H226	H	-1.102450	-0.004106	0.557872
H227	H	-0.769116	0.329228	0.891205
H228	H	-0.435783	0.662561	1.224538
H229	H	-1.125636	0.709084	0.000050
H230	H	-0.792303	1.042417	0.333384
H231	H	-0.458969	1.375751	0.666717
H232	H	-0.851905	-0.070262	0.558163
H233	H	-0.518571	0.263071	0.891496
H234	H	-0.185238	0.596405	1.224829
H235	H	-0.534316	-0.156799	-0.140409
H236	H	-0.200983	0.176534	0.192924
H237	H	0.132350	0.509868	0.526257
H238	H	-0.419945	-0.216391	-0.000045
H239	H	-0.086612	0.116942	0.333288
H240	H	0.246721	0.450275	0.666622
