data_functionalizedCrystal
_audit_creation_method	'MofGen! by Chris Wilmer'
_symmetry_space_group_name_H-M	'P1'
_symmetry_Int_Tables_number	1
_symmetry_cell_setting	triclinic
loop_
_symmetry_equiv_pos_as_xyz
  x,y,z
_cell_length_a	23.532407
_cell_length_b	9.482900
_cell_length_c	10.908937
_cell_angle_alpha	97.018133
_cell_angle_beta	71.467316
_cell_angle_gamma	80.775065
loop_
_atom_site_label
_atom_site_type_symbol
_atom_site_fract_x
_atom_site_fract_y
_atom_site_fract_z
O1	O	0.751647	-0.120704	0.135857
O2	O	1.251647	0.379296	0.635857
O3	O	0.583705	-0.120745	0.158432
O4	O	1.083705	0.379255	0.658432
O5	O	0.689938	-0.120725	-0.040070
O6	O	1.189938	0.379275	0.459930
O7	O	0.645414	-0.120725	0.334359
O8	O	1.145414	0.379275	0.834359
O9	O	0.668345	0.121064	0.000411
O10	O	1.168345	0.621064	0.500411
O11	O	0.562111	0.121043	0.198913
O12	O	1.062111	0.621043	0.698913
O13	O	0.730053	0.121084	0.176338
O14	O	1.230053	0.621084	0.676338
Cu15	Cu	0.644111	0.143141	0.191322
Cu16	Cu	1.144111	0.643141	0.691322
Cu17	Cu	0.669648	-0.142802	0.143448
Cu18	Cu	1.169648	0.357198	0.643448
O19	O	0.623820	0.121064	0.374840
O20	O	1.123820	0.621064	0.874840
C21	C	0.551746	0.000143	0.178096
C22	C	1.051746	0.500143	0.678096
C23	C	0.488689	0.000127	0.176365
C24	C	0.988689	0.500127	0.676365
N25	N	0.626154	0.344258	0.224992
N26	N	1.126154	0.844258	0.724992
N27	N	0.687610	-0.343918	0.109767
N28	N	1.187610	0.156082	0.609767
C29	C	0.079750	0.000193	0.283003
C30	C	0.579750	0.500193	0.783003
C31	C	0.020497	0.000202	0.281398
C32	C	0.520497	0.500202	0.781398
O33	O	-0.025366	0.000255	0.380252
O34	O	0.474634	0.500255	0.880252
N35	N	0.008751	0.000200	0.163387
N36	N	0.508751	0.500200	0.663387
C37	C	0.056262	0.000203	0.046974
C38	C	0.556262	0.500203	0.546974
O39	O	0.040830	0.000203	-0.053551
O40	O	0.540830	0.500203	0.446449
C41	C	0.115512	0.000205	0.048582
C42	C	0.615512	0.500205	0.548582
C43	C	0.127255	0.000192	0.166599
C44	C	0.627255	0.500192	0.666599
C45	C	0.091494	0.000182	0.401011
C46	C	0.591494	0.500182	0.901011
C47	C	0.150743	0.000171	0.402614
C48	C	0.650743	0.500171	0.902614
C49	C	0.198248	0.000170	0.286210
C50	C	0.698248	0.500170	0.786210
C51	C	0.186504	0.000181	0.168203
C52	C	0.686504	0.500181	0.668203
C53	C	0.163020	0.000218	-0.067827
C54	C	0.663020	0.500218	0.432173
C55	C	0.222273	0.000221	-0.066209
C56	C	0.722273	0.500221	0.433791
C57	C	0.234016	0.000209	0.051808
C58	C	0.734016	0.500209	0.551808
C59	C	0.293258	0.000168	0.053402
C60	C	0.793258	0.500168	0.553402
N61	N	0.305004	0.000171	0.171414
N62	N	0.805004	0.500171	0.671414
C63	C	0.257499	0.000171	0.287818
C64	C	0.757499	0.500171	0.787818
C65	C	-0.068171	0.000202	0.043608
C66	C	0.431829	0.500202	0.543608
C67	C	-0.127419	0.000190	0.041997
C68	C	0.372581	0.500190	0.541997
C69	C	-0.163180	0.000192	0.276422
C70	C	0.336820	0.500192	0.776422
C71	C	-0.103929	0.000194	0.278029
C72	C	0.396071	0.500194	0.778029
C73	C	-0.056425	0.000205	0.161619
C74	C	0.443575	0.500205	0.661619
C75	C	0.381928	0.000146	0.291176
C76	C	0.881928	0.500146	0.791176
C77	C	0.441184	0.000128	0.292769
C78	C	0.941184	0.500128	0.792769
C79	C	0.476939	0.000134	0.058346
C80	C	0.976939	0.500134	0.558346
C81	C	0.417689	0.000144	0.056751
C82	C	0.917689	0.500144	0.556751
C83	C	0.370182	0.000155	0.173178
C84	C	0.870182	0.500155	0.673178
O85	O	0.339150	0.000121	-0.045398
O86	O	0.839150	0.500121	0.454602
O87	O	0.272938	0.000190	0.388330
O88	O	0.772938	0.500190	0.888330
C89	C	0.762013	0.000192	0.156673
C90	C	1.262013	0.500192	0.656673
C91	C	0.825070	0.000199	0.158403
C92	C	1.325070	0.500199	0.658403
C93	C	0.683303	0.000166	-0.067724
C94	C	1.183303	0.500166	0.432276
C95	C	0.695695	0.000156	-0.210436
C96	C	1.195695	0.500156	0.289564
C97	C	0.664348	0.416464	0.153373
C98	C	1.164348	0.916464	0.653373
C99	C	0.649410	0.583879	0.181397
C100	C	1.149410	1.083879	0.681397
C101	C	0.630456	0.000170	0.402493
C102	C	1.130456	0.500170	0.902493
C103	C	0.618064	0.000171	0.545203
C104	C	1.118064	0.500171	1.045203
C105	C	0.650479	0.000153	0.741128
C106	C	1.150479	0.500153	1.241128
C107	C	0.663286	0.000174	0.593634
C108	C	1.163286	0.500174	1.093634
H109	H	0.450740	0.000117	0.388876
H110	H	0.950740	0.500117	0.888876
N111	N	0.270806	0.000211	-0.185115
N112	N	0.770806	0.500211	0.314885
N113	N	0.323709	0.000197	-0.183678
N114	N	0.823709	0.500197	0.316322
H115	H	0.357986	0.000185	-0.267655
H116	H	0.857986	0.500185	0.232345
N117	N	0.719222	0.338637	0.050312
N118	N	1.219222	0.838637	0.550312
N119	N	0.770326	0.355504	0.053785
N120	N	1.270326	0.855504	0.553785
H121	H	0.809073	0.300576	-0.019051
H122	H	1.309073	0.800576	0.480949
H123	H	0.731369	0.593966	0.027693
H124	H	1.231369	1.093966	0.527693
N125	N	0.756156	0.000195	0.704637
N126	N	1.256156	0.500195	1.204637
N127	N	0.781520	0.102122	0.725891
N128	N	1.281520	0.602122	1.225891
H129	H	0.824222	0.102151	0.665915
H130	H	1.324222	0.602151	1.165915
H131	H	0.582394	0.406379	0.307052
H132	H	1.082394	0.906379	0.807052
H133	H	0.343253	0.000159	0.385983
H134	H	0.843253	0.500159	0.885983
N135	N	0.594505	0.661791	0.284334
N136	N	1.094505	1.161791	0.784334
N137	N	0.555356	0.746756	0.258328
N138	N	1.055356	1.246756	0.758328
H139	H	0.516579	0.801784	0.331024
H140	H	1.016579	1.301784	0.831024
N141	N	0.557604	0.000162	0.630167
N142	N	1.057604	0.500162	1.130167
N143	N	0.547284	0.000150	0.749863
N144	N	1.047284	0.500150	1.249863
H145	H	0.504585	0.000144	0.809872
H146	H	1.004585	0.500144	1.309872
H147	H	0.602287	0.000141	0.808856
H148	H	1.102287	0.500141	1.308856
H149	H	0.160297	0.000160	0.498715
H150	H	0.660297	0.500160	0.998715
H151	H	0.052818	0.000188	0.495807
H152	H	0.552818	0.500188	0.995807
N153	N	-0.211707	0.000197	0.395339
N154	N	0.288293	0.500197	0.895339
N155	N	-0.207976	-0.101716	0.456948
N156	N	0.292024	0.398284	0.956948
H157	H	-0.242249	-0.101713	0.540929
H158	H	0.257751	0.398287	1.040929
N159	N	0.405703	0.000133	-0.063812
N160	N	0.905703	0.500133	0.436188
N161	N	0.448127	0.000124	-0.167736
N162	N	0.948127	0.500124	0.332264
H163	H	0.439666	0.000127	-0.252886
H164	H	0.939666	0.500127	0.247114
N165	N	-0.091947	0.000180	0.398591
N166	N	0.408053	0.500180	0.898591
N167	N	-0.134374	0.000173	0.502506
N168	N	0.365626	0.500173	1.002506
H169	H	-0.125916	0.000166	0.587660
H170	H	0.374084	0.500166	1.087660
H171	H	-0.136971	0.000178	-0.054108
H172	H	0.363029	0.500178	0.445892
N173	N	0.723753	0.000182	0.508703
N174	N	1.223753	0.500182	1.008703
N175	N	0.766270	0.000179	0.554165
N176	N	1.266270	0.500179	1.054165
H177	H	0.808975	0.000183	0.494183
H178	H	1.308975	0.500183	0.994183
N179	N	-0.019654	0.000208	-0.075324
N180	N	0.480346	0.500208	0.424676
N181	N	-0.030156	0.000208	-0.180675
N182	N	0.469844	0.500208	0.319325
H183	H	0.004106	0.000215	-0.264671
H184	H	0.504106	0.500215	0.235329
H185	H	0.153471	0.000230	-0.163929
H186	H	0.653471	0.500230	0.336071
H187	H	0.515629	0.000128	-0.036428
H188	H	1.015629	0.500128	0.463572
