data_functionalizedCrystal
_audit_creation_method	'MofGen! by Chris Wilmer'
_symmetry_space_group_name_H-M	'P1'
_symmetry_Int_Tables_number	1
_symmetry_cell_setting	triclinic
loop_
_symmetry_equiv_pos_as_xyz
  x,y,z
_cell_length_a	18.050589
_cell_length_b	19.077236
_cell_length_c	19.077174
_cell_angle_alpha	85.294282
_cell_angle_beta	92.276796
_cell_angle_gamma	92.321157
loop_
_atom_site_label
_atom_site_type_symbol
_atom_site_fract_x
_atom_site_fract_y
_atom_site_fract_z
Zn1	Zn	-0.268141	1.093723	-0.441989
Zn2	Zn	-0.387542	1.088901	-0.324108
Zn3	Zn	-0.268152	0.971104	-0.319372
Zn4	Zn	-0.397080	0.975791	-0.437213
O5	O	-0.330229	1.032379	-0.380671
O6	O	-0.279983	1.191736	-0.430333
O7	O	-0.367717	1.069295	-0.224829
O8	O	-0.164224	0.987426	-0.335654
O9	O	-0.367706	1.188194	-0.343726
O10	O	-0.164216	1.077514	-0.425741
O11	O	-0.280002	0.982751	-0.221350
O12	O	-0.289251	0.873072	-0.331023
O13	O	-0.383963	0.995414	-0.536497
O14	O	-0.383974	0.876516	-0.417600
O15	O	-0.289232	1.082058	-0.540006
O16	O	-0.492733	1.073840	-0.339095
O17	O	-0.499741	0.990738	-0.422193
C18	C	-0.337649	0.849214	-0.373280
C19	C	-0.340842	0.770856	-0.370135
C20	C	-0.296748	0.735891	-0.413818
C21	C	-0.299745	0.662265	-0.410857
C22	C	-0.346840	0.623606	-0.364216
C23	C	-0.390936	0.658575	-0.320528
C24	C	-0.387935	0.732200	-0.323486
C25	C	-0.360700	0.403213	-0.350523
C26	C	-0.363700	0.329584	-0.347570
C27	C	-0.272507	0.333278	-0.437898
C28	C	-0.269513	0.406904	-0.440854
C29	C	-0.313606	0.441868	-0.397164
N30	N	-0.349906	0.548348	-0.361190
N31	N	-0.310536	0.517124	-0.400188
C32	C	-0.523184	1.032294	-0.380656
C33	C	-0.605729	1.032323	-0.380675
C34	C	-0.809015	0.987178	-0.425849
C35	C	-0.856535	0.967413	-0.360830
C36	C	-0.756857	1.032392	-0.380687
C37	C	-0.856418	1.052192	-0.445715
C38	C	-0.902840	1.032459	-0.380704
C39	C	-0.803289	1.012592	-0.315633
C40	C	-0.803169	1.097403	-0.400562
C41	C	-0.850664	1.077661	-0.335500
C42	C	-0.672760	1.032352	-0.380678
C43	C	-0.986935	1.032498	-0.380706
C44	C	-0.136520	1.032485	-0.380702
C45	C	-0.053973	1.032530	-0.380715
C46	C	-0.337660	1.039797	-0.564546
C47	C	-0.340827	1.042957	-0.642902
C48	C	-0.322780	1.216260	-0.388091
C49	C	-0.319605	1.294619	-0.391252
C50	C	-0.296647	0.999385	-0.677903
C51	C	-0.299629	1.002352	-0.751527
C52	C	-0.346787	1.048896	-0.790150
C53	C	-0.390972	1.092470	-0.755145
C54	C	-0.387993	1.089499	-0.681522
C55	C	-0.360596	1.062610	-1.010534
C56	C	-0.363569	1.065580	-1.084162
C57	C	-0.272227	0.975461	-1.080539
C58	C	-0.269249	0.972497	-1.006915
C59	C	-0.313437	1.016068	-0.971916
N60	N	-0.349834	1.051931	-0.865406
N61	N	-0.310393	1.013029	-0.896661
C62	C	-0.322771	1.025032	-0.197513
C63	C	-0.319389	1.022008	-0.119162
H64	H	-0.258400	0.767363	-0.451800
H65	H	-0.396605	0.431671	-0.314948
Cl66	Cl	-0.892626	0.882575	-0.334879
H67	H	-0.402054	0.298109	-0.309589
H68	H	-0.236252	0.939987	-1.109043
H69	H	-0.423964	1.124985	-0.653026
H70	H	-0.790601	0.948880	-0.463982
Cl71	Cl	-0.767053	1.182220	-0.426540
Cl72	Cl	-0.892356	1.078007	-0.530608
H73	H	-0.401972	1.103484	-1.115607
H74	H	-0.263840	0.633800	-0.446429
Cl75	Cl	-0.210310	0.455500	-0.499496
Cl76	Cl	-0.217077	0.289320	-0.492817
Cl77	Cl	-0.443371	0.776156	-0.268569
Cl78	Cl	-0.450138	0.609974	-0.261890
Cl79	Cl	-0.767501	0.986680	-0.230709
Cl80	Cl	-0.237355	0.940874	-0.629355
H81	H	-0.263656	0.966869	-0.780020
Cl82	Cl	-0.416140	1.117392	-0.966545
Cl83	Cl	-0.450262	1.150978	-0.803699
Cl84	Cl	-0.878879	1.136738	-0.276478
H85	H	-0.230850	0.934594	-0.975472
