data_functionalizedCrystal
_audit_creation_method	'MofGen! by Chris Wilmer'
_symmetry_space_group_name_H-M	'P1'
_symmetry_Int_Tables_number	1
_symmetry_cell_setting	triclinic
loop_
_symmetry_equiv_pos_as_xyz
  x,y,z
_cell_length_a	19.188905
_cell_length_b	19.188930
_cell_length_c	10.268362
_cell_angle_alpha	89.989600
_cell_angle_beta	89.988290
_cell_angle_gamma	83.139668
loop_
_atom_site_label
_atom_site_type_symbol
_atom_site_fract_x
_atom_site_fract_y
_atom_site_fract_z
O1	O	0.926156	0.087085	-0.108529
O2	O	0.722842	0.098837	-0.108487
O3	O	0.830366	-0.008695	-0.108484
O4	O	0.818632	0.194617	-0.108532
O5	O	0.830357	-0.008699	0.108117
O6	O	0.722833	0.098833	0.108114
O7	O	0.926147	0.087081	0.108071
Cu8	Cu	0.824489	0.092956	0.127870
Cu9	Cu	0.824500	0.092962	-0.128285
O10	O	0.818623	0.194613	0.108068
C11	C	0.696826	0.098458	-0.000181
C12	C	0.619321	0.097324	-0.000163
C13	C	0.582934	0.096782	-0.118236
C14	C	0.510110	0.095709	-0.118252
C15	C	0.473678	0.095164	-0.000188
C16	C	0.510073	0.095710	0.117899
C17	C	0.582894	0.096790	0.117912
N18	N	0.364654	0.053733	0.087684
N19	N	0.295477	0.052706	0.087664
C20	C	0.254272	0.091911	-0.000219
N21	N	0.284857	0.132174	-0.088102
N22	N	0.354041	0.133198	-0.088086
C23	C	0.394716	0.093993	-0.000189
C24	C	0.138921	0.090206	-0.118317
C25	C	0.066095	0.089138	-0.118328
C26	C	0.066061	0.089132	0.117827
C27	C	0.138884	0.090208	0.117834
C28	C	0.175310	0.090742	-0.000241
C29	C	0.829982	-0.034708	-0.000180
C30	C	0.828841	-0.112213	-0.000168
C31	C	0.891933	-0.157142	-0.000175
C32	C	0.890861	-0.229966	-0.000196
C33	C	0.826694	-0.257857	-0.000183
C34	C	0.763594	-0.212917	-0.000184
C35	C	0.764668	-0.140095	-0.000176
N36	N	0.777643	-0.365859	0.073540
N37	N	0.776627	-0.435037	0.073536
C38	C	0.823456	-0.477265	-0.000209
N39	N	0.871349	-0.447702	-0.073933
N40	N	0.872366	-0.378518	-0.073923
C41	C	0.825523	-0.336819	-0.000192
C42	C	0.885390	-0.601159	-0.000240
C43	C	0.884315	-0.673984	-0.000269
C44	C	0.757047	-0.656933	-0.000244
C45	C	0.758123	-0.584110	-0.000228
C46	C	0.822296	-0.556228	-0.000220
C47	C	0.952163	0.087460	-0.000238
C48	C	1.029668	0.088594	-0.000264
N49	N	0.824486	0.092952	0.308036
C50	C	0.819007	0.220626	-0.000239
C51	C	0.820148	0.298131	-0.000259
N52	N	0.824508	0.092960	-0.308451
C53	C	0.824496	0.092960	0.573706
C54	C	0.824489	0.092958	0.425868
H55	H	0.036398	0.088693	0.213956
H56	H	0.711349	-0.235631	-0.000176
H57	H	0.944187	-0.134445	-0.000173
H58	H	0.168580	0.090649	-0.214461
H59	H	0.036470	0.088701	-0.214481
C60	C	0.686464	-0.687605	-0.000234
H61	H	0.694860	-0.737410	-0.000234
H62	H	0.660499	-0.672157	-0.075760
H63	H	0.660492	-0.672179	0.075316
C64	C	0.178912	0.090795	0.247715
H65	H	0.146788	0.090312	0.318029
H66	H	0.201864	0.131922	0.252621
H67	H	0.212775	0.050504	0.252635
C68	C	0.955976	-0.570485	-0.000246
H69	H	0.993399	-0.607676	-0.000273
H70	H	0.959038	-0.542442	0.075292
H71	H	0.959042	-0.542420	-0.075785
C72	C	0.688721	-0.534686	-0.000198
H73	H	0.650351	-0.561724	-0.000183
H74	H	0.686496	-0.505911	-0.075725
H75	H	0.686495	-0.505936	0.075351
C76	C	0.960262	-0.279400	-0.000195
H77	H	0.950430	-0.326764	-0.000207
H78	H	0.986576	-0.270977	0.075339
H79	H	0.986591	-0.270963	-0.075737
C80	C	0.695264	-0.090671	-0.000156
H81	H	0.656893	-0.117708	-0.000146
H82	H	0.693040	-0.061895	-0.075681
H83	H	0.693036	-0.061922	0.075395
C84	C	0.953720	-0.723407	-0.000274
H85	H	0.992090	-0.696368	-0.000256
H86	H	0.955956	-0.752160	-0.075811
H87	H	0.955937	-0.752178	0.075265
H88	H	0.612588	0.097216	-0.214382
H89	H	0.480478	0.095268	-0.214403
H90	H	0.612520	0.097232	0.214064
C91	C	0.469994	0.095163	0.247765
H92	H	0.421411	0.094452	0.230848
H93	H	0.476480	0.136063	0.296208
H94	H	0.487357	0.054644	0.296354
