data_functionalizedCrystal
_audit_creation_method	'MofGen! by Chris Wilmer'
_symmetry_space_group_name_H-M	'P1'
_symmetry_Int_Tables_number	1
_symmetry_cell_setting	triclinic
loop_
_symmetry_equiv_pos_as_xyz
  x,y,z
_cell_length_a	10.654550
_cell_length_b	16.992695
_cell_length_c	9.730223
_cell_angle_alpha	89.995280
_cell_angle_beta	89.999957
_cell_angle_gamma	87.576577
loop_
_atom_site_label
_atom_site_type_symbol
_atom_site_fract_x
_atom_site_fract_y
_atom_site_fract_z
O1	O	1.677361	0.110190	-0.114188
O2	O	1.312790	0.120688	-0.114214
O3	O	1.493614	0.001288	-0.114190
O4	O	1.496537	0.229590	-0.114212
O5	O	1.493601	0.001285	0.114390
O6	O	1.312777	0.120685	0.114366
O7	O	1.677349	0.110187	0.114391
Zn8	Zn	1.495061	0.115435	0.150671
Zn9	Zn	1.495078	0.115439	-0.150493
O10	O	1.496525	0.229586	0.114368
C11	C	1.265919	0.119916	0.000073
C12	C	1.126277	0.117609	0.000064
C13	C	1.052866	0.187910	0.000061
C14	C	0.921658	0.185738	0.000085
C15	C	0.937282	0.042959	0.000109
C16	C	1.068488	0.045132	0.000095
C17	C	1.489848	-0.027946	0.000099
C18	C	1.478628	-0.115051	0.000098
C19	C	1.586879	-0.164703	0.000107
C20	C	1.576330	-0.246547	0.000093
C21	C	1.457529	-0.278738	0.000080
C22	C	1.349270	-0.229080	0.000067
C23	C	1.359820	-0.147237	0.000071
C24	C	1.413802	-0.522573	0.000058
C25	C	1.403260	-0.604422	0.000059
C26	C	1.630321	-0.621884	0.000082
C27	C	1.640861	-0.540039	0.000094
C28	C	1.532602	-0.490388	0.000074
N29	N	1.446743	-0.362395	0.000071
N30	N	1.543389	-0.406733	0.000074
C31	C	1.724220	0.110959	0.000102
C32	C	1.863862	0.113265	0.000102
C33	C	1.500291	0.258821	0.000075
C34	C	1.511510	0.345926	0.000068
N35	N	1.495059	0.115432	0.356207
N36	N	1.495089	0.115437	-0.356030
C37	C	1.575159	0.062584	0.428144
C38	C	1.575171	0.062584	0.572026
C39	C	1.414980	0.168287	0.572024
C40	C	1.414962	0.168282	0.428144
H41	H	0.861892	0.242984	0.000086
H42	H	1.718458	-0.662318	0.000096
H43	H	0.890215	-0.016050	0.000142
O44	O	1.337245	0.219734	0.641751
C45	C	1.365466	0.297516	0.606591
H46	H	1.413880	0.297696	0.502119
H47	H	1.430447	0.322147	0.687554
C48	C	1.183653	0.348740	0.728256
C49	C	1.243106	0.348963	0.599936
H50	H	1.108178	0.380477	0.724156
H51	H	1.164642	0.296338	0.751949
H52	H	1.237817	0.369265	0.795712
H53	H	1.188949	0.328430	0.532487
H54	H	1.262106	0.401364	0.576232
H55	H	1.349729	0.211317	0.369569
O56	O	1.681613	-0.294666	0.000172
C57	C	1.788731	-0.248704	0.000162
H58	H	1.762959	-0.187807	0.043435
H59	H	1.824778	-0.242678	-0.109491
C60	C	1.923512	-0.363696	0.036673
C61	C	1.891861	-0.288902	0.089833
H62	H	1.987131	-0.388493	0.091980
H63	H	1.851345	-0.394662	0.036675
H64	H	1.953543	-0.358664	-0.054704
H65	H	1.861816	-0.293936	0.181201
H66	H	1.964025	-0.257938	0.089849
H67	H	1.099913	0.246926	0.000046
H68	H	1.737601	-0.513836	0.000105
O69	O	1.308737	-0.474267	0.000230
C70	C	1.308020	-0.426420	0.118628
H71	H	1.408167	-0.421743	0.158105
H72	H	1.247924	-0.453655	0.201521
C73	C	1.130135	-0.349429	0.034172
C74	C	1.253138	-0.343679	0.082651
H75	H	1.096276	-0.298392	0.011983
H76	H	1.130614	-0.381666	-0.045593
H77	H	1.080071	-0.372128	0.103257
H78	H	1.303204	-0.320990	0.013560
H79	H	1.252666	-0.311436	0.162404
H80	H	1.683620	-0.138501	0.000126
H81	H	1.306513	-0.630628	0.000070
O82	O	1.652992	0.011167	0.358476
C83	C	1.723713	-0.035465	0.452830
H84	H	1.672120	-0.036645	0.555400
H85	H	1.819609	-0.009449	0.468112
C86	C	1.804484	-0.118501	0.270720
C87	C	1.741112	-0.119956	0.396695
H88	H	1.815223	-0.170619	0.236092
H89	H	1.756842	-0.087083	0.207150
H90	H	1.884391	-0.096817	0.283472
H91	H	1.661201	-0.141630	0.383938
H92	H	1.788741	-0.151380	0.460262
H93	H	1.252539	-0.255296	0.000048
H94	H	1.640394	0.019550	0.630593
H95	H	1.128262	-0.012119	0.000101
H96	H	1.271671	-0.106811	0.000064
