data_functionalizedCrystal
_audit_creation_method	'MofGen! by Chris Wilmer'
_symmetry_space_group_name_H-M	'P1'
_symmetry_Int_Tables_number	1
_symmetry_cell_setting	triclinic
loop_
_symmetry_equiv_pos_as_xyz
  x,y,z
_cell_length_a	14.519709
_cell_length_b	14.519709
_cell_length_c	7.088929
_cell_angle_alpha	83.763835
_cell_angle_beta	96.220807
_cell_angle_gamma	83.680145
loop_
_atom_site_label
_atom_site_type_symbol
_atom_site_fract_x
_atom_site_fract_y
_atom_site_fract_z
O1	O	1.214430	0.130341	-0.158746
O2	O	1.464430	0.380341	0.091254
O3	O	1.714430	0.630341	0.341254
O4	O	1.964430	0.880341	0.591254
O5	O	0.945950	0.144582	-0.158805
O6	O	1.195950	0.394582	0.091195
O7	O	1.445950	0.644582	0.341195
O8	O	1.695950	0.894582	0.591195
O9	O	1.087310	0.003222	-0.158757
O10	O	1.337310	0.253222	0.091243
O11	O	1.587310	0.503222	0.341243
O12	O	1.837310	0.753222	0.591243
O13	O	1.073071	0.271701	-0.158794
O14	O	1.323071	0.521701	0.091206
O15	O	1.573071	0.771701	0.341206
O16	O	1.823071	1.021701	0.591206
O17	O	1.106201	-0.015712	0.159225
O18	O	1.356201	0.234288	0.409225
O19	O	1.606201	0.484288	0.659225
O20	O	1.856201	0.734288	0.909225
O21	O	0.964841	0.125647	0.159177
O22	O	1.214841	0.375647	0.409177
O23	O	1.464841	0.625647	0.659177
O24	O	1.714841	0.875647	0.909177
O25	O	1.233322	0.111407	0.159236
O26	O	1.483322	0.361407	0.409236
O27	O	1.733322	0.611407	0.659236
O28	O	1.983322	0.861407	0.909236
Cu29	Cu	1.100806	0.116799	0.188240
Cu30	Cu	1.350806	0.366799	0.438240
Cu31	Cu	1.600806	0.616799	0.688240
Cu32	Cu	1.850806	0.866799	0.938240
Cu33	Cu	1.078465	0.139190	-0.187810
Cu34	Cu	1.328465	0.389190	0.062190
Cu35	Cu	1.578465	0.639190	0.312190
Cu36	Cu	1.828465	0.889190	0.562190
O37	O	1.091962	0.252767	0.159187
O38	O	1.341962	0.502767	0.409187
O39	O	1.591962	0.752767	0.659187
O40	O	1.841962	1.002767	0.909187
C41	C	0.921035	0.134451	0.000179
C42	C	1.171035	0.384451	0.250179
C43	C	1.421035	0.634451	0.500179
C44	C	1.671035	0.884451	0.750179
C45	C	0.818653	0.132465	0.000157
C46	C	1.068653	0.382465	0.250157
C47	C	1.318653	0.632465	0.500157
C48	C	1.568653	0.882465	0.750157
C49	C	0.443762	0.125140	0.000245
C50	C	0.693762	0.375140	0.250245
C51	C	0.943762	0.625140	0.500245
C52	C	1.193762	0.875140	0.750245
C53	C	0.548069	0.127174	0.000220
C54	C	0.798069	0.377174	0.250220
C55	C	1.048069	0.627174	0.500220
C56	C	1.298069	0.877174	0.750220
C57	C	0.631204	0.128802	0.000199
C58	C	0.881204	0.378802	0.250199
C59	C	1.131204	0.628802	0.500199
C60	C	1.381204	0.878802	0.750199
C61	C	0.735517	0.130836	0.000177
C62	C	0.985517	0.380836	0.250177
C63	C	1.235517	0.630836	0.500177
C64	C	1.485517	0.880836	0.750177
C65	C	1.096092	-0.040605	0.000234
C66	C	1.346092	0.209395	0.250234
C67	C	1.596092	0.459395	0.500234
C68	C	1.846092	0.709395	0.750234
C69	C	1.094103	-0.142986	0.000235
C70	C	1.344103	0.107014	0.250235
C71	C	1.594103	0.357014	0.500235
C72	C	1.844103	0.607014	0.750235
C73	C	1.086781	-0.517879	0.000184
C74	C	1.336781	-0.267879	0.250184
C75	C	1.586781	-0.017879	0.500184
C76	C	1.836781	0.232121	0.750184
C77	C	1.088814	-0.413572	0.000199
C78	C	1.338814	-0.163572	0.250199
C79	C	1.588814	0.086428	0.500199
C80	C	1.838814	0.336428	0.750199
C81	C	1.090442	-0.330436	0.000211
C82	C	1.340442	-0.080436	0.250211
C83	C	1.590442	0.169564	0.500211
C84	C	1.840442	0.419564	0.750211
C85	C	1.092476	-0.226122	0.000222
C86	C	1.342476	0.023878	0.250222
C87	C	1.592476	0.273878	0.500222
C88	C	1.842476	0.523878	0.750222
C89	C	1.258236	0.121538	0.000248
C90	C	1.508236	0.371538	0.250248
C91	C	1.758236	0.621538	0.500248
C92	C	2.008236	0.871538	0.750248
C93	C	1.360618	0.123525	0.000257
C94	C	1.610618	0.373525	0.250257
C95	C	1.860618	0.623525	0.500257
C96	C	2.110618	0.873525	0.750257
C97	C	1.083180	0.296594	0.000192
C98	C	1.333180	0.546594	0.250192
C99	C	1.583180	0.796594	0.500192
C100	C	1.833180	1.046594	0.750192
C101	C	1.085167	0.398976	0.000179
C102	C	1.335167	0.648976	0.250179
C103	C	1.585167	0.898976	0.500179
C104	C	1.835167	1.148976	0.750179
N105	N	1.116526	0.101049	0.452734
N106	N	1.366526	0.351049	0.702734
N107	N	1.616526	0.601049	0.952734
N108	N	1.866526	0.851049	1.202734
N109	N	1.062752	0.154933	-0.452303
N110	N	1.312752	0.404933	-0.202303
N111	N	1.562752	0.654933	0.047697
N112	N	1.812752	0.904933	0.297697
H113	H	1.007022	0.210772	0.466032
H114	H	1.257022	0.460772	0.716032
H115	H	1.507022	0.710772	0.966032
H116	H	1.757022	0.960772	1.216032
Cl117	Cl	1.202587	0.014841	0.578823
Cl118	Cl	1.452587	0.264841	0.828823
Cl119	Cl	1.702587	0.514841	1.078823
Cl120	Cl	1.952587	0.764841	1.328823
