data_functionalizedCrystal
_audit_creation_method	'MofGen! by Chris Wilmer'
_symmetry_space_group_name_H-M	'P1'
_symmetry_Int_Tables_number	1
_symmetry_cell_setting	triclinic
loop_
_symmetry_equiv_pos_as_xyz
  x,y,z
_cell_length_a	14.395555
_cell_length_b	14.560438
_cell_length_c	14.560438
_cell_angle_alpha	59.996693
_cell_angle_beta	90.002728
_cell_angle_gamma	60.000951
loop_
_atom_site_label
_atom_site_type_symbol
_atom_site_fract_x
_atom_site_fract_y
_atom_site_fract_z
Zr1	Zr	0.894919	1.005276	-0.120544
O2	O	0.746586	1.196893	-0.267212
O3	O	0.940390	0.813665	-0.075573
O4	O	0.940386	1.005276	-0.267190
O5	O	0.746593	1.005279	0.075545
O6	O	1.093260	1.005269	-0.267182
O7	O	0.746589	1.005282	-0.075596
O8	O	1.093266	0.662512	0.075585
O9	O	0.746587	1.348037	-0.267222
O10	O	1.073872	0.892470	-0.056398
O11	O	0.959787	0.892473	0.056390
O12	O	0.959782	1.118071	-0.169213
O13	O	0.845697	1.118074	-0.056425
Zr14	Zr	1.138741	1.005261	0.120521
Zr15	Zr	1.138735	1.005265	-0.120531
Zr16	Zr	0.894925	1.005272	0.120509
Zr17	Zr	0.894920	1.246333	-0.120559
Zr18	Zr	1.138740	0.764204	0.120537
O19	O	1.093270	1.196872	0.075551
O20	O	1.093262	1.196878	-0.267194
O21	O	0.746595	1.196887	0.075533
O22	O	1.287074	0.813644	0.267190
O23	O	1.287065	0.813649	-0.075555
O24	O	0.940398	0.813659	0.267172
O25	O	1.287067	1.005258	-0.075567
O26	O	1.093274	1.005260	0.267168
O27	O	0.940400	1.005267	0.267160
O28	O	1.287071	1.005255	0.075573
O29	O	0.940389	1.348028	-0.267212
O30	O	1.093271	0.662509	0.267190
O31	O	1.287073	0.662500	0.267200
O32	O	1.287068	0.662503	0.075595
O33	O	0.746592	1.348034	-0.075618
O34	O	0.940394	1.348025	-0.075608
O35	O	1.073878	0.892466	0.169191
O36	O	1.187963	0.892463	0.056402
O37	O	1.073874	1.118064	-0.056413
O38	O	0.959788	1.118067	0.056376
C39	C	1.016828	0.703743	0.000008
C40	C	1.016827	0.601408	0.000015
C41	C	0.932603	0.636627	-0.083272
C42	C	0.932608	0.540487	-0.083301
C43	C	1.101065	0.373910	0.083254
C44	C	1.101064	0.470049	0.083277
C45	C	0.711853	1.005282	-0.000027
C46	C	0.608346	1.005287	-0.000033
C47	C	0.485551	1.128294	-0.061535
C48	C	0.454714	1.066804	-0.106096
C49	C	0.454760	1.066772	0.044521
C50	C	0.578873	0.943795	-0.044656
C51	C	0.578916	0.943782	0.106020
C52	C	0.548152	0.882201	0.061485
C53	C	1.321807	1.005255	0.000005
C54	C	1.425314	1.005250	0.000010
C55	C	1.016822	1.005273	-0.301531
C56	C	1.016820	1.005275	-0.403864
C57	C	1.016832	1.306794	-0.000031
C58	C	1.016833	1.409129	-0.000037
C59	C	0.957267	1.123034	-0.510828
C60	C	0.957281	1.123028	-0.606977
C61	C	1.076400	0.887493	-0.489183
C62	C	1.076393	0.887501	-0.393036
C63	C	1.016838	1.005263	0.301508
C64	C	1.016840	1.005262	0.403841
C65	C	1.321805	0.703729	0.000024
C66	C	1.425311	0.601390	0.000036
C67	C	1.016836	0.703738	0.301528
C68	C	1.016837	0.601401	0.403867
C69	C	1.321813	0.703724	0.301544
C70	C	1.425321	0.601383	0.403889
C71	C	0.711847	1.306813	-0.301566
C72	C	0.608339	1.409154	-0.403911
C73	C	0.711855	1.306808	-0.000047
C74	C	0.608349	1.409147	-0.000059
C75	C	1.016825	1.306799	-0.301550
C76	C	1.016823	1.409136	-0.403890
C77	C	1.414387	0.553311	-0.058836
C78	C	1.511645	0.457160	-0.058829
C79	C	1.630749	0.457170	0.058933
C80	C	1.533491	0.553326	0.058918
C81	C	1.076392	0.553318	0.510827
C82	C	1.076380	0.457170	0.606982
C83	C	0.957259	0.457195	0.489203
C84	C	0.957264	0.553347	0.393051
C85	C	1.533501	0.553299	0.393099
C86	C	1.630754	0.457147	0.489267
C87	C	1.511634	0.457167	0.607011
C88	C	1.414383	0.553324	0.510844
H89	H	0.864026	0.569175	-0.151123
Br90	Br	1.157238	0.727665	-0.474499
H91	H	0.573810	0.778102	0.113501
Br92	Br	1.157220	0.727673	-0.247858
Br93	Br	1.777567	0.391932	0.138844
Br94	Br	1.267555	0.618599	0.525487
Br95	Br	1.215383	0.422250	0.196312
H96	H	0.864006	0.743582	-0.151064
Br97	Br	1.267573	0.618543	-0.138751
Br98	Br	1.215377	0.195637	0.196252
Br99	Br	0.668120	0.857202	0.255445
H100	H	0.460107	1.232308	-0.113624
H101	H	1.124874	0.418027	0.694071
Br102	Br	0.876423	0.618621	0.247878
Br103	Br	0.365510	1.153450	-0.255549
H104	H	0.908759	0.418056	0.480410
H105	H	1.502740	0.418021	-0.106771
H106	H	0.632230	0.891846	-0.082422
Br107	Br	1.548317	0.618592	0.138813
Br108	Br	1.548347	0.618525	0.247949
H109	H	0.401256	1.118783	0.082183
Br110	Br	0.876427	1.282870	-0.525524
H111	H	0.908789	1.218920	-0.694069
Br112	Br	1.157239	0.618532	0.525509
Br113	Br	1.777570	0.391898	0.474617
H114	H	1.502742	0.418025	0.694103
