data_functionalizedCrystal
_audit_creation_method	'MofGen! by Chris Wilmer'
_symmetry_space_group_name_H-M	'P1'
_symmetry_Int_Tables_number	1
_symmetry_cell_setting	triclinic
loop_
_symmetry_equiv_pos_as_xyz
  x,y,z
_cell_length_a	21.395364
_cell_length_b	15.297327
_cell_length_c	21.395364
_cell_angle_alpha	80.327192
_cell_angle_beta	90.017013
_cell_angle_gamma	99.721665
loop_
_atom_site_label
_atom_site_type_symbol
_atom_site_fract_x
_atom_site_fract_y
_atom_site_fract_z
Zn1	Zn	0.914670	-0.359086	0.397403
Zn2	Zn	1.414670	0.140914	0.897403
Zn3	Zn	0.896466	-0.509909	0.310746
Zn4	Zn	1.396466	-0.009909	0.810746
Zn5	Zn	0.809899	-0.359087	0.292640
Zn6	Zn	1.309899	0.140913	0.792640
Zn7	Zn	0.791727	-0.509964	0.415493
Zn8	Zn	1.291727	-0.009964	0.915493
O9	O	0.853191	-0.434511	0.354071
O10	O	1.353191	0.065489	0.854071
O11	O	0.999936	-0.379069	0.385915
O12	O	1.499936	0.120931	0.885915
O13	O	0.884969	-0.489880	0.220664
O14	O	1.384969	0.010120	0.720664
O15	O	0.839021	-0.232823	0.291389
O16	O	1.339021	0.267177	0.791389
O17	O	0.986562	-0.489879	0.322249
O18	O	1.486562	0.010121	0.822249
O19	O	0.915996	-0.232823	0.368358
O20	O	1.415996	0.267177	0.868358
O21	O	0.821369	-0.379071	0.207361
O22	O	1.321369	0.120929	0.707361
O23	O	0.719808	-0.379124	0.308930
O24	O	1.219808	0.120876	0.808930
O25	O	0.808050	-0.489972	0.500774
O26	O	1.308050	0.010028	1.000774
O27	O	0.706457	-0.489973	0.399190
O28	O	1.206457	0.010027	0.899190
O29	O	0.898375	-0.379122	0.487483
O30	O	1.398375	0.120878	0.987483
O31	O	0.867349	-0.636179	0.339789
O32	O	1.367349	-0.136179	0.839789
O33	O	0.790398	-0.636219	0.416746
O34	O	1.290398	-0.136219	0.916746
C35	C	0.690398	-0.434555	0.354058
C36	C	1.190398	0.065445	0.854058
C37	C	0.620752	-0.434596	0.354071
C38	C	1.120752	0.065404	0.854071
C39	C	0.595014	-0.376992	0.387295
C40	C	1.095014	0.123008	0.887295
C41	C	0.529581	-0.376968	0.387295
C42	C	1.029581	0.123032	0.887295
C43	C	0.489887	-0.434564	0.354078
C44	C	0.989887	0.065436	0.854078
C45	C	0.515633	-0.492172	0.320846
C46	C	1.015633	0.007828	0.820846
C47	C	0.581065	-0.492188	0.320843
C48	C	1.081065	0.007812	0.820843
C49	C	0.376401	-0.515818	0.358803
C50	C	0.876401	-0.015818	0.858803
C51	C	0.310970	-0.515803	0.358811
C52	C	0.810970	-0.015803	0.858811
C53	C	0.288072	-0.434514	0.354086
C54	C	0.788072	0.065486	0.854086
C55	C	0.330614	-0.353237	0.349366
C56	C	0.830614	0.146763	0.849366
C57	C	0.396047	-0.353253	0.349362
C58	C	0.896047	0.146747	0.849362
C59	C	0.418936	-0.434553	0.354078
C60	C	0.918936	0.065447	0.854078
C61	C	0.191386	-0.376879	0.387312
C62	C	0.691386	0.123121	0.887312
C63	C	0.125952	-0.376854	0.387307
C64	C	0.625952	0.123146	0.887307
C65	C	0.112004	-0.492066	0.320863
C66	C	0.612004	0.007934	0.820863
C67	C	0.177437	-0.492083	0.320864
C68	C	0.677437	0.007917	0.820864
C69	C	0.217124	-0.434491	0.354091
C70	C	0.717124	0.065509	0.854091
C71	C	0.824943	-0.668938	0.382209
C72	C	1.324943	-0.168938	0.882209
C73	C	0.812916	-0.769227	0.394268
C74	C	1.312916	-0.269227	0.894268
C75	C	0.939409	-1.051715	0.268099
C76	C	1.439409	-0.551715	0.768099
C77	C	0.950709	-0.957489	0.256766
C78	C	1.450709	-0.457489	0.756766
C79	C	0.916262	-0.910419	0.291140
C80	C	1.416262	-0.410419	0.791140
C81	C	0.870513	-0.957584	0.336850
C82	C	1.370513	-0.457584	0.836850
C83	C	0.859208	-1.051819	0.348181
C84	C	1.359208	-0.551819	0.848181
C85	C	0.836061	-0.910523	0.371222
C86	C	1.336061	-0.410523	0.871222
C87	C	0.790311	-0.957688	0.416932
C88	C	1.290311	-0.457688	0.916932
C89	C	0.779009	-1.051915	0.428261
C90	C	1.279009	-0.551915	0.928261
C91	C	0.813457	-1.098985	0.393886
C92	C	1.313457	-0.598985	0.893886
C93	C	0.847365	-0.816288	0.359892
C94	C	1.347365	-0.316288	0.859892
C95	C	0.767164	-0.816392	0.439974
C96	C	1.267164	-0.316392	0.939974
C97	C	0.755864	-0.910618	0.451306
C98	C	1.255864	-0.410618	0.951306
C99	C	1.016619	-0.434468	0.354084
C100	C	1.516619	0.065532	0.854084
C101	C	1.086263	-0.434449	0.354089
C102	C	1.586263	0.065551	0.854089
C103	C	0.853216	-0.434553	0.517499
C104	C	1.353216	0.065447	1.017499
C105	C	0.853227	-0.434571	0.587142
C106	C	1.353227	0.065429	1.087142
C107	C	0.881566	-0.199169	0.325836
C108	C	1.381566	0.300831	0.825836
C109	C	0.893658	-0.098880	0.313804
C110	C	1.393658	0.401120	0.813804
C111	C	0.900252	-0.376861	0.612937
C112	C	1.400252	0.123139	1.112937
C113	C	0.900245	-0.376846	0.678371
C114	C	1.400245	0.123154	1.178371
C115	C	0.853216	-0.434558	0.718009
C116	C	1.353216	0.065442	1.218009
C117	C	0.806183	-0.492271	0.692207
C118	C	1.306183	0.007729	1.192207
C119	C	0.806188	-0.492278	0.626773
C120	C	1.306188	0.007722	1.126773
C121	C	0.838461	-0.515840	0.831440
C122	C	1.338461	-0.015840	1.331440
C123	C	0.838460	-0.515835	0.896873
C124	C	1.338460	-0.015835	1.396873
C125	C	0.853196	-0.434536	0.919827
C126	C	1.353196	0.065464	1.419827
C127	C	0.867947	-0.353241	0.877341
C128	C	1.367947	0.146759	1.377341
C129	C	0.867952	-0.353247	0.811908
C130	C	1.367952	0.146753	1.311908
C131	C	0.853205	-0.434556	0.788961
C132	C	1.353205	0.065444	1.288961
C133	C	0.900216	-0.376806	1.016572
C134	C	1.400216	0.123194	1.516572
C135	C	0.900204	-0.376790	1.082007
C136	C	1.400204	0.123210	1.582007
C137	C	0.806144	-0.492223	1.095843
C138	C	1.306144	0.007777	1.595843
C139	C	0.806154	-0.492231	1.030408
C140	C	1.306154	0.007769	1.530408
C141	C	0.853193	-0.434524	0.990777
C142	C	1.353193	0.065476	1.490777
C143	C	0.853165	-0.434497	1.191281
C144	C	1.353165	0.065503	1.691281
C145	C	0.853174	-0.434500	1.121641
C146	C	1.353174	0.065500	1.621641
H147	H	0.508622	-0.330055	0.414348
H148	H	1.008622	0.169945	0.914348
Br149	Br	0.742354	-0.570588	0.745999
Br150	Br	1.242354	-0.070588	1.245999
H151	H	0.826453	-0.582031	0.931460
H152	H	1.326453	-0.082031	1.431460
H153	H	0.767864	-0.539230	1.009407
H154	H	1.267864	-0.039230	1.509407
Br155	Br	0.245251	-0.298716	0.432401
Br156	Br	0.745251	0.201284	0.932401
Br157	Br	0.986150	-1.115599	0.221450
Br158	Br	1.486150	-0.615599	0.721450
H159	H	0.602019	-0.539097	0.293787
H160	H	1.102019	-0.039097	0.793787
Br161	Br	0.212371	-0.570258	0.275765
Br162	Br	0.712371	-0.070258	0.775765
H163	H	0.879948	-0.287040	0.896029
H164	H	1.379948	0.212960	1.396029
Br165	Br	0.797842	-1.226868	0.408984
Br166	Br	1.297842	-0.726868	0.908984
Br167	Br	0.887967	-0.242924	0.754251
Br168	Br	1.387967	0.257076	1.254251
H169	H	0.826295	-0.582026	0.812755
H170	H	1.326295	-0.082026	1.312755
H171	H	0.311974	-0.287043	0.345518
H172	H	0.811974	0.212957	0.845518
H173	H	0.767891	-0.539271	0.605772
H174	H	1.267891	-0.039271	1.105772
Br175	Br	0.091022	-0.298663	0.432396
Br176	Br	0.591022	0.201337	0.932396
H177	H	0.079685	-0.538962	0.293817
H178	H	0.579685	-0.038962	0.793817
Br179	Br	0.407469	-0.626148	0.365204
Br180	Br	0.907469	-0.126148	0.865204
Br181	Br	0.964038	-0.298476	1.117017
Br182	Br	1.464038	0.201524	1.617017
H183	H	0.276337	-0.581984	0.362658
H184	H	0.776337	-0.081984	0.862658
Br185	Br	0.693779	-0.974639	0.513340
Br186	Br	1.193779	-0.474639	1.013340
H187	H	0.739113	-0.778068	0.467963
H188	H	1.239113	-0.278068	0.967963
Br189	Br	0.461765	-0.570332	0.275761
Br190	Br	0.961765	-0.070332	0.775761
H191	H	0.627323	-0.330095	0.414351
H192	H	1.127323	0.169905	0.914351
H193	H	0.938538	-0.329847	0.699377
H194	H	1.438538	0.170153	1.199377
H195	H	0.741750	-1.090314	0.465473
H196	H	1.241750	-0.590314	0.965473
H197	H	0.884615	-0.777894	0.322674
H198	H	1.384615	-0.277894	0.822674
Br199	Br	1.012800	-0.893485	0.194740
Br200	Br	1.512800	-0.393485	0.694740
H201	H	0.938555	-0.329870	0.580673
H202	H	1.438555	0.170130	1.080673
Br203	Br	0.964051	-0.298488	0.962783
Br204	Br	1.464051	0.201512	1.462783
Br205	Br	0.931787	-0.782538	0.275949
Br206	Br	1.431787	-0.282538	0.775949
H207	H	0.767847	-0.539203	1.128114
H208	H	1.267847	-0.039203	1.628114
H209	H	0.430682	-0.287074	0.345516
H210	H	0.930682	0.212926	0.845516
