data_functionalizedCrystal
_audit_creation_method	'MofGen! by Chris Wilmer'
_symmetry_space_group_name_H-M	'P1'
_symmetry_Int_Tables_number	1
_symmetry_cell_setting	triclinic
loop_
_symmetry_equiv_pos_as_xyz
  x,y,z
_cell_length_a	13.032831
_cell_length_b	19.121063
_cell_length_c	19.121605
_cell_angle_alpha	89.924837
_cell_angle_beta	99.909847
_cell_angle_gamma	85.565596
loop_
_atom_site_label
_atom_site_type_symbol
_atom_site_fract_x
_atom_site_fract_y
_atom_site_fract_z
Zn1	Zn	1.607510	-0.393549	0.550851
Zn2	Zn	1.592493	-0.514563	0.437275
Zn3	Zn	1.424928	-0.383652	0.417436
Zn4	Zn	1.425493	-0.495881	0.539663
O5	O	1.512606	-0.446911	0.486306
O6	O	1.751820	-0.421562	0.548770
O7	O	1.563744	-0.500875	0.335959
O8	O	1.455196	-0.287352	0.431513
O9	O	1.740786	-0.510471	0.465327
O10	O	1.589339	-0.294623	0.529532
O11	O	1.440634	-0.404695	0.321383
O12	O	1.278702	-0.386579	0.420664
O13	O	1.456160	-0.478630	0.639831
O14	O	1.279117	-0.469033	0.510464
O15	O	1.589887	-0.403446	0.648051
O16	O	1.564292	-0.609698	0.454478
O17	O	1.441598	-0.595972	0.529701
C18	C	1.240975	-0.424706	0.462197
C19	C	1.124770	-0.415222	0.451901
C20	C	1.073187	-0.451861	0.491680
C21	C	0.953083	-0.442060	0.481039
C22	C	1.501406	-0.628147	0.493046
C23	C	1.496712	-0.705688	0.495962
C24	C	1.558441	-0.749242	0.458209
C25	C	1.554033	-0.822099	0.460956
C26	C	1.487889	-0.851400	0.501452
C27	C	1.426157	-0.807840	0.539210
C28	C	1.430572	-0.734985	0.536467
C29	C	1.471366	-1.071021	0.511696
C30	C	1.466954	-1.143882	0.514435
C31	C	1.594831	-1.158136	0.436181
C32	C	1.599235	-1.085278	0.433438
C33	C	1.537508	-1.041725	0.471199
C34	C	1.483379	-0.925872	0.504259
C35	C	1.542024	-0.967255	0.468396
C36	C	1.785298	-0.469204	0.510509
C37	C	1.901503	-0.478704	0.520823
C38	C	1.524762	-0.440058	0.670244
C39	C	1.529941	-0.437137	0.748627
C40	C	1.523879	-0.264970	0.479557
C41	C	1.528683	-0.187437	0.476681
C42	C	1.500561	-0.453693	0.303087
C43	C	1.495596	-0.456433	0.224715
C44	C	1.562783	-0.418664	1.192167
C45	C	1.557909	-0.421410	1.118517
C46	C	1.485843	-0.461923	1.077416
C47	C	1.418653	-0.499697	1.109968
C48	C	1.423533	-0.496954	1.183618
C49	C	1.467631	-0.472168	0.854829
C50	C	1.462755	-0.474907	0.781175
C51	C	1.602013	-0.396621	0.789729
C52	C	1.606881	-0.393878	0.863379
C53	C	1.539696	-0.431655	0.895926
C54	C	1.480857	-0.464730	1.002133
C55	C	1.544687	-0.428851	0.971207
H56	H	1.080016	-0.376595	0.409970
H57	H	1.603366	-0.395869	1.004676
Br58	Br	1.704749	-0.338940	0.919162
Br59	Br	0.976080	-0.543072	0.590736
H60	H	1.612298	-0.725390	0.425229
Br61	Br	1.649099	-0.370152	1.074349
Br62	Br	1.383050	-0.519706	0.946346
H63	H	1.372306	-0.831703	0.572186
Br64	Br	1.637819	-0.881207	0.409722
Br65	Br	1.393616	-0.965644	0.559218
Br66	Br	1.689020	-1.045518	0.378487
Br67	Br	1.332352	-0.548219	1.227791
Br68	Br	1.346800	-0.675874	0.587710
Br69	Br	1.660578	-0.363668	1.247940
H70	H	1.645088	-1.193605	0.405440
H71	H	1.117942	-0.490482	0.533616
H72	H	1.412922	-0.502928	0.881319
Br73	Br	1.377163	-1.183646	0.569384
H74	H	0.908333	-0.403431	0.439105
H75	H	1.421103	-1.035565	0.542441
H76	H	1.595883	-0.943396	0.435426
Br77	Br	1.693179	-0.345348	0.745554
Br78	Br	1.320852	-0.554683	1.054189
H79	H	1.404045	-0.507882	0.747709
