data_functionalizedCrystal
_audit_creation_method	'MofGen! by Chris Wilmer'
_symmetry_space_group_name_H-M	'P1'
_symmetry_Int_Tables_number	1
_symmetry_cell_setting	triclinic
loop_
_symmetry_equiv_pos_as_xyz
  x,y,z
_cell_length_a	14.971482
_cell_length_b	14.853567
_cell_length_c	14.048226
_cell_angle_alpha	89.998885
_cell_angle_beta	90.004139
_cell_angle_gamma	83.623769
loop_
_atom_site_label
_atom_site_type_symbol
_atom_site_fract_x
_atom_site_fract_y
_atom_site_fract_z
O1	O	1.186969	0.117467	0.079140
O2	O	1.520302	0.450800	0.412473
O3	O	1.853635	0.784134	0.745807
O4	O	0.926571	0.131540	0.079144
O5	O	1.259904	0.464873	0.412477
O6	O	1.593237	0.798206	0.745810
O7	O	1.063725	-0.006728	0.079145
O8	O	1.397059	0.326606	0.412478
O9	O	1.730392	0.659939	0.745811
O10	O	1.049814	0.255734	0.079139
O11	O	1.383147	0.589068	0.412472
O12	O	1.716481	0.922401	0.745806
O13	O	1.063712	-0.006727	-0.079177
O14	O	1.397046	0.326607	0.254157
O15	O	1.730379	0.659940	0.587490
O16	O	0.926558	0.131541	-0.079178
O17	O	1.259891	0.464874	0.254156
O18	O	1.593224	0.798208	0.587489
O19	O	1.186956	0.117468	-0.079181
O20	O	1.520289	0.450802	0.254152
O21	O	1.853622	0.784135	0.587485
Zn22	Zn	1.056755	0.124505	-0.104316
Zn23	Zn	1.390088	0.457838	0.229017
Zn24	Zn	1.723421	0.791171	0.562350
Zn25	Zn	1.056772	0.124503	0.104279
Zn26	Zn	1.390105	0.457836	0.437612
Zn27	Zn	1.723438	0.791170	0.770945
O28	O	1.049801	0.255736	-0.079182
O29	O	1.383134	0.589069	0.254151
O30	O	1.716468	0.922402	0.587484
C31	C	0.893239	0.130912	-0.000016
C32	C	1.226573	0.464245	0.333317
C33	C	1.559906	0.797578	0.666650
C34	C	0.793942	0.129027	-0.000015
C35	C	1.127275	0.462361	0.333319
C36	C	1.460608	0.795694	0.666652
C37	C	0.747290	0.128141	-0.086317
C38	C	1.080623	0.461474	0.247017
C39	C	1.413956	0.794807	0.580350
C40	C	0.653991	0.126356	-0.086318
C41	C	0.987324	0.459689	0.247016
C42	C	1.320658	0.793023	0.580349
C43	C	0.607345	0.125464	-0.000016
C44	C	0.940678	0.458798	0.333318
C45	C	1.274012	0.792131	0.666651
C46	C	0.654004	0.126348	0.086293
C47	C	0.987337	0.459682	0.419626
C48	C	1.320670	0.793015	0.752960
C49	C	0.747302	0.128127	0.086293
C50	C	1.080635	0.461460	0.419626
C51	C	1.413968	0.794793	0.752960
C52	C	0.459541	0.122644	0.086287
C53	C	0.792874	0.455977	0.419620
C54	C	1.126208	0.789311	0.752954
C55	C	0.366236	0.120867	0.086287
C56	C	0.699570	0.454201	0.419621
C57	C	1.032903	0.787534	0.752954
C58	C	0.366230	0.120873	-0.086324
C59	C	0.699564	0.454206	0.247010
C60	C	1.032897	0.787540	0.580343
C61	C	0.459528	0.122651	-0.086324
C62	C	0.792862	0.455985	0.247010
C63	C	1.126195	0.789318	0.580343
C64	C	0.506180	0.123537	-0.000015
C65	C	0.839514	0.456870	0.333319
C66	C	1.172847	0.790204	0.666652
C67	C	1.063088	-0.040316	-0.000013
C68	C	1.396422	0.293018	0.333320
C69	C	1.729755	0.626351	0.666653
C70	C	1.061200	-0.140399	-0.000005
C71	C	1.394533	0.192934	0.333328
C72	C	1.727866	0.526268	0.666662
C73	C	0.971742	-0.552915	-0.000022
C74	C	1.305075	-0.219582	0.333312
C75	C	1.638409	0.113751	0.666645
C76	C	1.134685	-0.574228	-0.000024
C77	C	1.468018	-0.240895	0.333309
C78	C	1.801352	0.092438	0.666643
C79	C	1.136461	-0.480195	-0.000018
C80	C	1.469794	-0.146862	0.333315
C81	C	1.803128	0.186472	0.666648
C82	C	1.055876	-0.422517	-0.000016
C83	C	1.389210	-0.089184	0.333317
C84	C	1.722543	0.244149	0.666651
C85	C	0.973516	-0.458873	-0.000019
C86	C	1.306849	-0.125539	0.333314
C87	C	1.640182	0.207794	0.666648
C88	C	1.218820	-0.443832	-0.000025
C89	C	1.552153	-0.110499	0.333308
C90	C	1.885487	0.222834	0.666642
C91	C	1.220599	-0.349793	-0.000020
C92	C	1.553933	-0.016460	0.333313
C93	C	1.887266	0.316873	0.666646
C94	C	1.140014	-0.292114	-0.000011
C95	C	1.473347	0.041219	0.333322
C96	C	1.806681	0.374553	0.666655
C97	C	1.057650	-0.328475	-0.000013
C98	C	1.390983	0.004859	0.333320
C99	C	1.724317	0.338192	0.666653
C100	C	0.977065	-0.270797	-0.000011
C101	C	1.310399	0.062536	0.333323
C102	C	1.643732	0.395870	0.666656
C103	C	0.894700	-0.307156	-0.000006
C104	C	1.228034	0.026177	0.333327
C105	C	1.561367	0.359510	0.666661
C106	C	0.892930	-0.401193	-0.000010
C107	C	1.226263	-0.067860	0.333324
C108	C	1.559597	0.265473	0.666657
C109	C	1.141784	-0.198077	-0.000007
C110	C	1.475117	0.135256	0.333326
C111	C	1.808451	0.468590	0.666659
C112	C	0.978839	-0.176755	-0.000008
C113	C	1.312172	0.156579	0.333325
C114	C	1.645506	0.489912	0.666659
C115	C	1.220287	0.118096	-0.000019
C116	C	1.553620	0.451430	0.333314
C117	C	1.886954	0.784763	0.666648
C118	C	1.319585	0.119980	-0.000015
C119	C	1.652918	0.453314	0.333319
C120	C	1.986251	0.786647	0.666652
C121	C	1.050438	0.289324	-0.000022
C122	C	1.383771	0.622657	0.333311
C123	C	1.717104	0.955990	0.666644
C124	C	1.052327	0.389407	-0.000024
C125	C	1.385660	0.722740	0.333309
C126	C	1.718993	1.056074	0.666642
N127	N	1.056749	0.124505	-0.246677
N128	N	1.390083	0.457839	0.086656
N129	N	1.723416	0.791172	0.419990
C130	C	1.002471	0.069725	-0.703542
C131	C	1.335805	0.403059	-0.370209
C132	C	1.669138	0.736392	-0.036876
C133	C	1.002468	0.069723	-0.603885
C134	C	1.335801	0.403056	-0.270551
C135	C	1.669135	0.736389	0.062782
C136	C	1.056773	0.124495	-0.554047
C137	C	1.390106	0.457829	-0.220714
C138	C	1.723440	0.791162	0.112620
C139	C	1.111092	0.179268	-0.603872
C140	C	1.444425	0.512601	-0.270539
C141	C	1.777758	0.845934	0.062795
C142	C	1.111099	0.179265	-0.703528
C143	C	1.444432	0.512598	-0.370195
C144	C	1.777766	0.845932	-0.036861
C145	C	1.111070	0.179271	-0.396158
C146	C	1.444404	0.512604	-0.062825
C147	C	1.777737	0.845938	0.270509
C148	C	1.111062	0.179275	-0.296495
C149	C	1.444395	0.512609	0.036838
C150	C	1.777728	0.845942	0.370172
C151	C	1.002439	0.069729	-0.296515
C152	C	1.335773	0.403062	0.036819
C153	C	1.669106	0.736396	0.370152
C154	C	1.002447	0.069726	-0.396170
C155	C	1.335780	0.403060	-0.062837
C156	C	1.669114	0.736393	0.270496
C157	C	1.056764	0.124500	-0.445989
C158	C	1.390098	0.457833	-0.112655
C159	C	1.723431	0.791167	0.220678
N160	N	1.056784	0.124495	0.246639
N161	N	1.390117	0.457829	0.579973
N162	N	1.723451	0.791162	0.913306
H163	H	0.328242	0.120152	-0.156600
H164	H	0.661575	0.453485	0.176734
H165	H	0.994908	0.786819	0.510067
H166	H	0.958245	0.025128	-0.744113
H167	H	1.291578	0.358461	-0.410780
H168	H	1.624912	0.691795	-0.077446
H169	H	0.829089	-0.260183	-0.000011
H170	H	1.162422	0.073151	0.333323
H171	H	1.495755	0.406484	0.666656
H172	H	0.958210	0.025132	-0.255948
H173	H	1.291543	0.358465	0.077385
H174	H	1.624877	0.691799	0.410719
H175	H	1.155279	0.223879	-0.255920
H176	H	1.488612	0.557212	0.077413
H177	H	1.821945	0.890546	0.410747
H178	H	0.958223	0.025130	-0.436746
H179	H	1.291556	0.358463	-0.103412
H180	H	1.624889	0.691797	0.229921
H181	H	0.616013	0.125619	-0.156593
H182	H	0.949346	0.458952	0.176740
H183	H	1.282680	0.792285	0.510073
H184	H	1.200293	-0.621195	-0.000034
H185	H	1.533626	-0.287861	0.333300
H186	H	1.866960	0.045472	0.666633
H187	H	0.616018	0.125616	0.156562
H188	H	0.949351	0.458949	0.489895
H189	H	1.282684	0.792283	0.823228
H190	H	0.497522	0.123366	0.156569
H191	H	0.830856	0.456699	0.489902
H192	H	1.164189	0.790032	0.823236
H193	H	0.497504	0.123383	-0.156598
H194	H	0.830838	0.456716	0.176735
H195	H	1.164171	0.790050	0.510068
H196	H	0.958244	0.025121	-0.563327
H197	H	1.291577	0.358454	-0.229994
H198	H	1.624911	0.691788	0.103339
H199	H	0.785261	0.128874	-0.156594
H200	H	1.118595	0.462207	0.176739
H201	H	1.451928	0.795541	0.510073
H202	H	0.785284	0.128851	0.156569
H203	H	1.118617	0.462184	0.489902
H204	H	1.451951	0.795517	0.823236
H205	H	1.155304	0.223872	-0.436717
H206	H	1.488637	0.557205	-0.103383
H207	H	1.821970	0.890538	0.229950
H208	H	0.328260	0.120142	0.156562
H209	H	0.661593	0.453475	0.489895
H210	H	0.994926	0.786809	0.823229
H211	H	1.155312	0.223860	-0.563286
H212	H	1.488645	0.557194	-0.229953
H213	H	1.821979	0.890527	0.103380
H214	H	1.155326	0.223864	-0.744089
H215	H	1.488660	0.557197	-0.410755
H216	H	1.821993	0.890531	-0.077422
H217	H	0.913216	-0.129799	-0.000002
H218	H	1.246549	0.203535	0.333331
H219	H	1.579883	0.536868	0.666665
H220	H	0.904682	-0.582523	-0.000014
H221	H	1.238016	-0.249190	0.333319
H222	H	1.571349	0.084143	0.666653
H223	H	0.825873	-0.430806	-0.000007
H224	H	1.159206	-0.097472	0.333326
H225	H	1.492539	0.235861	0.666660
H226	H	1.284428	-0.490800	-0.000036
H227	H	1.617761	-0.157466	0.333298
H228	H	1.951094	0.175867	0.666631
H229	H	1.287666	-0.320198	-0.000023
H230	H	1.620999	0.013135	0.333310
H231	H	1.954333	0.346468	0.666644
H232	H	1.208844	-0.168477	-0.000017
H233	H	1.542178	0.164856	0.333316
H234	H	1.875511	0.498189	0.666649
