data_functionalizedCrystal
_audit_creation_method	'MofGen! by Chris Wilmer'
_symmetry_space_group_name_H-M	'P1'
_symmetry_Int_Tables_number	1
_symmetry_cell_setting	triclinic
loop_
_symmetry_equiv_pos_as_xyz
  x,y,z
_cell_length_a	16.109301
_cell_length_b	8.597304
_cell_length_c	15.186229
_cell_angle_alpha	82.296375
_cell_angle_beta	89.999362
_cell_angle_gamma	84.403057
loop_
_atom_site_label
_atom_site_type_symbol
_atom_site_fract_x
_atom_site_fract_y
_atom_site_fract_z
O1	O	1.104800	0.201730	-0.088475
O2	O	0.862945	0.226835	-0.090393
O3	O	0.988632	-0.014187	-0.072098
O4	O	0.979113	0.442752	-0.106770
O5	O	0.988623	-0.014190	0.074360
O6	O	0.862937	0.226832	0.056065
O7	O	1.104791	0.201727	0.057983
Zn8	Zn	0.983863	0.214279	0.080277
Zn9	Zn	0.983874	0.214283	-0.112687
O10	O	0.979105	0.442749	0.039688
C11	C	0.831958	0.225817	-0.017089
C12	C	0.739637	0.222768	-0.016863
C13	C	0.987605	-0.072659	0.005566
C14	C	0.984549	-0.246884	0.018780
C15	C	0.518489	0.358696	-0.027166
C16	C	0.431745	0.355819	-0.026942
C17	C	0.449254	0.069855	-0.005248
C18	C	0.535996	0.072734	-0.005465
C19	C	0.570612	0.217159	-0.016430
C20	C	0.397125	0.211403	-0.015988
C21	C	0.303073	0.208283	-0.015745
C22	C	0.664669	0.220280	-0.016671
C23	C	1.135779	0.202745	-0.015323
C24	C	1.228099	0.205794	-0.015555
C25	C	0.980131	0.501221	-0.037978
C26	C	0.983188	0.675447	-0.051197
N27	N	0.983861	0.214275	0.211970
N28	N	0.983882	0.214275	-0.244379
C29	C	1.039535	0.107586	0.445791
C30	C	1.039537	0.107583	0.537981
C31	C	0.928202	0.320968	0.521793
C32	C	0.928196	0.320963	0.429605
C33	C	0.983867	0.214274	0.391607
C34	C	0.983876	0.214275	0.575984
C35	C	0.983878	0.214272	0.675941
C36	C	0.983864	0.214275	0.291644
H37	H	0.546670	0.476296	-0.036088
C38	C	1.100769	-0.009771	0.597585
H39	H	1.092796	0.005495	0.657932
H40	H	1.156393	0.007300	0.581178
H41	H	1.090883	-0.114525	0.590424
H42	H	0.984359	-0.257761	-0.121222
H43	H	0.882861	0.407842	0.385485
C44	C	0.982955	-0.337102	0.113386
H45	H	0.984213	-0.265012	0.155513
H46	H	1.030185	-0.412971	0.122423
H47	H	0.933469	-0.388961	0.120591
H48	H	0.389310	0.471073	-0.035684
C49	C	0.866978	0.438331	0.563594
H50	H	0.874959	0.423068	0.626257
H51	H	0.811352	0.421264	0.549789
H52	H	0.876864	0.543083	0.540530
C53	C	0.411173	-0.088999	0.006801
H54	H	0.352048	-0.070445	0.005383
H55	H	0.428984	-0.147286	0.062294
H56	H	0.428989	-0.147263	-0.039860
H57	H	0.578437	-0.042530	0.003281
C58	C	1.100762	-0.009780	0.403996
H59	H	1.133909	-0.073329	0.449474
H60	H	1.135828	0.046685	0.363743
H61	H	1.070315	-0.075134	0.373000
