data_functionalizedCrystal
_audit_creation_method	'MofGen! by Chris Wilmer'
_symmetry_space_group_name_H-M	'P1'
_symmetry_Int_Tables_number	1
_symmetry_cell_setting	triclinic
loop_
_symmetry_equiv_pos_as_xyz
  x,y,z
_cell_length_a	10.654550
_cell_length_b	10.540539
_cell_length_c	9.130313
_cell_angle_alpha	90.000859
_cell_angle_beta	89.996220
_cell_angle_gamma	84.505197
loop_
_atom_site_label
_atom_site_type_symbol
_atom_site_fract_x
_atom_site_fract_y
_atom_site_fract_z
O1	O	1.667897	0.178295	-0.121912
O2	O	1.302424	0.195282	-0.121888
O3	O	1.493499	0.002079	-0.121899
O4	O	1.476823	0.371498	-0.121902
O5	O	1.493496	0.002084	0.121700
O6	O	1.302422	0.195287	0.121711
O7	O	1.667894	0.178300	0.121686
Cu8	Cu	1.485158	0.186794	0.143941
Cu9	Cu	1.485161	0.186788	-0.144143
O10	O	1.476820	0.371503	0.121697
C11	C	1.255625	0.194038	-0.000086
C12	C	1.116180	0.190306	-0.000077
C13	C	1.036734	0.304061	-0.000099
C14	C	0.905712	0.300547	-0.000124
C15	C	0.933595	0.069513	-0.000111
C16	C	1.064614	0.073028	-0.000075
C17	C	1.020636	0.437446	-0.000113
C18	C	0.889614	0.433932	-0.000138
C19	C	1.492247	-0.045221	-0.000102
C20	C	1.488505	-0.186168	-0.000110
C21	C	1.345134	-0.369543	-0.000647
C22	C	1.348927	-0.222926	-0.000099
C23	C	1.555675	-0.247846	0.138993
C24	C	1.550912	-0.394389	0.139110
C25	C	1.553753	-0.394914	-0.137907
C26	C	1.555039	-0.247933	-0.139747
C27	C	1.714694	0.179545	-0.000119
C28	C	1.854139	0.183276	-0.000138
C29	C	1.478072	0.418803	-0.000103
C30	C	1.481813	0.559750	-0.000105
N31	N	1.485165	0.186798	0.346564
N32	N	1.485163	0.186774	-0.346765
C33	C	1.569795	0.101277	0.423211
C34	C	1.569791	0.101262	0.576548
C35	C	1.400525	0.272300	0.576577
C36	C	1.400523	0.272308	0.423243
C37	C	1.667523	0.002533	0.423195
C38	C	1.667520	0.002518	0.576532
H39	H	1.049984	0.489616	0.101838
H40	H	1.509013	-0.205228	0.242515
O41	O	1.627120	-0.119636	0.639540
H42	H	1.605702	-0.184387	0.548942
O43	O	1.067905	0.493714	-0.139409
H44	H	0.987007	0.520709	-0.213286
H45	H	1.331611	0.341919	0.639025
O46	O	1.795359	0.031337	0.631672
H47	H	1.857944	0.045471	0.537062
H48	H	1.129295	-0.019602	-0.000036
H49	H	0.847900	0.484188	-0.102092
O50	O	0.877979	-0.056977	-0.000116
H51	H	0.773525	-0.040313	-0.000150
H52	H	1.508580	-0.426453	-0.243339
H53	H	1.296074	-0.180306	-0.099813
H54	H	1.289998	-0.398125	-0.100399
O55	O	1.788319	0.043486	0.360181
H56	H	1.783334	0.041815	0.238778
H57	H	0.843956	0.474245	0.105030
H58	H	1.505891	-0.207059	-0.242651
O59	O	1.272387	-0.409498	0.130763
H60	H	1.333156	-0.479495	0.196463
O61	O	1.278453	-0.167572	0.132228
H62	H	1.241537	-0.245543	0.196086
O63	O	1.485141	-0.431732	0.276841
H64	H	1.457025	-0.345159	0.342731
H65	H	1.656802	-0.223748	-0.148154
H66	H	1.651295	-0.442394	0.145414
O67	O	1.639088	-0.126700	0.368012
H68	H	1.545105	-0.147837	0.408547
O69	O	1.691449	-0.218279	0.145865
H70	H	1.712542	-0.159164	0.049982
O71	O	1.687299	-0.457509	-0.139180
H72	H	1.685713	-0.562583	-0.143369
O73	O	1.309239	0.364540	0.340566
H74	H	1.250395	0.424004	0.419650
