data_functionalizedCrystal
_audit_creation_method	'MofGen! by Chris Wilmer'
_symmetry_space_group_name_H-M	'P1'
_symmetry_Int_Tables_number	1
_symmetry_cell_setting	triclinic
loop_
_symmetry_equiv_pos_as_xyz
  x,y,z
_cell_length_a	16.120530
_cell_length_b	21.295417
_cell_length_c	16.120256
_cell_angle_alpha	92.868749
_cell_angle_beta	90.128265
_cell_angle_gamma	87.125778
loop_
_atom_site_label
_atom_site_type_symbol
_atom_site_fract_x
_atom_site_fract_y
_atom_site_fract_z
Zn1	Zn	1.247390	-0.318928	-0.534526
Zn2	Zn	1.580724	0.014406	-0.201192
Zn3	Zn	1.914057	0.347739	0.132141
Zn4	Zn	1.254326	-0.419134	-0.395454
Zn5	Zn	1.587659	-0.085801	-0.062121
Zn6	Zn	1.920992	0.247533	0.271212
Zn7	Zn	1.115382	-0.308287	-0.388444
Zn8	Zn	1.448716	0.025046	-0.055111
Zn9	Zn	1.782049	0.358380	0.278222
Zn10	Zn	1.108282	-0.418557	-0.527424
Zn11	Zn	1.441615	-0.085224	-0.194091
Zn12	Zn	1.774949	0.248109	0.139242
O13	O	1.181345	-0.366227	-0.461462
O14	O	1.514678	-0.032893	-0.128129
O15	O	1.848012	0.300440	0.205204
O16	O	1.364676	-0.336915	-0.521983
O17	O	1.698009	-0.003581	-0.188650
O18	O	2.031343	0.329752	0.144684
O19	O	1.241769	-0.400218	-0.278159
O20	O	1.575102	-0.066885	0.055174
O21	O	1.908435	0.266448	0.388507
O22	O	1.132963	-0.221613	-0.407861
O23	O	1.466296	0.111720	-0.074527
O24	O	1.799629	0.445053	0.258806
O25	O	1.369771	-0.410536	-0.419808
O26	O	1.703105	-0.077203	-0.086475
O27	O	2.036438	0.256131	0.246858
O28	O	1.229948	-0.229431	-0.515186
O29	O	1.563282	0.103902	-0.181852
O30	O	1.896615	0.437236	0.151481
O31	O	1.139688	-0.318779	-0.273009
O32	O	1.473021	0.014554	0.060324
O33	O	1.806354	0.347887	0.393658
O34	O	0.998075	-0.318220	-0.400975
O35	O	1.331408	0.015113	-0.067641
O36	O	1.664742	0.348446	0.265692
O37	O	1.120861	-0.409553	-0.644732
O38	O	1.454194	-0.076220	-0.311398
O39	O	1.787528	0.257114	0.021935
O40	O	0.992858	-0.399235	-0.503083
O41	O	1.326192	-0.065902	-0.169749
O42	O	1.659525	0.267431	0.163584
O43	O	1.223063	-0.336355	-0.649949
O44	O	1.556397	-0.003022	-0.316616
O45	O	1.889730	0.330311	0.016718
O46	O	1.234884	-0.507143	-0.412922
O47	O	1.568217	-0.173810	-0.079589
O48	O	1.901550	0.159524	0.253744
O49	O	1.127586	-0.506719	-0.509880
O50	O	1.460919	-0.173386	-0.176547
O51	O	1.794253	0.159947	0.156787
C52	C	0.965294	-0.357511	-0.450498
C53	C	1.298628	-0.024178	-0.117165
C54	C	1.631961	0.309156	0.216169
C55	C	0.872866	-0.353798	-0.445827
C56	C	1.206199	-0.020465	-0.112494
C57	C	1.539533	0.312868	0.220840
C58	C	1.181238	-0.529772	-0.461411
C59	C	1.514572	-0.196439	-0.128077
C60	C	1.847905	0.136895	0.205256
C61	C	1.181267	-0.599742	-0.461420
C62	C	1.514601	-0.266408	-0.128087
C63	C	1.847934	0.066925	0.205246
C64	C	0.703637	-0.347006	-0.437307
C65	C	1.036971	-0.013672	-0.103973
C66	C	1.370304	0.319661	0.229360
C67	C	0.659890	-0.385496	-0.485679
C68	C	0.993224	-0.052163	-0.152345
C69	C	1.326557	0.281171	0.180988
C70	C	0.565726	-0.381716	-0.480938
C71	C	0.899059	-0.048383	-0.147604
C72	C	1.232392	0.284950	0.185729
C73	C	0.797811	-0.350784	-0.442046
C74	C	1.131144	-0.017451	-0.108713
C75	C	1.464477	0.315882	0.224620
C76	C	1.237182	-0.632812	-0.410991
C77	C	1.570515	-0.299479	-0.077658
C78	C	1.903849	0.033855	0.255675
C79	C	1.237220	-0.698557	-0.411012
C80	C	1.570553	-0.365223	-0.077679
C81	C	1.903887	-0.031890	0.255655
C82	C	1.181329	-0.731228	-0.461452
C83	C	1.514662	-0.397894	-0.128119
C84	C	1.847996	-0.064561	0.205215
C85	C	1.125411	-0.698150	-0.511891
C86	C	1.458744	-0.364817	-0.178558
C87	C	1.792077	-0.031483	0.154775
C88	C	1.125380	-0.632407	-0.511875
C89	C	1.458713	-0.299073	-0.178542
C90	C	1.792046	0.034260	0.154791
N91	N	1.108264	-0.831794	-0.464100
N92	N	1.441597	-0.498460	-0.130766
N93	N	1.774931	-0.165127	0.202567
N94	N	1.108296	-0.894247	-0.464110
N95	N	1.441629	-0.560913	-0.130777
N96	N	1.774962	-0.227580	0.202557
C97	C	1.181420	-0.929308	-0.461504
C98	C	1.514753	-0.595975	-0.128171
C99	C	1.848087	-0.262641	0.205162
N100	N	1.254513	-0.899556	-0.458872
N101	N	1.587847	-0.566223	-0.125539
N102	N	1.921180	-0.232890	0.207795
N103	N	1.254481	-0.837097	-0.458857
N104	N	1.587814	-0.503764	-0.125524
N105	N	1.921147	-0.170431	0.207810
C106	C	1.181357	-0.802515	-0.461475
C107	C	1.514690	-0.469182	-0.128142
C108	C	1.848023	-0.135848	0.205191
C109	C	1.237380	-1.033666	-0.411095
C110	C	1.570713	-0.700333	-0.077762
C111	C	1.904047	-0.367000	0.255571
C112	C	1.237419	-1.099412	-0.411122
C113	C	1.570753	-0.766079	-0.077789
C114	C	1.904086	-0.432746	0.255545
C115	C	1.125603	-1.099004	-0.511996
C116	C	1.458936	-0.765671	-0.178663
C117	C	1.792269	-0.432337	0.154670
C118	C	1.125571	-1.033259	-0.511975
C119	C	1.458904	-0.699926	-0.178641
C120	C	1.792237	-0.366593	0.154692
C121	C	1.181459	-1.000594	-0.461520
C122	C	1.514792	-0.667261	-0.128186
C123	C	1.848125	-0.333928	0.205147
C124	C	1.398239	-0.374977	-0.472470
C125	C	1.731573	-0.041643	-0.139136
C126	C	2.064906	0.291690	0.194197
C127	C	1.490667	-0.378705	-0.477160
C128	C	1.824000	-0.045372	-0.143827
C129	C	2.157334	0.287961	0.189506
C130	C	1.170397	-0.374077	-0.678356
C131	C	1.503730	-0.040744	-0.345023
C132	C	1.837063	0.292590	-0.011690
C133	C	1.165731	-0.377422	-0.770784
C134	C	1.499064	-0.044089	-0.437450
C135	C	1.832398	0.289244	-0.104117
C136	C	1.181474	-0.202044	-0.461533
C137	C	1.514807	0.131289	-0.128200
C138	C	1.848141	0.464623	0.205133
C139	C	1.181529	-0.132079	-0.461564
C140	C	1.514862	0.201254	-0.128230
C141	C	1.848196	0.534588	0.205103
C142	C	1.205674	-0.348765	-0.983771
C143	C	1.539008	-0.015431	-0.650438
C144	C	1.872341	0.317902	-0.317105
C145	C	1.157185	-0.383503	-0.940003
C146	C	1.490518	-0.050169	-0.606670
C147	C	1.823852	0.283164	-0.273336
C148	C	1.161941	-0.380119	-0.845841
C149	C	1.495275	-0.046785	-0.512507
C150	C	1.828608	0.286548	-0.179174
C151	C	1.200919	-0.352148	-1.077942
C152	C	1.534252	-0.018815	-0.744609
C153	C	1.867586	0.314518	-0.411275
C154	C	1.192299	-0.358363	-0.245414
C155	C	1.525632	-0.025030	0.087919
C156	C	1.858966	0.308303	0.421252
C157	C	1.197126	-0.354847	-0.152996
C158	C	1.530459	-0.021514	0.180338
C159	C	1.863792	0.311820	0.513671
H160	H	0.693157	-0.421286	-0.530653
H161	H	1.026490	-0.087953	-0.197319
H162	H	1.359824	0.245380	0.136014
H163	H	1.250756	-0.316486	-0.950526
H164	H	1.584090	0.016847	-0.617193
H165	H	1.917423	0.350181	-0.283860
O166	O	1.097462	-0.426265	-0.984034
O167	O	1.430795	-0.092932	-0.650701
O168	O	1.764129	0.240401	-0.317367
H169	H	1.112507	-0.475657	-0.968134
H170	H	1.445840	-0.142324	-0.634800
H171	H	1.779173	0.191009	-0.301467
H172	H	1.282957	-1.126337	-0.370058
H173	H	1.616290	-0.793004	-0.036725
H174	H	1.949623	-0.459671	0.296608
O175	O	0.659584	-0.299616	-0.377710
O176	O	0.992917	0.033718	-0.044377
O177	O	1.326251	0.367051	0.288957
H178	H	0.591466	-0.304062	-0.383278
H179	H	0.924799	0.029271	-0.049945
H180	H	1.258133	0.362605	0.283388
H181	H	1.282755	-0.725488	-0.369947
H182	H	1.616088	-0.392155	-0.036614
H183	H	1.949422	-0.058821	0.296720
O184	O	1.297469	-0.597579	-0.356587
O185	O	1.630802	-0.264246	-0.023253
O186	O	1.964135	0.069087	0.310080
H187	H	1.336363	-0.631626	-0.321530
H188	H	1.669696	-0.298292	0.011803
H189	H	2.003029	0.035041	0.345136
H190	H	1.079905	-0.724755	-0.552962
H191	H	1.413239	-0.391422	-0.219628
H192	H	1.746572	-0.058088	0.113705
O193	O	1.065052	-0.596737	-0.566256
O194	O	1.398386	-0.263404	-0.232923
O195	O	1.731719	0.069930	0.100410
H196	H	1.075961	-0.612257	-0.632258
H197	H	1.409294	-0.278924	-0.298924
H198	H	1.742627	0.054410	0.034409
O199	O	1.297668	-0.998423	-0.356701
O200	O	1.631001	-0.665090	-0.023367
O201	O	1.964335	-0.331757	0.309966
H202	H	1.286779	-1.008138	-0.290704
H203	H	1.620112	-0.674804	0.042629
H204	H	1.953445	-0.341471	0.375963
O205	O	1.065314	-1.134231	-0.566399
O206	O	1.398647	-0.800897	-0.233065
O207	O	1.731981	-0.467564	0.100268
H208	H	1.074724	-1.185502	-0.557934
H209	H	1.408057	-0.852169	-0.224601
H210	H	1.741391	-0.518836	0.108732
O211	O	1.065243	-0.997582	-0.566343
O212	O	1.398576	-0.664249	-0.233010
O213	O	1.731909	-0.330916	0.100323
H214	H	1.026374	-1.031343	-0.601412
H215	H	1.359708	-0.698009	-0.268079
H216	H	1.693041	-0.364676	0.065254
