data_functionalizedCrystal
_audit_creation_method	'MofGen! by Chris Wilmer'
_symmetry_space_group_name_H-M	'P1'
_symmetry_Int_Tables_number	1
_symmetry_cell_setting	triclinic
loop_
_symmetry_equiv_pos_as_xyz
  x,y,z
_cell_length_a	19.288864
_cell_length_b	8.965430
_cell_length_c	19.288874
_cell_angle_alpha	90.001300
_cell_angle_beta	83.138236
_cell_angle_gamma	89.980873
loop_
_atom_site_label
_atom_site_type_symbol
_atom_site_fract_x
_atom_site_fract_y
_atom_site_fract_z
O1	O	0.921353	-0.124519	0.086640
O2	O	0.719093	-0.124418	0.098329
O3	O	0.826064	-0.124460	-0.008645
O4	O	0.814382	-0.124477	0.193615
O5	O	0.826051	0.123619	-0.008635
O6	O	0.719080	0.123661	0.098339
O7	O	0.921341	0.123560	0.086651
Cu8	Cu	0.820209	0.146262	0.092496
Cu9	Cu	0.820224	-0.147120	0.092484
O10	O	0.814370	0.123602	0.193625
C11	C	0.693210	-0.000365	0.097958
C12	C	0.616106	-0.000326	0.096829
N13	N	0.820204	0.352611	0.092504
C14	C	0.571412	-0.000355	0.159597
C15	C	0.498965	-0.000371	0.158536
C16	C	0.471215	-0.000389	0.094704
C17	C	0.515919	-0.000351	0.031928
C18	C	0.588365	-0.000320	0.032991
C19	C	0.362956	-0.087347	0.044522
C20	C	0.290511	-0.087388	0.043462
C21	C	0.247770	-0.000479	0.091425
C22	C	0.277480	0.086452	0.140459
C23	C	0.349925	0.086483	0.141522
C24	C	0.392661	-0.000422	0.093545
C25	C	0.124520	-0.000523	0.153046
C26	C	0.052072	-0.000530	0.151983
C27	C	0.069027	-0.000525	0.025374
C28	C	0.141474	-0.000503	0.026439
C29	C	0.169215	-0.000509	0.090277
C30	C	0.770717	0.449936	0.141961
C31	C	0.833441	0.549317	0.155244
C32	C	0.757503	0.549358	0.079231
C33	C	0.882959	0.449803	0.105818
C34	C	0.806980	0.449835	0.029778
C35	C	0.869749	0.549171	0.043034
C36	C	0.947223	-0.000496	0.087022
C37	C	1.024327	-0.000545	0.088151
N38	N	0.820221	0.646531	0.092483
C39	C	0.825680	-0.000420	-0.034516
C40	C	0.824549	-0.000420	-0.111619
C41	C	0.816416	0.134775	-0.667183
C42	C	0.817472	0.134783	-0.594735
C43	C	0.818010	-0.000444	-0.558510
C44	C	0.817474	-0.135688	-0.594736
C45	C	0.816411	-0.135691	-0.667181
C46	C	0.860381	-0.104063	-0.449183
C47	C	0.861448	-0.104053	-0.376739
C48	C	0.821285	-0.000438	-0.335064
C49	C	0.780064	0.103193	-0.365842
C50	C	0.779001	0.103190	-0.438287
C51	C	0.819162	-0.000455	-0.479955
C52	C	0.822960	0.134806	-0.220290
C53	C	0.824012	0.134808	-0.147840
C54	C	0.824021	-0.135667	-0.147843
C55	C	0.822963	-0.135665	-0.220290
C56	C	0.822436	-0.000424	-0.256510
C57	C	0.814753	-0.000441	0.219496
C58	C	0.815884	-0.000451	0.296599
H59	H	0.462568	-0.000391	0.209651
N60	N	0.822438	-0.273816	-0.257277
N61	N	0.871513	-0.364383	-0.255733
H62	H	0.871142	-0.461962	-0.281853
H63	H	0.147108	-0.000506	0.205027
N64	N	0.380287	0.175266	0.191599
N65	N	0.415070	0.114568	0.234469
H66	H	0.436514	0.177275	0.269835
H67	H	0.936003	0.406257	0.117099
H68	H	0.624756	-0.000297	-0.018124
H69	H	0.824451	-0.245771	-0.118348
H70	H	0.815977	-0.245812	-0.696669
N71	N	0.815876	0.272898	-0.704192
N72	N	0.864230	0.303036	-0.751176
H73	H	0.863848	0.400584	-0.777317
N74	N	0.739030	0.209019	-0.323271
N75	N	0.693044	0.164939	-0.276613
H76	H	0.664064	0.239676	-0.246545
N77	N	0.822406	0.272929	-0.257301
N78	N	0.821458	0.272909	-0.321984
H79	H	0.821065	0.370459	-0.348123
N80	N	0.922318	0.603478	-0.009448
N81	N	0.985000	0.571235	-0.006810
H82	H	1.022129	0.609590	-0.043873
H83	H	0.817892	0.244904	-0.565240
H84	H	0.895015	-0.188429	-0.351686
N85	N	0.901410	-0.209927	-0.491739
N86	N	0.938215	-0.302432	-0.464254
H87	H	0.967191	-0.377199	-0.494308
N88	N	0.818018	-0.273805	-0.557724
N89	N	0.818968	-0.273785	-0.493042
H90	H	0.819348	-0.371335	-0.466901
H91	H	0.795763	0.406104	-0.023242
H92	H	0.704470	0.593091	0.068014
N93	N	0.406616	-0.176104	-0.004483
N94	N	0.407084	-0.154195	-0.068535
H95	H	0.437919	-0.216872	-0.103144
N96	N	0.736895	0.209047	-0.469715
N97	N	0.701039	0.301562	-0.432505
H98	H	0.671299	0.376325	-0.454701
N99	N	0.006424	-0.000542	0.216109
N100	N	0.031207	-0.000543	0.273098
H101	H	-0.001031	-0.000550	0.318389
N102	N	0.824547	0.272960	-0.110852
N103	N	0.824075	0.393690	-0.143203
H104	H	0.824453	0.491264	-0.117080
H105	H	0.844639	0.593013	0.208281
N106	N	0.040679	-0.000516	-0.039824
N107	N	-0.024004	-0.000529	-0.040766
H108	H	-0.044029	-0.000513	-0.086813
H109	H	0.593994	-0.000362	0.211579
H110	H	0.177865	-0.000488	-0.024674
N111	N	0.233818	0.175184	0.189468
N112	N	0.169135	0.175131	0.188522
H113	H	0.138294	0.237778	0.223140
N114	N	0.260182	-0.176181	-0.006633
N115	N	0.276831	-0.154251	-0.070445
H116	H	0.255414	-0.216964	-0.105827
N117	N	0.487566	-0.000354	-0.033268
N118	N	0.422882	-0.000382	-0.034209
H119	H	0.402857	-0.000377	-0.080256
N120	N	0.718269	0.395287	0.194478
N121	N	0.720889	0.427219	0.257192
H122	H	0.683850	0.388624	0.294283
