data_functionalizedCrystal
_audit_creation_method	'MofGen! by Chris Wilmer'
_symmetry_space_group_name_H-M	'P1'
_symmetry_Int_Tables_number	1
_symmetry_cell_setting	triclinic
loop_
_symmetry_equiv_pos_as_xyz
  x,y,z
_cell_length_a	19.805407
_cell_length_b	16.120444
_cell_length_c	19.805399
_cell_angle_alpha	87.128215
_cell_angle_beta	90.017803
_cell_angle_gamma	92.923874
loop_
_atom_site_label
_atom_site_type_symbol
_atom_site_fract_x
_atom_site_fract_y
_atom_site_fract_z
Zn1	Zn	1.021068	-0.331988	0.396351
Zn2	Zn	1.521068	0.168012	0.896351
Zn3	Zn	1.015243	-0.471406	0.288901
Zn4	Zn	1.515243	0.028594	0.788901
Zn5	Zn	0.907882	-0.332004	0.283180
Zn6	Zn	1.407882	0.167996	0.783180
Zn7	Zn	0.902108	-0.471356	0.402049
Zn8	Zn	1.402108	0.028644	0.902049
O9	O	0.961575	-0.401688	0.342621
O10	O	1.461575	0.098312	0.842621
O11	O	1.115011	-0.350496	0.382108
O12	O	1.615011	0.149504	0.882108
O13	O	1.000980	-0.452943	0.193427
O14	O	1.500980	0.047057	0.693427
O15	O	0.927750	-0.215336	0.293414
O16	O	1.427750	0.284664	0.793414
O17	O	1.110732	-0.452927	0.303164
O18	O	1.610732	0.047073	0.803164
O19	O	1.010908	-0.215324	0.376560
O20	O	1.510908	0.284676	0.876560
O21	O	0.922102	-0.350524	0.189224
O22	O	1.422102	0.149476	0.689224
O23	O	0.812400	-0.350475	0.298939
O24	O	1.312400	0.149525	0.798939
O25	O	0.917910	-0.452840	0.496009
O26	O	1.417910	0.047160	0.996009
O27	O	0.808158	-0.452856	0.386272
O28	O	1.308158	0.047144	0.886272
O29	O	1.005309	-0.350447	0.491823
O30	O	1.505309	0.149553	0.991823
O31	O	0.995381	-0.588066	0.308690
O32	O	1.495381	-0.088066	0.808690
O33	O	0.912262	-0.588029	0.391819
O34	O	1.412262	-0.088029	0.891819
C35	C	0.785720	-0.401662	0.342603
C36	C	1.285720	0.098338	0.842603
C37	C	0.710488	-0.401671	0.342612
C38	C	1.210488	0.098329	0.842612
C39	C	0.677369	-0.348430	0.383788
C40	C	1.177369	0.151570	0.883788
C41	C	0.606680	-0.348435	0.383791
C42	C	1.106680	0.151565	0.883791
C43	C	0.569112	-0.401685	0.342621
C44	C	1.069112	0.098315	0.842621
C45	C	0.602236	-0.454928	0.301441
C46	C	1.102236	0.045072	0.801441
C47	C	0.672923	-0.454919	0.301435
C48	C	1.172923	0.045081	0.801435
C49	C	0.317161	-0.454966	0.301463
C50	C	0.817161	0.045034	0.801463
C51	C	0.246468	-0.454973	0.301474
C52	C	0.746468	0.045027	0.801474
C53	C	0.250918	-0.348481	0.383819
C54	C	0.750918	0.151519	0.883819
C55	C	0.321605	-0.348472	0.383813
C56	C	0.821605	0.151528	0.883813
C57	C	0.354723	-0.401712	0.342631
C58	C	0.854723	0.098288	0.842631
C59	C	0.431372	-0.401706	0.342627
C60	C	0.931372	0.098294	0.842627
C61	C	0.492464	-0.401696	0.342628
C62	C	0.992464	0.098304	0.842628
C63	C	0.952581	-0.618298	0.351508
C64	C	1.452581	-0.118298	0.851508
C65	C	0.948796	-0.710964	0.355333
C66	C	1.448796	-0.210964	0.855333
C67	C	0.981379	-0.921905	0.322925
C68	C	1.481379	-0.421905	0.822925
C69	C	0.941897	-0.880621	0.362323
C70	C	1.441897	-0.380621	0.862323
C71	C	0.945736	-0.786215	0.358433
C72	C	1.445736	-0.286215	0.858433
C73	C	0.977540	-1.016319	0.326815
C74	C	1.477540	-0.516319	0.826815
C75	C	1.138117	-0.401715	0.342639
C76	C	1.638117	0.098285	0.842639
C77	C	1.213348	-0.401727	0.342646
C78	C	1.713348	0.098273	0.842646
C79	C	0.961615	-0.401636	0.519161
C80	C	1.461615	0.098364	1.019161
C81	C	0.961632	-0.401614	0.594392
C82	C	1.461632	0.098386	1.094392
C83	C	0.970623	-0.184234	0.333713
C84	C	1.470623	0.315766	0.833713
C85	C	0.974478	-0.091567	0.329917
C86	C	1.474478	0.408433	0.829917
C87	C	0.961577	-0.401681	0.166764
C88	C	1.461577	0.098319	0.666764
C89	C	0.961700	-0.401468	0.091524
C90	C	1.461700	0.098532	0.591524
C91	C	1.007142	-0.348295	0.627558
C92	C	1.507142	0.151705	1.127558
C93	C	1.007150	-0.348271	0.698245
C94	C	1.507150	0.151729	1.198245
C95	C	0.961651	-0.401570	0.735766
C96	C	1.461651	0.098430	1.235766
C97	C	0.916136	-0.454891	0.702596
C98	C	1.416136	0.045109	1.202596
C99	C	0.916126	-0.454910	0.631910
C100	C	1.416126	0.045090	1.131910
C101	C	0.916178	-0.454813	0.987666
C102	C	1.416178	0.045187	1.487666
C103	C	0.916193	-0.454792	1.058357
C104	C	1.416193	0.045208	1.558357
C105	C	1.007202	-0.348174	1.054002
C106	C	1.507202	0.151826	1.554002
C107	C	1.007192	-0.348193	0.983315
C108	C	1.507192	0.151807	1.483315
C109	C	0.961675	-0.401511	0.950151
C110	C	1.461675	0.098489	1.450151
C111	C	0.961666	-0.401535	0.873504
C112	C	1.461666	0.098465	1.373504
C113	C	0.961663	-0.401550	0.812413
C114	C	1.461663	0.098450	1.312413
H115	H	0.223945	-0.305128	0.417349
H116	H	0.723945	0.194872	0.917349
H117	H	0.571642	-0.498282	0.267917
H118	H	1.071642	0.001718	0.767917
H119	H	0.699888	-0.498273	0.267905
H120	H	1.199888	0.001727	0.767905
F121	F	1.029327	-0.875433	0.275020
F122	F	1.529327	-0.375433	0.775020
H123	H	0.215882	-0.498338	0.267946
H124	H	0.715882	0.001662	0.767946
H125	H	1.044195	-0.304895	0.597013
H126	H	1.544195	0.195105	1.097013
H127	H	0.352190	-0.305113	0.417340
H128	H	0.852190	0.194887	0.917340
F129	F	0.893943	-0.927093	0.410229
F130	F	1.393943	-0.427093	0.910229
H131	H	1.044210	-0.304855	0.725245
H132	H	1.544210	0.195145	1.225245
H133	H	0.579718	-0.305082	0.417321
H134	H	1.079718	0.194918	0.917321
H135	H	0.344117	-0.498318	0.267931
H136	H	0.844117	0.001682	0.767931
H137	H	0.879061	-0.498320	0.604907
H138	H	1.379061	0.001680	1.104907
F139	F	0.867710	-0.511613	0.742530
F140	F	1.367710	-0.011613	1.242530
F141	F	1.055620	-0.291468	0.943386
F142	F	1.555620	0.208532	1.443386
F143	F	0.867764	-0.511522	1.098289
F144	F	1.367764	-0.011522	1.598289
H145	H	1.044262	-0.304757	1.081012
H146	H	1.544262	0.195243	1.581012
F147	F	0.867735	-0.511559	0.952380
F148	F	1.367735	-0.011559	1.452380
H149	H	0.707952	-0.305070	0.417315
H150	H	1.207952	0.194930	0.917315
