data_functionalizedCrystal
_audit_creation_method	'MofGen! by Chris Wilmer'
_symmetry_space_group_name_H-M	'P1'
_symmetry_Int_Tables_number	1
_symmetry_cell_setting	triclinic
loop_
_symmetry_equiv_pos_as_xyz
  x,y,z
_cell_length_a	15.625950
_cell_length_b	15.538191
_cell_length_c	13.448316
_cell_angle_alpha	90.007551
_cell_angle_beta	108.066111
_cell_angle_gamma	113.257316
loop_
_atom_site_label
_atom_site_type_symbol
_atom_site_fract_x
_atom_site_fract_y
_atom_site_fract_z
O1	O	1.155806	-0.123004	0.333943
O2	O	0.888579	-0.137633	0.237614
O3	O	1.074210	0.006740	0.304535
O4	O	0.970175	-0.267377	0.267022
O5	O	1.074194	0.006747	0.469913
O6	O	0.888563	-0.137625	0.402992
O7	O	1.155789	-0.122996	0.499321
Cu8	Cu	1.022175	-0.130310	0.466257
Cu9	Cu	1.022194	-0.130319	0.270678
O10	O	0.970158	-0.267369	0.432400
C11	C	0.855206	-0.136964	0.308276
C12	C	0.755791	-0.134969	0.272439
C13	C	0.428674	-0.128441	0.605186
C14	C	0.335251	-0.126586	0.571463
C15	C	0.335315	-0.126595	0.391191
C16	C	0.428738	-0.128455	0.424898
C17	C	0.475411	-0.129377	0.531897
C18	C	0.475475	-0.129391	0.351610
C19	C	0.568892	-0.131246	0.385315
C20	C	0.615573	-0.132165	0.492310
C21	C	0.568828	-0.131232	0.565603
C22	C	0.428804	-0.128462	0.244613
C23	C	0.475540	-0.129398	0.171324
C24	C	0.568956	-0.131260	0.205028
C25	C	0.615637	-0.132179	0.312022
C26	C	0.615701	-0.132193	0.131735
C27	C	0.709118	-0.134048	0.165440
C28	C	0.709055	-0.134034	0.345728
C29	C	0.959282	-0.302454	0.345786
C30	C	0.926859	-0.406983	0.334095
C31	C	1.248968	-0.695214	0.450218
C32	C	1.218479	-0.793438	0.439227
C33	C	1.046988	-0.815647	0.377408
C34	C	1.077462	-0.717422	0.388389
C35	C	1.178453	-0.657213	0.424796
C36	C	1.006948	-0.679422	0.362967
C37	C	1.037420	-0.581206	0.373952
C38	C	1.138407	-0.520991	0.410360
C39	C	1.208925	-0.558998	0.435781
C40	C	0.905958	-0.739632	0.326567
C41	C	0.835443	-0.701632	0.301145
C42	C	0.865915	-0.603414	0.312123
C43	C	0.966901	-0.543199	0.348531
C44	C	0.795396	-0.565408	0.286702
C45	C	0.825868	-0.467192	0.297688
C46	C	0.997374	-0.444984	0.359517
C47	C	1.189163	-0.123666	0.428657
C48	C	1.288578	-0.125660	0.464487
C49	C	1.085087	0.041824	0.391147
C50	C	1.117509	0.146354	0.402832
N51	N	1.022168	-0.130303	0.603819
C52	C	1.104375	-0.066402	0.685495
C53	C	1.104380	-0.066401	0.789600
C54	C	1.022179	-0.130308	0.812027
C55	C	0.939964	-0.194213	0.730341
C56	C	0.939958	-0.194208	0.626237
C57	C	0.939985	-0.194221	0.947328
C58	C	0.939992	-0.194227	1.051439
C59	C	1.104407	-0.066415	1.110691
C60	C	1.104400	-0.066409	1.006587
C61	C	1.022186	-0.130315	0.924908
N62	N	1.022199	-0.130326	1.133116
H63	H	0.297191	-0.125846	0.631149
C64	C	0.849538	-0.264511	0.857480
N65	N	0.781415	-0.317453	0.789806
C66	C	0.480017	-0.129461	0.722890
N67	N	0.518690	-0.130227	0.811540
H68	H	1.163215	-0.441018	0.419300
H69	H	0.297303	-0.125840	0.304073
C70	C	0.326041	-0.126422	0.207538
N71	N	0.248639	-0.124887	0.179615
H72	H	1.171318	-0.014368	0.856102
C73	C	0.424189	-0.128384	0.053628
N74	N	0.385511	-0.127624	-0.035023
H75	H	0.768448	-0.436252	0.276998
C76	C	0.849528	-0.264512	0.536393
N77	N	0.781414	-0.317468	0.468723
C78	C	1.194825	0.003891	0.981921
N79	N	1.262933	0.056845	0.963342
H80	H	0.747052	-0.134799	0.432854
C81	C	0.620171	-0.132251	0.683306
N82	N	0.658844	-0.133017	0.771957
C83	C	0.718335	-0.134208	0.529386
N84	N	0.795734	-0.135749	0.557312
C85	C	0.564352	-0.131170	0.014041
N86	N	0.525676	-0.130399	-0.074608
H87	H	0.873055	-0.246266	1.069691
H88	H	0.873032	-0.246244	0.748605
C89	C	1.194841	0.003886	1.200540
N90	N	1.262955	0.056833	1.268217
H91	H	1.079610	-0.395957	0.389148
C92	C	0.760528	-0.135085	0.084818
N93	N	0.799251	-0.135865	0.024090
H94	H	1.331204	-0.646188	0.479849
C95	C	1.320021	-0.492762	0.475821
N96	N	1.403695	-0.442873	0.505979
C97	C	1.296059	-0.835234	0.467190
N98	N	1.354491	-0.866714	0.488251
H99	H	0.964761	-0.864682	0.347769
C100	C	1.194803	0.003903	0.660837
N101	N	1.262915	0.056861	0.642268
C102	C	0.872440	-0.847673	0.314480
N103	N	0.847196	-0.929049	0.305373
H104	H	0.753216	-0.750667	0.271506
H105	H	0.713170	-0.614444	0.257070
