data_functionalizedCrystal
_audit_creation_method	'MofGen! by Chris Wilmer'
_symmetry_space_group_name_H-M	'P1'
_symmetry_Int_Tables_number	1
_symmetry_cell_setting	triclinic
loop_
_symmetry_equiv_pos_as_xyz
  x,y,z
_cell_length_a	15.995292
_cell_length_b	15.538191
_cell_length_c	14.185569
_cell_angle_alpha	82.127072
_cell_angle_beta	103.150398
_cell_angle_gamma	65.370355
loop_
_atom_site_label
_atom_site_type_symbol
_atom_site_fract_x
_atom_site_fract_y
_atom_site_fract_z
O1	O	1.048698	0.142538	-0.083432
O2	O	0.800343	0.157589	-0.083427
O3	O	0.972863	0.012924	-0.083435
O4	O	0.876177	0.287202	-0.083424
O5	O	1.023826	-0.029807	0.083397
O6	O	0.851305	0.114858	0.083405
O7	O	1.099660	0.099807	0.083400
Cu8	Cu	0.980136	0.103431	0.098636
Cu9	Cu	0.919867	0.153965	-0.098663
O10	O	0.927140	0.244472	0.083408
C11	C	1.008460	-0.043538	-0.000023
C12	C	1.038589	-0.148116	-0.000034
C13	C	0.794815	0.135611	-0.000010
C14	C	0.702420	0.133774	-0.000009
C15	C	0.739234	-0.435844	-0.000006
C16	C	0.767571	-0.534117	-0.000004
C17	C	0.926951	-0.556596	-0.000008
C18	C	0.898627	-0.458322	-0.000014
C19	C	0.804768	-0.397953	-0.000012
C20	C	0.964160	-0.420431	-0.000021
C21	C	0.935839	-0.322167	-0.000022
C22	C	0.841985	-0.261793	-0.000017
C23	C	0.776447	-0.299689	-0.000014
C24	C	1.058020	-0.480803	-0.000016
C25	C	1.123554	-0.442913	-0.000023
C26	C	1.095231	-0.344645	-0.000031
C27	C	1.001377	-0.284271	-0.000026
C28	C	1.160769	-0.306749	-0.000035
C29	C	1.132448	-0.208485	-0.000036
C30	C	0.973056	-0.186007	-0.000027
C31	C	0.366731	0.127024	-0.000021
C32	C	0.358195	0.231535	-0.000389
C33	C	0.454384	0.233423	-0.000008
C34	C	0.533270	0.130374	-0.000015
C35	C	0.549134	0.053770	0.095248
C36	C	0.452749	0.052494	0.095324
C37	C	0.395588	0.098954	-0.094396
C38	C	0.490521	0.103145	-0.095650
C39	C	0.627394	0.132260	-0.000009
C40	C	0.272610	0.125133	-0.000020
C41	C	1.105188	0.121786	-0.000019
C42	C	1.197580	0.123624	-0.000027
C43	C	0.891543	0.300935	-0.000007
C44	C	0.861411	0.405514	-0.000002
N45	N	1.022533	0.067887	0.237404
N46	N	0.877479	0.189501	-0.237432
C47	C	0.752931	0.293886	0.605068
C48	C	0.785050	0.266969	0.710088
C49	C	0.937825	0.138916	0.710041
C50	C	0.905717	0.165820	0.605019
C51	C	0.813270	0.243306	0.552540
C52	C	0.966057	0.115239	0.552492
C53	C	0.933953	0.142144	0.447479
C54	C	0.841510	0.219630	0.394993
C55	C	0.781167	0.270211	0.447527
C56	C	1.058506	0.037757	0.604972
C57	C	1.118845	-0.012823	0.552445
C58	C	1.086740	0.014077	0.447430
C59	C	0.994297	0.091563	0.394945
C60	C	1.147083	-0.036504	0.394896
C61	C	1.114980	-0.009599	0.289883
C62	C	0.962193	0.118468	0.289932
H63	H	0.896625	-0.136849	-0.000033
C64	C	0.314191	0.168137	-0.191945
N65	N	0.252881	0.220257	-0.265414
C66	C	1.204537	-0.166802	-0.000048
N67	N	1.258836	-0.135406	-0.000056
H68	H	0.476010	0.159206	-0.166126
C69	C	1.264014	-0.373169	-0.000028
N70	N	1.341779	-0.423197	-0.000024
H71	H	0.436699	0.070407	0.166540
C72	C	0.563563	0.003516	-0.103425
N73	N	0.618580	-0.071533	-0.109272
C74	C	0.435134	0.312237	-0.092299
N75	N	0.420632	0.371589	-0.161828
H76	H	0.605131	-0.022967	0.098786
C77	C	1.248775	-0.121734	0.452637
N78	N	1.325370	-0.185931	0.496127
H79	H	1.013098	0.075828	0.752781
H80	H	0.818930	-0.181782	-0.000012
H81	H	1.164115	-0.050787	0.247115
H82	H	0.735906	0.308166	0.752850
H83	H	0.297098	0.289281	-0.068707
C84	C	0.806195	0.249225	0.279475
N85	N	0.779595	0.271514	0.192466
C86	C	1.093818	0.008163	0.720491
N87	N	1.120414	-0.014129	0.807499
H88	H	1.199975	-0.492079	-0.000020
H89	H	0.714203	-0.564965	0.000016
C90	C	0.590596	0.078218	0.191033
N91	N	0.621817	0.096639	0.263177
C92	C	0.330602	0.262098	0.091395
N93	N	0.309819	0.285115	0.160529
C94	C	0.490602	0.265300	0.092419
N95	N	0.517883	0.289307	0.162042
C96	C	0.635984	-0.369432	-0.000004
N97	N	0.558220	-0.319412	0.000001
H98	H	0.705883	0.333302	0.404797
C99	C	0.673196	-0.233277	-0.000012
N100	N	0.595433	-0.183257	-0.000007
C101	C	1.030193	-0.623012	-0.000011
N102	N	1.107955	-0.673034	-0.000018
H103	H	0.462787	-0.025172	0.099646
H104	H	1.081073	-0.560814	-0.000024
C105	C	0.407969	-0.004650	-0.095275
N106	N	0.417290	-0.082684	-0.095931
C107	C	0.651211	0.379088	0.547335
N108	N	0.574593	0.443248	0.503851
H109	H	0.886910	0.181558	0.247202
C110	C	1.220534	-0.098059	0.610184
N111	N	1.297125	-0.162264	0.653671
