data_functionalizedCrystal
_audit_creation_method	'MofGen! by Chris Wilmer'
_symmetry_space_group_name_H-M	'P1'
_symmetry_Int_Tables_number	1
_symmetry_cell_setting	triclinic
loop_
_symmetry_equiv_pos_as_xyz
  x,y,z
_cell_length_a	27.731993
_cell_length_b	27.732048
_cell_length_c	11.804365
_cell_angle_alpha	101.725897
_cell_angle_beta	78.265632
_cell_angle_gamma	82.631525
loop_
_atom_site_label
_atom_site_type_symbol
_atom_site_fract_x
_atom_site_fract_y
_atom_site_fract_z
O1	O	0.650752	0.047588	-0.098712
O2	O	1.150752	0.547588	0.401288
O3	O	0.509962	0.056353	-0.098787
O4	O	1.009962	0.556353	0.401213
O5	O	0.584727	-0.018425	-0.098724
O6	O	1.084727	0.481575	0.401276
O7	O	0.575987	0.122366	-0.098774
O8	O	1.075987	0.622366	0.401226
O9	O	0.565045	0.001242	0.099315
O10	O	1.065045	0.501242	0.599315
O11	O	0.490279	0.076020	0.099253
O12	O	0.990279	0.576020	0.599253
O13	O	0.631069	0.067254	0.099328
O14	O	1.131069	0.567254	0.599328
Cu15	Cu	0.558877	0.073433	0.117373
Cu16	Cu	1.058877	0.573433	0.617373
Cu17	Cu	0.582154	0.050175	-0.116832
Cu18	Cu	1.082154	0.550175	0.383168
O19	O	0.556304	0.142032	0.099265
O20	O	1.056304	0.642032	0.599265
C21	C	0.482114	0.066006	0.000224
C22	C	0.982114	0.566006	0.500224
C23	C	0.428461	0.065461	0.000197
C24	C	0.928461	0.565461	0.500197
C25	C	0.574702	-0.026598	0.000299
C26	C	1.074702	0.473402	0.500299
C27	C	0.574149	-0.080252	0.000308
C28	C	1.074149	0.419748	0.500308
C29	C	0.056024	0.050816	-0.107696
C30	C	0.556024	0.550816	0.392304
C31	C	0.257684	0.052879	-0.107729
C32	C	0.757684	0.552879	0.392271
O33	O	0.292882	0.044010	-0.199539
O34	O	0.792882	0.544010	0.300461
N35	N	0.272176	0.063858	0.000220
N36	N	0.772176	0.563858	0.500220
C37	C	0.236249	0.074318	0.108185
C38	C	0.736249	0.574318	0.608185
O39	O	0.253203	0.083698	0.200001
O40	O	0.753203	0.583698	0.700001
C41	C	0.034590	0.072251	0.108217
C42	C	0.534590	0.572251	0.608217
C43	C	0.020101	0.061276	0.000261
C44	C	0.520101	0.561276	0.500261
C45	C	0.041534	0.039842	-0.215643
C46	C	0.541534	0.539842	0.284357
C47	C	-0.008879	0.039328	-0.215633
C48	C	0.491121	0.539328	0.284367
C49	C	-0.044801	0.049789	-0.107677
C50	C	0.455199	0.549789	0.392323
C51	C	-0.030312	0.060763	0.000270
C52	C	0.469688	0.560763	0.500270
C53	C	-0.001336	0.082707	0.216180
C54	C	0.498664	0.582707	0.716180
C55	C	-0.051753	0.082188	0.216179
C56	C	0.448247	0.582188	0.716179
C57	C	-0.066242	0.071214	0.108223
C58	C	0.433758	0.571214	0.608223
C59	C	-0.116647	0.070711	0.108236
C60	C	0.383353	0.570711	0.608236
N61	N	-0.131139	0.059732	0.000287
N62	N	0.368861	0.559732	0.500287
C63	C	-0.095216	0.049272	-0.107669
C64	C	0.404784	0.549272	0.392331
C65	C	0.342123	0.075404	0.108161
C66	C	0.842123	0.575404	0.608161
C67	C	0.392538	0.075921	0.108153
C68	C	0.892538	0.575921	0.608153
C69	C	0.413970	0.054482	-0.107761
C70	C	0.913970	0.554482	0.392239
C71	C	0.363554	0.053968	-0.107752
C72	C	0.863554	0.553968	0.392248
C73	C	0.327632	0.064425	0.000212
C74	C	0.827632	0.564425	0.500212
C75	C	-0.201087	0.048195	-0.107641
C76	C	0.298913	0.548195	0.392359
C77	C	-0.251505	0.047685	-0.107623
C78	C	0.248495	0.547685	0.392377
C79	C	-0.272933	0.069122	0.108291
C80	C	0.227067	0.569122	0.608291
C81	C	-0.222519	0.069635	0.108273
C82	C	0.277481	0.569635	0.608273
C83	C	-0.186596	0.059169	0.000297
C84	C	0.313404	0.559169	0.500297
O85	O	-0.151871	0.079570	0.199999
O86	O	0.348129	0.579570	0.699999
O87	O	-0.112178	0.039882	-0.199472
O88	O	0.387822	0.539882	0.300528
C89	C	0.106436	0.051329	-0.107705
C90	C	0.606436	0.551329	0.392295
C91	C	0.120926	0.062303	0.000242
C92	C	0.620926	0.562303	0.500242
C93	C	0.085003	0.072764	0.108199
C94	C	0.585003	0.572764	0.608199
C95	C	0.171340	0.062820	0.000235
C96	C	0.671340	0.562820	0.500235
C97	C	0.207263	0.052360	-0.107722
C98	C	0.707263	0.552360	0.392278
C99	C	0.192772	0.041381	-0.215671
C100	C	0.692772	0.541381	0.284329
C101	C	0.142359	0.040868	-0.215661
C102	C	0.642359	0.540868	0.284339
C103	C	0.099495	0.083742	0.216147
C104	C	0.599495	0.583742	0.716147
C105	C	0.149908	0.084255	0.216129
C106	C	0.649908	0.584255	0.716129
C107	C	0.185831	0.073794	0.108173
C108	C	0.685831	0.573794	0.608173
C109	C	0.614857	-0.419079	0.000269
C110	C	1.114857	0.080921	0.500269
C111	C	0.612808	-0.620740	0.000251
C112	C	1.112808	-0.120740	0.500251
O113	O	0.650033	-0.652006	0.000218
O114	O	1.150033	-0.152006	0.500218
N115	N	0.568474	-0.639857	0.000229
N116	N	1.068474	-0.139857	0.500229
C117	C	0.524650	-0.608556	0.000203
C118	C	1.024650	-0.108556	0.500203
O119	O	0.486895	-0.629445	0.000171
O120	O	0.986895	-0.129445	0.500171
C121	C	0.526700	-0.406897	0.000212
C122	C	1.026700	0.093103	0.500212
C123	C	0.571036	-0.387782	0.000246
C124	C	1.071036	0.112218	0.500246
C125	C	0.659190	-0.399963	0.000302
C126	C	1.159190	0.100037	0.500302
C127	C	0.659701	-0.349550	0.000313
C128	C	1.159701	0.150450	0.500313
C129	C	0.615880	-0.318253	0.000290
C130	C	1.115880	0.181747	0.500290
C131	C	0.571547	-0.337369	0.000257
C132	C	1.071547	0.162631	0.500257
C133	C	0.482877	-0.375598	0.000178
C134	C	0.982877	0.124402	0.500178
C135	C	0.483394	-0.325181	0.000177
C136	C	0.983394	0.174819	0.500177
C137	C	0.527730	-0.306066	0.000211
C138	C	1.027730	0.193934	0.500211
C139	C	0.528237	-0.255659	0.000246
C140	C	1.028237	0.244341	0.500246
N141	N	0.572572	-0.236542	0.000268
N142	N	1.072572	0.263458	0.500268
C143	C	0.616393	-0.267839	0.000291
C144	C	1.116393	0.232161	0.500291
C145	C	0.523576	-0.714430	0.000200
C146	C	1.023576	-0.214430	0.500200
C147	C	0.523063	-0.764845	0.000200
C148	C	1.023063	-0.264845	0.500200
C149	C	0.611222	-0.777025	0.000246
C150	C	1.111222	-0.277025	0.500246
C151	C	0.611733	-0.726609	0.000255
C152	C	1.111733	-0.226609	0.500255
C153	C	0.567910	-0.695313	0.000223
C154	C	1.067910	-0.195313	0.500223
C155	C	0.617463	-0.161967	0.000314
C156	C	1.117463	0.338033	0.500314
C157	C	0.617970	-0.111549	0.000330
C158	C	1.117970	0.388451	0.500330
C159	C	0.529812	-0.099374	0.000278
C160	C	1.029812	0.400626	0.500278
C161	C	0.529304	-0.149787	0.000269
C162	C	1.029304	0.350213	0.500269
C163	C	0.573134	-0.181084	0.000283
C164	C	1.073134	0.318916	0.500283
O165	O	0.491034	-0.224366	0.000265
O166	O	0.991034	0.275634	0.500265
O167	O	0.654145	-0.246943	0.000296
O168	O	1.154145	0.253057	0.500296
C169	C	0.614346	-0.469492	0.000258
C170	C	1.114346	0.030508	0.500258
C171	C	0.570014	-0.488608	0.000225
C172	C	1.070014	0.011392	0.500225
C173	C	0.526193	-0.457311	0.000202
C174	C	1.026193	0.042689	0.500202
C175	C	0.569501	-0.539022	0.000224
C176	C	1.069501	-0.039022	0.500224
C177	C	0.613322	-0.570319	0.000247
C178	C	1.113322	-0.070319	0.500247
C179	C	0.657656	-0.551202	0.000269
C180	C	1.157656	-0.051202	0.500269
C181	C	0.658167	-0.500789	0.000280
C182	C	1.158167	-0.000789	0.500280
C183	C	0.481858	-0.476428	0.000180
C184	C	0.981858	0.023572	0.500180
C185	C	0.481351	-0.526841	0.000170
C186	C	0.981351	-0.026841	0.500170
C187	C	0.525172	-0.558138	0.000193
C188	C	1.025172	-0.058138	0.500193
C189	C	0.658917	0.057602	0.000314
C190	C	1.158917	0.557602	0.500314
C191	C	0.712572	0.058146	0.000334
C192	C	1.212572	0.558146	0.500334
C193	C	0.566330	0.150205	0.000240
C194	C	1.066330	0.650205	0.500240
C195	C	0.566884	0.203858	0.000222
C196	C	1.066884	0.703858	0.500222
N197	N	0.542509	0.089791	0.282100
N198	N	1.042509	0.589791	0.782100
N199	N	0.598526	0.033813	-0.281559
N200	N	1.098526	0.533813	0.218441
C201	C	0.637833	-0.005478	0.656128
C202	C	1.137833	0.494522	1.156128
C203	C	0.650215	-0.017855	0.531476
C204	C	1.150215	0.482145	1.031476
C205	C	0.623289	0.009055	0.469126
C206	C	1.123289	0.509055	0.969126
C207	C	0.583980	0.048345	0.531440
C208	C	1.083980	0.548345	1.031440
C209	C	0.571599	0.060725	0.656103
C210	C	1.071599	0.560725	1.156103
C211	C	0.557056	0.075259	0.469101
C212	C	1.057056	0.575259	0.969101
C213	C	0.517746	0.114548	0.531415
C214	C	1.017746	0.614548	1.031415
C215	C	0.505367	0.126927	0.656066
C216	C	1.005367	0.626927	1.156066
C217	C	0.532293	0.100016	0.718416
C218	C	1.032293	0.600016	1.218416
C219	C	0.569436	0.062878	0.344438
C220	C	1.069436	0.562878	0.844438
C221	C	0.503203	0.129082	0.344413
C222	C	1.003203	0.629082	0.844413
C223	C	0.490821	0.141458	0.469064
C224	C	0.990821	0.641458	0.969064
H225	H	-0.263298	0.038749	-0.195537
H226	H	0.236702	0.538749	0.304463
H227	H	0.481278	0.150995	0.293648
H228	H	0.981278	0.650995	0.793648
H229	H	0.487888	-0.688953	0.000175
H230	H	0.987888	-0.188953	0.500175
H231	H	0.693336	-0.576692	0.000292
H232	H	1.193336	-0.076692	0.500292
Br233	Br	0.169563	0.099155	0.362656
Br234	Br	0.669563	0.599155	0.862656
Br235	Br	0.412193	0.090828	0.254670
Br236	Br	0.912193	0.590828	0.754670
H237	H	-0.171844	0.039673	-0.195566
H238	H	0.328156	0.539673	0.304434
Br239	Br	0.674377	-0.041990	0.740745
Br240	Br	1.174377	0.458010	1.240745
H241	H	0.473363	0.158922	0.706802
H242	H	0.973363	0.658922	1.206802
H243	H	0.070250	0.092258	0.304061
H244	H	0.570250	0.592258	0.804061
H245	H	-0.020670	0.030390	-0.303542
H246	H	0.479330	0.530390	0.196458
Br247	Br	0.515484	0.116812	0.887594
Br248	Br	1.015484	0.616812	1.387594
H249	H	0.443227	0.045966	-0.195663
H250	H	0.943227	0.545966	0.304337
H251	H	0.654074	-0.095988	0.000361
H252	H	1.154074	0.404012	0.500361
H253	H	0.070779	0.031321	-0.303559
H254	H	0.570779	0.531321	0.196441
H255	H	0.633373	-0.001024	0.367629
H256	H	1.133373	0.498976	0.867629
H257	H	0.351762	0.045031	-0.195659
H258	H	0.851762	0.545031	0.304341
Br259	Br	0.293377	0.089604	0.254698
Br260	Br	0.793377	0.589604	0.754698
H261	H	-0.210724	0.078581	0.196179
H262	H	0.289276	0.578581	0.696179
H263	H	0.682221	-0.049843	0.480746
H264	H	1.182221	0.450157	0.980746
Br265	Br	-0.321695	0.083321	0.254796
Br266	Br	0.178305	0.583321	0.754796
H267	H	0.222029	0.032866	-0.303573
H268	H	0.722029	0.532866	0.196427
Br269	Br	0.719878	-0.323619	0.000326
Br270	Br	1.219878	0.176381	0.500326
Br271	Br	0.670693	-0.819509	0.000273
Br272	Br	1.170693	-0.319509	0.500273
H273	H	0.010451	0.091642	0.304090
H274	H	0.510451	0.591642	0.804090
H275	H	-0.081000	0.090709	0.304098
H276	H	0.419000	0.590709	0.804098
H277	H	0.445243	-0.542399	0.000153
H278	H	0.945243	-0.042399	0.500153
Br279	Br	0.422704	-0.401528	0.000126
Br280	Br	0.922704	0.098472	0.500126
H281	H	0.130568	0.031931	-0.303570
H282	H	0.630568	0.531931	0.196430
Br283	Br	0.622783	0.009559	0.259885
Br284	Br	1.122783	0.509559	0.759885
H285	H	0.653154	-0.187444	0.000321
H286	H	1.153154	0.312556	0.500321
Br287	Br	0.718670	-0.442429	0.000331
Br288	Br	1.218670	0.057571	0.500331
Br289	Br	0.671905	-0.700672	0.000304
Br290	Br	1.171905	-0.200672	0.500304
H291	H	0.486958	-0.780402	0.000193
H292	H	0.986958	-0.280402	0.500193
H293	H	0.447707	-0.299702	0.000149
H294	H	0.947707	0.200298	0.500149
Br295	Br	0.470343	-0.056890	0.000249
Br296	Br	0.970343	0.443110	0.500249
Br297	Br	0.469131	-0.175728	0.000249
Br298	Br	0.969131	0.324272	0.500249
H299	H	0.694270	-0.485230	0.000307
H300	H	1.194270	0.014770	0.500307
Br301	Br	0.437472	0.194778	0.553644
Br302	Br	0.937472	0.694778	1.053644
H303	H	0.446173	-0.450950	0.000159
H304	H	0.946173	0.049050	0.500159
