data_functionalizedCrystal
_audit_creation_method	'MofGen! by Chris Wilmer'
_symmetry_space_group_name_H-M	'P1'
_symmetry_Int_Tables_number	1
_symmetry_cell_setting	triclinic
loop_
_symmetry_equiv_pos_as_xyz
  x,y,z
_cell_length_a	15.944551
_cell_length_b	13.339071
_cell_length_c	12.376457
_cell_angle_alpha	75.590460
_cell_angle_beta	101.276265
_cell_angle_gamma	99.564008
loop_
_atom_site_label
_atom_site_type_symbol
_atom_site_fract_x
_atom_site_fract_y
_atom_site_fract_z
O1	O	0.409522	1.361717	-0.094037
O2	O	0.354250	1.067186	-0.094033
O3	O	0.261486	1.222492	-0.094025
O4	O	0.502285	1.206411	-0.094045
O5	O	0.284636	1.183680	0.093985
O6	O	0.377400	1.028373	0.093977
O7	O	0.432672	1.322904	0.093973
Zn8	Zn	0.408711	1.169476	0.123826
Zn9	Zn	0.378210	1.220614	-0.123885
O10	O	0.525435	1.167598	0.093965
C11	C	0.241612	1.202418	-0.000019
C12	C	0.147899	1.200416	-0.000019
C13	C	0.356488	1.010089	-0.000027
C14	C	0.328658	0.897785	-0.000025
C15	C	0.241873	0.857079	-0.000014
C16	C	0.215722	0.751565	-0.000018
C17	C	0.276355	0.686746	-0.000024
C18	C	0.363143	0.727450	-0.000027
C19	C	0.389295	0.832976	-0.000032
C20	C	0.423777	0.662642	-0.000042
C21	C	0.510565	0.703347	-0.000046
C22	C	0.536714	0.808862	-0.000050
C23	C	0.476081	0.873682	-0.000044
C24	C	0.397625	0.557116	-0.000037
C25	C	0.545047	0.533013	-0.000055
C26	C	0.571198	0.638527	-0.000052
C27	C	-0.090506	1.099366	-0.000033
C28	C	-0.129174	1.127155	0.092667
C29	C	-0.023672	1.196796	-0.000027
C30	C	-0.151977	1.165444	-0.092697
C31	C	-0.189403	1.193293	-0.000041
C32	C	-0.061097	1.224595	0.092749
C33	C	-0.083906	1.262888	-0.092698
C34	C	-0.122538	1.290743	0.000025
C35	C	0.071802	1.198811	-0.000019
C36	C	-0.284872	1.191284	-0.000041
C37	C	0.545309	1.187673	-0.000043
C38	C	0.639021	1.189676	-0.000051
C39	C	0.430433	1.380001	-0.000035
C40	C	0.458262	1.492307	-0.000044
N41	N	0.429529	1.134584	0.292882
N42	N	0.357388	1.255515	-0.292942
C43	C	0.309047	1.336512	0.647878
C44	C	0.294475	1.360927	0.529539
C45	C	0.328237	1.304343	0.470369
C46	C	0.376574	1.223340	0.529549
C47	C	0.391153	1.198927	0.647900
C48	C	0.410343	1.166758	0.470391
C49	C	0.458679	1.085755	0.529571
C50	C	0.473255	1.061346	0.647910
C51	C	0.439493	1.117930	0.707080
C52	C	0.395764	1.191171	0.352041
C53	C	0.477870	1.053587	0.352062
C54	C	0.492441	1.029171	0.470401
H55	H	0.326962	0.523986	-0.000035
C56	C	0.342604	1.280272	0.286951
H57	H	0.338763	1.286719	0.207995
H58	H	0.286368	1.265297	0.306352
H59	H	0.369898	1.343783	0.306337
H60	H	0.531799	0.963216	0.518600
C61	C	-0.141937	1.400018	0.000153
H62	H	-0.181559	1.424123	-0.065705
H63	H	-0.166210	1.396556	0.065429
H64	H	-0.090028	1.446780	0.000818
C65	C	0.515015	0.991344	0.286988
H66	H	0.499404	1.017479	0.208032
H67	H	0.576028	0.998334	0.306374
H68	H	0.492513	0.919823	0.306395
C69	C	-0.008087	1.258329	0.198742
H70	H	0.051538	1.259353	0.198121
H71	H	-0.019189	1.326055	0.199015
H72	H	-0.023899	1.210367	0.264488
C73	C	0.241345	1.450054	0.464444
H74	H	0.237516	1.456507	0.385490
H75	H	0.185102	1.435111	0.483825
H76	H	0.268660	1.513552	0.483846
C77	C	0.247592	0.570681	-0.000015
H78	H	0.187222	0.555720	-0.000001
H79	H	0.260826	0.555883	-0.065575
H80	H	0.276972	0.528829	0.065560
C81	C	-0.070943	0.990096	0.000090
H82	H	-0.086273	0.942027	0.066040
H83	H	-0.103287	0.968593	-0.065093
H84	H	-0.011187	0.992257	-0.000575
C85	C	0.271917	1.398745	0.712965
H86	H	0.287520	1.372600	0.791921
H87	H	0.294416	1.470261	0.693555
H88	H	0.210898	1.391754	0.693586
C89	C	0.455525	1.091078	0.837253
H90	H	0.428496	1.136382	0.864011
H91	H	0.432231	1.020898	0.864043
H92	H	0.515746	1.099410	0.864015
C93	C	0.504849	0.989748	-0.000041
H94	H	0.565220	1.004709	-0.000043
H95	H	0.475466	1.031609	-0.065597
H96	H	0.491620	1.004527	0.065538
H97	H	0.641863	0.671684	-0.000055
H98	H	-0.149235	1.069766	0.171038
C99	C	-0.056778	1.340364	-0.198572
H100	H	-0.088313	1.319233	-0.264376
H101	H	-0.068402	1.408110	-0.199240
H102	H	0.003121	1.341527	-0.197431
C103	C	0.120266	0.706794	-0.000002
H104	H	0.087902	0.760506	0.000013
H105	H	0.098922	0.679664	-0.065561
H106	H	0.115081	0.652599	0.065573
H107	H	-0.191309	1.140402	-0.171072
C108	C	0.526440	0.972260	0.713005
H109	H	0.544458	0.942054	0.660821
H110	H	0.575588	0.999138	0.759153
H111	H	0.492078	0.920619	0.759189
H112	H	0.607380	0.842003	-0.000070
H113	H	0.192514	0.909865	-0.000017
H114	H	0.594420	0.480236	-0.000061
H115	H	0.316371	1.324226	0.374013
