data_functionalizedCrystal
_audit_creation_method	'MofGen! by Chris Wilmer'
_symmetry_space_group_name_H-M	'P1'
_symmetry_Int_Tables_number	1
_symmetry_cell_setting	triclinic
loop_
_symmetry_equiv_pos_as_xyz
  x,y,z
_cell_length_a	16.625547
_cell_length_b	16.625539
_cell_length_c	17.641144
_cell_angle_alpha	78.809763
_cell_angle_beta	101.173176
_cell_angle_gamma	89.975178
loop_
_atom_site_label
_atom_site_type_symbol
_atom_site_fract_x
_atom_site_fract_y
_atom_site_fract_z
Zn1	Zn	1.297517	-0.520968	0.314588
Zn2	Zn	1.797517	-0.020968	0.814588
Zn3	Zn	1.324657	-0.413426	0.446737
Zn4	Zn	1.824657	0.086574	0.946737
Zn5	Zn	1.162685	-0.386144	0.314616
Zn6	Zn	1.662685	0.113856	0.814616
Zn7	Zn	1.189876	-0.548196	0.446689
Zn8	Zn	1.689876	-0.048196	0.946689
O9	O	1.243684	-0.467184	0.380658
O10	O	1.743684	0.032816	0.880658
O11	O	1.413952	-0.506725	0.332127
O12	O	1.913952	-0.006725	0.832127
O13	O	1.303149	-0.296981	0.429243
O14	O	1.803149	0.203019	0.929243
O15	O	1.157833	-0.381217	0.204034
O16	O	1.657833	0.118783	0.704034
O17	O	1.433891	-0.427714	0.429216
O18	O	1.933891	0.072286	0.929216
O19	O	1.256894	-0.480271	0.204014
O20	O	1.756894	0.019729	0.704014
O21	O	1.184149	-0.276937	0.332173
O22	O	1.684149	0.223063	0.832173
O23	O	1.053458	-0.407618	0.332127
O24	O	1.553458	0.092382	0.832127
O25	O	1.204176	-0.657410	0.429134
O26	O	1.704176	-0.157410	0.929134
O27	O	1.073435	-0.526677	0.429161
O28	O	1.573435	-0.026677	0.929161
O29	O	1.283260	-0.637406	0.332080
O30	O	1.783260	-0.137406	0.832080
O31	O	1.329515	-0.454116	0.557309
O32	O	1.829515	0.045884	1.057309
O33	O	1.230492	-0.553131	0.557274
O34	O	1.730492	-0.053131	1.057274
C35	C	1.034190	-0.467143	0.380642
C36	C	1.534190	0.032857	0.880642
C37	C	0.944571	-0.467148	0.380655
C38	C	1.444571	0.032852	0.880655
C39	C	0.871789	-0.467158	0.380656
C40	C	1.371789	0.032842	0.880656
C41	C	0.780481	-0.467179	0.380660
C42	C	1.280481	0.032821	0.880660
C43	C	0.707706	-0.467201	0.380668
C44	C	1.207706	0.032799	0.880668
C45	C	0.616393	-0.467222	0.380673
C46	C	1.116393	0.032778	0.880673
C47	C	1.243724	-0.677481	0.380599
C48	C	1.743724	-0.177481	0.880599
C49	C	1.243741	-0.767097	0.380574
C50	C	1.743741	-0.267097	0.880574
C51	C	1.243760	-1.095254	0.380485
C52	C	1.743760	-0.595254	0.880485
C53	C	1.243753	-1.003951	0.380512
C54	C	1.743753	-0.503951	0.880512
C55	C	1.243751	-0.931178	0.380530
C56	C	1.743751	-0.431178	0.880530
C57	C	1.243743	-0.839869	0.380556
C58	C	1.743743	-0.339869	0.880556
C59	C	1.453996	-0.467226	0.380674
C60	C	1.953996	0.032774	0.880674
C61	C	1.543618	-0.467244	0.380680
C62	C	2.043618	0.032756	0.880680
C63	C	1.285921	-0.509556	0.585963
C64	C	1.785921	-0.009556	1.085963
C65	C	1.304064	-0.527711	0.673794
C66	C	1.804064	-0.027711	1.173794
C67	C	1.243678	-0.257693	0.380659
C68	C	1.743678	0.242307	0.880659
C69	C	1.243771	-0.168032	0.380462
C70	C	1.743771	0.331968	0.880462
C71	C	1.201303	-0.424663	0.174550
C72	C	1.701303	0.075337	0.674550
C73	C	1.183243	-0.406544	0.086720
C74	C	1.683243	0.093456	0.586720
C75	C	1.106144	-0.329369	0.963004
C76	C	1.606144	0.170631	1.463004
C77	C	1.123206	-0.346429	1.045534
C78	C	1.623206	0.153571	1.545534
C79	C	1.226241	-0.449625	1.045385
C80	C	1.726241	0.050375	1.545385
C81	C	1.209185	-0.432577	0.962853
C82	C	1.709185	0.067423	1.462853
C83	C	1.149137	-0.372447	0.921669
C84	C	1.649137	0.127553	1.421669
C85	C	1.252177	-0.475655	0.921518
C86	C	1.752177	0.024345	1.421518
C87	C	1.235126	-0.458604	0.838994
C88	C	1.735126	0.041396	1.338994
C89	C	1.175082	-0.398475	0.797804
C90	C	1.675082	0.101525	1.297804
C91	C	1.132085	-0.355396	0.839145
C92	C	1.632085	0.144604	1.339145
C93	C	1.312230	-0.535780	0.962704
C94	C	1.812230	-0.035780	1.462704
C95	C	1.355222	-0.578858	0.921369
C96	C	1.855222	-0.078858	1.421369
C97	C	1.338167	-0.561812	0.838843
C98	C	1.838167	-0.061812	1.338843
C99	C	1.278123	-0.501683	0.797653
C100	C	1.778123	-0.001683	1.297653
C101	C	1.381164	-0.604891	0.797502
C102	C	1.881164	-0.104891	1.297502
C103	C	1.364112	-0.587840	0.714978
C104	C	1.864112	-0.087840	1.214978
C105	C	1.261072	-0.484633	0.715128
C106	C	1.761072	0.015367	1.215128
H107	H	1.212168	-0.435675	0.681595
H108	H	1.712168	0.064325	1.181595
H109	H	1.057241	-0.280411	0.929470
H110	H	1.557241	0.219589	1.429470
N111	N	1.416545	-0.640289	0.963440
N112	N	1.916545	-0.140289	1.463440
N113	N	1.409234	-0.712773	0.954186
N114	N	1.909234	-0.212773	1.454186
H115	H	1.452542	-0.756162	0.983898
H116	H	1.952542	-0.256162	1.483898
N117	N	1.079305	-0.302387	1.087745
N118	N	1.579305	0.197613	1.587745
N119	N	1.025714	-0.248686	1.050960
N120	N	1.525714	0.251314	1.550960
H121	H	0.994720	-0.217571	1.080771
H122	H	1.494720	0.282429	1.580771
N123	N	1.287578	-0.511037	1.087469
N124	N	1.787578	-0.011037	1.587469
N125	N	1.302798	-0.526252	1.161151
N126	N	1.802798	-0.026252	1.661151
H127	H	1.346118	-0.569626	1.190872
H128	H	1.846118	-0.069626	1.690872
N129	N	1.329669	-0.553186	1.047001
N130	N	1.829669	-0.053186	1.547001
N131	N	1.354177	-0.497919	1.083852
N132	N	1.854177	0.002081	1.583852
H133	H	1.366497	-0.510210	1.143387
H134	H	1.866497	-0.010210	1.643387
H135	H	1.083182	-0.306438	0.805611
H136	H	1.583182	0.193562	1.305611
N137	N	1.442506	-0.666297	0.839588
N138	N	1.942506	-0.166297	1.339588
N139	N	1.457729	-0.681506	0.913270
N140	N	1.957729	-0.181506	1.413270
H141	H	1.501053	-0.724874	0.942993
H142	H	2.001053	-0.224874	1.442993
H143	H	1.399122	-0.622919	0.681322
H144	H	1.899122	-0.122919	1.181322
H145	H	1.161203	-0.384591	0.730607
H146	H	1.661203	0.115409	1.230607
