data_functionalizedCrystal
_audit_creation_method	'MofGen! by Chris Wilmer'
_symmetry_space_group_name_H-M	'P1'
_symmetry_Int_Tables_number	1
_symmetry_cell_setting	triclinic
loop_
_symmetry_equiv_pos_as_xyz
  x,y,z
_cell_length_a	11.026607
_cell_length_b	12.837943
_cell_length_c	10.065918
_cell_angle_alpha	81.111924
_cell_angle_beta	97.708363
_cell_angle_gamma	78.292522
loop_
_atom_site_label
_atom_site_type_symbol
_atom_site_fract_x
_atom_site_fract_y
_atom_site_fract_z
O1	O	1.679337	-0.460518	0.113473
O2	O	1.320189	-0.410000	0.113477
O3	O	1.491799	-0.282870	0.113476
O4	O	1.507726	-0.587648	0.113474
O5	O	1.456035	-0.249138	-0.113511
O6	O	1.284425	-0.376267	-0.113511
O7	O	1.643572	-0.426786	-0.113515
Zn8	Zn	1.458320	-0.396171	-0.149552
Zn9	Zn	1.505441	-0.440615	0.149514
O10	O	1.471962	-0.553915	-0.113514
C11	C	1.256019	-0.383814	-0.000016
C12	C	1.118092	-0.356031	-0.000014
C13	C	1.053157	-0.432744	-0.000014
C14	C	0.910603	-0.404032	-0.000012
C15	C	1.495225	-0.610406	-0.000020
C16	C	1.511272	-0.728478	-0.000021
C17	C	1.318358	-0.933440	0.000006
C18	C	1.333430	-1.044379	0.000006
C19	C	1.556488	-1.061296	-0.000011
C20	C	1.541416	-0.950358	-0.000011
C21	C	1.422347	-0.886433	-0.000005
C22	C	1.407275	-0.775491	-0.000014
C23	C	1.630333	-0.792412	-0.000022
C24	C	1.645405	-0.903350	-0.000022
C25	C	1.707743	-0.452972	-0.000019
C26	C	1.845671	-0.480757	-0.000012
C27	C	1.468537	-0.226380	-0.000014
C28	C	1.452491	-0.108310	-0.000005
N29	N	1.426170	-0.365840	-0.353657
C30	C	1.494247	-0.430061	-0.421437
C31	C	1.469513	-0.406709	-0.578604
N32	N	1.537600	-0.470939	0.353619
H33	H	0.895607	-0.567696	-0.000021
C34	C	1.318083	-0.264169	-0.572836
C35	C	1.322764	-0.268277	-0.432378
H36	H	1.254237	-0.203940	-0.621428
H37	H	1.396920	-0.256786	-0.596317
H38	H	1.299898	-0.328992	-0.596020
H39	H	1.340958	-0.203457	-0.409192
H40	H	1.243909	-0.275652	-0.408887
C41	C	1.721205	-1.213222	0.116681
C42	C	1.687358	-1.131584	-0.000009
H43	H	1.801995	-1.256620	0.116677
H44	H	1.723174	-1.181346	0.195817
H45	H	1.661409	-1.257079	0.116674
H46	H	1.747150	-1.087722	0.000004
H47	H	1.685399	-1.163461	-0.079165
H48	H	1.103100	-0.519678	-0.000022
C49	C	1.645485	-0.572771	-0.427208
C50	C	1.641000	-0.568516	-0.567666
H51	H	1.709311	-0.633016	-0.378616
H52	H	1.663586	-0.507980	-0.403857
H53	H	1.566602	-0.580221	-0.403893
H54	H	1.719881	-0.561058	-0.590984
H55	H	1.622906	-0.633323	-0.591027
C56	C	1.141983	-0.902191	0.116700
C57	C	1.187485	-0.863163	0.000012
H58	H	1.061190	-0.858799	0.116706
H59	H	1.136070	-0.974977	0.116688
H60	H	1.197824	-0.899246	0.195846
H61	H	1.131649	-0.866115	-0.079134
H62	H	1.193390	-0.790358	0.000012
H63	H	1.392917	-0.334433	-0.636924
H64	H	1.742348	-0.955412	-0.000033
C65	C	0.895022	-0.253490	0.116676
C66	C	0.843203	-0.286662	-0.000009
H67	H	0.853415	-0.181031	0.116671
H68	H	0.884815	-0.299530	0.195815
H69	H	0.981978	-0.257396	0.116661
H70	H	0.756248	-0.282764	0.000011
H71	H	0.853399	-0.240609	-0.079169
H72	H	1.310321	-0.723443	-0.000022
C73	C	1.239367	-1.176656	0.116706
C74	C	1.219122	-1.096048	0.000017
H75	H	1.168790	-1.208549	0.116716
H76	H	1.312420	-1.230601	0.116689
H77	H	1.250600	-1.145480	0.195851
H78	H	1.207898	-1.127227	-0.079128
H79	H	1.146048	-1.042095	0.000022
H80	H	1.715008	-0.754127	-0.000033
H81	H	1.068154	-0.269102	0.000022
H82	H	1.570846	-0.502326	-0.363112
