data_functionalizedCrystal
_audit_creation_method	'MofGen! by Chris Wilmer'
_symmetry_space_group_name_H-M	'P1'
_symmetry_Int_Tables_number	1
_symmetry_cell_setting	triclinic
loop_
_symmetry_equiv_pos_as_xyz
  x,y,z
_cell_length_a	18.050582
_cell_length_b	11.169417
_cell_length_c	11.169416
_cell_angle_alpha	89.988781
_cell_angle_beta	89.983773
_cell_angle_gamma	90.011564
loop_
_atom_site_label
_atom_site_type_symbol
_atom_site_fract_x
_atom_site_fract_y
_atom_site_fract_z
Zn1	Zn	-0.419879	-1.834864	-0.477855
Zn2	Zn	-0.086545	-1.501531	-0.144522
Zn3	Zn	0.246788	-1.168198	0.188811
Zn4	Zn	-0.295703	-1.834783	-0.678545
Zn5	Zn	0.037631	-1.501449	-0.345211
Zn6	Zn	0.370964	-1.168116	-0.011878
Zn7	Zn	-0.295710	-1.634179	-0.477877
Zn8	Zn	0.037623	-1.300846	-0.144544
Zn9	Zn	0.370957	-0.967513	0.188790
Zn10	Zn	-0.419858	-1.634158	-0.678498
Zn11	Zn	-0.086525	-1.300825	-0.345165
Zn12	Zn	0.246808	-0.967491	-0.011831
O13	O	-0.357787	-1.734496	-0.578194
O14	O	-0.024454	-1.401163	-0.244860
O15	O	0.308879	-1.067829	0.088473
O16	O	-0.403412	-2.002803	-0.504487
O17	O	-0.070079	-1.669470	-0.171154
O18	O	0.263255	-1.336137	0.162179
O19	O	-0.191779	-1.808147	-0.651954
O20	O	0.141554	-1.474814	-0.318621
O21	O	0.474888	-1.141480	0.014713
O22	O	-0.312193	-1.660844	-0.309925
O23	O	0.021140	-1.327510	0.023409
O24	O	0.354474	-0.994177	0.356742
O25	O	-0.312180	-2.002743	-0.651933
O26	O	0.021153	-1.669410	-0.318600
O27	O	0.354487	-1.336077	0.014734
O28	O	-0.403419	-1.808286	-0.309908
O29	O	-0.070086	-1.474953	0.023425
O30	O	0.263247	-1.141620	0.356758
O31	O	-0.191785	-1.660765	-0.504525
O32	O	0.141549	-1.327431	-0.171191
O33	O	0.474882	-0.994098	0.162142
O34	O	-0.312173	-1.466227	-0.504480
O35	O	0.021160	-1.132893	-0.171146
O36	O	0.354493	-0.799560	0.162187
O37	O	-0.523786	-1.660807	-0.651854
O38	O	-0.190452	-1.327474	-0.318521
O39	O	0.142881	-0.994141	0.014813
O40	O	-0.403384	-1.466211	-0.651875
O41	O	-0.070051	-1.132878	-0.318542
O42	O	0.263282	-0.799544	0.014792
O43	O	-0.523801	-1.808266	-0.504442
O44	O	-0.190467	-1.474932	-0.171109
O45	O	0.142866	-1.141599	0.162224
O46	O	-0.312160	-1.808126	-0.846488
O47	O	0.021173	-1.474793	-0.513155
O48	O	0.354506	-1.141460	-0.179821
O49	O	-0.403377	-1.660728	-0.846454
O50	O	-0.070044	-1.327395	-0.513121
O51	O	0.263290	-0.994061	-0.179787
C52	C	-0.357778	-1.422671	-0.578176
C53	C	-0.024445	-1.089338	-0.244842
C54	C	0.308889	-0.756005	0.088491
C55	C	-0.357791	-1.289271	-0.578197
C56	C	-0.024458	-0.955938	-0.244863
C57	C	0.308875	-0.622605	0.088470
C58	C	-0.551493	-1.734543	-0.578141
C59	C	-0.218160	-1.401210	-0.244807
C60	C	0.115174	-1.067876	0.088526
C61	C	-0.634039	-1.734563	-0.578118
C62	C	-0.300706	-1.401230	-0.244785
C63	C	0.032628	-1.067896	0.088549
C64	C	-0.357782	-1.734449	-0.890018
C65	C	-0.024448	-1.401115	-0.556685
C66	C	0.308885	-1.067782	-0.223352
C67	C	-0.357804	-1.734538	-1.023418
C68	C	-0.024471	-1.401205	-0.690085
C69	C	0.308862	-1.067871	-0.356752
C70	C	-0.833482	-1.654437	-0.658171
C71	C	-0.500148	-1.321103	-0.324837
C72	C	-0.166815	-0.987770	0.008496
C73	C	-0.882871	-1.763943	-0.687506
C74	C	-0.549538	-1.430610	-0.354173
C75	C	-0.216204	-1.097277	-0.020840
C76	C	-0.785169	-1.734622	-0.578026
C77	C	-0.451836	-1.401289	-0.244693
C78	C	-0.118503	-1.067956	0.088640
C79	C	-0.882862	-1.625176	-0.548657
C80	C	-0.549528	-1.291843	-0.215324
C81	C	-0.216195	-0.958509	0.118009
C82	C	-0.931155	-1.734670	-0.577940
C83	C	-0.597821	-1.401336	-0.244607
C84	C	-0.264488	-1.068003	0.088727
C85	C	-0.833472	-1.844186	-0.607419
C86	C	-0.500138	-1.510853	-0.274086
C87	C	-0.166805	-1.177520	0.059247
C88	C	-0.833458	-1.705345	-0.468519
C89	C	-0.500125	-1.372012	-0.135186
C90	C	-0.166791	-1.038678	0.198147
C91	C	-0.882825	-1.814927	-0.497813
C92	C	-0.549492	-1.481594	-0.164480
C93	C	-0.216158	-1.148261	0.168853
C94	C	-0.701071	-1.734593	-0.578079
C95	C	-0.367738	-1.401260	-0.244746
C96	C	-0.034404	-1.067927	0.088588
C97	C	-1.015251	-1.734711	-0.577887
C98	C	-0.681918	-1.401378	-0.244554
C99	C	-0.348584	-1.068044	0.088780
C100	C	-0.164835	-1.734518	-0.578160
C101	C	0.168498	-1.401185	-0.244827
C102	C	0.501831	-1.067852	0.088506
C103	C	-0.082290	-1.734731	-0.577845
C104	C	0.251043	-1.401397	-0.244511
C105	C	0.584377	-1.068064	0.088822
C106	C	-0.357797	-2.047538	-0.578213
C107	C	-0.024464	-1.714205	-0.244880
C108	C	0.308869	-1.380872	0.088454
C109	C	-0.357802	-2.180938	-0.578221
C110	C	-0.024468	-1.847605	-0.244888
C111	C	0.308865	-1.514272	0.088446
C112	C	-0.357809	-1.734577	-0.265151
C113	C	-0.024476	-1.401243	0.068182
C114	C	0.308857	-1.067910	0.401515
C115	C	-0.357819	-1.734611	-0.131751
C116	C	-0.024485	-1.401277	0.201582
C117	C	0.308848	-1.067944	0.534915
H118	H	-0.811816	-1.586690	-0.726035
H119	H	-0.478483	-1.253357	-0.392702
H120	H	-0.145149	-0.920023	-0.059368
N121	N	-0.804861	-1.966819	-0.640538
N122	N	-0.471527	-1.633486	-0.307205
N123	N	-0.138194	-1.300153	0.026128
H124	H	-0.848033	-2.022382	-0.655453
H125	H	-0.514699	-1.689049	-0.322120
H126	H	-0.181366	-1.355715	0.011214
H127	H	-0.773637	-1.999267	-0.572897
H128	H	-0.440304	-1.665934	-0.239563
H129	H	-0.106971	-1.332600	0.093770
H130	H	-0.904575	-1.788735	-0.780077
H131	H	-0.571242	-1.455401	-0.446744
H132	H	-0.237909	-1.122068	-0.113411
N133	N	-0.911358	-1.904878	-0.408001
N134	N	-0.578025	-1.571545	-0.074668
N135	N	-0.244691	-1.238212	0.258666
H136	H	-0.892589	-1.883501	-0.325552
H137	H	-0.559256	-1.550167	0.007781
H138	H	-0.225923	-1.216834	0.341115
H139	H	-0.893286	-1.987457	-0.430421
H140	H	-0.559953	-1.654123	-0.097088
H141	H	-0.226620	-1.320790	0.236246
N142	N	-0.804674	-1.672467	-0.345940
N143	N	-0.471341	-1.339134	-0.012607
N144	N	-0.138007	-1.005800	0.320727
H145	H	-0.822605	-1.589713	-0.323860
H146	H	-0.489271	-1.256380	0.009473
H147	H	-0.155938	-0.923047	0.342806
H148	H	-0.748729	-1.673539	-0.346800
H149	H	-0.415395	-1.340206	-0.013467
H150	H	-0.082062	-1.006872	0.319866
H151	H	-0.904557	-1.532599	-0.523853
H152	H	-0.571224	-1.199265	-0.190520
H153	H	-0.237891	-0.865932	0.142814
