data_functionalizedCrystal
_audit_creation_method	'MofGen! by Chris Wilmer'
_symmetry_space_group_name_H-M	'P1'
_symmetry_Int_Tables_number	1
_symmetry_cell_setting	triclinic
loop_
_symmetry_equiv_pos_as_xyz
  x,y,z
_cell_length_a	16.959453
_cell_length_b	16.959455
_cell_length_c	16.959447
_cell_angle_alpha	89.976354
_cell_angle_beta	89.970483
_cell_angle_gamma	90.024482
loop_
_atom_site_label
_atom_site_type_symbol
_atom_site_fract_x
_atom_site_fract_y
_atom_site_fract_z
Zn1	Zn	0.314771	-1.208332	0.447110
Zn2	Zn	0.814771	-0.708332	0.947110
Zn3	Zn	0.446964	-1.208233	0.314933
Zn4	Zn	0.946964	-0.708233	0.814933
Zn5	Zn	0.314792	-1.076161	0.314926
Zn6	Zn	0.814792	-0.576161	0.814926
Zn7	Zn	0.446900	-1.076104	0.447050
Zn8	Zn	0.946900	-0.576104	0.947050
O9	O	0.380857	-1.142207	0.381005
O10	O	0.880857	-0.642207	0.881005
O11	O	0.332325	-1.318930	0.429604
O12	O	0.832325	-0.818930	0.929604
O13	O	0.429466	-1.190696	0.204321
O14	O	0.929466	-0.690696	0.704321
O15	O	0.204178	-1.093759	0.332482
O16	O	0.704178	-0.593759	0.832482
O17	O	0.429446	-1.318857	0.332494
O18	O	0.929446	-0.818857	0.832494
O19	O	0.204163	-1.190865	0.429597
O20	O	0.704163	-0.690865	0.929597
O21	O	0.332360	-1.093663	0.204316
O22	O	0.832360	-0.593663	0.704316
O23	O	0.332298	-0.965542	0.332424
O24	O	0.832298	-0.465542	0.832424
O25	O	0.429338	-1.093662	0.557669
O26	O	0.929338	-0.593662	1.057669
O27	O	0.429358	-0.965500	0.429495
O28	O	0.929358	-0.465500	0.929495
O29	O	0.332264	-1.190809	0.557713
O30	O	0.832264	-0.690809	1.057713
O31	O	0.557566	-1.190640	0.332437
O32	O	1.057566	-0.690640	0.832437
O33	O	0.557520	-1.093565	0.429503
O34	O	1.057520	-0.593565	0.929503
C35	C	0.380824	-0.936841	0.380953
C36	C	0.880824	-0.436841	0.880953
C37	C	0.380829	-0.848984	0.380950
C38	C	0.880829	-0.348984	0.880950
C39	C	0.431354	-0.477460	0.330376
C40	C	0.931354	0.022540	0.830376
C41	C	0.330378	-0.477557	0.431654
C42	C	0.830378	0.022443	0.931654
C43	C	0.330368	-0.560103	0.431639
C44	C	0.830368	-0.060103	0.931639
C45	C	0.380853	-0.601331	0.380993
C46	C	0.880853	-0.101331	0.880993
C47	C	0.431347	-0.560014	0.330361
C48	C	0.931347	-0.060014	0.830361
C49	C	0.279880	-0.601427	0.482275
C50	C	0.779880	-0.101427	0.982275
C51	C	0.279868	-0.683978	0.482264
C52	C	0.779868	-0.183978	0.982264
C53	C	0.330350	-0.725208	0.431613
C54	C	0.830350	-0.225208	0.931613
C55	C	0.380846	-0.683885	0.380979
C56	C	0.880846	-0.183885	0.880979
C57	C	0.431330	-0.725113	0.330333
C58	C	0.931330	-0.225113	0.830333
C59	C	0.481823	-0.683792	0.279694
C60	C	0.981823	-0.183792	0.779694
C61	C	0.481829	-0.601243	0.279711
C62	C	0.981829	-0.101243	0.779711
C63	C	0.330344	-0.807756	0.431596
C64	C	0.830344	-0.307756	0.931596
C65	C	0.431324	-0.807667	0.330318
C66	C	0.931324	-0.307667	0.830318
C67	C	0.586223	-1.142107	0.380981
C68	C	1.086223	-0.642107	0.880981
C69	C	0.674080	-1.142137	0.380998
C70	C	1.174080	-0.642137	0.880998
C71	C	1.045489	-1.192725	0.431686
C72	C	1.545489	-0.692725	0.931686
C73	C	1.045622	-1.091690	0.330477
C74	C	1.545622	-0.591690	0.830477
C75	C	0.963076	-1.091674	0.330456
C76	C	1.463076	-0.591674	0.830456
C77	C	0.921733	-1.142184	0.381052
C78	C	1.421733	-0.642184	0.881052
C79	C	0.962936	-1.192709	0.431669
C80	C	1.462936	-0.692709	0.931669
C81	C	0.921867	-1.041145	0.279847
C82	C	1.421867	-0.541145	0.779847
C83	C	0.839316	-1.041126	0.279825
C84	C	1.339316	-0.541126	0.779825
C85	C	0.797971	-1.091640	0.330417
C86	C	1.297971	-0.591640	0.830417
C87	C	0.839179	-1.142168	0.381035
C88	C	1.339179	-0.642168	0.881035
C89	C	0.797836	-1.192678	0.431631
C90	C	1.297836	-0.692678	0.931631
C91	C	0.839043	-1.243210	0.482245
C92	C	1.339043	-0.743210	0.982245
C93	C	0.921591	-1.243223	0.482261
C94	C	1.421591	-0.743223	0.982261
C95	C	0.715423	-1.091627	0.330402
C96	C	1.215423	-0.591627	0.830402
C97	C	0.715283	-1.192662	0.431614
C98	C	1.215283	-0.692662	0.931614
C99	C	1.174689	-1.142288	0.381052
C100	C	1.674689	-0.642288	0.881052
C101	C	1.086832	-1.142215	0.381090
C102	C	1.586832	-0.642215	0.881090
C103	C	0.380791	-1.142240	0.587173
C104	C	0.880791	-0.642240	1.087173
C105	C	0.380764	-1.142254	0.675030
C106	C	0.880764	-0.642254	1.175030
C107	C	0.380882	-0.348375	0.381042
C108	C	0.880882	0.151625	0.881042
C109	C	0.380870	-0.436232	0.381022
C110	C	0.880870	0.063768	0.881022
C111	C	0.380865	-1.142220	0.175638
C112	C	0.880865	-0.642220	0.675638
C113	C	0.380670	-1.142359	0.087782
C114	C	0.880670	-0.642359	0.587782
C115	C	0.431222	-1.091768	1.046485
C116	C	0.931222	-0.591768	1.546485
C117	C	0.330138	-1.192929	1.046526
C118	C	0.830138	-0.692929	1.546526
C119	C	0.330155	-1.192908	0.963980
C120	C	0.830155	-0.692908	1.463980
C121	C	0.380707	-1.142317	0.922683
C122	C	0.880707	-0.642317	1.422683
C123	C	0.431242	-1.091747	0.963931
C124	C	0.931242	-0.591747	1.463931
C125	C	0.279626	-1.243483	0.922725
C126	C	0.779626	-0.743483	1.422725
C127	C	0.279641	-1.243464	0.840174
C128	C	0.779641	-0.743464	1.340174
C129	C	0.330190	-1.192869	0.798875
C130	C	0.830190	-0.692869	1.298875
C131	C	0.380727	-1.142296	0.840129
C132	C	0.880727	-0.642296	1.340129
C133	C	0.431279	-1.091705	0.798832
C134	C	0.931279	-0.591705	1.298832
C135	C	0.481813	-1.041128	0.840084
C136	C	0.981813	-0.541128	1.340084
C137	C	0.481791	-1.041152	0.922633
C138	C	0.981791	-0.541152	1.422633
C139	C	0.330211	-1.192845	0.716327
C140	C	0.830211	-0.692845	1.216327
C141	C	0.431299	-1.091684	0.716278
C142	C	0.931299	-0.591684	1.216278
H143	H	0.289235	-0.841396	0.472827
H144	H	0.789235	-0.341396	0.972827
H145	H	0.289280	-0.443985	0.472892
H146	H	0.789280	0.056015	0.972892
Cl147	Cl	0.663315	-1.256168	0.495220
Cl148	Cl	1.163315	-0.756168	0.995220
H149	H	0.289070	-1.234026	0.682743
H150	H	0.789070	-0.734026	1.182743
Cl151	Cl	0.216392	-0.735917	0.545921
Cl152	Cl	0.716392	-0.235917	1.045921
H153	H	0.238493	-1.284647	0.806593
H154	H	0.738493	-0.784647	1.306593
Cl155	Cl	0.494789	-0.859490	0.266640
Cl156	Cl	0.994789	-0.359490	0.766640
Cl157	Cl	0.787059	-1.306698	0.545856
Cl158	Cl	1.287059	-0.806698	1.045856
H159	H	0.238474	-1.284676	0.956355
H160	H	0.738474	-0.784676	1.456355
H161	H	0.522932	-0.717371	0.238462
H162	H	1.022932	-0.217371	0.738462
H163	H	1.079288	-1.050564	0.289287
H164	H	1.579288	-0.550564	0.789287
H165	H	0.472363	-1.050587	1.080076
H166	H	0.972363	-0.550587	1.580076
Cl167	Cl	0.973844	-0.977636	0.216260
Cl168	Cl	1.473844	-0.477636	0.716260
H169	H	0.522937	-0.567592	0.238483
H170	H	1.022937	-0.067592	0.738483
H171	H	0.472462	-0.443813	0.289145
H172	H	0.972462	0.056187	0.789145
Cl173	Cl	0.216429	-0.549595	0.545951
Cl174	Cl	0.716429	-0.049595	1.045951
Cl175	Cl	0.973398	-1.306740	0.545888
Cl176	Cl	1.473398	-0.806740	1.045888
Cl177	Cl	0.545365	-0.977535	0.788158
Cl178	Cl	1.045365	-0.477535	1.288158
H179	H	0.288985	-1.234122	1.080155
H180	H	0.788985	-0.734122	1.580155
H181	H	1.079043	-1.233869	0.472892
H182	H	1.579043	-0.733869	0.972892
H183	H	0.805771	-0.999981	0.238612
H184	H	1.305771	-0.499981	0.738612
H185	H	0.472458	-1.050479	0.682660
H186	H	0.972458	-0.550479	1.182660
Cl187	Cl	0.663624	-1.028105	0.266779
Cl188	Cl	1.163624	-0.528105	0.766779
Cl189	Cl	0.545317	-0.977580	0.974497
Cl190	Cl	1.045317	-0.477580	1.474497
