data_functionalizedCrystal
_audit_creation_method	'MofGen! by Chris Wilmer'
_symmetry_space_group_name_H-M	'P1'
_symmetry_Int_Tables_number	1
_symmetry_cell_setting	triclinic
loop_
_symmetry_equiv_pos_as_xyz
  x,y,z
_cell_length_a	19.288864
_cell_length_b	14.971500
_cell_length_c	13.448316
_cell_angle_alpha	89.999484
_cell_angle_beta	89.981082
_cell_angle_gamma	96.621966
loop_
_atom_site_label
_atom_site_type_symbol
_atom_site_fract_x
_atom_site_fract_y
_atom_site_fract_z
O1	O	-0.921717	0.111577	0.083002
O2	O	-0.421717	0.611577	0.583002
O3	O	-0.719506	0.126629	0.082933
O4	O	-0.219506	0.626629	0.582933
O5	O	-0.826026	-0.011125	0.082973
O6	O	-0.326026	0.488875	0.582973
O7	O	-0.815197	0.249332	0.082961
O8	O	-0.315197	0.749332	0.582961
O9	O	-0.826016	-0.011126	-0.082411
O10	O	-0.326016	0.488874	0.417589
O11	O	-0.719495	0.126628	-0.082451
O12	O	-0.219495	0.626628	0.417549
O13	O	-0.921706	0.111576	-0.082382
O14	O	-0.421706	0.611576	0.417618
Cu15	Cu	-0.820600	0.119102	-0.097517
Cu16	Cu	-0.320600	0.619102	0.402483
Cu17	Cu	-0.820613	0.119103	0.098068
Cu18	Cu	-0.320613	0.619103	0.598068
O19	O	-0.815186	0.249331	-0.082422
O20	O	-0.315186	0.749331	0.417578
C21	C	-0.693623	0.126144	0.000232
C22	C	-0.193623	0.626144	0.500232
C23	C	-0.616514	0.124690	0.000206
C24	C	-0.116514	0.624690	0.500206
C25	C	-0.825535	-0.044448	0.000284
C26	C	-0.325535	0.455552	0.500284
C27	C	-0.824078	-0.143736	0.000293
C28	C	-0.324078	0.356264	0.500293
C29	C	-0.947590	0.112061	0.000321
C30	C	-0.447590	0.612061	0.500321
C31	C	-1.024698	0.113515	0.000353
C32	C	-0.524698	0.613515	0.500353
C33	C	-0.572085	0.205518	0.000218
C34	C	-0.072085	0.705518	0.500218
C35	C	-0.499633	0.204153	0.000229
C36	C	0.000367	0.704153	0.500229
C37	C	-0.471614	0.121954	0.000248
C38	C	0.028386	0.621954	0.500248
C39	C	-0.516054	0.041115	0.000230
C40	C	-0.016054	0.541115	0.500230
C41	C	-0.588504	0.042484	0.000209
C42	C	-0.088504	0.542484	0.500209
C43	C	-0.363143	0.057337	0.058226
C44	C	0.136857	0.557337	0.558226
C45	C	-0.290694	0.055973	0.058253
C46	C	0.209306	0.555973	0.558253
C47	C	-0.248155	0.117731	0.000308
C48	C	0.251845	0.617731	0.500308
C49	C	-0.278072	0.180869	-0.057650
C50	C	0.221928	0.680869	0.442350
C51	C	-0.350522	0.182237	-0.057671
C52	C	0.149478	0.682237	0.442329
C53	C	-0.393056	0.120461	0.000270
C54	C	0.106944	0.620461	0.500270
C55	C	-0.125164	0.197083	0.000331
C56	C	0.374836	0.697083	0.500331
C57	C	-0.052712	0.195714	0.000336
C58	C	0.447288	0.695714	0.500336
C59	C	-0.069134	0.032675	0.000347
C60	C	0.430866	0.532675	0.500347
C61	C	-0.141585	0.034046	0.000332
C62	C	0.358415	0.534046	0.500332
C63	C	-0.169596	0.116253	0.000329
C64	C	0.330404	0.616253	0.500329
C65	C	-0.815678	0.282653	0.000269
C66	C	-0.315678	0.782653	0.500269
C67	C	-0.817134	0.381942	0.000266
C68	C	-0.317134	0.881942	0.500266
N69	N	-0.820596	0.119100	-0.235082
N70	N	-0.320596	0.619100	0.264918
C71	C	-0.823400	0.809616	0.090442
C72	C	-0.323400	1.309616	0.590442
C73	C	-0.822030	0.716325	0.090438
C74	C	-0.322030	1.216325	0.590438
C75	C	-0.821343	0.669681	0.000284
C76	C	-0.321343	1.169681	0.500284
C77	C	-0.822020	0.716335	-0.089873
C78	C	-0.322020	1.216335	0.410127
C79	C	-0.823385	0.809626	-0.089867
C80	C	-0.323385	1.309626	0.410133
C81	C	-0.819177	0.521887	-0.089877
C82	C	-0.319177	1.021887	0.410123
C83	C	-0.817813	0.428589	-0.089883
C84	C	-0.317813	0.928589	0.410117
C85	C	-0.817821	0.428585	0.090428
C86	C	-0.317821	0.928585	0.590428
C87	C	-0.819186	0.521876	0.090433
C88	C	-0.319186	1.021876	0.590433
C89	C	-0.819864	0.568524	0.000277
C90	C	-0.319864	1.068524	0.500277
C91	C	-0.862766	0.173213	-0.287105
C92	C	-0.362766	0.673213	0.212895
C93	C	-0.862775	0.173209	-0.391208
C94	C	-0.362775	0.673209	0.108792
C95	C	-0.820609	0.119097	-0.443286
C96	C	-0.320609	0.619097	0.056714
C97	C	-0.778438	0.064978	-0.391256
C98	C	-0.278438	0.564978	0.108744
C99	C	-0.778433	0.064977	-0.287154
C100	C	-0.278433	0.564977	0.212846
C101	C	-0.778448	0.064984	-0.608236
C102	C	-0.278448	0.564984	-0.108236
C103	C	-0.778452	0.064985	-0.712344
C104	C	-0.278452	0.564985	-0.212344
C105	C	-0.862790	0.173215	-0.712290
C106	C	-0.362790	0.673215	-0.212290
C107	C	-0.862786	0.173215	-0.608188
C108	C	-0.362786	0.673215	-0.108188
C109	C	-0.820613	0.119097	-0.556165
C110	C	-0.320613	0.619097	-0.056165
N111	N	-0.820622	0.119098	0.235632
N112	N	-0.320622	0.619098	0.735632
H113	H	-0.594886	0.272458	0.000217
H114	H	-0.094886	0.772458	0.500217
O115	O	-0.908259	0.231587	-0.552018
O116	O	-0.408259	0.731587	-0.052018
H117	H	-0.945546	0.188587	-0.504560
H118	H	-0.445546	0.688587	-0.004560
H119	H	-0.897126	0.217284	-0.754652
H120	H	-0.397126	0.717284	-0.254652
H121	H	-0.744094	0.020914	-0.244798
H122	H	-0.244094	0.520914	0.255202
H123	H	-0.397773	0.007044	0.105417
H124	H	0.102227	0.507044	0.605417
H125	H	-0.821457	0.678351	-0.163278
H126	H	-0.321457	1.178351	0.336722
H127	H	-0.821480	0.678348	0.163846
H128	H	-0.321480	1.178348	0.663846
H129	H	-0.823928	0.847607	-0.163276
H130	H	-0.323928	1.347607	0.336724
H131	H	-0.493236	-0.025811	0.000260
H132	H	0.006764	0.474189	0.500260
O133	O	-0.732968	0.006603	-0.447426
O134	O	-0.232968	0.506603	0.052574
H135	H	-0.703651	-0.031036	-0.393758
H136	H	-0.203651	0.468964	0.106242
O137	O	-0.038925	-0.055986	0.000355
O138	O	0.461075	0.444014	0.500355
H139	H	-0.056796	-0.094819	0.067754
H140	H	0.443204	0.405181	0.567754
O141	O	-0.817077	0.378290	-0.187128
O142	O	-0.317077	0.878290	0.312872
H143	H	-0.863767	0.327641	-0.191428
H144	H	-0.363767	0.827641	0.308572
O145	O	-0.189510	-0.053136	0.000323
O146	O	0.310490	0.446864	0.500323
H147	H	-0.222941	-0.056412	0.067716
H148	H	0.277059	0.443588	0.567716
H149	H	-0.624679	-0.023339	0.000200
H150	H	-0.124679	0.476661	0.500200
O151	O	-0.908245	0.231578	-0.230936
O152	O	-0.408245	0.731578	0.269064
H153	H	-0.937574	0.269199	-0.284605
H154	H	-0.437574	0.769199	0.215395
O155	O	-0.258432	-0.012122	0.120769
O156	O	0.241568	0.487878	0.620769
H157	H	-0.200906	-0.002690	0.111062
H158	H	0.299094	0.497310	0.611062
O159	O	-0.824134	0.859926	0.187681
O160	O	-0.324134	1.359926	0.687681
H161	H	-0.823423	0.811813	0.250365
H162	H	-0.323423	1.311813	0.750365
O163	O	-0.732976	0.006621	-0.768521
O164	O	-0.232976	0.506621	-0.268521
H165	H	-0.703657	-0.031020	-0.714859
H166	H	-0.203657	0.468980	-0.214859
H167	H	-0.463452	0.269975	0.000236
H168	H	0.036548	0.769975	0.500236
H169	H	-0.744108	0.020914	-0.565881
H170	H	-0.244108	0.520914	-0.065881
H171	H	-0.374878	0.233644	-0.104866
H172	H	0.125122	0.733644	0.395134
H173	H	-0.897115	0.217272	-0.433561
H174	H	-0.397115	0.717272	0.066439
O175	O	-0.155379	0.285747	0.000313
O176	O	0.344621	0.785747	0.500313
H177	H	-0.213223	0.273120	0.000311
H178	H	0.286777	0.773120	0.500311
H179	H	-0.819750	0.559850	0.163845
H180	H	-0.319750	1.059850	0.663845
H181	H	-0.817267	0.390601	0.163837
H182	H	-0.317267	0.890601	0.663837
H183	H	-0.243438	0.231158	-0.104835
H184	H	0.256562	0.731158	0.395165
H185	H	-0.819714	0.559867	-0.163292
H186	H	-0.319714	1.059867	0.336708
H187	H	-0.016537	0.261537	0.000340
H188	H	0.483463	0.761537	0.500340
