data_functionalizedCrystal
_audit_creation_method	'MofGen! by Chris Wilmer'
_symmetry_space_group_name_H-M	'P1'
_symmetry_Int_Tables_number	1
_symmetry_cell_setting	triclinic
loop_
_symmetry_equiv_pos_as_xyz
  x,y,z
_cell_length_a	29.839131
_cell_length_b	19.121246
_cell_length_c	19.120904
_cell_angle_alpha	90.125749
_cell_angle_beta	92.413304
_cell_angle_gamma	87.524876
loop_
_atom_site_label
_atom_site_type_symbol
_atom_site_fract_x
_atom_site_fract_y
_atom_site_fract_z
Zn1	Zn	-0.162218	-1.054794	-0.442219
Zn2	Zn	0.337782	-0.554794	0.057781
Zn3	Zn	-0.234014	-1.059681	-0.324983
Zn4	Zn	0.265986	-0.559681	0.175017
Zn5	Zn	-0.161950	-0.942561	-0.319986
Zn6	Zn	0.338050	-0.442561	0.180014
Zn7	Zn	-0.240377	-0.937487	-0.437167
Zn8	Zn	0.259623	-0.437487	0.062833
O9	O	-0.199640	-0.998631	-0.381088
O10	O	0.300360	-0.498631	0.118912
O11	O	-0.169191	-1.153551	-0.430873
O12	O	0.330809	-0.653551	0.069127
O13	O	-0.221679	-1.048313	-0.226215
O14	O	0.278321	-0.548313	0.273785
O15	O	-0.099117	-0.957527	-0.336224
O16	O	0.400883	-0.457527	0.163776
O17	O	-0.221939	-1.157141	-0.344740
O18	O	0.278061	-0.657141	0.155260
O19	O	-0.099314	-1.039984	-0.426027
O20	O	0.400686	-0.539984	0.073973
O21	O	-0.168735	-0.962265	-0.222544
O22	O	0.331265	-0.462265	0.277456
O23	O	-0.174905	-0.843779	-0.331325
O24	O	0.325095	-0.343779	0.168675
O25	O	-0.232784	-0.948879	-0.535941
O26	O	0.267216	-0.448879	-0.035941
O27	O	-0.232525	-0.840051	-0.417417
O28	O	0.267475	-0.340051	0.082583
O29	O	-0.175361	-1.035064	-0.539653
O30	O	0.324639	-0.535064	-0.039653
O31	O	-0.297727	-1.043394	-0.339841
O32	O	0.202273	-0.543394	0.160159
O33	O	-0.302402	-0.953618	-0.422262
O34	O	0.197598	-0.453618	0.077738
C35	C	-0.204377	-0.816477	-0.373281
C36	C	0.295623	-0.316477	0.126719
C37	C	-0.206414	-0.738550	-0.369957
C38	C	0.293586	-0.238550	0.130043
C39	C	-0.179956	-0.700068	-0.413309
C40	C	0.320044	-0.200068	0.086691
C41	C	-0.181868	-0.626847	-0.410180
C42	C	0.318132	-0.126847	0.089820
C43	C	-0.210241	-0.592110	-0.363703
C44	C	0.289759	-0.092110	0.136297
C45	C	-0.236701	-0.630597	-0.320346
C46	C	0.263299	-0.130597	0.179654
C47	C	-0.234786	-0.703817	-0.323472
C48	C	0.265214	-0.203817	0.176528
C49	C	-0.217393	-0.371129	-0.352015
C50	C	0.282607	0.128871	0.147985
C51	C	-0.219307	-0.297905	-0.348893
C52	C	0.280693	0.202095	0.151107
C53	C	-0.164473	-0.294160	-0.438727
C54	C	0.335527	0.205840	0.061273
C55	C	-0.162563	-0.367380	-0.441852
C56	C	0.337437	0.132620	0.058148
C57	C	-0.189020	-0.405861	-0.398493
C58	C	0.310980	0.094139	0.101507
C59	C	-0.212198	-0.517267	-0.360505
C60	C	0.287802	-0.017267	0.139495
C61	C	-0.187061	-0.480703	-0.401687
C62	C	0.312939	0.019297	0.098313
C63	C	-0.316365	-0.998504	-0.381062
C64	C	0.183635	-0.498504	0.118938
C65	C	-0.366300	-0.998513	-0.381076
C66	C	0.133700	-0.498513	0.118924
C67	C	-0.725333	-0.951913	-0.424003
C68	C	-0.225333	-0.451913	0.075997
C69	C	-0.537662	-0.951822	-0.423977
C70	C	-0.037662	-0.451822	0.076023
O71	O	-0.515481	-0.912049	-0.460456
O72	O	-0.015481	-0.412049	0.039544
N73	N	-0.511744	-0.998586	-0.381100
N74	N	-0.011744	-0.498586	0.118900
C75	C	-0.532746	-1.045380	-0.338230
C76	C	-0.032746	-0.545380	0.161770
O77	O	-0.506394	-1.085159	-0.301765
O78	O	-0.006394	-0.585159	0.198235
C79	C	-0.720416	-1.045474	-0.338260
C80	C	-0.220416	-0.545474	0.161740
C81	C	-0.746332	-0.998702	-0.381135
C82	C	-0.246332	-0.498702	0.118865
C83	C	-0.751249	-0.905146	-0.466875
C84	C	-0.251249	-0.405146	0.033125
C85	C	-0.798164	-0.905166	-0.466878
C86	C	-0.298164	-0.405166	0.033122
C87	C	-0.819163	-0.951955	-0.424010
C88	C	-0.319163	-0.451955	0.075990
C89	C	-0.793247	-0.998723	-0.381138
C90	C	-0.293247	-0.498723	0.118862
C91	C	-0.741417	-1.092271	-0.295394
C92	C	-0.241417	-0.592271	0.204606
C93	C	-0.788338	-1.092292	-0.295406
C94	C	-0.288338	-0.592292	0.204594
C95	C	-0.814254	-1.045520	-0.338281
C96	C	-0.314254	-0.545520	0.161719
C97	C	-0.861161	-1.045533	-0.338273
C98	C	-0.361161	-0.545533	0.161727
N99	N	-0.887080	-0.998768	-0.381150
N100	N	-0.387080	-0.498768	0.118850
C101	C	-0.866081	-0.951979	-0.424018
C102	C	-0.366081	-0.451979	0.075982
C103	C	-0.434216	-1.045326	-0.338216
C104	C	0.065784	-0.545326	0.161784
C105	C	-0.387299	-1.045302	-0.338208
C106	C	0.112701	-0.545302	0.161792
C107	C	-0.392218	-0.951744	-0.423956
C108	C	0.107782	-0.451744	0.076044
C109	C	-0.439137	-0.951766	-0.423961
C110	C	0.060863	-0.451766	0.076039
C111	C	-0.460135	-0.998562	-0.381093
C112	C	0.039865	-0.498562	0.118907
C113	C	-0.964605	-0.952026	-0.424022
C114	C	-0.464605	-0.452026	0.075978
C115	C	-1.011524	-0.952049	-0.424019
C116	C	-0.511524	-0.452049	0.075981
C117	C	-1.006601	-1.045609	-0.338273
C118	C	-0.506601	-0.545609	0.161727
C119	C	-0.959686	-1.045584	-0.338273
C120	C	-0.459686	-0.545584	0.161727
C121	C	-0.938689	-0.998790	-0.381153
C122	C	-0.438689	-0.498790	0.118847
O123	O	-0.883372	-1.085290	-0.301819
O124	O	-0.383372	-0.585290	0.198181
O125	O	-0.892440	-0.912217	-0.460489
O126	O	-0.392440	-0.412217	0.039511
C127	C	-0.678418	-0.951893	-0.424000
C128	C	-0.178418	-0.451893	0.076000
C129	C	-0.652502	-0.998661	-0.381128
C130	C	-0.152502	-0.498661	0.118872
C131	C	-0.673501	-1.045449	-0.338260
C132	C	-0.173501	-0.545449	0.161740
C133	C	-0.605585	-0.998636	-0.381120
C134	C	-0.105585	-0.498636	0.118880
C135	C	-0.584586	-0.951847	-0.423988
C136	C	-0.084586	-0.451847	0.076012
C137	C	-0.610504	-0.905083	-0.466866
C138	C	-0.110504	-0.405083	0.033134
C139	C	-0.657419	-0.905104	-0.466869
C140	C	-0.157419	-0.405104	0.033131
C141	C	-0.647583	-1.092214	-0.295382
C142	C	-0.147583	-0.592214	0.204618
C143	C	-0.600668	-1.092189	-0.295382
C144	C	-0.100668	-0.592189	0.204618
C145	C	-0.579669	-1.045400	-0.338251
C146	C	-0.079669	-0.545400	0.161749
C147	C	-0.082459	-0.998776	-0.381132
C148	C	0.417541	-0.498776	0.118868
C149	C	-0.032523	-0.998838	-0.381150
C150	C	0.467477	-0.498838	0.118850
C151	C	-0.204813	-0.990861	-0.563946
C152	C	0.295187	-0.490861	-0.063946
C153	C	-0.207017	-0.987550	-0.641868
C154	C	0.292983	-0.487550	-0.141868
C155	C	-0.194882	-0.181496	-0.388921
C156	C	0.305118	0.318504	0.111079
C157	C	-0.192848	-0.259423	-0.392245
C158	C	0.307152	0.240577	0.107755
C159	C	-0.178157	-1.030864	-0.680410
C160	C	0.321843	-0.530864	-0.180410
C161	C	-0.180226	-1.027744	-0.753627
C162	C	0.319774	-0.527744	-0.253627
C163	C	-0.211159	-0.981313	-0.788300
C164	C	0.288841	-0.481313	-0.288300
C165	C	-0.240020	-0.937995	-0.749753
C166	C	0.259980	-0.437995	-0.249753
C167	C	-0.237948	-0.941111	-0.676538
C168	C	0.262052	-0.441111	-0.176538
C169	C	-0.218909	-0.969655	-1.009266
C170	C	0.281091	-0.469655	-0.509266
C171	C	-0.220980	-0.966543	-1.082486
C172	C	0.279020	-0.466543	-0.582486
C173	C	-0.161185	-1.056292	-1.086355
C174	C	0.338815	-0.556292	-0.586355
C175	C	-0.159118	-1.059408	-1.013138
C176	C	0.340882	-0.559408	-0.513138
C177	C	-0.187977	-1.016086	-0.974597
C178	C	0.312023	-0.516086	-0.474597
C179	C	-0.213276	-0.978125	-0.863139
C180	C	0.286724	-0.478125	-0.363139
C181	C	-0.185858	-1.019272	-0.899760
C182	C	0.314142	-0.519272	-0.399760
C183	C	-0.194454	-1.006411	-0.198944
C184	C	0.305546	-0.506411	0.301056
C185	C	-0.192120	-1.009857	-0.121028
C186	C	0.307880	-0.509857	0.378972
H187	H	-1.032623	-0.913960	-0.458934
H188	H	-0.532623	-0.413960	0.041066
H189	H	-0.238937	-0.402452	-0.316709
H190	H	0.261063	0.097548	0.183291
H191	H	-0.246170	-0.928732	-1.110715
H192	H	0.253830	-0.428732	-0.610715
H193	H	-0.947515	-0.913923	-0.458939
H194	H	-0.447515	-0.413923	0.041061
H195	H	-0.460235	-0.913683	-0.458877
H196	H	0.039765	-0.413683	0.041123
C197	C	-0.151832	-1.070341	-0.861624
C198	C	0.348168	-0.570341	-0.361624
H199	H	-0.134937	-1.095691	-0.895062
H200	H	0.365063	-0.595691	-0.395062
H201	H	-0.167416	-1.102078	-0.834365
H202	H	0.332584	-0.602078	-0.334365
H203	H	-0.132145	-1.044754	-0.831922
H204	H	0.367855	-0.544754	-0.331922
C205	C	-0.369114	-0.900283	-0.471117
C206	C	0.130886	-0.400283	0.028883
H207	H	-0.337460	-0.906976	-0.464972
H208	H	0.162540	-0.406976	0.035028
H209	H	-0.377768	-0.853623	-0.458810
H210	H	0.122232	-0.353623	0.041190
H211	H	-0.377852	-0.908518	-0.518670
H212	H	0.122148	-0.408518	-0.018670
C213	C	-0.135369	-0.251830	-0.486411
C214	C	0.364631	0.248170	0.013589
H215	H	-0.140569	-0.203248	-0.477891
H216	H	0.359431	0.296752	0.022109
H217	H	-0.143006	-0.261831	-0.534010
H218	H	0.356994	0.238169	-0.034010
H219	H	-0.104570	-0.264290	-0.476739
H220	H	0.395430	0.235710	0.023261
C221	C	-0.712920	-1.143727	-0.248237
C222	C	-0.212920	-0.643727	0.251763
H223	H	-0.732152	-1.171598	-0.222719
H224	H	-0.232152	-0.671598	0.277281
H225	H	-0.694471	-1.118238	-0.216510
H226	H	-0.194471	-0.618238	0.283490
H227	H	-0.694560	-1.173105	-0.276395
H228	H	-0.194560	-0.673105	0.223605
H229	H	-0.261445	-0.905833	-0.645157
H230	H	0.238555	-0.405833	-0.145157
C231	C	-0.129439	-1.103936	-1.128751
C232	C	0.370561	-0.603936	-0.628751
H233	H	-0.135100	-1.095428	-1.177321
H234	H	0.364900	-0.595428	-0.677321
H235	H	-0.134448	-1.151544	-1.118771
H236	H	0.365552	-0.651544	-0.618771
H237	H	-0.099180	-1.094217	-1.116321
H238	H	0.400820	-0.594217	-0.616321
C239	C	-0.250645	-0.921989	-0.966879
C240	C	0.249355	-0.421989	-0.466879
H241	H	-0.269362	-0.893892	-0.998017
H242	H	0.230638	-0.393892	-0.498017
H243	H	-0.233435	-0.892683	-0.937024
H244	H	0.266565	-0.392683	-0.437024
H245	H	-0.268720	-0.949985	-0.939451
H246	H	0.231280	-0.449985	-0.439451
H247	H	-0.242414	-0.269624	-0.311045
H248	H	0.257586	0.230376	0.188955
H249	H	-0.163958	-0.508990	-0.439526
H250	H	0.336042	-0.008990	0.060474
C251	C	-0.274045	-0.886923	-0.787891
C252	C	0.225955	-0.386923	-0.287891
H253	H	-0.271150	-0.891275	-0.837016
H254	H	0.228850	-0.391275	-0.337016
H255	H	-0.268357	-0.840336	-0.773874
H256	H	0.231643	-0.340336	-0.273874
H257	H	-0.303626	-0.897662	-0.776319
H258	H	0.196374	-0.397662	-0.276319
C259	C	-0.243411	-0.479056	-0.309387
C260	C	0.256589	0.020944	0.190613
H261	H	-0.258896	-0.512459	-0.284012
H262	H	0.241104	-0.012459	0.215988
H263	H	-0.264513	-0.449342	-0.334935
H264	H	0.235487	0.050658	0.165065
H265	H	-0.226076	-0.451802	-0.277666
H266	H	0.273924	0.048198	0.222334
H267	H	-0.579570	-1.130275	-0.260462
H268	H	-0.079570	-0.630275	0.239538
H269	H	-0.156853	-0.728345	-0.451158
H270	H	0.343147	-0.228345	0.048842
H271	H	-0.160324	-0.595518	-0.445483
H272	H	0.339676	-0.095518	0.054517
H273	H	-0.238463	-0.940324	-0.891378
H274	H	0.261537	-0.440324	-0.391378
H275	H	-0.139460	-0.395658	-0.479701
H276	H	0.360540	0.104342	0.020299
H277	H	-0.451308	-1.083434	-0.303306
H278	H	0.048692	-0.583434	0.196694
C279	C	-0.263893	-0.746146	-0.275791
C280	C	0.236107	-0.246146	0.224209
H281	H	-0.281070	-0.714973	-0.247668
H282	H	0.218930	-0.214973	0.252332
H283	H	-0.245070	-0.776017	-0.246511
H284	H	0.254930	-0.276017	0.253489
H285	H	-0.283506	-0.773556	-0.303781
H286	H	0.216494	-0.273556	0.196219
C287	C	-0.267911	-0.592392	-0.269221
C288	C	0.232089	-0.092392	0.230779
H289	H	-0.283392	-0.625799	-0.243846
H290	H	0.216608	-0.125799	0.256154
H291	H	-0.289017	-0.562679	-0.294765
H292	H	0.210983	-0.062679	0.205235
H293	H	-0.250577	-0.565135	-0.237501
H294	H	0.249423	-0.065135	0.262499
C295	C	-0.826666	-0.853724	-0.514049
C296	C	-0.326666	-0.353724	-0.014049
H297	H	-0.807434	-0.825864	-0.539582
H298	H	-0.307434	-0.325864	-0.039582
H299	H	-0.845032	-0.824344	-0.485908
H300	H	-0.345032	-0.324344	0.014092
H301	H	-0.845109	-0.879232	-0.545774
H302	H	-0.345109	-0.379232	-0.045774
C303	C	-0.587401	-0.853618	-0.514024
C304	C	-0.087401	-0.353618	-0.014024
H305	H	-0.609553	-0.825762	-0.539561
H306	H	-0.109553	-0.325762	-0.039561
H307	H	-0.569243	-0.879110	-0.545734
H308	H	-0.069243	-0.379110	-0.045734
H309	H	-0.569159	-0.824225	-0.485866
H310	H	-0.069159	-0.324225	0.014134
C311	C	-0.728158	-0.853670	-0.514031
C312	C	-0.228158	-0.353670	-0.014031
H313	H	-0.750318	-0.825821	-0.539557
H314	H	-0.250318	-0.325821	-0.039557
H315	H	-0.709996	-0.879143	-0.545751
H316	H	-0.209996	-0.379143	-0.045751
H317	H	-0.709920	-0.824271	-0.485870
H318	H	-0.209920	-0.324271	0.014130
C319	C	-0.811436	-1.143765	-0.248249
C320	C	-0.311436	-0.643765	0.251751
H321	H	-0.843090	-1.137086	-0.254393
H322	H	-0.343090	-0.637086	0.245607
H323	H	-0.802693	-1.135545	-0.200699
H324	H	-0.302693	-0.635545	0.299301
H325	H	-0.802778	-1.190422	-0.260575
H326	H	-0.302778	-0.690422	0.239425
C327	C	-0.358796	-1.096747	-0.291041
C328	C	0.141204	-0.596747	0.208959
H329	H	-0.378026	-1.124618	-0.265518
H330	H	0.121974	-0.624618	0.234482
H331	H	-0.340349	-1.071249	-0.259318
H332	H	0.159651	-0.571249	0.240682
H333	H	-0.340434	-1.126125	-0.319194
H334	H	0.159566	-0.626125	0.180806
H335	H	-0.938584	-1.083663	-0.303353
H336	H	-0.438584	-0.583663	0.196647
H337	H	-1.023706	-1.083701	-0.303368
H338	H	-0.523706	-0.583701	0.196632
C339	C	-0.144129	-1.081934	-0.642276
C340	C	0.355871	-0.581934	-0.142276
H341	H	-0.127234	-1.107278	-0.675719
H342	H	0.372766	-0.607278	-0.175719
H343	H	-0.159708	-1.113678	-0.615017
H344	H	0.340292	-0.613678	-0.115017
H345	H	-0.124442	-1.056348	-0.612573
H346	H	0.375558	-0.556348	-0.112573
C347	C	-0.125092	-1.110482	-0.975003
C348	C	0.374908	-0.610482	-0.475003
H349	H	-0.108198	-1.135829	-1.008443
H350	H	0.391802	-0.635829	-0.508443
H351	H	-0.140677	-1.142221	-0.947747
H352	H	0.359323	-0.642221	-0.447747
H353	H	-0.105404	-1.084901	-0.945297
H354	H	0.394596	-0.584901	-0.445297
H355	H	-0.156726	-1.063017	-0.785004
H356	H	0.343274	-0.563017	-0.285004
H357	H	-0.664675	-1.130316	-0.260473
H358	H	-0.164675	-0.630316	0.239527
H359	H	-0.678516	-0.867018	-0.501783
H360	H	-0.178516	-0.367018	-0.001783
