data_functionalizedCrystal
_audit_creation_method	'MofGen! by Chris Wilmer'
_symmetry_space_group_name_H-M	'P1'
_symmetry_Int_Tables_number	1
_symmetry_cell_setting	triclinic
loop_
_symmetry_equiv_pos_as_xyz
  x,y,z
_cell_length_a	19.077236
_cell_length_b	16.959453
_cell_length_c	19.076919
_cell_angle_alpha	92.271168
_cell_angle_beta	89.887323
_cell_angle_gamma	92.312753
loop_
_atom_site_label
_atom_site_type_symbol
_atom_site_fract_x
_atom_site_fract_y
_atom_site_fract_z
Zn1	Zn	1.058311	-0.286927	-0.440540
Zn2	Zn	1.558311	0.213073	0.059460
Zn3	Zn	1.062960	-0.413599	-0.323032
Zn4	Zn	1.562960	0.086401	0.176968
Zn5	Zn	0.945527	-0.286513	-0.318320
Zn6	Zn	1.445527	0.213487	0.181680
Zn7	Zn	0.940780	-0.424144	-0.435771
Zn8	Zn	1.440780	0.075856	0.064229
O9	O	1.001895	-0.352796	-0.379416
O10	O	1.501895	0.147204	0.120584
O11	O	1.157261	-0.299491	-0.428921
O12	O	1.657261	0.200509	0.071079
O13	O	1.051314	-0.392154	-0.224077
O14	O	1.551314	0.107846	0.275923
O15	O	0.960529	-0.175956	-0.334557
O16	O	1.460529	0.324044	0.165443
O17	O	1.160677	-0.392556	-0.342588
O18	O	1.660677	0.107444	0.157412
O19	O	1.043391	-0.176261	-0.424351
O20	O	1.543391	0.323739	0.075649
O21	O	0.965037	-0.298785	-0.220614
O22	O	1.465037	0.201215	0.279386
O23	O	0.846564	-0.309010	-0.329932
O24	O	1.346564	0.190990	0.170068
O25	O	0.952439	-0.410529	-0.534734
O26	O	1.452439	0.089471	-0.034734
O27	O	0.843076	-0.410127	-0.416222
O28	O	1.343076	0.089873	0.083778
O29	O	1.038789	-0.309716	-0.538238
O30	O	1.538789	0.190284	-0.038238
O31	O	1.046712	-0.525610	-0.337964
O32	O	1.546712	-0.025610	0.162036
O33	O	0.956947	-0.533357	-0.420792
O34	O	1.456947	-0.033357	0.079208
C35	C	0.819323	-0.360668	-0.372049
C36	C	1.319323	0.139332	0.127951
C37	C	0.741218	-0.364056	-0.368914
C38	C	1.241218	0.135944	0.131086
C39	C	0.702743	-0.317277	-0.412458
C40	C	1.202743	0.182723	0.087542
C41	C	0.629355	-0.320456	-0.409506
C42	C	1.129355	0.179544	0.090494
C43	C	0.594443	-0.370418	-0.363013
C44	C	1.094443	0.129582	0.136987
C45	C	0.632923	-0.417199	-0.319464
C46	C	1.132923	0.082801	0.180536
C47	C	0.706310	-0.414016	-0.322413
C48	C	1.206310	0.085984	0.177587
C49	C	0.375150	-0.385123	-0.349364
C50	C	0.875150	0.114877	0.150636
C51	C	0.301758	-0.388305	-0.346420
C52	C	0.801758	0.111695	0.153580
C53	C	0.298196	-0.291560	-0.436461
C54	C	0.798196	0.208440	0.063539
C55	C	0.371584	-0.288384	-0.439409
C56	C	0.871584	0.211616	0.060591
C57	C	0.410058	-0.335162	-0.395857
C58	C	0.910058	0.164838	0.104143
N59	N	0.519428	-0.373671	-0.359996
N60	N	1.019428	0.126329	0.140004
N61	N	0.485071	-0.331905	-0.398871
N62	N	0.985071	0.168095	0.101129
C63	C	1.001837	-0.558164	-0.379388
C64	C	1.501837	-0.058164	0.120612
C65	C	1.001876	-0.646019	-0.379402
C66	C	1.501876	-0.146019	0.120598
C67	C	1.045095	-1.017596	-0.426259
C68	C	1.545095	-0.517596	0.073741
C69	C	0.958886	-1.017389	-0.332685
C70	C	1.458886	-0.517389	0.167315
C71	C	0.958861	-0.934844	-0.332668
C72	C	1.458861	-0.434844	0.167332
C73	C	1.001952	-0.893670	-0.379448
C74	C	1.501952	-0.393670	0.120552
C75	C	1.045070	-0.935043	-0.426245
C76	C	1.545070	-0.435043	0.073755
C77	C	0.915739	-0.893466	-0.285876
C78	C	1.415739	-0.393466	0.214124
C79	C	0.915712	-0.810915	-0.285858
C80	C	1.415712	-0.310915	0.214142
C81	C	0.958807	-0.769740	-0.332635
C82	C	1.458807	-0.269740	0.167365
C83	C	1.001927	-0.811117	-0.379433
C84	C	1.501927	-0.311117	0.120567
C85	C	1.045019	-0.769944	-0.426213
C86	C	1.545019	-0.269944	0.073787
C87	C	1.088142	-0.811320	-0.473009
C88	C	1.588142	-0.311320	0.026991
C89	C	1.088165	-0.893868	-0.473022
C90	C	1.588165	-0.393868	0.026978
C91	C	0.958784	-0.687192	-0.332622
C92	C	1.458784	-0.187192	0.167378
C93	C	1.044993	-0.687391	-0.426199
C94	C	1.544993	-0.187391	0.073801
C95	C	1.185179	-0.344893	-0.386812
C96	C	1.685179	0.155107	0.113188
C97	C	1.263284	-0.341526	-0.389964
C98	C	1.763284	0.158474	0.110036
C99	C	0.994566	-0.361345	-0.562695
C100	C	1.494566	0.138655	-0.062695
C101	C	0.991443	-0.364988	-0.640798
C102	C	1.491443	0.135012	-0.140798
C103	C	1.001971	-0.146626	-0.379460
C104	C	1.501971	0.353374	0.120540
C105	C	1.002004	-0.058769	-0.379479
C106	C	1.502004	0.441231	0.120521
C107	C	1.034931	-0.314214	-0.679316
C108	C	1.534931	0.185786	-0.179316
C109	C	1.031987	-0.317635	-0.752701
C110	C	1.531987	0.182365	-0.252701
C111	C	0.985559	-0.371833	-0.787567
C112	C	1.485559	0.128167	-0.287567
C113	C	0.942067	-0.422609	-0.749044
C114	C	1.442067	0.077391	-0.249044
C115	C	0.945007	-0.419184	-0.675660
C116	C	1.445007	0.080816	-0.175660
C117	C	0.971942	-0.387701	-1.006847
C118	C	1.471942	0.112299	-0.506847
C119	C	0.969007	-0.391123	-1.080236
C120	C	1.469007	0.108877	-0.580236
C121	C	1.058927	-0.286147	-1.083889
C122	C	1.558927	0.213853	-0.583889
C123	C	1.061866	-0.282731	-1.010503
C124	C	1.561866	0.217269	-0.510503
C125	C	1.018371	-0.333504	-0.971986
C126	C	1.518371	0.166496	-0.471986
N127	N	0.982551	-0.375333	-0.862579
N128	N	1.482551	0.124667	-0.362579
N129	N	1.021376	-0.330000	-0.896975
N130	N	1.521376	0.170000	-0.396975
C131	C	1.009236	-0.344221	-0.196851
C132	C	1.509236	0.155779	0.303149
C133	C	1.012495	-0.340350	-0.118754
C134	C	1.512495	0.159650	0.381246
H135	H	0.598032	-0.282365	-0.444966
H136	H	1.098032	0.217635	0.055034
H137	H	0.400005	-0.247702	-0.477271
H138	H	0.900005	0.252298	0.022729
C139	C	0.911492	-1.062677	-0.281230
C140	C	1.411492	-0.562677	0.218770
H141	H	0.917685	-1.117765	-0.287938
H142	H	1.417685	-0.617765	0.212062
H143	H	0.863855	-1.051699	-0.289561
H144	H	1.363855	-0.551699	0.210439
H145	H	0.923707	-1.046515	-0.234438
H146	H	1.423707	-0.546515	0.265562
H147	H	1.123224	-0.777787	-0.511100
H148	H	1.623224	-0.277787	-0.011100
C149	C	1.092525	-1.063104	-0.477732
C150	C	1.592525	-0.563104	0.022268
H151	H	1.086369	-1.118164	-0.471046
H152	H	1.586369	-0.618164	0.028954
H153	H	1.140152	-1.047021	-0.469392
H154	H	1.640152	-0.547021	0.030608
H155	H	1.080304	-1.052210	-0.524519
H156	H	1.580304	-0.552210	-0.024519
H157	H	0.737635	-0.452108	-0.286954
H158	H	1.237635	0.047892	0.213046
C159	C	0.868348	-0.938755	-0.234420
C160	C	1.368348	-0.438755	0.265580
H161	H	0.874548	-0.993842	-0.241124
H162	H	1.374548	-0.493842	0.258876
H163	H	0.820710	-0.927785	-0.242752
H164	H	1.320710	-0.427785	0.257248
H165	H	0.880561	-0.922588	-0.187629
H166	H	1.380561	-0.422588	0.312371
C167	C	1.135588	-0.939382	-0.524497
C168	C	1.635588	-0.439382	-0.024497
H169	H	1.129423	-0.994442	-0.517811
H170	H	1.629423	-0.494442	-0.017811
H171	H	1.183218	-0.923310	-0.516161
H172	H	1.683218	-0.423310	-0.016161
H173	H	1.123365	-0.928486	-0.571283
H174	H	1.623365	-0.428486	-0.071283
C175	C	0.255874	-0.240102	-0.484357
C176	C	0.755874	0.259898	0.015643
H177	H	0.207168	-0.249146	-0.475940
H178	H	0.707168	0.250854	0.024060
H179	H	0.266020	-0.253428	-0.532035
H180	H	0.766020	0.246572	-0.032035
H181	H	0.268319	-0.185976	-0.474633
H182	H	0.768319	0.314024	0.025367
C183	C	0.741144	-0.262321	-0.463601
C184	C	1.241144	0.237679	0.036399
H185	H	0.790361	-0.267128	-0.459127
H186	H	1.290361	0.232872	0.040873
H187	H	0.729533	-0.209240	-0.452920
H188	H	1.229533	0.290760	0.047080
H189	H	0.727234	-0.276701	-0.510314
H190	H	1.227234	0.223299	-0.010314
H191	H	0.904261	-0.466736	-0.777437
H192	H	1.404261	0.033264	-0.277437
H193	H	0.273335	-0.428994	-0.308559
H194	H	0.773335	0.071006	0.191441
H195	H	0.936535	-0.429055	-0.975495
H196	H	1.436535	0.070945	-0.475495
H197	H	0.931197	-0.435260	-1.108622
H198	H	1.431197	0.064740	-0.608622
H199	H	1.072740	-0.270082	-0.650934
H200	H	1.572740	0.229918	-0.150934
H201	H	1.094338	-0.244810	-1.115257
H202	H	1.594338	0.255190	-0.615257
H203	H	0.909587	-0.460522	-0.644298
H204	H	1.409587	0.039478	-0.144298
H205	H	0.880599	-0.777232	-0.247754
H206	H	1.380599	-0.277232	0.252246
C207	C	0.911353	-0.641683	-0.281156
C208	C	1.411353	-0.141683	0.218844
H209	H	0.885694	-0.678027	-0.253297
H210	H	1.385694	-0.178027	0.246703
H211	H	0.879634	-0.612066	-0.306770
H212	H	1.379634	-0.112066	0.193230
H213	H	0.939474	-0.606886	-0.251635
H214	H	1.439474	-0.106886	0.248365
H215	H	1.080086	-0.653873	-0.464290
H216	H	1.580086	-0.153873	0.035710
C217	C	0.417462	-0.436579	-0.301461
C218	C	0.917462	0.063421	0.198539
H219	H	0.386157	-0.466795	-0.273356
H220	H	0.886157	0.033205	0.226644
H221	H	0.447311	-0.403622	-0.272041
H222	H	0.947311	0.096378	0.227959
H223	H	0.445017	-0.471080	-0.329437
H224	H	0.945017	0.028920	0.170563
H225	H	1.067402	-0.276291	-0.784060
H226	H	1.567402	0.223709	-0.284060
C227	C	0.594521	-0.472158	-0.268324
C228	C	1.094521	0.027842	0.231676
H229	H	0.545303	-0.467362	-0.272808
H230	H	1.045303	0.032638	0.227192
H231	H	0.608427	-0.457787	-0.221612
H232	H	1.108427	0.042213	0.278388
H233	H	0.606134	-0.525241	-0.279012
H234	H	1.106134	-0.025241	0.220988
C235	C	1.112937	-0.223112	-0.972155
C236	C	1.612937	0.276888	-0.472155
H237	H	1.138413	-0.193359	-1.005606
H238	H	1.638413	0.306641	-0.505606
H239	H	1.144688	-0.250696	-0.944760
H240	H	1.644688	0.249304	-0.444760
H241	H	1.087215	-0.188491	-0.942449
H242	H	1.587215	0.311509	-0.442449
