data_functionalizedCrystal
_audit_creation_method	'MofGen! by Chris Wilmer'
_symmetry_space_group_name_H-M	'P1'
_symmetry_Int_Tables_number	1
_symmetry_cell_setting	triclinic
loop_
_symmetry_equiv_pos_as_xyz
  x,y,z
_cell_length_a	16.974800
_cell_length_b	11.792254
_cell_length_c	15.455313
_cell_angle_alpha	92.683372
_cell_angle_beta	90.973911
_cell_angle_gamma	83.793472
loop_
_atom_site_label
_atom_site_type_symbol
_atom_site_fract_x
_atom_site_fract_y
_atom_site_fract_z
O1	O	1.049697	0.144683	0.001582
O2	O	0.820339	0.162015	-0.014526
O3	O	0.940579	-0.011852	-0.006075
O4	O	0.929458	0.318550	-0.006869
O5	O	0.933703	-0.001950	0.137704
O6	O	0.813463	0.171917	0.129253
O7	O	1.042821	0.154584	0.145361
Cu8	Cu	0.927514	0.164155	0.150435
Cu9	Cu	0.935646	0.152445	-0.019600
O10	O	0.922582	0.328451	0.136910
C11	C	0.787538	0.166126	0.055301
C12	C	0.700046	0.163607	0.049157
C13	C	0.655198	0.167818	0.124646
C14	C	0.572991	0.165434	0.118875
C15	C	0.535633	0.158846	0.037614
C16	C	0.580487	0.154631	-0.037881
C17	C	0.662693	0.157008	-0.032109
C18	C	0.290175	0.151153	0.011948
C19	C	0.207963	0.148781	0.006181
C20	C	0.200473	0.159581	0.162938
C21	C	0.282681	0.161964	0.168703
C22	C	0.327528	0.157743	0.093208
N23	N	0.451604	0.156413	0.031713
N24	N	0.411556	0.160168	0.099110
C25	C	0.936440	-0.049188	0.065765
C26	C	0.934343	-0.175189	0.065617
C27	C	0.932640	-0.277516	0.065494
C28	C	0.930510	-0.405891	0.065336
C29	C	1.075622	0.150474	0.075532
C30	C	1.163115	0.152992	0.081671
C31	C	0.926720	0.365787	0.065068
C32	C	0.928818	0.491788	0.065211
N33	N	0.921801	0.172390	0.270029
N34	N	0.941366	0.144201	-0.139194
C35	C	0.972901	0.098552	0.319015
C36	C	0.968587	0.104791	0.409519
C37	C	0.913177	0.184873	0.451037
C38	C	0.862071	0.258714	0.402045
C39	C	0.866382	0.252469	0.311541
C40	C	0.894571	0.211797	0.721311
C41	C	0.890266	0.218038	0.811821
C42	C	0.996781	0.064113	0.819289
C43	C	1.001090	0.057880	0.728784
C44	C	0.949982	0.131717	0.679799
N45	N	0.908768	0.191254	0.543547
N46	N	0.954388	0.125330	0.587290
H47	H	0.313093	0.167323	0.234874
H48	H	0.550063	0.149259	-0.104045
H49	H	0.163950	0.163016	0.224401
H50	H	0.326680	0.147712	-0.049526
H51	H	0.824770	0.312594	0.271658
C52	C	1.062038	-0.030214	0.683111
C53	C	1.118250	-0.111444	0.736986
C54	C	1.179200	-0.199534	0.691310
C55	C	1.183936	-0.206394	0.591760
C56	C	1.127722	-0.125161	0.537879
C57	C	1.066772	-0.037071	0.583555
H58	H	1.114746	-0.106369	0.810684
H59	H	1.220814	-0.259668	0.731196
H60	H	1.229055	-0.271604	0.557948
H61	H	1.131227	-0.130237	0.464181
H62	H	1.025159	0.023063	0.543669
H63	H	1.038390	0.003997	0.859180
H64	H	0.536481	0.168845	0.180346
H65	H	0.816951	0.323915	0.435853
H66	H	0.685608	0.173192	0.190817
H67	H	0.177548	0.143419	-0.059994
H68	H	0.852958	0.271920	0.681435
H69	H	0.699207	0.153580	-0.093580
C70	C	1.033854	0.010459	0.273350
C71	C	1.090059	-0.070765	0.327238
C72	C	1.151012	-0.158864	0.281576
C73	C	1.155760	-0.165739	0.182027
C74	C	1.099553	-0.084513	0.128133
C75	C	1.038600	0.003586	0.173795
H76	H	1.086546	-0.065679	0.400936
H77	H	1.192620	-0.218994	0.321473
H78	H	1.200881	-0.230955	0.148225
H79	H	1.103066	-0.089599	0.054435
H80	H	0.996992	0.063716	0.133898
C81	C	0.829307	0.306133	0.857488
C82	C	0.740156	0.302998	0.838772
C83	C	0.679201	0.391090	0.884438
C84	C	0.707397	0.482317	0.948820
C85	C	0.796553	0.485454	0.967540
C86	C	0.857507	0.397362	0.921874
H87	H	0.719279	0.235464	0.791109
H88	H	0.613202	0.388767	0.870580
H89	H	0.662275	0.547527	0.982625
H90	H	0.817429	0.552989	1.015202
H91	H	0.923506	0.399686	0.935732
H92	H	1.010196	0.044666	0.449403
