data_functionalizedCrystal
_audit_creation_method	'MofGen! by Chris Wilmer'
_symmetry_space_group_name_H-M	'P1'
_symmetry_Int_Tables_number	1
_symmetry_cell_setting	triclinic
loop_
_symmetry_equiv_pos_as_xyz
  x,y,z
_cell_length_a	18.215407
_cell_length_b	13.897441
_cell_length_c	18.215405
_cell_angle_alpha	89.968188
_cell_angle_beta	90.023180
_cell_angle_gamma	89.977966
loop_
_atom_site_label
_atom_site_type_symbol
_atom_site_fract_x
_atom_site_fract_y
_atom_site_fract_z
Zn1	Zn	1.125099	-0.545407	-0.292952
Zn2	Zn	1.125007	-0.384104	-0.416032
Zn3	Zn	1.002027	-0.384121	-0.292985
Zn4	Zn	1.002002	-0.545353	-0.415982
O5	O	1.063534	-0.464746	-0.354488
O6	O	1.228071	-0.524025	-0.309286
O7	O	1.108666	-0.249125	-0.399745
O8	O	1.018401	-0.405545	-0.189997
O9	O	1.228004	-0.405517	-0.399713
O10	O	1.108822	-0.524041	-0.189972
O11	O	1.018312	-0.249137	-0.309343
O12	O	0.899039	-0.405494	-0.309294
O13	O	1.018359	-0.680342	-0.399627
O14	O	0.899021	-0.523950	-0.399659
O15	O	1.108798	-0.680381	-0.309237
O16	O	1.108642	-0.405465	-0.519010
O17	O	1.018270	-0.523934	-0.518973
C18	C	0.872327	-0.464719	-0.354475
C19	C	0.790529	-0.464730	-0.354488
C20	C	1.063586	-0.716340	-0.354423
C21	C	1.063608	-0.823554	-0.354395
C22	C	0.602344	-0.526333	-0.401615
C23	C	0.525486	-0.526345	-0.401617
C24	C	0.525475	-0.403181	-0.307374
C25	C	0.602332	-0.403175	-0.307369
C26	C	0.640765	-0.464749	-0.354493
C27	C	0.487049	-0.464768	-0.354501
C28	C	0.403715	-0.464780	-0.354503
C29	C	0.724104	-0.464738	-0.354490
C30	C	1.063628	-1.019849	-0.354345
C31	C	1.063615	-0.910616	-0.354375
C32	C	1.255487	-0.464775	-0.354501
C33	C	1.337286	-0.464787	-0.354507
C34	C	1.063463	-0.464713	-0.545694
C35	C	1.063500	-0.464731	-0.627493
C36	C	1.063524	-0.214132	-0.354500
C37	C	1.063644	-0.106919	-0.354320
C38	C	1.110605	-0.526515	-0.815613
C39	C	1.110631	-0.526533	-0.892472
C40	C	1.016554	-0.403037	-0.892611
C41	C	1.016524	-0.403025	-0.815753
C42	C	1.063554	-0.464762	-0.777257
C43	C	1.063610	-0.464793	-0.930973
C44	C	1.063639	-0.464812	-1.014306
C45	C	1.063524	-0.464745	-0.693918
C46	C	1.063625	-0.464801	-0.162535
C47	C	1.063663	-0.464824	-0.080736
H48	H	0.633634	-0.576473	-0.439985
C49	C	0.483866	-0.593362	-0.452738
C50	C	0.502618	-0.688833	-0.436814
C51	C	0.464300	-0.750598	-0.483899
H52	H	0.432577	-0.584684	-0.446040
H53	H	0.496455	-0.579186	-0.502184
H54	H	0.490024	-0.703004	-0.387380
H55	H	0.553901	-0.697541	-0.443516
H56	H	0.476890	-0.736422	-0.533344
H57	H	0.413013	-0.741911	-0.477197
H58	H	0.477023	-0.815381	-0.473105
C59	C	1.161630	-0.593445	-0.773684
C60	C	1.151550	-0.580202	-0.698165
C61	C	1.198548	-0.641836	-0.659519
H62	H	1.150880	-0.658282	-0.786166
H63	H	1.211104	-0.579386	-0.786206
H64	H	1.102087	-0.594268	-0.685647
H65	H	1.162305	-0.515378	-0.685660
H66	H	1.248022	-0.627777	-0.672041
H67	H	1.187794	-0.706669	-0.672007
H68	H	1.191719	-0.632853	-0.608275
C69	C	0.965464	-0.336079	-0.773970
C70	C	0.975489	-0.349305	-0.698423
C71	C	0.928459	-0.287668	-0.659909
H72	H	0.976219	-0.271244	-0.786499
H73	H	0.916000	-0.350147	-0.786555
H74	H	1.024942	-0.335231	-0.685843
H75	H	0.964729	-0.414128	-0.685872
H76	H	0.878995	-0.301736	-0.672494
H77	H	0.939218	-0.222837	-0.672444
H78	H	0.935250	-0.296640	-0.608647
H79	H	0.494174	-0.353048	-0.269008
H80	H	1.148944	-0.576821	-0.923699
H81	H	0.633615	-0.353026	-0.268992
H82	H	0.978265	-0.352771	-0.923964
