data_functionalizedCrystal
_audit_creation_method	'MofGen! by Chris Wilmer'
_symmetry_space_group_name_H-M	'P1'
_symmetry_Int_Tables_number	1
_symmetry_cell_setting	triclinic
loop_
_symmetry_equiv_pos_as_xyz
  x,y,z
_cell_length_a	17.699099
_cell_length_b	16.109301
_cell_length_c	15.186229
_cell_angle_alpha	90.005167
_cell_angle_beta	89.997239
_cell_angle_gamma	96.624584
loop_
_atom_site_label
_atom_site_type_symbol
_atom_site_fract_x
_atom_site_fract_y
_atom_site_fract_z
O1	O	1.004217	-0.105198	-0.073219
O2	O	0.783860	-0.118863	-0.073224
O3	O	0.900092	0.009010	-0.073212
O4	O	0.887985	-0.233072	-0.073230
O5	O	0.900084	0.009012	0.073245
O6	O	0.783852	-0.118861	0.073233
O7	O	1.004210	-0.105196	0.073238
Zn8	Zn	0.894030	-0.112029	0.096489
Zn9	Zn	0.894040	-0.112031	-0.096475
O10	O	0.887978	-0.233070	0.073227
C11	C	0.755659	-0.118371	0.000004
C12	C	0.671639	-0.116895	0.000003
C13	C	1.032411	-0.105689	0.000008
C14	C	1.116431	-0.107164	0.000004
C15	C	1.155903	-0.107860	-0.079831
C16	C	1.234849	-0.109239	-0.079832
C17	C	1.274321	-0.109929	0.000003
C18	C	1.234843	-0.109232	0.079844
C19	C	1.155899	-0.107846	0.079844
C20	C	1.553216	-0.114818	0.079845
C21	C	1.632165	-0.116206	0.079839
C22	C	1.632165	-0.116211	-0.079831
C23	C	1.553221	-0.114825	-0.079831
C24	C	1.513751	-0.114123	0.000010
C25	C	1.428149	-0.112626	0.000010
C26	C	1.359921	-0.111433	0.000004
C27	C	0.899598	0.039985	0.000017
C28	C	0.898128	0.132278	0.000018
C29	C	0.888472	-0.264045	-0.000004
C30	C	0.889942	-0.356338	-0.000011
N31	N	0.894028	-0.112026	0.228182
C32	C	0.963679	0.354660	0.000006
C33	C	0.962291	0.441378	-0.000002
C34	C	0.824386	0.421274	-0.000001
C35	C	0.825774	0.334558	-0.000000
C36	C	0.895423	0.301253	0.000008
C37	C	0.892647	0.474688	-0.000001
C38	C	0.891142	0.568711	-0.000009
C39	C	0.896928	0.207224	0.000014
N40	N	0.894047	-0.112026	-0.228167
C41	C	0.945513	-0.055423	0.453910
C42	C	0.945516	-0.055421	0.546099
C43	C	0.842557	-0.168633	0.546098
C44	C	0.842551	-0.168630	0.453910
C45	C	0.894034	-0.112026	0.407818
C46	C	0.894042	-0.112027	0.592196
C47	C	0.894044	-0.112025	0.692152
C48	C	0.894031	-0.112026	0.307856
H49	H	1.123770	-0.107303	-0.144842
H50	H	1.017872	0.484858	-0.000005
Br51	Br	1.288417	-0.110175	-0.188184
H52	H	0.800627	-0.214723	0.416380
H53	H	0.987433	-0.009331	0.416384
Br54	Br	0.772692	-0.245451	0.608654
Br55	Br	1.288412	-0.110164	0.188193
Br56	Br	0.733134	0.262071	-0.000010
H57	H	0.767680	0.448402	-0.000006
Br58	Br	1.058201	0.309462	0.000017
Br59	Br	1.102330	-0.106891	0.188196
H60	H	0.987434	-0.009329	0.583625
H61	H	1.521087	-0.114267	-0.144841
H62	H	1.664312	-0.116779	-0.144841
H63	H	1.521090	-0.114234	0.144856
Br64	Br	1.685734	-0.117144	0.188193
