data_functionalizedCrystal
_audit_creation_method	'MofGen! by Chris Wilmer'
_symmetry_space_group_name_H-M	'P1'
_symmetry_Int_Tables_number	1
_symmetry_cell_setting	triclinic
loop_
_symmetry_equiv_pos_as_xyz
  x,y,z
_cell_length_a	19.805407
_cell_length_b	13.032721
_cell_length_c	19.805399
_cell_angle_alpha	97.155902
_cell_angle_beta	89.980427
_cell_angle_gamma	97.204665
loop_
_atom_site_label
_atom_site_type_symbol
_atom_site_fract_x
_atom_site_fract_y
_atom_site_fract_z
Zn1	Zn	1.000535	-0.416068	-0.416943
Zn2	Zn	1.500535	0.083932	0.083057
Zn3	Zn	0.986084	-0.590828	-0.318130
Zn4	Zn	1.486084	-0.090828	0.181870
Zn5	Zn	0.887347	-0.416097	-0.303770
Zn6	Zn	1.387347	0.083903	0.196230
Zn7	Zn	0.872952	-0.590772	-0.431272
Zn8	Zn	1.372952	-0.090772	0.068728
O9	O	0.936729	-0.503441	-0.367529
O10	O	1.436729	-0.003441	0.132471
O11	O	1.093333	-0.439261	-0.403849
O12	O	1.593333	0.060739	0.096151
O13	O	0.972963	-0.567684	-0.221512
O14	O	1.472963	-0.067684	0.278488
O15	O	0.914433	-0.269853	-0.306777
O16	O	1.414433	0.230147	0.193223
O17	O	1.082717	-0.567656	-0.331251
O18	O	1.582717	-0.067656	0.168749
O19	O	0.997592	-0.269832	-0.389925
O20	O	1.497592	0.230168	0.110075
O21	O	0.900421	-0.439310	-0.210962
O22	O	1.400421	0.060690	0.289038
O23	O	0.790722	-0.439257	-0.320671
O24	O	1.290722	0.060743	0.179329
O25	O	0.889899	-0.567562	-0.524085
O26	O	1.389899	-0.067562	-0.024085
O27	O	0.780146	-0.567590	-0.414346
O28	O	1.280146	-0.067590	0.085654
O29	O	0.983634	-0.439207	-0.513558
O30	O	1.483634	0.060793	-0.013558
O31	O	0.959005	-0.737060	-0.345145
O32	O	1.459005	-0.237060	0.154855
O33	O	0.875887	-0.737019	-0.428270
O34	O	1.375887	-0.237019	0.071730
C35	C	0.760875	-0.503421	-0.367506
C36	C	1.260875	-0.003421	0.132494
C37	C	0.685642	-0.503438	-0.367514
C38	C	1.185642	-0.003438	0.132486
C39	C	0.914334	-0.774958	-0.389835
C40	C	1.414334	-0.274958	0.110165
C41	C	0.904816	-0.891114	-0.399401
C42	C	1.404816	-0.391114	0.100599
C43	C	0.644800	-0.570361	-0.416228
C44	C	1.144800	-0.070361	0.083772
C45	C	0.574112	-0.570363	-0.416238
C46	C	1.074112	-0.070363	0.083762
C47	C	0.544265	-0.503446	-0.367529
C48	C	1.044265	-0.003446	0.132471
C49	C	0.585113	-0.436515	-0.318812
C50	C	1.085113	0.063485	0.181188
C51	C	0.655800	-0.436508	-0.318806
C52	C	1.155800	0.063492	0.181194
C53	C	0.300037	-0.436538	-0.318836
C54	C	0.800037	0.063462	0.181164
C55	C	0.229344	-0.436551	-0.318845
C56	C	0.729344	0.063449	0.181155
C57	C	0.218349	-0.570393	-0.416269
C58	C	0.718349	-0.070393	0.083731
C59	C	0.289036	-0.570386	-0.416262
C60	C	0.789036	-0.070386	0.083738
C61	C	0.329878	-0.503452	-0.367548
C62	C	0.829878	-0.003452	0.132452
C63	C	0.406526	-0.503449	-0.367538
C64	C	0.906526	-0.003449	0.132462
C65	C	0.467618	-0.503453	-0.367535
C66	C	0.967618	-0.003453	0.132465
C67	C	0.941733	-0.942886	-0.362567
C68	C	1.441733	-0.442886	0.137433
C69	C	0.931896	-1.062939	-0.372453
C70	C	1.431896	-0.562939	0.127547
C71	C	1.113270	-0.503462	-0.367553
C72	C	1.613270	-0.003462	0.132447
C73	C	1.188502	-0.503471	-0.367563
C74	C	1.688502	-0.003471	0.132437
C75	C	0.936773	-0.503375	-0.544066
C76	C	1.436773	-0.003375	-0.044066
C77	C	0.936791	-0.503347	-0.619296
C78	C	1.436791	-0.003347	-0.119296
C79	C	0.959230	-0.230864	-0.345151
C80	C	1.459230	0.269136	0.154849
C81	C	0.968819	-0.114708	-0.335614
C82	C	1.468819	0.385292	0.164386
C83	C	0.985600	-0.436510	-0.649160
C84	C	1.485600	0.063490	-0.149160
C85	C	0.985609	-0.436479	-0.719846
C86	C	1.485609	0.063521	-0.219846
C87	C	0.936813	-0.503293	-0.760667
C88	C	1.436813	-0.003293	-0.260667
C89	C	0.887999	-0.570133	-0.730799
C90	C	1.387999	-0.070133	-0.230799
C91	C	0.887987	-0.570157	-0.660114
C92	C	1.387987	-0.070157	-0.160114
C93	C	0.888045	-0.570036	-1.015865
C94	C	1.388045	-0.070036	-0.515865
C95	C	0.888062	-0.570008	-1.086555
C96	C	1.388062	-0.070008	-0.586555
C97	C	0.985668	-0.436358	-1.075596
C98	C	1.485668	0.063642	-0.575596
C99	C	0.985656	-0.436382	-1.004911
C100	C	1.485656	0.063618	-0.504911
C101	C	0.936840	-0.503218	-0.975049
C102	C	1.436840	-0.003218	-0.475049
C103	C	0.936830	-0.503249	-0.898403
C104	C	1.436830	-0.003249	-0.398403
C105	C	0.936825	-0.503268	-0.837312
C106	C	1.436825	-0.003268	-0.337312
C107	C	0.936731	-0.503431	-0.191672
C108	C	1.436731	-0.003431	0.308328
C109	C	0.936868	-0.503165	-0.116419
C110	C	1.436868	-0.003165	0.383581
H111	H	0.669095	-0.624857	-0.455891
H112	H	1.169095	-0.124857	0.044109
O113	O	0.840684	-0.635145	-0.770491
O114	O	1.340684	-0.135145	-0.270491
C115	C	0.819946	-0.776167	-0.861904
C116	C	1.319946	-0.276167	-0.361904
C117	C	0.873600	-0.702619	-0.816992
C118	C	1.373600	-0.202619	-0.316992
H119	H	0.846539	-0.830724	-0.899520
H120	H	1.346539	-0.330724	-0.399520
H121	H	0.785063	-0.824018	-0.828454
H122	H	1.285063	-0.324018	-0.328454
H123	H	0.788512	-0.728149	-0.891021
H124	H	1.288512	-0.228149	-0.391021
H125	H	0.905082	-0.750557	-0.787868
H126	H	1.405082	-0.250557	-0.287868
H127	H	0.908436	-0.654765	-0.850479
H128	H	1.408436	-0.154765	-0.350479
O129	O	0.556191	-0.371561	-0.271408
O130	O	1.056191	0.128439	0.228592
C131	C	0.538678	-0.320641	-0.152146
C132	C	1.038678	0.179359	0.347854
C133	C	0.571481	-0.394248	-0.205761
C134	C	1.071481	0.105752	0.294239
H135	H	0.551016	-0.338972	-0.099059
H136	H	1.051016	0.161028	0.400941
H137	H	0.559541	-0.236380	-0.157143
H138	H	1.059541	0.263620	0.342857
H139	H	0.481145	-0.332128	-0.160552
H140	H	0.981145	0.167872	0.339448
H141	H	0.629015	-0.382855	-0.197389
H142	H	1.129015	0.117145	0.302611
H143	H	0.550565	-0.478482	-0.200750
H144	H	1.050565	0.021518	0.299250
O145	O	1.032934	-0.371433	-0.748870
O146	O	1.532934	0.128567	-0.248870
C147	C	1.053693	-0.230329	-0.817108
C148	C	1.553693	0.269671	-0.317108
C149	C	1.000029	-0.303925	-0.784267
C150	C	1.500029	0.196075	-0.284267
H151	H	1.027110	-0.175745	-0.845747
H152	H	1.527110	0.324255	-0.345747
H153	H	1.088559	-0.182511	-0.775809
H154	H	1.588559	0.317489	-0.275809
H155	H	1.085146	-0.278308	-0.854124
H156	H	1.585146	0.221692	-0.354124
H157	H	0.968529	-0.256027	-0.747257
H158	H	1.468529	0.243973	-0.247257
H159	H	0.965211	-0.351747	-0.825603
H160	H	1.465211	0.148253	-0.325603
H161	H	0.893007	-1.107490	-0.411311
H162	H	1.393007	-0.607490	0.088689
O163	O	1.033017	-0.371455	-1.104712
O164	O	1.533017	0.128545	-0.604712
C165	C	1.076322	-0.312214	-1.208751
C166	C	1.576322	0.187786	-0.708751
C167	C	1.022652	-0.385747	-1.175867
C168	C	1.522652	0.114253	-0.675867
H169	H	1.067970	-0.323759	-1.266286
H170	H	1.567970	0.176241	-0.766286
H171	H	1.071392	-0.227930	-1.187978
H172	H	1.571392	0.272070	-0.687978
H173	H	1.129375	-0.330569	-1.196330
H174	H	1.629375	0.169431	-0.696330
H175	H	0.969576	-0.367486	-1.188275
H176	H	1.469576	0.132514	-0.688275
H177	H	1.027642	-0.470009	-1.196642
H178	H	1.527642	0.029991	-0.696642
H179	H	0.848322	-0.624418	-1.119791
H180	H	1.348322	-0.124418	-0.619791
H181	H	0.313333	-0.624881	-0.455924
H182	H	0.813333	-0.124881	0.044076
H183	H	0.205047	-0.382053	-0.279180
H184	H	0.705047	0.117947	0.220820
O185	O	0.695540	-0.371648	-0.271462
O186	O	1.195540	0.128352	0.228538
C187	C	0.776456	-0.357401	-0.178893
C188	C	1.276456	0.142599	0.321107
C189	C	0.731496	-0.430977	-0.232487
C190	C	1.231496	0.069023	0.267513
H191	H	0.805528	-0.405340	-0.147358
H192	H	1.305528	0.094660	0.352642
H193	H	0.814108	-0.302835	-0.205505
H194	H	1.314108	0.197165	0.294495
H195	H	0.742975	-0.309550	-0.144107
H196	H	1.242975	0.190450	0.355893
H197	H	0.764924	-0.478895	-0.267288
H198	H	1.264924	0.021105	0.232712
H199	H	0.693840	-0.485474	-0.205830
H200	H	1.193840	0.014526	0.294170
H201	H	1.025393	-0.381979	-0.971677
H202	H	1.525393	0.118021	-0.471677
H203	H	0.848305	-0.624473	-0.991561
H204	H	1.348305	-0.124473	-0.491561
H205	H	0.848236	-0.624573	-0.635800
H206	H	1.348236	-0.124573	-0.135800
O207	O	0.858429	-0.944419	-0.445704
O208	O	1.358429	-0.444419	0.054296
C209	C	0.806381	-1.112676	-0.497825
C210	C	1.306381	-0.612676	0.002175
C211	C	0.858927	-1.052442	-0.445350
C212	C	1.358927	-0.552442	0.054650
H213	H	0.806776	-1.200022	-0.497566
H214	H	1.306776	-0.700022	0.002434
H215	H	0.753522	-1.091442	-0.484151
H216	H	1.253522	-0.591442	0.015849
H217	H	0.819979	-1.091144	-0.550645
H218	H	1.319979	-0.591144	-0.050645
H219	H	0.845392	-1.073941	-0.392511
H220	H	1.345392	-0.573941	0.107489
H221	H	0.911770	-1.073681	-0.459083
H222	H	1.411770	-0.573681	0.040917
H223	H	0.540861	-0.624860	-0.455906
H224	H	1.040861	-0.124860	0.044094
O225	O	0.988079	-0.889580	-0.316223
O226	O	1.488079	-0.389580	0.183777
C227	C	1.040191	-0.721324	-0.264166
C228	C	1.540191	-0.221324	0.235834
C229	C	0.987668	-0.781558	-0.316663
C230	C	1.487668	-0.281558	0.183337
H231	H	1.039885	-0.633977	-0.264514
H232	H	1.539885	-0.133977	0.235486
H233	H	1.026596	-0.742710	-0.211310
H234	H	1.526596	-0.242710	0.288690
H235	H	1.093014	-0.742703	-0.277843
H236	H	1.593014	-0.242703	0.222157
H237	H	0.934826	-0.760211	-0.303049
H238	H	1.434826	-0.260211	0.196951
H239	H	1.001321	-0.760166	-0.369504
H240	H	1.501321	-0.260166	0.130496
H241	H	0.185087	-0.624890	-0.455937
H242	H	0.685087	-0.124890	0.044063
O243	O	1.032943	-0.371455	-0.609527
O244	O	1.532943	0.128545	-0.109527
C245	C	1.080493	-0.193703	-0.573352
C246	C	1.580493	0.306297	-0.073352
C247	C	1.026835	-0.267264	-0.618253
C248	C	1.526835	0.232736	-0.118253
H249	H	1.075582	-0.109450	-0.580402
H250	H	1.575582	0.390550	-0.080402
H251	H	1.072109	-0.205106	-0.517685
H252	H	1.572109	0.294894	-0.017685
H253	H	1.133548	-0.212109	-0.588766
H254	H	1.633548	0.287891	-0.088766
H255	H	0.973758	-0.248904	-0.602899
H256	H	1.473758	0.251096	-0.102899
H257	H	1.035278	-0.255847	-0.673909
H258	H	1.535278	0.244153	-0.173909
O259	O	1.015167	-1.061408	-0.289266
O260	O	1.515167	-0.561408	0.210734
C261	C	1.067277	-0.893155	-0.237203
C262	C	1.567277	-0.393155	0.262797
C263	C	1.014756	-0.953385	-0.289703
C264	C	1.514756	-0.453385	0.210297
H265	H	1.066973	-0.805807	-0.237549
H266	H	1.566973	-0.305807	0.262451
H267	H	1.053681	-0.914544	-0.184349
H268	H	1.553681	-0.414544	0.315651
H269	H	1.120101	-0.914534	-0.250879
H270	H	1.620101	-0.414534	0.249121
H271	H	0.961914	-0.932038	-0.276091
H272	H	1.461914	-0.432038	0.223909
H273	H	1.028411	-0.931991	-0.342543
H274	H	1.528411	-0.431991	0.157457
H275	H	0.333282	-0.382044	-0.279165
H276	H	0.833282	0.117956	0.220835
