data_functionalizedCrystal
_audit_creation_method	'MofGen! by Chris Wilmer'
_symmetry_space_group_name_H-M	'P1'
_symmetry_Int_Tables_number	1
_symmetry_cell_setting	triclinic
loop_
_symmetry_equiv_pos_as_xyz
  x,y,z
_cell_length_a	10.723023
_cell_length_b	14.044220
_cell_length_c	9.798715
_cell_angle_alpha	90.004380
_cell_angle_beta	90.003315
_cell_angle_gamma	88.828213
loop_
_atom_site_label
_atom_site_type_symbol
_atom_site_fract_x
_atom_site_fract_y
_atom_site_fract_z
O1	O	1.670497	0.133037	0.113492
O2	O	2.170497	0.633037	0.613492
O3	O	1.308619	0.145772	0.113495
O4	O	1.808619	0.645772	0.613495
O5	O	1.484126	0.001384	0.113480
O6	O	1.984126	0.501384	0.613480
O7	O	1.494990	0.277424	0.113507
O8	O	1.994990	0.777424	0.613507
O9	O	1.484113	0.001383	-0.113502
O10	O	1.984113	0.501383	0.386498
O11	O	1.308606	0.145771	-0.113487
O12	O	1.808606	0.645771	0.386513
O13	O	1.670484	0.133035	-0.113491
O14	O	2.170484	0.633035	0.386509
Zn15	Zn	1.489543	0.139403	-0.149527
Zn16	Zn	1.989543	0.639403	0.350473
Zn17	Zn	1.489560	0.139404	0.149532
Zn18	Zn	1.989560	0.639404	0.649532
O19	O	1.494977	0.277423	-0.113475
O20	O	1.994977	0.777423	0.386525
C21	C	1.262020	0.144845	0.000005
C22	C	1.762020	0.644845	0.500005
C23	C	1.123188	0.142072	0.000006
C24	C	1.623188	0.642072	0.500006
C25	C	0.917803	0.137970	-0.117573
C26	C	1.417803	0.637970	0.382427
C27	C	1.061293	0.140836	-0.117577
C28	C	1.561293	0.640836	0.382423
C29	C	1.479364	-0.033962	-0.000012
C30	C	1.979364	0.466038	0.499988
C31	C	1.465180	-0.139280	-0.000013
C32	C	1.965180	0.360720	0.499987
C33	C	1.439248	-0.332109	0.000007
C34	C	1.939248	0.167891	0.500007
C35	C	1.539850	-0.389089	0.000010
C36	C	2.039850	0.110911	0.500010
C37	C	1.525421	-0.496386	0.000021
C38	C	2.025421	0.003614	0.500021
C39	C	1.453675	-0.224802	-0.000004
C40	C	1.953675	0.275198	0.499996
C41	C	1.717083	0.133963	0.000003
C42	C	2.217083	0.633963	0.500003
C43	C	1.855915	0.136735	0.000011
C44	C	2.355915	0.636735	0.500011
C45	C	1.499739	0.312769	0.000019
C46	C	1.999739	0.812769	0.500019
C47	C	1.513923	0.418087	0.000030
C48	C	2.013923	0.918087	0.500030
N49	N	1.489540	0.139401	-0.353627
N50	N	1.989540	0.639401	0.146373
C51	C	1.563415	0.078646	-0.578565
C52	C	2.063415	0.578646	-0.078565
C53	C	1.563398	0.078647	-0.421402
C54	C	2.063398	0.578647	0.078598
N55	N	1.489572	0.139399	0.353632
N56	N	1.989572	0.639399	0.853632
H57	H	1.069974	0.141008	0.100679
H58	H	1.569974	0.641008	0.600679
Cl59	Cl	0.835607	0.136337	-0.273001
Cl60	Cl	1.335607	0.636337	0.226999
H61	H	1.114516	0.141894	-0.218245
H62	H	1.614516	0.641894	0.281755
H63	H	0.909159	0.137804	0.100676
H64	H	1.409159	0.637804	0.600676
H65	H	1.626652	0.026635	-0.636865
H66	H	2.126652	0.526635	-0.136865
H67	H	1.626613	0.026630	-0.363094
H68	H	2.126613	0.526630	0.136906
Cl69	Cl	1.391918	0.219707	-0.443635
Cl70	Cl	1.891918	0.719707	0.056365
Cl71	Cl	1.689557	-0.339994	-0.000007
Cl72	Cl	2.189557	0.160006	0.499993
H73	H	1.426345	0.191416	-0.588067
H74	H	1.926345	0.691416	-0.088067
H75	H	1.342291	-0.363909	0.000011
H76	H	1.842291	0.136091	0.500011
