data_functionalizedCrystal
_audit_creation_method	'MofGen! by Chris Wilmer'
_symmetry_space_group_name_H-M	'P1'
_symmetry_Int_Tables_number	1
_symmetry_cell_setting	triclinic
loop_
_symmetry_equiv_pos_as_xyz
  x,y,z
_cell_length_a	13.033385
_cell_length_b	13.032721
_cell_length_c	13.033109
_cell_angle_alpha	74.856674
_cell_angle_beta	89.118506
_cell_angle_gamma	89.136775
loop_
_atom_site_label
_atom_site_type_symbol
_atom_site_fract_x
_atom_site_fract_y
_atom_site_fract_z
Zn1	Zn	-1.572133	0.676043	-0.476678
Zn2	Zn	-1.072133	1.176043	0.023322
Zn3	Zn	-1.533729	0.826801	-0.325958
Zn4	Zn	-1.033729	1.326801	0.174042
Zn5	Zn	-1.383116	0.632259	-0.320438
Zn6	Zn	-0.883116	1.132259	0.179562
Zn7	Zn	-1.383081	0.832323	-0.520518
Zn8	Zn	-0.883081	1.332323	-0.020518
O9	O	-1.468015	0.741857	-0.410898
O10	O	-0.968015	1.241857	0.089102
O11	O	-1.709189	0.712054	-0.440647
O12	O	-1.209189	1.212054	0.059353
O13	O	-1.497693	0.780360	-0.178415
O14	O	-0.997693	1.280360	0.321585
O15	O	-1.424276	0.491247	-0.320507
O16	O	-0.924276	0.991247	0.179493
O17	O	-1.680975	0.822815	-0.329914
O18	O	-1.180975	1.322815	0.170086
O19	O	-1.563145	0.523414	-0.435295
O20	O	-1.063145	1.023414	0.064705
O21	O	-1.387038	0.637431	-0.174360
O22	O	-0.887038	1.137431	0.325640
O23	O	-1.240960	0.642786	-0.363017
O24	O	-0.740960	1.142786	0.136983
O25	O	-1.424216	0.832227	-0.661513
O26	O	-0.924216	1.332227	-0.161513
O27	O	-1.240934	0.789772	-0.510014
O28	O	-0.740934	1.289772	-0.010014
O29	O	-1.563112	0.717408	-0.629304
O30	O	-1.063112	1.217408	-0.129304
O31	O	-1.497659	0.974354	-0.372424
O32	O	-0.997659	1.474354	0.127576
O33	O	-1.386978	0.978411	-0.515367
O34	O	-0.886978	1.478411	-0.015367
C35	C	-1.204089	0.712128	-0.440674
C36	C	-0.704089	1.212128	0.059326
C37	C	-1.091180	0.699439	-0.453441
C38	C	-0.591180	1.199439	0.046559
C39	C	-1.438178	1.014458	-0.449271
C40	C	-0.938178	1.514458	0.050729
C41	C	-1.425510	1.131093	-0.465712
C42	C	-0.925510	1.631093	0.034288
C43	C	-1.497944	0.780317	-0.684539
C44	C	-0.997944	1.280317	-0.184539
C45	C	-1.510698	0.796707	-0.801149
C46	C	-1.010698	1.296707	-0.301149
C47	C	-0.910181	0.735357	-0.417428
C48	C	-0.410181	1.235357	0.082572
C49	C	-1.026878	0.748475	-0.404228
C50	C	-0.526878	1.248475	0.095772
C51	C	-0.732971	0.771694	-0.380995
C52	C	-0.232971	1.271694	0.119005
C53	C	-0.845878	0.784387	-0.368222
C54	C	-0.345878	1.284387	0.131778
C55	C	-1.497998	0.468197	-0.372395
C56	C	-0.997998	0.968197	0.127605
C57	C	-1.510775	0.351580	-0.355987
C58	C	-1.010775	0.851580	0.144013
C59	C	-1.474685	1.181064	-0.402359
C60	C	-0.974685	1.681064	0.097641
C61	C	-1.461594	1.301612	-0.419349
C62	C	-0.961594	1.801612	0.080651
C63	C	-1.461634	0.733296	-0.851131
C64	C	-0.961634	1.233296	-0.351131
C65	C	-1.474814	0.750234	-0.971653
C66	C	-0.974814	1.250234	-0.471653
C67	C	-1.438269	0.703476	-0.138304
C68	C	-0.938269	1.203476	0.361696
C69	C	-1.425744	0.686813	-0.021631
C70	C	-0.925744	1.186813	0.478369
H71	H	-0.878841	0.683674	-0.469332
H72	H	-0.378841	1.183674	0.030668
H73	H	-1.409866	0.666471	-0.804697
H74	H	-0.909866	1.166471	-0.304697
N75	N	-1.068373	0.816954	-0.335480
N76	N	-0.568373	1.316954	0.164520
H77	H	-1.145854	0.816619	-0.335796
H78	H	-0.645854	1.316619	0.164204
H79	H	-1.043466	0.787912	-0.260344
H80	H	-0.543466	1.287912	0.239656
N81	N	-0.887372	0.852858	-0.299471
N82	N	-0.387372	1.352858	0.200529
H83	H	-0.930742	0.912443	-0.343933
H84	H	-0.430742	1.412443	0.156067
H85	H	-0.930702	0.808153	-0.239978
H86	H	-0.430702	1.308153	0.260022
H87	H	-1.059846	0.647750	-0.505348
H88	H	-0.559846	1.147750	-0.005348
H89	H	-1.373722	1.177558	-0.532534
H90	H	-0.873722	1.677558	-0.032534
N91	N	-1.543302	1.119533	-0.313854
N92	N	-1.043302	1.619533	0.186146
H93	H	-1.542930	1.042139	-0.314264
H94	H	-1.042930	1.542139	0.185736
H95	H	-1.517292	1.126368	-0.243368
H96	H	-1.017292	1.626368	0.256632
N97	N	-1.392988	1.363143	-0.507871
N98	N	-0.892988	1.863143	-0.007871
H99	H	-1.393361	1.440537	-0.507462
H100	H	-0.893361	1.940537	-0.007462
H101	H	-1.320710	1.333644	-0.497001
H102	H	-0.820710	1.833644	0.002999
N103	N	-1.357181	0.598268	-0.960149
N104	N	-0.857181	1.098268	-0.460149
H105	H	-1.284880	0.609033	-0.989644
H106	H	-0.784880	1.109033	-0.489644
H107	H	-1.357565	0.598750	-0.882780
H108	H	-0.857565	1.098750	-0.382780
H109	H	-1.562460	0.863537	-0.847584
H110	H	-1.062460	1.363537	-0.347584
H111	H	-1.562576	1.305122	-0.289167
H112	H	-1.062576	1.805122	0.210833
H113	H	-1.526580	0.817068	-1.018084
H114	H	-1.026580	1.317068	-0.518084
