data_functionalizedCrystal
_audit_creation_method	'MofGen! by Chris Wilmer'
_symmetry_space_group_name_H-M	'P1'
_symmetry_Int_Tables_number	1
_symmetry_cell_setting	triclinic
loop_
_symmetry_equiv_pos_as_xyz
  x,y,z
_cell_length_a	21.395362
_cell_length_b	14.908178
_cell_length_c	21.395355
_cell_angle_alpha	93.314561
_cell_angle_beta	90.043940
_cell_angle_gamma	93.328618
loop_
_atom_site_label
_atom_site_type_symbol
_atom_site_fract_x
_atom_site_fract_y
_atom_site_fract_z
Zn1	Zn	0.943530	-0.358911	0.340196
Zn2	Zn	0.937410	-0.509764	0.229370
Zn3	Zn	0.838744	-0.358953	0.235395
Zn4	Zn	0.832691	-0.509782	0.334074
O5	O	0.888094	-0.434352	0.284759
O6	O	1.030397	-0.378896	0.325535
O7	O	0.924294	-0.489768	0.142491
O8	O	0.857738	-0.232692	0.254381
O9	O	1.025901	-0.489727	0.244112
O10	O	0.934725	-0.232661	0.331377
O11	O	0.851804	-0.378968	0.146918
O12	O	0.750262	-0.378986	0.248445
O13	O	0.847422	-0.489759	0.422564
O14	O	0.745815	-0.489800	0.320944
O15	O	0.928856	-0.378914	0.427062
O16	O	0.918425	-0.636021	0.238176
O17	O	0.841488	-0.636035	0.315101
C18	C	0.725304	-0.434400	0.284684
C19	C	0.655661	-0.434442	0.284666
C20	C	0.878652	-0.668765	0.275334
C21	C	0.874671	-0.769047	0.271323
C22	C	0.620646	-0.492219	0.322353
C23	C	0.555212	-0.492197	0.322382
C24	C	0.524794	-0.434407	0.284712
C25	C	0.559818	-0.376619	0.247023
C26	C	0.625251	-0.376636	0.247000
C27	C	0.421360	-0.427139	0.228598
C28	C	0.355927	-0.427128	0.228620
C29	C	0.322976	-0.434348	0.284784
C30	C	0.355465	-0.441599	0.340927
C31	C	0.420898	-0.441616	0.340904
C32	C	0.453843	-0.434382	0.284733
C33	C	0.217009	-0.492105	0.322505
C34	C	0.151574	-0.492076	0.322535
C35	C	0.156181	-0.376503	0.247170
C36	C	0.221616	-0.376527	0.247146
C37	C	0.252025	-0.434332	0.284812
C38	C	0.947294	-0.957307	0.344048
C39	C	0.943555	-1.051531	0.340282
C40	C	0.863451	-1.051722	0.260027
C41	C	0.867190	-0.957498	0.263793
C42	C	0.909113	-0.910293	0.305805
C43	C	0.912855	-0.816067	0.309568
C44	C	0.832749	-0.816260	0.229317
C45	C	0.829010	-0.910484	0.225550
C46	C	1.051519	-0.434305	0.284834
C47	C	1.121161	-0.434285	0.284866
C48	C	0.888147	-0.434334	0.448183
C49	C	0.888169	-0.434326	0.517824
C50	C	0.897589	-0.199025	0.294234
C51	C	0.901635	-0.098742	0.298272
C52	C	0.888080	-0.434305	0.121973
C53	C	0.888189	-0.434059	0.052342
C54	C	0.930570	-0.376607	0.552881
C55	C	0.930570	-0.376568	0.618318
C56	C	0.888176	-0.434265	0.648695
C57	C	0.845768	-0.491988	0.613631
C58	C	0.845764	-0.492019	0.548196
C59	C	0.879957	-0.515504	0.749102
C60	C	0.879965	-0.515475	0.814536
C61	C	0.888184	-0.434169	0.850520
C62	C	0.896408	-0.352891	0.821062
C63	C	0.896405	-0.352921	0.755626
C64	C	0.888175	-0.434237	0.719649
C65	C	0.930588	-0.376403	0.956531
C66	C	0.930584	-0.376363	1.021969
C67	C	0.845785	-0.491791	1.017281
C68	C	0.845785	-0.491823	0.951844
C69	C	0.888190	-0.434130	0.921473
H70	H	0.645402	-0.539288	0.353025
N71	N	0.800022	-0.554263	0.510381
H72	H	0.773160	-0.590803	0.539552
H73	H	0.823832	-0.596027	0.481573
N74	N	0.976308	-0.314321	0.656141
H75	H	0.952538	-0.272503	0.684949
H76	H	1.003160	-0.277838	0.626931
N77	N	0.249811	-0.554445	0.363133
H78	H	0.278483	-0.517852	0.393670
H79	H	0.275195	-0.596198	0.335887
H80	H	0.447348	-0.447517	0.386617
H81	H	0.873272	-0.581657	0.838516
H82	H	0.965098	-0.329628	0.528157
H83	H	0.448184	-0.421255	0.182860
N84	N	0.871100	-0.603204	0.710293
H85	H	0.865900	-0.654688	0.738882
H86	H	0.908942	-0.611571	0.682842
N87	N	0.984723	-1.102240	0.381541
H88	H	1.011843	-1.058036	0.408728
H89	H	1.012186	-1.141312	0.354524
H90	H	0.965111	-0.329356	1.050511
H91	H	0.903100	-0.286741	0.731644
H92	H	0.946993	-0.777634	0.343774
N93	N	0.123384	-0.314164	0.206545
H94	H	0.076619	-0.322917	0.212279
H95	H	0.134204	-0.328113	0.161216
H96	H	0.653761	-0.329584	0.216310
N97	N	0.791570	-0.765549	0.188063
H98	H	0.764069	-0.726482	0.215044
H99	H	0.764487	-0.809810	0.160884
N100	N	0.783797	-0.961399	0.180237
H101	H	0.787222	-1.028225	0.183652
H102	H	0.794235	-0.944942	0.136163
H103	H	0.903102	-0.286684	0.850359
H104	H	0.965113	-0.329421	0.931801
N105	N	0.319935	-0.449392	0.401509
H106	H	0.273554	-0.448277	0.393007
H107	H	0.333524	-0.397282	0.431671
H108	H	0.250125	-0.329483	0.216454
N109	N	0.800053	-0.554015	1.050036
H110	H	0.806487	-0.545236	1.096809
H111	H	0.807203	-0.618455	1.036024
H112	H	0.526697	-0.539246	0.353074
H113	H	0.329480	-0.421230	0.182905
H114	H	0.981434	-0.918872	0.378251
H115	H	0.811249	-0.538962	0.638369
H116	H	0.535048	-0.329564	0.216353
H117	H	0.123065	-0.539124	0.353229
N118	N	0.800043	-0.554063	0.914029
H119	H	0.773183	-0.590604	0.943201
H120	H	0.823849	-0.595828	0.885217
N121	N	0.818240	-1.102643	0.214715
H122	H	0.821668	-1.169467	0.218133
H123	H	0.828677	-1.086189	0.170640
