data_functionalizedCrystal
_audit_creation_method	'MofGen! by Chris Wilmer'
_symmetry_space_group_name_H-M	'P1'
_symmetry_Int_Tables_number	1
_symmetry_cell_setting	triclinic
loop_
_symmetry_equiv_pos_as_xyz
  x,y,z
_cell_length_a	14.908571
_cell_length_b	14.908520
_cell_length_c	11.169409
_cell_angle_alpha	93.260433
_cell_angle_beta	86.682976
_cell_angle_gamma	90.205961
loop_
_atom_site_label
_atom_site_type_symbol
_atom_site_fract_x
_atom_site_fract_y
_atom_site_fract_z
Zn1	Zn	1.354013	-0.437325	-0.815924
Zn2	Zn	1.345218	-0.587709	-0.626091
Zn3	Zn	1.203635	-0.428688	-0.603061
Zn4	Zn	1.194940	-0.578950	-0.814536
O5	O	1.274452	-0.508168	-0.714903
O6	O	1.478671	-0.464555	-0.800961
O7	O	1.326395	-0.566666	-0.455087
O8	O	1.230902	-0.304013	-0.622240
O9	O	1.472210	-0.575041	-0.661491
O10	O	1.341384	-0.310359	-0.778629
O11	O	1.222374	-0.449834	-0.438167
O12	O	1.076656	-0.441340	-0.620895
O13	O	1.216083	-0.560112	-0.982670
O14	O	1.070268	-0.551737	-0.776265
O15	O	1.332953	-0.456061	-0.983689
O16	O	1.317964	-0.712368	-0.660146
O17	O	1.207556	-0.705933	-0.798596
C18	C	1.040837	-0.494651	-0.695931
C19	C	0.940895	-0.488891	-0.687845
C20	C	1.260887	-0.741776	-0.731748
C21	C	1.255166	-0.841719	-0.739001
C22	C	0.746478	-0.593199	-0.834244
C23	C	0.652573	-0.587789	-0.826651
C24	C	0.659178	-0.472657	-0.665072
C25	C	0.753083	-0.478067	-0.672665
C26	C	0.796730	-0.538341	-0.757253
C27	C	0.890636	-0.543755	-0.764839
C28	C	0.897239	-0.428618	-0.603267
C29	C	0.803334	-0.423208	-0.595674
C30	C	1.359502	-1.036169	-0.608596
C31	C	1.354130	-1.130075	-0.615407
C32	C	1.239054	-1.123437	-0.759441
C33	C	1.244427	-1.029532	-0.752630
C34	C	1.304652	-0.985901	-0.677203
C35	C	1.310019	-0.891993	-0.670386
C36	C	1.194948	-0.885358	-0.814426
C37	C	1.189576	-0.979264	-0.821237
C38	C	1.508978	-0.521738	-0.733950
C39	C	1.608919	-0.527521	-0.742066
C40	C	1.274529	-0.508073	-1.027944
C41	C	1.274563	-0.508032	-1.161344
C42	C	1.288094	-0.273650	-0.698020
C43	C	1.293907	-0.173712	-0.690826
C44	C	1.274429	-0.508201	-0.403079
C45	C	1.274585	-0.507999	-0.269676
H46	H	0.926172	-0.592835	-0.833713
F47	F	1.125487	-1.025709	-0.901511
H48	H	0.782016	-0.642282	-0.903112
F49	F	0.612711	-0.408502	-0.575070
H50	H	1.359055	-0.856470	-0.608967
H51	H	0.611662	-0.632459	-0.889347
H52	H	1.408534	-1.000644	-0.547172
F53	F	0.756873	-0.359060	-0.505659
F54	F	1.412512	-1.183571	-0.542388
H55	H	0.938164	-0.383950	-0.540572
H56	H	1.190028	-1.158978	-0.820858
F57	F	1.136558	-0.831852	-0.887434
