data_functionalizedCrystal
_audit_creation_method	'MofGen! by Chris Wilmer'
_symmetry_space_group_name_H-M	'P1'
_symmetry_Int_Tables_number	1
_symmetry_cell_setting	triclinic
loop_
_symmetry_equiv_pos_as_xyz
  x,y,z
_cell_length_a	15.944551
_cell_length_b	15.944493
_cell_length_c	13.101039
_cell_angle_alpha	93.367629
_cell_angle_beta	86.646591
_cell_angle_gamma	83.486891
loop_
_atom_site_label
_atom_site_type_symbol
_atom_site_fract_x
_atom_site_fract_y
_atom_site_fract_z
O1	O	1.119117	0.103706	-0.085094
O2	O	0.874565	0.117061	-0.085118
O3	O	1.003545	-0.011895	-0.085114
O4	O	0.990137	0.232662	-0.085098
O5	O	0.994291	-0.002627	0.085315
O6	O	0.865311	0.126329	0.085311
O7	O	1.109862	0.112973	0.085335
Zn8	Zn	0.986118	0.121123	0.112383
Zn9	Zn	0.998310	0.108912	-0.112166
O10	O	0.980883	0.241930	0.085331
C11	C	0.838645	0.121140	0.000093
C12	C	0.745400	0.119477	0.000084
C13	C	0.530559	0.035571	0.000098
C14	C	0.474094	0.069965	-0.083930
C15	C	0.574674	0.116471	0.000095
C16	C	0.464992	0.079122	0.084100
C17	C	0.409761	0.113561	0.000112
C18	C	0.519440	0.150883	-0.084002
C19	C	0.510341	0.160032	0.084104
C20	C	0.453894	0.194484	0.000055
C21	C	0.669676	0.118145	0.000085
C22	C	0.314760	0.111892	0.000114
C23	C	0.998370	-0.038556	0.000096
C24	C	0.996728	-0.131806	0.000083
C25	C	1.072647	-0.367564	0.000110
C26	C	1.036269	-0.422702	-0.083924
C27	C	0.993683	-0.302526	0.000095
C28	C	1.027127	-0.413541	0.084106
C29	C	0.990748	-0.467435	0.000112
C30	C	0.957330	-0.356439	-0.084008
C31	C	0.948196	-0.347271	0.084098
C32	C	0.911761	-0.402377	0.000043
C33	C	0.995377	-0.207527	0.000085
C34	C	0.989049	-0.562432	0.000115
C35	C	1.145783	0.108894	0.000122
C36	C	1.239029	0.110557	0.000125
C37	C	0.986058	0.268591	0.000119
C38	C	0.987700	0.361840	0.000125
N39	N	0.977802	0.129455	0.265631
N40	N	1.006632	0.100572	-0.265414
C41	C	0.966489	0.140800	0.474673
C42	C	1.017942	0.089230	0.525550
C43	C	1.011648	0.095543	0.641869
C44	C	0.972783	0.134489	0.358344
H45	H	0.526607	0.198085	0.155151
H46	H	0.457849	0.031885	-0.154975
H47	H	1.066720	0.040339	0.481750
C48	C	0.897976	-0.302918	0.180069
C49	C	0.889728	-0.205870	0.197125
C50	C	0.839517	-0.161515	0.293106
C51	C	0.797554	-0.214208	0.372032
C52	C	0.805800	-0.311262	0.354978
C53	C	0.856011	-0.355617	0.258997
H54	H	0.920794	-0.166858	0.138697
H55	H	0.833413	-0.089669	0.305730
H56	H	0.760384	-0.181374	0.443083
H57	H	0.774735	-0.350274	0.413406
H58	H	0.862115	-0.427462	0.246373
H59	H	0.917716	0.189689	0.518469
H60	H	0.563912	-0.031574	-0.000010
H61	H	0.927863	-0.331487	-0.155128
C62	C	1.066979	-0.447398	0.180084
C63	C	1.159767	-0.436614	0.198528
C64	C	1.199626	-0.470469	0.294500
C65	C	1.146698	-0.515109	0.372029
C66	C	1.053906	-0.525896	0.353588
C67	C	1.014046	-0.492041	0.257615
H68	H	1.198952	-0.403566	0.141134
H69	H	1.268318	-0.462484	0.308151
H70	H	1.176205	-0.540171	0.443073
H71	H	1.014720	-0.558944	0.410981
H72	H	0.945354	-0.500026	0.243965
H73	H	0.441056	0.048753	0.155137
C74	C	1.164536	-0.346447	0.000010
C75	C	1.238024	-0.418107	-0.000983
C76	C	1.329911	-0.396988	-0.001089
C77	C	1.348309	-0.304209	-0.000202
C78	C	1.274818	-0.232543	0.000791
C79	C	1.182932	-0.253662	0.000897
H80	H	1.224407	-0.486793	-0.001640
H81	H	1.384313	-0.450041	-0.001824
H82	H	1.416328	-0.288575	-0.000280
H83	H	1.288435	-0.163856	0.001448
H84	H	1.128530	-0.200609	0.001632
C85	C	0.551640	0.191839	-0.180087
C86	C	0.617702	0.141067	-0.257198
C87	C	0.649903	0.182018	-0.353284
C88	C	0.616043	0.273740	-0.372260
C89	C	0.549978	0.324518	-0.295147
C90	C	0.517776	0.283567	-0.199061
H91	H	0.642771	0.073164	-0.243153
H92	H	0.698810	0.144429	-0.410368
H93	H	0.639881	0.304054	-0.443388
H94	H	0.524909	0.392421	-0.309192
H95	H	0.468870	0.321156	-0.141977
C96	C	0.409074	0.285272	-0.000005
C97	C	0.419762	0.350763	0.088025
C98	C	0.374940	0.441548	0.087956
C99	C	0.319430	0.466841	-0.000143
C100	C	0.308739	0.401349	-0.088180
C101	C	0.353561	0.310564	-0.088111
H102	H	0.460856	0.332040	0.153247
H103	H	0.382855	0.490029	0.153127
H104	H	0.286250	0.534046	-0.000194
H105	H	0.267645	0.420071	-0.153402
H106	H	0.345647	0.262082	-0.153282
C107	C	1.086525	-0.467028	-0.179894
C108	C	1.181315	-0.458265	-0.198350
C109	C	1.231576	-0.502587	-0.294316
C110	C	1.187046	-0.555672	-0.371827
C111	C	1.092251	-0.564437	-0.353374
C112	C	1.041990	-0.520115	-0.257407
H113	H	1.214283	-0.418967	-0.140969
H114	H	1.301750	-0.496098	-0.307976
H115	H	1.224253	-0.588481	-0.442867
H116	H	1.059283	-0.603735	-0.410754
H117	H	0.971816	-0.526604	-0.243747
C118	C	0.819809	-0.423284	-0.000023
C119	C	0.765244	-0.398068	-0.088989
C120	C	0.673295	-0.418978	-0.089060
C121	C	0.635910	-0.465103	-0.000166
C122	C	0.690475	-0.490322	0.088807
C123	C	0.782424	-0.469412	0.088878
H124	H	0.792918	-0.363921	-0.154800
H125	H	0.632902	-0.400309	-0.154924
H126	H	0.567843	-0.480582	-0.000219
H127	H	0.662801	-0.524469	0.154618
H128	H	0.822817	-0.488081	0.154742
