data_functionalizedCrystal
_audit_creation_method	'MofGen! by Chris Wilmer'
_symmetry_space_group_name_H-M	'P1'
_symmetry_Int_Tables_number	1
_symmetry_cell_setting	triclinic
loop_
_symmetry_equiv_pos_as_xyz
  x,y,z
_cell_length_a	12.827893
_cell_length_b	18.101397
_cell_length_c	12.827885
_cell_angle_alpha	89.963418
_cell_angle_beta	89.980918
_cell_angle_gamma	90.020627
loop_
_atom_site_label
_atom_site_type_symbol
_atom_site_fract_x
_atom_site_fract_y
_atom_site_fract_z
Zn1	Zn	1.597633	-0.294791	-0.590794
Zn2	Zn	1.847633	-0.044791	-0.340794
Zn3	Zn	2.097633	0.205209	-0.090794
Zn4	Zn	2.347633	0.455209	0.159206
Zn5	Zn	1.597511	-0.418650	-0.416034
Zn6	Zn	1.847511	-0.168650	-0.166034
Zn7	Zn	2.097511	0.081350	0.083966
Zn8	Zn	2.347511	0.331350	0.333966
Zn9	Zn	1.422874	-0.294827	-0.416068
Zn10	Zn	1.672874	-0.044827	-0.166068
Zn11	Zn	1.922874	0.205173	0.083932
Zn12	Zn	2.172874	0.455173	0.333932
Zn13	Zn	1.422844	-0.418595	-0.590734
Zn14	Zn	1.672844	-0.168595	-0.340734
Zn15	Zn	1.922844	0.081405	-0.090734
Zn16	Zn	2.172844	0.331405	0.159266
O17	O	1.510216	-0.356716	-0.503407
O18	O	1.760216	-0.106716	-0.253407
O19	O	2.010216	0.143284	-0.003407
O20	O	2.260216	0.393284	0.246593
O21	O	1.743853	-0.311228	-0.567622
O22	O	1.993853	-0.061228	-0.317622
O23	O	2.243853	0.188772	-0.067622
O24	O	2.493853	0.438772	0.182378
O25	O	1.574307	-0.402263	-0.269802
O26	O	1.824307	-0.152263	-0.019802
O27	O	2.074307	0.097737	0.230198
O28	O	2.324307	0.347737	0.480198
O29	O	1.446120	-0.191189	-0.439286
O30	O	1.696120	0.058811	-0.189286
O31	O	1.946120	0.308811	0.060714
O32	O	2.196120	0.558811	0.310714
O33	O	1.743763	-0.402227	-0.439226
O34	O	1.993763	-0.152227	-0.189226
O35	O	2.243763	0.097773	0.060774
O36	O	2.493763	0.347773	0.310774
O37	O	1.574514	-0.191162	-0.567656
O38	O	1.824514	0.058838	-0.317656
O39	O	2.074514	0.308838	-0.067656
O40	O	2.324514	0.558838	0.182344
O41	O	1.446002	-0.311291	-0.269827
O42	O	1.696002	-0.061291	-0.019827
O43	O	1.946002	0.188709	0.230173
O44	O	2.196002	0.438709	0.480173
O45	O	1.276634	-0.311237	-0.439227
O46	O	1.526634	-0.061237	-0.189227
O47	O	1.776634	0.188763	0.060773
O48	O	2.026634	0.438763	0.310773
O49	O	1.446068	-0.402134	-0.736978
O50	O	1.696068	-0.152134	-0.486978
O51	O	1.946068	0.097866	-0.236978
O52	O	2.196068	0.347866	0.013022
O53	O	1.276612	-0.402169	-0.567554
O54	O	1.526612	-0.152169	-0.317554
O55	O	1.776612	0.097831	-0.067554
O56	O	2.026612	0.347831	0.182446
O57	O	1.574485	-0.311175	-0.737022
O58	O	1.824485	-0.061175	-0.487022
O59	O	2.074485	0.188825	-0.237022
O60	O	2.324485	0.438825	0.012978
O61	O	1.574278	-0.522275	-0.439168
O62	O	1.824278	-0.272275	-0.189168
O63	O	2.074278	-0.022275	0.060832
O64	O	2.324278	0.227725	0.310832
O65	O	1.445951	-0.522235	-0.567520
O66	O	1.695951	-0.272235	-0.317520
O67	O	1.945951	-0.022235	-0.067520
O68	O	2.195951	0.227765	0.182480
C69	C	1.238706	-0.356702	-0.503389
C70	C	1.488706	-0.106702	-0.253389
C71	C	1.738706	0.143298	-0.003389
C72	C	1.988706	0.393298	0.246611
C73	C	1.122553	-0.356714	-0.503405
C74	C	1.372553	-0.106714	-0.253405
C75	C	1.622553	0.143286	-0.003405
C76	C	1.872553	0.393286	0.246595
C77	C	1.070751	-0.311658	-0.440018
C78	C	1.320751	-0.061658	-0.190018
C79	C	1.570751	0.188342	0.059982
C80	C	1.820751	0.438342	0.309982
C81	C	0.950701	-0.311670	-0.440034
C82	C	1.200701	-0.061670	-0.190034
C83	C	1.450701	0.188330	0.059966
C84	C	1.700701	0.438330	0.309966
C85	C	1.510126	-0.549126	-0.503357
C86	C	1.760126	-0.299126	-0.253357
C87	C	2.010126	-0.049126	-0.003357
C88	C	2.260126	0.200874	0.246643
C89	C	1.510183	-0.631440	-0.503370
C90	C	1.760183	-0.381440	-0.253370
C91	C	2.010183	-0.131440	-0.003370
C92	C	2.260183	0.118560	0.246630
C93	C	1.510317	-0.930531	-0.503465
C94	C	1.760317	-0.680531	-0.253465
C95	C	2.010317	-0.430531	-0.003465
C96	C	2.260317	-0.180531	0.246535
C97	C	1.590832	-0.899200	-0.422494
C98	C	1.840832	-0.649200	-0.172494
C99	C	2.090832	-0.399200	0.077506
C100	C	2.340832	-0.149200	0.327506
C101	C	1.591111	-0.813582	-0.422703
C102	C	1.841111	-0.563582	-0.172703
C103	C	2.091111	-0.313582	0.077297
C104	C	2.341111	-0.063582	0.327297
C105	C	1.510251	-0.782149	-0.503417
C106	C	1.760251	-0.532149	-0.253417
C107	C	2.010251	-0.282149	-0.003417
C108	C	2.260251	-0.032149	0.246583
C109	C	1.540108	-0.813148	-0.613567
C110	C	1.790108	-0.563148	-0.363567
C111	C	2.040108	-0.313148	-0.113567
C112	C	2.290108	-0.063148	0.136433
C113	C	1.540731	-0.898793	-0.613126
C114	C	1.790731	-0.648793	-0.363126
C115	C	2.040731	-0.398793	-0.113126
C116	C	2.290731	-0.148793	0.136874
C117	C	1.399730	-0.899042	-0.475240
C118	C	1.649730	-0.649042	-0.225240
C119	C	1.899730	-0.399042	0.024760
C120	C	2.149730	-0.149042	0.274760
C121	C	1.400276	-0.813393	-0.472782
C122	C	1.650276	-0.563393	-0.222782
C123	C	1.900276	-0.313393	0.027218
C124	C	2.150276	-0.063393	0.277218
C125	C	1.510212	-0.698289	-0.503397
C126	C	1.760212	-0.448289	-0.253397
C127	C	2.010212	-0.198289	-0.003397
C128	C	2.260212	0.051711	0.246603
C129	C	1.510359	-1.014391	-0.503493
C130	C	1.760359	-0.764391	-0.253493
C131	C	2.010359	-0.514391	-0.003493
C132	C	2.260359	-0.264391	0.246507
C133	C	1.782786	-0.356730	-0.503427
C134	C	2.032786	-0.106730	-0.253427
C135	C	2.282786	0.143270	-0.003427
C136	C	2.532786	0.393270	0.246573
C137	C	1.898939	-0.356736	-0.503436
C138	C	2.148939	-0.106736	-0.253436
C139	C	2.398939	0.143264	-0.003436
C140	C	2.648939	0.393264	0.246564
C141	C	1.510287	-0.356645	-0.775978
C142	C	1.760287	-0.106645	-0.525978
C143	C	2.010287	0.143355	-0.275978
C144	C	2.260287	0.393355	-0.025978
C145	C	1.510317	-0.356614	-0.892131
C146	C	1.760317	-0.106614	-0.642131
C147	C	2.010317	0.143386	-0.392131
C148	C	2.260317	0.393386	-0.142131
C149	C	1.510334	-0.163554	-0.503481
C150	C	1.760334	0.086446	-0.253481
C151	C	2.010334	0.336446	-0.003481
C152	C	2.260334	0.586446	0.246519
C153	C	1.510384	-0.081240	-0.503513
C154	C	1.760384	0.168760	-0.253513
C155	C	2.010384	0.418760	-0.003513
C156	C	2.260384	0.668760	0.246487
C157	C	1.573868	-0.311596	-0.943938
C158	C	1.823868	-0.061596	-0.693938
C159	C	2.073868	0.188404	-0.443938
C160	C	2.323868	0.438404	-0.193938
C161	C	1.573901	-0.311564	-1.063988
C162	C	1.823901	-0.061564	-0.813988
C163	C	2.073901	0.188436	-0.563988
C164	C	2.323901	0.438436	-0.313988
C165	C	1.510205	-0.356733	-0.231898
C166	C	1.760205	-0.106733	0.018102
C167	C	2.010205	0.143267	0.268102
C168	C	2.260205	0.393267	0.518102
C169	C	1.510377	-0.356555	-0.115745
C170	C	1.760377	-0.106555	0.134255
C171	C	2.010377	0.143445	0.384255
C172	C	2.260377	0.393445	0.634255
H173	H	0.906153	-0.273093	-0.385770
H174	H	1.156153	-0.023093	-0.135770
H175	H	1.406153	0.226907	0.114230
H176	H	1.656153	0.476907	0.364230
F177	F	0.957155	-0.407155	-0.574379
F178	F	1.207155	-0.157155	-0.324379
F179	F	1.457155	0.092845	-0.074379
F180	F	1.707155	0.342845	0.175621
H181	H	1.628314	-0.273025	-1.108540
H182	H	1.878314	-0.023025	-0.858540
H183	H	2.128314	0.226975	-0.608540
H184	H	2.378314	0.476975	-0.358540
H185	H	1.078025	-0.395298	-0.557682
H186	H	1.328025	-0.145298	-0.307682
H187	H	1.578025	0.104702	-0.057682
H188	H	1.828025	0.354702	0.192318
H189	H	1.672301	-0.920667	-0.440953
H190	H	1.922301	-0.670667	-0.190953
H191	H	2.172301	-0.420667	0.059047
H192	H	2.422301	-0.170667	0.309047
H193	H	1.628249	-0.273076	-0.899414
H194	H	1.878249	-0.023076	-0.649414
H195	H	2.128249	0.226924	-0.399414
H196	H	2.378249	0.476924	-0.149414
H197	H	1.483258	-0.792784	-0.675520
H198	H	1.733258	-0.542784	-0.425520
H199	H	1.983258	-0.292784	-0.175520
H200	H	2.233258	-0.042784	0.074480
F201	F	1.370843	-0.786919	-0.366831
F202	F	1.620843	-0.536919	-0.116831
F203	F	1.870843	-0.286919	0.133169
F204	F	2.120843	-0.036919	0.383169
F205	F	1.566640	-0.786189	-0.315961
F206	F	1.816640	-0.536189	-0.065961
F207	F	2.066640	-0.286189	0.184039
F208	F	2.316640	-0.036189	0.434039
H209	H	1.455969	-0.395101	-1.071199
H210	H	1.705969	-0.145101	-0.821199
H211	H	1.955969	0.104899	-0.571199
H212	H	2.205969	0.354899	-0.321199
H213	H	1.337059	-0.792004	-0.527439
H214	H	1.587059	-0.542004	-0.277439
H215	H	1.837059	-0.292004	-0.027439
H216	H	2.087059	-0.042004	0.222561
F217	F	1.439225	-0.406958	-0.950321
F218	F	1.689225	-0.156958	-0.700321
F219	F	1.939225	0.093042	-0.450321
F220	F	2.189225	0.343042	-0.200321
F221	F	1.644582	-0.785036	-0.645349
F222	F	1.894582	-0.535036	-0.395349
F223	F	2.144582	-0.285036	-0.145349
F224	F	2.394582	-0.035036	0.104651
F225	F	1.364226	-0.927362	-0.372076
F226	F	1.614226	-0.677362	-0.122076
F227	F	1.864226	-0.427362	0.127924
F228	F	2.114226	-0.177362	0.377924
F229	F	1.467400	-0.925881	-0.694663
F230	F	1.717400	-0.675881	-0.444663
F231	F	1.967400	-0.425881	-0.194663
F232	F	2.217400	-0.175881	0.055337
H233	H	1.572377	-0.919850	-0.340574
H234	H	1.822377	-0.669850	-0.090574
H235	H	2.072377	-0.419850	0.159426
H236	H	2.322377	-0.169850	0.409426
F237	F	1.128947	-0.261229	-0.369064
F238	F	1.378947	-0.011229	-0.119064
F239	F	1.628947	0.238771	0.130936
F240	F	1.878947	0.488771	0.380936
F241	F	1.646387	-0.924828	-0.644375
F242	F	1.896387	-0.674828	-0.394375
F243	F	2.146387	-0.424828	-0.144375
F244	F	2.396387	-0.174828	0.105625
F245	F	1.698181	-0.786725	-0.447117
F246	F	1.948181	-0.536725	-0.197117
F247	F	2.198181	-0.286725	0.052883
F248	F	2.448181	-0.036725	0.302883
F249	F	1.321318	-0.925527	-0.552322
F250	F	1.571318	-0.675527	-0.302322
F251	F	1.821318	-0.425527	-0.052322
F252	F	2.071318	-0.175527	0.197678
