data_functionalizedCrystal
_audit_creation_method	'MofGen! by Chris Wilmer'
_symmetry_space_group_name_H-M	'P1'
_symmetry_Int_Tables_number	1
_symmetry_cell_setting	triclinic
loop_
_symmetry_equiv_pos_as_xyz
  x,y,z
_cell_length_a	13.339071
_cell_length_b	10.489716
_cell_length_c	11.804365
_cell_angle_alpha	101.956103
_cell_angle_beta	74.875833
_cell_angle_gamma	100.079207
loop_
_atom_site_label
_atom_site_type_symbol
_atom_site_fract_x
_atom_site_fract_y
_atom_site_fract_z
O1	O	1.367208	0.622517	-0.099010
O2	O	1.072074	0.538371	-0.099013
O3	O	1.226371	0.397147	-0.099016
O4	O	1.212912	0.763741	-0.099007
O5	O	1.185750	0.434274	0.099041
O6	O	1.031454	0.575498	0.099044
O7	O	1.326587	0.659644	0.099047
Cu8	Cu	1.175311	0.620961	0.117130
Cu9	Cu	1.223350	0.577054	-0.117095
O10	O	1.172291	0.800868	0.099050
C11	C	1.013972	0.542720	0.000015
C12	C	0.901365	0.500352	0.000014
C13	C	0.859714	0.368229	0.000015
C14	C	0.753915	0.328417	0.000008
C15	C	0.689756	0.420725	0.000009
C16	C	0.731405	0.552852	0.000016
C17	C	0.837216	0.592666	0.000014
C18	C	0.667258	0.645162	0.000008
C19	C	0.708908	0.777289	0.000015
C20	C	0.814708	0.817097	0.000013
C21	C	0.878868	0.724789	0.000012
C22	C	0.561448	0.605347	0.000010
C23	C	0.538950	0.829784	0.000009
C24	C	0.644749	0.869596	0.000016
C25	C	1.205050	0.367831	0.000009
C26	C	1.202027	0.225163	-0.000002
C27	C	1.296644	0.159884	0.000010
C28	C	1.266672	0.047101	-0.097640
C29	C	1.226602	0.083734	0.097629
C30	C	1.172112	0.114244	-0.097732
C31	C	1.132037	0.150903	0.097624
C32	C	1.102001	0.038141	-0.000049
C33	C	1.384690	0.655294	0.000016
C34	C	1.497299	0.697661	0.000010
C35	C	1.193612	0.830183	0.000022
C36	C	1.196637	0.972850	0.000025
N37	N	1.141531	0.651844	0.281871
N38	N	1.257138	0.546164	-0.281837
C39	C	1.338257	0.471976	0.655816
C40	C	1.363811	0.448607	0.531154
C41	C	1.308243	0.499414	0.468827
C42	C	1.227117	0.573595	0.531174
C43	C	1.201567	0.596975	0.655849
C44	C	1.171552	0.624413	0.468860
C45	C	1.090427	0.698594	0.531207
C46	C	1.064879	0.721969	0.655869
C47	C	1.120448	0.671162	0.718196
C48	C	1.197103	0.601033	0.344185
C49	C	1.060412	0.726031	0.344218
C50	C	1.034858	0.749401	0.468880
H51	H	0.848619	0.924679	0.000001
O52	O	0.708987	0.185924	0.000021
H53	H	0.771369	0.128428	0.000037
H54	H	1.378966	0.212718	-0.000088
H55	H	0.678675	0.977177	0.000021
O56	O	0.928918	0.268684	0.000006
H57	H	0.882186	0.170118	-0.000004
O58	O	1.092895	0.696366	0.852658
H59	H	1.010250	0.655200	0.885546
O60	O	0.992977	0.767742	0.000047
H61	H	1.030586	0.681357	0.000055
H62	H	1.015165	0.767406	0.293473
H63	H	0.486711	0.904949	0.000009
O64	O	1.342001	-0.012930	-0.206986
H65	H	1.422693	0.036369	-0.206784
H66	H	1.149142	0.128389	-0.180379
O67	O	0.992903	-0.031556	-0.000087
H68	H	0.970507	-0.019899	-0.081218
H69	H	1.075197	0.196235	0.180184
H70	H	1.429863	0.388212	0.480395
O71	O	1.284580	0.521006	0.276936
H72	H	1.358861	0.569805	0.300843
H73	H	1.249633	0.069418	0.180182
H74	H	1.329052	0.480384	0.367321
H75	H	1.383499	0.430624	0.706570
O76	O	0.977426	0.802048	0.723123
H77	H	0.943086	0.833464	0.658844
O78	O	0.947379	0.829438	0.536131
H79	H	0.873095	0.780631	0.512235
O80	O	0.516529	0.462851	0.000024
H81	H	0.558791	0.401542	-0.080693
O82	O	0.575639	0.377798	0.000023
H83	H	0.557452	0.270419	0.000034
