data_functionalizedCrystal
_audit_creation_method	'MofGen! by Chris Wilmer'
_symmetry_space_group_name_H-M	'P1'
_symmetry_Int_Tables_number	1
_symmetry_cell_setting	triclinic
loop_
_symmetry_equiv_pos_as_xyz
  x,y,z
_cell_length_a	11.026607
_cell_length_b	10.540539
_cell_length_c	10.065875
_cell_angle_alpha	98.880198
_cell_angle_beta	79.302338
_cell_angle_gamma	96.555754
loop_
_atom_site_label
_atom_site_type_symbol
_atom_site_fract_x
_atom_site_fract_y
_atom_site_fract_z
O1	O	1.632406	0.517971	-0.113482
O2	O	1.278575	0.457324	-0.113485
O3	O	1.463562	0.304709	-0.113482
O4	O	1.447418	0.670585	-0.113485
O5	O	1.428289	0.333960	0.113506
O6	O	1.243301	0.486575	0.113503
O7	O	1.597132	0.547222	0.113506
Zn8	Zn	1.414616	0.521543	0.149544
Zn9	Zn	1.461091	0.483003	-0.149523
O10	O	1.412145	0.699836	0.113503
C11	C	1.215630	0.460761	0.000009
C12	C	1.080627	0.427408	0.000007
C13	C	1.444715	0.271766	0.000010
C14	C	1.441094	0.130024	0.000002
C15	C	1.007620	0.519500	0.000005
C16	C	0.868087	0.485031	0.000004
C17	C	1.302369	-0.083873	-0.000508
C18	C	1.305961	0.063616	0.000003
C19	C	1.485983	0.099314	0.129624
C20	C	1.481354	-0.048226	0.129734
C21	C	1.524215	-0.081406	-0.128394
C22	C	1.525726	0.065627	-0.130108
C23	C	1.660077	0.543784	0.000010
C24	C	1.795082	0.577136	0.000002
C25	C	1.430992	0.732779	0.000008
C26	C	1.434615	0.874520	0.000007
N27	N	1.382908	0.547846	0.353649
N28	N	1.492809	0.456692	-0.353628
C29	C	1.450050	0.492145	0.421429
C30	C	1.425656	0.512401	0.578596
H31	H	1.048415	0.623863	0.000012
N32	N	1.410526	0.155923	0.250651
N33	N	1.458510	0.236969	0.334524
H34	H	1.405213	0.276945	0.419998
H35	H	1.039837	0.323041	-0.000027
H36	H	1.350104	0.575083	0.636915
N37	N	1.650856	0.121798	-0.139973
N38	N	1.700481	0.175135	-0.241648
H39	H	1.788860	0.214804	-0.248613
H40	H	1.568352	0.393999	0.588053
N41	N	0.816931	0.354095	-0.000023
N42	N	0.854901	0.269861	-0.095709
H43	H	0.818770	0.177389	-0.095730
N44	N	1.488501	-0.148906	-0.251633
N45	N	1.396565	-0.230326	-0.246323
H46	H	1.371330	-0.278004	-0.333354
H47	H	0.835869	0.681507	0.000010
H48	H	1.269230	0.083037	-0.092915
H49	H	1.263433	-0.136144	-0.093462
H50	H	1.234841	-0.113813	0.091924
N51	N	1.288132	0.626467	0.426825
N52	N	1.268445	0.642805	0.554394
H53	H	1.201506	0.698332	0.606075
H54	H	1.239969	0.106079	0.093075
N55	N	1.544694	0.413378	0.348210
N56	N	1.539095	0.297425	0.364069
H57	H	1.605893	0.241749	0.312329
N58	N	1.402171	-0.081134	0.251289
N59	N	1.350703	0.004814	0.335451
H60	H	1.294776	-0.018420	0.421303
H61	H	1.493044	0.083706	-0.225999
H62	H	1.577626	-0.074149	0.135615
H63	H	1.621956	-0.107365	-0.129265
N64	N	1.609538	0.155403	0.135659
N65	N	1.666021	0.218789	0.044276
H66	H	1.753284	0.258403	0.048533
