data_functionalizedCrystal
_audit_creation_method	'MofGen! by Chris Wilmer'
_symmetry_space_group_name_H-M	'P1'
_symmetry_Int_Tables_number	1
_symmetry_cell_setting	triclinic
loop_
_symmetry_equiv_pos_as_xyz
  x,y,z
_cell_length_a	19.288840
_cell_length_b	17.019294
_cell_length_c	17.766277
_cell_angle_alpha	86.114664
_cell_angle_beta	89.983415
_cell_angle_gamma	83.259949
loop_
_atom_site_label
_atom_site_type_symbol
_atom_site_fract_x
_atom_site_fract_y
_atom_site_fract_z
O1	O	0.921538	0.098312	-0.069091
O2	O	0.719299	0.111608	-0.069927
O3	O	0.826060	-0.009894	-0.062062
O4	O	0.814777	0.219814	-0.076956
O5	O	0.826041	-0.009900	0.063127
O6	O	0.719280	0.111602	0.055262
O7	O	0.921519	0.098306	0.056098
Cu8	Cu	0.820398	0.104953	0.067111
Cu9	Cu	0.820420	0.104961	-0.080940
O10	O	0.814758	0.219807	0.048233
C11	C	0.693412	0.111180	-0.007301
C12	C	0.616305	0.109906	-0.007209
C13	C	0.580111	0.109297	-0.075411
C14	C	0.507661	0.108091	-0.075342
C15	C	0.471411	0.107478	-0.007066
C16	C	0.507614	0.108091	0.061146
C17	C	0.580061	0.109305	0.061074
C18	C	0.361991	0.059347	0.048324
C19	C	0.289546	0.058128	0.048393
C20	C	0.247961	0.103737	-0.006843
C21	C	0.278831	0.150554	-0.062159
C22	C	0.351278	0.151768	-0.062231
C23	C	0.392855	0.106162	-0.006981
C24	C	0.133209	0.101821	-0.074975
C25	C	0.060758	0.100620	-0.074904
C26	C	0.060713	0.100612	0.061587
C27	C	0.133162	0.101821	0.061513
C28	C	0.169406	0.102422	-0.006770
C29	C	0.825622	-0.039284	0.002437
C30	C	0.824338	-0.126850	0.008111
C31	C	0.823747	-0.167981	-0.057463
C32	C	0.822536	-0.250258	-0.052130
C33	C	0.821921	-0.291403	0.018779
C34	C	0.822511	-0.250266	0.084358
C35	C	0.823717	-0.167990	0.079024
C36	C	0.818275	-0.539823	0.038299
C37	C	0.817071	-0.622105	0.043628
C38	C	0.817095	-0.622091	-0.092861
C39	C	0.818305	-0.539814	-0.098188
C40	C	0.818891	-0.498684	-0.032609
C41	C	0.820686	-0.375503	0.024232
C42	C	0.820121	-0.414584	-0.038063
C43	C	0.947406	0.098734	-0.006529
C44	C	1.024513	0.100008	-0.006627
C45	C	0.815196	0.249198	-0.016267
C46	C	0.816480	0.336764	-0.021946
N47	N	0.820387	0.104948	0.171242
N48	N	0.820436	0.104960	-0.185070
C49	C	0.867676	0.051173	0.214109
C50	C	0.867680	0.051170	0.292911
C51	C	0.820402	0.104954	0.328842
C52	C	0.773104	0.158733	0.285964
C53	C	0.773097	0.158729	0.207164
C54	C	0.811230	0.176830	0.449020
C55	C	0.811242	0.176834	0.527818
C56	C	0.820421	0.104963	0.571887
C57	C	0.829601	0.033085	0.537148
C58	C	0.829594	0.033082	0.458348
C59	C	0.820404	0.104963	0.414287
C60	C	0.867717	0.051181	0.700202
C61	C	0.867716	0.051176	0.779005
C62	C	0.773143	0.158746	0.772056
C63	C	0.773140	0.158744	0.693254
C64	C	0.820431	0.104962	0.657332
H65	H	0.264418	0.020003	0.093431
H66	H	0.162632	0.102312	0.117051
H67	H	0.803744	0.235360	0.413145
H68	H	0.822006	-0.283772	0.142093
H69	H	0.837075	-0.025439	0.573028
C70	C	0.824369	-0.122746	0.151155
H71	H	0.823836	-0.159034	0.194151
H72	H	0.784353	-0.084488	0.151516
H73	H	0.865329	-0.096815	0.152306
H74	H	0.824251	-0.134487	-0.115205
H75	H	0.162720	0.102319	-0.130576
H76	H	0.609616	0.109786	-0.131013
H77	H	0.818766	-0.506347	0.091698
C78	C	0.820013	-0.420763	0.102229
H79	H	0.820535	-0.384486	0.140524
H80	H	0.860025	-0.459025	0.107538
H81	H	0.779049	-0.446691	0.106748
H82	H	0.734608	0.202523	0.315222
C83	C	0.407729	0.009160	0.109076
H84	H	0.378971	-0.018908	0.142020
H85	H	0.432113	0.042930	0.137130
H86	H	0.440314	-0.027518	0.085552
C87	C	0.919738	-0.007978	0.826160
H88	H	0.947904	-0.040001	0.793477
H89	H	0.894794	-0.040745	0.859039
H90	H	0.948622	0.020324	0.855049
C91	C	0.721082	0.217889	0.160007
H92	H	0.692926	0.249925	0.192689
H93	H	0.692197	0.189600	0.131112
H94	H	0.746037	0.250655	0.127133
C95	C	0.467838	0.107428	-0.150368
H96	H	0.499800	0.107959	-0.191044
H97	H	0.434229	0.152948	-0.156156
H98	H	0.444927	0.060959	-0.150194
C99	C	0.467735	0.107476	0.136244
H100	H	0.419403	0.106677	0.126518
H101	H	0.474265	0.153684	0.161252
H102	H	0.484929	0.061695	0.167289
C103	C	0.821873	-0.295497	-0.124262
H104	H	0.822416	-0.259209	-0.167256
H105	H	0.780913	-0.321421	-0.125407
H106	H	0.861889	-0.333762	-0.124631
C107	C	0.619878	0.109962	0.136101
H108	H	0.587916	0.109419	0.176777
H109	H	0.642795	0.156422	0.135933
H110	H	0.653483	0.064433	0.141887
C111	C	0.721137	0.217908	0.811570
H112	H	0.727916	0.210211	0.864640
H113	H	0.674790	0.209480	0.799222
H114	H	0.728630	0.270535	0.795235
H115	H	0.818807	-0.506319	-0.155930
H116	H	0.816617	-0.655588	-0.146251
C117	C	0.816388	-0.667363	0.121631
H118	H	0.816902	-0.631083	0.159924
H119	H	0.856402	-0.705622	0.126947
H120	H	0.775426	-0.693294	0.126145
H121	H	0.376409	0.189890	-0.107269
H122	H	0.031289	0.100129	-0.130445
C123	C	0.919686	-0.007992	0.174599
H124	H	0.947847	-0.040024	0.211421
H125	H	0.948567	0.020293	0.142006
H126	H	0.894727	-0.040761	0.146003
H127	H	0.820617	-0.381079	-0.095797
H128	H	0.906190	0.007378	0.327821
H129	H	0.244974	0.187696	-0.107135
C130	C	0.839681	-0.045975	0.420135
H131	H	0.845244	-0.088780	0.457660
H132	H	0.880064	-0.047647	0.389401
H133	H	0.799945	-0.050277	0.389777
H134	H	0.031198	0.100118	0.117178
H135	H	0.906221	0.007386	0.670953
H136	H	0.734636	0.202535	0.658349
H137	H	0.803771	0.235362	0.556097
