data_functionalizedCrystal
_audit_creation_method	'MofGen! by Chris Wilmer'
_symmetry_space_group_name_H-M	'P1'
_symmetry_Int_Tables_number	1
_symmetry_cell_setting	triclinic
loop_
_symmetry_equiv_pos_as_xyz
  x,y,z
_cell_length_a	10.654556
_cell_length_b	19.188924
_cell_length_c	9.730223
_cell_angle_alpha	89.993539
_cell_angle_beta	89.998368
_cell_angle_gamma	83.814751
loop_
_atom_site_label
_atom_site_type_symbol
_atom_site_fract_x
_atom_site_fract_y
_atom_site_fract_z
O1	O	1.665755	0.098083	-0.114245
O2	O	2.165755	0.598083	0.385755
O3	O	1.300079	0.107421	-0.114260
O4	O	1.800079	0.607421	0.385740
O5	O	1.493474	0.001165	-0.114236
O6	O	1.993474	0.501165	0.385764
O7	O	1.472360	0.204339	-0.114269
O8	O	1.972360	0.704339	0.385731
O9	O	1.493462	0.001163	0.114344
O10	O	1.993462	0.501163	0.614344
O11	O	1.300067	0.107418	0.114320
O12	O	1.800067	0.607418	0.614320
O13	O	1.665742	0.098080	0.114335
O14	O	2.165742	0.598080	0.614335
Zn15	Zn	1.482903	0.102749	0.150620
Zn16	Zn	1.982903	0.602749	0.650620
Zn17	Zn	1.482919	0.102753	-0.150544
Zn18	Zn	1.982919	0.602753	0.349456
O19	O	1.472347	0.204336	0.114311
O20	O	1.972347	0.704336	0.614311
C21	C	1.253290	0.106733	0.000028
C22	C	1.753290	0.606733	0.500028
C23	C	1.113890	0.104679	0.000023
C24	C	1.613890	0.604679	0.500023
C25	C	0.917413	0.101788	-0.124564
C26	C	1.417413	0.601788	0.375436
C27	C	1.048394	0.103714	-0.124573
C28	C	1.548394	0.603714	0.375427
C29	C	1.048400	0.103711	0.124637
C30	C	1.548400	0.603711	0.624637
C31	C	0.917422	0.101780	0.124645
C32	C	1.417422	0.601780	0.624645
C33	C	1.492785	-0.024852	0.000055
C34	C	1.992785	0.475148	0.500055
C35	C	1.490737	-0.102370	0.000059
C36	C	1.990737	0.397630	0.500059
C37	C	1.489788	-0.138773	-0.124540
C38	C	1.989788	0.361227	0.375460
C39	C	1.487846	-0.211609	-0.124551
C40	C	1.987846	0.288391	0.375449
C41	C	1.486878	-0.248040	0.000045
C42	C	1.986878	0.251960	0.500045
C43	C	1.487820	-0.211627	0.124661
C44	C	1.987820	0.288373	0.624661
C45	C	1.489750	-0.138792	0.124668
C46	C	1.989750	0.361208	0.624668
N47	N	1.555306	-0.367256	0.092782
N48	N	2.055306	0.132744	0.592782
N49	N	1.553475	-0.436446	0.092767
N50	N	2.053475	0.063554	0.592767
C51	C	1.481061	-0.467487	0.000032
C52	C	1.981061	0.032513	0.500032
N53	N	1.410563	-0.426725	-0.092709
N54	N	1.910563	0.073275	0.407291
N55	N	1.412399	-0.357528	-0.092697
N56	N	1.912399	0.142472	0.407303
C57	C	1.484785	-0.327017	0.000051
C58	C	1.984785	0.172983	0.500051
C59	C	1.478004	-0.582867	-0.124588
C60	C	1.978004	-0.082867	0.375412
C61	C	1.476054	-0.655703	-0.124593
C62	C	1.976054	-0.155703	0.375407
C63	C	1.476041	-0.655720	0.124622
C64	C	1.976041	-0.155720	0.624622
C65	C	1.477979	-0.582885	0.124624
C66	C	1.977979	-0.082885	0.624624
C67	C	1.478966	-0.546463	0.000015
C68	C	1.978966	-0.046463	0.500015
C69	C	1.712532	0.098768	0.000044
C70	C	2.212532	0.598768	0.500044
C71	C	1.851931	0.100823	0.000040
C72	C	2.351931	0.600823	0.500040
C73	C	1.473036	0.230353	0.000017
C74	C	1.973036	0.730353	0.500017
C75	C	1.475084	0.307871	0.000004
C76	C	1.975084	0.807871	0.500004
N77	N	1.482901	0.102746	0.356156
N78	N	1.982901	0.602746	0.856156
N79	N	1.482931	0.102750	-0.356081
N80	N	1.982931	0.602750	0.143919
C81	C	1.568565	0.055716	0.428092
C82	C	2.068565	0.555716	0.928092
C83	C	1.568577	0.055716	0.571975
C84	C	2.068577	0.555716	1.071975
C85	C	1.397258	0.149783	0.571973
C86	C	1.897258	0.649783	1.071973
C87	C	1.397240	0.149778	0.428092
C88	C	1.897240	0.649778	0.928092
H89	H	0.864105	0.100993	0.226118
H90	H	1.364105	0.600993	0.726118
F91	F	1.475004	-0.694487	0.257228
F92	F	1.975004	-0.194487	0.757228
H93	H	1.638313	0.017418	0.369525
H94	H	2.138313	0.517418	0.869525
F95	F	1.306099	0.199837	0.648542
F96	F	1.806099	0.699837	1.148542
H97	H	1.478801	-0.553210	-0.226052
H98	H	1.978801	-0.053210	0.273948
F99	F	1.659749	0.005659	0.648531
F100	F	2.159749	0.505659	1.148531
H101	H	0.864094	0.101008	-0.226026
H102	H	1.364094	0.601008	0.273974
F103	F	1.478989	-0.544140	0.257241
F104	F	1.978989	-0.044140	0.757241
F105	F	1.490833	-0.100014	-0.257161
F106	F	1.990833	0.399986	0.242839
H107	H	1.327476	0.188076	0.369518
H108	H	1.827476	0.688076	0.869518
H109	H	1.475275	-0.685341	-0.226061
H110	H	1.975275	-0.185341	0.273939
H111	H	1.487065	-0.241254	-0.226018
H112	H	1.987065	0.258746	0.273982
F113	F	1.118080	0.104740	-0.257194
F114	F	1.618080	0.604740	0.242806
F115	F	1.118109	0.104736	0.257243
F116	F	1.618109	0.604736	0.757243
H117	H	1.487028	-0.241293	0.226108
H118	H	1.987028	0.258707	0.726108
H119	H	1.490518	-0.109152	0.226135
H120	H	1.990518	0.390848	0.726135
