data_functionalizedCrystal
_audit_creation_method	'MofGen! by Chris Wilmer'
_symmetry_space_group_name_H-M	'P1'
_symmetry_Int_Tables_number	1
_symmetry_cell_setting	triclinic
loop_
_symmetry_equiv_pos_as_xyz
  x,y,z
_cell_length_a	17.917603
_cell_length_b	19.377372
_cell_length_c	19.377372
_cell_angle_alpha	86.406704
_cell_angle_beta	74.784798
_cell_angle_gamma	69.476854
loop_
_atom_site_label
_atom_site_type_symbol
_atom_site_fract_x
_atom_site_fract_y
_atom_site_fract_z
Zr1	Zr	0.985219	-0.215757	0.650112
O2	O	1.077314	-0.303108	0.570770
O3	O	0.848792	-0.184276	0.669732
O4	O	0.963053	-0.318045	0.694607
O5	O	0.995996	-0.069169	0.531624
O6	O	0.995999	-0.335178	0.797640
O7	O	0.963052	-0.169339	0.545896
O8	O	0.791606	-0.095889	0.753144
O9	O	1.200390	-0.308458	0.576120
O10	O	0.945913	-0.189318	0.760674
O11	O	0.945912	-0.101777	0.673130
O12	O	1.080441	-0.259272	0.702417
O13	O	1.080440	-0.171731	0.614873
Zr14	Zr	1.090308	-0.083323	0.791676
Zr15	Zr	1.037765	-0.243082	0.814439
Zr16	Zr	1.037762	-0.055998	0.627350
Zr17	Zr	1.181512	-0.224289	0.658644
Zr18	Zr	0.894015	-0.074790	0.783145
O19	O	1.226735	-0.114804	0.772056
O20	O	1.152026	-0.341960	0.804422
O21	O	1.152023	-0.075951	0.538405
O22	O	0.998213	0.004028	0.871018
O23	O	0.923504	-0.223128	0.903383
O24	O	0.923501	0.042880	0.637367
O25	O	1.079530	-0.229910	0.910165
O26	O	1.112474	0.018966	0.747182
O27	O	1.079528	0.036098	0.644148
O28	O	1.112475	-0.129741	0.895893
O29	O	1.242156	-0.330177	0.706737
O30	O	0.833371	0.031098	0.735051
O31	O	0.875137	0.009378	0.865669
O32	O	0.833372	-0.117609	0.883762
O33	O	1.242155	-0.181471	0.558027
O34	O	1.283921	-0.203190	0.688644
O35	O	0.995086	-0.039807	0.739372
O36	O	0.995087	-0.127348	0.826916
O37	O	1.129615	-0.197303	0.768658
O38	O	1.129614	-0.109762	0.681114
C39	C	0.792231	-0.138867	0.710223
C40	C	0.708900	-0.135245	0.706601
C41	C	0.972038	-0.115361	0.515347
C42	C	0.949731	-0.103761	0.445586
C43	C	1.103487	0.050294	0.692422
C44	C	1.125793	0.118116	0.682759
C45	C	0.556329	-0.128630	0.699984
C46	C	0.519193	-0.170448	0.741803
C47	C	0.434297	-0.166767	0.738121
C48	C	0.641232	-0.132309	0.703664
C49	C	1.283296	-0.160213	0.731566
C50	C	1.366627	-0.163835	0.735188
C51	C	0.972040	-0.349374	0.749367
C52	C	0.949734	-0.417195	0.759030
C53	C	0.848061	0.523742	0.803052
C54	C	0.869042	0.587460	0.793970
C55	C	1.009478	0.514423	0.733154
C56	C	0.988509	0.450698	0.742228
C57	C	0.907799	0.455364	0.777178
C58	C	1.048247	0.382320	0.716354
C59	C	1.027279	0.318600	0.725430
C60	C	0.946574	0.323258	0.760381
C61	C	0.886832	0.391643	0.786254
C62	C	1.128957	0.377655	0.681408
C63	C	1.188695	0.309277	0.655534
C64	C	1.167727	0.245556	0.664606
C65	C	1.087022	0.250214	0.699556
C66	C	1.227469	0.177170	0.638732
C67	C	1.206502	0.113450	0.647808
C68	C	1.066055	0.186494	0.708633
C69	C	1.227467	-0.248188	0.064107
C70	C	1.206488	-0.237278	-0.001436
C71	C	1.066052	-0.164250	0.059389
C72	C	1.087020	-0.175152	0.124939
C73	C	1.167729	-0.217122	0.127291
C74	C	1.027281	-0.144086	0.188123
C75	C	1.048247	-0.154989	0.253667
C76	C	1.128951	-0.196959	0.256026
C77	C	1.188694	-0.228026	0.192835
C78	C	0.946571	-0.102120	0.185770
C79	C	0.886833	-0.071054	0.248954
C80	C	0.907799	-0.081953	0.314498
C81	C	0.988504	-0.123923	0.316858
C82	C	0.848056	-0.050887	0.377690
C83	C	0.869022	-0.061791	0.443234
C84	C	1.009469	-0.134827	0.382402
C85	C	1.103489	-0.183719	0.926442
C86	C	1.125796	-0.195319	0.996203
C87	C	0.857957	-0.173046	0.915770
C88	C	0.796932	-0.181024	0.981909
C89	C	0.857954	0.060967	0.681750
C90	C	0.796929	0.132411	0.668465
C91	C	0.923680	0.026788	0.887298
C92	C	0.884962	0.086632	0.943773
C93	C	1.151847	-0.325867	0.554491
C94	C	1.190565	-0.385711	0.498015
C95	C	1.217570	-0.126034	0.526019
C96	C	1.278595	-0.118056	0.459879
C97	C	1.217573	-0.360046	0.760038
C98	C	1.278598	-0.431490	0.773323
C99	C	0.742604	-0.217124	0.978392
C100	C	0.685269	-0.224635	1.040533
C101	C	0.682259	-0.196039	1.106189
C102	C	0.736595	-0.159938	1.109705
C103	C	0.793933	-0.152433	1.047566
C104	C	0.793941	0.198316	0.696803
C105	C	0.736613	0.265451	0.684317
C106	C	0.682270	0.266679	0.643497
C107	C	0.685262	0.200767	0.615156
C108	C	0.742593	0.133634	0.627638
C109	C	0.866782	0.069038	1.015999
C110	C	0.830412	0.125261	1.069072
C111	C	0.812218	0.199076	1.049917
C112	C	0.830403	0.216669	0.977684
C113	C	0.866777	0.160447	0.924613
C114	C	1.208755	-0.368118	0.425790
C115	C	1.245149	-0.424342	0.372718
C116	C	1.263347	-0.498157	0.391873
C117	C	1.245157	-0.515750	0.464106
C118	C	1.208769	-0.459527	0.517176
C119	C	1.332929	-0.081962	0.463398
C120	C	1.390280	-0.074470	0.401260
C121	C	1.393291	-0.103068	0.335604
C122	C	1.338953	-0.139167	0.332088
C123	C	1.281607	-0.146662	0.394226
C124	C	1.332927	-0.432695	0.814146
C125	C	1.390263	-0.499820	0.826643
C126	C	1.393273	-0.565739	0.798311
C127	C	1.338937	-0.564533	0.757487
C128	C	1.281598	-0.497409	0.744995
H129	H	0.551158	-0.209014	0.780369
F130	F	1.223786	-0.496137	0.701539
H131	H	1.330485	-0.058668	0.516851
F132	F	1.189409	-0.478263	0.594043
H133	H	1.293184	0.173382	0.610282
F134	F	1.095373	0.509467	0.695961
F135	F	1.151264	-0.208567	0.325785
F136	F	0.514550	-0.078221	0.649579
H137	H	0.881572	0.174783	0.865805
F138	F	1.264498	-0.405603	0.295848
H139	H	0.635567	-0.202155	1.156782
H140	H	0.815609	0.110923	1.127883
H141	H	1.237366	-0.176051	0.391351
F142	F	0.851746	-0.114003	1.051318
H143	H	1.434516	-0.045073	0.404136
H144	H	1.434501	-0.500788	0.859883
H145	H	0.815584	0.276776	0.962098
F146	F	1.270083	0.040673	0.620274
H147	H	1.000330	0.190296	0.737085
H148	H	0.782600	0.244848	1.093138
H149	H	1.292976	-0.543930	0.348653
F150	F	0.621256	0.338135	0.630219
H151	H	1.439967	-0.620391	0.808488
H152	H	0.641008	0.201779	0.581920
H153	H	0.734135	-0.136658	1.163171
F154	F	1.189392	-0.289562	0.405388
H155	H	0.745050	-0.240421	0.924939
F156	F	1.264528	-0.594314	0.484481
H157	H	1.439990	-0.096959	0.285013
F158	F	0.924261	0.255440	0.770046
F159	F	0.886143	-0.009518	1.036401
F160	F	0.800929	0.396608	0.823446
F161	F	1.342166	-0.169597	0.262206
H162	H	0.782337	0.527544	0.831504
F163	F	0.805459	0.660233	0.821529
F164	F	1.151271	0.445473	0.671751
H165	H	1.330489	-0.379027	0.837219
F166	F	1.274589	0.304320	0.618341
F167	F	1.342155	-0.634695	0.727333
H168	H	1.075198	-0.168981	0.384313
H169	H	1.254423	-0.262180	0.194746
H170	H	1.255140	-0.262580	-0.052884
F171	F	0.980158	-0.119586	0.056877
F172	F	0.924257	-0.090522	0.116011
F173	F	1.313370	-0.292850	0.066612
F174	F	0.762161	-0.006228	0.375176
F175	F	0.805441	-0.028729	0.510482
F176	F	0.800939	-0.026389	0.246441
F177	F	0.627446	-0.263056	1.036776
H178	H	0.838185	0.197330	0.730041
F179	F	0.733440	0.335591	0.714488
H180	H	0.745014	0.079974	0.604563
