data_functionalizedCrystal
_audit_creation_method	'MofGen! by Chris Wilmer'
_symmetry_space_group_name_H-M	'P1'
_symmetry_Int_Tables_number	1
_symmetry_cell_setting	triclinic
loop_
_symmetry_equiv_pos_as_xyz
  x,y,z
_cell_length_a	14.044220
_cell_length_b	14.044220
_cell_length_c	12.503572
_cell_angle_alpha	86.156832
_cell_angle_beta	86.164750
_cell_angle_gamma	86.811122
loop_
_atom_site_label
_atom_site_type_symbol
_atom_site_fract_x
_atom_site_fract_y
_atom_site_fract_z
O1	O	1.282200	-0.225116	-0.089210
O2	O	1.005530	-0.216809	-0.089237
O3	O	1.139712	-0.082627	-0.089213
O4	O	1.148019	-0.359298	-0.089234
O5	O	1.129622	-0.092737	0.089427
O6	O	0.995440	-0.226918	0.089403
O7	O	1.272110	-0.235226	0.089430
Cu8	Cu	1.132854	-0.231995	0.105728
Cu9	Cu	1.144786	-0.220040	-0.105535
O10	O	1.137929	-0.369407	0.089406
C11	C	0.964864	-0.218228	0.000080
C12	C	0.858721	-0.207383	0.000070
C13	C	0.664382	-0.187558	0.000092
C14	C	0.613253	-0.264472	0.000091
C15	C	0.505116	-0.253441	0.000104
C16	C	0.772529	-0.198587	0.000080
C17	C	1.131031	-0.052060	0.000107
C18	C	1.120187	0.054082	0.000107
C19	C	1.312777	-0.233807	0.000111
C20	C	1.418920	-0.244651	0.000114
C21	C	1.146609	-0.399974	0.000084
C22	C	1.157454	-0.506117	0.000077
N23	N	1.124469	-0.240404	0.254319
C24	C	1.100361	0.248421	0.000090
C25	C	1.177275	0.299551	0.000094
C26	C	1.166244	0.407687	0.000084
C27	C	1.111391	0.140274	0.000099
N28	N	1.153179	-0.211624	-0.254126
C29	C	1.112134	-0.252782	0.473432
C30	C	1.165511	-0.199249	0.526768
C31	C	1.158648	-0.206136	0.648690
C32	C	1.118996	-0.245896	0.351499
H33	H	0.626945	-0.113431	0.000104
O34	O	1.051555	-0.313614	0.528350
C35	C	1.058098	-0.307024	0.639619
H36	H	1.130081	-0.278512	0.654837
H37	H	0.998156	-0.256416	0.671545
C38	C	0.960565	-0.441723	0.678790
C39	C	1.048980	-0.406712	0.697481
H40	H	0.954937	-0.503213	0.714484
H41	H	0.956154	-0.446161	0.603826
H42	H	0.910624	-0.399541	0.705394
H43	H	1.098919	-0.448887	0.670865
H44	H	1.053400	-0.402283	0.772442
H45	H	1.216364	-0.148245	0.480864
O46	O	0.657756	-0.352987	0.000117
C47	C	0.588921	-0.422332	0.000083
H48	H	0.517060	-0.391880	0.033922
H49	H	0.581941	-0.442853	-0.085624
C50	C	0.708489	-0.548897	0.028553
C51	C	0.620231	-0.511498	0.070123
H52	H	0.727804	-0.603901	0.071752
H53	H	0.754866	-0.502178	0.028572
H54	H	0.702661	-0.565990	-0.042869
H55	H	0.626063	-0.494394	0.141538
H56	H	0.573855	-0.558216	0.070118
H57	H	1.251413	0.262115	0.000029
H58	H	1.026234	0.285859	0.000080
