data_functionalizedCrystal
_audit_creation_method	'MofGen! by Chris Wilmer'
_symmetry_space_group_name_H-M	'P1'
_symmetry_Int_Tables_number	1
_symmetry_cell_setting	triclinic
loop_
_symmetry_equiv_pos_as_xyz
  x,y,z
_cell_length_a	12.759401
_cell_length_b	19.805405
_cell_length_c	12.759393
_cell_angle_alpha	90.033867
_cell_angle_beta	90.019676
_cell_angle_gamma	90.027152
loop_
_atom_site_label
_atom_site_type_symbol
_atom_site_fract_x
_atom_site_fract_y
_atom_site_fract_z
Zn1	Zn	1.606179	-0.269423	0.593960
Zn2	Zn	1.606033	-0.382625	0.418270
Zn3	Zn	1.430477	-0.269457	0.418299
Zn4	Zn	1.430432	-0.382576	0.593911
O5	O	1.518280	-0.326020	0.506110
O6	O	1.753180	-0.284446	0.570663
O7	O	1.582703	-0.367648	0.271253
O8	O	1.453864	-0.174735	0.441634
O9	O	1.753073	-0.367615	0.441584
O10	O	1.582951	-0.174711	0.570691
O11	O	1.453723	-0.284504	0.271274
O12	O	1.283450	-0.284456	0.441586
O13	O	1.453788	-0.367531	0.740939
O14	O	1.283417	-0.367564	0.570607
O15	O	1.582908	-0.284398	0.740975
O16	O	1.582659	-0.477335	0.441536
O17	O	1.453646	-0.477299	0.570579
C18	C	1.245313	-0.326009	0.506095
C19	C	1.128536	-0.326020	0.506114
C20	C	1.073731	-0.282792	0.573429
C21	C	0.964007	-0.282799	0.573436
C22	C	0.963903	-0.369268	0.438810
C23	C	1.073625	-0.369257	0.438798
C24	C	1.518161	-0.501876	0.506072
C25	C	1.518205	-0.577108	0.506091
C26	C	1.585381	-0.612381	0.573344
C27	C	1.585419	-0.683070	0.573363
C28	C	1.518286	-0.718484	0.506124
C29	C	1.451103	-0.683206	0.438868
C30	C	1.451060	-0.612519	0.438855
C31	C	1.451271	-0.968279	0.438922
C32	C	1.451321	-1.038971	0.438938
C33	C	1.585630	-1.038830	0.573431
C34	C	1.585588	-0.968143	0.573417
C35	C	1.518401	-0.932871	0.506166
C36	C	1.518360	-0.856223	0.506147
C37	C	1.518332	-0.795131	0.506137
C38	C	1.792313	-0.326032	0.506126
C39	C	1.909090	-0.326038	0.506132
C40	C	1.518359	-0.325955	0.780143
C41	C	1.518392	-0.325928	0.896920
C42	C	1.518429	-0.149477	0.506171
C43	C	1.518492	-0.074245	0.506197
C44	C	1.518262	-0.326036	0.233143
C45	C	1.518432	-0.325873	0.116367
C46	C	1.585630	-0.282633	0.951803
C47	C	1.585648	-0.282604	1.061527
C48	C	1.451187	-0.369169	1.061476
C49	C	1.451165	-0.369195	0.951754
H50	H	0.919182	-0.404470	0.384005
H51	H	1.396648	-1.067803	0.384182
H52	H	1.118436	-0.247583	0.628238
C53	C	0.904447	-0.235784	0.646351
C54	C	0.841474	-0.192346	0.586995
C55	C	0.786604	-0.149019	0.654130
H56	H	0.861564	-0.261638	0.692078
H57	H	0.952834	-0.209994	0.686420
H58	H	0.793093	-0.218133	0.546944
H59	H	0.884330	-0.166477	0.541271
H60	H	0.834991	-0.123229	0.694198
H61	H	0.743727	-0.174878	0.699853
H62	H	0.743878	-0.119537	0.613866
H63	H	1.640398	-0.247348	1.106207
H64	H	1.396455	-0.404397	1.106136
H65	H	1.118249	-0.404459	0.383977
C66	C	1.658401	-0.573900	0.646176
C67	C	1.725770	-0.533322	0.586744
C68	C	1.793058	-0.497873	0.653805
H69	H	1.618293	-0.546271	0.691934
H70	H	1.698472	-0.605014	0.686214
H71	H	1.685703	-0.502212	0.546723
H72	H	1.765901	-0.560934	0.540989
H73	H	1.833129	-0.528987	0.693844
H74	H	1.752941	-0.470248	0.699560
H75	H	1.838782	-0.470342	0.613490
H76	H	1.640334	-1.067557	0.628193
H77	H	1.396568	-0.939566	0.384161
C78	C	1.378121	-0.416278	0.892349
C79	C	1.319278	-0.454182	0.963851
C80	C	1.251991	-0.497564	0.909165
H81	H	1.332267	-0.390468	0.849545
H82	H	1.418256	-0.445817	0.849563
H83	H	1.279146	-0.424647	1.006619
H84	H	1.365104	-0.480006	1.006657
H85	H	1.292125	-0.527103	0.866380
H86	H	1.206143	-0.471749	0.866363
H87	H	1.212064	-0.523291	0.957671
H88	H	1.640129	-0.711786	0.628119
C89	C	1.658515	-0.929816	0.646537
C90	C	1.717334	-0.975837	0.705461
C91	C	1.784513	-0.940556	0.772844
H92	H	1.704389	-0.902230	0.606501
H93	H	1.618304	-0.902257	0.692328
H94	H	1.757542	-1.003384	0.659675
H95	H	1.671487	-1.003424	0.745518
H96	H	1.744302	-0.912998	0.818635
H97	H	1.830381	-0.912972	0.732799
H98	H	1.824423	-0.971776	0.812838
H99	H	1.396357	-0.583800	0.384092
C100	C	1.658479	-0.235539	0.892325
C101	C	1.635641	-0.168564	0.919019
C102	C	1.702717	-0.125159	0.864244
H103	H	1.729103	-0.245353	0.910270
H104	H	1.648832	-0.241707	0.819107
H105	H	1.645297	-0.162399	0.992221
H106	H	1.565029	-0.158730	0.901072
H107	H	1.693070	-0.131327	0.791025
H108	H	1.773337	-0.134979	0.882193
H109	H	1.687224	-0.079712	0.882341
C110	C	1.378329	-0.721775	0.365902
C111	C	1.392765	-0.791230	0.380284
C112	C	1.325756	-0.826779	0.313071
H113	H	1.307680	-0.710306	0.381146
H114	H	1.393747	-0.710251	0.295301
H115	H	1.377339	-0.802749	0.450869
H116	H	1.463400	-0.802719	0.365032
H117	H	1.341174	-0.815256	0.242470
H118	H	1.255111	-0.815305	0.328321
H119	H	1.335548	-0.873908	0.322813
