data_functionalizedCrystal
_audit_creation_method	'MofGen! by Chris Wilmer'
_symmetry_space_group_name_H-M	'P1'
_symmetry_Int_Tables_number	1
_symmetry_cell_setting	triclinic
loop_
_symmetry_equiv_pos_as_xyz
  x,y,z
_cell_length_a	17.640112
_cell_length_b	12.645330
_cell_length_c	17.640968
_cell_angle_alpha	101.228407
_cell_angle_beta	87.860920
_cell_angle_gamma	101.241872
loop_
_atom_site_label
_atom_site_type_symbol
_atom_site_fract_x
_atom_site_fract_y
_atom_site_fract_z
Zn1	Zn	1.247780	-0.030458	0.195081
Zn2	Zn	1.222027	-0.249165	0.068107
Zn3	Zn	1.095118	-0.099415	0.093730
Zn4	Zn	1.120767	-0.235211	0.220689
O5	O	1.171423	-0.153562	0.144402
O6	O	1.350632	-0.036452	0.156798
O7	O	1.183680	-0.263999	-0.034766
O8	O	1.115413	0.058093	0.107181
O9	O	1.331711	-0.197135	0.063511
O10	O	1.227573	0.108755	0.181643
O11	O	1.090440	-0.153978	-0.015941
O12	O	0.992252	-0.140447	0.132011
O13	O	1.159127	-0.173352	0.323563
O14	O	1.011096	-0.240216	0.225287
O15	O	1.252444	-0.022921	0.304750
O16	O	1.208550	-0.395675	0.088341
O17	O	1.134155	-0.385423	0.200442
C18	C	0.974120	-0.196301	0.184209
C19	C	0.889717	-0.214604	0.201257
C20	C	0.563040	-0.014493	0.014899
C21	C	0.483733	-0.031710	0.030928
C22	C	0.503375	-0.135841	0.127889
C23	C	0.582687	-0.118628	0.111870
C24	C	0.612512	-0.057954	0.055374
C25	C	0.632159	-0.162089	0.152345
C26	C	0.711463	-0.144883	0.136325
C27	C	0.741294	-0.084215	0.079830
C28	C	0.691816	-0.040748	0.039354
C29	C	0.602331	-0.222769	0.208838
C30	C	0.651804	-0.266231	0.249313
C31	C	0.731110	-0.249018	0.233297
C32	C	0.760941	-0.188350	0.176801
C33	C	0.780588	-0.292485	0.273773
C34	C	0.859892	-0.275278	0.257753
C35	C	0.840245	-0.171143	0.160781
C36	C	1.171365	-0.429008	0.144402
C37	C	1.171415	-0.546821	0.144414
C38	C	1.124892	-0.707868	0.215069
C39	C	1.124554	-0.585435	0.214940
C40	C	1.133571	-0.622203	0.068749
C41	C	1.133287	-0.744763	0.069178
C42	C	1.256009	-0.689787	0.148703
C43	C	1.255870	-0.566716	0.150553
C44	C	1.369496	-0.110658	0.104440
C45	C	1.453902	-0.092374	0.087410
C46	C	1.211520	-0.088888	0.342482
C47	C	1.228606	-0.061328	0.426892
C48	C	1.171505	0.122968	0.144414
C49	C	1.171539	0.240809	0.144419
C50	C	1.131526	-0.217899	-0.052917
C51	C	1.114586	-0.245129	-0.137356
C52	C	1.041907	-0.362295	0.753477
C53	C	1.057979	-0.336381	0.832790
C54	C	1.155141	-0.179751	0.813190
C55	C	1.139075	-0.205649	0.733875
C56	C	1.082458	-0.296923	0.704024
C57	C	1.179626	-0.140276	0.684422
C58	C	1.163563	-0.166176	0.605113
C59	C	1.106950	-0.257448	0.575256
C60	C	1.066395	-0.322822	0.624715
C61	C	1.236246	-0.049007	0.714273
C62	C	1.276797	0.016366	0.664821
C63	C	1.260731	-0.009529	0.585511
C64	C	1.204118	-0.100801	0.555654
C65	C	1.301286	0.055846	0.536052
C66	C	1.285224	0.029947	0.456742
C67	C	1.188056	-0.126700	0.476345
H68	H	0.443454	0.003695	-0.002031
Br69	Br	1.020724	-0.565584	0.212346
H70	H	1.063004	-0.755963	0.213607
Br71	Br	0.494701	-0.246143	0.230568
Br72	Br	1.340262	0.118661	0.389622
H73	H	0.479080	-0.185245	0.173886
H74	H	1.165754	-0.598780	0.015382
Br75	Br	1.167333	-0.719686	0.309798
Br76	Br	0.927037	-0.334268	0.312679
Br77	Br	0.880732	-0.088786	0.084114
H78	H	1.287369	-0.697644	0.202086
H79	H	1.071058	-0.791839	0.063665
Br80	Br	0.732303	0.041609	-0.037314
H81	H	1.150106	-0.532996	0.271552
H82	H	1.201241	-0.105438	0.837505
H83	H	1.347389	0.130155	0.560367
Br84	Br	1.030764	-0.601785	0.058829
Br85	Br	1.185987	-0.804104	-0.020100
H86	H	0.587328	0.034933	-0.031095
H87	H	0.995786	-0.436599	0.729175
H88	H	0.805869	-0.070209	0.066786
Br89	Br	1.319016	-0.520624	0.068891
Br90	Br	0.611316	-0.348591	0.325972
H91	H	1.290961	-0.723294	0.097049
Br92	Br	1.002938	-0.425111	0.899904
Br93	Br	0.740097	-0.374855	0.350426
H94	H	1.284115	-0.514821	0.206159
Br95	Br	1.111208	-0.250564	0.435828
Br96	Br	0.989548	-0.446686	0.584198
Br97	Br	1.258050	-0.013862	0.821908
Br98	Br	1.353636	0.140229	0.705338
H99	H	1.093876	-0.278537	0.510676
