data_functionalizedCrystal
_audit_creation_method	'MofGen! by Chris Wilmer'
_symmetry_space_group_name_H-M	'P1'
_symmetry_Int_Tables_number	1
_symmetry_cell_setting	triclinic
loop_
_symmetry_equiv_pos_as_xyz
  x,y,z
_cell_length_a	27.731993
_cell_length_b	13.930277
_cell_length_c	14.853567
_cell_angle_alpha	89.999243
_cell_angle_beta	83.127661
_cell_angle_gamma	90.004327
loop_
_atom_site_label
_atom_site_type_symbol
_atom_site_fract_x
_atom_site_fract_y
_atom_site_fract_z
O1	O	0.641447	-0.079565	0.107035
O2	O	1.141447	0.420435	0.607035
O3	O	0.500726	-0.079623	0.123397
O4	O	1.000726	0.420377	0.623397
O5	O	0.574845	-0.079595	-0.016076
O6	O	1.074845	0.420405	0.483924
O7	O	0.567328	-0.079593	0.246508
O8	O	1.067328	0.420407	0.746508
O9	O	0.574835	0.080067	-0.016079
O10	O	1.074835	0.580067	0.483921
O11	O	0.500716	0.080039	0.123394
O12	O	1.000716	0.580039	0.623394
O13	O	0.641437	0.080097	0.107032
O14	O	1.141437	0.580097	0.607032
Zn15	Zn	0.571075	0.105418	0.115213
Zn16	Zn	1.071075	0.605418	0.615213
Zn17	Zn	0.571088	-0.104944	0.115216
Zn18	Zn	1.071088	0.395056	0.615216
O19	O	0.567317	0.080069	0.246505
O20	O	1.067317	0.580069	0.746505
C21	C	0.482712	0.000201	0.123060
C22	C	0.982712	0.500201	0.623060
C23	C	0.429051	0.000179	0.122048
C24	C	0.929051	0.500179	0.622048
N25	N	0.571069	0.248984	0.115209
N26	N	1.071069	0.748984	0.615209
N27	N	0.571098	-0.248510	0.115212
N28	N	1.071098	0.251490	0.615212
C29	C	0.045862	-0.086807	0.114719
C30	C	0.545862	0.413193	0.614719
C31	C	0.247538	-0.086833	0.118574
C32	C	0.747538	0.413167	0.618574
O33	O	0.273618	-0.160851	0.119038
O34	O	0.773618	0.339149	0.619038
N35	N	0.272755	0.000197	0.119055
N36	N	0.772755	0.500197	0.619055
C37	C	0.247550	0.087239	0.118566
C38	C	0.747550	0.587239	0.618566
O39	O	0.273627	0.161263	0.119054
O40	O	0.773627	0.661263	0.619054
C41	C	0.045876	0.087264	0.114704
C42	C	0.545876	0.587264	0.614704
C43	C	0.020661	0.000229	0.114233
C44	C	0.520661	0.500229	0.614233
C45	C	0.020647	-0.173835	0.114246
C46	C	0.520647	0.326165	0.614246
C47	C	-0.029769	-0.173828	0.113288
C48	C	0.470231	0.326172	0.613288
C49	C	-0.054970	-0.086792	0.112802
C50	C	0.445030	0.413208	0.612802
C51	C	-0.029755	0.000236	0.113274
C52	C	0.470245	0.500236	0.613274
C53	C	0.020673	0.174306	0.114209
C54	C	0.520673	0.674306	0.614209
C55	C	-0.029749	0.174304	0.113241
C56	C	0.470251	0.674304	0.613241
C57	C	-0.054964	0.087269	0.112770
C58	C	0.445036	0.587269	0.612770
C59	C	-0.105373	0.087279	0.111829
C60	C	0.394627	0.587279	0.611829
N61	N	-0.130590	0.000250	0.111348
N62	N	0.369410	0.500250	0.611348
C63	C	-0.105388	-0.086786	0.111835
C64	C	0.394612	0.413214	0.611835
C65	C	0.353432	0.087220	0.120595
C66	C	0.853432	0.587220	0.620595
C67	C	0.403850	0.087214	0.121562
C68	C	0.903850	0.587214	0.621562
C69	C	0.403834	-0.086858	0.121568
C70	C	0.903834	0.413142	0.621568
C71	C	0.353415	-0.086851	0.120608
C72	C	0.853415	0.413149	0.620608
C73	C	0.328215	0.000191	0.120114
C74	C	0.828215	0.500191	0.620114
C75	C	-0.211266	-0.086764	0.109822
C76	C	0.288734	0.413236	0.609822
C77	C	-0.261687	-0.086749	0.108867
C78	C	0.238313	0.413251	0.608867
C79	C	-0.261666	0.087323	0.108856
C80	C	0.238334	0.587323	0.608856
C81	C	-0.211250	0.087309	0.109816
C82	C	0.288750	0.587309	0.609816
C83	C	-0.186051	0.000257	0.110296
C84	C	0.313949	0.500257	0.610296
O85	O	-0.131483	0.161260	0.111355
O86	O	0.368517	0.661260	0.611355
O87	O	-0.131472	-0.160798	0.111326
O88	O	0.368528	0.339202	0.611326
C89	C	0.096278	-0.086814	0.115678
C90	C	0.596278	0.413186	0.615678
C91	C	0.121493	0.000214	0.116150
C92	C	0.621493	0.500214	0.616150
C93	C	0.096292	0.087250	0.115664
C94	C	0.596292	0.587250	0.615664
C95	C	0.171911	0.000208	0.117117
C96	C	0.671911	0.500208	0.617117
C97	C	0.197113	-0.086827	0.117604
C98	C	0.697113	0.413173	0.617604
C99	C	0.171896	-0.173857	0.117123
C100	C	0.671896	0.326143	0.617123
C101	C	0.121480	-0.173850	0.116164
C102	C	0.621480	0.326150	0.616164
C103	C	0.121509	0.174280	0.116145
C104	C	0.621509	0.674280	0.616145
C105	C	0.171925	0.174265	0.117105
C106	C	0.671925	0.674265	0.617105
C107	C	0.197126	0.087230	0.117591
C108	C	0.697126	0.587230	0.617591
C109	C	0.659451	0.000271	0.107369
C110	C	1.159451	0.500271	0.607369
C111	C	0.713112	0.000287	0.108381
C112	C	1.213112	0.500287	0.608381
C113	C	0.574500	0.000233	-0.049661
C114	C	1.074500	0.500233	0.450339
C115	C	0.573479	0.000224	-0.149728
C116	C	1.073479	0.500224	0.350272
C117	C	0.538267	0.701241	0.176951
C118	C	1.038267	1.201241	0.676951
C119	C	0.603923	0.701234	0.053474
C120	C	1.103923	1.201234	0.553474
C121	C	0.603917	0.600739	0.053472
C122	C	1.103917	1.100739	0.553472
C123	C	0.571086	0.550489	0.115210
C124	C	1.071086	1.050489	0.615210
C125	C	0.538261	0.600736	0.176952
C126	C	1.038261	1.100736	0.676952
C127	C	0.636745	0.550485	-0.008263
C128	C	1.136745	1.050485	0.491737
C129	C	0.636741	0.449983	-0.008267
C130	C	1.136741	0.949983	0.491733
C131	C	0.603907	0.399732	0.053468
C132	C	1.103907	0.899732	0.553468
C133	C	0.571080	0.449984	0.115211
C134	C	1.071080	0.949984	0.615211
C135	C	0.538250	0.399735	0.176950
C136	C	1.038250	0.899735	0.676950
C137	C	0.505420	0.449986	0.238690
C138	C	1.005420	0.949986	0.738690
C139	C	0.505428	0.550485	0.238687
C140	C	1.005428	1.050485	0.738687
C141	C	0.603900	0.299233	0.053471
C142	C	1.103900	0.799233	0.553471
C143	C	0.538244	0.299230	0.176951
C144	C	1.038244	0.799230	0.676951
C145	C	0.525136	0.000222	-0.561457
C146	C	1.025136	0.500222	-0.061457
C147	C	0.613191	0.000258	-0.584203
C148	C	1.113191	0.500258	-0.084203
C149	C	0.614151	0.000253	-0.490185
C150	C	1.114151	0.500253	0.009815
C151	C	0.570602	0.000234	-0.431799
C152	C	1.070602	0.500234	0.068201
C153	C	0.526094	0.000220	-0.467431
C154	C	1.026094	0.500220	0.032569
C155	C	0.658658	0.000277	-0.454546
C156	C	1.158658	0.500277	0.045454
C157	C	0.659620	0.000272	-0.360523
C158	C	1.159620	0.500272	0.139477
C159	C	0.616071	0.000246	-0.302135
C160	C	1.116071	0.500246	0.197865
C161	C	0.571561	0.000232	-0.337772
C162	C	1.071561	0.500232	0.162228
C163	C	0.528012	0.000212	-0.279386
C164	C	1.028012	0.500212	0.220614
C165	C	0.483502	0.000191	-0.315021
C166	C	0.983502	0.500191	0.184979
C167	C	0.482545	0.000194	-0.409043
C168	C	0.982545	0.500194	0.090957
C169	C	0.617027	0.000243	-0.208114
C170	C	1.117027	0.500243	0.291886
C171	C	0.528971	0.000210	-0.185359
C172	C	1.028971	0.500210	0.314641
C173	C	0.567663	0.000239	0.280090
C174	C	1.067663	0.500239	0.780090
C175	C	0.568684	0.000242	0.380156
C176	C	1.068684	0.500242	0.880156
H177	H	-0.190755	-0.157649	0.110214
H178	H	0.309245	0.342351	0.610214
H179	H	0.653267	0.000267	-0.179104
H180	H	1.153267	0.500267	0.320896
H181	H	-0.050294	-0.244701	0.112900
H182	H	0.449706	0.255299	0.612900
H183	H	-0.282195	0.158185	0.108464
H184	H	0.217805	0.658185	0.608464
C185	C	0.687945	0.082365	-0.632536
C186	C	1.187945	0.582365	-0.132536
C187	C	0.661058	0.000281	-0.648377
C188	C	1.161058	0.500281	-0.148377
H189	H	0.717496	0.082378	-0.672162
H190	H	1.217496	0.582378	-0.172162
H191	H	0.694884	0.082355	-0.571448
H192	H	1.194884	0.582355	-0.071448
H193	H	0.669690	0.138031	-0.643272
H194	H	1.169690	0.638031	-0.143272
H195	H	0.679311	-0.055386	-0.637635
H196	H	1.179311	0.444614	-0.137635
H197	H	0.654120	0.000282	-0.709480
H198	H	1.154120	0.500282	-0.209480
C199	C	-0.313010	-0.187739	0.030270
C200	C	0.186990	0.312261	0.530270
C201	C	-0.289404	-0.182423	0.108346
C202	C	0.210596	0.317577	0.608346
H203	H	-0.330122	-0.246800	0.029953
H204	H	0.169878	0.253200	0.529953
H205	H	-0.289689	-0.184128	-0.021938
H206	H	0.210311	0.315872	0.478062
H207	H	-0.335236	-0.135900	0.029855
H208	H	0.164764	0.364100	0.529855
H209	H	-0.267175	-0.234258	0.108758
H210	H	0.232825	0.265742	0.608758
H211	H	-0.312728	-0.186043	0.160568
H212	H	0.187272	0.313957	0.660568
H213	H	0.041161	-0.244714	0.114639
H214	H	0.541161	0.255286	0.614639
C215	C	0.408735	0.082234	-0.266669
C216	C	0.908735	0.582234	0.233331
C217	C	0.435634	0.000171	-0.250836
C218	C	0.935634	0.500171	0.249164
H219	H	0.379186	0.082223	-0.227037
H220	H	0.879186	0.582223	0.272963
H221	H	0.401792	0.082220	-0.327754
H222	H	0.901792	0.582220	0.172246
H223	H	0.426984	0.137915	-0.255936
H224	H	0.926984	0.637915	0.244064
H225	H	0.417387	-0.055510	-0.261575
H226	H	0.917387	0.444490	0.238425
H227	H	0.442576	0.000176	-0.189736
H228	H	0.942576	0.500176	0.310264
C229	C	0.291323	-0.187838	0.197056
C230	C	0.791323	0.312162	0.697056
C231	C	0.325701	-0.182522	0.120084
C232	C	0.825701	0.317478	0.620084
H233	H	0.274219	-0.246907	0.196732
H234	H	0.774219	0.253093	0.696732
H235	H	0.269097	-0.136013	0.196617
H236	H	0.769097	0.363987	0.696617
H237	H	0.307341	-0.184214	0.250019
H238	H	0.807341	0.315786	0.750019
H239	H	0.309683	-0.186139	0.067120
H240	H	0.809683	0.313861	0.567120
H241	H	0.347930	-0.234361	0.120514
H242	H	0.847930	0.265639	0.620514
C243	C	0.472504	0.814261	0.197380
C244	C	0.972504	1.314261	0.697380
C245	C	0.502183	0.756475	0.244813
C246	C	1.002183	1.256475	0.744813
H247	H	0.450229	0.848364	0.239276
H248	H	0.950229	1.348364	0.739276
H249	H	0.455093	0.775053	0.160092
H250	H	0.955093	1.275053	0.660092
H251	H	0.492062	0.858566	0.160613
H252	H	0.992062	1.358566	0.660613
H253	H	0.482625	0.712164	0.281574
H254	H	0.982625	1.212164	0.781574
H255	H	0.519595	0.795686	0.282116
H256	H	1.019595	1.295686	0.782116
C257	C	0.647149	0.663505	-0.131088
C258	C	1.147149	1.163505	0.368912
C259	C	0.672827	0.605727	-0.076123
C260	C	1.172827	1.105727	0.423877
H261	H	0.669425	0.697610	-0.172987
H262	H	1.169425	1.197610	0.327013
H263	H	0.627601	0.707801	-0.094315
H264	H	1.127601	1.207801	0.405685
H265	H	0.627012	0.624284	-0.163251
H266	H	1.127012	1.124284	0.336749
H267	H	0.692961	0.644949	-0.043955
H268	H	1.192961	1.144949	0.456045
H269	H	0.692383	0.561426	-0.112900
H270	H	1.192383	1.061426	0.387100
C271	C	0.424766	0.235576	0.044321
C272	C	0.924766	0.735576	0.544321
C273	C	0.431563	0.182885	0.122088
C274	C	0.931563	0.682885	0.622088
H275	H	0.441876	0.294638	0.044641
H276	H	0.941876	0.794638	0.544641
H277	H	0.391134	0.248026	0.043685
H278	H	0.891134	0.748026	0.543685
H279	H	0.436685	0.199801	-0.008103
H280	H	0.936685	0.699801	0.491897
H281	H	0.419640	0.218658	0.174512
H282	H	0.919640	0.718658	0.674512
H283	H	0.465201	0.170438	0.122733
H284	H	0.965201	0.670438	0.622733
H285	H	0.446307	0.000177	-0.438066
H286	H	0.946307	0.500177	0.061934
C287	C	0.302142	0.188240	0.041965
C288	C	0.802142	0.688240	0.541965
C289	C	0.325739	0.182909	0.120052
C290	C	0.825739	0.682909	0.620052
H291	H	0.285051	0.247318	0.041630
H292	H	0.785051	0.747318	0.541630
H293	H	0.279904	0.136427	0.041548
H294	H	0.779904	0.636427	0.541548
H295	H	0.325472	0.184605	-0.010241
H296	H	0.825472	0.684605	0.489759
H297	H	0.302409	0.186537	0.172258
H298	H	0.802409	0.686537	0.672258
H299	H	0.347979	0.234736	0.120477
H300	H	0.847979	0.734736	0.620477
C301	C	0.015604	0.346362	0.114077
C302	C	0.515604	0.846362	0.614077
C303	C	0.048381	0.269980	0.114719
C304	C	0.548381	0.769980	0.614719
H305	H	0.032711	0.405430	0.114385
H306	H	0.532711	0.905430	0.614385
H307	H	-0.007712	0.342747	0.166293
H308	H	0.492288	0.842747	0.666293
H309	H	-0.000409	0.342718	0.061109
H310	H	0.499591	0.842718	0.561109
H311	H	0.064391	0.273620	0.167691
H312	H	0.564391	0.773620	0.667691
H313	H	0.071706	0.273597	0.062498
H314	H	0.571706	0.773597	0.562498
C315	C	0.733422	-0.081764	-0.502887
C316	C	1.233422	0.418236	-0.002887
C317	C	0.706524	0.000297	-0.518725
C318	C	1.206524	0.500297	-0.018725
H319	H	0.762974	-0.081748	-0.542510
H320	H	1.262974	0.418252	-0.042510
H321	H	0.715178	-0.137440	-0.513621
H322	H	1.215178	0.362560	-0.013621
H323	H	0.740363	-0.081747	-0.441791
H324	H	1.240363	0.418253	0.058209
H325	H	0.699580	0.000277	-0.579819
H326	H	1.199580	0.500277	-0.079819
H327	H	0.724771	0.055987	-0.507998
H328	H	1.224771	0.555987	-0.007998
C329	C	-0.081049	0.275305	0.034618
C330	C	0.418951	0.775305	0.534618
C331	C	-0.057447	0.269987	0.112699
C332	C	0.442553	0.769987	0.612699
H333	H	-0.098145	0.334378	0.034284
H334	H	0.401855	0.834378	0.534284
H335	H	-0.103283	0.223485	0.034207
H336	H	0.396717	0.723485	0.534207
H337	H	-0.057722	0.271674	-0.017592
H338	H	0.442278	0.771674	0.482408
H339	H	-0.080775	0.273610	0.164910
H340	H	0.419225	0.773610	0.664910
H341	H	-0.035211	0.321821	0.113119
H342	H	0.464789	0.821821	0.613119
H343	H	0.695863	0.000289	-0.331518
H344	H	1.195863	0.500289	0.168482
C345	C	0.484562	0.000208	-0.695478
C346	C	0.984562	0.500208	-0.195478
C347	C	0.476211	0.000203	-0.600622
C348	C	0.976211	0.500203	-0.100622
H349	H	0.454357	0.000203	-0.719655
H350	H	0.954357	0.500203	-0.219655
H351	H	0.502494	-0.055460	-0.715555
H352	H	1.002494	0.444540	-0.215555
H353	H	0.502492	0.055896	-0.715553
H354	H	1.002492	0.555896	-0.215553
H355	H	0.458284	-0.055489	-0.580547
H356	H	0.958284	0.444511	-0.080547
H357	H	0.458271	0.055877	-0.580537
H358	H	0.958271	0.555877	-0.080537
C359	C	0.421777	0.419032	0.292741
C360	C	0.921777	0.919032	0.792741
C361	C	0.469333	0.394748	0.306556
C362	C	0.969333	0.894748	0.806556
H363	H	0.399501	0.384931	0.334642
H364	H	0.899501	0.884931	0.834642
H365	H	0.416493	0.402556	0.232649
H366	H	0.916493	0.902556	0.732649
H367	H	0.417084	0.486077	0.301579
H368	H	0.917084	0.986077	0.801579
H369	H	0.474028	0.327703	0.297711
H370	H	0.974028	0.827703	0.797711
H371	H	0.474619	0.411217	0.366663
H372	H	0.974619	0.911217	0.866663
H373	H	0.424361	-0.157726	0.121967
H374	H	0.924361	0.342274	0.621967
C375	C	0.439673	0.663524	0.259120
C376	C	0.939673	1.163524	0.759120
C377	C	0.469348	0.605727	0.306550
C378	C	0.969348	1.105727	0.806550
H379	H	0.417403	0.697636	0.301017
H380	H	0.917403	1.197636	0.801017
H381	H	0.422257	0.624323	0.221835
H382	H	0.922257	1.124323	0.721835
H383	H	0.459234	0.707823	0.222351
H384	H	0.959234	1.207823	0.722351
H385	H	0.449787	0.561424	0.343314
H386	H	0.949787	1.061424	0.843314
H387	H	0.486765	0.644932	0.343851
H388	H	0.986765	1.144932	0.843851
C389	C	0.701638	0.460082	-0.130327
C390	C	1.201638	0.960082	0.369673
C391	C	0.672821	0.394752	-0.076137
C392	C	1.172821	0.894752	0.423863
H393	H	0.723909	0.425982	-0.172232
H394	H	1.223909	0.925982	0.327768
H395	H	0.719052	0.499271	-0.093029
H396	H	1.219052	0.999271	0.406971
H397	H	0.681494	0.499290	-0.162484
H398	H	1.181494	0.999290	0.337516
H399	H	0.692965	0.355549	-0.043976
H400	H	1.192965	0.855549	0.456024
H401	H	0.655406	0.355547	-0.113440
H402	H	1.155406	0.855547	0.386560
H403	H	0.100954	-0.244723	0.115780
H404	H	0.600954	0.255277	0.615780
H405	H	0.630655	0.742151	0.003213
H406	H	1.130655	1.242151	0.503213
C407	C	-0.216301	0.259372	0.109705
C408	C	0.283699	0.759372	0.609705
C409	C	-0.183531	0.182978	0.110334
C410	C	0.316469	0.682978	0.610334
H411	H	-0.199189	0.318434	0.110011
H412	H	0.300811	0.818434	0.610011
H413	H	-0.239615	0.255761	0.161925
H414	H	0.260385	0.755761	0.661925
H415	H	-0.232319	0.255738	0.056741
H416	H	0.267681	0.755738	0.556741
H417	H	-0.167516	0.186608	0.163301
H418	H	0.332484	0.686608	0.663301
H419	H	-0.160209	0.186591	0.058108
H420	H	0.339791	0.686591	0.558108
H421	H	0.192423	-0.244725	0.117524
H422	H	0.692423	0.255275	0.617524
C423	C	0.166865	0.346333	0.116985
C424	C	0.666865	0.846333	0.616985
C425	C	0.199638	0.269944	0.117620
C426	C	0.699638	0.769944	0.617620
H427	H	0.183974	0.405398	0.117291
H428	H	0.683974	0.905398	0.617291
H429	H	0.143550	0.342720	0.169203
H430	H	0.643550	0.842720	0.669203
H431	H	0.150850	0.342693	0.064019
H432	H	0.650850	0.842693	0.564019
H433	H	0.215651	0.273580	0.170590
H434	H	0.715651	0.773580	0.670590
H435	H	0.222962	0.273559	0.065397
H436	H	0.722962	0.773559	0.565397
C437	C	0.669672	0.186240	0.033077
C438	C	1.169672	0.686240	0.533077
C439	C	0.639996	0.244012	-0.014373
C440	C	1.139996	0.744012	0.485627
H441	H	0.691963	0.152159	-0.008808
H442	H	1.191963	0.652159	0.491192
H443	H	0.650118	0.141923	0.069821
H444	H	1.150118	0.641923	0.569821
H445	H	0.687069	0.225462	0.070390
H446	H	1.187069	0.725462	0.570390
H447	H	0.622596	0.204789	-0.051681
H448	H	1.122596	0.704789	0.448319
H449	H	0.659552	0.288334	-0.051132
H450	H	1.159552	0.788334	0.448868
C451	C	0.509958	0.268292	0.333401
C452	C	1.009958	0.768292	0.833401
C453	C	0.502156	0.243998	0.244820
C454	C	1.002156	0.743998	0.744820
H455	H	0.487681	0.234189	0.375298
H456	H	0.987681	0.734189	0.875298
H457	H	0.505261	0.335329	0.342226
H458	H	1.005261	0.835329	0.842226
H459	H	0.542223	0.251817	0.342756
H460	H	1.042223	0.751817	0.842756
H461	H	0.469891	0.260480	0.235462
H462	H	0.969891	0.760480	0.735462
H463	H	0.506849	0.176946	0.235991
H464	H	1.006849	0.676946	0.735991
C465	C	0.454215	-0.081900	-0.137026
C466	C	0.954215	0.418100	0.362974
C467	C	0.481099	0.000188	-0.121185
C468	C	0.981099	0.500188	0.378815
H469	H	0.424661	-0.081908	-0.097411
H470	H	0.924661	0.418092	0.402589
H471	H	0.472467	-0.137557	-0.126284
H472	H	0.972467	0.362443	0.373716
H473	H	0.447280	-0.081894	-0.198125
H474	H	0.947280	0.418106	0.301875
H475	H	0.488038	0.000179	-0.060088
H476	H	0.988038	0.500179	0.439912
H477	H	0.462844	0.055860	-0.131920
H478	H	0.962844	0.555860	0.368080
H479	H	0.100996	0.245156	0.115745
H480	H	0.600996	0.745156	0.615745
