data_functionalizedCrystal
_audit_creation_method	'MofGen! by Chris Wilmer'
_symmetry_space_group_name_H-M	'P1'
_symmetry_Int_Tables_number	1
_symmetry_cell_setting	triclinic
loop_
_symmetry_equiv_pos_as_xyz
  x,y,z
_cell_length_a	25.639242
_cell_length_b	25.639239
_cell_length_c	13.897441
_cell_angle_alpha	89.966666
_cell_angle_beta	89.972063
_cell_angle_gamma	90.033587
loop_
_atom_site_label
_atom_site_type_symbol
_atom_site_fract_x
_atom_site_fract_y
_atom_site_fract_z
Zn1	Zn	0.799258	-0.208210	-0.545597
Zn2	Zn	0.799172	-0.295651	-0.384287
Zn3	Zn	0.711824	-0.208224	-0.384289
Zn4	Zn	0.711779	-0.295609	-0.545514
O5	O	0.755508	-0.251923	-0.464922
O6	O	0.872412	-0.219822	-0.524233
O7	O	0.787568	-0.284077	-0.249306
O8	O	0.723478	-0.135057	-0.405722
O9	O	0.872348	-0.284064	-0.405720
O10	O	0.787715	-0.135047	-0.524234
O11	O	0.723394	-0.219845	-0.249307
O12	O	0.638653	-0.219804	-0.405641
O13	O	0.723401	-0.283992	-0.680507
O14	O	0.638620	-0.284005	-0.524093
O15	O	0.787671	-0.219780	-0.680567
O16	O	0.787524	-0.368811	-0.405639
O17	O	0.723317	-0.368780	-0.524092
C18	C	0.619666	-0.251901	-0.464859
C19	C	0.561552	-0.251905	-0.464855
C20	C	0.310367	-0.218438	-0.403351
C21	C	0.364971	-0.218433	-0.403338
O22	O	0.393215	-0.189948	-0.350991
N23	N	0.392278	-0.251911	-0.464903
C24	C	0.364977	-0.285392	-0.526492
O25	O	0.393218	-0.313867	-0.578857
C26	C	0.310374	-0.285394	-0.526508
C27	C	0.283070	-0.251918	-0.464932
C28	C	0.283063	-0.184964	-0.341780
C29	C	0.228462	-0.184970	-0.341792
C30	C	0.201166	-0.218449	-0.403373
C31	C	0.228470	-0.251923	-0.464943
C32	C	0.283075	-0.318872	-0.588100
C33	C	0.228468	-0.318871	-0.588112
C34	C	0.201164	-0.285394	-0.526536
C35	C	0.146573	-0.285409	-0.526536
N36	N	0.119266	-0.251931	-0.464971
C37	C	0.146562	-0.218451	-0.403390
C38	C	0.479648	-0.285385	-0.526454
C39	C	0.534250	-0.285386	-0.526433
C40	C	0.534240	-0.218427	-0.403281
C41	C	0.479637	-0.218428	-0.403297
C42	C	0.452341	-0.251907	-0.464889
C43	C	0.031897	-0.218466	-0.403417
C44	C	-0.022708	-0.218476	-0.403431
C45	C	-0.022693	-0.285434	-0.526586
C46	C	0.031907	-0.285426	-0.526569
C47	C	0.059201	-0.251938	-0.464982
O48	O	0.118294	-0.313878	-0.578859
O49	O	0.118315	-0.189977	-0.351042
C50	C	0.755420	-0.387766	-0.464877
C51	C	0.755431	-0.445880	-0.464891
C52	C	0.789028	-0.806247	-0.403349
C53	C	0.789048	-0.860851	-0.403362
O54	O	0.817523	-0.889091	-0.350988
N55	N	0.755600	-0.888163	-0.464986
C56	C	0.722133	-0.860867	-0.526608
O57	O	0.693685	-0.889111	-0.579025
C58	C	0.722116	-0.806263	-0.526599
C59	C	0.755563	-0.778955	-0.464964
C60	C	0.822472	-0.778938	-0.341720
C61	C	0.822451	-0.724338	-0.341706
C62	C	0.788986	-0.697046	-0.403321
C63	C	0.755542	-0.724354	-0.464950
C64	C	0.688652	-0.778969	-0.588225
C65	C	0.688638	-0.724362	-0.588212
C66	C	0.722085	-0.697053	-0.526577
C67	C	0.722055	-0.642462	-0.526551
N68	N	0.755503	-0.615151	-0.464927
C69	C	0.788969	-0.642442	-0.403312
C70	C	0.722173	-0.975537	-0.526623
C71	C	0.722187	-1.030140	-0.526627
C72	C	0.789103	-1.030120	-0.403382
C73	C	0.789086	-0.975517	-0.403373
C74	C	0.755621	-0.948226	-0.464999
C75	C	0.788922	-0.527777	-0.403287
C76	C	0.788896	-0.473172	-0.403276
C77	C	0.721982	-0.473196	-0.526524
C78	C	0.722006	-0.527797	-0.526532
C79	C	0.755480	-0.555086	-0.464910
O80	O	0.693597	-0.614187	-0.578901
O81	O	0.817417	-0.614191	-0.350912
C82	C	0.891881	-0.251946	-0.464985
C83	C	0.949995	-0.251956	-0.465012
C84	C	0.755540	-0.251880	-0.716515
C85	C	0.755554	-0.251861	-0.823729
C86	C	0.755611	-0.115550	-0.464987
C87	C	0.755655	-0.057436	-0.465015
C88	C	0.755565	-0.251846	-0.910799
C89	C	0.755580	-0.251823	-1.020031
C90	C	0.755507	-0.251929	-0.214307
C91	C	0.755594	-0.251801	-0.107094
H92	H	-0.044928	-0.312694	-0.576721
C93	C	0.825270	-0.443618	-0.336319
C94	C	0.854591	-0.479210	-0.282385
C95	C	0.888108	-0.452006	-0.220708
H96	H	0.805334	-0.422351	-0.294159
H97	H	0.848060	-0.422292	-0.373235
H98	H	0.831804	-0.500527	-0.245472
H99	H	0.874537	-0.500478	-0.324520
H100	H	0.910898	-0.430681	-0.257624
H101	H	0.868168	-0.430740	-0.178554
H102	H	0.908010	-0.476152	-0.184112
C103	C	0.858800	-0.694625	-0.274952
C104	C	0.892276	-0.663217	-0.329627
C105	C	0.925765	-0.635836	-0.268166
H106	H	0.878782	-0.718644	-0.238242
H107	H	0.838824	-0.673327	-0.232890
H108	H	0.912250	-0.684513	-0.371673
H109	H	0.872308	-0.639188	-0.366336
H110	H	0.905789	-0.614539	-0.226104
H111	H	0.945744	-0.659860	-0.231459
H112	H	0.948480	-0.614520	-0.305254
C113	C	0.652272	-0.694667	-0.654965
C114	C	0.618771	-0.663362	-0.600286
C115	C	0.585268	-0.635997	-0.661745
H116	H	0.632309	-0.718696	-0.691691
H117	H	0.672238	-0.673301	-0.697014
H118	H	0.598808	-0.684726	-0.558255
H119	H	0.638720	-0.639324	-0.563563
H120	H	0.605233	-0.614631	-0.703793
H121	H	0.565308	-0.660029	-0.698468
H122	H	0.562536	-0.614750	-0.624655
C123	C	0.825432	-0.945804	-0.336616
C124	C	0.858912	-0.914398	-0.391287
C125	C	0.892399	-0.887017	-0.329822
H126	H	0.845412	-0.969823	-0.299902
H127	H	0.805454	-0.924505	-0.294558
H128	H	0.878888	-0.935694	-0.433328
H129	H	0.838946	-0.890369	-0.428000
H130	H	0.872421	-0.865718	-0.287764
H131	H	0.912375	-0.911040	-0.293110
H132	H	0.915115	-0.865701	-0.366907
C133	C	0.312774	-0.355130	-0.655024
C134	C	0.344164	-0.325562	-0.716926
C135	C	0.371534	-0.358946	-0.778589
H136	H	0.288748	-0.375074	-0.691791
H137	H	0.334083	-0.377883	-0.618088
H138	H	0.322857	-0.302818	-0.753858
H139	H	0.368200	-0.305619	-0.680185
H140	H	0.392843	-0.381699	-0.741653
H141	H	0.347504	-0.378888	-0.815350
H142	H	0.392839	-0.338890	-0.820591
H143	H	0.816180	-0.549990	-0.353111
C144	C	0.685890	-1.059880	-0.593435
C145	C	0.693056	-1.113542	-0.580253
C146	C	0.659625	-1.140952	-0.641778
H147	H	0.693486	-1.050959	-0.658295
H148	H	0.650751	-1.050999	-0.579237
H149	H	0.728188	-1.122419	-0.594458
H150	H	0.685456	-1.122479	-0.515406
H151	H	0.624486	-1.132071	-0.627580
H152	H	0.667224	-1.132027	-0.706634
H153	H	0.664480	-1.177365	-0.632836
C154	C	-0.052424	-0.182107	-0.336723
C155	C	-0.083754	-0.148642	-0.391441
C156	C	-0.111141	-0.115141	-0.330021
H157	H	-0.028408	-0.162116	-0.300018
H158	H	-0.073774	-0.202075	-0.294653
H159	H	-0.062405	-0.128676	-0.433493
H160	H	-0.107779	-0.168618	-0.428144
H161	H	-0.132491	-0.135110	-0.287952
H162	H	-0.087121	-0.095155	-0.293320
H163	H	-0.132405	-0.092435	-0.367138
H164	H	0.054114	-0.191194	-0.353271
C165	C	0.825378	-1.059753	-0.336364
C166	C	0.814036	-1.046559	-0.240875
C167	C	0.847435	-1.073862	-0.179131
H168	H	0.860520	-1.050797	-0.350434
H169	H	0.820579	-1.096184	-0.345175
H170	H	0.818839	-1.010136	-0.232068
H171	H	0.778900	-1.055516	-0.226775
H172	H	0.842636	-1.110293	-0.187942
H173	H	0.882575	-1.064904	-0.193210
H174	H	0.839741	-1.064918	-0.114335
H175	H	0.694773	-0.550033	-0.576723
H176	H	0.556477	-0.312652	-0.576564
H177	H	0.694918	-0.953320	-0.576802
H178	H	0.206246	-0.346132	-0.638272
H179	H	0.457410	-0.191167	-0.353160
C180	C	0.858743	-0.808651	-0.274824
C181	C	0.829198	-0.840079	-0.212953
C182	C	0.862601	-0.867467	-0.151345
H183	H	0.878687	-0.784636	-0.238031
H184	H	0.881497	-0.829935	-0.311800
H185	H	0.806453	-0.818797	-0.175981
H186	H	0.809255	-0.864104	-0.249719
H187	H	0.885355	-0.888751	-0.188321
H188	H	0.882543	-0.843448	-0.114559
H189	H	0.842559	-0.888798	-0.109364
H190	H	0.206236	-0.157710	-0.291650
H191	H	0.457427	-0.312652	-0.576607
H192	H	0.661414	-0.801194	-0.638410
H193	H	0.694734	-0.450967	-0.576687
H194	H	0.556475	-0.191165	-0.353140
C195	C	0.312599	-0.148593	-0.274805
C196	C	0.276990	-0.119293	-0.220880
C197	C	0.304174	-0.085788	-0.159152
H198	H	0.333929	-0.125785	-0.311653
H199	H	0.333860	-0.168553	-0.232647
H200	H	0.255737	-0.099334	-0.263032
H201	H	0.255659	-0.142087	-0.184012
H202	H	0.325436	-0.105748	-0.116994
H203	H	0.325503	-0.062984	-0.196008
H204	H	0.280018	-0.065908	-0.122551
C205	C	0.061461	-0.321792	-0.593525
C206	C	0.025865	-0.351105	-0.647471
C207	C	0.053066	-0.384602	-0.709178
H208	H	0.082744	-0.344592	-0.556660
H209	H	0.082770	-0.301826	-0.635670
H210	H	0.004565	-0.371069	-0.605332
H211	H	0.004581	-0.328318	-0.684355
H212	H	0.074375	-0.364636	-0.751323
H213	H	0.074349	-0.407399	-0.672306
H214	H	0.028919	-0.404491	-0.745795
