data_functionalizedCrystal
_audit_creation_method	'MofGen! by Chris Wilmer'
_symmetry_space_group_name_H-M	'P1'
_symmetry_Int_Tables_number	1
_symmetry_cell_setting	triclinic
loop_
_symmetry_equiv_pos_as_xyz
  x,y,z
_cell_length_a	19.288840
_cell_length_b	16.992695
_cell_length_c	17.766277
_cell_angle_alpha	89.993690
_cell_angle_beta	89.983415
_cell_angle_gamma	86.897119
loop_
_atom_site_label
_atom_site_type_symbol
_atom_site_fract_x
_atom_site_fract_y
_atom_site_fract_z
O1	O	0.927058	0.097701	-0.062722
O2	O	1.260392	0.431035	0.270612
O3	O	1.593725	0.764368	0.603945
O4	O	0.725565	0.110914	-0.062696
O5	O	1.058899	0.444247	0.270638
O6	O	1.392232	0.777581	0.603971
O7	O	0.825504	-0.009832	-0.062703
O8	O	1.158837	0.323501	0.270631
O9	O	1.492171	0.656835	0.603964
O10	O	0.827120	0.218447	-0.062715
O11	O	1.160453	0.551781	0.270619
O12	O	1.493786	0.885114	0.603952
O13	O	0.825485	-0.009838	0.062486
O14	O	1.158818	0.323495	0.395819
O15	O	1.492152	0.656828	0.729153
O16	O	0.725546	0.110908	0.062493
O17	O	1.058879	0.444241	0.395826
O18	O	1.392213	0.777575	0.729159
O19	O	0.927039	0.097695	0.062467
O20	O	1.260373	0.431028	0.395800
O21	O	1.593706	0.764362	0.729134
Cu22	Cu	0.826291	0.104301	0.073911
Cu23	Cu	1.159624	0.437634	0.407244
Cu24	Cu	1.492958	0.770968	0.740577
Cu25	Cu	0.826314	0.104308	-0.074139
Cu26	Cu	1.159647	0.437642	0.259194
Cu27	Cu	1.492980	0.770975	0.592527
O28	O	0.827100	0.218441	0.062474
O29	O	1.160434	0.551775	0.395807
O30	O	1.493767	0.885108	0.729140
C31	C	0.699654	0.110489	-0.000098
C32	C	1.032988	0.443822	0.333235
C33	C	1.366321	0.777156	0.666569
C34	C	0.622476	0.109223	-0.000088
C35	C	0.955809	0.442556	0.333245
C36	C	1.289143	0.775889	0.666579
C37	C	0.586247	0.108618	-0.068330
C38	C	0.919581	0.441951	0.265003
C39	C	1.252914	0.775284	0.598337
C40	C	0.513731	0.107419	-0.068339
C41	C	0.847064	0.440752	0.264994
C42	C	1.180397	0.774086	0.598327
C43	C	0.477446	0.106810	-0.000102
C44	C	0.810780	0.440143	0.333231
C45	C	1.144113	0.773476	0.666564
C46	C	0.513683	0.107419	0.068149
C47	C	0.847017	0.440753	0.401482
C48	C	1.180350	0.774086	0.734815
C49	C	0.586198	0.108626	0.068156
C50	C	0.919532	0.441959	0.401489
C51	C	1.252865	0.775292	0.734823
C52	C	0.365323	0.058978	0.052169
C53	C	0.698656	0.392311	0.385502
C54	C	1.031990	0.725645	0.718835
C55	C	0.292810	0.057767	0.052159
C56	C	0.626143	0.391100	0.385492
C57	C	0.959476	0.724433	0.718825
C58	C	0.253786	0.103092	-0.000122
C59	C	0.587119	0.436425	0.333212
C60	C	0.920453	0.769759	0.666545
C61	C	0.287285	0.149618	-0.052405
C62	C	0.620618	0.482952	0.280928
C63	C	0.953952	0.816285	0.614262
C64	C	0.359800	0.150825	-0.052398
C65	C	0.693133	0.484158	0.280936
C66	C	1.026466	0.817492	0.614269
C67	C	0.398816	0.105502	-0.000103
C68	C	0.732149	0.438835	0.333231
C69	C	1.065483	0.772169	0.666564
C70	C	0.138926	0.101188	-0.068379
C71	C	0.472260	0.434522	0.264955
C72	C	0.805593	0.767855	0.598288
C73	C	0.066408	0.099994	-0.068385
C74	C	0.399741	0.433328	0.264948
C75	C	0.733075	0.766661	0.598282
C76	C	0.066362	0.099987	0.068105
C77	C	0.399696	0.433320	0.401438
C78	C	0.733029	0.766653	0.734772
C79	C	0.138879	0.101188	0.068109
C80	C	0.472212	0.434522	0.401443
C81	C	0.805546	0.767855	0.734776
C82	C	0.175157	0.101785	-0.000135
C83	C	0.508490	0.435119	0.333199
C84	C	0.841823	0.768452	0.666532
C85	C	0.823416	-0.039040	-0.000108
C86	C	1.156750	0.294293	0.333225
C87	C	1.490083	0.627627	0.666559
C88	C	0.817216	-0.126062	-0.000108
C89	C	1.150549	0.207272	0.333226
C90	C	1.483882	0.540605	0.666559
C91	C	0.877044	-0.176520	-0.000114
C92	C	1.210377	0.156814	0.333219
C93	C	1.543711	0.490147	0.666552
C94	C	0.871214	-0.258285	-0.000121
C95	C	1.204547	0.075048	0.333213
C96	C	1.537880	0.408382	0.666546
C97	C	0.805554	-0.289591	-0.000115
C98	C	1.138887	0.043742	0.333218
C99	C	1.472221	0.377076	0.666552
C100	C	0.745721	-0.239127	-0.000110
C101	C	1.079054	0.094207	0.333223
C102	C	1.412388	0.427540	0.666556
C103	C	0.751552	-0.157363	-0.000109
C104	C	1.084885	0.175970	0.333224
C105	C	1.418219	0.509304	0.666557
C106	C	0.781387	-0.533101	-0.000122
C107	C	1.114720	-0.199768	0.333211
C108	C	1.448054	0.133566	0.666544
C109	C	0.775560	-0.614871	-0.000121
C110	C	1.108894	-0.281538	0.333212
C111	C	1.442227	0.051795	0.666546
C112	C	0.901054	-0.634024	-0.000133
C113	C	1.234387	-0.300691	0.333200
C114	C	1.567720	0.032643	0.666534
C115	C	0.906879	-0.552258	-0.000127
C116	C	1.240212	-0.218924	0.333206
C117	C	1.573546	0.114409	0.666539
C118	C	0.847046	-0.501801	-0.000127
C119	C	1.180379	-0.168467	0.333207
C120	C	1.513712	0.164866	0.666540
N121	N	0.799593	-0.373168	-0.000119
N122	N	1.132926	-0.039835	0.333214
N123	N	1.466260	0.293498	0.666548
N124	N	0.853008	-0.418225	-0.000128
N125	N	1.186341	-0.084892	0.333205
N126	N	1.519674	0.248442	0.666539
C127	C	0.952950	0.098120	-0.000132
C128	C	1.286283	0.431453	0.333201
C129	C	1.619617	0.764787	0.666534
C130	C	1.030128	0.099386	-0.000147
C131	C	1.363462	0.432720	0.333186
C132	C	1.696795	0.766053	0.666519
C133	C	0.829188	0.247649	-0.000122
C134	C	1.162522	0.580983	0.333211
C135	C	1.495855	0.914316	0.666544
C136	C	0.835389	0.334671	-0.000128
C137	C	1.168722	0.668004	0.333206
C138	C	1.502056	1.001338	0.666539
N139	N	0.826280	0.104295	0.178041
N140	N	1.159613	0.437629	0.511374
N141	N	1.492947	0.770962	0.844708
N142	N	0.826330	0.104308	-0.178270
N143	N	1.159663	0.437641	0.155064
N144	N	1.492996	0.770974	0.488397
C145	C	0.870550	0.050855	0.217425
C146	C	1.203883	0.384188	0.550758
C147	C	1.537216	0.717522	0.884091
C148	C	0.870554	0.050851	0.296227
C149	C	1.203887	0.384185	0.629560
C150	C	1.537220	0.717518	0.962893
C151	C	0.826295	0.104302	0.335642
C152	C	1.159628	0.437635	0.668975
C153	C	1.492962	0.770968	1.002308
C154	C	0.782017	0.157746	0.296248
C155	C	1.115350	0.491079	0.629581
C156	C	1.448683	0.824413	0.962915
C157	C	0.782009	0.157743	0.217448
C158	C	1.115343	0.491076	0.550781
C159	C	1.448676	0.824410	0.884115
C160	C	0.821159	0.175731	0.460476
C161	C	1.154493	0.509065	0.793810
C162	C	1.487826	0.842398	1.127143
C163	C	0.821172	0.175735	0.539275
C164	C	1.154505	0.509069	0.872609
C165	C	1.487838	0.842402	1.205942
C166	C	0.826314	0.104311	0.578688
C167	C	1.159648	0.437644	0.912021
C168	C	1.492981	0.770978	1.245355
C169	C	0.831459	0.032880	0.539292
C170	C	1.164792	0.366213	0.872625
C171	C	1.498126	0.699546	1.205959
C172	C	0.831451	0.032876	0.460492
C173	C	1.164785	0.366210	0.793825
C174	C	1.498118	0.699543	1.127158
C175	C	0.826298	0.104311	0.421087
C176	C	1.159631	0.437644	0.754421
C177	C	1.492965	0.770977	1.087754
C178	C	0.870590	0.050862	0.703518
C179	C	1.203924	0.384196	1.036851
C180	C	1.537257	0.717529	1.370184
C181	C	0.870589	0.050858	0.782321
C182	C	1.203923	0.384191	1.115654
C183	C	1.537256	0.717524	1.448988
C184	C	0.782056	0.157759	0.782341
C185	C	1.115390	0.491092	1.115674
C186	C	1.448723	0.824426	1.449008
C187	C	0.782054	0.157757	0.703539
C188	C	1.115387	0.491090	1.036872
C189	C	1.448720	0.824424	1.370206
C190	C	0.826324	0.104309	0.664132
C191	C	1.159658	0.437643	0.997466
C192	C	1.492991	0.770976	1.330799
H193	H	0.387071	0.188710	-0.094967
H194	H	0.720405	0.522043	0.238367
H195	H	1.053738	0.855377	0.571700
F196	F	0.946929	-0.143209	-0.000113
F197	F	1.280262	0.190124	0.333220
F198	F	1.613595	0.523457	0.666553
H199	H	0.919933	-0.299365	-0.000125
H200	H	1.253266	0.033968	0.333209
H201	H	1.586599	0.367301	0.666542
H202	H	0.168377	0.101676	0.123680
H203	H	0.501710	0.435009	0.457013
H204	H	0.835044	0.768343	0.790346
F205	F	0.027851	0.099357	-0.141022
F206	F	0.361184	0.432690	0.192312
F207	F	0.694517	0.766023	0.525645
F208	F	0.705673	-0.648187	-0.000111
F209	F	1.039007	-0.314853	0.333222
F210	F	1.372340	0.018480	0.666556
H211	H	0.835639	-0.025285	0.428419
H212	H	1.168972	0.308048	0.761752
H213	H	1.502305	0.641381	1.095085
H214	H	0.906637	0.007336	0.814388
H215	H	1.239970	0.340669	1.147721
H216	H	1.573303	0.674003	1.481054
F217	F	0.717706	-0.479411	-0.000123
F218	F	1.051040	-0.146078	0.333210
F219	F	1.384373	0.187256	0.666543
F220	F	0.675841	-0.272447	-0.000113
F221	F	1.009174	0.060886	0.333221
F222	F	1.342507	0.394220	0.666554
H223	H	0.960346	-0.526775	-0.000132
H224	H	1.293679	-0.193442	0.333201
H225	H	1.627012	0.139892	0.666535
H226	H	0.949766	-0.675114	-0.000135
H227	H	1.283099	-0.341781	0.333199
H228	H	1.616433	-0.008448	0.666532
F229	F	0.475066	0.106775	0.140771
F230	F	0.808399	0.440108	0.474105
F231	F	1.141732	0.773442	0.807438
H232	H	0.036820	0.099495	0.123665
H233	H	0.370153	0.432829	0.456998
H234	H	0.703487	0.766162	0.790332
H235	H	0.702833	-0.116280	-0.000104
H236	H	1.036166	0.217053	0.333230
H237	H	1.369500	0.550387	0.666563
F238	F	0.917663	-0.006030	0.175487
F239	F	1.250997	0.327303	0.508820
F240	F	1.584330	0.660636	0.842153
H241	H	0.906604	0.007332	0.328299
H242	H	1.239938	0.340666	0.661632
H243	H	1.573271	0.673999	0.994966
H244	H	0.835646	-0.025281	0.571380
H245	H	1.168980	0.308052	0.904713
H246	H	1.502313	0.641386	1.238047
F247	F	0.245759	0.197863	-0.108048
F248	F	0.579092	0.531197	0.225285
F249	F	0.912425	0.864530	0.558619
F250	F	0.406848	0.010735	0.107818
F251	F	0.740182	0.344068	0.441151
F252	F	1.073515	0.677401	0.774484
F253	F	0.734911	0.214629	0.338197
F254	F	1.068245	0.547962	0.671530
F255	F	1.401578	0.881296	1.004863
F256	F	0.624756	0.109270	0.140792
F257	F	0.958090	0.442603	0.474125
F258	F	1.291423	0.775936	0.807459
H259	H	0.906636	0.007340	0.671431
H260	H	1.239970	0.340673	1.004765
H261	H	1.573303	0.674006	1.338098
H262	H	0.265541	0.019878	0.094727
H263	H	0.598874	0.353212	0.428060
H264	H	0.932208	0.686545	0.761394
H265	H	0.746017	0.201276	0.814432
H266	H	1.079351	0.534609	1.147765
H267	H	1.412684	0.867943	1.481099
H268	H	0.615780	0.109104	-0.123900
H269	H	0.949114	0.442437	0.209434
H270	H	1.282447	0.775771	0.542767
H271	H	0.746008	0.201276	0.671471
H272	H	1.079341	0.534609	1.004804
H273	H	1.412675	0.867943	1.338137
F274	F	0.815701	0.251758	0.581196
F275	F	1.149034	0.585091	0.914529
F276	F	1.482368	0.918425	1.247863
H277	H	0.816960	0.233897	0.428393
H278	H	1.150293	0.567231	0.761727
H279	H	1.483626	0.900564	1.095060
F280	F	0.734890	0.214624	0.175531
F281	F	1.068223	0.547957	0.508864
F282	F	1.401556	0.881291	0.842197
H283	H	0.484228	0.106928	-0.123912
H284	H	0.817561	0.440261	0.209421
H285	H	1.150894	0.773594	0.542755
F286	F	0.177538	0.101829	-0.141009
F287	F	0.510871	0.435163	0.192325
F288	F	0.844205	0.768496	0.525658
