data_functionalizedCrystal
_audit_creation_method	'MofGen! by Chris Wilmer'
_symmetry_space_group_name_H-M	'P1'
_symmetry_Int_Tables_number	1
_symmetry_cell_setting	triclinic
loop_
_symmetry_equiv_pos_as_xyz
  x,y,z
_cell_length_a	11.792241
_cell_length_b	15.072220
_cell_length_c	11.792241
_cell_angle_alpha	90.001222
_cell_angle_beta	84.193416
_cell_angle_gamma	90.008318
loop_
_atom_site_label
_atom_site_type_symbol
_atom_site_fract_x
_atom_site_fract_y
_atom_site_fract_z
O1	O	1.506923	0.073697	0.155560
O2	O	2.006923	0.573697	0.655560
O3	O	1.176582	0.073717	0.171593
O4	O	1.676582	0.573717	0.671593
O5	O	1.349769	0.073700	-0.001594
O6	O	1.849769	0.573700	0.498406
O7	O	1.333736	0.073714	0.328747
O8	O	1.833736	0.573714	0.828747
O9	O	1.349726	-0.073865	-0.001584
O10	O	1.849726	0.426135	0.498416
O11	O	1.176539	-0.073848	0.171603
O12	O	1.676539	0.426152	0.671603
O13	O	1.506880	-0.073868	0.155570
O14	O	2.006880	0.426132	0.655570
Zn15	Zn	1.341702	-0.097287	0.163588
Zn16	Zn	1.841702	0.402713	0.663588
Zn17	Zn	1.341759	0.097136	0.163575
Zn18	Zn	1.841759	0.597136	0.663575
O19	O	1.333693	-0.073851	0.328757
O20	O	1.833693	0.426149	0.828757
C21	C	1.134269	-0.000063	0.170591
C22	C	1.634269	0.499937	0.670591
C23	C	1.008255	-0.000055	0.167576
C24	C	1.508255	0.499945	0.667576
N25	N	1.341672	-0.229976	0.163596
N26	N	1.841672	0.270024	0.663596
C27	C	0.777543	-0.000080	0.162034
C28	C	1.277543	0.499920	0.662034
C29	C	0.905928	-0.000066	0.165113
C30	C	1.405928	0.499934	0.665113
C31	C	1.341757	-0.589178	0.163571
C32	C	1.841757	-0.089178	0.663571
C33	C	1.248773	-0.551561	0.255925
C34	C	1.748773	-0.051561	0.755925
C35	C	1.248989	-0.448736	0.256266
C36	C	1.748989	0.051264	0.756266
C37	C	1.341714	-0.410973	0.163583
C38	C	1.841714	0.089027	0.663583
C39	C	1.460301	-0.448271	0.190178
C40	C	1.960301	0.051729	0.690178
C41	C	1.459781	-0.551129	0.190835
C42	C	1.959781	-0.051129	0.690835
C43	C	1.317207	-0.551281	0.044353
C44	C	1.817207	-0.051281	0.544353
C45	C	1.314495	-0.448417	0.045130
C46	C	1.814495	0.051583	0.545130
C47	C	1.341697	-0.310260	0.163588
C48	C	1.841697	0.189740	0.663588
C49	C	1.341781	-0.689891	0.163569
C50	C	1.841781	-0.189891	0.663569
C51	C	1.549192	-0.000086	0.156572
C52	C	2.049192	0.499914	0.656572
C53	C	1.675206	-0.000088	0.159587
C54	C	2.175206	0.499912	0.659587
C55	C	1.348740	-0.000082	-0.043880
C56	C	1.848740	0.499918	0.456120
C57	C	1.345726	-0.000081	-0.169894
C58	C	1.845726	0.499919	0.330106
N59	N	1.341798	0.229825	0.163559
N60	N	1.841798	0.729825	0.663559
C61	C	1.340183	-0.000066	-0.400606
C62	C	1.840183	0.499934	0.099394
C63	C	1.343262	-0.000074	-0.272221
C64	C	1.843262	0.499926	0.227779
C65	C	1.334721	-0.000067	0.371043
C66	C	1.834721	0.499933	0.871043
C67	C	1.337736	-0.000062	0.497057
C68	C	1.837736	0.499938	0.997057
H69	H	1.160865	-0.423520	0.240313
H70	H	1.660865	0.076480	0.740313
H71	H	1.385008	-0.575606	-0.024383
H72	H	1.885008	-0.075606	0.475617
H73	H	1.377765	-0.422715	-0.026872
H74	H	1.877765	0.077285	0.473128
H75	H	1.160365	-0.576318	0.240224
H76	H	1.660365	-0.076318	0.740224
H77	H	1.264312	-0.577397	0.343881
H78	H	1.764312	-0.077397	0.843881
H79	H	1.531173	-0.576010	0.126260
H80	H	2.031173	-0.076010	0.626260
O81	O	1.269861	-0.416115	0.373428
O82	O	1.769861	0.083885	0.873428
H83	H	1.279850	-0.473807	0.430062
H84	H	1.779850	0.026193	0.930062
O85	O	1.488287	-0.582896	0.306033
O86	O	1.988287	-0.082896	0.806033
H87	H	1.488206	-0.656527	0.307643
H88	H	1.988206	-0.156527	0.807643
O89	O	1.554196	-0.415874	0.103497
O90	O	2.054196	0.084126	0.603497
H91	H	1.517247	-0.372738	0.040393
H92	H	2.017247	0.127262	0.540393
O93	O	1.489471	-0.414152	0.304076
O94	O	1.989471	0.085848	0.804076
H95	H	1.419700	-0.370642	0.341916
H96	H	1.919700	0.129358	0.841916
O97	O	1.205074	-0.585662	0.010731
O98	O	1.705074	-0.085662	0.510731
H99	H	1.165585	-0.630150	0.078627
H100	H	1.665585	-0.130150	0.578627
H101	H	1.227257	-0.424040	0.024964
H102	H	1.727257	0.075960	0.524964
