data_functionalizedCrystal
_audit_creation_method	'MofGen! by Chris Wilmer'
_symmetry_space_group_name_H-M	'P1'
_symmetry_Int_Tables_number	1
_symmetry_cell_setting	triclinic
loop_
_symmetry_equiv_pos_as_xyz
  x,y,z
_cell_length_a	14.519709
_cell_length_b	10.654554
_cell_length_c	9.730223
_cell_angle_alpha	89.999030
_cell_angle_beta	89.995143
_cell_angle_gamma	95.916506
loop_
_atom_site_label
_atom_site_type_symbol
_atom_site_fract_x
_atom_site_fract_y
_atom_site_fract_z
O1	O	-0.129549	1.666585	-0.114294
O2	O	0.370451	2.166585	0.385706
O3	O	-0.141885	1.300989	-0.114289
O4	O	0.358115	1.800989	0.385711
O5	O	-0.001529	1.493480	-0.114304
O6	O	0.498471	1.993480	0.385696
O7	O	-0.269905	1.474093	-0.114279
O8	O	0.230095	1.974093	0.385721
O9	O	-0.001533	1.493478	0.114276
O10	O	0.498467	1.993478	0.614276
O11	O	-0.141889	1.300986	0.114291
O12	O	0.358111	1.800986	0.614291
O13	O	-0.129553	1.666583	0.114286
O14	O	0.370447	2.166583	0.614286
Zn15	Zn	-0.135721	1.483784	0.150581
Zn16	Zn	0.364279	1.983784	0.650581
Zn17	Zn	-0.135717	1.483787	-0.150583
Zn18	Zn	0.364283	1.983787	0.349417
O19	O	-0.269909	1.474091	0.114301
O20	O	0.230091	1.974091	0.614301
C21	C	-0.140981	1.254198	0.000001
C22	C	0.359019	1.754198	0.500001
C23	C	-0.138268	1.114781	0.000002
C24	C	0.361732	1.614781	0.500002
C25	C	-0.050527	0.933063	-0.000024
C26	C	0.449473	1.433063	0.499976
C27	C	-0.053075	1.064060	-0.000010
C28	C	0.446925	1.564060	0.499990
C29	C	-0.220917	1.034498	0.000014
C30	C	0.279083	1.534498	0.500014
C31	C	-0.218368	0.903503	0.000009
C32	C	0.281632	1.403503	0.500009
C33	C	0.046375	0.950132	-0.000044
C34	C	0.546375	1.450132	0.499956
C35	C	0.043827	1.081129	-0.000029
C36	C	0.543827	1.581129	0.499971
C37	C	-0.304272	1.474996	0.000014
C38	C	0.195728	1.974996	0.500014
C39	C	-0.406667	1.477703	0.000024
C40	C	0.093333	1.977703	0.500024
C41	C	-0.781614	1.487670	-0.000031
C42	C	-0.281614	1.987670	0.499969
C43	C	-0.677292	1.484903	-0.000015
C44	C	-0.177292	1.984903	0.499985
C45	C	-0.594144	1.482687	-0.000002
C46	C	-0.094144	1.982687	0.499998
C47	C	-0.489815	1.479919	0.000011
C48	C	0.010185	1.979919	0.500011
C49	C	0.032834	1.492575	-0.000020
C50	C	0.532834	1.992575	0.499980
C51	C	0.135229	1.489868	-0.000038
C52	C	0.635229	1.989868	0.499962
C53	C	-0.130457	1.713373	-0.000007
C54	C	0.369543	2.213373	0.499993
C55	C	-0.133170	1.852790	-0.000017
C56	C	0.366830	2.352790	0.499983
N57	N	-0.135724	1.483791	0.356117
N58	N	0.364276	1.983791	0.856117
N59	N	-0.135707	1.483790	-0.356120
N60	N	0.364293	1.983790	0.143880
C61	C	-0.073595	1.569048	0.428036
C62	C	0.426405	2.069048	0.928036
C63	C	-0.073584	1.569045	0.571919
C64	C	0.426416	2.069045	1.071919
C65	C	-0.197838	1.398524	0.571951
C66	C	0.302162	1.898524	1.071951
C67	C	-0.197844	1.398522	0.428071
C68	C	0.302156	1.898522	0.928071
C69	C	-0.001861	1.667501	0.428020
C70	C	0.498139	2.167501	0.928020
C71	C	-0.001850	1.667498	0.571902
C72	C	0.498150	2.167498	1.071902
H73	H	0.077233	0.914801	-0.098744
H74	H	0.577233	1.414801	0.401256
H75	H	-0.285664	0.838148	0.000032
H76	H	0.214336	1.338148	0.500032
Cl77	Cl	0.101565	1.621373	0.640788
Cl78	Cl	0.601565	2.121373	1.140788
H79	H	0.073107	1.127048	0.098667
H80	H	0.573107	1.627048	0.598667
H81	H	-0.017652	1.763857	0.610954
H82	H	0.482348	2.263857	1.110954
H83	H	-0.290283	1.075805	0.000036
H84	H	0.209717	1.575805	0.500036
H85	H	0.084273	0.921133	0.095606
H86	H	0.584273	1.421133	0.595606
H87	H	-0.248414	1.329099	0.630551
H88	H	0.251586	1.829099	1.130551
Cl89	Cl	-0.275938	1.291323	0.337656
Cl90	Cl	0.224062	1.791323	0.837656
H91	H	0.080335	1.123238	-0.095695
H92	H	0.580335	1.623238	0.404305
Cl93	Cl	0.107577	1.635446	0.367702
Cl94	Cl	0.607577	2.135446	0.867702
Cl95	Cl	-0.036553	1.807938	0.359111
Cl96	Cl	0.463447	2.307938	0.859111
