data_functionalizedCrystal
_audit_creation_method	'MofGen! by Chris Wilmer'
_symmetry_space_group_name_H-M	'P1'
_symmetry_Int_Tables_number	1
_symmetry_cell_setting	triclinic
loop_
_symmetry_equiv_pos_as_xyz
  x,y,z
_cell_length_a	27.732064
_cell_length_b	27.732048
_cell_length_c	14.048226
_cell_angle_alpha	89.988614
_cell_angle_beta	90.001165
_cell_angle_gamma	82.646040
loop_
_atom_site_label
_atom_site_type_symbol
_atom_site_fract_x
_atom_site_fract_y
_atom_site_fract_z
O1	O	0.640923	0.057556	-0.079001
O2	O	1.140923	0.557556	0.420999
O3	O	0.500131	0.066293	-0.079042
O4	O	1.000131	0.566293	0.420958
O5	O	0.574900	-0.008472	-0.079002
O6	O	1.074900	0.491528	0.420998
O7	O	0.566154	0.132321	-0.079041
O8	O	1.066154	0.632321	0.420959
O9	O	0.574891	-0.008476	0.079319
O10	O	1.074891	0.491524	0.579319
O11	O	0.500122	0.066289	0.079280
O12	O	1.000122	0.566289	0.579280
O13	O	0.640914	0.057552	0.079320
O14	O	1.140914	0.557552	0.579320
Zn15	Zn	0.570517	0.061920	0.104437
Zn16	Zn	1.070517	0.561920	0.604437
Zn17	Zn	0.570528	0.061925	-0.104158
Zn18	Zn	1.070528	0.561925	0.395842
O19	O	0.566145	0.132317	0.079281
O20	O	1.066145	0.632317	0.579281
C21	C	0.482120	0.066106	0.000114
C22	C	0.982120	0.566106	0.500114
C23	C	0.428465	0.065551	0.000100
C24	C	0.928465	0.565551	0.500100
C25	C	0.051392	0.017583	0.000167
C26	C	0.551392	0.517583	0.500167
C27	C	0.253053	0.019630	0.000142
C28	C	0.753053	0.519630	0.500142
O29	O	0.284305	-0.017591	0.000187
O30	O	0.784305	0.482409	0.500187
N31	N	0.272180	0.063964	0.000125
N32	N	0.772180	0.563964	0.500125
C33	C	0.240889	0.107790	0.000121
C34	C	0.740889	0.607790	0.500121
O35	O	0.261785	0.145546	0.000117
O36	O	0.761785	0.645546	0.500117
C37	C	0.039230	0.105743	0.000153
C38	C	0.539230	0.605743	0.500153
C39	C	0.020105	0.061406	0.000160
C40	C	0.520105	0.561406	0.500160
C41	C	0.032267	-0.026750	0.000175
C42	C	0.532267	0.473250	0.500175
C43	C	-0.018145	-0.027261	0.000176
C44	C	0.481855	0.472739	0.500176
C45	C	-0.049432	0.016561	0.000169
C46	C	0.450568	0.516561	0.500169
C47	C	-0.030307	0.060895	0.000161
C48	C	0.469693	0.560895	0.500161
C49	C	0.007940	0.149568	0.000156
C50	C	0.507940	0.649568	0.500156
C51	C	-0.042478	0.149053	0.000167
C52	C	0.457522	0.649053	0.500167
C53	C	-0.061602	0.104716	0.000174
C54	C	0.438398	0.604716	0.500174
C55	C	-0.112006	0.104206	0.000156
C56	C	0.387994	0.604206	0.500156
N57	N	-0.131134	0.059872	0.000172
N58	N	0.368866	0.559872	0.500172
C59	C	-0.099846	0.016049	0.000179
C60	C	0.400154	0.516049	0.500179
C61	C	0.346763	0.108861	0.000103
C62	C	0.846763	0.608861	0.500103
C63	C	0.397178	0.109373	0.000093
C64	C	0.897178	0.609373	0.500093
C65	C	0.409338	0.021213	0.000115
C66	C	0.909338	0.521213	0.500115
C67	C	0.358923	0.020701	0.000118
C68	C	0.858923	0.520701	0.500118
C69	C	0.327636	0.064527	0.000119
C70	C	0.827636	0.564527	0.500119
C71	C	-0.205716	0.014979	0.000181
C72	C	0.294284	0.514979	0.500181
C73	C	-0.256133	0.014472	0.000178
C74	C	0.243867	0.514472	0.500178
C75	C	-0.268289	0.102632	0.000161
C76	C	0.231711	0.602632	0.500161
C77	C	-0.217876	0.103140	0.000158
C78	C	0.282124	0.603140	0.500158
C79	C	-0.186590	0.059309	0.000172
C80	C	0.313410	0.559309	0.500172
O81	O	-0.143287	0.141407	0.000121
O82	O	0.356713	0.641407	0.500121
O83	O	-0.120752	-0.021701	0.000205
O84	O	0.379248	0.478299	0.500205
C85	C	0.101805	0.018094	0.000166
C86	C	0.601805	0.518094	0.500166
C87	C	0.120930	0.062428	0.000158
C88	C	0.620930	0.562428	0.500158
C89	C	0.089642	0.106250	0.000151
C90	C	0.589642	0.606250	0.500151
C91	C	0.171344	0.062940	0.000148
C92	C	0.671344	0.562940	0.500148
C93	C	0.202631	0.019117	0.000155
C94	C	0.702631	0.519117	0.500155
C95	C	0.183504	-0.025217	0.000171
C96	C	0.683504	0.474783	0.500171
C97	C	0.133092	-0.025728	0.000173
C98	C	0.633092	0.474272	0.500173
C99	C	0.108770	0.150585	0.000135
C100	C	0.608770	0.650585	0.500135
C101	C	0.159183	0.151092	0.000133
C102	C	0.659183	0.651092	0.500133
C103	C	0.190470	0.107270	0.000139
C104	C	0.690470	0.607270	0.500139
C105	C	0.574712	-0.026481	0.000161
C106	C	1.074712	0.473519	0.500161
C107	C	0.574159	-0.080136	0.000169
C108	C	1.074159	0.419864	0.500169
C109	C	0.614862	-0.418948	0.000132
C110	C	1.114862	0.081052	0.500132
C111	C	0.612811	-0.620608	0.000118
C112	C	1.112811	-0.120608	0.500118
O113	O	0.650032	-0.651862	0.000087
O114	O	1.150032	-0.151862	0.500087
N115	N	0.568476	-0.639735	0.000106
N116	N	1.068476	-0.139735	0.500106
C117	C	0.524651	-0.608442	0.000092
C118	C	1.024651	-0.108442	0.500092
O119	O	0.486895	-0.629338	0.000071
O120	O	0.986895	-0.129338	0.500071
C121	C	0.526703	-0.406784	0.000099
C122	C	1.026703	0.093216	0.500099
C123	C	0.571040	-0.387660	0.000120
C124	C	1.071040	0.112340	0.500120
C125	C	0.659196	-0.399824	0.000152
C126	C	1.159196	0.100176	0.500152
C127	C	0.659709	-0.349412	0.000161
C128	C	1.159709	0.150588	0.500161
C129	C	0.615887	-0.318124	0.000149
C130	C	1.115887	0.181876	0.500149
C131	C	0.571553	-0.337248	0.000129
C132	C	1.071553	0.162752	0.500129
C133	C	0.482878	-0.375493	0.000077
C134	C	0.982878	0.124507	0.500077
C135	C	0.483395	-0.325075	0.000076
C136	C	0.983395	0.174925	0.500076
C137	C	0.527733	-0.305952	0.000098
C138	C	1.027733	0.194048	0.500098
C139	C	0.528243	-0.255548	0.000126
C140	C	1.028243	0.244452	0.500126
N141	N	0.572578	-0.236422	0.000137
N142	N	1.072578	0.263578	0.500137
C143	C	0.616400	-0.267710	0.000149
C144	C	1.116400	0.232290	0.500149
C145	C	0.523577	-0.714317	0.000090
C146	C	1.023577	-0.214317	0.500090
C147	C	0.523064	-0.764731	0.000090
C148	C	1.023064	-0.264731	0.500090
C149	C	0.611225	-0.776893	0.000114
C150	C	1.111225	-0.276893	0.500114
C151	C	0.611737	-0.726478	0.000121
C152	C	1.111737	-0.226478	0.500121
C153	C	0.567912	-0.695190	0.000102
C154	C	1.067912	-0.195190	0.500102
C155	C	0.617472	-0.161841	0.000168
C156	C	1.117472	0.338159	0.500168
C157	C	0.617981	-0.111424	0.000181
C158	C	1.117981	0.388576	0.500181
C159	C	0.529821	-0.099266	0.000151
C160	C	1.029821	0.400734	0.500151
C161	C	0.529312	-0.149679	0.000144
C162	C	1.029312	0.350321	0.500144
C163	C	0.573142	-0.180965	0.000149
C164	C	1.073142	0.319035	0.500149
O165	O	0.491043	-0.224267	0.000146
O166	O	0.991043	0.275733	0.500146
O167	O	0.654151	-0.246805	0.000148
O168	O	1.154151	0.253195	0.500148
C169	C	0.614350	-0.469360	0.000123
C170	C	1.114350	0.030640	0.500123
C171	C	0.570016	-0.488484	0.000103
C172	C	1.070016	0.011516	0.500103
C173	C	0.526194	-0.457196	0.000091
C174	C	1.026194	0.042804	0.500091
C175	C	0.569503	-0.538899	0.000103
C176	C	1.069503	-0.038899	0.500103
C177	C	0.613325	-0.570187	0.000115
C178	C	1.113325	-0.070187	0.500115
C179	C	0.657660	-0.551060	0.000126
C180	C	1.157660	-0.051060	0.500126
C181	C	0.658172	-0.500648	0.000135
C182	C	1.158172	-0.000648	0.500135
C183	C	0.481859	-0.476323	0.000079
C184	C	0.981859	0.023677	0.500079
C185	C	0.481351	-0.526735	0.000072
C186	C	0.981351	-0.026735	0.500072
C187	C	0.525172	-0.558023	0.000083
C188	C	1.025172	-0.058023	0.500083
C189	C	0.658925	0.057739	0.000163
C190	C	1.158925	0.557739	0.500163
C191	C	0.712580	0.058295	0.000171
C192	C	1.212580	0.558295	0.500171
C193	C	0.566333	0.150326	0.000115
C194	C	1.066333	0.650326	0.500115
C195	C	0.566886	0.203981	0.000101
C196	C	1.066886	0.703981	0.500101
N197	N	0.570512	0.061916	0.246798
N198	N	1.070512	0.561916	0.746798
N199	N	0.570537	0.061926	-0.246519
N200	N	1.070537	0.561926	0.253481
C201	C	0.603630	0.028823	0.296633
C202	C	1.103630	0.528823	0.796633
C203	C	0.603633	0.028823	0.396291
C204	C	1.103633	0.528823	0.896291
C205	C	0.570521	0.061918	0.446111
C206	C	1.070521	0.561918	0.946111
C207	C	0.537399	0.095012	0.396269
C208	C	1.037399	0.595012	0.896269
C209	C	0.537394	0.095009	0.296613
C210	C	1.037394	0.595009	0.796613
C211	C	0.537413	0.095015	0.603983
C212	C	1.037413	0.595015	1.103983
C213	C	0.537419	0.095018	0.703646
C214	C	1.037419	0.595018	1.203646
C215	C	0.603652	0.028829	0.703661
C216	C	1.103652	0.528829	1.203661
C217	C	0.603647	0.028826	0.604005
C218	C	1.103647	0.528826	1.104005
C219	C	0.570526	0.061921	0.554170
C220	C	1.070526	0.561921	1.054170
H221	H	0.412744	0.145477	0.000074
H222	H	0.912744	0.645477	0.500074
H223	H	0.510455	0.121967	0.744204
H224	H	1.010455	0.621967	1.244204
H225	H	-0.271701	-0.021634	0.000181
H226	H	0.228299	0.478366	0.500181
H227	H	0.083300	0.186271	0.000131
H228	H	0.583300	0.686271	0.500131
H229	H	0.446774	-0.391054	0.000054
H230	H	0.946774	0.108946	0.500054
H231	H	0.510441	0.121963	0.563410
H232	H	1.010441	0.621963	1.063410
H233	H	-0.067950	0.184742	0.000172
H234	H	0.432050	0.684742	0.500172
H235	H	0.445243	-0.542300	0.000062
H236	H	0.945243	-0.042300	0.500062
H237	H	0.647841	-0.710911	0.000138
H238	H	1.147841	-0.210911	0.500138
H239	H	0.446173	-0.450852	0.000067
H240	H	0.946173	0.049148	0.500067
H241	H	0.321293	0.144551	0.000102
H242	H	0.821293	0.644551	0.500102
H243	H	0.434821	-0.014469	0.000117
H244	H	0.934821	0.485531	0.500117
H245	H	0.343355	-0.015402	0.000124
H246	H	0.843355	0.484598	0.500124
H247	H	0.023502	0.185672	0.000147
H248	H	0.523502	0.685672	0.500147
H249	H	0.654087	-0.095857	0.000201
H250	H	1.154087	0.404143	0.500201
H251	H	0.630596	0.001875	0.256076
H252	H	1.130596	0.501875	0.756076
H253	H	-0.180248	-0.020712	0.000191
H254	H	0.319752	0.479288	0.500191
H255	H	-0.033711	-0.063365	0.000185
H256	H	0.466289	0.436635	0.500185
H257	H	0.510436	0.121957	0.436838
H258	H	1.010436	0.621957	0.936838
H259	H	0.694883	-0.425295	0.000159
H260	H	1.194883	0.074705	0.500159
H261	H	0.057737	-0.062438	0.000183
H262	H	0.557737	0.437562	0.500183
H263	H	-0.202304	0.139243	0.000152
H264	H	0.297696	0.639243	0.500152
H265	H	0.695813	-0.333847	0.000175
H266	H	1.195813	0.166153	0.500175
H267	H	0.646906	-0.802377	0.000125
H268	H	1.146906	-0.302377	0.500125
H269	H	-0.293772	0.138311	0.000150
H270	H	0.206228	0.638311	0.500150
H271	H	0.630620	0.001882	0.744243
H272	H	1.130620	0.501882	1.244243
H273	H	0.486960	-0.780296	0.000089
H274	H	0.986960	-0.280296	0.500089
H275	H	0.447706	-0.299603	0.000059
H276	H	0.947706	0.200397	0.500059
H277	H	0.630600	0.001876	0.436867
H278	H	1.130600	0.501876	0.936867
H279	H	0.510426	0.121956	0.256037
H280	H	1.010426	0.621956	0.756037
H281	H	0.630612	0.001880	0.563442
H282	H	1.130612	0.501880	1.063442
H283	H	0.487888	-0.688846	0.000074
H284	H	0.987888	-0.188846	0.500074
H285	H	0.493209	-0.165249	0.000152
H286	H	0.993209	0.334751	0.500152
H287	H	0.693341	-0.576544	0.000140
H288	H	1.193341	-0.076544	0.500140
H289	H	0.117526	-0.061832	0.000178
H290	H	0.617526	0.438168	0.500178
H291	H	0.694276	-0.485083	0.000152
H292	H	1.194276	0.014917	0.500152
H293	H	0.494142	-0.073782	0.000145
H294	H	0.994142	0.426218	0.500145
H295	H	0.208987	-0.060899	0.000171
H296	H	0.708987	0.439101	0.500171
H297	H	0.653163	-0.187309	0.000169
H298	H	1.153163	0.312691	0.500169
H299	H	0.174748	0.187200	0.000120
H300	H	0.674748	0.687200	0.500120
