data_functionalizedCrystal
_audit_creation_method	'MofGen! by Chris Wilmer'
_symmetry_space_group_name_H-M	'P1'
_symmetry_Int_Tables_number	1
_symmetry_cell_setting	triclinic
loop_
_symmetry_equiv_pos_as_xyz
  x,y,z
_cell_length_a	11.792241
_cell_length_b	17.699077
_cell_length_c	16.176319
_cell_angle_alpha	90.006860
_cell_angle_beta	90.006929
_cell_angle_gamma	83.736996
loop_
_atom_site_label
_atom_site_type_symbol
_atom_site_fract_x
_atom_site_fract_y
_atom_site_fract_z
O1	O	0.143495	1.004846	0.068736
O2	O	0.162175	0.784567	0.068740
O3	O	-0.012400	0.900052	0.068732
O4	O	0.318070	0.889361	0.068744
O5	O	-0.012411	0.900036	-0.068761
O6	O	0.162164	0.784551	-0.068753
O7	O	0.143484	1.004830	-0.068757
Cu8	Cu	0.152823	0.894689	-0.081309
Cu9	Cu	0.152836	0.894708	0.081292
O10	O	0.318058	0.889345	-0.068749
C11	C	0.161501	0.756358	-0.000006
C12	C	0.159497	0.672329	-0.000005
C13	C	0.158546	0.632848	-0.074953
C14	C	0.156644	0.553895	-0.074954
C15	C	0.155701	0.514425	-0.000006
C16	C	0.156649	0.553912	0.074949
C17	C	0.158542	0.632864	0.074949
C18	C	0.149011	0.235508	0.074950
C19	C	0.147121	0.156550	0.074944
C20	C	0.147113	0.156540	-0.074953
C21	C	0.149006	0.235491	-0.074953
C22	C	0.149948	0.274972	0.000001
C23	C	0.152007	0.360582	0.000001
C24	C	0.153650	0.428816	-0.000005
C25	C	-0.054688	0.899373	-0.000014
C26	C	-0.180678	0.897363	-0.000013
C27	C	-0.411346	0.893666	0.000000
C28	C	-0.282985	0.895720	-0.000007
C29	C	0.360347	0.890025	-0.000001
C30	C	0.486336	0.892035	0.000003
N31	N	0.152813	0.894681	-0.195675
C32	C	0.144157	1.033039	-0.000009
C33	C	0.146162	1.117068	-0.000005
C34	C	0.075542	0.945834	-0.238942
C35	C	0.075541	0.945838	-0.325489
C36	C	0.152817	0.894692	-0.368767
C37	C	0.230091	0.843534	-0.325494
C38	C	0.230085	0.843527	-0.238948
C39	C	0.230112	0.843560	-0.674522
C40	C	0.230113	0.843572	-0.761073
C41	C	0.075568	0.945871	-0.761063
C42	C	0.075563	0.945864	-0.674518
C43	C	0.152832	0.894703	-0.631252
C44	C	0.152831	0.894699	-0.537407
C45	C	0.152824	0.894700	-0.462610
N46	N	0.152837	0.894722	0.195657
H47	H	0.155851	0.521755	-0.135985
O48	O	0.305195	0.793775	-0.367403
C49	C	0.373411	0.748635	-0.310652
H50	H	0.326875	0.747589	-0.248965
H51	H	0.457681	0.773546	-0.301432
C52	C	0.454107	0.668373	-0.420208
C53	C	0.396947	0.667083	-0.344445
H54	H	0.468631	0.618068	-0.441054
H55	H	0.408153	0.698786	-0.458444
H56	H	0.524326	0.689136	-0.412515
H57	H	0.326724	0.646329	-0.352142
H58	H	0.442891	0.636665	-0.306212
O59	O	0.000448	0.995633	-0.802965
C60	C	-0.067774	1.040760	-0.746207
H61	H	-0.021237	1.041802	-0.684512
H62	H	-0.152037	1.015840	-0.737012
C63	C	-0.148488	1.121031	-0.855744
C64	C	-0.091327	1.122315	-0.779971
H65	H	-0.163023	1.171337	-0.876572
H66	H	-0.102530	1.090626	-0.893984
H67	H	-0.218702	1.100260	-0.848071
H68	H	-0.021110	1.143077	-0.787647
H69	H	-0.137275	1.152725	-0.741733
O70	O	0.000526	0.995456	-0.367647
C71	C	0.017112	0.984508	-0.453315
H72	H	0.059641	0.924510	-0.465144
H73	H	0.073960	1.027575	-0.477860
C74	C	-0.151248	1.069110	-0.483227
C75	C	-0.099022	0.995417	-0.497757
H76	H	-0.222884	1.075842	-0.510642
H77	H	-0.162421	1.076489	-0.425512
H78	H	-0.103863	1.104991	-0.503682
H79	H	-0.146400	0.959538	-0.477293
H80	H	-0.087861	0.988032	-0.555470
O81	O	0.146238	0.118301	-0.147840
C82	C	0.147452	0.170072	-0.213988
H83	H	0.184724	0.223364	-0.192010
H84	H	0.056636	0.186042	-0.237039
C85	C	0.175331	0.067610	-0.311791
C86	C	0.221118	0.133062	-0.284799
H87	H	0.220767	0.044780	-0.355473
H88	H	0.174509	0.032730	-0.267226
H89	H	0.099652	0.080927	-0.330994
H90	H	0.296790	0.119742	-0.265587
H91	H	0.221955	0.167938	-0.329363
O92	O	0.149975	0.273731	0.147831
C93	C	0.148710	0.221962	0.213978
H94	H	0.183285	0.162695	0.192004
H95	H	0.057491	0.221133	0.237015
C96	C	0.181378	0.319386	0.311788
C97	C	0.223853	0.246595	0.284801
H98	H	0.227725	0.334582	0.355477
H99	H	0.182226	0.354265	0.267224
H100	H	0.105363	0.318686	0.330979
H101	H	0.299861	0.247298	0.265600
H102	H	0.223019	0.211716	0.329363
H103	H	0.149780	0.267624	-0.135984
H104	H	0.012621	0.987486	-0.203711
H105	H	0.293005	0.801873	-0.203720
H106	H	0.293029	0.801905	-0.639301
H107	H	0.146352	0.124415	0.135980
H108	H	0.159318	0.665008	0.135979
O109	O	0.155692	0.515693	0.147828
C110	C	0.156969	0.567470	0.213980
H111	H	0.122389	0.626735	0.192008
H112	H	0.248192	0.568303	0.237023
C113	C	0.124319	0.470060	0.311780
C114	C	0.081838	0.542848	0.284795
H115	H	0.077980	0.454870	0.355464
H116	H	0.123463	0.435175	0.267213
H117	H	0.200337	0.470763	0.330976
H118	H	0.005827	0.542141	0.265590
H119	H	0.082680	0.577732	0.329361
H120	H	0.293042	0.801921	-0.796309
O121	O	0.159407	0.671074	-0.147833
C122	C	0.158186	0.619290	-0.213984
H123	H	0.120922	0.566001	-0.192010
H124	H	0.248999	0.603320	-0.237029
C125	C	0.130282	0.721735	-0.311785
C126	C	0.084505	0.656286	-0.284799
H127	H	0.084837	0.744555	-0.355469
H128	H	0.131109	0.756623	-0.267219
H129	H	0.205959	0.708417	-0.330983
H130	H	0.008836	0.669606	-0.265592
H131	H	0.083663	0.621401	-0.329363
H132	H	0.012642	0.987514	-0.639284
