data_functionalizedCrystal
_audit_creation_method	'MofGen! by Chris Wilmer'
_symmetry_space_group_name_H-M	'P1'
_symmetry_Int_Tables_number	1
_symmetry_cell_setting	triclinic
loop_
_symmetry_equiv_pos_as_xyz
  x,y,z
_cell_length_a	19.805407
_cell_length_b	17.638166
_cell_length_c	19.805399
_cell_angle_alpha	78.819502
_cell_angle_beta	90.020409
_cell_angle_gamma	101.246790
loop_
_atom_site_label
_atom_site_type_symbol
_atom_site_fract_x
_atom_site_fract_y
_atom_site_fract_z
Zn1	Zn	0.980230	-0.314681	0.437185
Zn2	Zn	1.313564	0.018652	0.770518
Zn3	Zn	1.646897	0.351986	1.103852
Zn4	Zn	0.957249	-0.446873	0.346870
Zn5	Zn	1.290582	-0.113539	0.680204
Zn6	Zn	1.623915	0.219794	1.013537
Zn7	Zn	0.867041	-0.314707	0.324012
Zn8	Zn	1.200374	0.018626	0.657346
Zn9	Zn	1.533707	0.351959	0.990679
Zn10	Zn	0.844118	-0.446835	0.460009
Zn11	Zn	1.177452	-0.113502	0.793342
Zn12	Zn	1.510785	0.219831	1.126676
O13	O	0.912159	-0.380774	0.392019
O14	O	1.245493	-0.047441	0.725353
O15	O	1.578826	0.285893	1.058686
O16	O	1.071898	-0.332221	0.425219
O17	O	1.405231	0.001112	0.758552
O18	O	1.738564	0.334445	1.091885
O19	O	0.945257	-0.429367	0.249126
O20	O	1.278591	-0.096034	0.582459
O21	O	1.611924	0.237299	0.915793
O22	O	0.901266	-0.204085	0.319907
O23	O	1.234600	0.129248	0.653240
O24	O	1.567933	0.462581	0.986574
O25	O	1.055013	-0.429342	0.358865
O26	O	1.388346	-0.096009	0.692198
O27	O	1.721680	0.237325	1.025532
O28	O	0.984426	-0.204066	0.403054
O29	O	1.317760	0.129267	0.736388
O30	O	1.651093	0.462601	1.069721
O31	O	0.878982	-0.332266	0.232333
O32	O	1.212315	0.001067	0.565666
O33	O	1.545648	0.334401	0.898999
O34	O	0.769284	-0.332230	0.342039
O35	O	1.102617	0.001104	0.675372
O36	O	1.435951	0.334437	1.008705
O37	O	0.862199	-0.429278	0.551693
O38	O	1.195532	-0.095945	0.885027
O39	O	1.528866	0.237389	1.218360
O40	O	0.752443	-0.429303	0.441954
O41	O	1.085777	-0.095970	0.775288
O42	O	1.419110	0.237363	1.108621
O43	O	0.962200	-0.332185	0.534925
O44	O	1.295533	0.001148	0.868258
O45	O	1.628867	0.334482	1.201591
O46	O	0.923031	-0.557486	0.380996
O47	O	1.256364	-0.224153	0.714330
O48	O	1.589697	0.109180	1.047663
O49	O	0.839914	-0.557459	0.464119
O50	O	1.173248	-0.224126	0.797452
O51	O	1.506581	0.109208	1.130785
C52	C	0.736305	-0.380766	0.391993
C53	C	1.069638	-0.047433	0.725327
C54	C	1.402972	0.285901	1.058660
C55	C	0.661070	-0.380781	0.392002
C56	C	0.994404	-0.047448	0.725335
C57	C	1.327737	0.285885	1.058668
C58	C	0.876510	-0.586155	0.427529
C59	C	1.209843	-0.252822	0.760863
C60	C	1.543176	0.080512	1.094196
C61	C	0.861321	-0.674018	0.442743
C62	C	1.194654	-0.340684	0.776077
C63	C	1.527987	-0.007351	1.109410
C64	C	0.208059	-0.330298	0.426678
C65	C	0.541393	0.003035	0.760012
C66	C	0.874726	0.336369	1.093345
C67	C	0.278748	-0.330299	0.426674
C68	C	0.612081	0.003034	0.760007
C69	C	0.945414	0.336367	1.093340
C70	C	0.305308	-0.380786	0.392043
C71	C	0.638641	-0.047453	0.725376
C72	C	0.971974	0.285881	1.058710
C73	C	0.261174	-0.431280	0.357421
C74	C	0.594508	-0.097947	0.690754
C75	C	0.927841	0.235386	1.024087
C76	C	0.190487	-0.431282	0.357430
C77	C	0.523820	-0.097949	0.690763
C78	C	0.857154	0.235384	1.024096
C79	C	0.546249	-0.431274	0.357384
C80	C	0.879582	-0.097941	0.690717
C81	C	1.212915	0.235392	1.024050
C82	C	0.616942	-0.431267	0.357376
C83	C	0.950275	-0.097933	0.690709
C84	C	1.283609	0.235400	1.024042
C85	C	0.634509	-0.330291	0.426628
C86	C	0.967843	0.003042	0.759961
C87	C	1.301176	0.336375	1.093294
C88	C	0.563822	-0.330293	0.426637
C89	C	0.897155	0.003040	0.759970
C90	C	1.230489	0.336373	1.093304
C91	C	0.519694	-0.380790	0.392018
C92	C	0.853028	-0.047457	0.725351
C93	C	1.186361	0.285877	1.058684
C94	C	0.443046	-0.380789	0.392024
C95	C	0.776379	-0.047456	0.725358
C96	C	1.109713	0.285878	1.058691
C97	C	0.381955	-0.380784	0.392032
C98	C	0.715289	-0.047450	0.725365
C99	C	1.048622	0.285883	1.058699
C100	C	0.796601	-0.797871	0.507429
C101	C	1.129935	-0.464537	0.840763
C102	C	1.463268	-0.131204	1.174096
C103	C	0.810879	-0.715310	0.493128
C104	C	1.144212	-0.381977	0.826462
C105	C	1.477546	-0.048643	1.159795
C106	C	0.897502	-0.715276	0.406636
C107	C	1.230835	-0.381943	0.739970
C108	C	1.564169	-0.048609	1.073303
C109	C	0.883229	-0.797838	0.420928
C110	C	1.216562	-0.464505	0.754261
C111	C	1.549896	-0.131171	1.087594
C112	C	0.832779	-0.839129	0.471325
C113	C	1.166112	-0.505796	0.804659
C114	C	1.499445	-0.172462	1.137992
C115	C	0.919406	-0.839096	0.384824
C116	C	1.252740	-0.505763	0.718157
C117	C	1.586073	-0.172430	1.051490
C118	C	0.905137	-0.921651	0.399116
C119	C	1.238470	-0.588318	0.732450
C120	C	1.571804	-0.254985	1.065783
C121	C	0.854690	-0.962948	0.449513
C122	C	1.188023	-0.629615	0.782846
C123	C	1.521357	-0.296281	1.116180
C124	C	0.818509	-0.921684	0.485618
C125	C	1.151842	-0.588350	0.818951
C126	C	1.485176	-0.255017	1.152285
C127	C	0.969860	-0.797804	0.334430
C128	C	1.303193	-0.464471	0.667763
C129	C	1.636527	-0.131137	1.001096
C130	C	1.006037	-0.839062	0.298326
C131	C	1.339371	-0.505729	0.631659
C132	C	1.672704	-0.172396	0.964992
C133	C	0.991765	-0.921619	0.312615
C134	C	1.325098	-0.588285	0.645948
C135	C	1.658431	-0.254952	0.979281
C136	C	0.941318	-0.962915	0.363011
C137	C	1.274651	-0.629582	0.696345
C138	C	1.607985	-0.296249	1.029678
C139	C	1.027946	-0.962883	0.276510
C140	C	1.361279	-0.629550	0.609843
C141	C	1.694612	-0.296216	0.943176
C142	C	1.013676	-1.045438	0.290802
C143	C	1.347010	-0.712104	0.624136
C144	C	1.680343	-0.378771	0.957469
C145	C	0.927049	-1.045470	0.377304
C146	C	1.260382	-0.712137	0.710637
C147	C	1.593715	-0.378804	1.043971
C148	C	1.088701	-0.380783	0.392046
C149	C	1.422034	-0.047450	0.725379
C150	C	1.755367	0.285884	1.058712
C151	C	1.163932	-0.380787	0.392057
C152	C	1.497265	-0.047453	0.725390
C153	C	1.830599	0.285880	1.058724
C154	C	0.912206	-0.380724	0.568553
C155	C	1.245539	-0.047391	0.901887
C156	C	1.578873	0.285942	1.235220
C157	C	0.912226	-0.380703	0.643782
C158	C	1.245559	-0.047370	0.977115
C159	C	1.578893	0.285964	1.310448
C160	C	0.947967	-0.174591	0.356385
C161	C	1.281300	0.158742	0.689718
C162	C	1.614634	0.492075	1.023052
C163	C	0.963226	-0.086729	0.341200
C164	C	1.296559	0.246605	0.674533
C165	C	1.629893	0.579938	1.007867
C166	C	0.912162	-0.380767	0.216162
C167	C	1.245495	-0.047433	0.549495
C168	C	1.578829	0.285900	0.882829
C169	C	0.912312	-0.380565	0.140895
C170	C	1.245645	-0.047232	0.474229
C171	C	1.578978	0.286101	0.807562
C172	C	0.964298	-0.330144	0.670395
C173	C	1.297631	0.003189	1.003728
C174	C	1.630964	0.336522	1.337062
C175	C	0.964309	-0.330121	0.741080
C176	C	1.297642	0.003212	1.074413
C177	C	1.630975	0.336545	1.407746
C178	C	0.912250	-0.380662	0.785150
C179	C	1.245583	-0.047328	1.118484
C180	C	1.578917	0.286005	1.451817
C181	C	0.860173	-0.431223	0.758532
C182	C	1.193506	-0.097890	1.091866
C183	C	1.526840	0.235444	1.425199
C184	C	0.860160	-0.431241	0.687848
C185	C	1.193493	-0.097908	1.021182
C186	C	1.526826	0.235425	1.354515
C187	C	0.860224	-0.431149	1.043593
C188	C	1.193557	-0.097816	1.376926
C189	C	1.526890	0.235517	1.710260
C190	C	0.860242	-0.431129	1.114282
C191	C	1.193575	-0.097795	1.447615
C192	C	1.526909	0.235538	1.780948
C193	C	0.964373	-0.330029	1.096824
C194	C	1.297706	0.003304	1.430158
C195	C	1.631039	0.336637	1.763491
C196	C	0.964360	-0.330048	1.026140
C197	C	1.297693	0.003286	1.359474
C198	C	1.631026	0.336619	1.692807
C199	C	0.912281	-0.380605	0.999528
C200	C	1.245614	-0.047272	1.332861
C201	C	1.578948	0.286061	1.666195
C202	C	0.912269	-0.380629	0.922884
C203	C	1.245602	-0.047295	1.256217
C204	C	1.578936	0.286038	1.589550
C205	C	0.912264	-0.380643	0.861794
C206	C	1.245597	-0.047310	1.195128
C207	C	1.578931	0.286023	1.528461
H208	H	0.186441	-0.289181	0.454874
H209	H	0.519774	0.044152	0.788207
H210	H	0.853108	0.377486	1.121541
H211	H	0.981478	-0.730583	0.322796
H212	H	1.314811	-0.397249	0.656129
H213	H	1.648145	-0.063916	0.989463
Cl214	Cl	0.863611	-1.097385	0.440649
Cl215	Cl	1.196944	-0.764052	0.773983
Cl216	Cl	1.530278	-0.430718	1.107316
H217	H	0.755523	-0.831492	0.548471
H218	H	1.088856	-0.498159	0.881805
H219	H	1.422189	-0.164825	1.215138
H220	H	0.817826	-0.472328	1.021936
H221	H	1.151159	-0.138995	1.355270
H222	H	1.484493	0.194339	1.688603
Cl223	Cl	0.836479	-1.066732	0.467211
Cl224	Cl	1.169812	-0.733398	0.800544
Cl225	Cl	1.503146	-0.400065	1.133877
Cl226	Cl	0.755072	-0.973599	0.548963
Cl227	Cl	1.088405	-0.640265	0.882297
Cl228	Cl	1.421738	-0.306932	1.215630
H229	H	0.781415	-0.681722	0.522534
H230	H	1.114749	-0.348388	0.855867
H231	H	1.448082	-0.015055	1.189200
Cl232	Cl	0.960925	-0.663360	0.343284
Cl233	Cl	1.294258	-0.330027	0.676617
Cl234	Cl	1.627592	0.003307	1.009951
H235	H	1.006776	-0.288860	1.118500
H236	H	1.340109	0.044474	1.451833
H237	H	1.673443	0.377807	1.785166
Cl238	Cl	1.069460	-0.787147	0.234973
Cl239	Cl	1.402794	-0.453813	0.568306
Cl240	Cl	1.736127	-0.120480	0.901640
Cl241	Cl	1.091374	-0.910965	0.213163
Cl242	Cl	1.424708	-0.577631	0.546497
Cl243	Cl	1.758041	-0.244298	0.879830
H244	H	0.282805	-0.472391	0.329227
H245	H	0.616138	-0.139057	0.662560
H246	H	0.949471	0.194276	0.995894
Cl247	Cl	0.794791	-0.494670	1.169685
Cl248	Cl	1.128124	-0.161336	1.503018
Cl249	Cl	1.461458	0.171997	1.836351
Cl250	Cl	1.059158	-1.097309	0.245415
Cl251	Cl	1.392491	-0.763976	0.578749
Cl252	Cl	1.725825	-0.430643	0.912082
H253	H	0.817784	-0.472371	0.794420
H254	H	1.151117	-0.139038	1.127753
H255	H	1.484450	0.194296	1.461086
Cl256	Cl	1.029798	-0.266593	0.774539
Cl257	Cl	1.363131	0.066740	1.107872
Cl258	Cl	1.696464	0.400073	1.441206
Cl259	Cl	0.794694	-0.494801	0.654391
Cl260	Cl	1.128027	-0.161468	0.987725
Cl261	Cl	1.461360	0.171865	1.321058
H262	H	0.314673	-0.289189	0.454869
H263	H	0.648007	0.044144	0.788202
H264	H	0.981340	0.377478	1.121536
H265	H	1.006692	-0.288991	0.634517
H266	H	1.340025	0.044343	0.967851
H267	H	1.673359	0.377676	1.301184
H268	H	1.006753	-0.288895	0.990261
H269	H	1.340087	0.044438	1.323594
H270	H	1.673420	0.377772	1.656928
H271	H	0.542202	-0.289179	0.454834
H272	H	0.875535	0.044154	0.788167
H273	H	1.208868	0.377488	1.121501
H274	H	0.638564	-0.472383	0.329174
H275	H	0.971897	-0.139049	0.662508
H276	H	1.305230	0.194284	0.995841
Cl277	Cl	0.689988	-0.266812	0.470154
Cl278	Cl	1.023321	0.066521	0.803487
Cl279	Cl	1.356655	0.399855	1.136820
Cl280	Cl	0.135011	-0.494763	0.313910
Cl281	Cl	0.468344	-0.161430	0.647244
Cl282	Cl	0.801677	0.171903	0.980577
Cl283	Cl	0.490787	-0.494733	0.313838
Cl284	Cl	0.824121	-0.161400	0.647172
Cl285	Cl	1.157454	0.171934	0.980505
