data_functionalizedCrystal
_audit_creation_method	'MofGen! by Chris Wilmer'
_symmetry_space_group_name_H-M	'P1'
_symmetry_Int_Tables_number	1
_symmetry_cell_setting	triclinic
loop_
_symmetry_equiv_pos_as_xyz
  x,y,z
_cell_length_a	13.635800
_cell_length_b	7.076093
_cell_length_c	9.582860
_cell_angle_alpha	106.722119
_cell_angle_beta	68.793233
_cell_angle_gamma	117.701465
loop_
_atom_site_label
_atom_site_type_symbol
_atom_site_fract_x
_atom_site_fract_y
_atom_site_fract_z
V1	V	-1.798852	0.664614	0.204670
O2	O	-1.776000	0.652365	-0.012291
O3	O	-1.795978	0.659682	0.408189
O4	O	-1.672008	0.954652	0.200444
O5	O	-1.900828	0.355353	0.196891
V6	V	-2.051202	0.627671	0.178846
O7	O	-1.906252	0.745652	0.261317
O8	O	-2.168900	0.546633	0.122200
O9	O	-1.942473	0.632603	-0.024672
O10	O	-2.132752	0.639921	0.395808
O11	O	-2.007925	0.936933	0.186625
O12	O	-2.066442	0.337633	0.183072
V13	V	-1.298852	0.664614	0.204670
O14	O	-1.276000	0.652365	-0.012291
O15	O	-1.295978	0.659682	0.408189
O16	O	-1.172008	0.954652	0.200444
O17	O	-1.400828	0.355353	0.196891
V18	V	-1.551202	0.627671	0.178846
O19	O	-1.406252	0.745652	0.261317
O20	O	-1.668900	0.546633	0.122200
O21	O	-1.442473	0.632603	-0.024672
O22	O	-1.632752	0.639921	0.395808
O23	O	-1.507925	0.936933	0.186625
O24	O	-1.566442	0.337633	0.183072
C25	C	-1.568858	1.025358	0.192830
C26	C	-1.504750	1.266919	0.190679
C27	C	-2.001266	0.266916	0.190684
C28	C	-2.054800	0.025353	0.192830
C29	C	-1.726987	0.649098	0.457836
C30	C	-1.764597	0.646998	0.624208
C31	C	-1.843137	0.643182	-0.074311
C32	C	-1.795142	0.645295	-0.240682
C33	C	-1.226987	0.649098	0.457836
C34	C	-1.264597	0.646998	0.624208
C35	C	-1.343137	0.643182	-0.074311
C36	C	-1.295142	0.645295	-0.240682
