data_functionalizedCrystal
_audit_creation_method	'MofGen! by Chris Wilmer'
_symmetry_space_group_name_H-M	'P1'
_symmetry_Int_Tables_number	1
_symmetry_cell_setting	triclinic
loop_
_symmetry_equiv_pos_as_xyz
  x,y,z
_cell_length_a	13.032831
_cell_length_b	12.759394
_cell_length_c	13.032268
_cell_angle_alpha	97.149444
_cell_angle_beta	90.886977
_cell_angle_gamma	82.819699
loop_
_atom_site_label
_atom_site_type_symbol
_atom_site_fract_x
_atom_site_fract_y
_atom_site_fract_z
Zn1	Zn	1.498516	-0.709531	-0.780836
Zn2	Zn	1.520266	-0.866066	-0.608856
Zn3	Zn	1.348372	-0.665642	-0.587076
Zn4	Zn	1.326514	-0.860386	-0.758981
O5	O	1.423417	-0.775406	-0.683937
O6	O	1.645323	-0.751041	-0.776283
O7	O	1.515714	-0.823489	-0.462050
O8	O	1.368334	-0.524452	-0.612811
O9	O	1.661303	-0.866047	-0.649930
O10	O	1.478644	-0.556698	-0.755165
O11	O	1.389424	-0.676238	-0.446049
O12	O	1.201551	-0.670730	-0.591619
O13	O	1.331080	-0.856365	-0.905797
O14	O	1.185492	-0.813807	-0.717916
O15	O	1.457449	-0.745533	-0.921853
O16	O	1.494519	-1.012324	-0.628738
O17	O	1.352170	-1.008150	-0.739035
C18	C	1.156204	-0.736890	-0.650033
C19	C	1.041886	-0.720441	-0.635554
C20	C	0.983013	-0.783991	-0.691494
C21	C	0.864859	-0.766992	-0.676530
C22	C	1.423358	-1.048362	-0.683904
C23	C	1.423423	-1.165151	-0.683937
C24	C	1.571737	-1.169469	-0.569196
C25	C	1.645919	-1.226494	-0.511841
C26	C	1.645976	-1.336227	-0.511877
C27	C	1.571844	-1.388938	-0.569276
C28	C	1.497662	-1.331913	-0.626631
C29	C	1.497612	-1.222177	-0.626586
C30	C	1.349354	-1.327597	-0.741376
C31	C	1.349291	-1.217862	-0.741336
C32	C	1.275223	-1.380309	-0.798775
C33	C	1.201034	-1.323282	-0.856125
C34	C	1.200980	-1.213542	-0.856086
C35	C	1.275109	-1.160838	-0.798690
C36	C	1.691673	-0.814073	-0.717974
C37	C	1.805988	-0.830551	-0.732478
C38	C	1.389400	-0.805211	-0.952184
C39	C	1.374904	-0.817912	-1.066495
C40	C	1.423501	-0.501391	-0.683996
C41	C	1.423537	-0.384622	-0.684021
C42	C	1.430966	-0.768737	-1.125403
C43	C	1.415986	-0.781863	-1.243550
C44	C	1.457360	-0.745650	-0.416741
C45	C	1.472056	-0.732682	-0.302456
H46	H	0.827794	-0.699990	-0.617559
C47	C	0.856055	-0.921063	-0.812153
N48	N	0.893767	-0.989237	-0.872161
C49	C	1.295074	-0.887914	-1.116521
N50	N	1.234943	-0.940640	-1.154199
C51	C	0.991812	-0.629933	-0.555885
N52	N	0.954098	-0.561761	-0.495876
C53	C	1.727458	-1.168502	-0.448702
N54	N	1.788873	-1.124826	-0.401146
H55	H	1.531142	-0.680853	-1.265427
C56	C	1.033087	-0.874501	-0.771161
N57	N	1.070802	-0.942676	-0.831166
H58	H	1.490050	-0.716915	-1.088369
H59	H	1.275278	-1.469661	-0.798805
H60	H	1.140575	-1.167119	-0.902796
C61	C	1.727579	-1.398956	-0.448784
N62	N	1.789042	-1.446203	-0.401261
C63	C	1.571673	-1.048757	-0.569141
N64	N	1.571627	-0.957835	-0.569098
H65	H	1.356887	-0.833677	-1.280578
C66	C	1.119497	-1.381271	-0.919255
N67	N	1.058079	-1.424952	-0.966802
H68	H	1.571905	-1.478291	-0.569310
H69	H	1.275066	-1.071485	-0.798646
