data_functionalizedCrystal
_audit_creation_method	'MofGen! by Chris Wilmer'
_symmetry_space_group_name_H-M	'P1'
_symmetry_Int_Tables_number	1
_symmetry_cell_setting	triclinic
loop_
_symmetry_equiv_pos_as_xyz
  x,y,z
_cell_length_a	19.188930
_cell_length_b	19.188930
_cell_length_c	13.596369
_cell_angle_alpha	89.988893
_cell_angle_beta	89.980792
_cell_angle_gamma	83.144779
loop_
_atom_site_label
_atom_site_type_symbol
_atom_site_fract_x
_atom_site_fract_y
_atom_site_fract_z
O1	O	0.926146	0.087169	-0.082119
O2	O	1.176146	0.337169	0.167881
O3	O	1.426146	0.587169	0.417881
O4	O	1.676146	0.837169	0.667881
O5	O	0.722834	0.098903	-0.082053
O6	O	0.972834	0.348903	0.167947
O7	O	1.222834	0.598903	0.417947
O8	O	1.472834	0.848903	0.667947
O9	O	0.830357	-0.008620	-0.082068
O10	O	1.080357	0.241380	0.167932
O11	O	1.330357	0.491380	0.417932
O12	O	1.580357	0.741380	0.667932
O13	O	0.818623	0.194692	-0.082103
O14	O	1.068623	0.444692	0.167897
O15	O	1.318623	0.694692	0.417897
O16	O	1.568623	0.944692	0.667897
O17	O	0.830346	-0.008625	0.081515
O18	O	1.080346	0.241375	0.331515
O19	O	1.330346	0.491375	0.581515
O20	O	1.580346	0.741375	0.831515
O21	O	0.722824	0.098897	0.081530
O22	O	0.972824	0.348897	0.331530
O23	O	1.222824	0.598897	0.581530
O24	O	1.472824	0.848897	0.831530
O25	O	0.926135	0.087163	0.081464
O26	O	1.176135	0.337163	0.331464
O27	O	1.426135	0.587163	0.581464
O28	O	1.676135	0.837163	0.831464
Zn29	Zn	0.824478	0.093029	0.107470
Zn30	Zn	1.074478	0.343029	0.357470
Zn31	Zn	1.324478	0.593029	0.607470
Zn32	Zn	1.574478	0.843029	0.857470
Zn33	Zn	0.824492	0.093037	-0.108058
Zn34	Zn	1.074492	0.343037	0.141942
Zn35	Zn	1.324492	0.593037	0.391942
Zn36	Zn	1.574492	0.843037	0.641942
O37	O	0.818612	0.194686	0.081480
O38	O	1.068612	0.444686	0.331480
O39	O	1.318612	0.694686	0.581480
O40	O	1.568612	0.944686	0.831480
C41	C	0.696818	0.098520	-0.000252
C42	C	0.946818	0.348520	0.249748
C43	C	1.196818	0.598520	0.499748
C44	C	1.446818	0.848520	0.749748
C45	C	0.619313	0.097380	-0.000226
C46	C	0.869313	0.347380	0.249774
C47	C	1.119313	0.597380	0.499774
C48	C	1.369313	0.847380	0.749774
C49	C	0.574389	0.160470	-0.000253
C50	C	0.824389	0.410470	0.249747
C51	C	1.074389	0.660470	0.499747
C52	C	1.324389	0.910470	0.749747
C53	C	0.501566	0.159399	-0.000263
C54	C	0.751566	0.409399	0.249737
C55	C	1.001566	0.659399	0.499737
C56	C	1.251566	0.909399	0.749737
C57	C	0.473669	0.095233	-0.000267
C58	C	0.723669	0.345233	0.249733
C59	C	0.973669	0.595233	0.499733
C60	C	1.223669	0.845233	0.749733
C61	C	0.518603	0.032133	-0.000236
C62	C	0.768603	0.282133	0.249764
C63	C	1.018603	0.532133	0.499764
C64	C	1.268603	0.782133	0.749764
C65	C	0.591425	0.033207	-0.000215
C66	C	0.841425	0.283207	0.249785
C67	C	1.091425	0.533207	0.499785
C68	C	1.341425	0.783207	0.749785
N69	N	0.365693	0.046188	-0.055973
N70	N	0.615693	0.296188	0.194027
N71	N	0.865693	0.546188	0.444027
N72	N	1.115693	0.796188	0.694027
N73	N	0.296514	0.045172	-0.055995
N74	N	0.546514	0.295172	0.194005
N75	N	0.796514	0.545172	0.444005
N76	N	1.046514	0.795172	0.694005
C77	C	0.254260	0.091994	-0.000327
C78	C	0.504260	0.341994	0.249673
C79	C	0.754260	0.591994	0.499673
C80	C	1.004260	0.841994	0.749673
N81	N	0.283798	0.139881	0.055351
N82	N	0.533798	0.389881	0.305351
N83	N	0.783798	0.639881	0.555351
N84	N	1.033798	0.889881	0.805351
N85	N	0.352982	0.140899	0.055368
N86	N	0.602982	0.390899	0.305368
N87	N	0.852982	0.640899	0.555368
N88	N	1.102982	0.890899	0.805368
C89	C	0.394707	0.094062	-0.000289
C90	C	0.644707	0.344062	0.249711
C91	C	0.894707	0.594062	0.499711
C92	C	1.144707	0.844062	0.749711
C93	C	0.130372	0.153928	-0.000363
C94	C	0.380372	0.403928	0.249637
C95	C	0.630372	0.653928	0.499637
C96	C	0.880372	0.903928	0.749637
C97	C	0.057547	0.152853	-0.000368
C98	C	0.307547	0.402853	0.249632
C99	C	0.557547	0.652853	0.499632
C100	C	0.807547	0.902853	0.749632
C101	C	0.074586	0.025586	-0.000350
C102	C	0.324586	0.275586	0.249650
C103	C	0.574586	0.525586	0.499650
C104	C	0.824586	0.775586	0.749650
C105	C	0.147409	0.026662	-0.000336
C106	C	0.397409	0.276662	0.249664
C107	C	0.647409	0.526662	0.499664
C108	C	0.897409	0.776662	0.749664
C109	C	0.175298	0.090835	-0.000347
C110	C	0.425298	0.340835	0.249653
C111	C	0.675298	0.590835	0.499653
C112	C	0.925298	0.840835	0.749653
C113	C	0.829972	-0.034634	-0.000274
C114	C	1.079972	0.215366	0.249726
C115	C	1.329972	0.465366	0.499726
C116	C	1.579972	0.715366	0.749726
C117	C	0.828831	-0.112138	-0.000265
C118	C	1.078831	0.137862	0.249735
C119	C	1.328831	0.387862	0.499735
C120	C	1.578831	0.637862	0.749735
C121	C	0.891922	-0.157062	-0.000281
C122	C	1.141922	0.092938	0.249719
C123	C	1.391922	0.342938	0.499719
C124	C	1.641922	0.592938	0.749719
C125	C	0.890850	-0.229886	-0.000296
C126	C	1.140850	0.020114	0.249704
C127	C	1.390850	0.270114	0.499704
C128	C	1.640850	0.520114	0.749704
C129	C	0.826684	-0.257782	-0.000276
C130	C	1.076684	-0.007782	0.249724
C131	C	1.326684	0.242218	0.499724
C132	C	1.576684	0.492218	0.749724
C133	C	0.763585	-0.212849	-0.000266
C134	C	1.013585	0.037151	0.249734
C135	C	1.263585	0.287151	0.499734
C136	C	1.513585	0.537151	0.749734
C137	C	0.764658	-0.140026	-0.000260
C138	C	1.014658	0.109974	0.249740
C139	C	1.264658	0.359974	0.499740
C140	C	1.514658	0.609974	0.749740
N141	N	0.777633	-0.365789	0.055410
N142	N	1.027633	-0.115789	0.305410
N143	N	1.277633	0.134211	0.555410
N144	N	1.527633	0.384211	0.805410
N145	N	0.776618	-0.434968	0.055407
N146	N	1.026618	-0.184968	0.305407
N147	N	1.276618	0.065032	0.555407
N148	N	1.526618	0.315032	0.805407
C149	C	0.823446	-0.477191	-0.000295
C150	C	1.073446	-0.227191	0.249705
C151	C	1.323446	0.022809	0.499705
C152	C	1.573446	0.272809	0.749705
N153	N	0.871339	-0.447624	-0.055981
N154	N	1.121339	-0.197624	0.194019
N155	N	1.371339	0.052376	0.444019
N156	N	1.621339	0.302376	0.694019
N157	N	0.872356	-0.378439	-0.055974
N158	N	1.122356	-0.128439	0.194026
N159	N	1.372356	0.121561	0.444026
N160	N	1.622356	0.371561	0.694026
C161	C	0.825513	-0.336745	-0.000283
C162	C	1.075513	-0.086745	0.249717
C163	C	1.325513	0.163255	0.499717
C164	C	1.575513	0.413255	0.749717
C165	C	0.885379	-0.601079	-0.000329
C166	C	1.135379	-0.351079	0.249671
C167	C	1.385379	-0.101079	0.499671
C168	C	1.635379	0.148921	0.749671
C169	C	0.884305	-0.673904	-0.000350
C170	C	1.134305	-0.423904	0.249650
C171	C	1.384305	-0.173904	0.499650
C172	C	1.634305	0.076096	0.749650
C173	C	0.757038	-0.656865	-0.000310
C174	C	1.007038	-0.406865	0.249690
C175	C	1.257038	-0.156865	0.499690
C176	C	1.507038	0.093135	0.749690
C177	C	0.758114	-0.584042	-0.000298
C178	C	1.008114	-0.334042	0.249702
C179	C	1.258114	-0.084042	0.499702
C180	C	1.508114	0.165958	0.749702
C181	C	0.822286	-0.556154	-0.000303
C182	C	1.072286	-0.306154	0.249697
C183	C	1.322286	-0.056154	0.499697
C184	C	1.572286	0.193846	0.749697
C185	C	0.952151	0.087546	-0.000338
C186	C	1.202151	0.337546	0.249662
C187	C	1.452151	0.587546	0.499662
C188	C	1.702151	0.837546	0.749662
C189	C	1.029656	0.088687	-0.000370
C190	C	1.279656	0.338687	0.249630
C191	C	1.529656	0.588687	0.499630
C192	C	1.779656	0.838687	0.749630
C193	C	0.818997	0.220700	-0.000317
C194	C	1.068997	0.470700	0.249683
C195	C	1.318997	0.720700	0.499683
C196	C	1.568997	0.970700	0.749683
C197	C	0.820138	0.298204	-0.000332
C198	C	1.070138	0.548204	0.249668
C199	C	1.320138	0.798204	0.499668
C200	C	1.570138	1.048204	0.749668
N201	N	0.824473	0.093024	0.254561
N202	N	1.074473	0.343024	0.504561
N203	N	1.324473	0.593024	0.754561
N204	N	1.574473	0.843024	1.004561
N205	N	0.824502	0.093037	-0.255150
N206	N	1.074502	0.343037	-0.005150
N207	N	1.324502	0.593037	0.244850
N208	N	1.574502	0.843037	0.494850
C209	C	0.824491	0.093038	0.655852
C210	C	1.074491	0.343038	0.905852
C211	C	1.324491	0.593038	1.155852
C212	C	1.574491	0.843038	1.405852
C213	C	0.824484	0.093036	0.544201
C214	C	1.074484	0.343036	0.794201
C215	C	1.324484	0.593036	1.044201
C216	C	1.574484	0.843036	1.294201
C217	C	0.824482	0.093031	0.455211
C218	C	1.074482	0.343031	0.705211
C219	C	1.324482	0.593031	0.955211
C220	C	1.574482	0.843031	1.205211
C221	C	0.824475	0.093029	0.343552
C222	C	1.074475	0.343029	0.593552
C223	C	1.324475	0.593029	0.843552
C224	C	1.574475	0.843029	1.093552
H225	H	0.020970	0.204232	-0.000384
H226	H	0.270970	0.454232	0.249616
H227	H	0.520970	0.704232	0.499616
H228	H	0.770970	0.954232	0.749616
O229	O	0.687830	-0.686947	-0.000282
O230	O	0.937830	-0.436947	0.249718
O231	O	1.187830	-0.186947	0.499718
O232	O	1.437830	0.063053	0.749718
H233	H	0.657528	-0.668879	-0.066948
H234	H	0.907528	-0.418879	0.183052
H235	H	1.157528	-0.168879	0.433052
H236	H	1.407528	0.081121	0.683052
H237	H	0.183988	-0.024713	-0.000320
H238	H	0.433988	0.225287	0.249680
H239	H	0.683988	0.475287	0.499680
H240	H	0.933988	0.725287	0.749680
H241	H	0.495885	-0.020111	-0.000253
H242	H	0.745885	0.229889	0.249747
H243	H	0.995885	0.479889	0.499747
H244	H	1.245885	0.729889	0.749747
O245	O	0.453105	0.227453	-0.000295
O246	O	0.703105	0.477453	0.249705
O247	O	0.953105	0.727453	0.499705
O248	O	1.203105	0.977453	0.749705
H249	H	0.419498	0.230012	0.066372
H250	H	0.669498	0.480012	0.316372
H251	H	0.919498	0.730012	0.566372
H252	H	1.169498	0.980012	0.816372
H253	H	0.153080	0.206181	-0.000358
H254	H	0.403080	0.456181	0.249642
H255	H	0.653080	0.706181	0.499642
H256	H	0.903080	0.956181	0.749642
O257	O	0.958903	-0.278348	-0.000299
O258	O	1.208903	-0.028348	0.249701
O259	O	1.458903	0.221652	0.499701
O260	O	1.708903	0.471652	0.749701
H261	H	0.947374	-0.333671	-0.000304
H262	H	1.197374	-0.083671	0.249696
H263	H	1.447374	0.166329	0.499696
H264	H	1.697374	0.416329	0.749696
O265	O	0.690066	-0.535581	-0.000257
O266	O	0.940066	-0.285581	0.249743
O267	O	1.190066	-0.035581	0.499743
O268	O	1.440066	0.214419	0.749743
H269	H	0.645266	-0.567211	-0.000234
H270	H	0.895266	-0.317211	0.249766
H271	H	1.145266	-0.067211	0.499766
H272	H	1.395266	0.182789	0.749766
H273	H	0.711340	-0.235567	-0.000252
H274	H	0.961340	0.014433	0.249748
H275	H	1.211340	0.264433	0.499748
H276	H	1.461340	0.514433	0.749748
H277	H	0.597091	0.212725	-0.000264
H278	H	0.847091	0.462725	0.249736
H279	H	1.097091	0.712725	0.499736
H280	H	1.347091	0.962725	0.749736
H281	H	0.051874	-0.026659	-0.000415
H282	H	0.301874	0.223341	0.249585
H283	H	0.551874	0.473341	0.499585
H284	H	0.801874	0.723341	0.749585
H285	H	0.944176	-0.134360	-0.000288
H286	H	1.194176	0.115640	0.249712
H287	H	1.444176	0.365640	0.499712
H288	H	1.694176	0.615640	0.749712
O289	O	0.639886	-0.034843	-0.000192
O290	O	0.889886	0.215157	0.249808
O291	O	1.139886	0.465157	0.499808
O292	O	1.389886	0.715157	0.749808
H293	H	0.608257	-0.079644	-0.000199
H294	H	0.858257	0.170356	0.249801
H295	H	1.108257	0.420356	0.499801
H296	H	1.358257	0.670356	0.749801
O297	O	0.696608	-0.091565	-0.000226
O298	O	0.946608	0.158435	0.249774
O299	O	1.196608	0.408435	0.499774
O300	O	1.446608	0.658435	0.749774
H301	H	0.651807	-0.123194	-0.000208
H302	H	0.901807	0.126806	0.249792
H303	H	1.151807	0.376806	0.499792
H304	H	1.401807	0.626806	0.749792
O305	O	0.954589	-0.570991	-0.000354
O306	O	1.204589	-0.320991	0.249646
O307	O	1.454589	-0.070991	0.499646
O308	O	1.704589	0.179009	0.749646
H309	H	0.998282	-0.614467	-0.000386
H310	H	1.248282	-0.364467	0.249614
H311	H	1.498282	-0.114467	0.499614
H312	H	1.748282	0.135533	0.749614
O313	O	0.952356	-0.722364	-0.000359
O314	O	1.202356	-0.472364	0.249641
O315	O	1.452356	-0.222364	0.499641
O316	O	1.702356	0.027636	0.749641
H317	H	0.997156	-0.690734	-0.000349
H318	H	1.247156	-0.440734	0.249651
H319	H	1.497156	-0.190734	0.499651
H320	H	1.747156	0.059266	0.749651
