data_functionalizedCrystal
_audit_creation_method	'MofGen! by Chris Wilmer'
_symmetry_space_group_name_H-M	'P1'
_symmetry_Int_Tables_number	1
_symmetry_cell_setting	triclinic
loop_
_symmetry_equiv_pos_as_xyz
  x,y,z
_cell_length_a	27.731994
_cell_length_b	19.288865
_cell_length_c	18.366186
_cell_angle_alpha	89.987206
_cell_angle_beta	89.993010
_cell_angle_gamma	97.121609
loop_
_atom_site_label
_atom_site_type_symbol
_atom_site_fract_x
_atom_site_fract_y
_atom_site_fract_z
O1	O	0.641189	-0.082473	0.060454
O2	O	0.500430	-0.095079	0.060479
O3	O	0.574877	0.012381	0.060452
O4	O	0.566743	-0.189932	0.060482
O5	O	0.574879	0.012392	-0.060648
O6	O	0.500432	-0.095068	-0.060620
O7	O	0.641191	-0.082462	-0.060645
Zn8	Zn	0.570812	-0.088764	-0.079860
Zn9	Zn	0.570810	-0.088777	0.079694
O10	O	0.566744	-0.189922	-0.060618
C11	C	0.482423	-0.094815	-0.000067
C12	C	0.428764	-0.094035	-0.000058
C13	C	0.096032	-0.089122	-0.066098
C14	C	-0.105635	-0.086159	-0.066107
O15	O	-0.131708	-0.085741	-0.122247
N16	N	-0.130852	-0.085797	-0.000096
C17	C	-0.105649	-0.086171	0.065922
O18	O	-0.131724	-0.085787	0.122068
C19	C	0.096018	-0.089128	0.065930
C20	C	0.121232	-0.089497	-0.000085
C21	C	0.121246	-0.089490	-0.132108
C22	C	0.171659	-0.090234	-0.132106
C23	C	0.196859	-0.090610	-0.066093
C24	C	0.171645	-0.090242	-0.000083
C25	C	0.121221	-0.089497	0.131947
C26	C	0.171641	-0.090234	0.131944
C27	C	0.196855	-0.090604	0.065928
C28	C	0.247258	-0.091362	0.065933
N29	N	0.272475	-0.091724	-0.000078
C30	C	0.247275	-0.091348	-0.066091
C31	C	-0.211527	-0.084619	0.065913
C32	C	-0.261943	-0.083881	0.065912
C33	C	-0.261926	-0.083868	-0.066118
C34	C	-0.211509	-0.084612	-0.066115
C35	C	-0.186310	-0.084982	-0.000098
C36	C	0.353147	-0.092912	-0.066080
C37	C	0.403565	-0.093660	-0.066071
C38	C	0.403543	-0.093669	0.065958
C39	C	0.353130	-0.092925	0.065950
C40	C	0.327933	-0.092544	-0.000075
O41	O	0.273363	-0.091772	0.122044
O42	O	0.273361	-0.091716	-0.122229
C43	C	0.045619	-0.088377	-0.066101
C44	C	0.020405	-0.088009	-0.000091
C45	C	0.045604	-0.088384	0.065922
C46	C	-0.030012	-0.087271	-0.000093
C47	C	-0.055211	-0.086895	-0.066106
C48	C	-0.029994	-0.087257	-0.132117
C49	C	0.020419	-0.088001	-0.132114
C50	C	0.020388	-0.088022	0.131933
C51	C	-0.030026	-0.087279	0.131925
C52	C	-0.055226	-0.086903	0.065912
C53	C	0.574616	0.038261	-0.000100
C54	C	0.573831	0.115360	-0.000107
C55	C	0.659198	-0.082726	-0.000097
C56	C	0.712857	-0.083505	-0.000101
N57	N	0.570817	-0.088754	-0.188751
C58	C	0.567005	-0.215802	-0.000064
C59	C	0.567791	-0.292900	-0.000053
C60	C	0.617513	0.160341	-0.000118
C61	C	0.616774	0.232783	-0.000106
C62	C	0.572352	0.260241	-0.000098
C63	C	0.528664	0.215250	-0.000082
C64	C	0.529403	0.142809	-0.000087
C65	C	0.537431	0.368304	-0.042510
C66	C	0.536693	0.440744	-0.042510
C67	C	0.570069	0.483672	-0.000081
C68	C	0.604191	0.454152	0.042339
C69	C	0.604931	0.381712	0.042334
C70	C	0.571545	0.338790	-0.000093
C71	C	0.612954	0.607203	-0.000079
C72	C	0.612214	0.679647	-0.000063
C73	C	0.524102	0.662112	-0.000046
C74	C	0.524844	0.589671	-0.000055
C75	C	0.569271	0.562221	-0.000075
N76	N	0.570808	-0.088781	0.188585
C77	C	0.603832	-0.041290	0.226673
C78	C	0.603836	-0.041288	0.302901
C79	C	0.570808	-0.088772	0.341038
C80	C	0.537782	-0.136272	0.302940
C81	C	0.537782	-0.136277	0.226714
C82	C	0.526765	-0.098204	0.461814
C83	C	0.526764	-0.098194	0.538039
C84	C	0.570809	-0.088761	0.576145
C85	C	0.614856	-0.079323	0.538018
C86	C	0.614856	-0.079328	0.461791
C87	C	0.570805	-0.088772	0.423692
C88	C	0.603840	-0.041266	0.696888
C89	C	0.603845	-0.041269	0.773117
C90	C	0.537786	-0.136250	0.773156
C91	C	0.537786	-0.136250	0.696928
C92	C	0.570812	-0.088754	0.658799
H93	H	0.424070	-0.093978	0.119704
N94	N	0.639466	0.009948	0.655759
H95	H	0.634454	0.002742	0.601690
H96	H	0.634061	0.059196	0.669071
N97	N	-0.289134	-0.083484	0.137115
H98	H	-0.324897	-0.082958	0.127104
H99	H	-0.284337	-0.126690	0.165951
N100	N	0.482289	0.094285	-0.000088
H101	H	0.480631	0.063822	0.044799
H102	H	0.454060	0.122714	-0.000109
N103	N	0.639464	0.009925	0.185558
H104	H	0.621115	0.040556	0.153921
H105	H	0.660375	0.039955	0.221313
N106	N	0.047557	-0.088433	0.203141
H107	H	0.064456	-0.131818	0.206095
H108	H	0.072466	-0.045640	0.206048
H109	H	-0.282452	-0.083564	-0.119868
H110	H	0.632713	0.357680	0.076875
H111	H	-0.191014	-0.084920	0.119676
H112	H	0.631369	0.489103	0.076889
N113	N	0.502160	-0.187463	0.655841
H114	H	0.481235	-0.217541	0.691565
H115	H	0.480893	-0.161016	0.624215
N116	N	0.094034	-0.089089	0.203150
H117	H	0.098793	-0.132289	0.232025
H118	H	0.106842	-0.046112	0.231932
H119	H	0.630729	-0.002614	0.333918
H120	H	-0.190984	-0.084913	-0.119871
H121	H	0.650721	-0.071647	0.569042
H122	H	0.653689	0.137996	-0.000132
H123	H	0.100734	-0.089182	-0.185867
H124	H	-0.050521	-0.086954	-0.185867
N125	N	0.662360	-0.069164	0.420669
H126	H	0.655674	-0.070600	0.366599
H127	H	0.680842	-0.022447	0.433971
H128	H	0.424091	-0.093963	-0.119831
H129	H	0.192156	-0.090536	0.185704
H130	H	0.492495	0.237611	-0.000074
N131	N	0.663890	0.281310	-0.000117
H132	H	0.692146	0.252929	-0.000129
H133	H	0.665498	0.311758	-0.045010
H134	H	0.510891	-0.174935	0.333995
N135	N	0.639468	0.009952	0.814202
H136	H	0.660387	0.040038	0.778478
H137	H	0.621074	0.040527	0.845826
N138	N	0.660869	0.577590	-0.000097
H139	H	0.688430	0.617081	-0.000097
H140	H	0.663094	0.547900	0.044791
H141	H	0.510890	-0.174951	0.195702
H142	H	0.332637	-0.092609	-0.119844
H143	H	0.332599	-0.092636	0.119705
H144	H	0.510897	-0.174914	0.804206
N145	N	0.047610	-0.088402	-0.203317
H146	H	0.023990	-0.088051	-0.245130
H147	H	0.072544	-0.045635	-0.206206
N148	N	0.198850	-0.090633	-0.203308
H149	H	0.175230	-0.090281	-0.245122
H150	H	0.223784	-0.047864	-0.206195
H151	H	0.490896	-0.105889	0.430793
N152	N	-0.057220	-0.086879	0.203130
H153	H	-0.052465	-0.130082	0.232003
H154	H	-0.044414	-0.043905	0.231918
N155	N	0.659330	0.728166	-0.000072
H156	H	0.687585	0.699781	-0.000088
H157	H	0.660939	0.758617	-0.044963
H158	H	0.487932	0.684468	-0.000036
H159	H	0.490899	-0.105871	0.569076
N160	N	0.477731	0.541146	-0.000051
H161	H	0.458340	0.549908	0.044844
H162	H	0.458381	0.549955	-0.044969
N163	N	0.499898	0.472582	-0.088269
H164	H	0.478864	0.434396	-0.115143
H165	H	0.478865	0.498509	-0.055724
H166	H	0.510251	0.333358	-0.077065
