data_functionalizedCrystal
_audit_creation_method	'MofGen! by Chris Wilmer'
_symmetry_space_group_name_H-M	'P1'
_symmetry_Int_Tables_number	1
_symmetry_cell_setting	triclinic
loop_
_symmetry_equiv_pos_as_xyz
  x,y,z
_cell_length_a	12.827893
_cell_length_b	29.839131
_cell_length_c	12.827885
_cell_angle_alpha	89.963179
_cell_angle_beta	89.980728
_cell_angle_gamma	90.041391
loop_
_atom_site_label
_atom_site_type_symbol
_atom_site_fract_x
_atom_site_fract_y
_atom_site_fract_z
Zn1	Zn	1.597481	-0.178832	-0.590798
Zn2	Zn	1.597295	-0.253969	-0.416036
Zn3	Zn	1.422722	-0.178854	-0.416071
Zn4	Zn	1.422628	-0.253936	-0.590736
O5	O	1.510031	-0.216398	-0.503410
O6	O	1.743692	-0.188804	-0.567626
O7	O	1.574100	-0.244028	-0.269805
O8	O	1.446021	-0.115984	-0.439289
O9	O	1.743556	-0.244007	-0.439230
O10	O	1.574415	-0.115968	-0.567660
O11	O	1.445841	-0.188841	-0.269830
O12	O	1.276473	-0.188809	-0.439230
O13	O	1.445861	-0.243950	-0.736981
O14	O	1.276404	-0.243971	-0.567556
O15	O	1.574324	-0.188771	-0.737026
O16	O	1.574008	-0.316832	-0.439170
O17	O	1.445681	-0.316807	-0.567522
C18	C	1.238522	-0.216389	-0.503390
C19	C	1.122368	-0.216396	-0.503407
C20	C	1.070577	-0.243735	-0.566808
C21	C	0.950527	-0.243743	-0.566827
C22	C	1.509843	-0.333120	-0.503359
C23	C	1.509858	-0.383055	-0.503371
C24	C	1.576973	-0.692698	-0.436675
C25	C	1.577102	-0.880371	-0.436716
O26	O	1.634016	-0.904636	-0.379969
N27	N	1.510248	-0.903840	-0.503489
C28	C	1.443362	-0.880387	-0.570262
O29	O	1.386509	-0.904655	-0.627065
C30	C	1.443239	-0.692715	-0.570226
C31	C	1.510090	-0.669249	-0.503441
C32	C	1.643819	-0.669232	-0.369897
C33	C	1.643782	-0.622317	-0.369883
C34	C	1.576899	-0.598867	-0.436648
C35	C	1.510053	-0.622333	-0.503427
C36	C	1.376359	-0.669263	-0.637003
C37	C	1.376336	-0.622342	-0.636990
C38	C	1.443187	-0.598876	-0.570205
C39	C	1.443133	-0.551969	-0.570179
N40	N	1.509987	-0.528500	-0.503406
C41	C	1.576870	-0.551949	-0.436641
C42	C	1.443430	-0.978918	-0.570274
C43	C	1.443459	-1.025835	-0.570282
C44	C	1.577201	-1.025816	-0.436738
C45	C	1.577165	-0.978898	-0.436725
C46	C	1.510284	-0.955449	-0.503501
C47	C	1.576787	-0.453424	-0.436617
C48	C	1.576741	-0.406504	-0.436606
C49	C	1.443004	-0.406527	-0.570154
C50	C	1.443045	-0.453443	-0.570161
C51	C	1.509945	-0.476890	-0.503389
O52	O	1.386257	-0.527675	-0.626905
O53	O	1.633731	-0.527674	-0.379862
C54	C	1.577010	-0.739614	-0.436689
C55	C	1.510164	-0.763080	-0.503468
C56	C	1.443281	-0.739630	-0.570233
C57	C	1.510193	-0.809997	-0.503476
C58	C	1.577076	-0.833447	-0.436710
C59	C	1.643930	-0.809978	-0.369937
C60	C	1.643893	-0.763063	-0.369924
C61	C	1.376427	-0.763099	-0.637006
C62	C	1.376468	-0.810014	-0.637013
C63	C	1.443351	-0.833464	-0.570248
C64	C	1.782602	-0.216407	-0.503431
C65	C	1.898755	-0.216410	-0.503440
C66	C	1.510103	-0.216354	-0.775981
C67	C	1.510133	-0.216336	-0.892134
C68	C	1.510249	-0.099219	-0.503485
C69	C	1.510342	-0.049285	-0.503517
C70	C	1.573708	-0.189027	-0.943941
C71	C	1.573740	-0.189007	-1.063991
C72	C	1.510021	-0.216408	-0.231900
C73	C	1.510193	-0.216300	-0.115748
H74	H	1.631178	-0.387399	-0.382218
Cl75	Cl	1.053617	-0.180264	-0.419624
Cl76	Cl	1.660889	-0.482893	-0.352671
Cl77	Cl	1.727913	-0.698703	-0.285952
H78	H	1.115113	-0.267133	-0.621079
Cl79	Cl	1.661211	-0.949402	-0.352766
Cl80	Cl	1.426158	-0.252404	-1.046975
Cl81	Cl	0.881767	-0.279884	-0.650631
H82	H	0.943287	-0.193005	-0.449153
H83	H	1.698221	-0.603213	-0.315504
H84	H	1.455722	-0.239699	-0.936657
H85	H	1.631660	-1.044917	-0.382375
H86	H	1.389013	-1.044938	-0.624656
H87	H	1.388964	-0.959829	-0.624653
Cl88	Cl	1.657682	-0.152938	-0.875210
Cl89	Cl	1.292325	-0.698752	-0.720979
H90	H	1.321964	-0.744010	-0.691376
Cl91	Cl	1.358982	-0.482944	-0.654099
Cl92	Cl	1.358932	-0.377039	-0.654089
Cl93	Cl	1.292252	-0.592867	-0.720944
Cl94	Cl	1.727944	-0.733570	-0.285965
H95	H	1.698386	-0.829079	-0.315572
Cl96	Cl	1.292417	-0.839509	-0.720980
Cl97	Cl	1.657785	-0.152910	-1.132771
