data_functionalizedCrystal
_audit_creation_method	'MofGen! by Chris Wilmer'
_symmetry_space_group_name_H-M	'P1'
_symmetry_Int_Tables_number	1
_symmetry_cell_setting	triclinic
loop_
_symmetry_equiv_pos_as_xyz
  x,y,z
_cell_length_a	21.295418
_cell_length_b	21.295417
_cell_length_c	21.295411
_cell_angle_alpha	90.021644
_cell_angle_beta	90.043738
_cell_angle_gamma	90.046319
loop_
_atom_site_label
_atom_site_type_symbol
_atom_site_fract_x
_atom_site_fract_y
_atom_site_fract_z
Zn1	Zn	0.962356	-0.250415	0.356234
Zn2	Zn	0.962258	-0.355667	0.250959
Zn3	Zn	0.857079	-0.250445	0.250943
Zn4	Zn	0.857048	-0.355680	0.356155
O5	O	0.909685	-0.303052	0.303573
O6	O	1.050432	-0.264360	0.342308
O7	O	0.948278	-0.341716	0.162867
O8	O	0.871098	-0.162351	0.264937
O9	O	1.050361	-0.341688	0.264963
O10	O	0.948444	-0.162330	0.342293
O11	O	0.871003	-0.264410	0.162856
O12	O	0.768985	-0.264422	0.264861
O13	O	0.871046	-0.341709	0.444255
O14	O	0.768963	-0.341738	0.342160
O15	O	0.948415	-0.264372	0.444313
O16	O	0.948248	-0.443758	0.264887
O17	O	0.870951	-0.443767	0.342175
C18	C	0.746134	-0.303085	0.303500
C19	C	0.676166	-0.303114	0.303484
C20	C	0.643304	-0.343426	0.343674
C21	C	0.577561	-0.343410	0.343702
C22	C	0.544683	-0.303090	0.303530
C23	C	0.577553	-0.262770	0.263337
C24	C	0.643294	-0.262783	0.263315
N25	N	0.441407	-0.298163	0.248472
N26	N	0.378956	-0.298155	0.248495
C27	C	0.346608	-0.303050	0.303596
N28	N	0.379072	-0.307965	0.358675
N29	N	0.441529	-0.307976	0.358650
C30	C	0.473398	-0.303072	0.303550
C31	C	0.242461	-0.343346	0.343820
C32	C	0.176717	-0.343326	0.343849
C33	C	0.176710	-0.262690	0.263479
C34	C	0.242453	-0.262707	0.263455
C35	C	0.275324	-0.303038	0.303625
C36	C	0.909603	-0.466603	0.303538
C37	C	0.909625	-0.536571	0.303544
C38	C	0.949910	-0.569412	0.263342
C39	C	0.949939	-0.635155	0.263356
C40	C	0.909673	-0.668054	0.303566
C41	C	0.869386	-0.635205	0.343776
C42	C	0.869362	-0.569464	0.343765
N43	N	0.854606	-0.771336	0.308340
N44	N	0.854630	-0.833787	0.308347
C45	C	0.909743	-0.866129	0.303602
N46	N	0.964832	-0.833659	0.298838
N47	N	0.964807	-0.771202	0.298828
C48	C	0.909695	-0.739339	0.303582
C49	C	0.950063	-0.970255	0.263413
C50	C	0.950094	-1.035999	0.263431
C51	C	0.869535	-1.036048	0.343848
C52	C	0.869510	-0.970305	0.343833
C53	C	0.909773	-0.937413	0.303612
C54	C	1.073876	-0.303019	0.303646
C55	C	1.143844	-0.303005	0.303677
C56	C	0.909738	-0.303038	0.467763
C57	C	0.909760	-0.303033	0.537731
C58	C	0.909785	-0.138861	0.303622
C59	C	0.909828	-0.068893	0.303642
C60	C	0.909670	-0.303019	0.140021
C61	C	0.909769	-0.302848	0.070054
C62	C	0.950044	-0.262761	0.570629
C63	C	0.950043	-0.262734	0.636371
C64	C	0.909765	-0.302989	0.669214
C65	C	0.869473	-0.343263	0.636308
C66	C	0.869470	-0.343285	0.570567
N67	N	0.904908	-0.358058	0.772428
N68	N	0.904914	-0.358036	0.834879
C69	C	0.909769	-0.302926	0.867289
N70	N	0.914629	-0.247837	0.834888
N71	N	0.914627	-0.247860	0.772430
C72	C	0.909763	-0.302970	0.740499
C73	C	0.950054	-0.262621	0.971472
C74	C	0.950049	-0.262593	1.037216
C75	C	0.869482	-0.343128	1.037151
C76	C	0.869484	-0.343151	0.971409
C77	C	0.909773	-0.302898	0.938573
H78	H	0.269226	-0.376183	0.376531
C79	C	0.860692	-0.896341	0.428484
C80	C	0.825221	-0.934204	0.388021
H81	H	0.833348	-0.874058	0.455768
H82	H	0.884662	-0.867343	0.404534
H83	H	0.888114	-0.921949	0.452600
H84	H	0.797802	-0.908595	0.363902
H85	H	0.801241	-0.963205	0.411973
H86	H	0.982857	-0.229842	0.944736
H87	H	0.982850	-0.229984	0.543898
H88	H	0.982850	-0.943473	0.230664
C89	C	1.029693	-0.183144	0.629838
C90	C	0.994331	-0.218469	0.672543
H91	H	1.057037	-0.155820	0.652169
H92	H	1.002284	-0.159074	0.604181
H93	H	1.053749	-0.210582	0.604210
H94	H	0.970271	-0.191030	0.698168
H95	H	1.021743	-0.242541	0.698210
C96	C	0.833647	-0.736004	0.379491
C97	C	0.825122	-0.671365	0.387974
H98	H	0.806318	-0.758326	0.406777
H99	H	0.875936	-0.746722	0.388759
H100	H	0.824457	-0.746804	0.337184
H101	H	0.834316	-0.660565	0.430280
H102	H	0.782823	-0.660644	0.378710
C103	C	0.833724	-0.378866	1.137896
C104	C	0.825213	-0.387385	1.073244
H105	H	0.806396	-0.406193	1.160179
H106	H	0.824529	-0.336576	1.148664
H107	H	0.876018	-0.388061	1.148691
H108	H	0.782920	-0.378186	1.062448
H109	H	0.834403	-0.429684	1.062472
C110	C	0.833713	-0.378997	0.737058
C111	C	0.825201	-0.387517	0.672406
H112	H	0.806382	-0.406321	0.759341
H113	H	0.824525	-0.336706	0.747826
H114	H	0.876006	-0.388198	0.747853
H115	H	0.782909	-0.378311	0.661611
H116	H	0.834385	-0.429817	0.661634
H117	H	0.149962	-0.376152	0.376580
C118	C	0.958718	-0.709110	0.178692
C119	C	0.994210	-0.671257	0.219145
H120	H	0.986048	-0.731397	0.151396
H121	H	0.931292	-0.683501	0.154594
H122	H	0.934752	-0.738112	0.202653
H123	H	1.018173	-0.642252	0.195184
H124	H	1.021648	-0.696869	0.243245
H125	H	0.550779	-0.229940	0.230630
C126	C	0.744066	-0.227000	0.227595
C127	C	0.679421	-0.218472	0.219133
H128	H	0.766369	-0.199641	0.200320
H129	H	0.754781	-0.269279	0.218299
H130	H	0.754891	-0.217851	0.269906
H131	H	0.668595	-0.227625	0.176824
H132	H	0.668702	-0.176183	0.228425
H133	H	0.982902	-1.062737	0.230695
H134	H	0.836663	-0.376078	0.543782
H135	H	0.982852	-0.229795	1.064000
C136	C	0.789851	-0.422753	0.977951
C137	C	0.825206	-0.387424	0.935244
H138	H	0.762517	-0.450087	0.955623
H139	H	0.765792	-0.395323	1.003575
H140	H	0.817271	-0.446818	1.003612
H141	H	0.797787	-0.363355	0.909585
H142	H	0.849267	-0.414858	0.909609
H143	H	0.550800	-0.376236	0.376431
C144	C	0.636702	-0.423129	0.423117
C145	C	0.679435	-0.387752	0.387834
H146	H	0.659010	-0.450490	0.450383
H147	H	0.611009	-0.447162	0.395654
H148	H	0.611112	-0.395727	0.447253
H149	H	0.705022	-0.415154	0.363694
H150	H	0.705138	-0.363717	0.415301
H151	H	0.149942	-0.229857	0.230773
C152	C	0.235840	-0.183007	0.184014
C153	C	0.278579	-0.218401	0.219271
H154	H	0.258144	-0.155655	0.156734
H155	H	0.210255	-0.158964	0.211493
H156	H	0.210143	-0.210400	0.159895
H157	H	0.304273	-0.191008	0.243393
H158	H	0.304175	-0.242446	0.191788
H159	H	0.982696	-0.542633	0.230593
C160	C	0.789736	-0.576117	0.423254
C161	C	0.825074	-0.533361	0.387955
H162	H	0.762392	-0.553826	0.450532
H163	H	0.817161	-0.601709	0.447372
H164	H	0.765682	-0.601805	0.395797
H165	H	0.849132	-0.507676	0.415413
H166	H	0.797646	-0.507758	0.363835
H167	H	0.836752	-1.062833	0.376591
