data_functionalizedCrystal
_audit_creation_method	'MofGen! by Chris Wilmer'
_symmetry_space_group_name_H-M	'P1'
_symmetry_Int_Tables_number	1
_symmetry_cell_setting	triclinic
loop_
_symmetry_equiv_pos_as_xyz
  x,y,z
_cell_length_a	13.033293
_cell_length_b	14.909042
_cell_length_c	13.032268
_cell_angle_alpha	85.718922
_cell_angle_beta	90.920818
_cell_angle_gamma	93.490169
loop_
_atom_site_label
_atom_site_type_symbol
_atom_site_fract_x
_atom_site_fract_y
_atom_site_fract_z
Zn1	Zn	1.518975	-0.276683	0.765617
Zn2	Zn	2.018975	0.223317	1.265617
Zn3	Zn	1.550193	-0.404484	0.586316
Zn4	Zn	2.050193	0.095516	1.086316
Zn5	Zn	1.368487	-0.271986	0.572062
Zn6	Zn	1.868487	0.228014	1.072062
Zn7	Zn	1.359193	-0.441557	0.734230
Zn8	Zn	1.859193	0.058443	1.234230
O9	O	1.449212	-0.348678	0.664556
O10	O	1.949212	0.151322	1.164556
O11	O	1.666031	-0.280086	0.760933
O12	O	2.166031	0.219914	1.260933
O13	O	1.543044	-0.369427	0.441519
O14	O	2.043044	0.130573	0.941519
O15	O	1.379275	-0.148158	0.604908
O16	O	1.879275	0.351842	1.104908
O17	O	1.688966	-0.373981	0.629202
O18	O	2.188966	0.126019	1.129202
O19	O	1.489838	-0.151608	0.747112
O20	O	1.989838	0.348392	1.247112
O21	O	1.409546	-0.272082	0.431047
O22	O	1.909546	0.227918	0.931047
O23	O	1.224340	-0.308030	0.574473
O24	O	1.724340	0.191970	1.074473
O25	O	1.363434	-0.437167	0.881300
O26	O	1.863434	0.062833	1.381300
O27	O	1.217512	-0.432613	0.693618
O28	O	1.717512	0.067387	1.193618
O29	O	1.480825	-0.316034	0.904360
O30	O	1.980825	0.183966	1.404360
O31	O	1.534032	-0.533854	0.598767
O32	O	2.034032	-0.033854	1.098767
O33	O	1.393704	-0.561091	0.707439
O34	O	1.893704	-0.061091	1.207439
C35	C	1.183870	-0.373836	0.629093
C36	C	1.683870	0.126164	1.129093
C37	C	1.070354	-0.384623	0.613945
C38	C	1.570354	0.115377	1.113945
C39	C	1.008391	-0.343070	0.672461
C40	C	1.508391	0.156930	1.172461
C41	C	0.891067	-0.354218	0.656806
C42	C	1.391067	0.145782	1.156806
C43	C	1.466272	-0.579742	0.651270
C44	C	1.966272	-0.079742	1.151270
C45	C	1.473660	-0.678587	0.645632
C46	C	1.973660	-0.178587	1.145632
C47	C	1.341307	-0.892753	0.748069
C48	C	1.841307	-0.392753	1.248069
C49	C	1.348245	-0.985628	0.742775
C50	C	1.848245	-0.485628	1.242775
C51	C	1.494468	-0.957213	0.629745
C52	C	1.994468	-0.457213	1.129745
C53	C	1.487530	-0.864338	0.635039
C54	C	1.987530	-0.364338	1.135039
C55	C	1.410948	-0.832112	0.694204
C56	C	1.910948	-0.332112	1.194204
C57	C	1.404015	-0.739235	0.699503
C58	C	1.904015	-0.239235	1.199503
C59	C	1.550233	-0.710823	0.586468
C60	C	2.050233	-0.210823	1.086468
C61	C	1.557171	-0.803697	0.581174
C62	C	2.057171	-0.303697	1.081174
C63	C	1.715591	-0.323422	0.700159
C64	C	2.215591	0.176578	1.200159
C65	C	1.829105	-0.312660	0.715330
C66	C	2.329105	0.187340	1.215330
C67	C	1.417610	-0.381260	0.930920
C68	C	1.917610	0.118740	1.430920
C69	C	1.404143	-0.395145	1.044428
C70	C	1.904143	0.104855	1.544428
C71	C	1.432111	-0.116712	0.677921
C72	C	1.932111	0.383288	1.177921
C73	C	1.424823	-0.017862	0.683616
C74	C	1.924823	0.482138	1.183616
C75	C	1.480745	-0.316152	0.399241
C76	C	1.980745	0.183848	0.899241
C77	C	1.494391	-0.301998	0.285774
C78	C	1.994391	0.198002	0.785774
C79	C	1.456222	-0.341401	1.106443
C80	C	1.956222	0.158599	1.606443
C81	C	1.442305	-0.355750	1.223760
C82	C	1.942305	0.144250	1.723760
H83	H	1.341661	-0.712998	0.747681
H84	H	1.841661	-0.212998	1.247681
H85	H	1.291538	-1.034999	0.786640
H86	H	1.791538	-0.534999	1.286640
H87	H	1.278957	-0.866514	0.796251
H88	H	1.778957	-0.366514	1.296251
H89	H	1.556808	-0.983468	0.581565
H90	H	2.056808	-0.483468	1.081565
H91	H	1.036543	-0.428449	0.552256
H92	H	1.536543	0.071551	1.052256
O93	O	1.338731	-0.462819	1.084578
O94	O	1.838731	0.037181	1.584578
C95	C	1.370664	-0.546185	1.056483
C96	C	1.870664	-0.046185	1.556483
H97	H	1.419186	-0.534897	0.984143
H98	H	1.919186	-0.034897	1.484143
H99	H	1.300316	-0.592623	1.040792
H100	H	1.800316	-0.092623	1.540792
H101	H	1.418310	-0.578448	1.121794
H102	H	1.918310	-0.078448	1.621794
O103	O	1.559756	-0.234309	1.245564
O104	O	2.059756	0.265691	1.745564
C105	C	1.527845	-0.150954	1.273717
C106	C	2.027845	0.349046	1.773717
H107	H	1.442464	-0.157776	1.292457
H108	H	1.942464	0.342224	1.792457
H109	H	1.541672	-0.097648	1.207231
H110	H	2.041672	0.402352	1.707231
H111	H	1.573595	-0.130033	1.344225
H112	H	2.073595	0.369967	1.844225
H113	H	1.619519	-0.829949	0.533001
H114	H	2.119519	-0.329949	1.033001
H115	H	1.606942	-0.661437	0.542611
H116	H	2.106942	-0.161437	1.042611
H117	H	1.387404	-0.412384	1.257515
H118	H	1.887404	0.087616	1.757515
O119	O	1.048884	-0.290846	0.746039
O120	O	1.548884	0.209154	1.246039
C121	C	1.157014	-0.291329	0.745277
C122	C	1.657014	0.208671	1.245277
H123	H	1.180531	-0.354445	0.709675
H124	H	1.680531	0.145555	1.209675
H125	H	1.188136	-0.290924	0.827505
H126	H	1.688136	0.209076	1.327505
H127	H	1.189811	-0.229009	0.698039
H128	H	1.689811	0.270991	1.198039
O129	O	0.850862	-0.406629	0.583265
O130	O	1.350862	0.093371	1.083265
C131	C	0.880768	-0.495558	0.603780
C132	C	1.380768	0.004442	1.103780
H133	H	0.953747	-0.494946	0.653191
H134	H	1.453747	0.005054	1.153191
H135	H	0.895988	-0.525981	0.528184
H136	H	1.395988	-0.025981	1.028184
H137	H	0.816755	-0.537658	0.646552
H138	H	1.316755	-0.037658	1.146552
O139	O	0.869464	-0.260505	0.789039
O140	O	1.369464	0.239495	1.289039
C141	C	0.927151	-0.313454	0.860149
C142	C	1.427151	0.186546	1.360149
H143	H	0.899389	-0.387301	0.858029
H144	H	1.399389	0.112699	1.358029
H145	H	0.916778	-0.290892	0.940820
H146	H	1.416778	0.209108	1.440820
H147	H	1.011931	-0.304986	0.839101
H148	H	1.511931	0.195014	1.339101
O149	O	1.521579	-0.273792	1.066048
O150	O	2.021579	0.226208	1.566048
C151	C	1.466466	-0.214357	0.999897
C152	C	1.966466	0.285643	1.499897
H153	H	1.393249	-0.251130	0.971872
H154	H	1.893249	0.248870	1.471872
H155	H	1.516025	-0.189386	0.931081
H156	H	2.016025	0.310614	1.431081
H157	H	1.445558	-0.154497	1.043243
H158	H	1.945558	0.345503	1.543243
