data_functionalizedCrystal
_audit_creation_method	'MofGen! by Chris Wilmer'
_symmetry_space_group_name_H-M	'P1'
_symmetry_Int_Tables_number	1
_symmetry_cell_setting	triclinic
loop_
_symmetry_equiv_pos_as_xyz
  x,y,z
_cell_length_a	19.288840
_cell_length_b	16.992695
_cell_length_c	18.366186
_cell_angle_alpha	90.006206
_cell_angle_beta	90.016271
_cell_angle_gamma	86.897119
loop_
_atom_site_label
_atom_site_type_symbol
_atom_site_fract_x
_atom_site_fract_y
_atom_site_fract_z
O1	O	0.927058	0.097701	0.060673
O2	O	0.725565	0.110914	0.060648
O3	O	0.825504	-0.009832	0.060654
O4	O	0.827119	0.218447	0.060666
O5	O	0.825485	-0.009838	-0.060445
O6	O	0.725546	0.110908	-0.060452
O7	O	0.927039	0.097695	-0.060427
Zn8	Zn	0.826290	0.104301	-0.079666
Zn9	Zn	0.826314	0.104308	0.079887
O10	O	0.827101	0.218441	-0.060433
C11	C	0.699654	0.110489	0.000095
C12	C	0.622476	0.109223	0.000085
C13	C	0.823416	-0.039040	0.000105
C14	C	0.817216	-0.126062	0.000104
C15	C	0.586247	0.108618	0.066098
C16	C	0.513730	0.107419	0.066107
C17	C	0.477446	0.106810	0.000099
C18	C	0.513684	0.107419	-0.065923
C19	C	0.586199	0.108626	-0.065930
C20	C	0.365323	0.058978	-0.050465
C21	C	0.292810	0.057767	-0.050455
C22	C	0.253786	0.103092	0.000118
C23	C	0.287285	0.149618	0.050693
C24	C	0.359800	0.150825	0.050686
C25	C	0.398816	0.105502	0.000099
C26	C	0.138926	0.101188	0.066145
C27	C	0.066408	0.099994	0.066151
C28	C	0.066363	0.099987	-0.065881
C29	C	0.138879	0.101189	-0.065885
C30	C	0.175157	0.101785	0.000130
C31	C	0.877044	-0.176520	0.000111
C32	C	0.871214	-0.258285	0.000117
C33	C	0.805554	-0.289591	0.000111
C34	C	0.745721	-0.239127	0.000107
C35	C	0.751552	-0.157363	0.000106
C36	C	0.781387	-0.533101	0.000118
C37	C	0.775560	-0.614871	0.000117
C38	C	0.901054	-0.634024	0.000129
C39	C	0.906879	-0.552258	0.000123
C40	C	0.847046	-0.501801	0.000123
N41	N	0.799593	-0.373168	0.000115
N42	N	0.853008	-0.418225	0.000124
C43	C	0.952950	0.098120	0.000128
C44	C	1.030128	0.099386	0.000143
C45	C	0.829188	0.247649	0.000118
C46	C	0.835389	0.334671	0.000124
N47	N	0.826278	0.104295	-0.188557
C48	C	0.870548	0.050855	-0.226655
C49	C	0.870553	0.050851	-0.302883
C50	C	0.826294	0.104301	-0.341010
C51	C	0.782016	0.157746	-0.302903
C52	C	0.782008	0.157742	-0.226677
C53	C	0.821159	0.175731	-0.461767
C54	C	0.821172	0.175735	-0.537992
C55	C	0.826315	0.104311	-0.576118
C56	C	0.831459	0.032880	-0.538008
C57	C	0.831451	0.032876	-0.461782
C58	C	0.826298	0.104310	-0.423665
C59	C	0.870591	0.050863	-0.696870
C60	C	0.870591	0.050858	-0.773099
C61	C	0.782058	0.157759	-0.773119
C62	C	0.782055	0.157757	-0.696891
C63	C	0.826325	0.104310	-0.658771
N64	N	0.826331	0.104308	0.188779
H65	H	0.615780	0.109104	0.119853
H66	H	0.746009	0.201276	-0.665870
H67	H	0.919933	-0.299365	0.000121
H68	H	0.960346	-0.526775	0.000128
C69	C	0.626052	0.109285	-0.138553
N70	N	0.656071	0.109779	-0.193253
C71	C	0.715568	-0.477608	0.000121
N72	N	0.665990	-0.435808	0.000126
C73	C	0.733338	0.216567	-0.184769
N74	N	0.696690	0.260888	-0.153202
C75	C	0.815501	0.254309	-0.419837
N76	N	0.811240	0.313491	-0.388257
C77	C	0.026556	0.099325	0.138775
N78	N	-0.003460	0.098818	0.193476
H79	H	0.692260	-0.264622	0.000107
H80	H	0.949766	-0.675114	0.000130
C81	C	0.026454	0.099318	-0.138491
N82	N	-0.003608	0.098815	-0.193182
H83	H	0.722090	-0.640357	0.000101
C84	C	0.178733	0.101843	-0.138505
N85	N	0.208751	0.102337	-0.193207
H86	H	0.835638	-0.025286	-0.430757
C87	C	0.837115	-0.045694	-0.579940
N88	N	0.841375	-0.104873	-0.611527
H89	H	0.387071	0.188710	0.091865
H90	H	0.484227	0.106927	0.119865
C91	C	0.685736	-0.101859	0.000097
N92	N	0.636161	-0.060054	0.000092
C93	C	0.255968	0.006595	-0.106094
N94	N	0.228220	-0.031946	-0.148006
H95	H	0.906594	0.007333	-0.195620
C96	C	0.919262	-0.007932	-0.344798
N97	N	0.955953	-0.052204	-0.376367
C98	C	0.949275	-0.142092	0.000117
N99	N	1.003682	-0.116163	0.000125
C100	C	0.919283	-0.007937	-0.654936
N101	N	0.955956	-0.052227	-0.623353
C102	C	0.244363	0.199485	0.106324
N103	N	0.212031	0.237044	0.148223
C104	C	0.919281	-0.007947	-0.815006
N105	N	0.955953	-0.052243	-0.846571
C106	C	0.733373	0.216556	-0.815054
N107	N	0.696703	0.260843	-0.846644
C108	C	0.815506	0.254311	-0.579905
N109	N	0.811234	0.313496	-0.611472
H110	H	0.168464	0.101682	0.119898
H111	H	0.397091	0.022067	-0.091651
C112	C	0.733328	0.216538	-0.344845
N113	N	0.696653	0.260819	-0.376436
H114	H	0.484136	0.106925	-0.119667
