data_functionalizedCrystal
_audit_creation_method	'MofGen! by Chris Wilmer'
_symmetry_space_group_name_H-M	'P1'
_symmetry_Int_Tables_number	1
_symmetry_cell_setting	triclinic
loop_
_symmetry_equiv_pos_as_xyz
  x,y,z
_cell_length_a	6.817900
_cell_length_b	19.453067
_cell_length_c	19.453114
_cell_angle_alpha	96.315275
_cell_angle_beta	101.709288
_cell_angle_gamma	101.708464
loop_
_atom_site_label
_atom_site_type_symbol
_atom_site_fract_x
_atom_site_fract_y
_atom_site_fract_z
V1	V	-3.997992	-0.097913	-0.219326
O2	O	-3.995098	0.003953	-0.214817
O3	O	-3.941006	-0.193422	-0.218146
O4	O	-3.941013	-0.096737	-0.314835
O5	O	-3.995092	-0.093401	-0.117459
V6	V	-4.483844	-0.085690	-0.207103
O7	O	-4.254141	-0.124726	-0.246138
O8	O	-4.677892	-0.058877	-0.180290
O9	O	-4.317623	0.009819	-0.208282
O10	O	-4.604135	-0.187556	-0.211611
O11	O	-4.604141	-0.090202	-0.308969
O12	O	-4.317617	-0.086866	-0.111593
C13	C	-3.784196	-0.216694	-0.214769
C14	C	-3.818833	-0.294776	-0.214442
C15	C	-4.034529	-0.841951	-0.147825
C16	C	-4.001966	-0.768584	-0.148126
C17	C	-4.017292	-0.742101	-0.212595
C18	C	-4.065135	-0.788992	-0.276767
C19	C	-4.097677	-0.862357	-0.276464
N20	N	-4.103240	-0.636813	-0.263556
N21	N	-4.072329	-0.567119	-0.263839
C22	C	-3.919243	-0.521056	-0.213511
N23	N	-3.798256	-0.547320	-0.162879
N24	N	-3.829178	-0.617021	-0.162594
C25	C	-3.982008	-0.662550	-0.212931
C26	C	-3.836083	-0.394622	-0.149669
C27	C	-3.803508	-0.321253	-0.149972
C28	C	-3.866699	-0.341663	-0.278616
C29	C	-3.899252	-0.415030	-0.278310
C30	C	-3.883951	-0.441504	-0.213835
C31	C	-3.784203	-0.093363	-0.338104
C32	C	-3.818843	-0.093033	-0.416185
C33	C	-4.016582	-0.096404	-0.456453
C34	C	-4.049131	-0.096095	-0.529819
C35	C	-3.883936	-0.092428	-0.562916
C36	C	-3.686167	-0.089053	-0.522637
C37	C	-3.653621	-0.089356	-0.449272
N38	N	-3.820858	-0.129522	-0.681829
N39	N	-3.851789	-0.129237	-0.751523
C40	C	-3.981984	-0.091515	-0.783961
N41	N	-4.080115	-0.054100	-0.744074
N42	N	-4.049189	-0.054389	-0.674373
C43	C	-3.919206	-0.092100	-0.642468
C44	C	-4.215028	-0.094550	-0.903781
C45	C	-4.247567	-0.094236	-0.977147
C46	C	-3.884601	-0.087201	-0.969965
C47	C	-3.852064	-0.087508	-0.896599
C48	C	-4.017287	-0.091186	-0.863512
C49	C	-4.137775	0.033088	-0.211657
C50	C	-4.082376	0.111168	-0.211989
C51	C	-4.137768	-0.090243	-0.088321
C52	C	-4.082367	-0.090568	-0.010239
H53	H	-4.151122	-0.099396	-0.429518
H54	H	-4.022062	-0.863501	-0.095324
H55	H	-3.962992	-0.730406	-0.095874
C56	C	-3.819225	-0.423750	-0.078749
C57	C	-3.855032	-0.504448	-0.078412
C58	C	-3.838169	-0.533574	-0.007492
C59	C	-3.785499	-0.482001	0.063091
C60	C	-3.749688	-0.401297	0.062758
C61	C	-3.766551	-0.372172	-0.008163
H62	H	-3.894025	-0.542630	-0.130665
H63	H	-3.864679	-0.593316	-0.007245
H64	H	-3.773016	-0.503561	0.115591
H65	H	-3.710695	-0.363115	0.115010
H66	H	-3.740041	-0.312429	-0.008409
C67	C	-3.883555	-0.312543	-0.349534
C68	C	-3.696675	-0.261394	-0.363448
C69	C	-3.713519	-0.232271	-0.434369
C70	C	-3.917244	-0.254297	-0.491377
C71	C	-4.104140	-0.305449	-0.477465
C72	C	-4.087295	-0.334572	-0.406544
H73	H	-3.545852	-0.245087	-0.321246
H74	H	-3.575166	-0.194405	-0.444667
H75	H	-3.929714	-0.232739	-0.543877
H76	H	-4.254963	-0.321757	-0.519667
H77	H	-4.225649	-0.372438	-0.396246
H78	H	-4.077607	-0.767425	-0.329258
C79	C	-3.951968	-0.466605	-0.348895
C80	C	-3.968869	-0.437482	-0.419812
C81	C	-4.021605	-0.489058	-0.490401
C82	C	-4.057440	-0.569758	-0.490072
C83	C	-4.040540	-0.598886	-0.419151
C84	C	-3.987804	-0.547310	-0.348563
H85	H	-3.942341	-0.377739	-0.420059
H86	H	-4.034115	-0.467495	-0.542901
H87	H	-4.096479	-0.607938	-0.542325
H88	H	-4.067068	-0.658629	-0.418905
H89	H	-3.975293	-0.568872	-0.296063
H90	H	-4.136636	-0.900528	-0.328716
H91	H	-3.764537	-0.283083	-0.097719
H92	H	-4.210161	-0.098843	-0.562613
H93	H	-3.551665	-0.086066	-0.549589
H94	H	-3.492592	-0.086605	-0.416485
H95	H	-4.349561	-0.097542	-0.876840
H96	H	-4.408590	-0.096976	-1.009932
H97	H	-3.750092	-0.084210	-0.996911
H98	H	-3.691049	-0.084771	-0.863813
