data_functionalizedCrystal
_audit_creation_method	'MofGen! by Chris Wilmer'
_symmetry_space_group_name_H-M	'P1'
_symmetry_Int_Tables_number	1
_symmetry_cell_setting	triclinic
loop_
_symmetry_equiv_pos_as_xyz
  x,y,z
_cell_length_a	27.731994
_cell_length_b	27.732048
_cell_length_c	26.809956
_cell_angle_alpha	89.975675
_cell_angle_beta	89.985586
_cell_angle_gamma	82.631595
loop_
_atom_site_label
_atom_site_type_symbol
_atom_site_fract_x
_atom_site_fract_y
_atom_site_fract_z
O1	O	0.640954	0.057401	-0.041414
O2	O	0.974288	0.390734	0.291920
O3	O	1.307621	0.724068	0.625253
O4	O	0.500157	0.066174	-0.041431
O5	O	0.833490	0.399507	0.291902
O6	O	1.166824	0.732841	0.625236
O7	O	0.574929	-0.008610	-0.041412
O8	O	0.908262	0.324723	0.291921
O9	O	1.241595	0.658057	0.625254
O10	O	0.566183	0.132185	-0.041432
O11	O	0.899516	0.465519	0.291901
O12	O	1.232850	0.798852	0.625234
O13	O	0.574902	-0.008630	0.041547
O14	O	0.908235	0.324703	0.374880
O15	O	1.241569	0.658037	0.708213
O16	O	0.500131	0.066154	0.041528
O17	O	0.833464	0.399487	0.374861
O18	O	1.166797	0.732821	0.708195
O19	O	0.640928	0.057381	0.041545
O20	O	0.974261	0.390714	0.374879
O21	O	1.307595	0.724048	0.708212
Zn22	Zn	0.570525	0.061764	0.054708
Zn23	Zn	0.903858	0.395098	0.388042
Zn24	Zn	1.237192	0.728431	0.721375
Zn25	Zn	0.570560	0.061791	-0.054594
Zn26	Zn	0.903893	0.395124	0.278739
Zn27	Zn	1.237227	0.728457	0.612073
O28	O	0.566156	0.132165	0.041527
O29	O	0.899490	0.465498	0.374860
O30	O	1.232823	0.798832	0.708193
C31	C	0.482137	0.065984	0.000046
C32	C	0.815470	0.399317	0.333380
C33	C	1.148803	0.732651	0.666713
C34	C	0.428480	0.065442	0.000040
C35	C	0.761814	0.398775	0.333374
C36	C	1.095147	0.732108	0.666707
C37	C	0.574732	-0.026627	0.000069
C38	C	0.908065	0.306706	0.333402
C39	C	1.241398	0.640040	0.666735
C40	C	0.574179	-0.080282	0.000073
C41	C	0.907512	0.253052	0.333406
C42	C	1.240846	0.586385	0.666739
C43	C	0.095747	0.062015	0.045281
C44	C	0.429081	0.395348	0.378614
C45	C	0.762414	0.728681	0.711948
C46	C	-0.105911	0.059953	0.045287
C47	C	0.227422	0.393287	0.378620
C48	C	0.560756	0.726620	0.711954
O49	O	-0.131996	0.059657	0.083746
O50	O	0.201338	0.392990	0.417079
O51	O	0.534671	0.726323	0.750412
N52	N	-0.131111	0.059708	0.000066
N53	N	0.202222	0.393041	0.333399
N54	N	0.535555	0.726375	0.666733
C55	C	-0.105894	0.059975	-0.045160
C56	C	0.227440	0.393309	0.288174
C57	C	0.560773	0.726642	0.621507
O58	O	-0.131954	0.059715	-0.083623
O59	O	0.201379	0.393048	0.249710
O60	O	0.534712	0.726381	0.583044
C61	C	0.095764	0.062034	-0.045165
C62	C	0.429097	0.395367	0.288168
C63	C	0.762431	0.728700	0.621501
C64	C	0.120961	0.062283	0.000059
C65	C	0.454295	0.395617	0.333392
C66	C	0.787628	0.728950	0.666725
C67	C	0.120945	0.062264	0.090501
C68	C	0.454278	0.395598	0.423835
C69	C	0.787611	0.728931	0.757168
C70	C	0.171356	0.062782	0.090499
C71	C	0.504689	0.396116	0.423833
C72	C	0.838022	0.729449	0.757166
C73	C	0.196570	0.063051	0.045277
C74	C	0.529903	0.396384	0.378610
C75	C	0.863236	0.729718	0.711944
C76	C	0.171372	0.062801	0.000057
C77	C	0.504706	0.396135	0.333390
C78	C	0.838039	0.729468	0.666724
C79	C	0.120981	0.062297	-0.090390
C80	C	0.454315	0.395631	0.242943
C81	C	0.787648	0.728964	0.576276
C82	C	0.171399	0.062811	-0.090388
C83	C	0.504733	0.396144	0.242946
C84	C	0.838066	0.729477	0.576279
C85	C	0.196596	0.063060	-0.045164
C86	C	0.529930	0.396394	0.288170
C87	C	0.863263	0.729727	0.621503
C88	C	0.246997	0.063588	-0.045167
C89	C	0.580331	0.396921	0.288166
C90	C	0.913664	0.730255	0.621499
N91	N	0.272198	0.063833	0.000054
N92	N	0.605531	0.397167	0.333387
N93	N	0.938865	0.730500	0.666720
C94	C	0.246984	0.063565	0.045276
C95	C	0.580317	0.396898	0.378609
C96	C	0.913651	0.730231	0.711943
C97	C	-0.211767	0.058896	-0.045154
C98	C	0.121566	0.392229	0.288180
C99	C	0.454900	0.725562	0.621513
C100	C	-0.262181	0.058382	-0.045152
C101	C	0.071152	0.391715	0.288181
C102	C	0.404485	0.725049	0.621514
C103	C	-0.262195	0.058359	0.045294
C104	C	0.071138	0.391692	0.378628
C105	C	0.404472	0.725026	0.711961
C106	C	-0.211780	0.058876	0.045293
C107	C	0.121553	0.392210	0.378626
C108	C	0.454887	0.725543	0.711959
C109	C	-0.186566	0.059141	0.000067
C110	C	0.146767	0.392474	0.333401
C111	C	0.480100	0.725807	0.666734
C112	C	0.352851	0.064653	0.045268
C113	C	0.686184	0.397986	0.378602
C114	C	1.019518	0.731320	0.711935
C115	C	0.403266	0.065173	0.045262
C116	C	0.736600	0.398506	0.378596
C117	C	1.069933	0.731840	0.711929
C118	C	0.403276	0.065193	-0.045184
C119	C	0.736609	0.398527	0.288149
C120	C	1.069943	0.731860	0.621483
C121	C	0.352865	0.064676	-0.045179
C122	C	0.686198	0.398009	0.288155
C123	C	1.019531	0.731343	0.621488
C124	C	0.327654	0.064404	0.000052
C125	C	0.660987	0.397737	0.333385
C126	C	0.994320	0.731071	0.666718
O127	O	0.273114	0.063880	-0.083606
O128	O	0.606448	0.397213	0.249727
O129	O	0.939781	0.730546	0.583061
O130	O	0.273055	0.063815	0.083733
O131	O	0.606388	0.397148	0.417067
O132	O	0.939722	0.730481	0.750400
C133	C	0.045336	0.061497	0.045283
C134	C	0.378669	0.394830	0.378616
C135	C	0.712003	0.728163	0.711950
C136	C	0.020139	0.061247	0.000063
C137	C	0.353472	0.394581	0.333396
C138	C	0.686806	0.727914	0.666729
C139	C	0.045353	0.061516	-0.045160
C140	C	0.378686	0.394849	0.288174
C141	C	0.712020	0.728183	0.621507
C142	C	-0.030275	0.060734	0.000064
C143	C	0.303058	0.394067	0.333397
C144	C	0.636391	0.727400	0.666731
C145	C	-0.055489	0.060465	0.045286
C146	C	0.277844	0.393798	0.378619
C147	C	0.611177	0.727132	0.711953
C148	C	-0.030289	0.060710	0.090507
C149	C	0.303044	0.394043	0.423840
C150	C	0.636378	0.727377	0.757174
C151	C	0.020122	0.061228	0.090505
C152	C	0.353456	0.394562	0.423839
C153	C	0.686789	0.727895	0.757172
C154	C	0.020153	0.061271	-0.090381
C155	C	0.353486	0.394604	0.242953
C156	C	0.686819	0.727938	0.576286
C157	C	-0.030259	0.060753	-0.090375
C158	C	0.303075	0.394087	0.242958
C159	C	0.636408	0.727420	0.576292
C160	C	-0.055473	0.060485	-0.045153
C161	C	0.277861	0.393818	0.288181
C162	C	0.611194	0.727152	0.621514
C163	C	0.614884	-0.419105	0.000052
C164	C	0.948217	-0.085771	0.333385
C165	C	1.281551	0.247562	0.666719
C166	C	0.612833	-0.620764	0.000045
C167	C	0.946166	-0.287431	0.333378
C168	C	1.279499	0.045903	0.666711
O169	O	0.650055	-0.652027	0.000028
O170	O	0.983388	-0.318693	0.333361
O171	O	1.316721	0.014640	0.666694
N172	N	0.568496	-0.639879	0.000040
N173	N	0.901830	-0.306546	0.333373
N174	N	1.235163	0.026788	0.666706
C175	C	0.524670	-0.608576	0.000033
C176	C	0.858003	-0.275243	0.333367
C177	C	1.191336	0.058091	0.666700
O178	O	0.486912	-0.629462	0.000024
O179	O	0.820245	-0.296128	0.333357
O180	O	1.153578	0.037205	0.666690
C181	C	0.526721	-0.406918	0.000037
C182	C	0.860055	-0.073584	0.333370
C183	C	1.193388	0.259749	0.666704
C184	C	0.571060	-0.387806	0.000047
C185	C	0.904394	-0.054472	0.333380
C186	C	1.237727	0.278861	0.666714
C187	C	0.659220	-0.399992	0.000061
C188	C	0.992553	-0.066659	0.333395
C189	C	1.325886	0.266675	0.666728
C190	C	0.659732	-0.349580	0.000066
C191	C	0.993065	-0.016247	0.333399
C192	C	1.326398	0.317086	0.666733
C193	C	0.615908	-0.318281	0.000061
C194	C	0.949242	0.015052	0.333394
C195	C	1.282575	0.348386	0.666728
C196	C	0.571573	-0.337394	0.000052
C197	C	0.904906	-0.004060	0.333385
C198	C	1.238239	0.329273	0.666718
C199	C	0.482895	-0.375615	0.000027
C200	C	0.816228	-0.042282	0.333360
C201	C	1.149562	0.291051	0.666694
C202	C	0.483412	-0.325198	0.000027
C203	C	0.816745	0.008135	0.333360
C204	C	1.150079	0.341468	0.666693
C205	C	0.527751	-0.306086	0.000037
C206	C	0.861084	0.027247	0.333370
C207	C	1.194418	0.360581	0.666703
C208	C	0.528262	-0.255683	0.000051
C209	C	0.861595	0.077651	0.333384
C210	C	1.194928	0.410984	0.666718
N211	N	0.572598	-0.236568	0.000056
N212	N	0.905931	0.096766	0.333389
N213	N	1.239265	0.430099	0.666723
C214	C	0.616421	-0.267867	0.000061
C215	C	0.949755	0.065467	0.333394
C216	C	1.283088	0.398800	0.666728
C217	C	0.523596	-0.714450	0.000032
C218	C	0.856929	-0.381116	0.333366
C219	C	1.190262	-0.047783	0.666699
C220	C	0.523083	-0.764864	0.000032
C221	C	0.856416	-0.431531	0.333366
C222	C	1.189749	-0.098197	0.666699
C223	C	0.611246	-0.777049	0.000043
C224	C	0.944579	-0.443715	0.333376
C225	C	1.277913	-0.110382	0.666710
C226	C	0.611759	-0.726633	0.000047
C227	C	0.945092	-0.393300	0.333380
C228	C	1.278425	-0.059967	0.666713
C229	C	0.567932	-0.695335	0.000037
C230	C	0.901265	-0.362001	0.333371
C231	C	1.234599	-0.028668	0.666704
C232	C	0.617494	-0.161998	0.000071
C233	C	0.950827	0.171336	0.333404
C234	C	1.284161	0.504669	0.666738
C235	C	0.618002	-0.111581	0.000078
C236	C	0.951336	0.221752	0.333411
C237	C	1.284669	0.555086	0.666744
C238	C	0.529839	-0.099401	0.000064
C239	C	0.863173	0.233933	0.333398
C240	C	1.196506	0.567266	0.666731
C241	C	0.529331	-0.149813	0.000060
C242	C	0.862664	0.183520	0.333394
C243	C	1.195997	0.516854	0.666727
C244	C	0.573162	-0.181111	0.000062
C245	C	0.906495	0.152222	0.333395
C246	C	1.239829	0.485556	0.666729
O247	O	0.491060	-0.224391	0.000063
O248	O	0.824393	0.108942	0.333396
O249	O	1.157727	0.442275	0.666729
O250	O	0.654174	-0.246971	0.000060
O251	O	0.987507	0.086362	0.333393
O252	O	1.320841	0.419695	0.666726
C253	C	0.614372	-0.469517	0.000047
C254	C	0.947705	-0.136183	0.333381
C255	C	1.281038	0.197150	0.666714
C256	C	0.570036	-0.488629	0.000038
C257	C	0.903369	-0.155296	0.333371
C258	C	1.236703	0.178037	0.666705
C259	C	0.526213	-0.457330	0.000033
C260	C	0.859546	-0.123997	0.333366
C261	C	1.192879	0.209337	0.666700
C262	C	0.569523	-0.539044	0.000038
C263	C	0.902856	-0.205710	0.333371
C264	C	1.236190	0.127623	0.666705
C265	C	0.613346	-0.570343	0.000043
C266	C	0.946680	-0.237009	0.333376
C267	C	1.280013	0.096324	0.666710
C268	C	0.657683	-0.551228	0.000048
C269	C	0.991016	-0.217894	0.333381
C270	C	1.324349	0.115439	0.666715
C271	C	0.658195	-0.500816	0.000052
C272	C	0.991528	-0.167482	0.333386
C273	C	1.324862	0.165851	0.666719
C274	C	0.481876	-0.476445	0.000028
C275	C	0.815209	-0.143112	0.333361
C276	C	1.148543	0.190222	0.666695
C277	C	0.481367	-0.526858	0.000024
C278	C	0.814701	-0.193524	0.333357
C279	C	1.148034	0.139809	0.666691
C280	C	0.525191	-0.558157	0.000029
C281	C	0.858524	-0.224823	0.333362
C282	C	1.191857	0.108510	0.666696
C283	C	0.658949	0.057571	0.000067
C284	C	0.992282	0.390904	0.333400
C285	C	1.325615	0.724238	0.666734
C286	C	0.712605	0.058113	0.000070
C287	C	1.045938	0.391447	0.333403
C288	C	1.379272	0.724780	0.666736
C289	C	0.566353	0.150182	0.000045
C290	C	0.899687	0.483515	0.333378
C291	C	1.233020	0.816849	0.666711
C292	C	0.566906	0.203837	0.000037
C293	C	0.900239	0.537170	0.333371
C294	C	1.233573	0.870503	0.666704
N295	N	0.570505	0.061746	0.129304
N296	N	0.903838	0.395079	0.462638
N297	N	1.237171	0.728412	0.795971
N298	N	0.570584	0.061805	-0.129190
N299	N	0.903917	0.395139	0.204143
N300	N	1.237251	0.728472	0.537477
C301	C	0.541454	0.032657	0.526198
C302	C	0.874787	0.365991	0.859531
C303	C	1.208121	0.699324	1.192865
C304	C	0.541431	0.032644	0.317320
C305	C	0.874764	0.365977	0.650654
C306	C	1.208098	0.699311	0.983987
O307	O	0.516699	0.007871	0.290329
O308	O	0.850032	0.341204	0.623662
O309	O	1.183365	0.674538	0.956995
N310	N	0.570524	0.061753	0.291183
N311	N	0.903858	0.395087	0.624516
N312	N	1.237191	0.728420	0.957850
C313	C	0.599628	0.090866	0.317268
C314	C	0.932961	0.424199	0.650601
C315	C	1.266294	0.757532	0.983935
O316	O	0.624376	0.115621	0.290244
O317	O	0.957710	0.448954	0.623577
O318	O	1.291043	0.782287	0.956910
C319	C	0.599653	0.090876	0.526145
C320	C	0.932986	0.424209	0.859478
C321	C	1.266319	0.757543	1.192811
C322	C	0.570554	0.061768	0.552280
C323	C	0.903887	0.395102	0.885613
C324	C	1.237221	0.728435	1.218946
C325	C	0.512358	0.003552	0.552333
C326	C	0.845691	0.336885	0.885666
C327	C	1.179025	0.670218	1.219000
C328	C	0.512362	0.003557	0.604549
C329	C	0.845695	0.336891	0.937883
C330	C	1.179029	0.670224	1.271216
C331	C	0.541462	0.032668	0.630631
C332	C	0.874795	0.366002	0.963964
C333	C	1.208129	0.699335	1.297297
C334	C	0.570558	0.061774	0.604496
C335	C	0.903891	0.395107	0.937829
C336	C	1.237225	0.728441	1.271163
C337	C	0.628758	0.119985	0.552229
C338	C	0.962091	0.453319	0.885562
C339	C	1.295425	0.786652	1.218896
C340	C	0.628763	0.119984	0.604451
C341	C	0.962096	0.453318	0.937785
C342	C	1.295429	0.786651	1.271118
C343	C	0.599664	0.090877	0.630586
C344	C	0.932997	0.424210	0.963920
C345	C	1.266331	0.757543	1.297253
C346	C	0.599662	0.090891	0.682794
C347	C	0.932995	0.424224	1.016127
C348	C	1.266329	0.757557	1.349460
N349	N	0.570569	0.061781	0.708931
N350	N	0.903902	0.395115	1.042264
N351	N	1.237235	0.728448	1.375598
C352	C	0.541469	0.032670	0.682850
C353	C	0.874802	0.366004	1.016183
C354	C	1.208136	0.699337	1.349516
C355	C	0.599612	0.090859	0.207605
C356	C	0.932945	0.424192	0.540938
C357	C	1.266278	0.757525	0.874271
C358	C	0.599605	0.090857	0.155386
C359	C	0.932938	0.424190	0.488719
C360	C	1.266271	0.757524	0.822052
C361	C	0.541409	0.032635	0.155442
C362	C	0.874742	0.365968	0.488775
C363	C	1.208076	0.699301	0.822108
C364	C	0.541413	0.032639	0.207662
C365	C	0.874747	0.365973	0.540995
C366	C	1.208080	0.699306	0.874328
C367	C	0.570518	0.061749	0.233742
C368	C	0.903852	0.395083	0.567076
C369	C	1.237185	0.728416	0.900409
C370	C	0.541479	0.032685	0.792508
C371	C	0.874812	0.366018	1.125841
C372	C	1.208146	0.699351	1.459174
C373	C	0.541484	0.032694	0.844729
C374	C	0.874818	0.366028	1.178062
C375	C	1.208151	0.699361	1.511395
C376	C	0.599682	0.090915	0.844668
C377	C	0.933015	0.424248	1.178001
C378	C	1.266348	0.757581	1.511335
C379	C	0.599675	0.090907	0.792452
C380	C	0.933008	0.424240	1.125785
C381	C	1.266342	0.757574	1.459118
C382	C	0.570572	0.061788	0.766373
C383	C	0.903906	0.395121	1.099706
C384	C	1.237239	0.728455	1.433039
O385	O	0.624386	0.115647	0.709818
O386	O	0.957719	0.448980	1.043151
O387	O	1.291052	0.782313	1.376484
O388	O	0.516732	0.007911	0.709883
O389	O	0.850065	0.341244	1.043216
O390	O	1.183399	0.674577	1.376550
C391	C	0.541450	0.032652	0.473982
C392	C	0.874783	0.365985	0.807315
C393	C	1.208117	0.699318	1.140648
C394	C	0.570546	0.061757	0.447847
C395	C	0.903879	0.395090	0.781180
C396	C	1.237213	0.728424	1.114514
C397	C	0.599646	0.090868	0.473928
C398	C	0.932979	0.424202	0.807262
C399	C	1.266312	0.757535	1.140595
C400	C	0.570539	0.061755	0.395628
C401	C	0.903872	0.395089	0.728961
C402	C	1.237206	0.728422	1.062295
C403	C	0.541439	0.032644	0.369547
C404	C	0.874772	0.365977	0.702880
C405	C	1.208106	0.699311	1.036213
C406	C	0.512346	0.003535	0.395684
C407	C	0.845679	0.336868	0.729017
C408	C	1.179013	0.670202	1.062351
C409	C	0.512350	0.003540	0.447900
C410	C	0.845683	0.336874	0.781234
C411	C	1.179017	0.670207	1.114567
C412	C	0.628739	0.119978	0.447791
C413	C	0.962072	0.453311	0.781124
C414	C	1.295406	0.786644	1.114458
C415	C	0.628732	0.119970	0.395575
C416	C	0.962065	0.453303	0.728908
C417	C	1.295399	0.786637	1.062241
C418	C	0.599632	0.090859	0.369493
C419	C	0.932966	0.424192	0.702826
C420	C	1.266299	0.757526	1.036160
H421	H	0.423779	0.065378	0.082091
H422	H	0.757113	0.398711	0.415424
H423	H	1.090446	0.732045	0.748758
H424	H	0.040633	0.061432	0.127331
H425	H	0.373967	0.394765	0.460665
H426	H	0.707300	0.728098	0.793998
C427	C	0.325463	0.064509	-0.094261
C428	C	0.658796	0.397843	0.239072
C429	C	0.992129	0.731176	0.572405
C430	C	0.290771	0.105819	-0.096914
C431	C	0.624104	0.439153	0.236419
C432	C	0.957437	0.772486	0.569753
C433	C	0.265527	0.105681	-0.142124
C434	C	0.598860	0.439014	0.191209
C435	C	0.932194	0.772348	0.524542
H436	H	0.309656	0.036139	-0.096184
H437	H	0.642989	0.369473	0.237149
H438	H	0.976322	0.702806	0.570482
H439	H	0.347680	0.064772	-0.121210
H440	H	0.681014	0.398105	0.212123
H441	H	1.014347	0.731438	0.545456
H442	H	0.268556	0.105553	-0.069973
H443	H	0.601889	0.438886	0.263361
H444	H	0.935223	0.772219	0.596694
H445	H	0.306564	0.134196	-0.095000
H446	H	0.639898	0.467529	0.238334
H447	H	0.973231	0.800862	0.571667
H448	H	0.287745	0.105943	-0.169073
H449	H	0.621078	0.439277	0.164260
H450	H	0.954411	0.772610	0.497593
H451	H	0.249723	0.077309	-0.144043
H452	H	0.583056	0.410643	0.189290
H453	H	0.916390	0.743976	0.522623
H454	H	0.241989	0.133711	-0.143932
H455	H	0.575322	0.467045	0.189401
H456	H	0.908655	0.800378	0.522735
H457	H	-0.050770	0.060554	-0.127205
H458	H	0.282563	0.393887	0.206129
H459	H	0.615896	0.727221	0.539462
H460	H	0.694908	-0.425472	0.000064
H461	H	1.028241	-0.092138	0.333397
H462	H	1.361575	0.241195	0.666730
H463	H	0.647863	-0.711076	0.000054
H464	H	0.981197	-0.377743	0.333388
H465	H	1.314530	-0.044409	0.666721
H466	H	0.423814	0.065414	-0.082003
H467	H	0.757147	0.398747	0.251330
H468	H	1.090481	0.732081	0.584664
H469	H	0.646929	-0.802541	0.000047
H470	H	0.980262	-0.469208	0.333381
H471	H	1.313595	-0.135875	0.666714
H472	H	0.517719	0.008937	0.228937
H473	H	0.851052	0.342271	0.562271
H474	H	1.184385	0.675604	0.895604
H475	H	0.446789	-0.391167	0.000016
H476	H	0.780123	-0.057834	0.333349
H477	H	1.113456	0.275499	0.666682
C478	C	0.509826	0.001173	0.873129
C479	C	0.843160	0.334506	1.206462
C480	C	1.176493	0.667839	1.539796
C481	C	0.476864	0.030717	0.903094
C482	C	0.810197	0.364050	1.236427
C483	C	1.143530	0.697384	1.569760
C484	C	0.447691	0.001697	0.929256
C485	C	0.781024	0.335031	1.262589
C486	C	1.114358	0.668364	1.595923
H487	H	0.529747	-0.021220	0.893546
H488	H	0.863080	0.312114	1.226879
H489	H	1.196413	0.645447	1.560212
H490	H	0.492468	-0.016156	0.850130
H491	H	0.825801	0.317178	1.183463
H492	H	1.159135	0.650511	1.516796
H493	H	0.494221	0.048037	0.926090
H494	H	0.827554	0.381371	1.259424
H495	H	1.160887	0.714704	1.592757
H496	H	0.456933	0.053109	0.882690
H497	H	0.790266	0.386442	1.216023
H498	H	1.123599	0.719775	1.549356
H499	H	0.430333	-0.015631	0.906257
H500	H	0.763666	0.317702	1.239590
H501	H	1.096999	0.651035	1.572923
H502	H	0.467615	-0.020694	0.949670
H503	H	0.800948	0.312640	1.283003
H504	H	1.134282	0.645973	1.616336
H505	H	0.425320	0.021739	0.949587
H506	H	0.758653	0.355072	1.282920
H507	H	1.091986	0.688406	1.616253
H508	H	0.445258	-0.542413	0.000020
H509	H	0.778592	-0.209080	0.333354
H510	H	1.111925	0.124253	0.666687
H511	H	0.332329	0.064436	0.082099
H512	H	0.665663	0.397769	0.415433
H513	H	0.998996	0.731103	0.748766
H514	H	-0.050827	0.060494	0.127329
H515	H	0.282506	0.393827	0.460662
H516	H	0.615839	0.727161	0.793995
H517	H	0.100475	0.062093	-0.127217
H518	H	0.433808	0.395426	0.206117
H519	H	0.767141	0.728760	0.539450
H520	H	0.493226	-0.165375	0.000066
H521	H	0.826559	0.167959	0.333399
H522	H	1.159893	0.501292	0.666733
H523	H	0.652465	0.143689	0.625684
H524	H	0.985798	0.477023	0.959017
H525	H	1.319131	0.810356	1.292350
H526	H	-0.282733	0.058141	0.082116
H527	H	0.050601	0.391475	0.415450
H528	H	0.383934	0.724808	0.748783
H529	H	0.040677	0.061488	-0.127207
H530	H	0.374010	0.394822	0.206127
H531	H	0.707343	0.728155	0.539460
H532	H	0.446189	-0.450966	0.000023
H533	H	0.779522	-0.117632	0.333356
H534	H	1.112856	0.215701	0.666690
C535	C	0.482246	-0.065437	0.000158
C536	C	0.815579	0.267896	0.333491
C537	C	1.148912	0.601229	0.666825
C538	C	0.455510	-0.074027	0.042837
C539	C	0.788844	0.259307	0.376170
C540	C	1.122177	0.592640	0.709504
C541	C	0.411667	-0.042744	0.042939
C542	C	0.745001	0.290590	0.376272
C543	C	1.078334	0.623923	0.709605
H544	H	0.464004	-0.071155	-0.028743
H545	H	0.797338	0.262178	0.304590
H546	H	1.130671	0.595512	0.637923
H547	H	0.488883	-0.032668	0.000186
H548	H	0.822217	0.300665	0.333519
H549	H	1.155550	0.633998	0.666853
H550	H	0.448871	-0.106788	0.042805
H551	H	0.782205	0.226546	0.376138
H552	H	1.115538	0.559879	0.709471
H553	H	0.473737	-0.068306	0.071745
H554	H	0.807070	0.265028	0.405078
H555	H	1.140403	0.598361	0.738412
H556	H	0.418305	-0.009975	0.042967
H557	H	0.751638	0.323358	0.376300
H558	H	1.084972	0.656692	0.709633
H559	H	0.393431	-0.048464	0.014036
H560	H	0.726764	0.284869	0.347369
H561	H	1.060097	0.618203	0.680702
H562	H	0.393524	-0.048564	0.071898
H563	H	0.726857	0.284769	0.405231
H564	H	1.060191	0.618102	0.738565
C565	C	0.660380	0.151590	0.367293
C566	C	0.993713	0.484924	0.700627
C567	C	1.327046	0.818257	1.033960
C568	C	0.685873	0.177073	0.401318
C569	C	1.019206	0.510406	0.734651
C570	C	1.352540	0.843740	1.067984
C571	C	0.715039	0.206197	0.375286
C572	C	1.048372	0.539530	0.708619
C573	C	1.381705	0.872863	1.041952
H574	H	0.640460	0.174019	0.346914
H575	H	0.973793	0.507352	0.680247
H576	H	1.307126	0.840685	1.013580
H577	H	0.682799	0.131628	0.346939
H578	H	1.016132	0.464961	0.680272
H579	H	1.349466	0.798295	1.013606
H580	H	0.663457	0.197034	0.421663
H581	H	0.996790	0.530367	0.754997
H582	H	1.330123	0.863701	1.088330
H583	H	0.705802	0.154657	0.421699
H584	H	1.039135	0.487990	0.755032
H585	H	1.372469	0.821324	1.088365
H586	H	0.737458	0.186234	0.354931
H587	H	1.070791	0.519568	0.688264
H588	H	1.404125	0.852901	1.021598
H589	H	0.695115	0.228622	0.354907
H590	H	1.028448	0.561955	0.688240
H591	H	1.361782	0.895288	1.021573
H592	H	0.732343	0.223487	0.398367
H593	H	1.065676	0.556820	0.731700
H594	H	1.399009	0.890153	1.065034
C595	C	0.631131	0.122502	0.235982
C596	C	0.964464	0.455835	0.569315
C597	C	1.297797	0.789168	0.902649
C598	C	0.601584	0.155441	0.265966
C599	C	0.934917	0.488774	0.599299
C600	C	1.268251	0.822107	0.932633
C601	C	0.630601	0.184594	0.292117
C602	C	0.963934	0.517928	0.625450
C603	C	1.297268	0.851261	0.958784
H604	H	0.648462	0.139882	0.212991
H605	H	0.981795	0.473215	0.546324
H606	H	1.315129	0.806549	0.879657
H607	H	0.653522	0.102551	0.256382
H608	H	0.986855	0.435884	0.589715
H609	H	1.320188	0.769218	0.923048
H610	H	0.579201	0.175389	0.245568
H611	H	0.912535	0.508722	0.578901
H612	H	1.245868	0.842056	0.912235
H613	H	0.584253	0.138074	0.288966
H614	H	0.917586	0.471407	0.622300
H615	H	1.250919	0.804740	0.955633
H616	H	0.652992	0.164644	0.312517
H617	H	0.986326	0.497977	0.645850
H618	H	1.319659	0.831310	0.979183
H619	H	0.647931	0.201972	0.269122
H620	H	0.981265	0.535305	0.602456
H621	H	1.314598	0.868638	0.935789
H622	H	0.610558	0.206944	0.312467
H623	H	0.943892	0.540277	0.645801
H624	H	1.277225	0.873611	0.979134
H625	H	0.447722	-0.299716	0.000018
H626	H	0.781055	0.033617	0.333352
H627	H	1.114389	0.366950	0.666685
H628	H	0.191925	0.063026	-0.127217
H629	H	0.525259	0.396360	0.206117
H630	H	0.858592	0.729693	0.539450
H631	H	0.488661	-0.020157	0.531103
H632	H	0.821995	0.313177	0.864436
H633	H	1.155328	0.646510	1.197770
C634	C	0.666195	-0.090926	0.000061
C635	C	0.999528	0.242408	0.333394
C636	C	1.332861	0.575741	0.666727
C637	C	0.704462	-0.129131	0.000049
C638	C	1.037795	0.204203	0.333382
C639	C	1.371129	0.537536	0.666716
C640	C	0.748862	-0.110124	0.000025
C641	C	1.082195	0.223210	0.333359
C642	C	1.415528	0.556543	0.666692
H643	H	0.668290	-0.071533	0.028984
H644	H	1.001623	0.261800	0.362317
H645	H	1.334956	0.595134	0.695651
H646	H	0.668263	-0.071514	-0.028879
H647	H	1.001596	0.261819	0.304454
H648	H	1.334930	0.595153	0.637787
H649	H	0.702395	-0.148534	0.028986
H650	H	1.035728	0.184799	0.362319
H651	H	1.369061	0.518133	0.695652
H652	H	0.702383	-0.148527	-0.028872
H653	H	1.035717	0.184807	0.304461
H654	H	1.369050	0.518140	0.637794
H655	H	0.750930	-0.090712	-0.028914
H656	H	1.084263	0.242621	0.304419
H657	H	1.417597	0.575955	0.637752
H658	H	0.750951	-0.090731	0.028949
H659	H	1.084285	0.242602	0.362283
H660	H	1.417618	0.575936	0.695616
H661	H	0.774831	-0.136042	0.000013
H662	H	1.108164	0.197291	0.333346
H663	H	1.441498	0.530624	0.666679
C664	C	0.198625	0.063022	0.139653
C665	C	0.531959	0.396356	0.472986
C666	C	0.865292	0.729689	0.806320
C667	C	0.165747	0.062662	0.179251
C668	C	0.499081	0.395996	0.512585
C669	C	0.832414	0.729329	0.845918
C670	C	0.190848	0.062875	0.224541
C671	C	0.524181	0.396208	0.557875
C672	C	0.857514	0.729541	0.891208
H673	H	0.214396	0.091414	0.141605
H674	H	0.547729	0.424747	0.474938
H675	H	0.881062	0.758080	0.808272
H676	H	0.222181	0.035011	0.141565
H677	H	0.555515	0.368345	0.474898
H678	H	0.888848	0.701678	0.808232
H679	H	0.142200	0.090671	0.177340
H680	H	0.475534	0.424004	0.510674
H681	H	0.808867	0.757337	0.844007
H682	H	0.149976	0.034273	0.177316
H683	H	0.483309	0.367606	0.510649
H684	H	0.816642	0.700940	0.843983
H685	H	0.214404	0.034864	0.226453
H686	H	0.547737	0.368197	0.559787
H687	H	0.881070	0.701530	0.893120
H688	H	0.206617	0.091266	0.226488
H689	H	0.539951	0.424600	0.559821
H690	H	0.873284	0.757933	0.893155
H691	H	0.168545	0.062626	0.251414
H692	H	0.501878	0.395959	0.584748
H693	H	0.835211	0.729293	0.918081
H694	H	0.488655	-0.020162	0.469175
H695	H	0.821988	0.313171	0.802508
H696	H	1.155322	0.646505	1.135841
H697	H	0.517713	0.008932	0.134197
H698	H	0.851047	0.342266	0.467531
H699	H	1.184380	0.675599	0.800864
H700	H	0.486977	-0.780420	0.000033
H701	H	0.820311	-0.447087	0.333366
H702	H	1.153644	-0.113754	0.666700
H703	H	0.487905	-0.688970	0.000025
H704	H	0.821238	-0.355637	0.333358
H705	H	1.154571	-0.022303	0.666692
H706	H	0.694301	-0.485260	0.000060
H707	H	1.027634	-0.151926	0.333394
H708	H	1.360967	0.181407	0.666727
C709	C	-0.289445	0.058093	-0.094306
C710	C	0.043888	0.391427	0.239028
C711	C	0.377222	0.724760	0.572361
C712	C	-0.256565	0.058425	-0.133906
C713	C	0.076768	0.391758	0.199427
C714	C	0.410102	0.725092	0.532761
C715	C	-0.281660	0.058150	-0.179194
C716	C	0.051674	0.391483	0.154139
C717	C	0.385007	0.724816	0.487472
H718	H	-0.313011	0.086084	-0.096263
H719	H	0.020322	0.419418	0.237070
H720	H	0.353655	0.752751	0.570403
H721	H	-0.305200	0.029682	-0.096210
H722	H	0.028134	0.363016	0.237124
H723	H	0.361467	0.696349	0.570457
H724	H	-0.240818	0.086833	-0.132003
H725	H	0.092515	0.420166	0.201331
H726	H	0.425848	0.753500	0.534664
H727	H	-0.232998	0.030436	-0.131965
H728	H	0.100335	0.363769	0.201369
H729	H	0.433668	0.697103	0.534702
H730	H	-0.297414	0.029739	-0.181098
H731	H	0.035919	0.363072	0.152235
H732	H	0.369253	0.696405	0.485568
H733	H	-0.305225	0.086141	-0.181147
H734	H	0.028108	0.419475	0.152186
H735	H	0.361442	0.752808	0.485520
H736	H	-0.259354	0.058370	-0.206069
H737	H	0.073979	0.391704	0.127265
H738	H	0.407313	0.725037	0.460598
H739	H	0.693365	-0.576720	0.000054
H740	H	1.026699	-0.243387	0.333388
H741	H	1.360032	0.089946	0.666721
C742	C	0.665067	-0.195997	-0.000027
C743	C	0.998400	0.137337	0.333306
C744	C	1.331733	0.470670	0.666640
C745	C	0.667376	-0.225270	-0.042715
C746	C	1.000709	0.108064	0.290618
C747	C	1.334043	0.441397	0.623952
C748	C	0.711195	-0.256590	-0.042822
C749	C	1.044528	0.076743	0.290512
C750	C	1.377861	0.410076	0.623845
H751	H	0.666738	-0.215975	0.028868
H752	H	1.000072	0.117359	0.362202
H753	H	1.333405	0.450692	0.695535
H754	H	0.691556	-0.177404	-0.000047
H755	H	1.024889	0.155929	0.333287
H756	H	1.358222	0.489262	0.666620
H757	H	0.640894	-0.243860	-0.042691
H758	H	0.974228	0.089473	0.290643
H759	H	1.307561	0.422806	0.623976
H760	H	0.665713	-0.205305	-0.071617
H761	H	0.999046	0.128028	0.261716
H762	H	1.332379	0.461362	0.595050
H763	H	0.737684	-0.237998	-0.042842
H764	H	1.071017	0.095335	0.290492
H765	H	1.404350	0.428668	0.623825
H766	H	0.712862	-0.276565	-0.013925
H767	H	1.046196	0.056768	0.319408
H768	H	1.379529	0.390102	0.652742
H769	H	0.712769	-0.276453	-0.071787
H770	H	1.046103	0.056880	0.261546
H771	H	1.379436	0.390214	0.594880
C772	C	0.660400	0.151503	0.476128
C773	C	0.993733	0.484836	0.809462
C774	C	1.327067	0.818170	1.142795
C775	C	0.693370	0.121968	0.506102
C776	C	1.026703	0.455301	0.839436
C777	C	1.360036	0.788635	1.172769
C778	C	0.722548	0.150996	0.532206
C779	C	1.055882	0.484329	0.865539
C780	C	1.389215	0.817662	1.198872
H781	H	0.640484	0.173901	0.496534
H782	H	0.973818	0.507235	0.829867
H783	H	1.307151	0.840568	1.163200
H784	H	0.677753	0.168825	0.453094
H785	H	1.011086	0.502159	0.786427
H786	H	1.344420	0.835492	1.119761
H787	H	0.676019	0.104654	0.529134
H788	H	1.009352	0.437987	0.862468
H789	H	1.342685	0.771321	1.195801
H790	H	0.713296	0.099570	0.485710
H791	H	1.046630	0.432904	0.819043
H792	H	1.379963	0.766237	1.152376
H793	H	0.739901	0.168318	0.509171
H794	H	1.073235	0.501651	0.842505
H795	H	1.406568	0.834984	1.175838
H796	H	0.702629	0.173393	0.552608
H797	H	1.035962	0.506726	0.885942
H798	H	1.369295	0.840059	1.219275
H799	H	0.744925	0.130960	0.552543
H800	H	1.078258	0.464293	0.885876
H801	H	1.411591	0.797627	1.219209
H802	H	-0.191268	0.059080	0.082118
H803	H	0.142065	0.392414	0.415451
H804	H	0.475399	0.725747	0.748785
C805	C	0.480801	-0.028055	0.367270
C806	C	0.814135	0.305278	0.700604
C807	C	1.147468	0.638611	1.033937
C808	C	0.487038	-0.021833	0.315947
C809	C	0.820372	0.311500	0.649280
C810	C	1.153705	0.644833	0.982614
C811	C	0.457995	-0.050930	0.289755
C812	C	0.791329	0.282403	0.623088
C813	C	1.124662	0.615737	0.956421
H814	H	0.447643	-0.018868	0.375773
H815	H	0.780976	0.314465	0.709106
H816	H	1.114310	0.647798	1.042439
H817	H	0.490036	-0.061205	0.375810
H818	H	0.823369	0.272128	0.709144
H819	H	1.156702	0.605461	1.042477
H820	H	0.477801	0.011310	0.307411
H821	H	0.811134	0.344643	0.640744
H822	H	1.144468	0.677976	0.974077
H823	H	0.520190	-0.031023	0.307430
H824	H	0.853524	0.302310	0.640763
H825	H	1.186857	0.635643	0.974097
H826	H	0.467230	-0.084080	0.298295
H827	H	0.800563	0.249253	0.631628
H828	H	1.133896	0.582587	0.964961
H829	H	0.424839	-0.041740	0.298261
H830	H	0.758172	0.291593	0.631594
H831	H	1.091505	0.624926	0.964927
H832	H	0.462226	-0.046716	0.254929
H833	H	0.795560	0.286618	0.588262
H834	H	1.128893	0.619951	0.921596
C835	C	0.631246	0.122479	0.127104
C836	C	0.964579	0.455813	0.460438
C837	C	1.297912	0.789146	0.793771
C838	C	0.656740	0.147961	0.161129
C839	C	0.990073	0.481295	0.494462
C840	C	1.323406	0.814628	0.827795
C841	C	0.685900	0.177090	0.135097
C842	C	1.019233	0.510424	0.468430
C843	C	1.352567	0.843757	0.801763
H844	H	0.611322	0.144908	0.106728
H845	H	0.944655	0.478241	0.440062
H846	H	1.277989	0.811574	0.773395
H847	H	0.653665	0.102521	0.106747
H848	H	0.986998	0.435854	0.440080
H849	H	1.320331	0.769187	0.773413
H850	H	0.634323	0.167919	0.181478
H851	H	0.967657	0.501252	0.514812
H852	H	1.300990	0.834585	0.848145
H853	H	0.676672	0.125545	0.181506
H854	H	1.010006	0.458878	0.514839
H855	H	1.343339	0.792212	0.848173
H856	H	0.708319	0.157132	0.114739
H857	H	1.041652	0.490465	0.448072
H858	H	1.374985	0.823798	0.781405
H859	H	0.665973	0.199516	0.114721
H860	H	0.999306	0.532849	0.448055
H861	H	1.332639	0.866182	0.781388
H862	H	0.703204	0.194380	0.158178
H863	H	1.036538	0.527713	0.491511
H864	H	1.369871	0.861047	0.824845
C865	C	0.631315	0.122528	0.764164
C866	C	0.964648	0.455861	1.097497
C867	C	1.297982	0.789195	1.430830
C868	C	0.656807	0.148017	0.798184
C869	C	0.990140	0.481350	1.131518
C870	C	1.323473	0.814683	1.464851
C871	C	0.685966	0.177143	0.772148
C872	C	1.019300	0.510476	1.105481
C873	C	1.352633	0.843810	1.438815
H874	H	0.611391	0.144953	0.743784
H875	H	0.944725	0.478286	1.077117
H876	H	1.278058	0.811619	1.410450
H877	H	0.653735	0.102567	0.743809
H878	H	0.987069	0.435900	1.077143
H879	H	1.320402	0.769234	1.410476
H880	H	0.634389	0.167976	0.818530
H881	H	0.967722	0.501310	1.151864
H882	H	1.301056	0.834643	1.485197
H883	H	0.676739	0.125604	0.818566
H884	H	1.010073	0.458938	1.151899
H885	H	1.343406	0.792271	1.485232
H886	H	0.708387	0.157182	0.751794
H887	H	1.041720	0.490515	1.085127
H888	H	1.375054	0.823848	1.418460
H889	H	0.666039	0.199565	0.751769
H890	H	0.999372	0.532898	1.085102
H891	H	1.332706	0.866231	1.418435
H892	H	0.703269	0.194437	0.795227
H893	H	1.036603	0.527770	1.128560
H894	H	1.369936	0.861104	1.461894
H895	H	0.517781	0.008973	0.771280
H896	H	0.851114	0.342307	1.104614
H897	H	1.184448	0.675640	1.437947
H898	H	0.100421	0.062044	0.127329
H899	H	0.433754	0.395378	0.460662
H900	H	0.767088	0.728711	0.793995
H901	H	0.695837	-0.334024	0.000072
H902	H	1.029171	-0.000691	0.333405
H903	H	1.362504	0.332642	0.666739
C904	C	0.480759	-0.028102	0.632832
C905	C	0.814093	0.305231	0.966165
C906	C	1.147426	0.638564	1.299499
C907	C	0.455287	-0.053607	0.598808
C908	C	0.788620	0.279727	0.932142
C909	C	1.121954	0.613060	1.265475
C910	C	0.426176	-0.082784	0.624841
C911	C	0.759509	0.250550	0.958175
C912	C	1.092842	0.583883	1.291508
H913	H	0.458325	-0.008189	0.653204
H914	H	0.791659	0.325144	0.986538
H915	H	1.124992	0.658477	1.319871
H916	H	0.500729	-0.050515	0.653194
H917	H	0.834063	0.282818	0.986527
H918	H	1.167396	0.616152	1.319861
H919	H	0.435319	-0.031197	0.578455
H920	H	0.768652	0.302137	0.911788
H921	H	1.101985	0.635470	1.245122
H922	H	0.477709	-0.073529	0.578435
H923	H	0.811042	0.259805	0.911768
H924	H	1.144376	0.593138	1.245102
H925	H	0.446145	-0.105197	0.645203
H926	H	0.779479	0.228137	0.978537
H927	H	1.112812	0.561470	1.311870
H928	H	0.403744	-0.062867	0.645213
H929	H	0.737078	0.270466	0.978546
H930	H	1.070411	0.603800	1.311879
H931	H	0.408892	-0.100095	0.601760
H932	H	0.742226	0.233238	0.935094
H933	H	1.075559	0.566571	1.268427
H934	H	-0.191243	0.059111	-0.081984
H935	H	0.142091	0.392444	0.251350
H936	H	0.475424	0.725778	0.584683
H937	H	0.652454	0.143687	0.530959
H938	H	0.985788	0.477020	0.864292
H939	H	1.319121	0.810353	1.197626
H940	H	0.623373	0.114617	0.865913
H941	H	0.956706	0.447951	1.199246
H942	H	1.290040	0.781284	1.532580
