data_functionalizedCrystal
_audit_creation_method	'MofGen! by Chris Wilmer'
_symmetry_space_group_name_H-M	'P1'
_symmetry_Int_Tables_number	1
_symmetry_cell_setting	triclinic
loop_
_symmetry_equiv_pos_as_xyz
  x,y,z
_cell_length_a	10.654562
_cell_length_b	19.188930
_cell_length_c	17.666332
_cell_angle_alpha	89.989658
_cell_angle_beta	89.987937
_cell_angle_gamma	83.817442
loop_
_atom_site_label
_atom_site_type_symbol
_atom_site_fract_x
_atom_site_fract_y
_atom_site_fract_z
O1	O	1.665765	0.098104	-0.063008
O2	O	1.300091	0.107437	-0.062999
O3	O	1.493480	0.001184	-0.062989
O4	O	1.472375	0.204357	-0.063018
O5	O	1.493446	0.001181	0.062908
O6	O	1.300057	0.107434	0.062898
O7	O	1.665731	0.098101	0.062889
Cu8	Cu	1.482891	0.102767	0.074389
Cu9	Cu	1.482931	0.102771	-0.074499
O10	O	1.472341	0.204354	0.062879
C11	C	1.253291	0.106749	-0.000049
C12	C	1.113892	0.104693	-0.000046
C13	C	1.048363	0.103732	0.068575
C14	C	0.917381	0.101806	0.068563
C15	C	0.917469	0.101804	-0.068697
C16	C	1.048449	0.103725	-0.068684
C17	C	1.048311	0.103736	0.147821
C18	C	0.917329	0.101810	0.147808
C19	C	1.492780	-0.024833	-0.000038
C20	C	1.490728	-0.102351	-0.000032
C21	C	1.604203	-0.146530	-0.000031
C22	C	1.602275	-0.219366	-0.000043
C23	C	1.486867	-0.248020	-0.000041
C24	C	1.373377	-0.203832	-0.000046
C25	C	1.375308	-0.130997	-0.000041
N26	N	1.398639	-0.356606	0.042806
N27	N	1.396813	-0.425796	0.042804
C28	C	1.481043	-0.467467	-0.000056
N29	N	1.567187	-0.437335	-0.042903
N30	N	1.569017	-0.368138	-0.042897
C31	C	1.484761	-0.326997	-0.000046
C32	C	1.592435	-0.590624	-0.000069
C33	C	1.590503	-0.663462	-0.000086
C34	C	1.361602	-0.647926	-0.000081
C35	C	1.363537	-0.575090	-0.000072
C36	C	1.478957	-0.546444	-0.000062
C37	C	1.712531	0.098790	-0.000062
C38	C	1.851930	0.100845	-0.000071
C39	C	1.473042	0.230371	-0.000073
C40	C	1.475093	0.307889	-0.000085
N41	N	1.482872	0.102764	0.179108
N42	N	1.482960	0.102769	-0.179218
C43	C	1.558788	0.145508	0.218703
C44	C	1.558808	0.145506	0.297951
C45	C	1.482888	0.102768	0.337600
C46	C	1.406967	0.060016	0.297996
C47	C	1.406959	0.060014	0.218750
N48	N	1.372908	0.100326	0.462043
N49	N	1.372919	0.100332	0.537324
C50	C	1.482911	0.102771	0.576364
N51	N	1.592893	0.105217	0.537281
N52	N	1.592880	0.105215	0.461993
C53	C	1.482890	0.102765	0.423529
C54	C	1.558856	0.145515	0.701889
C55	C	1.558879	0.145508	0.781138
C56	C	1.407026	0.060022	0.781181
C57	C	1.407015	0.060024	0.701934
C58	C	1.482928	0.102775	0.662292
H59	H	1.101800	0.104497	-0.124561
Br60	Br	1.303940	0.002009	0.351803
Br61	Br	1.127113	0.023320	0.198555
H62	H	1.076801	0.154654	0.172402
H63	H	1.620670	0.180324	0.669611
H64	H	1.620629	0.180315	0.330196
H65	H	1.282900	-0.095026	-0.000042
H66	H	1.682912	-0.699432	-0.000089
H67	H	0.888812	0.050891	0.172406
H68	H	1.620608	0.180316	0.186432
H69	H	1.686417	-0.567300	-0.000065
H70	H	1.620708	0.180313	0.813375
Br71	Br	1.204972	-0.686806	-0.000086
H72	H	1.271133	-0.539118	-0.000069
Br73	Br	1.303915	0.002003	0.165009
Br74	Br	1.304009	0.002008	0.834982
H75	H	0.864169	0.101017	-0.124580
Br76	Br	0.838456	0.182225	0.198503
H77	H	1.698187	-0.123211	-0.000025
H78	H	1.694683	-0.255344	-0.000045
Br79	Br	1.216750	-0.242717	-0.000053
Br80	Br	1.303955	0.002025	0.648193
