data_functionalizedCrystal
_audit_creation_method	'MofGen! by Chris Wilmer'
_symmetry_space_group_name_H-M	'P1'
_symmetry_Int_Tables_number	1
_symmetry_cell_setting	triclinic
loop_
_symmetry_equiv_pos_as_xyz
  x,y,z
_cell_length_a	8.559649
_cell_length_b	16.974897
_cell_length_c	15.455313
_cell_angle_alpha	83.675220
_cell_angle_beta	92.289439
_cell_angle_gamma	76.604300
loop_
_atom_site_label
_atom_site_type_symbol
_atom_site_fract_x
_atom_site_fract_y
_atom_site_fract_z
O1	O	0.189691	1.044600	-0.145377
O2	O	0.217191	0.811943	-0.129064
O3	O	-0.029343	0.948769	-0.138657
O4	O	0.436225	0.907774	-0.135784
O5	O	-0.015303	0.940948	0.006153
O6	O	0.231231	0.804122	0.015747
O7	O	0.203731	1.036779	-0.000567
Cu8	Cu	0.218763	0.919737	0.020812
Cu9	Cu	0.202159	0.928986	-0.150443
O10	O	0.450265	0.899953	0.009026
C11	C	0.223422	0.778523	-0.054590
C12	C	0.221051	0.690595	-0.048424
C13	C	0.212288	0.653542	-0.124458
C14	C	0.210087	0.570920	-0.118652
C15	C	0.216637	0.525355	-0.036812
C16	C	0.225405	0.562413	0.039227
C17	C	0.227618	0.645032	0.033420
C18	C	0.210852	0.277804	-0.010982
C19	C	0.208633	0.195181	-0.005181
C20	C	0.193318	0.203693	-0.163060
C21	C	0.195522	0.286314	-0.168860
C22	C	0.204298	0.323364	-0.092821
N23	N	0.214382	0.440903	-0.030876
N24	N	0.206564	0.407813	-0.098758
C25	C	-0.081881	0.947965	-0.066471
C26	C	-0.259343	0.957213	-0.067124
C27	C	0.502802	0.900757	-0.063162
C28	C	0.680265	0.891510	-0.062514
C29	C	0.197500	1.070199	-0.075043
C30	C	0.199871	1.158128	-0.081214
N31	N	0.230440	0.913237	0.141263
N32	N	0.190469	0.935492	-0.270895
C33	C	0.125742	0.971381	0.182581
C34	C	0.134588	0.966473	0.273733
C35	C	0.248141	0.903422	0.323566
C36	C	0.352843	0.845272	0.282242
C37	C	0.343989	0.850179	0.191092
C38	C	0.286317	0.882248	0.596632
C39	C	0.295167	0.877348	0.687788
C40	C	0.076909	0.998548	0.679272
C41	C	0.068071	1.003451	0.588121
C42	C	0.172768	0.945299	0.546805
N43	N	0.257189	0.898405	0.416738
N44	N	0.163711	0.950314	0.453635
H45	H	0.230748	0.525306	0.105863
H46	H	-0.235676	0.828184	-0.058071
O47	O	-0.359391	1.032825	-0.072386
C48	C	-0.267615	1.092056	-0.076568
H49	H	-0.140287	1.062914	-0.047218
H50	H	-0.325603	1.143661	-0.038303
H51	H	-0.262742	1.117488	-0.147563
O52	O	-0.042926	1.064463	0.539832
C53	C	-0.146272	1.030494	0.490001
H54	H	-0.082886	0.965372	0.480788
H55	H	-0.179049	1.068655	0.423539
H56	H	-0.260446	1.029985	0.525378
O57	O	0.033123	1.022969	0.313968
C58	C	0.123500	1.063883	0.363592
H59	H	0.250168	1.023905	0.379994
H60	H	0.062905	1.077055	0.426527
H61	H	0.130506	1.123772	0.324385
H62	H	0.206949	0.690636	-0.191101
H63	H	0.445295	0.793932	0.322821
O64	O	0.215082	0.151026	0.074393
C65	C	0.223263	0.201448	0.140263
H66	H	0.273215	0.255221	0.113433
H67	H	0.305589	0.164833	0.197830
H68	H	0.097603	0.225061	0.162790
O69	O	0.189438	0.330500	-0.248379
C70	C	0.322666	0.295474	-0.293777
H71	H	0.423317	0.258106	-0.245143
H72	H	0.367110	0.345892	-0.332998
H73	H	0.285304	0.254103	-0.339897
H74	H	0.033282	1.022726	0.142012
O75	O	0.387809	0.825710	0.556465
C76	C	0.297465	0.784808	0.506805
H77	H	0.174063	0.789663	0.533837
H78	H	0.363098	0.717805	0.510481
H79	H	0.282178	0.813881	0.435942
O80	O	-0.025029	1.055010	0.719316
C81	C	-0.185347	1.052931	0.697300
H82	H	-0.191332	1.025889	0.633270
H83	H	-0.264857	1.117555	0.689655
H84	H	-0.229490	1.013669	0.751170
O85	O	0.201771	0.534995	-0.192573
C86	C	0.336115	0.540344	-0.240792
H87	H	0.386062	0.593313	-0.222153
H88	H	0.298031	0.550986	-0.313477
H89	H	0.432882	0.481061	-0.225738
O90	O	0.405510	0.816017	0.736068
C91	C	0.496040	0.765750	0.680057
H92	H	0.424196	0.772350	0.614867
H93	H	0.523447	0.699462	0.710960
H94	H	0.613680	0.784788	0.669054
O95	O	0.219137	0.313905	0.062819
C96	C	0.082401	0.378840	0.062975
H97	H	0.029940	0.400724	-0.006839
H98	H	0.118330	0.431217	0.092587
H99	H	-0.011630	0.357091	0.103304
H100	H	0.186176	0.173517	-0.224967
O101	O	0.445864	0.793653	0.151091
C102	C	0.547964	0.736939	0.214618
H103	H	0.555834	0.765873	0.277311
H104	H	0.673174	0.718464	0.189669
H105	H	0.497447	0.680621	0.228244
O106	O	0.236055	0.680912	0.107365
C107	C	0.241399	0.622976	0.180845
H108	H	0.186966	0.571696	0.161397
H109	H	0.169781	0.653636	0.233692
H110	H	0.371769	0.596750	0.206865
