data_functionalizedCrystal
_audit_creation_method	'MofGen! by Chris Wilmer'
_symmetry_space_group_name_H-M	'P1'
_symmetry_Int_Tables_number	1
_symmetry_cell_setting	triclinic
loop_
_symmetry_equiv_pos_as_xyz
  x,y,z
_cell_length_a	10.654550
_cell_length_b	16.109304
_cell_length_c	9.730223
_cell_angle_alpha	90.001479
_cell_angle_beta	89.996251
_cell_angle_gamma	83.973770
loop_
_atom_site_label
_atom_site_type_symbol
_atom_site_fract_x
_atom_site_fract_y
_atom_site_fract_z
O1	O	1.666252	0.116770	-0.114393
O2	O	1.300622	0.127896	-0.114371
O3	O	1.493479	0.001362	-0.114383
O4	O	1.473395	0.243304	-0.114381
O5	O	1.493477	0.001365	0.114197
O6	O	1.300620	0.127899	0.114209
O7	O	1.666249	0.116773	0.114186
Zn8	Zn	1.483434	0.122337	0.150490
Zn9	Zn	1.483437	0.122332	-0.150674
O10	O	1.473392	0.243307	0.114199
C11	C	1.253834	0.127080	-0.000078
C12	C	1.114424	0.124636	-0.000069
C13	C	1.033929	0.199137	-0.000088
C14	C	0.902939	0.196836	-0.000112
C15	C	0.932953	0.045526	-0.000103
C16	C	1.063940	0.047828	-0.000070
C17	C	1.016600	0.286495	-0.000100
C18	C	0.885610	0.284194	-0.000123
C19	C	1.492664	-0.029616	-0.000096
C20	C	1.490223	-0.121926	-0.000106
C21	C	1.484585	-0.334299	-0.124699
C22	C	1.482280	-0.421033	-0.124698
C23	C	1.482283	-0.421026	0.124513
C24	C	1.484580	-0.334293	0.124510
C25	C	1.485737	-0.290932	-0.000100
C26	C	1.481135	-0.464399	-0.000096
C27	C	1.478636	-0.558440	-0.000093
C28	C	1.488234	-0.196885	-0.000103
C29	C	1.713037	0.117589	-0.000109
C30	C	1.852448	0.120033	-0.000127
C31	C	1.474208	0.274285	-0.000091
C32	C	1.476649	0.366595	-0.000090
N33	N	1.483442	0.122339	0.356026
N34	N	1.483440	0.122323	-0.356210
C35	C	1.568860	0.066329	0.427947
C36	C	1.568857	0.066319	0.571830
C37	C	1.398012	0.178336	0.571859
C38	C	1.398011	0.178342	0.427979
C39	C	1.667500	0.001659	0.427931
C40	C	1.667497	0.001649	0.571814
H41	H	1.045467	0.320662	0.095567
C42	C	1.485852	-0.286583	0.261578
C43	C	1.484598	-0.334276	0.398645
C44	C	1.485866	-0.286566	0.535705
C45	C	1.488388	-0.191163	0.535699
C46	C	1.489642	-0.143465	0.398628
C47	C	1.488374	-0.191175	0.261567
H48	H	1.482731	-0.404904	0.398653
H49	H	1.484937	-0.321876	0.637175
H50	H	1.489327	-0.155845	0.637160
H51	H	1.491509	-0.072837	0.398619
H52	H	1.489302	-0.155865	0.160098
H53	H	1.646923	-0.062244	0.388878
H54	H	1.481344	-0.456341	0.225966
C55	C	1.304042	0.239946	0.348860
C56	C	1.210136	0.301589	0.428002
C57	C	1.116163	0.363195	0.348881
C58	C	1.116095	0.363158	0.190618
C59	C	1.210004	0.301513	0.111468
C60	C	1.303977	0.239907	0.190589
H61	H	1.210184	0.301619	0.545166
H62	H	1.046646	0.408829	0.407475
H63	H	1.046531	0.408763	0.132048
H64	H	1.209957	0.301484	-0.005696
H65	H	1.373495	0.194273	0.131995
H66	H	1.129476	-0.012838	-0.000034
C67	C	1.797603	0.020898	0.624589
C68	C	1.916792	-0.036968	0.586352
C69	C	2.046889	-0.017716	0.639133
C70	C	2.057796	0.059400	0.730150
C71	C	1.938603	0.117270	0.768392
C72	C	1.808506	0.098019	0.715611
H73	H	1.908721	-0.094058	0.518971
H74	H	2.135123	-0.060556	0.610823
H75	H	2.154101	0.073651	0.769222
H76	H	1.946674	0.174361	0.835772
H77	H	1.720272	0.140859	0.743920
H78	H	1.051879	0.314310	-0.098787
H79	H	1.758409	0.021908	0.383299
C80	C	1.481019	-0.468735	-0.261760
C81	C	1.590323	-0.465627	-0.364560
C82	C	1.589060	-0.513328	-0.501630
C83	C	1.478494	-0.564137	-0.535900
C84	C	1.369182	-0.567247	-0.433098
C85	C	1.370444	-0.519546	-0.296028
H86	H	1.672178	-0.428014	-0.339194
H87	H	1.669981	-0.511026	-0.577731
H88	H	1.477559	-0.599449	-0.637367
H89	H	1.287326	-0.604861	-0.458464
H90	H	1.289523	-0.521848	-0.219927
H91	H	1.637802	-0.058739	0.616431
H92	H	0.891833	-0.017009	-0.000125
H93	H	0.839580	0.310596	0.098561
C94	C	0.828620	0.328643	-0.129368
C95	C	0.915022	0.366798	-0.233541
C96	C	0.858033	0.411241	-0.362784
C97	C	0.714642	0.417531	-0.387853
C98	C	0.628231	0.379375	-0.283678
C99	C	0.685220	0.334932	-0.154435
H100	H	1.021176	0.362143	-0.214986
H101	H	0.922000	0.439487	-0.439901
H102	H	0.672455	0.450431	-0.483527
H103	H	0.522077	0.384030	-0.302233
H104	H	0.621253	0.306686	-0.077317
H105	H	1.328456	0.223931	0.630458
H106	H	1.485523	-0.298997	-0.226165
