data_functionalizedCrystal
_audit_creation_method	'MofGen! by Chris Wilmer'
_symmetry_space_group_name_H-M	'P1'
_symmetry_Int_Tables_number	1
_symmetry_cell_setting	triclinic
loop_
_symmetry_equiv_pos_as_xyz
  x,y,z
_cell_length_a	16.109318
_cell_length_b	16.109301
_cell_length_c	7.540329
_cell_angle_alpha	89.994987
_cell_angle_beta	90.000622
_cell_angle_gamma	83.465022
loop_
_atom_site_label
_atom_site_type_symbol
_atom_site_fract_x
_atom_site_fract_y
_atom_site_fract_z
O1	O	1.103121	0.106935	-0.147341
O2	O	0.861061	0.120219	-0.147377
O3	O	0.988741	-0.007454	-0.147340
O4	O	0.975442	0.234607	-0.147378
O5	O	0.988733	-0.007455	0.147625
O6	O	0.861054	0.120217	0.147588
O7	O	1.103114	0.106933	0.147625
Cu8	Cu	0.982083	0.113575	0.174539
Cu9	Cu	0.982092	0.113577	-0.174291
O10	O	0.975434	0.234606	0.147587
C11	C	0.830083	0.119677	0.000101
C12	C	0.737788	0.118057	0.000087
C13	C	0.438719	0.112822	-0.160666
C14	C	0.525440	0.114340	-0.160677
C15	C	0.525450	0.114327	0.160910
C16	C	0.438731	0.112803	0.160919
C17	C	0.395367	0.112056	0.000126
C18	C	0.568807	0.115096	0.000106
C19	C	0.662835	0.116742	0.000095
C20	C	0.301334	0.110409	0.000136
C21	C	0.988198	-0.038430	0.000144
C22	C	0.986583	-0.130725	0.000146
C23	C	1.058590	-0.352993	0.000129
C24	C	1.057066	-0.439713	0.000114
C25	C	0.905579	-0.419848	0.000098
C26	C	0.907104	-0.333130	0.000100
C27	C	0.983612	-0.299704	0.000124
C28	C	0.980563	-0.473144	0.000107
C29	C	0.978910	-0.567170	0.000091
C30	C	0.985265	-0.205672	0.000137
C31	C	1.134092	0.107474	0.000143
C32	C	1.226387	0.109095	0.000144
C33	C	0.975976	0.265581	0.000100
C34	C	0.977592	0.357877	0.000086
N35	N	0.982083	0.113573	0.419887
N36	N	0.982099	0.113572	-0.419640
H37	H	0.403434	0.112178	0.291863
H38	H	1.120888	-0.325781	0.000145
C39	C	0.391550	0.111870	-0.335106
C40	C	0.351118	0.039522	-0.344475
C41	C	0.307653	0.038620	-0.505137
H42	H	0.429703	0.112499	-0.431016
H43	H	0.351324	0.159705	-0.341809
H44	H	0.391340	-0.008300	-0.337789
H45	H	0.312952	0.038879	-0.248603
H46	H	0.267427	0.086455	-0.511840
H47	H	0.345812	0.039251	-0.601034
H48	H	0.280209	-0.010463	-0.511508
C49	C	1.138563	-0.497431	0.000215
C50	C	1.205887	-0.449594	0.000280
C51	C	1.280977	-0.502734	0.000394
H52	H	1.141239	-0.531686	-0.102621
H53	H	1.141160	-0.531668	0.103114
H54	H	1.203291	-0.415372	-0.102609
H55	H	1.203237	-0.415341	0.103108
H56	H	1.283574	-0.536971	0.103293
H57	H	1.283645	-0.536986	-0.102444
H58	H	1.326665	-0.470285	0.000454
C59	C	0.822601	-0.456302	0.000181
C60	C	0.837311	-0.543653	0.000233
C61	C	0.760890	-0.577260	0.000341
H62	H	0.791664	-0.438099	-0.102652
H63	H	0.791722	-0.438059	0.103083
H64	H	0.868176	-0.561889	-0.102657
H65	H	0.868234	-0.561880	0.103060
H66	H	0.730012	-0.559017	0.103242
H67	H	0.729959	-0.559050	-0.102494
H68	H	0.770860	-0.636530	0.000393
C69	C	0.825603	-0.275405	0.000186
C70	C	0.758274	-0.323236	0.000226
C71	C	0.683188	-0.270089	0.000321
H72	H	0.822934	-0.241140	-0.102648
H73	H	0.823004	-0.241178	0.103087
H74	H	0.760872	-0.357447	-0.102665
H75	H	0.760915	-0.357498	0.103052
H76	H	0.680589	-0.235862	0.103223
H77	H	0.680528	-0.235827	-0.102514
H78	H	0.637497	-0.302534	0.000365
H79	H	0.560733	0.114963	-0.291610
H80	H	0.560768	0.114937	0.291822
