data_functionalizedCrystal
_audit_creation_method	'MofGen! by Chris Wilmer'
_symmetry_space_group_name_H-M	'P1'
_symmetry_Int_Tables_number	1
_symmetry_cell_setting	triclinic
loop_
_symmetry_equiv_pos_as_xyz
  x,y,z
_cell_length_a	6.817900
_cell_length_b	17.982783
_cell_length_c	17.329378
_cell_angle_alpha	92.080676
_cell_angle_beta	103.025558
_cell_angle_gamma	102.448572
loop_
_atom_site_label
_atom_site_type_symbol
_atom_site_fract_x
_atom_site_fract_y
_atom_site_fract_z
V1	V	-4.005897	-0.089822	-0.245307
V2	V	-3.505897	0.410178	0.254693
O3	O	-3.999095	0.020338	-0.240302
O4	O	-3.499095	0.520338	0.259698
O5	O	-3.952471	-0.193510	-0.243952
O6	O	-3.452471	0.306490	0.256048
O7	O	-3.950717	-0.081410	-0.352147
O8	O	-3.450717	0.418590	0.147853
O9	O	-4.000862	-0.092538	-0.131358
O10	O	-3.500862	0.407462	0.368642
V11	V	-4.491055	-0.077476	-0.231639
V12	V	-3.991055	0.422524	0.268361
O13	O	-4.263570	-0.116903	-0.275290
O14	O	-3.763570	0.383097	0.224710
O15	O	-4.683580	-0.050395	-0.201656
O16	O	-4.183580	0.449605	0.298344
O17	O	-4.321274	0.026212	-0.232994
O18	O	-3.821274	0.526212	0.267006
O19	O	-4.615253	-0.187635	-0.236644
O20	O	-4.115253	0.312365	0.263356
O21	O	-4.613487	-0.074759	-0.345587
O22	O	-4.113487	0.425241	0.154413
O23	O	-4.323028	-0.085888	-0.124799
O24	O	-3.823028	0.414112	0.375201
C25	C	-3.796469	-0.219007	-0.240166
C26	C	-3.296469	0.280993	0.259834
C27	C	-3.834028	-0.303728	-0.239770
C28	C	-3.334028	0.196272	0.260230
C29	C	-3.816576	-0.337225	-0.167597
C30	C	-3.316576	0.162775	0.332403
C31	C	-3.851887	-0.416830	-0.167228
C32	C	-3.351887	0.083170	0.332772
C33	C	-3.904636	-0.462937	-0.239032
C34	C	-3.404636	0.037063	0.260968
C35	C	-3.922095	-0.429435	-0.311211
C36	C	-3.422095	0.070565	0.188789
C37	C	-3.886798	-0.349831	-0.311580
C38	C	-3.386798	0.150169	0.188420
C39	C	-4.064445	-0.750467	-0.309727
C40	C	-3.564445	-0.250467	0.190273
C41	C	-4.099735	-0.830076	-0.309352
C42	C	-3.599735	-0.330076	0.190648
C43	C	-4.029533	-0.817466	-0.165375
C44	C	-3.529533	-0.317466	0.334625
C45	C	-3.994237	-0.737862	-0.165743
C46	C	-3.494237	-0.237862	0.334257
C47	C	-4.011709	-0.704368	-0.237922
C48	C	-3.511709	-0.204368	0.262078
C49	C	-3.973424	-0.618051	-0.238321
C50	C	-3.473424	-0.118051	0.261679
C51	C	-3.942906	-0.549252	-0.238633
C52	C	-3.442906	-0.049252	0.261367
C53	C	-3.794230	-0.076011	-0.378177
C54	C	-3.294230	0.423989	0.121823
C55	C	-3.830364	-0.069820	-0.465521
C56	C	-3.330364	0.430180	0.034479
C57	C	-3.883414	-0.135955	-0.517992
C58	C	-3.383414	0.364045	-0.017992
C59	C	-3.917374	-0.130136	-0.600061
C60	C	-3.417374	0.369864	-0.100061
C61	C	-3.898269	-0.058182	-0.629657
C62	C	-3.398269	0.441818	-0.129657
C63	C	-3.845221	0.007958	-0.577180
C64	C	-3.345221	0.507958	-0.077180
C65	C	-3.811276	0.002138	-0.495113
C66	C	-3.311276	0.502138	0.004887
C67	C	-3.998969	-0.037156	-0.876875
C68	C	-3.498969	0.462844	-0.376875
C69	C	-4.032913	-0.031342	-0.958948
C70	C	-3.532913	0.468658	-0.458948
C71	C	-4.105067	-0.169437	-0.981824
C72	C	-3.605067	0.330563	-0.481824
C73	C	-4.071106	-0.175250	-0.899754
C74	C	-3.571106	0.324750	-0.399754
C75	C	-4.018072	-0.109110	-0.847284
C76	C	-3.518072	0.390890	-0.347284
C77	C	-3.932975	-0.052232	-0.713545
C78	C	-3.432975	0.447768	-0.213545
C79	C	-3.983382	-0.115061	-0.763399
C80	C	-3.483382	0.384939	-0.263399
C81	C	-4.140618	0.051705	-0.236778
C82	C	-3.640618	0.551705	0.263222
C83	C	-4.082297	0.136426	-0.237179
C84	C	-3.582297	0.636426	0.262821
C85	C	-4.142858	-0.091289	-0.098764
C86	C	-3.642858	0.408711	0.401236
C87	C	-4.085962	-0.097477	-0.011419
C88	C	-3.585962	0.402523	0.488581
H89	H	-4.015317	-0.844747	-0.106604
H90	H	-3.515317	-0.344747	0.393396
C91	C	-3.931026	0.099927	-0.862518
C92	C	-3.431026	0.599927	-0.362518
C93	C	-3.940645	0.035544	-0.819207
C94	C	-3.440645	0.535544	-0.319207
H95	H	-3.895001	0.144811	-0.826911
H96	H	-3.395001	0.644811	-0.326911
H97	H	-4.061981	0.097057	-0.897569
H98	H	-3.561981	0.597057	-0.397569
H99	H	-3.829544	0.101583	-0.892438
H100	H	-3.329544	0.601583	-0.392438
H101	H	-4.042139	0.033886	-0.789291
H102	H	-3.542139	0.533886	-0.289291
H103	H	-3.809672	0.038416	-0.784142
H104	H	-3.309672	0.538416	-0.284142
H105	H	-3.768082	0.055993	-0.452391
H106	H	-3.268082	0.555993	0.047609
C107	C	-4.094877	-0.706026	-0.046848
C108	C	-3.594877	-0.206026	0.453152
C109	C	-3.936263	-0.687181	-0.086815
C110	C	-3.436263	-0.187181	0.413185
H111	H	-4.059094	-0.674735	0.001877
H112	H	-3.559094	-0.174735	0.501877
H113	H	-4.113381	-0.758222	-0.036299
H114	H	-3.613381	-0.258222	0.463701
H115	H	-4.219723	-0.697890	-0.079015
H116	H	-3.719723	-0.197890	0.420985
H117	H	-3.811420	-0.695324	-0.054650
H118	H	-3.311420	-0.195324	0.445350
H119	H	-3.917735	-0.634973	-0.097361
H120	H	-3.417735	-0.134973	0.402639
H121	H	-3.998944	-0.173646	-0.739298
H122	H	-3.498944	0.326354	-0.239298
C123	C	-4.165646	-0.834551	-0.451719
C124	C	-3.665646	-0.334551	0.048281
C125	C	-4.157747	-0.880759	-0.388287
C126	C	-3.657747	-0.380759	0.111713
H127	H	-4.201472	-0.865842	-0.500446
H128	H	-3.701472	-0.365842	-0.000446
H129	H	-4.034209	-0.800922	-0.446363
H130	H	-3.534209	-0.300922	0.053637
H131	H	-4.266644	-0.805559	-0.451374
H132	H	-3.766644	-0.305559	0.048626
H133	H	-4.056738	-0.909747	-0.388628
H134	H	-3.556738	-0.409747	0.111372
H135	H	-4.289202	-0.914402	-0.393645
H136	H	-3.789202	-0.414402	0.106355
H137	H	-4.078648	-0.723205	-0.368498
H138	H	-3.578648	-0.223205	0.131502
H139	H	-3.901033	-0.322560	-0.370351
H140	H	-3.401033	0.177440	0.129649
H141	H	-3.960578	-0.183991	-0.642781
H142	H	-3.460578	0.316009	-0.142781
C143	C	-4.146933	-0.311187	-0.930637
C144	C	-3.646933	0.188813	-0.430637
C145	C	-4.092858	-0.254359	-0.867242
C146	C	-3.592858	0.245641	-0.367242
H147	H	-4.160586	-0.360030	-0.910568
H148	H	-3.660586	0.139970	-0.410568
H149	H	-4.042283	-0.303962	-0.959518
H150	H	-3.542283	0.196038	-0.459518
H151	H	-4.274624	-0.308117	-0.964812
H152	H	-3.774624	0.191883	-0.464812
H153	H	-3.965158	-0.257426	-0.833070
H154	H	-3.465158	0.242574	-0.333070
H155	H	-4.197515	-0.261587	-0.838348
H156	H	-3.697515	0.238413	-0.338348
H157	H	-3.965060	-0.466982	-0.369676
H158	H	-3.465060	0.033018	0.130324
H159	H	-3.898960	-0.194548	-0.493902
H160	H	-3.398960	0.305452	0.006098
H161	H	-4.148253	-0.223284	-1.024553
H162	H	-3.648253	0.276716	-0.524553
H163	H	-4.017395	0.027254	-0.983042
H164	H	-3.517395	0.527254	-0.483042
C165	C	-3.865194	0.078197	-0.692824
C166	C	-3.365194	0.578197	-0.192824
C167	C	-3.824213	0.087053	-0.609710
C168	C	-3.324213	0.587053	-0.109710
H169	H	-3.852204	0.127029	-0.712902
H170	H	-3.352204	0.627029	-0.212902
H171	H	-4.001793	0.048518	-0.713538
H172	H	-3.501793	0.548518	-0.213538
H173	H	-3.769349	0.053048	-0.708395
H174	H	-3.269349	0.553048	-0.208395
H175	H	-3.920069	0.112197	-0.594138
H176	H	-3.420069	0.612197	-0.094138
H177	H	-3.687593	0.116744	-0.588988
H178	H	-3.187593	0.616744	-0.088988
H179	H	-3.773608	-0.299689	-0.109125
H180	H	-3.273608	0.200311	0.390875
H181	H	-3.837678	-0.444099	-0.108457
H182	H	-3.337678	0.055901	0.391543
H183	H	-3.917418	0.006354	-0.737651
H184	H	-3.417418	0.506354	-0.237651
