data_functionalizedCrystal
_audit_creation_method	'MofGen! by Chris Wilmer'
_symmetry_space_group_name_H-M	'P1'
_symmetry_Int_Tables_number	1
_symmetry_cell_setting	triclinic
loop_
_symmetry_equiv_pos_as_xyz
  x,y,z
_cell_length_a	17.000383
_cell_length_b	14.519709
_cell_length_c	13.596369
_cell_angle_alpha	90.006934
_cell_angle_beta	89.991382
_cell_angle_gamma	100.359776
loop_
_atom_site_label
_atom_site_type_symbol
_atom_site_fract_x
_atom_site_fract_y
_atom_site_fract_z
O1	O	1.056148	-0.033240	-0.081859
O2	O	1.556148	0.466760	0.418141
O3	O	0.824464	-0.066705	-0.081847
O4	O	1.324464	0.433295	0.418153
O5	O	0.946449	0.084775	-0.081845
O6	O	1.446449	0.584775	0.418155
O7	O	0.934163	-0.184721	-0.081862
O8	O	1.434163	0.315279	0.418138
O9	O	0.946437	0.084782	0.081738
O10	O	1.446437	0.584782	0.581738
O11	O	0.824451	-0.066699	0.081736
O12	O	1.324451	0.433301	0.581736
O13	O	1.056136	-0.033234	0.081723
O14	O	1.556136	0.466766	0.581723
Zn15	Zn	0.940292	-0.049965	0.107702
Zn16	Zn	1.440292	0.450035	0.607702
Zn17	Zn	0.940308	-0.049974	-0.107826
Zn18	Zn	1.440308	0.450026	0.392174
O19	O	0.934151	-0.184715	0.081721
O20	O	1.434151	0.315285	0.581721
C21	C	0.794807	-0.068499	-0.000054
C22	C	1.294807	0.431501	0.499946
C23	C	0.706456	-0.073843	-0.000049
C24	C	1.206456	0.426157	0.499951
C25	C	0.206288	-0.108353	-0.000088
C26	C	0.706288	0.391647	0.499912
C27	C	0.289304	-0.103324	-0.000087
C28	C	0.789304	0.396676	0.499913
C29	C	0.340174	-0.016037	-0.000074
C30	C	0.840174	0.483963	0.499926
C31	C	0.308025	0.066226	-0.000072
C32	C	0.808025	0.566226	0.499928
C33	C	0.225011	0.061196	-0.000080
C34	C	0.725011	0.561196	0.499920
C35	C	0.591292	0.003390	-0.000055
C36	C	1.091292	0.503390	0.499945
C37	C	0.674312	0.008413	-0.000044
C38	C	1.174312	0.508413	0.499956
C39	C	0.655585	-0.161137	-0.000061
C40	C	1.155585	0.338863	0.499939
C41	C	0.572569	-0.166159	-0.000063
C42	C	1.072569	0.333841	0.499937
C43	C	0.540428	-0.083896	-0.000067
C44	C	1.040428	0.416104	0.499933
C45	C	0.425030	-0.010895	-0.000070
C46	C	0.925030	0.489105	0.499930
C47	C	0.455573	-0.089039	-0.000078
C48	C	0.955573	0.410961	0.499922
C49	C	0.945870	0.119091	-0.000053
C50	C	1.445870	0.619091	0.499947
C51	C	0.944154	0.221330	-0.000052
C52	C	1.444154	0.721330	0.499948
C53	C	1.085793	-0.031440	-0.000072
C54	C	1.585793	0.468560	0.499928
C55	C	1.174144	-0.026096	-0.000083
C56	C	1.674144	0.473904	0.499917
C57	C	0.934730	-0.219030	-0.000073
C58	C	1.434730	0.280970	0.499927
C59	C	0.936445	-0.321269	-0.000080
C60	C	1.436445	0.178731	0.499920
N61	N	0.940287	-0.049958	0.254794
N62	N	1.440287	0.450042	0.754794
C63	C	0.937838	0.595701	-0.000078
C64	C	1.437838	1.095701	0.499922
C65	C	0.939592	0.491539	-0.000070
C66	C	1.439592	0.991539	0.499930
C67	C	0.940996	0.408519	-0.000064
C68	C	1.440996	0.908519	0.499936
C69	C	0.942750	0.304350	-0.000059
C70	C	1.442750	0.804350	0.499941
N71	N	0.940319	-0.049973	-0.254917
N72	N	1.440319	0.450027	0.245083
C73	C	0.940307	-0.049975	0.656085
C74	C	1.440307	0.450025	1.156085
C75	C	0.940299	-0.049974	0.544433
C76	C	1.440299	0.450026	1.044433
C77	C	0.940297	-0.049967	0.455443
C78	C	1.440297	0.450033	0.955443
C79	C	0.940288	-0.049965	0.343784
C80	C	1.440288	0.450035	0.843784
H81	H	0.349451	0.137296	-0.000067
H82	H	0.849451	0.637296	0.499933
C83	C	0.262455	-0.271419	-0.000084
C84	C	0.762455	0.228581	0.499916
C85	C	0.324636	-0.193744	-0.000083
C86	C	0.824636	0.306256	0.499917
H87	H	0.284268	-0.327242	-0.000076
H88	H	0.784268	0.172758	0.499924
H89	H	0.230476	-0.269858	-0.057128
H90	H	0.730476	0.230142	0.442872
H91	H	0.230456	-0.269842	0.056962
H92	H	0.730456	0.230158	0.556962
H93	H	0.356631	-0.195317	-0.057134
H94	H	0.856631	0.304683	0.442866
H95	H	0.356627	-0.195305	0.056967
H96	H	0.856627	0.304695	0.556967
H97	H	0.715730	0.079496	-0.000039
H98	H	1.215730	0.579496	0.499961
H99	H	0.531155	-0.237237	-0.000077
H100	H	1.031155	0.262763	0.499923
H101	H	0.681764	-0.228111	-0.000060
H102	H	1.181764	0.271889	0.499940
H103	H	0.198841	0.128179	-0.000078
H104	H	0.698841	0.628179	0.499922
C105	C	0.529273	0.093113	-0.084131
C106	C	1.029273	0.593113	0.415869
C107	C	0.480954	0.085047	-0.000046
C108	C	0.980954	0.585047	0.499954
H109	H	0.563803	0.152341	-0.084112
H110	H	1.063803	0.652341	0.415888
H111	H	0.496509	0.087643	-0.141168
H112	H	0.996509	0.587643	0.358832
H113	H	0.560287	0.044830	-0.084127
H114	H	1.060287	0.544830	0.415873
H115	H	0.449936	0.133326	-0.000053
H116	H	0.949936	0.633326	0.499947
H117	H	0.513722	0.090526	0.057006
H118	H	1.013722	0.590526	0.557006
C119	C	0.102083	-0.212364	-0.084198
C120	C	0.602083	0.287636	0.415802
C121	C	0.150372	-0.204300	-0.000103
C122	C	0.650372	0.295700	0.499897
H123	H	0.067561	-0.271598	-0.084205
H124	H	0.567561	0.228402	0.415795
H125	H	0.134867	-0.206879	-0.141229
H126	H	0.634867	0.293121	0.358771
H127	H	0.071060	-0.164090	-0.084183
H128	H	0.571060	0.335910	0.415817
H129	H	0.181399	-0.252570	-0.000122
H130	H	0.681399	0.247430	0.499878
H131	H	0.117583	-0.209795	0.056942
H132	H	0.617583	0.290205	0.556942
H133	H	0.565133	0.070374	-0.000055
H134	H	1.065133	0.570374	0.499945
H135	H	0.414151	-0.160107	-0.000093
H136	H	0.914151	0.339893	0.499907
