data_functionalizedCrystal
_audit_creation_method	'MofGen! by Chris Wilmer'
_symmetry_space_group_name_H-M	'P1'
_symmetry_Int_Tables_number	1
_symmetry_cell_setting	triclinic
loop_
_symmetry_equiv_pos_as_xyz
  x,y,z
_cell_length_a	6.817900
_cell_length_b	11.102294
_cell_length_c	12.908943
_cell_angle_alpha	94.411955
_cell_angle_beta	100.860631
_cell_angle_gamma	108.605785
loop_
_atom_site_label
_atom_site_type_symbol
_atom_site_fract_x
_atom_site_fract_y
_atom_site_fract_z
V1	V	-4.022089	-0.174253	-0.328681
O2	O	-3.982824	0.010006	-0.322425
O3	O	-3.999477	-0.347083	-0.326432
O4	O	-3.959861	-0.170856	-0.472030
O5	O	-4.022714	-0.167442	-0.175819
V6	V	-4.504167	-0.152298	-0.310397
O7	O	-4.286517	-0.222412	-0.368787
O8	O	-4.689936	-0.104138	-0.270291
O9	O	-4.303571	0.020533	-0.312646
O10	O	-4.660828	-0.336556	-0.316653
O11	O	-4.620938	-0.159109	-0.463259
O12	O	-4.343188	-0.155694	-0.167048
C13	C	-3.851199	-0.389238	-0.321246
C14	C	-3.913906	-0.530525	-0.320363
C15	C	-3.800664	-0.164441	-0.506970
C16	C	-3.831240	-0.162807	-0.624159
C17	C	-4.184857	-0.736115	-0.324391
C18	C	-4.125948	-0.603359	-0.325210
C19	C	-3.760761	-0.590452	-0.314687
C20	C	-3.819669	-0.723204	-0.313861
C21	C	-4.253829	-0.172350	-0.855106
C22	C	-4.282568	-0.170816	-0.965216
C23	C	-3.917455	-0.158196	-0.954490
C24	C	-3.888716	-0.159730	-0.844380
C25	C	-4.056912	-0.166809	-0.794692
C26	C	-4.028175	-0.168352	-0.684582
C27	C	-3.663060	-0.155723	-0.673857
C28	C	-3.691799	-0.154189	-0.783966
C29	C	-4.115193	0.062681	-0.317829
C30	C	-4.031723	0.203967	-0.318719
C31	C	-4.165728	-0.162113	-0.132102
C32	C	-4.114390	-0.163741	-0.014912
H33	H	-4.357521	-0.795408	-0.328345
H34	H	-4.390788	-0.178128	-0.814651
Cl35	Cl	-3.494187	-0.498886	-0.308578
H36	H	-3.780523	-0.152423	-0.994964
Cl37	Cl	-3.627137	-0.798533	-0.306718
Cl38	Cl	-4.239620	-0.177256	-0.622119
Cl39	Cl	-3.415496	-0.148767	-0.597903
H40	H	-4.250650	-0.554580	-0.329826
H41	H	-4.442914	-0.175328	-1.014401
H42	H	-3.554864	-0.148421	-0.824437
