data_functionalizedCrystal
_audit_creation_method	'MofGen! by Chris Wilmer'
_symmetry_space_group_name_H-M	'P1'
_symmetry_Int_Tables_number	1
_symmetry_cell_setting	triclinic
loop_
_symmetry_equiv_pos_as_xyz
  x,y,z
_cell_length_a	11.026607
_cell_length_b	15.995350
_cell_length_c	9.482900
_cell_angle_alpha	99.336743
_cell_angle_beta	78.636152
_cell_angle_gamma	96.039196
loop_
_atom_site_label
_atom_site_type_symbol
_atom_site_fract_x
_atom_site_fract_y
_atom_site_fract_z
O1	O	1.629075	0.340363	-0.120882
O2	O	2.129075	0.840363	0.379118
O3	O	1.275769	0.300437	-0.120885
O4	O	1.775769	0.800437	0.379115
O5	O	1.462080	0.199968	-0.120882
O6	O	1.962080	0.699968	0.379118
O7	O	1.442765	0.440832	-0.120885
O8	O	1.942765	0.940832	0.379115
O9	O	1.424236	0.220481	0.120910
O10	O	1.924236	0.720481	0.620910
O11	O	1.237926	0.320950	0.120907
O12	O	1.737926	0.820950	0.620907
O13	O	1.591231	0.360875	0.120910
O14	O	2.091231	0.860875	0.620910
Cu15	Cu	1.411123	0.342785	0.142986
Cu16	Cu	1.911123	0.842785	0.642986
Cu17	Cu	1.455878	0.318527	-0.142961
Cu18	Cu	1.955878	0.818527	0.357039
O19	O	1.404921	0.461344	0.120907
O20	O	1.904921	0.961344	0.620907
C21	C	1.211637	0.303328	0.000010
C22	C	1.711637	0.803328	0.500010
C23	C	1.076923	0.281371	0.000009
C24	C	1.576923	0.781371	0.500009
C25	C	1.003118	0.341997	0.000007
C26	C	1.503118	0.841997	0.500007
C27	C	0.863884	0.319305	0.000005
C28	C	1.363884	0.819305	0.500005
C29	C	1.442360	0.178909	0.000011
C30	C	1.942360	0.678909	0.500011
C31	C	1.439967	0.085597	0.000003
C32	C	1.939967	0.585597	0.500003
C33	C	1.431369	-0.253446	0.000008
C34	C	1.931369	0.246554	0.500008
C35	C	1.298767	-0.226057	-0.000536
C36	C	1.798767	0.273943	0.499464
C37	C	1.301076	-0.128960	0.000009
C38	C	1.801076	0.371040	0.500009
C39	C	1.435634	-0.085243	0.000005
C40	C	1.935634	0.414757	0.500005
C41	C	1.479470	-0.104742	0.138078
C42	C	1.979470	0.395258	0.638078
C43	C	1.476118	-0.201871	0.138193
C44	C	1.976118	0.298129	0.638193
C45	C	1.521895	-0.225142	-0.136769
C46	C	2.021895	0.274858	0.363231
C47	C	1.522149	-0.128356	-0.138594
C48	C	2.022149	0.371644	0.361406
C49	C	1.438051	0.009819	0.000008
C50	C	1.938051	0.509819	0.500008
C51	C	1.428954	-0.348507	0.000014
C52	C	1.928954	0.151493	0.500014
C53	C	1.655364	0.357984	0.000012
C54	C	2.155364	0.857984	0.500012
C55	C	1.790080	0.379940	0.000004
C56	C	2.290080	0.879940	0.500004
C57	C	1.424641	0.482403	0.000011
C58	C	1.924641	0.982403	0.500011
C59	C	1.427036	0.575714	0.000009
C60	C	1.927036	1.075714	0.500009
N61	N	1.379654	0.359848	0.344106
N62	N	1.879654	0.859848	0.844106
N63	N	1.487357	0.301459	-0.344081
N64	N	1.987357	0.801459	0.155919
C65	C	1.446587	0.323554	0.416306
C66	C	1.946587	0.823554	0.916306
C67	C	1.420413	0.337759	0.583723
C68	C	1.920413	0.837759	1.083723
H69	H	1.037037	0.212664	-0.000028
H70	H	1.537037	0.712664	0.499972
N71	N	1.253468	-0.112699	-0.131103
N72	N	1.753468	0.387301	0.368897
H73	H	1.254886	-0.049451	-0.131001
H74	H	1.754886	0.450549	0.368999
H75	H	1.308020	-0.138993	-0.222547
H76	H	1.808020	0.361007	0.277453
N77	N	1.486139	-0.272769	-0.275398
N78	N	1.986139	0.227231	0.224602
H79	H	1.410889	-0.313181	-0.250936
H80	H	1.910889	0.186819	0.249064
H81	H	1.466286	-0.231002	-0.335313
H82	H	1.966286	0.268998	0.164687
N83	N	0.811063	0.228293	0.000024
N84	N	1.311063	0.728293	0.500024
H85	H	0.719085	0.224984	0.000027
H86	H	1.219085	0.724984	0.500027
H87	H	0.853471	0.191905	-0.089609
H88	H	1.353471	0.691905	0.410391
N89	N	0.842913	0.470950	-0.000009
N90	N	1.342913	0.970950	0.499991
H91	H	0.828649	0.492176	-0.089646
H92	H	1.328649	0.992176	0.410354
H93	H	0.800573	0.507329	0.089678
H94	H	1.300573	1.007329	0.589678
N95	N	1.653861	-0.089363	-0.149642
N96	N	2.153861	0.410637	0.350358
H97	H	1.707214	-0.118318	-0.239633
H98	H	2.207214	0.381682	0.260367
H99	H	1.655448	-0.026793	-0.155740
H100	H	2.155448	0.473207	0.344260
N101	N	1.249029	-0.272319	-0.131684
N102	N	1.749029	0.227681	0.368316
H103	H	1.311965	-0.311482	-0.192021
H104	H	1.811965	0.188518	0.307979
H105	H	1.169250	-0.306695	-0.098611
H106	H	1.669250	0.193305	0.401389
H107	H	1.230558	-0.245256	0.097926
H108	H	1.730558	0.254744	0.597926
N109	N	1.318833	0.392851	0.666002
N110	N	1.818833	0.892851	1.166002
H111	H	1.277760	0.415120	0.594818
H112	H	1.777760	0.915120	1.094818
H113	H	1.255220	0.358108	0.729164
H114	H	1.755220	0.858108	1.229164
H115	H	1.564039	0.259864	0.593796
H116	H	2.064039	0.759864	1.093796
H117	H	1.233768	-0.100491	0.099153
H118	H	1.733768	0.399509	0.599153
H119	H	1.490286	-0.116985	-0.240737
H120	H	1.990286	0.383015	0.259263
H121	H	1.619870	-0.242236	-0.137701
H122	H	2.119870	0.257764	0.362299
H123	H	1.302967	0.401433	0.406234
H124	H	1.802967	0.901433	0.906234
H125	H	1.043008	0.410702	0.000014
H126	H	1.543008	0.910702	0.500014
N127	N	1.548155	0.268464	0.333997
N128	N	2.048155	0.768464	0.833997
H129	H	1.630245	0.293185	0.360375
H130	H	2.130245	0.793185	0.860375
H131	H	1.529719	0.209177	0.360438
H132	H	2.029719	0.709177	0.860438
H133	H	1.572555	-0.218904	0.144455
H134	H	2.072555	0.281096	0.644455
N135	N	1.391508	-0.224052	0.274908
N136	N	1.891508	0.275948	0.774908
H137	H	1.356733	-0.170768	0.334530
H138	H	1.856733	0.329232	0.834530
H139	H	1.321232	-0.265510	0.248037
H140	H	1.821232	0.234490	0.748037
N141	N	1.609369	-0.065751	0.144859
N142	N	2.109369	0.434249	0.644859
H143	H	1.641123	-0.034993	0.058291
H144	H	2.141123	0.465007	0.558291
H145	H	1.608395	-0.024216	0.237387
H146	H	2.108395	0.475784	0.737387
H147	H	1.417932	-0.074495	0.240830
H148	H	1.917932	0.425505	0.740830
