data_functionalizedCrystal
_audit_creation_method	'MofGen! by Chris Wilmer'
_symmetry_space_group_name_H-M	'P1'
_symmetry_Int_Tables_number	1
_symmetry_cell_setting	triclinic
loop_
_symmetry_equiv_pos_as_xyz
  x,y,z
_cell_length_a	18.101398
_cell_length_b	12.594516
_cell_length_c	18.101389
_cell_angle_alpha	89.987481
_cell_angle_beta	89.975673
_cell_angle_gamma	90.011320
loop_
_atom_site_label
_atom_site_type_symbol
_atom_site_fract_x
_atom_site_fract_y
_atom_site_fract_z
Zn1	Zn	1.132198	-0.423988	-0.418869
Zn2	Zn	1.132127	-0.601956	-0.295040
Zn3	Zn	1.008357	-0.423977	-0.295030
Zn4	Zn	1.008341	-0.601910	-0.418829
O5	O	1.070256	-0.512958	-0.356942
O6	O	1.235822	-0.447620	-0.402464
O7	O	1.115686	-0.578361	-0.191406
O8	O	1.024822	-0.275033	-0.311470
O9	O	1.235769	-0.578372	-0.311488
O10	O	1.115808	-0.275041	-0.402454
O11	O	1.024753	-0.447601	-0.191399
O12	O	0.904722	-0.447557	-0.311431
O13	O	1.024794	-0.578294	-0.522467
O14	O	0.904710	-0.578283	-0.402386
O15	O	1.115791	-0.447575	-0.522497
O16	O	1.115669	-0.750896	-0.311449
O17	O	1.024724	-0.750862	-0.402395
C18	C	0.877845	-0.512915	-0.356904
C19	C	0.795531	-0.512922	-0.356905
C20	C	0.496440	-0.512988	-0.356967
C21	C	0.527748	-0.430327	-0.300020
C22	C	0.613367	-0.430549	-0.299777
C23	C	0.644823	-0.512954	-0.356936
C24	C	0.613725	-0.625071	-0.335619
C25	C	0.528080	-0.624611	-0.335223
C26	C	0.528050	-0.484507	-0.435364
C27	C	0.613700	-0.482010	-0.434936
C28	C	0.728682	-0.512942	-0.356920
C29	C	0.412581	-0.513008	-0.356981
C30	C	1.070207	-0.789499	-0.356935
C31	C	1.070254	-0.907804	-0.356957
C32	C	1.020784	-0.977078	-0.406388
C33	C	1.002743	-1.047918	-0.338810
C34	C	1.088363	-1.047763	-0.424546
C35	C	1.052177	-0.977086	-0.289343
C36	C	1.137829	-0.976925	-0.375124
C37	C	1.119813	-1.047733	-0.307500
C38	C	1.263418	-0.513002	-0.356981
C39	C	1.345732	-0.513021	-0.356998
C40	C	1.070299	-0.512931	-0.550104
C41	C	1.070317	-0.512919	-0.632418
C42	C	1.070325	-0.235337	-0.356966
C43	C	1.070354	-0.117032	-0.356976
C44	C	1.070360	-0.512720	-0.931509
C45	C	1.012909	-0.594703	-0.900166
C46	C	1.013065	-0.595083	-0.814547
C47	C	1.070338	-0.512819	-0.783127
C48	C	1.148369	-0.543275	-0.814235
C49	C	1.148049	-0.543813	-0.899880
C50	C	1.050458	-0.400099	-0.899926
C51	C	1.048722	-0.400749	-0.814275
C52	C	1.070330	-0.512873	-0.699267
C53	C	1.070373	-0.512668	-1.015369
C54	C	1.070256	-0.512908	-0.164532
C55	C	1.070381	-0.512619	-0.082218
H56	H	0.633824	-0.449376	-0.241685
Cl57	Cl	0.494470	-0.459044	-0.210854
Cl58	Cl	1.028491	-0.929360	-0.201080
H59	H	0.978875	-0.946053	-0.448129
Cl60	Cl	0.914581	-1.096061	-0.315089
H61	H	1.192324	-0.485439	-0.793885
H62	H	0.507163	-0.346934	-0.313233
Cl63	Cl	1.033396	-0.723954	-0.782928
H64	H	1.165530	-0.624728	-0.792798
Cl65	Cl	0.964132	-0.357263	-0.933245
Cl66	Cl	1.184471	-1.095333	-0.242902
H67	H	0.506463	-0.404176	-0.454747
Cl68	Cl	0.960059	-0.365291	-0.782891
Cl69	Cl	1.108618	-0.301434	-0.781265
Cl70	Cl	1.115061	-0.305793	-0.931222
H71	H	0.508073	-0.648767	-0.277911
Cl72	Cl	1.225968	-0.928742	-0.398875
H73	H	0.634101	-0.688309	-0.375799
Cl74	Cl	1.111948	-1.095700	-0.512781
Cl75	Cl	0.923730	-0.565653	-0.782069
H76	H	0.954873	-0.575839	-0.920750
Cl77	Cl	0.496101	-0.722921	-0.396463
H78	H	1.025920	-0.677672	-0.921697
Cl79	Cl	1.174091	-0.670921	-0.930745
Cl80	Cl	0.646790	-0.663016	-0.248088
Cl81	Cl	1.216338	-0.455566	-0.931899
H82	H	0.634029	-0.399505	-0.451010
H83	H	0.507804	-0.544714	-0.477795
Cl84	Cl	0.646757	-0.568197	-0.503956
Cl85	Cl	0.645832	-0.302187	-0.320402
