data_functionalizedCrystal
_audit_creation_method	'MofGen! by Chris Wilmer'
_symmetry_space_group_name_H-M	'P1'
_symmetry_Int_Tables_number	1
_symmetry_cell_setting	triclinic
loop_
_symmetry_equiv_pos_as_xyz
  x,y,z
_cell_length_a	17.699083
_cell_length_b	16.176319
_cell_length_c	17.699083
_cell_angle_alpha	90.000352
_cell_angle_beta	83.283014
_cell_angle_gamma	90.001389
loop_
_atom_site_label
_atom_site_type_symbol
_atom_site_fract_x
_atom_site_fract_y
_atom_site_fract_z
O1	O	1.004079	0.068619	0.095713
O2	O	1.337412	0.401952	0.429046
O3	O	1.670745	0.735286	0.762380
O4	O	0.783700	0.068644	0.108166
O5	O	1.117034	0.401978	0.441499
O6	O	1.450367	0.735311	0.774832
O7	O	0.900116	0.068639	-0.008250
O8	O	1.233449	0.401972	0.325083
O9	O	1.566782	0.735306	0.658417
O10	O	0.887663	0.068624	0.212129
O11	O	1.220997	0.401958	0.545462
O12	O	1.554330	0.735291	0.878795
O13	O	0.900100	-0.068854	-0.008257
O14	O	1.233433	0.264479	0.325076
O15	O	1.566766	0.597813	0.658409
O16	O	0.783684	-0.068849	0.108158
O17	O	1.117018	0.264485	0.441492
O18	O	1.450351	0.597818	0.774825
O19	O	1.004063	-0.068874	0.095706
O20	O	1.337396	0.264459	0.429039
O21	O	1.670729	0.597792	0.762372
Cu22	Cu	0.893872	-0.081416	0.101931
Cu23	Cu	1.227205	0.251918	0.435265
Cu24	Cu	1.560539	0.585251	0.768598
Cu25	Cu	0.893891	0.081186	0.101940
Cu26	Cu	1.227224	0.414519	0.435273
Cu27	Cu	1.560558	0.747853	0.768607
O28	O	0.887647	-0.068869	0.212121
O29	O	1.220981	0.264464	0.545454
O30	O	1.554314	0.597798	0.878788
C31	C	0.755495	-0.000099	0.107716
C32	C	1.088829	0.333235	0.441049
C33	C	1.422162	0.666568	0.774382
C34	C	0.671477	-0.000088	0.106377
C35	C	1.004811	0.333245	0.439710
C36	C	1.338144	0.666578	0.773044
N37	N	0.893864	-0.195781	0.101925
N38	N	1.227198	0.137552	0.435258
N39	N	1.560531	0.470886	0.768591
C40	C	0.622856	-0.000093	0.174710
C41	C	0.956190	0.333240	0.508044
C42	C	1.289523	0.666574	0.841377
C43	C	0.543913	-0.000104	0.173448
C44	C	0.877246	0.333230	0.506782
C45	C	1.210580	0.666563	0.840115
C46	C	0.513592	-0.000104	0.103852
C47	C	0.846926	0.333230	0.437185
C48	C	1.180259	0.666563	0.770518
C49	C	0.562219	-0.000101	0.035513
C50	C	0.895553	0.333232	0.368846
C51	C	1.228886	0.666565	0.702180
C52	C	0.641161	-0.000097	0.036776
C53	C	0.974495	0.333237	0.370109
C54	C	1.307828	0.666570	0.703443
C55	C	0.243856	-0.000121	0.030418
C56	C	0.577190	0.333212	0.363751
C57	C	0.910523	0.666545	0.697085
C58	C	0.164908	-0.000124	0.029160
C59	C	0.498242	0.333210	0.362493
C60	C	0.831575	0.666543	0.695827
C61	C	0.146608	-0.000129	0.167090
C62	C	0.479942	0.333205	0.500423
C63	C	0.813275	0.666538	0.833757
C64	C	0.225550	-0.000124	0.168353
C65	C	0.558883	0.333209	0.501686
C66	C	0.892217	0.666543	0.835020
C67	C	0.274170	-0.000126	0.100015
C68	C	0.607504	0.333207	0.433348
C69	C	0.940837	0.666541	0.766681
C70	C	0.359769	-0.000116	0.101384
C71	C	0.693103	0.333217	0.434718
C72	C	1.026436	0.666551	0.768051
C73	C	0.427995	-0.000108	0.102481
C74	C	0.761328	0.333226	0.435815
C75	C	1.094661	0.666559	0.769148
C76	C	0.945429	-0.239048	0.050397
C77	C	1.278762	0.094286	0.383730
C78	C	1.612095	0.427619	0.717064
C79	C	0.945432	-0.325595	0.050396
C80	C	1.278766	0.007739	0.383729
C81	C	1.612099	0.341072	0.717063
C82	C	0.893875	-0.368874	0.101927
C83	C	1.227208	-0.035540	0.435261
C84	C	1.560542	0.297793	0.768594
C85	C	0.842305	-0.325601	0.153457
C86	C	1.175639	0.007732	0.486791
C87	C	1.508972	0.341066	0.820124
C88	C	0.842299	-0.239055	0.153454
C89	C	1.175632	0.094278	0.486787
C90	C	1.508965	0.427611	0.820121
C91	C	0.842331	-0.674629	0.153472
C92	C	1.175665	-0.341296	0.486805
C93	C	1.508998	-0.007963	0.820138
C94	C	0.842344	-0.761181	0.153473
C95	C	1.175677	-0.427847	0.486806
C96	C	1.509010	-0.094514	0.820139
C97	C	0.945465	-0.761168	0.050414
C98	C	1.278799	-0.427835	0.383747
C99	C	1.612132	-0.094502	0.717080
C100	C	0.945458	-0.674623	0.050410
C101	C	1.278792	-0.341290	0.383744
C102	C	1.612125	-0.007956	0.717077
C103	C	0.893886	-0.631358	0.101937
C104	C	1.227220	-0.298024	0.435271
C105	C	1.560553	0.035309	0.768604
C106	C	0.893882	-0.537514	0.101937
C107	C	1.227215	-0.204180	0.435270
C108	C	1.560548	0.129153	0.768603
C109	C	0.893883	-0.462716	0.101932
C110	C	1.227216	-0.129383	0.435265
C111	C	1.560549	0.203951	0.768599
C112	C	1.032268	-0.000129	0.096156
C113	C	1.365601	0.333204	0.429489
C114	C	1.698934	0.666537	0.762822
C115	C	1.116286	-0.000134	0.097494
C116	C	1.449619	0.333199	0.430828
C117	C	1.782953	0.666532	0.764161
C118	C	0.899662	-0.000104	-0.036451
C119	C	1.232995	0.333230	0.296883
C120	C	1.566328	0.666563	0.630216
C121	C	0.898323	-0.000092	-0.120469
C122	C	1.231656	0.333241	0.212865
C123	C	1.564990	0.666575	0.546198
N124	N	0.893905	0.195551	0.101941
N125	N	1.227238	0.528884	0.435274
N126	N	1.560571	0.862218	0.768607
C127	C	0.888102	-0.000124	0.240322
C128	C	1.221435	0.333209	0.573655
C129	C	1.554768	0.666542	0.906989
C130	C	0.889440	-0.000131	0.324340
C131	C	1.222773	0.333203	0.657673
C132	C	1.556107	0.666536	0.991007
C133	C	0.821107	-0.000123	0.372961
C134	C	1.154440	0.333211	0.706294
C135	C	1.487773	0.666544	1.039628
C136	C	0.822369	-0.000113	0.451904
C137	C	1.155702	0.333220	0.785238
C138	C	1.489036	0.666554	1.118571
C139	C	0.891965	-0.000117	0.482225
C140	C	1.225299	0.333216	0.815558
C141	C	1.558632	0.666549	1.148892
C142	C	0.960304	-0.000123	0.433598
C143	C	1.293637	0.333210	0.766931
C144	C	1.626971	0.666544	1.100264
C145	C	0.959041	-0.000126	0.354656
C146	C	1.292374	0.333207	0.687989
C147	C	1.625708	0.666540	1.021323
C148	C	0.965399	-0.000107	0.751961
C149	C	1.298733	0.333226	1.085294
C150	C	1.632066	0.666560	1.418628
C151	C	0.966657	-0.000106	0.830909
C152	C	1.299991	0.333227	1.164242
C153	C	1.633324	0.666561	1.497576
C154	C	0.828727	-0.000094	0.849209
C155	C	1.162061	0.333240	1.182542
C156	C	1.495394	0.666573	1.515876
C157	C	0.827464	-0.000097	0.770267
C158	C	1.160798	0.333236	1.103601
C159	C	1.494131	0.666569	1.436934
C160	C	0.895803	-0.000098	0.721647
C161	C	1.229136	0.333235	1.054980
C162	C	1.562469	0.666568	1.388314
C163	C	0.894433	-0.000107	0.636048
C164	C	1.227766	0.333226	0.969381
C165	C	1.561100	0.666559	1.302714
C166	C	0.893336	-0.000115	0.567823
C167	C	1.226669	0.333219	0.901156
C168	C	1.560002	0.666552	1.234489
H169	H	0.647537	-0.000093	0.231384
H170	H	0.980870	0.333241	0.564717
H171	H	1.314203	0.666574	0.898051
H172	H	0.250232	-0.000120	0.225025
H173	H	0.583566	0.333213	0.558359
H174	H	0.916899	0.666546	0.891692
H175	H	0.770792	-0.000098	0.745585
H176	H	1.104125	0.333235	1.078918
H177	H	1.437458	0.666568	1.412252
H178	H	0.283434	-0.000124	-0.025228
H179	H	0.616767	0.333210	0.308106
H180	H	0.950101	0.666543	0.641439
H181	H	0.504328	-0.000107	0.229092
H182	H	0.837662	0.333227	0.562426
H183	H	1.170995	0.666560	0.895759
H184	H	0.773083	-0.000090	0.888806
H185	H	1.106416	0.333244	1.222139
H186	H	1.439750	0.666577	1.555472
H187	H	0.987456	-0.796404	0.008455
H188	H	1.320789	-0.463071	0.341788
H189	H	1.654122	-0.129737	0.675122
H190	H	0.537526	-0.000113	-0.021154
H191	H	0.870859	0.333220	0.312180
H192	H	1.204193	0.666554	0.645513
H193	H	0.987416	-0.203816	0.008438
H194	H	1.320749	0.129518	0.341771
H195	H	1.654082	0.462851	0.675104
H196	H	0.987419	-0.360822	0.008438
H197	H	1.320753	-0.027489	0.341771
H198	H	1.654086	0.305845	0.675105
H199	H	0.107012	-0.000131	0.222734
H200	H	0.440345	0.333202	0.556067
H201	H	0.773678	0.666535	0.889401
H202	H	0.987444	-0.639388	0.008451
H203	H	1.320777	-0.306055	0.341785
H204	H	1.654110	0.027279	0.675118
H205	H	0.140225	-0.000125	-0.027517
H206	H	0.473558	0.333209	0.305816
H207	H	0.806892	0.666542	0.639150
H208	H	0.680748	-0.000092	-0.018868
H209	H	1.014082	0.333241	0.314465
H210	H	1.347415	0.666575	0.647799
H211	H	0.800309	-0.203829	0.195412
H212	H	1.133642	0.129505	0.528746
H213	H	1.466975	0.462838	0.862079
H214	H	0.800357	-0.796417	0.195437
H215	H	1.133690	-0.463084	0.528770
H216	H	1.467023	-0.129750	0.862104
H217	H	1.016971	-0.000128	0.458291
H218	H	1.350304	0.333205	0.791624
H219	H	1.683638	0.666539	1.124958
H220	H	1.014685	-0.000129	0.315069
H221	H	1.348019	0.333204	0.648402
H222	H	1.681352	0.666537	0.981736
H223	H	0.800341	-0.639410	0.195428
H224	H	1.133674	-0.306076	0.528761
H225	H	1.467008	0.027257	0.862095
H226	H	0.800323	-0.360844	0.195413
H227	H	1.133656	-0.027510	0.528746
H228	H	1.466989	0.305823	0.862079
H229	H	0.764433	-0.000129	0.348280
H230	H	1.097767	0.333204	0.681614
H231	H	1.431100	0.666538	1.014947
H232	H	0.766725	-0.000104	0.491489
H233	H	1.100058	0.333229	0.824822
H234	H	1.433392	0.666563	1.158155
H235	H	1.023334	-0.000108	0.855592
H236	H	1.356668	0.333225	1.188926
H237	H	1.690001	0.666558	1.522259
H238	H	1.021045	-0.000113	0.712383
H239	H	1.354378	0.333220	1.045717
H240	H	1.687711	0.666554	1.379050
