data_functionalizedCrystal
_audit_creation_method	'MofGen! by Chris Wilmer'
_symmetry_space_group_name_H-M	'P1'
_symmetry_Int_Tables_number	1
_symmetry_cell_setting	triclinic
loop_
_symmetry_equiv_pos_as_xyz
  x,y,z
_cell_length_a	14.971486
_cell_length_b	27.732025
_cell_length_c	14.048226
_cell_angle_alpha	90.008094
_cell_angle_beta	89.998499
_cell_angle_gamma	83.123799
loop_
_atom_site_label
_atom_site_type_symbol
_atom_site_fract_x
_atom_site_fract_y
_atom_site_fract_z
O1	O	1.185942	0.062992	-0.079020
O2	O	0.925422	0.070535	-0.079042
O3	O	1.063784	-0.003597	-0.079059
O4	O	1.047580	0.137123	-0.079002
O5	O	1.063767	-0.003601	0.079262
O6	O	0.925405	0.070530	0.079280
O7	O	1.185926	0.062987	0.079302
Zn8	Zn	1.055663	0.066758	0.104428
Zn9	Zn	1.055685	0.066764	-0.104168
O10	O	1.047564	0.137119	0.079319
C11	C	0.892094	0.070195	0.000115
C12	C	0.792813	0.069184	0.000105
C13	C	0.734893	0.112735	0.000124
C14	C	0.641609	0.111782	0.000138
C15	C	0.606247	0.067278	0.000126
C16	C	0.664174	0.023725	0.000110
C17	C	0.757456	0.024678	0.000103
C18	C	0.469743	0.021741	0.000122
C19	C	0.376454	0.020787	0.000128
C20	C	0.353896	0.108845	0.000157
C21	C	0.447178	0.109798	0.000150
C22	C	0.505099	0.066244	0.000132
C23	C	1.063439	-0.021608	0.000092
C24	C	1.062424	-0.075268	0.000064
C25	C	1.055222	-0.458464	-0.086182
C26	C	1.059020	-0.256787	-0.086213
O27	O	1.059555	-0.230716	-0.159611
N28	N	1.059486	-0.231566	0.000086
C29	C	1.059008	-0.256768	0.086398
O30	O	1.059501	-0.230689	0.159799
C31	C	1.055217	-0.458445	0.086427
C32	C	1.054742	-0.483662	0.000123
C33	C	1.054748	-0.483682	-0.172479
C34	C	1.053794	-0.534098	-0.172471
C35	C	1.053314	-0.559296	-0.086165
C36	C	1.053788	-0.534078	0.000132
C37	C	1.054745	-0.483646	0.172739
C38	C	1.053800	-0.534068	0.172738
C39	C	1.053325	-0.559286	0.086434
C40	C	1.052353	-0.609692	0.086446
N41	N	1.051887	-0.634913	0.000147
C42	C	1.052367	-0.609715	-0.086158
C43	C	1.060997	-0.150885	0.086377
C44	C	1.061943	-0.100466	0.086369
C45	C	1.061957	-0.100489	-0.086242
C46	C	1.061004	-0.150908	-0.086233
C47	C	1.060531	-0.176106	0.000078
C48	C	1.050362	-0.715592	-0.086134
C49	C	1.049404	-0.766012	-0.086118
C50	C	1.049396	-0.765985	0.086492
C51	C	1.050349	-0.715569	0.086477
C52	C	1.050835	-0.690374	0.000156
O53	O	1.051828	-0.635796	0.159805
O54	O	1.051895	-0.635804	-0.159549
C55	C	1.056177	-0.408048	-0.086191
C56	C	1.056651	-0.382831	0.000106
C57	C	1.056170	-0.408029	0.086412
C58	C	1.057597	-0.332412	0.000099
C59	C	1.058077	-0.307214	-0.086206
C60	C	1.057611	-0.332435	-0.172505
C61	C	1.056657	-0.382851	-0.172496
C62	C	1.056636	-0.382808	0.172710
C63	C	1.057589	-0.332392	0.172695
C64	C	1.058070	-0.307194	0.086389
C65	C	1.219253	0.063327	0.000142
C66	C	1.318534	0.064338	0.000146
C67	C	1.047909	0.155130	0.000166
C68	C	1.048924	0.208790	0.000188
N69	N	1.055655	0.066754	0.246788
N70	N	1.055700	0.066764	-0.246528
C71	C	1.116940	0.033942	0.296599
C72	C	1.116946	0.033942	0.396256
C73	C	1.055670	0.066756	0.446102
C74	C	0.994378	0.099570	0.396284
C75	C	0.994369	0.099567	0.296628
C76	C	0.994404	0.099573	0.603999
C77	C	0.994414	0.099576	0.703661
C78	C	1.116982	0.033948	0.703626
C79	C	1.116972	0.033945	0.603971
C80	C	1.055681	0.066759	0.554160
H81	H	1.049014	-0.786542	-0.156400
Br82	Br	1.062592	-0.066281	-0.203370
H83	H	1.050700	-0.695033	0.156753
Br84	Br	0.782875	0.173136	0.000130
Br85	Br	0.328462	-0.039611	0.000143
Br86	Br	1.058262	-0.298227	-0.289633
Br87	Br	0.836064	-0.034429	0.000086
Br88	Br	1.060360	-0.185127	-0.203364
Br89	Br	1.062562	-0.066246	0.203501
Br90	Br	1.051023	-0.681407	-0.203285
Br91	Br	0.495170	0.170197	0.000152
Br92	Br	1.058220	-0.298173	0.289833
Br93	Br	1.200139	-0.010584	0.536320
Br94	Br	1.055376	-0.449434	0.289873
Br95	Br	0.911250	0.144112	0.771302
Br96	Br	1.200117	-0.010591	0.463860
Br97	Br	0.548350	-0.037369	0.000103
H98	H	1.053414	-0.554626	-0.242749
H99	H	0.635375	-0.012511	0.000114
Br100	Br	0.911217	0.144106	0.536401
Br101	Br	0.911209	0.144101	0.463928
H102	H	1.055143	-0.463172	-0.242764
Br103	Br	0.275290	0.167954	0.000180
Br104	Br	0.911186	0.144097	0.229028
H105	H	1.166887	0.007229	0.744188
H106	H	1.166842	0.007223	0.256021
H107	H	1.060612	-0.171396	0.156666
Br108	Br	1.053164	-0.568263	0.289882
Br109	Br	1.048734	-0.800191	0.203616
H110	H	0.594454	0.147245	0.000152
H111	H	1.056270	-0.403378	-0.242774
H112	H	1.056247	-0.403319	0.242992
