data_functionalizedCrystal
_audit_creation_method	'MofGen! by Chris Wilmer'
_symmetry_space_group_name_H-M	'P1'
_symmetry_Int_Tables_number	1
_symmetry_cell_setting	triclinic
loop_
_symmetry_equiv_pos_as_xyz
  x,y,z
_cell_length_a	15.297475
_cell_length_b	21.295417
_cell_length_c	15.296720
_cell_angle_alpha	99.638166
_cell_angle_beta	91.617114
_cell_angle_gamma	80.332118
loop_
_atom_site_label
_atom_site_type_symbol
_atom_site_fract_x
_atom_site_fract_y
_atom_site_fract_z
Zn1	Zn	1.253315	-0.489896	-0.726513
Zn2	Zn	1.278561	-0.580536	-0.580012
Zn3	Zn	1.132199	-0.454534	-0.554760
Zn4	Zn	1.106789	-0.574348	-0.701142
O5	O	1.192716	-0.524829	-0.640607
O6	O	1.379239	-0.519309	-0.728265
O7	O	1.280346	-0.551612	-0.454090
O8	O	1.148333	-0.371150	-0.577592
O9	O	1.397787	-0.585901	-0.620632
O10	O	1.237317	-0.397130	-0.703779
O11	O	1.172814	-0.459039	-0.435537
O12	O	1.006253	-0.453039	-0.552991
O13	O	1.105026	-0.575355	-0.827080
O14	O	0.987585	-0.541066	-0.660538
O15	O	1.212678	-0.513309	-0.845720
O16	O	1.255707	-0.667790	-0.596031
O17	O	1.129506	-0.663244	-0.685025
C18	C	0.965136	-0.492545	-0.601272
C19	C	0.867773	-0.478750	-0.584465
C20	C	0.554602	-0.623422	-0.760730
C21	C	0.646080	-0.636386	-0.776518
C22	C	0.701507	-0.596978	-0.728507
C23	C	0.665449	-0.544604	-0.664703
C24	C	0.573963	-0.531641	-0.648908
C25	C	0.720868	-0.505198	-0.616685
C26	C	0.684809	-0.452823	-0.552882
C27	C	0.593332	-0.439862	-0.537090
C28	C	0.537904	-0.479270	-0.585102
C29	C	0.812354	-0.518160	-0.632480
C30	C	0.831715	-0.426380	-0.520659
C31	C	0.740237	-0.413415	-0.504870
C32	C	1.192609	-0.688359	-0.640538
C33	C	1.192639	-0.758333	-0.640552
C34	C	1.258392	-0.793558	-0.594279
C35	C	1.258429	-0.859308	-0.594306
C36	C	1.192700	-0.889827	-0.640594
C37	C	1.126942	-0.854594	-0.686877
C38	C	1.126911	-0.788847	-0.686856
N39	N	1.114918	-0.982893	-0.634027
N40	N	1.114951	-1.045351	-0.634042
C41	C	1.192790	-1.087921	-0.640661
N42	N	1.270600	-1.065673	-0.647247
N43	N	1.270567	-1.003210	-0.647228
C44	C	1.192726	-0.961119	-0.640622
C45	C	1.258588	-1.194441	-0.594415
C46	C	1.258626	-1.260193	-0.594448
C47	C	1.127132	-1.255477	-0.687013
C48	C	1.127101	-1.189727	-0.686986
C49	C	1.192829	-1.159213	-0.640682
C50	C	1.421184	-0.557239	-0.680096
C51	C	1.518543	-0.571051	-0.696923
C52	C	1.153201	-0.547586	-0.869070
C53	C	1.136362	-0.557284	-0.966428
C54	C	1.192843	-0.360665	-0.640699
C55	C	1.192898	-0.290708	-0.640738
C56	C	1.313098	-0.455410	-1.279682
C57	C	1.328925	-0.446300	-1.188211
C58	C	1.280785	-0.474045	-1.132761
C59	C	1.216817	-0.510902	-1.168791
C60	C	1.200994	-0.520017	-1.260272
C61	C	1.168681	-0.538652	-1.113350
C62	C	1.104713	-0.575509	-1.149380
C63	C	1.088892	-0.584622	-1.240852
C64	C	1.137031	-0.556877	-1.296302
C65	C	1.184504	-0.529537	-1.021869
C66	C	1.072400	-0.594144	-1.002458
C67	C	1.056573	-0.603254	-1.093930
C68	C	1.232127	-0.502121	-0.413041
C69	C	1.249136	-0.492270	-0.315713
H70	H	0.509466	-0.655505	-0.799809
O71	O	1.121664	-0.565843	-1.385161
C72	C	1.121468	-0.642443	-1.520304
C73	C	1.138881	-0.632385	-1.419673
H74	H	1.135399	-0.696239	-1.548240
H75	H	1.049340	-0.622279	-1.533470
H76	H	1.166840	-0.616246	-1.553712
H77	H	1.093565	-0.658581	-1.386198
H78	H	1.211030	-0.652531	-1.406572
H79	H	0.675432	-0.679031	-0.828465
H80	H	1.311913	-0.768716	-0.556579
H81	H	0.876845	-0.394291	-0.481562
O82	O	1.322343	-0.893433	-0.549273
C83	C	1.452781	-0.891183	-0.457486
C84	C	1.380441	-0.852460	-0.508433
H85	H	1.499782	-0.858076	-0.424469
H86	H	1.420586	-0.911723	-0.404672
H87	H	1.491564	-0.932437	-0.505661
H88	H	1.341633	-0.811178	-0.460327
H89	H	1.412689	-0.831968	-0.561259
H90	H	1.073426	-0.879448	-0.724567
O91	O	1.062947	-0.754713	-0.731818
C92	C	0.932563	-0.756983	-0.823680
C93	C	1.004939	-0.795714	-0.772782
H94	H	0.885656	-0.790119	-0.856828
H95	H	0.893674	-0.715760	-0.775539
H96	H	0.964821	-0.736403	-0.876408
H97	H	0.972753	-0.816338	-0.720053
H98	H	1.043821	-0.836903	-0.820978
O99	O	0.449026	-0.466592	-0.569845
C100	C	0.313858	-0.389932	-0.569804
C101	C	0.414504	-0.404203	-0.587130
H102	H	0.285920	-0.339486	-0.583753
H103	H	0.280401	-0.427058	-0.615108
H104	H	0.300756	-0.392675	-0.497654
H105	H	0.427687	-0.401451	-0.659256
H106	H	0.447910	-0.367078	-0.541769
O107	O	1.322523	-1.164902	-0.549429
C108	C	1.452913	-1.176507	-0.457571
C109	C	1.380574	-1.210042	-0.508500
H110	H	1.499855	-1.212985	-0.424452
H111	H	1.491770	-1.156199	-0.505686
H112	H	1.420622	-1.135492	-0.404818
H113	H	1.412792	-1.251082	-0.561254
H114	H	1.341723	-1.230305	-0.460331
H115	H	1.236587	-0.499527	-0.992543
O116	O	0.705228	-0.362468	-0.442989
C117	C	0.684629	-0.247180	-0.395896
C118	C	0.724305	-0.304816	-0.466050
H119	H	0.700054	-0.200556	-0.414505
H120	H	0.609715	-0.244632	-0.392861
H121	H	0.714802	-0.253693	-0.328343
H122	H	0.694201	-0.298344	-0.533639
H123	H	0.799220	-0.307347	-0.469007
H124	H	1.312175	-1.288874	-0.556770
H125	H	1.352292	-0.432829	-1.324838
O126	O	1.391060	-0.410457	-1.153354
C127	C	1.500619	-0.347370	-1.182272
C128	C	1.430259	-0.387939	-1.221863
H129	H	1.532345	-0.329164	-1.237644
H130	H	1.467878	-0.304454	-1.132545
H131	H	1.553771	-0.378501	-1.147315
H132	H	1.377087	-0.356862	-1.256865
H133	H	1.463065	-0.430859	-1.271544
H134	H	1.293675	-0.466626	-1.058281
H135	H	0.563978	-0.397221	-0.485129
H136	H	1.073617	-1.280325	-0.724706
H137	H	1.073556	-1.161043	-0.724661
O138	O	1.026700	-0.620423	-1.275704
C139	C	0.917215	-0.683573	-1.246801
C140	C	0.987606	-0.643032	-1.207215
H141	H	0.885600	-0.701876	-1.191449
H142	H	0.863976	-0.652465	-1.281695
H143	H	0.950006	-0.726433	-1.296585
H144	H	0.954893	-0.600169	-1.157396
H145	H	1.040838	-0.674185	-1.172376
H146	H	1.004489	-0.633263	-1.123278
O147	O	1.025493	-0.621060	-0.948679
C148	C	0.881320	-0.627658	-0.894875
C149	C	0.934322	-0.597139	-0.955837
H150	H	0.807601	-0.608320	-0.900627
H151	H	0.893478	-0.682384	-0.915493
H152	H	0.903659	-0.614829	-0.823318
H153	H	0.912016	-0.609918	-1.027411
H154	H	0.922162	-0.542420	-0.935144
O155	O	0.790392	-0.609609	-0.743704
C156	C	0.936184	-0.635867	-0.682338
C157	C	0.835540	-0.621589	-0.665004
H158	H	0.972716	-0.645544	-0.618718
H159	H	0.952495	-0.680090	-0.736145
H160	H	0.957852	-0.592488	-0.704979
H161	H	0.813801	-0.664929	-0.642329
H162	H	0.819285	-0.577343	-0.611226
H163	H	0.841704	-0.560804	-0.684430
