data_functionalizedCrystal
_audit_creation_method	'MofGen! by Chris Wilmer'
_symmetry_space_group_name_H-M	'P1'
_symmetry_Int_Tables_number	1
_symmetry_cell_setting	triclinic
loop_
_symmetry_equiv_pos_as_xyz
  x,y,z
_cell_length_a	21.395362
_cell_length_b	21.295417
_cell_length_c	21.395355
_cell_angle_alpha	90.021451
_cell_angle_beta	90.043940
_cell_angle_gamma	90.046383
loop_
_atom_site_label
_atom_site_type_symbol
_atom_site_fract_x
_atom_site_fract_y
_atom_site_fract_z
Zn1	Zn	0.957860	-0.250415	0.354573
Zn2	Zn	1.291194	0.082918	0.687906
Zn3	Zn	1.624527	0.416251	1.021239
Zn4	Zn	0.957763	-0.355667	0.249790
Zn5	Zn	1.291097	-0.022334	0.583123
Zn6	Zn	1.624430	0.311000	0.916457
Zn7	Zn	0.853075	-0.250445	0.249774
Zn8	Zn	1.186409	0.082889	0.583107
Zn9	Zn	1.519742	0.416222	0.916441
Zn10	Zn	0.853045	-0.355680	0.354495
Zn11	Zn	1.186378	-0.022346	0.687828
Zn12	Zn	1.519712	0.310987	1.021161
O13	O	0.905436	-0.303052	0.302158
O14	O	1.238769	0.030282	0.635491
O15	O	1.572103	0.363615	0.968825
O16	O	1.045525	-0.264359	0.340713
O17	O	1.378859	0.068974	0.674046
O18	O	1.712192	0.402307	1.007379
O19	O	0.943848	-0.341716	0.162110
O20	O	1.277182	-0.008382	0.495443
O21	O	1.610515	0.324951	0.828777
O22	O	0.867029	-0.162351	0.263702
O23	O	1.200362	0.170982	0.597035
O24	O	1.533695	0.504315	0.930369
O25	O	1.045454	-0.341687	0.263729
O26	O	1.378787	-0.008354	0.597062
O27	O	1.712121	0.324979	0.930396
O28	O	0.944014	-0.162330	0.340697
O29	O	1.277347	0.171004	0.674030
O30	O	1.610680	0.504337	1.007364
O31	O	0.866934	-0.264409	0.162098
O32	O	1.200268	0.068924	0.495432
O33	O	1.533601	0.402257	0.828765
O34	O	0.765393	-0.264422	0.263626
O35	O	1.098727	0.068911	0.596959
O36	O	1.432060	0.402245	0.930293
O37	O	0.866977	-0.341709	0.442183
O38	O	1.200310	-0.008376	0.775516
O39	O	1.533643	0.324957	1.108850
O40	O	0.765371	-0.341738	0.340564
O41	O	1.098704	-0.008404	0.673897
O42	O	1.432038	0.324929	1.007231
O43	O	0.943984	-0.264372	0.442240
O44	O	1.277318	0.068961	0.775574
O45	O	1.610651	0.402295	1.108907
O46	O	0.943819	-0.443758	0.263653
O47	O	1.277152	-0.110425	0.596987
O48	O	1.610485	0.222909	0.930320
O49	O	0.866883	-0.443767	0.340579
O50	O	1.200216	-0.110434	0.673913
O51	O	1.533549	0.222899	1.007246
C52	C	0.742648	-0.303085	0.302085
C53	C	1.075982	0.030248	0.635419
C54	C	1.409315	0.363582	0.968752
C55	C	0.673007	-0.303114	0.302069
C56	C	1.006340	0.030219	0.635402
C57	C	1.339674	0.363552	0.968736
C58	C	0.640299	-0.343426	0.342070
C59	C	0.973632	-0.010093	0.675404
C60	C	1.306965	0.323241	1.008737
C61	C	0.574863	-0.343411	0.342098
C62	C	0.908197	-0.010077	0.675432
C63	C	1.241530	0.323256	1.008765
C64	C	0.542139	-0.303090	0.302114
C65	C	0.875472	0.030243	0.635447
C66	C	1.208805	0.363577	0.968780
C67	C	0.574855	-0.262771	0.262109
C68	C	0.908188	0.070563	0.595443
C69	C	1.241522	0.403896	0.928776
C70	C	0.640289	-0.262783	0.262087
C71	C	0.973622	0.070551	0.595420
C72	C	1.306956	0.403884	0.928754
C73	C	0.438414	-0.298019	0.245709
C74	C	0.771747	0.035314	0.579042
C75	C	1.105081	0.368648	0.912375
C76	C	0.372981	-0.298011	0.245730
C77	C	0.706314	0.035322	0.579063
C78	C	1.039648	0.368655	0.912397
C79	C	0.340318	-0.303049	0.302183
C80	C	0.673651	0.030284	0.635516
C81	C	1.006985	0.363618	0.968849
C82	C	0.373096	-0.308108	0.358616
C83	C	0.706429	0.025226	0.691949
C84	C	1.039763	0.358559	1.025283
C85	C	0.438530	-0.308120	0.358594
C86	C	0.771863	0.025213	0.691927
C87	C	1.105197	0.358547	1.025261
C88	C	0.471186	-0.303072	0.302134
C89	C	0.804520	0.030261	0.635467
C90	C	1.137853	0.363594	0.968800
C91	C	0.236657	-0.343346	0.342218
C92	C	0.569990	-0.010013	0.675551
C93	C	0.903324	0.323321	1.008885
C94	C	0.171221	-0.343326	0.342247
C95	C	0.504554	-0.009993	0.675580
C96	C	0.837887	0.323340	1.008914
C97	C	0.171214	-0.262690	0.262252
C98	C	0.504547	0.070644	0.595586
C99	C	0.837880	0.403977	0.928919
C100	C	0.236649	-0.262706	0.262229
C101	C	0.569982	0.070627	0.595562
C102	C	0.903316	0.403961	0.928896
C103	C	0.269367	-0.303038	0.302211
C104	C	0.602700	0.030296	0.635544
C105	C	0.936033	0.363629	0.968878
C106	C	0.905354	-0.466603	0.302123
C107	C	1.238687	-0.133270	0.635457
C108	C	1.572020	0.200063	0.968790
C109	C	0.905376	-0.536571	0.302129
C110	C	1.238709	-0.203238	0.635463
C111	C	1.572043	0.130095	0.968796
C112	C	0.945472	-0.569412	0.262115
C113	C	1.278806	-0.236079	0.595448
C114	C	1.612139	0.097254	0.928782
C115	C	0.945502	-0.635155	0.262129
C116	C	1.278835	-0.301821	0.595462
C117	C	1.612168	0.031512	0.928796
C118	C	0.905424	-0.668054	0.302151
C119	C	1.238757	-0.334721	0.635484
C120	C	1.572090	-0.001387	0.968818
C121	C	0.865324	-0.635205	0.342173
C122	C	1.198658	-0.301872	0.675506
C123	C	1.531991	0.031462	1.008840
C124	C	0.865301	-0.569464	0.342162
C125	C	1.198634	-0.236131	0.675496
C126	C	1.531967	0.097203	1.008829
N127	N	0.850614	-0.771336	0.306903
N128	N	1.183947	-0.438002	0.640236
N129	N	1.517280	-0.104669	0.973570
N130	N	0.850638	-0.833787	0.306910
N131	N	1.183971	-0.500454	0.640243
N132	N	1.517305	-0.167121	0.973576
C133	C	0.905494	-0.866129	0.302187
C134	C	1.238827	-0.532795	0.635520
C135	C	1.572160	-0.199462	0.968854
N136	N	0.960325	-0.833659	0.297445
N137	N	1.293659	-0.500326	0.630778
N138	N	1.626992	-0.166993	0.964112
N139	N	0.960300	-0.771202	0.297435
N140	N	1.293634	-0.437869	0.630769
N141	N	1.626967	-0.104535	0.964102
C142	C	0.905445	-0.739339	0.302167
C143	C	1.238778	-0.406006	0.635501
C144	C	1.572112	-0.072673	0.968834
C145	C	0.945625	-0.970255	0.262186
C146	C	1.278959	-0.636922	0.595519
C147	C	1.612292	-0.303588	0.928852
C148	C	0.945656	-1.035999	0.262204
C149	C	1.278989	-0.702665	0.595537
C150	C	1.612322	-0.369332	0.928871
C151	C	0.865473	-1.036048	0.342245
C152	C	1.198806	-0.702714	0.675578
C153	C	1.532140	-0.369381	1.008912
C154	C	0.865448	-0.970305	0.342230
C155	C	1.198781	-0.636972	0.675563
C156	C	1.532115	-0.303639	1.008896
C157	C	0.905523	-0.937413	0.302197
C158	C	1.238857	-0.604079	0.635530
C159	C	1.572190	-0.270746	0.968863
C160	C	1.068859	-0.303019	0.302231
C161	C	1.402193	0.030315	0.635565
C162	C	1.735526	0.363648	0.968898
C163	C	1.138501	-0.303005	0.302262
C164	C	1.471834	0.030329	0.635596
C165	C	1.805167	0.363662	0.968929
C166	C	0.905488	-0.303039	0.465581
C167	C	1.238821	0.030294	0.798915
C168	C	1.572155	0.363628	1.132248
C169	C	0.905510	-0.303033	0.535223
C170	C	1.238843	0.030300	0.868556
C171	C	1.572177	0.363633	1.201889
C172	C	0.905535	-0.138861	0.302206
C173	C	1.238869	0.194472	0.635540
C174	C	1.572202	0.527805	0.968873
C175	C	0.905578	-0.068893	0.302227
C176	C	1.238911	0.264440	0.635561
C177	C	1.572245	0.597773	0.968894
C178	C	0.905420	-0.303019	0.139370
C179	C	1.238754	0.030314	0.472704
C180	C	1.572087	0.363648	0.806037
C181	C	0.905519	-0.302847	0.069729
C182	C	1.238853	0.030486	0.403063
C183	C	1.572186	0.363820	0.736396
C184	C	0.945606	-0.262762	0.567967
C185	C	1.278940	0.070571	0.901300
C186	C	1.612273	0.403904	1.234633
C187	C	0.945605	-0.262735	0.633402
C188	C	1.278939	0.070598	0.966735
C189	C	1.612272	0.403932	1.300069
C190	C	0.905515	-0.302991	0.666091
C191	C	1.238848	0.030343	0.999424
C192	C	1.572182	0.363676	1.332758
C193	C	0.865411	-0.343265	0.633339
C194	C	1.198744	-0.009931	0.966672
C195	C	1.532078	0.323402	1.300006
C196	C	0.865409	-0.343286	0.567905
C197	C	1.198742	-0.009953	0.901238
C198	C	1.532075	0.323381	1.234571
C199	C	0.900539	-0.359672	0.769752
C200	C	1.233873	-0.026339	1.103085
C201	C	1.567206	0.306995	1.436419
C202	C	0.900546	-0.359652	0.835185
C203	C	1.233879	-0.026318	1.168518
C204	C	1.567213	0.307015	1.501852
C205	C	0.905519	-0.302924	0.867912
C206	C	1.238852	0.030409	1.201245
C207	C	1.572186	0.363743	1.534578
C208	C	0.910498	-0.246215	0.835198
C209	C	1.243831	0.087118	1.168531
C210	C	1.577165	0.420452	1.501864
C211	C	0.910496	-0.246237	0.769763
C212	C	1.243829	0.087097	1.103097
C213	C	1.577162	0.420430	1.436430
C214	C	0.905513	-0.302972	0.737043
C215	C	1.238846	0.030362	1.070377
C216	C	1.572180	0.363695	1.403710
C217	C	0.945616	-0.262620	0.971608
C218	C	1.278950	0.070713	1.304942
C219	C	1.612283	0.404047	1.638275
C220	C	0.945611	-0.262592	1.037045
C221	C	1.278944	0.070741	1.370378
C222	C	1.612278	0.404075	1.703712
C223	C	0.865420	-0.343127	1.036981
C224	C	1.198753	-0.009794	1.370314
C225	C	1.532087	0.323540	1.703647
C226	C	0.865422	-0.343150	0.971545
C227	C	1.198755	-0.009816	1.304879
C228	C	1.532089	0.323517	1.638212
C229	C	0.905523	-0.302897	0.938863
C230	C	1.238857	0.030436	1.272196
C231	C	1.572190	0.363770	1.605530
H232	H	0.144570	-0.229857	0.229699
H233	H	0.477903	0.103476	0.563032
H234	H	0.811237	0.436810	0.896365
H235	H	0.832843	-1.062834	0.374834
H236	H	1.166177	-0.729500	0.708168
H237	H	1.499510	-0.396167	1.041501
H238	H	0.263280	-0.229883	0.229652
H239	H	0.596614	0.103450	0.562985
H240	H	0.929947	0.436784	0.896319
F241	F	0.822748	-0.385966	1.071766
F242	F	1.156081	-0.052632	1.405100
F243	F	1.489414	0.280701	1.738433
H244	H	0.346298	-0.293896	0.199778
H245	H	0.679632	0.039437	0.533112
H246	H	1.012965	0.372771	0.866445
F247	F	0.822769	-0.935352	0.384817
F248	F	1.156102	-0.602019	0.718150
F249	F	1.489436	-0.268686	1.051483
H250	H	0.666920	-0.229954	0.229513
H251	H	1.000253	0.103379	0.562846
H252	H	1.333587	0.436713	0.896179
F253	F	0.915791	-0.185885	0.734949
F254	F	1.249125	0.147449	1.068282
F255	F	1.582458	0.480782	1.401616
H256	H	0.978259	-0.229985	0.541361
H257	H	1.311593	0.103349	0.874694
H258	H	1.644926	0.436682	1.208027
H259	H	0.465003	-0.293914	0.199735
H260	H	0.798336	0.039419	0.533068
H261	H	1.131669	0.372753	0.866401
H262	H	0.978255	-0.229938	0.660067
H263	H	1.311588	0.103395	0.993401
H264	H	1.644922	0.436729	1.326734
H265	H	0.548227	-0.376237	0.374675
H266	H	0.881560	-0.042904	0.708008
H267	H	1.214894	0.290430	1.041341
H268	H	0.666933	-0.376266	0.374628
H269	H	1.000267	-0.042933	0.707961
H270	H	1.333600	0.290400	1.041295
F271	F	0.540026	-0.219856	0.219557
F272	F	0.873360	0.113477	0.552891
F273	F	1.206693	0.446810	0.886224
F274	F	0.895252	-0.420006	0.869996
F275	F	1.228586	-0.086673	1.203329
F276	F	1.561919	0.246661	1.536662
F277	F	0.338339	-0.313467	0.418703
F278	F	0.671673	0.019866	0.752036
F279	F	1.005006	0.353200	1.085369
F280	F	0.915793	-0.185837	0.870023
F281	F	1.249126	0.147497	1.203356
F282	F	1.582460	0.480830	1.536689
F283	F	0.473412	-0.313501	0.418652
F284	F	0.806746	0.019832	0.751986
F285	F	1.140079	0.353166	1.085319
H286	H	0.978105	-0.542633	0.229519
H287	H	1.311439	-0.209300	0.562853
H288	H	1.644772	0.124034	0.896186
F289	F	0.988276	-0.935246	0.219579
F290	F	1.321609	-0.601913	0.552913
F291	F	1.654942	-0.268579	0.886246
H292	H	0.832775	-0.375947	0.944885
H293	H	1.166108	-0.042613	1.278218
H294	H	1.499442	0.290720	1.611552
F295	F	0.988179	-0.670113	0.219538
F296	F	1.321512	-0.336780	0.552871
F297	F	1.654845	-0.003447	0.886205
H298	H	0.832694	-0.661996	0.374760
H299	H	1.166027	-0.328663	0.708094
H300	H	1.499360	0.004671	1.041427
F301	F	0.988292	-0.219778	0.936823
F302	F	1.321626	0.113555	1.270157
F303	F	1.654959	0.446889	1.603490
H304	H	0.978261	-0.229795	1.063704
H305	H	1.311594	0.103539	1.397037
H306	H	1.644928	0.436872	1.730371
F307	F	0.895261	-0.420055	0.734928
F308	F	1.228594	-0.086721	1.068261
F309	F	1.561927	0.246612	1.401595
H310	H	0.263297	-0.376183	0.374777
H311	H	0.596631	-0.042850	0.708110
H312	H	0.929964	0.290483	1.041444
H313	H	0.832649	-0.542724	0.374747
H314	H	1.165982	-0.209391	0.708081
H315	H	1.499316	0.123942	1.041414
F316	F	0.988338	-1.070950	0.219617
F317	F	1.321671	-0.737617	0.552950
F318	F	1.655005	-0.404283	0.886284
F319	F	0.136410	-0.386231	0.384828
F320	F	0.469743	-0.052897	0.718161
F321	F	0.803077	0.280436	1.051494
F322	F	0.822742	-0.386105	0.668130
F323	F	1.156076	-0.052772	1.001463
F324	F	1.489409	0.280561	1.334796
F325	F	0.822731	-0.386150	0.533055
F326	F	1.156064	-0.052817	0.866389
F327	F	1.489398	0.280516	1.199722
