data_functionalizedCrystal
_audit_creation_method	'MofGen! by Chris Wilmer'
_symmetry_space_group_name_H-M	'P1'
_symmetry_Int_Tables_number	1
_symmetry_cell_setting	triclinic
loop_
_symmetry_equiv_pos_as_xyz
  x,y,z
_cell_length_a	12.759401
_cell_length_b	16.625545
_cell_length_c	12.759393
_cell_angle_alpha	89.967170
_cell_angle_beta	89.979062
_cell_angle_gamma	90.027083
loop_
_atom_site_label
_atom_site_type_symbol
_atom_site_fract_x
_atom_site_fract_y
_atom_site_fract_z
Zn1	Zn	1.606187	-0.320930	-0.594003
Zn2	Zn	2.106187	0.179070	-0.094003
Zn3	Zn	1.606045	-0.455784	-0.418316
Zn4	Zn	2.106045	0.044216	0.081684
Zn5	Zn	1.430486	-0.320973	-0.418338
Zn6	Zn	1.930486	0.179027	0.081662
Zn7	Zn	1.430444	-0.455728	-0.593953
Zn8	Zn	1.930444	0.044272	-0.093953
O9	O	1.518291	-0.388354	-0.506153
O10	O	2.018291	0.111646	-0.006153
O11	O	1.753189	-0.338824	-0.570709
O12	O	2.253189	0.161176	-0.070709
O13	O	1.582714	-0.437943	-0.271298
O14	O	2.082714	0.062057	0.228702
O15	O	1.453870	-0.208135	-0.441671
O16	O	1.953870	0.291865	0.058329
O17	O	1.753085	-0.437901	-0.441633
O18	O	2.253085	0.062099	0.058367
O19	O	1.582957	-0.208103	-0.570731
O20	O	2.082957	0.291897	-0.070731
O21	O	1.453732	-0.338897	-0.271314
O22	O	1.953732	0.161103	0.228686
O23	O	1.283459	-0.338843	-0.441622
O24	O	1.783459	0.161157	0.058378
O25	O	1.453799	-0.437805	-0.740981
O26	O	1.953799	0.062195	-0.240981
O27	O	1.283429	-0.437847	-0.570646
O28	O	1.783429	0.062153	-0.070646
O29	O	1.582917	-0.338770	-0.741018
O30	O	2.082917	0.161230	-0.241018
O31	O	1.582674	-0.568609	-0.441585
O32	O	2.082674	-0.068609	0.058415
O33	O	1.453661	-0.568568	-0.570624
O34	O	1.953661	-0.068568	-0.070624
C35	C	1.245323	-0.388344	-0.506132
C36	C	1.745323	0.111656	-0.006132
C37	C	1.128547	-0.388359	-0.506148
C38	C	1.628547	0.111641	-0.006148
C39	C	1.518176	-0.597844	-0.506120
C40	C	2.018176	-0.097844	-0.006120
C41	C	1.518224	-0.687466	-0.506141
C42	C	2.018224	-0.187466	-0.006141
C43	C	1.073696	-0.439989	-0.573225
C44	C	1.573696	0.060011	-0.073225
C45	C	0.963972	-0.439992	-0.573245
C46	C	1.463972	0.060008	-0.073245
C47	C	0.963958	-0.336733	-0.439104
C48	C	1.463958	0.163267	0.060896
C49	C	1.073680	-0.336727	-0.439089
C50	C	1.573680	0.163273	0.060911
C51	C	1.518265	-0.760248	-0.506161
C52	C	2.018265	-0.260248	-0.006161
C53	C	1.518326	-0.851556	-0.506185
C54	C	2.018326	-0.351556	-0.006185
C55	C	1.518380	-0.924333	-0.506198
C56	C	2.018380	-0.424333	-0.006198
C57	C	1.518440	-1.015647	-0.506219
C58	C	2.018440	-0.515647	-0.006219
C59	C	1.792324	-0.388364	-0.506174
C60	C	2.292324	0.111636	-0.006174
C61	C	1.909100	-0.388369	-0.506183
C62	C	2.409100	0.111631	-0.006183
C63	C	1.518369	-0.388276	-0.780186
C64	C	2.018369	0.111724	-0.280186
C65	C	1.518403	-0.388243	-0.896963
C66	C	2.018403	0.111757	-0.396963
C67	C	1.518434	-0.178045	-0.506209
C68	C	2.018434	0.321955	-0.006209
C69	C	1.518495	-0.088424	-0.506233
C70	C	2.018495	0.411576	-0.006233
C71	C	1.585639	-0.336667	-0.951846
C72	C	2.085639	0.163333	-0.451846
C73	C	1.585657	-0.336632	-1.061570
C74	C	2.085657	0.163368	-0.561570
C75	C	1.451199	-0.439757	-1.061519
C76	C	1.951199	0.060243	-0.561519
C77	C	1.451177	-0.439787	-0.951797
C78	C	1.951177	0.060213	-0.451797
C79	C	1.518273	-0.388373	-0.233185
C80	C	2.018273	0.111627	0.266815
C81	C	1.518443	-0.388178	-0.116409
C82	C	2.018443	0.111822	0.383591
H83	H	1.118365	-0.482029	-0.627831
H84	H	1.618365	0.017971	-0.127831
H85	H	1.640406	-0.294633	-1.106250
H86	H	2.140406	0.205367	-0.606250
C87	C	0.930219	-0.200153	-0.388252
C88	C	1.430219	0.299847	0.111748
C89	C	0.903648	-0.279984	-0.365388
C90	C	1.403648	0.220016	0.134612
H91	H	0.892982	-0.165120	-0.342744
H92	H	1.392982	0.334880	0.157256
H93	H	1.003407	-0.192766	-0.378643
H94	H	1.503407	0.307234	0.121357
H95	H	0.912270	-0.188430	-0.458874
H96	H	1.412270	0.311570	0.041126
H97	H	0.921605	-0.291709	-0.294768
H98	H	1.421605	0.208291	0.205232
H99	H	0.830444	-0.287374	-0.374989
H100	H	1.330444	0.212626	0.125011
C101	C	1.636895	-0.200145	-0.918112
C102	C	2.136895	0.299855	-0.418112
C103	C	1.659521	-0.280003	-0.891571
C104	C	2.159521	0.219997	-0.391571
H105	H	1.682503	-0.165162	-0.880898
H106	H	2.182503	0.334838	-0.380898
H107	H	1.646532	-0.192754	-0.991305
H108	H	2.146532	0.307246	-0.491305
H109	H	1.566306	-0.188360	-0.900115
H110	H	2.066306	0.311640	-0.400115
H111	H	1.730108	-0.291790	-0.909575
H112	H	2.230108	0.208210	-0.409575
H113	H	1.649893	-0.287398	-0.818362
H114	H	2.149893	0.212602	-0.318362
H115	H	1.396417	-0.481785	-0.907110
H116	H	1.896417	0.018215	-0.407110
C117	C	1.273273	-0.479013	-1.095268
C118	C	1.773273	0.020987	-0.595268
C119	C	1.377313	-0.496417	-1.121795
C120	C	1.877313	0.003583	-0.621795
H121	H	1.227662	-0.513992	-1.132484
H122	H	1.727662	-0.013992	-0.632484
H123	H	1.263644	-0.486413	-1.022075
H124	H	1.763644	0.013587	-0.522075
H125	H	1.257952	-0.424830	-1.113271
H126	H	1.757952	0.075170	-0.613271
H127	H	1.392637	-0.550598	-1.103785
H128	H	1.892637	-0.050598	-0.603785
H129	H	1.386947	-0.489023	-1.195004
H130	H	1.886947	0.010977	-0.695004
H131	H	0.919318	-0.482033	-0.627868
H132	H	1.419318	0.017967	-0.127868
H133	H	1.118341	-0.294678	-0.384467
H134	H	1.618341	0.205322	0.115533
