data_functionalizedCrystal
_audit_creation_method	'MofGen! by Chris Wilmer'
_symmetry_space_group_name_H-M	'P1'
_symmetry_Int_Tables_number	1
_symmetry_cell_setting	triclinic
loop_
_symmetry_equiv_pos_as_xyz
  x,y,z
_cell_length_a	34.408637
_cell_length_b	34.407814
_cell_length_c	34.404193
_cell_angle_alpha	60.004510
_cell_angle_beta	60.009006
_cell_angle_gamma	59.994604
loop_
_atom_site_label
_atom_site_type_symbol
_atom_site_fract_x
_atom_site_fract_y
_atom_site_fract_z
O1	O	0.053973	-0.567860	0.474801
O2	O	0.553973	-0.067860	0.974801
O3	O	0.020377	-0.442124	0.382567
O4	O	0.520377	0.057876	0.882567
O5	O	0.100004	-0.521670	0.382483
O6	O	0.600004	-0.021670	0.882483
O7	O	-0.025653	-0.488314	0.474886
O8	O	0.474347	0.011686	0.974886
O9	O	0.126426	-0.495253	0.408816
O10	O	0.626426	0.004747	0.908816
O11	O	0.046800	-0.415707	0.408900
O12	O	0.546800	0.084293	0.908900
O13	O	0.080396	-0.541443	0.501134
O14	O	0.580396	-0.041443	1.001134
Zn15	Zn	0.067793	-0.474381	0.459198
Zn16	Zn	0.567793	0.025619	0.959198
Zn17	Zn	0.032980	-0.509186	0.424503
Zn18	Zn	0.532980	-0.009186	0.924503
O19	O	0.000769	-0.461897	0.501219
O20	O	0.500769	0.038103	1.001219
N21	N	0.091552	-0.450631	0.482879
N22	N	0.591552	0.049369	0.982879
N23	N	0.009225	-0.532940	0.400823
N24	N	0.509225	-0.032940	0.900823
C25	C	0.142848	-0.268847	0.534081
C26	C	0.642848	0.231153	1.034081
C27	C	0.142979	-0.399386	0.664559
C28	C	0.642979	0.100614	1.164559
C29	C	0.142862	-0.399365	0.534081
C30	C	0.642862	0.100635	1.034081
C31	C	0.273409	-0.399338	0.533986
C32	C	0.773409	0.100662	1.033986
C33	C	0.157225	-0.311914	0.548422
C34	C	0.657225	0.188086	1.048422
C35	C	0.157300	-0.385019	0.621491
C36	C	0.657300	0.114981	1.121491
C37	C	0.230339	-0.384991	0.548370
C38	C	0.730339	0.115009	1.048370
C39	C	0.157235	-0.385007	0.548422
C40	C	0.657235	0.114993	1.048422
C41	C	0.124548	-0.214028	0.515827
C42	C	0.624548	0.285972	1.015827
C43	C	0.124571	-0.417639	0.515827
C44	C	0.624571	0.082361	1.015827
C45	C	0.175526	-0.366733	0.566676
C46	C	0.675526	0.133267	1.066676
C47	C	0.353121	-0.385580	0.491988
C48	C	0.853121	0.114420	0.991988
C49	C	0.402952	-0.402180	0.475348
C50	C	0.902952	0.097820	0.975348
C51	C	0.402981	-0.482812	0.506096
C52	C	0.902981	0.017188	1.006096
C53	C	0.353151	-0.466211	0.522737
C54	C	0.853151	0.033789	1.022737
C55	C	0.136544	-0.189099	0.466839
C56	C	0.636544	0.310901	0.966839
C57	C	0.119905	-0.139265	0.450247
C58	C	0.619905	0.360735	0.950247
C59	C	0.079280	-0.139291	0.531632
C60	C	0.579280	0.360709	1.031632
C61	C	0.095918	-0.189125	0.548224
C62	C	0.595918	0.310875	1.048224
C63	C	0.075577	-0.405615	0.527900
C64	C	0.575577	0.094385	1.027900
C65	C	0.058953	-0.422228	0.511301
C66	C	0.558953	0.077772	1.011301
C67	C	0.140315	-0.462889	0.470566
C68	C	0.640315	0.037111	0.970566
C69	C	0.156941	-0.446276	0.487159
C70	C	0.656941	0.053724	0.987159
C71	C	0.075772	-0.405653	0.744326
C72	C	0.575772	0.094347	1.244326
C73	C	0.059206	-0.422280	0.794159
C74	C	0.559206	0.077720	1.294159
C75	C	0.140607	-0.462951	0.794094
C76	C	0.640607	0.037049	1.294094
C77	C	0.157172	-0.446325	0.744260
C78	C	0.657172	0.053675	1.244260
C79	C	0.124753	-0.417674	0.719377
C80	C	0.624753	0.082326	1.219377
C81	C	0.328223	-0.417595	0.515681
C82	C	0.828223	0.082405	1.015681
C83	C	-0.172390	-0.583988	0.349141
C84	C	0.327610	-0.083988	0.849141
C85	C	-0.041751	-0.584138	0.218783
C86	C	0.458249	-0.084138	0.718783
C87	C	-0.041941	-0.584130	0.349402
C88	C	0.458059	-0.084130	0.849402
C89	C	-0.041957	-0.714607	0.349338
C90	C	0.458043	-0.214607	0.849338
C91	C	-0.129326	-0.598388	0.334853
C92	C	0.370674	-0.098388	0.834853
C93	C	-0.056165	-0.598473	0.261852
C94	C	0.443835	-0.098473	0.761852
C95	C	-0.056282	-0.671535	0.334962
C96	C	0.443718	-0.171535	0.834962
C97	C	-0.056272	-0.598469	0.334999
C98	C	0.443728	-0.098469	0.834999
C99	C	-0.227205	-0.565659	0.367327
C100	C	0.272795	-0.065659	0.867327
C101	C	-0.023703	-0.565882	0.367734
C102	C	0.476297	-0.065882	0.867734
C103	C	-0.074511	-0.616717	0.316667
C104	C	0.425489	-0.116717	0.816667
C105	C	-0.055754	-0.794298	0.391257
C106	C	0.444246	-0.294298	0.891257
C107	C	-0.039181	-0.844132	0.407888
C108	C	0.460819	-0.344132	0.907888
C109	C	0.041447	-0.844215	0.377269
C110	C	0.541447	-0.344215	0.877269
C111	C	0.024873	-0.794381	0.360637
C112	C	0.524873	-0.294381	0.860637
C113	C	-0.252183	-0.577666	0.416302
C114	C	0.247817	-0.077666	0.916302
C115	C	-0.302014	-0.561001	0.432833
C116	C	0.197986	-0.061001	0.932833
C117	C	-0.301886	-0.520329	0.351410
C118	C	0.198114	-0.020329	0.851410
C119	C	-0.252055	-0.536994	0.334880
C120	C	0.247945	-0.036994	0.834880
C121	C	-0.035709	-0.516892	0.355682
C122	C	0.464291	-0.016892	0.855682
C123	C	-0.019129	-0.500308	0.372353
C124	C	0.480871	-0.000308	0.872353
C125	C	0.021465	-0.581700	0.413115
C126	C	0.521465	-0.081700	0.913115
C127	C	0.004884	-0.598286	0.396450
C128	C	0.504884	-0.098286	0.896450
C129	C	-0.035389	-0.516907	0.139026
C130	C	0.464611	-0.016907	0.639026
C131	C	-0.018707	-0.500324	0.089193
C132	C	0.481293	-0.000324	0.589193
C133	C	0.021949	-0.581721	0.089240
C134	C	0.521949	-0.081721	0.589240
C135	C	0.005268	-0.598303	0.139074
C136	C	0.505268	-0.098303	0.639074
C137	C	-0.023402	-0.565894	0.163965
C138	C	0.476598	-0.065894	0.663965
C139	C	-0.023728	-0.769425	0.367633
C140	C	0.476272	-0.269425	0.867633
N141	N	0.427173	-0.450553	0.482630
N142	N	0.927173	0.049447	0.982630
O143	O	0.589997	-0.458460	0.365361
O144	O	1.089997	0.041540	0.865361
O145	O	0.590185	-0.550997	0.490963
O146	O	1.090185	-0.050997	0.990963
O147	O	0.590104	-0.550786	0.411309
O148	O	1.090104	-0.050786	0.911309
O149	O	0.590077	-0.458671	0.445016
O150	O	1.090077	0.041329	0.945016
O151	O	0.510940	-0.524462	0.437777
O152	O	1.010940	-0.024462	0.937777
O153	O	0.511020	-0.524674	0.517432
O154	O	1.011020	-0.024674	1.017432
O155	O	0.510832	-0.432136	0.391830
O156	O	1.010832	0.067864	0.891830
Zn157	Zn	0.498357	-0.474225	0.458833
Zn158	Zn	0.998357	0.025775	0.958833
Zn159	Zn	0.602660	-0.508908	0.423960
Zn160	Zn	1.102660	-0.008908	0.923960
O161	O	0.510913	-0.432348	0.471484
O162	O	1.010913	0.067652	0.971484
N163	N	0.673844	-0.532580	0.400158
N164	N	1.173844	-0.032580	0.900158
N165	N	0.091520	-0.115070	0.482873
N166	N	0.591520	0.384930	0.982873
O167	O	-0.025663	0.047841	0.474857
O168	O	0.474337	0.547841	0.974857
O169	O	0.099940	0.047877	0.382299
O170	O	0.599940	0.547877	0.882299
O171	O	0.020247	0.047844	0.382560
O172	O	0.520247	0.547844	0.882560
O173	O	0.054030	0.047874	0.474596
O174	O	0.554030	0.547874	0.974596
O175	O	0.046674	-0.031326	0.408942
O176	O	0.546674	0.468674	0.908942
O177	O	0.126367	-0.031293	0.408680
O178	O	0.626367	0.468707	0.908680
O179	O	0.000764	-0.031329	0.501238
O180	O	0.500764	0.468671	1.001238
Zn181	Zn	0.067761	-0.043881	0.459148
Zn182	Zn	0.567761	0.456119	0.959148
Zn183	Zn	0.032943	0.060429	0.424389
Zn184	Zn	0.532943	0.560429	0.924389
O185	O	0.080457	-0.031296	0.500977
O186	O	0.580457	0.468704	1.000977
N187	N	0.009178	0.131618	0.400665
N188	N	0.509178	0.631618	0.900665
N189	N	0.091852	-0.450680	0.818332
N190	N	0.591852	0.049320	1.318332
O191	O	0.083862	-0.567845	0.981235
O192	O	0.583862	-0.067845	1.481235
O193	O	-0.008657	-0.442198	0.981276
O194	O	0.491343	0.057802	1.481276
O195	O	-0.008441	-0.521875	0.981252
O196	O	0.491559	-0.021875	1.481252
O197	O	0.083646	-0.488168	0.981258
O198	O	0.583646	0.011832	1.481258
O199	O	0.017919	-0.495468	0.902085
O200	O	0.517919	0.004532	1.402085
O201	O	0.017703	-0.415791	0.902109
O202	O	0.517703	0.084209	1.402109
O203	O	0.110222	-0.541438	0.902067
O204	O	0.610222	-0.041438	1.402067
Zn205	Zn	0.068148	-0.474422	0.889518
Zn206	Zn	0.568148	0.025578	1.389518
Zn207	Zn	0.033417	-0.509214	0.993825
Zn208	Zn	0.533417	-0.009214	1.493825
O209	O	0.110006	-0.461761	0.902091
O210	O	0.610006	0.038239	1.402091
N211	N	0.009712	-0.532961	1.065011
N212	N	0.509712	-0.032961	1.565011
C213	C	0.030439	-0.413071	0.383027
C214	C	0.530439	0.086929	0.883027
C215	C	0.129046	-0.511580	0.382922
C216	C	0.629046	-0.011580	0.882922
C217	C	0.070334	-0.570496	0.500675
C218	C	0.570334	-0.070496	1.000675
C219	C	-0.028274	-0.471987	0.500780
C220	C	0.471726	0.028013	1.000780
C221	C	0.550625	-0.550579	0.520021
C222	C	1.050625	-0.050579	1.020021
C223	C	0.550527	-0.550317	0.421379
C224	C	1.050527	-0.050317	0.921379
C225	C	0.550389	-0.432554	0.362773
C226	C	1.050389	0.067446	0.862773
C227	C	0.550491	-0.432816	0.461414
C228	C	1.050491	0.067184	0.961414
C229	C	0.128944	0.008394	0.382712
C230	C	0.628944	0.508394	0.882712
C231	C	0.030287	0.008256	0.383068
C232	C	0.530287	0.508256	0.883068
C233	C	-0.028273	0.008252	0.500793
C234	C	0.471727	0.508252	1.000793
C235	C	0.070417	0.008292	0.500470
C236	C	0.570417	0.508292	1.000470
C237	C	-0.008218	-0.413165	0.941698
C238	C	0.491782	0.086835	1.441698
C239	C	-0.007945	-0.511830	0.941653
C240	C	0.492055	-0.011830	1.441653
C241	C	0.109783	-0.570471	0.941646
C242	C	0.609783	-0.070471	1.441646
C243	C	0.109516	-0.471800	0.941673
C244	C	0.609516	0.028200	1.441673
H245	H	0.049370	-0.382321	0.724071
H246	H	0.549370	0.117679	1.224071
C247	C	-0.047458	-0.364417	0.941707
C248	C	0.452542	0.135583	1.441707
H249	H	-0.075090	-0.364371	0.941703
H250	H	0.424910	0.135629	1.441703
H251	H	-0.054943	-0.358606	0.969316
H252	H	0.445057	0.141394	1.469316
H253	H	-0.036550	-0.340198	0.914097
H254	H	0.463450	0.159802	1.414097
C255	C	0.020518	0.008246	0.344003
C256	C	0.520518	0.508246	0.844003
H257	H	0.048019	0.008257	0.316288
H258	H	0.548019	0.508257	0.816288
H259	H	0.012971	-0.019367	0.355007
H260	H	0.512971	0.480633	0.855007
H261	H	-0.005459	0.035853	0.336607
H262	H	0.494541	0.535853	0.836607
C263	C	0.080186	0.008301	0.539535
C264	C	0.580186	0.508301	1.039535
H265	H	0.052683	0.008298	0.567247
H266	H	0.552683	0.508298	1.067247
H267	H	0.106164	-0.019300	0.546929
H268	H	0.606164	0.480700	1.046929
H269	H	0.087729	0.035920	0.528528
H270	H	0.587729	0.535920	1.028528
C271	C	-0.047012	-0.521554	0.941605
C272	C	0.452988	-0.021554	1.441605
H273	H	-0.035372	-0.553071	0.941583
H274	H	0.464628	-0.053071	1.441583
H275	H	-0.074090	-0.518008	0.969207
H276	H	0.425910	-0.018008	1.469207
H277	H	-0.055669	-0.499583	0.913988
H278	H	0.444331	0.000417	1.413988
C279	C	0.148601	-0.462058	0.941665
C280	C	0.648601	0.037942	1.441665
H281	H	0.136967	-0.430534	0.941669
H282	H	0.636967	0.069466	1.441669
H283	H	0.157287	-0.484020	0.969265
H284	H	0.657287	0.015980	1.469265
H285	H	0.175663	-0.465601	0.914046
H286	H	0.675663	0.034399	1.414046
H287	H	0.050956	-0.774133	0.341399
H288	H	0.550956	-0.274133	0.841399
H289	H	-0.064344	0.008241	0.529850
H290	H	0.435656	0.508241	1.029850
H291	H	0.138832	-0.606554	0.941627
H292	H	0.638832	-0.106554	1.441627
C293	C	0.020743	-0.364280	0.343889
C294	C	0.520743	0.135720	0.843889
H295	H	-0.010771	-0.344350	0.355483
H296	H	0.489229	0.155650	0.855483
H297	H	0.042720	-0.349981	0.335201
H298	H	0.542720	0.150019	0.835201
H299	H	0.024290	-0.368410	0.316839
H300	H	0.524290	0.131590	0.816839
H301	H	0.019320	-0.412483	0.814467
H302	H	0.519320	0.087517	1.314467
H303	H	0.550674	-0.579628	0.556096
H304	H	1.050674	-0.079628	1.056096
H305	H	0.165136	-0.518689	0.353905
H306	H	0.665136	-0.018689	0.853905
C307	C	0.177570	0.008709	0.343357
C308	C	0.677570	0.508709	0.843357
H309	H	0.197562	0.008784	0.354816
H310	H	0.697562	0.508784	0.854816
H311	H	0.191924	-0.018837	0.334579
H312	H	0.691924	0.481163	0.834579
H313	H	0.173221	0.036382	0.316399
H314	H	0.673221	0.536382	0.816399
C315	C	0.053477	-0.617369	0.061859
C316	C	0.553477	-0.117369	0.561859
H317	H	0.061692	-0.600477	0.028609
H318	H	0.561692	-0.100477	0.528609
H319	H	0.081625	-0.636836	0.070081
H320	H	0.581625	-0.136836	0.570081
H321	H	0.036559	-0.636781	0.069990
H322	H	0.536559	-0.136781	0.569990
C323	C	-0.077027	-0.462389	0.539978
C324	C	0.422973	0.037611	1.039978
H325	H	-0.097004	-0.430881	0.528439
H326	H	0.402996	0.069119	1.028439
H327	H	-0.091293	-0.484392	0.548657
H328	H	0.408707	0.015608	1.048657
H329	H	-0.072863	-0.465965	0.567021
H330	H	0.427137	0.034035	1.067021
H331	H	0.167007	-0.486271	0.814352
H332	H	0.667007	0.013729	1.314352
H333	H	0.550540	-0.579254	0.414165
H334	H	1.050540	-0.079254	0.914165
C335	C	0.550310	-0.393304	0.314045
C336	C	1.050310	0.106696	0.814045
H337	H	0.550299	-0.404805	0.294048
H338	H	1.050299	0.095195	0.794048
H339	H	0.522686	-0.366269	0.318244
H340	H	1.022686	0.133731	0.818244
H341	H	0.577903	-0.384629	0.299779
H342	H	1.077903	0.115371	0.799779
C343	C	0.550476	-0.393723	0.471155
C344	C	1.050476	0.106277	0.971155
H345	H	0.550513	-0.405360	0.502667
H346	H	1.050513	0.094640	1.002667
H347	H	0.578057	-0.385026	0.449175
H348	H	1.078057	0.114974	0.949175
H349	H	0.522841	-0.366668	0.467639
H350	H	1.022841	0.133332	0.967639
H351	H	0.049217	-0.382297	0.551240
H352	H	0.549217	0.117703	1.051240
C353	C	0.211053	-0.459547	0.716820
C354	C	0.711053	0.040453	1.216820
H355	H	0.227986	-0.478985	0.738778
H356	H	0.727986	0.021015	1.238778
H357	H	0.219214	-0.476449	0.697377
H358	H	0.719214	0.023551	1.197377
H359	H	0.219202	-0.431359	0.697381
H360	H	0.719202	0.068641	1.197381
H361	H	0.019058	-0.412426	0.521121
H362	H	0.519058	0.087574	1.021121
C363	C	0.080026	-0.619288	0.539812
C364	C	0.580026	-0.119288	1.039812
H365	H	0.052500	-0.619420	0.567503
H366	H	0.552500	-0.119420	1.067503
H367	H	0.087563	-0.643483	0.528858
H368	H	0.587563	-0.143483	1.028858
H369	H	0.105991	-0.625057	0.547227
H370	H	0.605991	-0.125057	1.047227
C371	C	0.175923	-0.494422	0.439065
C372	C	0.675923	0.005578	0.939065
H373	H	0.159005	-0.502607	0.430921
H374	H	0.659005	-0.002607	0.930921
H375	H	0.195360	-0.477534	0.410874
H376	H	0.695360	0.022466	0.910874
H377	H	0.195365	-0.522596	0.455982
H378	H	0.695365	-0.022596	0.955982
C379	C	0.210834	-0.459500	0.473882
C380	C	0.710834	0.040500	0.973882
H381	H	0.216100	-0.445502	0.487869
H382	H	0.716100	0.054498	0.987869
H383	H	0.224848	-0.493123	0.485327
H384	H	0.724848	0.006877	0.985327
H385	H	0.224800	-0.448025	0.440255
H386	H	0.724800	0.051975	0.940255
C387	C	0.325764	-0.501429	0.548801
C388	C	0.825764	-0.001429	1.048801
H389	H	0.292516	-0.484583	0.557707
H390	H	0.792516	0.015417	1.057707
H391	H	0.333916	-0.517181	0.528300
H392	H	0.833916	-0.017181	1.028300
H393	H	0.333960	-0.524247	0.576485
H394	H	0.833960	-0.024247	1.076485
C395	C	0.430401	-0.536287	0.513854
C396	C	0.930401	-0.036287	1.013854
H397	H	0.408435	-0.552978	0.530352
H398	H	0.908435	-0.052978	1.030352
H399	H	0.449820	-0.540904	0.483909
H400	H	0.949820	-0.040904	0.983909
H401	H	0.449861	-0.547973	0.532098
H402	H	0.949861	-0.047973	1.032098
H403	H	0.423225	-0.376108	0.456057
H404	H	0.923225	0.123892	0.956057
H405	H	0.332825	-0.345993	0.486242
H406	H	0.832825	0.154007	0.986242
H407	H	-0.058984	-0.490504	0.332300
H408	H	0.441016	0.009496	0.832300
C409	C	0.168032	-0.216489	0.431201
C410	C	0.668032	0.283511	0.931201
H411	H	0.172787	-0.194504	0.399649
H412	H	0.672787	0.305496	0.899649
H413	H	0.197914	-0.235923	0.435963
H414	H	0.697914	0.264077	0.935963
H415	H	0.152816	-0.235934	0.436003
H416	H	0.652816	0.264066	0.936003
H417	H	-0.028474	-0.460433	0.068892
H418	H	0.471526	0.039567	0.568892
H419	H	0.129672	-0.118967	0.410356
H420	H	0.629672	0.381033	0.910356
H421	H	0.055974	-0.119015	0.558014
H422	H	0.555974	0.380985	1.058014
H423	H	-0.058738	-0.490513	0.159288
H424	H	0.441262	0.009487	0.659288
C425	C	0.082740	-0.216543	0.602110
C426	C	0.582740	0.283457	1.102110
H427	H	0.063313	-0.194573	0.619026
H428	H	0.563313	0.305427	1.119026
H429	H	0.065842	-0.235999	0.610306
H430	H	0.565842	0.264001	1.110306
H431	H	0.110943	-0.235969	0.610243
H432	H	0.610943	0.264031	1.110243
H433	H	-0.028907	-0.460416	0.362542
H434	H	0.471093	0.039584	0.862542
C435	C	0.018452	-0.652191	0.166507
C436	C	0.518452	-0.152191	0.666507
H437	H	0.004416	-0.657427	0.199751
H438	H	0.504416	-0.157427	0.699751
H439	H	0.007007	-0.666170	0.158304
H440	H	0.507007	-0.166170	0.658304
H441	H	0.052071	-0.666220	0.158396
H442	H	0.552071	-0.166220	0.658396
C443	C	0.052913	-0.617348	0.444699
C444	C	0.552913	-0.117348	0.944699
H445	H	0.057687	-0.648899	0.449489
H446	H	0.557687	-0.148899	0.949489
H447	H	0.082789	-0.612594	0.429535
H448	H	0.582789	-0.112594	0.929535
H449	H	0.037657	-0.612544	0.474566
H450	H	0.537657	-0.112544	0.974566
H451	H	0.014660	-0.638178	0.406265
H452	H	0.514660	-0.138178	0.906265
H453	H	-0.065262	-0.864385	0.427124
H454	H	0.434738	-0.364385	0.927124
C455	C	0.094907	-0.871668	0.369576
C456	C	0.594907	-0.371668	0.869576
H457	H	0.100189	-0.904910	0.382868
H458	H	0.600189	-0.404910	0.882868
H459	H	0.112320	-0.863523	0.336449
H460	H	0.612320	-0.363523	0.836449
H461	H	0.105189	-0.863515	0.384676
H462	H	0.605189	-0.363515	0.884676
C463	C	-0.109215	-0.766846	0.398944
C464	C	0.390785	-0.266846	0.898944
H465	H	-0.125913	-0.788800	0.415390
H466	H	0.374087	-0.288800	0.915390
H467	H	-0.120928	-0.747398	0.417204
H468	H	0.379072	-0.247398	0.917204
H469	H	-0.113786	-0.747411	0.368976
H470	H	0.386214	-0.247411	0.868976
H471	H	-0.231954	-0.601008	0.442726
H472	H	0.268046	-0.101008	0.942726
H473	H	-0.322352	-0.570775	0.472713
H474	H	0.177648	-0.070775	0.972713
H475	H	-0.322118	-0.496994	0.324987
H476	H	0.177882	0.003006	0.824987
H477	H	-0.231721	-0.527215	0.295000
H478	H	0.268279	-0.027215	0.795000
