data_functionalizedCrystal
_audit_creation_method	'MofGen! by Chris Wilmer'
_symmetry_space_group_name_H-M	'P1'
_symmetry_Int_Tables_number	1
_symmetry_cell_setting	triclinic
loop_
_symmetry_equiv_pos_as_xyz
  x,y,z
_cell_length_a	10.489768
_cell_length_b	10.654549
_cell_length_c	9.130313
_cell_angle_alpha	89.997986
_cell_angle_beta	90.001415
_cell_angle_gamma	95.482367
loop_
_atom_site_label
_atom_site_type_symbol
_atom_site_fract_x
_atom_site_fract_y
_atom_site_fract_z
O1	O	-1.693946	0.177355	-0.121718
O2	O	-1.322747	0.193951	-0.121738
O3	O	-1.516881	0.002918	-0.121721
O4	O	-1.499812	0.368387	-0.121735
O5	O	-1.516867	0.002918	0.121877
O6	O	-1.322732	0.193951	0.121861
O7	O	-1.693932	0.177355	0.121881
Cu8	Cu	-1.508331	0.185653	0.144113
Cu9	Cu	-1.508348	0.185653	-0.143970
O10	O	-1.499797	0.368387	0.121864
C11	C	-1.275209	0.192690	0.000059
C12	C	-1.133583	0.188918	0.000052
C13	C	-0.980787	0.065121	0.000079
C14	C	-1.058143	0.127014	0.120178
C15	C	-1.058113	0.127043	-0.119991
C16	C	-0.958595	0.244153	0.120290
C17	C	-0.958560	0.244165	-0.119988
C18	C	-1.035867	0.306144	0.000141
C19	C	-1.515621	-0.043881	0.000076
C20	C	-1.511871	-0.183326	0.000072
C21	C	-1.622642	-0.393778	0.000067
C22	C	-1.626175	-0.262755	0.000079
C23	C	-1.394027	-0.234925	0.000067
C24	C	-1.390496	-0.365945	0.000066
C25	C	-0.741472	0.178596	0.000084
C26	C	-0.883105	0.182308	0.000091
C27	C	-1.501058	0.415186	0.000063
C28	C	-1.504807	0.554631	0.000058
N29	N	-1.508328	0.185652	0.346736
N30	N	-1.508361	0.185643	-0.346593
C31	C	-1.586361	0.262578	0.423384
C32	C	-1.586382	0.262571	0.576721
C33	C	-1.430324	0.108708	0.576748
C34	C	-1.430311	0.108710	0.423414
H35	H	-0.915286	0.293589	0.221944
N36	N	-1.112643	0.064990	-0.247392
N37	N	-1.173406	0.124667	-0.337343
H38	H	-1.211916	0.080837	-0.427316
H39	H	-1.649887	0.325229	0.360957
N40	N	-1.746530	-0.210037	0.000099
N41	N	-1.774392	-0.140039	0.102790
H42	H	-1.859397	-0.102805	0.102809
N43	N	-1.666106	0.341150	0.654991
N44	N	-1.735759	0.409832	0.586505
H45	H	-1.792071	0.465331	0.641782
H46	H	-1.101637	0.077545	0.221721
N47	N	-1.350627	0.030145	0.655102
N48	N	-1.266736	0.078373	0.740672
H49	H	-1.210445	0.022890	0.796011
N50	N	-0.949844	-0.062721	0.000244
N51	N	-0.986028	-0.134472	0.103537
H52	H	-0.964173	-0.224759	0.103662
N53	N	-1.066492	0.434086	0.000221
N54	N	-1.030089	0.505829	0.103435
H55	H	-1.051716	0.596188	0.103496
H56	H	-0.915042	0.293591	-0.221534
H57	H	-1.715722	-0.458442	0.000061
N58	N	-1.277280	-0.153776	0.000077
N59	N	-1.280446	-0.036796	0.000078
H60	H	-1.197991	0.020516	0.000083
H61	H	-1.294535	-0.407950	0.000065
N62	N	-1.350600	0.030109	0.345133
N63	N	-1.280945	-0.038578	0.413608
H64	H	-1.224655	-0.094093	0.358323
