data_functionalizedCrystal
_audit_creation_method	'MofGen! by Chris Wilmer'
_symmetry_space_group_name_H-M	'P1'
_symmetry_Int_Tables_number	1
_symmetry_cell_setting	triclinic
loop_
_symmetry_equiv_pos_as_xyz
  x,y,z
_cell_length_a	14.971486
_cell_length_b	14.421503
_cell_length_c	14.971496
_cell_angle_alpha	89.996614
_cell_angle_beta	83.616127
_cell_angle_gamma	90.002684
loop_
_atom_site_label
_atom_site_type_symbol
_atom_site_fract_x
_atom_site_fract_y
_atom_site_fract_z
O1	O	1.186954	0.077007	0.116550
O2	O	0.926555	0.077032	0.130509
O3	O	1.063729	0.077011	-0.006670
O4	O	1.049780	0.077029	0.253729
O5	O	1.063706	-0.077213	-0.006650
O6	O	0.926532	-0.077191	0.130529
O7	O	1.186931	-0.077216	0.116570
Cu8	Cu	1.056730	-0.091286	0.123551
Cu9	Cu	1.056756	0.091102	0.123527
O10	O	1.049757	-0.077195	0.253749
C11	C	0.893218	-0.000076	0.129895
C12	C	0.793921	-0.000067	0.128024
N13	N	1.056717	-0.219567	0.123568
C14	C	0.736699	-0.000062	0.208613
C15	C	0.643399	-0.000076	0.206850
C16	C	0.607324	-0.000088	0.124497
C17	C	0.664554	-0.000095	0.043902
C18	C	0.757852	-0.000088	0.045666
C19	C	0.470091	-0.000108	0.040231
C20	C	0.376787	-0.000113	0.038466
C21	C	0.355639	-0.000097	0.201415
C22	C	0.448937	-0.000089	0.203179
C23	C	0.506160	-0.000095	0.122583
C24	C	0.993276	-0.469210	0.186971
C25	C	1.074119	-0.531020	0.204418
C26	C	1.056739	-0.408728	0.123547
C27	C	0.975918	-0.531013	0.106120
C28	C	1.056753	-0.591450	0.123528
C29	C	1.137622	-0.469177	0.141034
C30	C	1.039368	-0.469164	0.042701
C31	C	1.120268	-0.530946	0.060114
C32	C	1.056730	-0.303467	0.123560
C33	C	1.056771	-0.696709	0.123514
C34	C	1.220268	-0.000106	0.117184
C35	C	1.319565	-0.000109	0.119055
C36	C	1.063092	-0.000101	-0.039985
C37	C	1.061218	-0.000101	-0.139281
N38	N	1.056776	0.219383	0.123504
C39	C	1.053163	0.083991	-0.566996
C40	C	1.054929	0.083987	-0.473697
C41	C	1.055793	-0.000084	-0.427043
C42	C	1.054901	-0.084156	-0.473693
C43	C	1.053141	-0.084151	-0.566991
C44	C	1.058565	-0.084161	-0.279230
C45	C	1.060323	-0.084167	-0.185925
C46	C	1.060353	0.083976	-0.185936
C47	C	1.058593	0.083982	-0.279234
C48	C	1.057700	-0.000091	-0.325878
C49	C	1.050394	-0.000081	0.287063
C50	C	1.052268	-0.000075	0.386360
H51	H	0.596812	-0.000072	0.272473
N52	N	0.339950	-0.000127	-0.045661
N53	N	0.391049	-0.000141	-0.117614
H54	H	0.365034	-0.000153	-0.177031
H55	H	1.052451	0.152451	-0.604975
H56	H	0.516681	-0.000114	-0.025399
N57	N	0.297199	-0.000092	0.283747
N58	N	0.300529	0.064924	0.338487
H59	H	0.259251	0.064930	0.396632
H60	H	1.024637	-0.441973	-0.025638
N61	N	0.926019	-0.435178	0.254294
N62	N	0.863537	-0.385602	0.232360
H63	H	0.816039	-0.361563	0.279907
N64	N	1.092562	-0.565095	0.290179
N65	N	1.041123	-0.545316	0.359098
H66	H	1.054143	-0.569377	0.419670
N67	N	1.187684	-0.564746	-0.007171
N68	N	1.249516	-0.615298	0.014649
H69	H	1.297133	-0.639171	-0.032866
N70	N	1.223390	-0.435239	0.159609
N71	N	1.237217	-0.349878	0.162644
H72	H	1.297789	-0.325906	0.175763
N73	N	0.890165	-0.565093	0.087653
N74	N	0.821234	-0.545313	0.139073
H75	H	0.760669	-0.569382	0.126039
N76	N	1.055845	0.169866	-0.426066
N77	N	1.055068	0.244923	-0.467732
H78	H	1.055716	0.305580	-0.434094
N79	N	1.057721	0.169868	-0.326874
N80	N	1.120932	0.226145	-0.324625
H81	H	1.120321	0.286806	-0.358269
H82	H	1.061073	0.152431	-0.147953
N83	N	1.061197	-0.170050	-0.138279
N84	N	1.060400	-0.245106	-0.179933
H85	H	1.061015	-0.305763	-0.146284
N86	N	0.485806	-0.000069	0.287289
N87	N	0.535512	0.064945	0.306435
H88	H	0.561554	0.064957	0.365838
N89	N	1.057654	-0.170047	-0.326863
N90	N	1.058421	-0.245104	-0.285199
H91	H	1.057772	-0.305761	-0.318838
N92	N	1.055775	-0.170024	-0.426022
N93	N	0.993750	-0.188770	-0.365785
H94	H	0.994364	-0.249416	-0.332116
N95	N	1.052230	-0.170030	-0.614626
N96	N	1.053002	-0.245088	-0.572963
H97	H	1.052361	-0.305744	-0.606603
H98	H	0.766063	-0.000052	0.275674
H99	H	0.804442	-0.000090	-0.019958
N100	N	0.627707	-0.000126	-0.040221
N101	N	0.578007	-0.065142	-0.059373
H102	H	0.551985	-0.065163	-0.118787
