data_functionalizedCrystal
_audit_creation_method	'MofGen! by Chris Wilmer'
_symmetry_space_group_name_H-M	'P1'
_symmetry_Int_Tables_number	1
_symmetry_cell_setting	triclinic
loop_
_symmetry_equiv_pos_as_xyz
  x,y,z
_cell_length_a	16.992694
_cell_length_b	16.974813
_cell_length_c	16.053802
_cell_angle_alpha	88.912550
_cell_angle_beta	92.750953
_cell_angle_gamma	92.975366
loop_
_atom_site_label
_atom_site_type_symbol
_atom_site_fract_x
_atom_site_fract_y
_atom_site_fract_z
O1	O	-1.044046	0.164036	-0.080405
O2	O	-0.544046	0.664036	0.419595
O3	O	-0.815757	0.162201	-0.080306
O4	O	-0.315757	0.662201	0.419694
O5	O	-0.935897	0.048765	-0.072625
O6	O	-0.435897	0.548765	0.427375
O7	O	-0.923906	0.277473	-0.088087
O8	O	-0.423906	0.777473	0.411913
O9	O	-0.929284	0.054981	0.065813
O10	O	-0.429284	0.554981	0.565813
O11	O	-0.809145	0.168418	0.058132
O12	O	-0.309145	0.668418	0.558132
O13	O	-1.037433	0.170253	0.058033
O14	O	-0.537433	0.670253	0.558033
Zn15	Zn	-0.922239	0.170322	0.080062
Zn16	Zn	-0.422239	0.670322	0.580062
Zn17	Zn	-0.930951	0.162132	-0.102336
Zn18	Zn	-0.430951	0.662132	0.397664
O19	O	-0.917293	0.283689	0.050351
O20	O	-0.417293	0.783689	0.550351
C21	C	-0.783234	0.162951	-0.010931
C22	C	-0.283234	0.662951	0.489069
C23	C	-0.696175	0.155912	-0.010465
C24	C	-0.196175	0.655912	0.489535
C25	C	-1.069957	0.169503	-0.011344
C26	C	-0.569957	0.669503	0.488656
C27	C	-1.157016	0.176542	-0.011816
C28	C	-0.657016	0.676542	0.488184
C29	C	-0.932011	0.022473	-0.001420
C30	C	-0.432011	0.522473	0.498580
C31	C	-0.930277	-0.065130	0.004496
C32	C	-0.430277	0.434870	0.504496
C33	C	-0.646080	0.223821	-0.015055
C34	C	-0.146080	0.723821	0.484945
C35	C	-0.564279	0.217204	-0.014596
C36	C	-0.064279	0.717204	0.485404
C37	C	-0.532574	0.142676	-0.009553
C38	C	-0.032574	0.642676	0.490447
C39	C	-0.582675	0.074762	-0.004959
C40	C	-0.082675	0.574762	0.495041
C41	C	-0.664475	0.081380	-0.005412
C42	C	-0.164475	0.581380	0.494588
C43	C	-0.288916	0.115246	-0.007676
C44	C	0.211084	0.615246	0.492324
C45	C	-0.207111	0.108632	-0.007226
C46	C	0.292889	0.608632	0.492774
C47	C	-0.188719	0.251075	-0.016861
C48	C	0.311281	0.751075	0.483139
C49	C	-0.270522	0.257687	-0.017318
C50	C	0.229478	0.757687	0.482682
C51	C	-0.320615	0.189773	-0.012721
C52	C	0.179385	0.689773	0.487279
N53	N	-0.448960	0.135910	-0.009086
N54	N	0.051040	0.635910	0.490914
N55	N	-0.404227	0.196540	-0.013181
N56	N	0.095773	0.696540	0.486819
C57	C	-0.933069	-0.109669	-0.068186
C58	C	-0.433069	0.390331	0.431814
C59	C	-0.931434	-0.191981	-0.062625
C60	C	-0.431434	0.308019	0.437375
C61	C	-0.927013	-0.229752	0.015620
C62	C	-0.427013	0.270248	0.515620
C63	C	-0.924219	-0.185206	0.088308
C64	C	-0.424219	0.314794	0.588308
C65	C	-0.925848	-0.102895	0.082746
C66	C	-0.425848	0.397105	0.582746
C67	C	-0.921749	-0.475560	0.040348
C68	C	-0.421749	0.024440	0.540348
C69	C	-0.920122	-0.557877	0.045906
C70	C	-0.420122	-0.057877	0.545906
C71	C	-0.927336	-0.564647	-0.105028
C72	C	-0.427336	-0.064647	0.394972
C73	C	-0.928969	-0.482334	-0.110584
C74	C	-0.428969	0.017666	0.389416
C75	C	-0.926171	-0.437795	-0.037896
C76	C	-0.426171	0.062205	0.462104
N77	N	-0.925344	-0.313887	0.021307
N78	N	-0.425344	0.186113	0.521307
N79	N	-0.927834	-0.353661	-0.043583
N80	N	-0.427834	0.146339	0.456417
C81	C	-0.921179	0.309981	-0.020855
C82	C	-0.421179	0.809981	0.479145
C83	C	-0.922914	0.397583	-0.026777
C84	C	-0.422914	0.897583	0.473223
N85	N	-0.916298	0.175912	0.204544
N86	N	-0.416298	0.675912	0.704544
N87	N	-0.936898	0.156536	-0.226817
N88	N	-0.436898	0.656536	0.273183
C89	C	-0.967436	0.127664	0.251505
C90	C	-0.467436	0.627664	0.751505
C91	C	-0.963288	0.131582	0.338647
C92	C	-0.463288	0.631582	0.838647
C93	C	-0.908005	0.183752	0.378825
C94	C	-0.408005	0.683752	0.878825
C95	C	-0.856862	0.232002	0.331858
C96	C	-0.356862	0.732002	0.831858
C97	C	-0.861007	0.228080	0.244718
C98	C	-0.361007	0.728080	0.744718
C99	C	-0.889899	0.200864	0.639076
C100	C	-0.389899	0.700864	1.139076
C101	C	-0.885760	0.204784	0.726222
C102	C	-0.385760	0.704784	1.226222
C103	C	-0.992186	0.104363	0.733005
C104	C	-0.492186	0.604363	1.233005
C105	C	-0.996329	0.100448	0.645863
C106	C	-0.496329	0.600448	1.145863
C107	C	-0.945183	0.148695	0.598903
C108	C	-0.445183	0.648695	1.098903
N109	N	-0.903765	0.187760	0.467898
N110	N	-0.403765	0.687760	0.967898
N111	N	-0.949419	0.144683	0.509833
N112	N	-0.449419	0.644683	1.009833
H113	H	-0.671887	0.284510	-0.019162
H114	H	-0.171887	0.784510	0.480838
H115	H	-0.916518	-0.588626	0.109625
H116	H	-0.416518	-0.088626	0.609625
N117	N	-1.023897	0.074370	0.210455
N118	N	-0.523897	0.574370	0.710455
N119	N	-1.027591	0.070871	0.132652
N120	N	-0.527591	0.570871	0.632652
H121	H	-1.067466	0.033229	0.103661
H122	H	-0.567466	0.533229	0.603661
N123	N	-0.340087	0.045882	-0.002978
N124	N	0.159913	0.545882	0.497022
N125	N	-0.385003	0.036301	0.056201
N126	N	0.114997	0.536301	0.556201
H127	H	-0.421146	-0.012691	0.059520
H128	H	0.078854	0.487309	0.559520
H129	H	-0.556854	0.014080	-0.000841
H130	H	-0.056854	0.514080	0.499159
N131	N	-0.937602	-0.071092	-0.148112
N132	N	-0.437602	0.428908	0.351888
N133	N	-0.995064	-0.086339	-0.197756
N134	N	-0.495064	0.413661	0.302244
H135	H	-0.998266	-0.059095	-0.254206
H136	H	-0.498266	0.440905	0.245794
N137	N	-0.934322	-0.237471	-0.136874
N138	N	-0.434322	0.262529	0.363126
N139	N	-0.989457	-0.287931	-0.150337
N140	N	-0.489457	0.212069	0.349663
H141	H	-0.991504	-0.320056	-0.202781
H142	H	-0.491504	0.179944	0.297219
N143	N	-0.933486	-0.443768	-0.190516
N144	N	-0.433486	0.056232	0.309484
N145	N	-0.935977	-0.483546	-0.255407
N146	N	-0.435977	0.016454	0.244593
H147	H	-0.939170	-0.456309	-0.311861
H148	H	-0.439170	0.043691	0.188139
N149	N	-0.837678	0.250156	0.591102
N150	N	-0.337678	0.750156	1.091102
N151	N	-0.841384	0.246655	0.513300
N152	N	-0.341384	0.746655	1.013300
H153	H	-0.804503	0.281472	0.479413
H154	H	-0.304503	0.781472	0.979413
N155	N	-0.715636	0.012005	-0.000714
N156	N	-0.215636	0.512005	0.499286
N157	N	-0.687321	-0.054534	0.003793
N158	N	-0.187321	0.445466	0.503793
H159	H	-0.723453	-0.103533	0.007117
H160	H	-0.223453	0.396467	0.507117
H161	H	-0.920614	-0.215965	0.152017
H162	H	-0.420614	0.284035	0.652017
N163	N	-0.513114	0.286578	-0.019267
N164	N	-0.013114	0.786578	0.480733
N165	N	-0.513326	0.337622	0.035815
N166	N	-0.013326	0.837622	0.535815
H167	H	-0.477194	0.386623	0.032520
H168	H	0.022806	0.886623	0.532520
H169	H	-0.919486	-0.439307	0.099536
H170	H	-0.419486	0.060693	0.599536
N171	N	-1.015490	0.082272	0.386630
N172	N	-0.515490	0.582272	0.886630
N173	N	-1.011759	0.085752	0.464434
N174	N	-0.511759	0.585752	0.964434
H175	H	-1.048614	0.050910	0.498325
H176	H	-0.548614	0.550910	0.998325
H177	H	-0.811845	0.274478	0.364576
H178	H	-0.311845	0.774478	0.864576
H179	H	-0.147925	0.306367	-0.020602
H180	H	0.352075	0.806367	0.479398
N181	N	-0.808761	0.277366	0.196759
N182	N	-0.308761	0.777366	0.696759
N183	N	-0.759404	0.323943	0.232640
N184	N	-0.259404	0.823943	0.732640
H185	H	-0.722501	0.358752	0.198770
H186	H	-0.222501	0.858752	0.698770
N187	N	-1.044421	0.055088	0.780985
N188	N	-0.544421	0.555088	1.280985
N189	N	-1.040717	0.058595	0.858787
N190	N	-0.540717	0.558595	1.358787
H191	H	-1.077609	0.023791	0.892675
H192	H	-0.577609	0.523791	1.392675
H193	H	-0.181301	0.047940	-0.003120
H194	H	0.318699	0.547940	0.496880
N195	N	-0.302892	0.333821	-0.022481
N196	N	0.197108	0.833821	0.477519
N197	N	-0.258155	0.394450	-0.026584
N198	N	0.241845	0.894450	0.473416
H199	H	-0.281016	0.448222	-0.030236
H200	H	0.218984	0.948222	0.469764
N201	N	-1.052923	0.047222	0.604912
N202	N	-0.552923	0.547222	1.104912
N203	N	-1.051384	-0.025277	0.619586
N204	N	-0.551384	0.474723	1.119586
H205	H	-1.091404	-0.062838	0.590692
H206	H	-0.591404	0.437162	1.090692
N207	N	-0.922987	-0.057407	0.156997
N208	N	-0.422987	0.442593	0.656997
N209	N	-0.919037	-0.091138	0.226855
N210	N	-0.419037	0.408862	0.726855
H211	H	-0.917011	-0.059013	0.279298
H212	H	-0.417011	0.440987	0.779298
H213	H	-0.840739	0.247271	0.758931
H214	H	-0.340739	0.747271	1.258931
N215	N	-0.930195	-0.610154	-0.179264
N216	N	-0.430195	-0.110154	0.320736
N217	N	-0.928742	-0.683645	-0.174291
N218	N	-0.428742	-0.183645	0.325709
H219	H	-0.930760	-0.715786	-0.226723
H220	H	-0.430760	-0.215786	0.273277
