data_functionalizedCrystal
_audit_creation_method	'MofGen! by Chris Wilmer'
_symmetry_space_group_name_H-M	'P1'
_symmetry_Int_Tables_number	1
_symmetry_cell_setting	triclinic
loop_
_symmetry_equiv_pos_as_xyz
  x,y,z
_cell_length_a	21.606444
_cell_length_b	21.606444
_cell_length_c	21.606444
_cell_angle_alpha	90.000833
_cell_angle_beta	59.998659
_cell_angle_gamma	60.002891
loop_
_atom_site_label
_atom_site_type_symbol
_atom_site_fract_x
_atom_site_fract_y
_atom_site_fract_z
Zr1	Zr	0.677473	0.596243	-0.081248
O2	O	0.806591	0.497420	-0.180072
O3	O	0.548355	0.626534	-0.050953
O4	O	0.677479	0.626532	-0.180076
O5	O	0.677463	0.497427	0.050905
O6	O	0.677483	0.728382	-0.180080
O7	O	0.677468	0.497421	-0.050949
O8	O	0.446505	0.728385	0.050898
O9	O	0.908441	0.497424	-0.180072
O10	O	0.601467	0.715466	-0.038035
O11	O	0.601460	0.639460	0.037980
O12	O	0.753486	0.639458	-0.114046
O13	O	0.753480	0.563453	-0.038031
Zr14	Zr	0.677473	0.758689	0.081192
Zr15	Zr	0.677480	0.758681	-0.081254
Zr16	Zr	0.677466	0.596251	0.081198
Zr17	Zr	0.839913	0.596249	-0.081249
Zr18	Zr	0.515034	0.758683	0.081193
O19	O	0.806591	0.728398	0.050896
O20	O	0.806601	0.728387	-0.180080
O21	O	0.806581	0.497432	0.050905
O22	O	0.548355	0.857512	0.180016
O23	O	0.548365	0.857500	-0.050961
O24	O	0.548346	0.626545	0.180024
O25	O	0.677483	0.857505	-0.050962
O26	O	0.677468	0.728400	0.180020
O27	O	0.677463	0.626550	0.180023
O28	O	0.677479	0.857510	0.050892
O29	O	0.908447	0.626541	-0.180077
O30	O	0.446500	0.728391	0.180021
O31	O	0.446505	0.857508	0.180016
O32	O	0.446511	0.857502	0.050894
O33	O	0.908436	0.497430	-0.050950
O34	O	0.908441	0.626547	-0.050955
O35	O	0.601460	0.715474	0.113990
O36	O	0.601467	0.791479	0.037974
O37	O	0.753486	0.715472	-0.038036
O38	O	0.753480	0.639466	0.037979
C39	C	0.474286	0.677458	-0.000027
C40	C	0.405326	0.677456	-0.000027
C41	C	-0.017979	0.717151	-0.039707
C42	C	0.046822	0.717146	-0.039710
C43	C	0.079215	0.677469	-0.000031
C44	C	0.046811	0.637789	0.039648
C45	C	-0.017984	0.637791	0.039646
C46	C	0.308122	0.637781	0.039655
C47	C	0.372920	0.637785	0.039656
C48	C	0.372927	0.717136	-0.039701
C49	C	0.308132	0.717138	-0.039703
C50	C	0.275737	0.677455	-0.000028
C51	C	0.205475	0.677460	-0.000026
C52	C	0.149472	0.677468	-0.000028
C53	C	0.677464	0.474280	-0.000021
C54	C	0.677461	0.405321	-0.000018
C55	C	0.598109	0.412596	0.039656
C56	C	0.598112	0.347799	0.039656
C57	C	0.677467	0.275727	-0.000022
C58	C	0.756825	0.268452	-0.039697
C59	C	0.756822	0.333249	-0.039693
C60	C	0.756841	0.007134	-0.039714
C61	C	0.756838	-0.057664	-0.039717
C62	C	0.598130	0.021684	0.039635
C63	C	0.598127	0.086481	0.039640
C64	C	0.677485	0.079201	-0.000032
C65	C	0.677481	0.149462	-0.000031
C66	C	0.677472	0.205466	-0.000028
C67	C	0.880660	0.677474	-0.000029
C68	C	0.949620	0.677476	-0.000030
C69	C	0.677482	0.677456	-0.203223
C70	C	0.677485	0.677452	-0.272185
C71	C	0.677482	0.880652	-0.000036
C72	C	0.677485	0.949611	-0.000038
C73	C	0.756837	0.637777	-0.344261
C74	C	0.756834	0.637783	-0.409055
C75	C	0.677479	0.677461	-0.401773
C76	C	0.598121	0.717142	-0.329690
C77	C	0.598124	0.717139	-0.264897
C78	C	0.598106	0.717154	-0.590993
C79	C	0.598109	0.717151	-0.655794
C80	C	0.756816	0.637798	-0.735152
C81	C	0.756819	0.637795	-0.670358
C82	C	0.677462	0.677479	-0.598281
C83	C	0.677465	0.677472	-0.528024
C84	C	0.677475	0.677464	-0.472029
C85	C	0.677464	0.677476	0.203166
C86	C	0.677461	0.677480	0.272129
C87	C	0.474295	0.880644	-0.000034
C88	C	0.405338	0.949601	-0.000037
C89	C	0.474277	0.677469	0.203168
C90	C	0.405315	0.677469	0.272130
C91	C	0.474286	0.880654	0.203160
C92	C	0.405326	0.949615	0.272120
C93	C	0.880660	0.474277	-0.203216
C94	C	0.949620	0.405317	-0.272177
C95	C	0.880651	0.474288	-0.000022
C96	C	0.949608	0.405331	-0.000020
C97	C	0.880669	0.677463	-0.203224
C98	C	0.949632	0.677462	-0.272187
C99	C	0.372955	0.942306	-0.039721
C100	C	0.308172	1.007092	-0.039738
C101	C	0.275768	1.079172	-0.000066
C102	C	0.308158	1.086466	0.039619
C103	C	0.372944	1.021681	0.039632
C104	C	0.372929	0.717148	0.344199
C105	C	0.308140	0.717146	0.409003
C106	C	0.275734	0.677469	0.401737
C107	C	0.308126	0.637786	0.329660
C108	C	0.372918	0.637784	0.264858
C109	C	0.372946	1.021680	0.264826
C110	C	0.308160	1.086482	0.329615
C111	C	0.275751	1.079217	0.401698
C112	C	0.308138	1.007144	0.408992
C113	C	0.372928	0.942344	0.344203
C114	C	0.982009	0.333252	-0.264882
C115	C	1.046815	0.268450	-0.329671
C116	C	1.079227	0.275715	-0.401755
C117	C	1.046835	0.347788	-0.409048
C118	C	0.982035	0.412588	-0.344259
C119	C	0.981998	0.412626	0.039658
C120	C	1.046799	0.347840	0.039657
C121	C	1.079205	0.275759	-0.000017
C122	C	1.046813	0.268466	-0.039700
C123	C	0.982017	0.333251	-0.039703
C124	C	0.982017	0.717147	-0.264896
C125	C	1.046807	0.717161	-0.329688
C126	C	1.079213	0.677485	-0.401769
C127	C	1.046821	0.637800	-0.409058
C128	C	0.982029	0.637791	-0.344267
H129	H	0.281756	0.749449	-0.072011
Cl130	Cl	1.087503	0.357027	0.089551
Cl131	Cl	0.498363	0.767028	-0.174285
Cl132	Cl	0.498359	0.767024	-0.320535
Cl133	Cl	1.087520	0.767050	-0.320506
H134	H	0.399307	0.749458	0.350130
Cl135	Cl	0.413618	0.587902	0.174260
H136	H	1.073233	0.353695	-0.467746
Cl137	Cl	0.267454	1.177078	0.320429
H138	H	1.131972	0.677499	-0.454520
Cl139	Cl	1.160662	0.194322	-0.000004
Cl140	Cl	0.267429	0.767041	0.499604
Cl141	Cl	0.941331	0.587888	-0.353446
H142	H	1.131991	0.222945	-0.454503
Cl143	Cl	1.087579	0.587918	-0.499681
H144	H	-0.044353	0.749464	-0.072015
H145	H	0.223014	1.131919	-0.000082
H146	H	0.073203	0.749451	-0.072020
H147	H	-0.044362	0.605482	0.071954
H148	H	0.399313	0.749445	-0.072010
Cl149	Cl	0.856604	0.587892	-0.353425
Cl150	Cl	0.498365	0.030833	0.089513
Cl151	Cl	0.267464	0.997905	-0.089628
H152	H	0.955622	0.327322	-0.206194
Cl153	Cl	0.498340	0.767037	-0.646635
H154	H	0.533496	0.353730	0.071964
H155	H	0.955664	0.471265	-0.350208
H156	H	0.281751	0.605472	0.071964
Cl157	Cl	0.413681	0.851698	-0.089604
H158	H	0.281731	0.605482	0.323755
H159	H	0.399295	0.605471	0.071967
H160	H	0.222976	0.677477	0.454509
H161	H	0.399302	1.027631	0.071952
H162	H	0.821451	0.605477	-0.467740
Cl163	Cl	0.941277	0.503234	0.089536
Cl164	Cl	0.087538	0.587907	0.089528
H165	H	0.399323	1.027610	0.206138
H166	H	0.533489	0.471278	0.071970
H167	H	0.533508	0.145163	0.071947
H168	H	0.821462	-0.116350	-0.072029
H169	H	1.073208	0.209769	-0.072001
H170	H	0.955647	0.327301	-0.072011
H171	H	0.821438	0.209765	-0.071999
Cl172	Cl	0.856583	0.324100	-0.089568
Cl173	Cl	0.856605	-0.002026	-0.089590
H174	H	0.821438	0.605482	-0.676295
H175	H	0.821433	0.605488	-0.793847
H176	H	0.533488	0.749467	-0.532313
H177	H	0.955642	0.749455	-0.206209
Cl178	Cl	0.194299	1.160688	0.483141
H179	H	0.281742	1.001239	0.467690
H180	H	0.281765	1.145163	0.071919
H181	H	0.399284	0.883667	0.350153
H182	H	1.073177	0.209771	-0.323718
