data_functionalizedCrystal
_audit_creation_method	'MofGen! by Chris Wilmer'
_symmetry_space_group_name_H-M	'P1'
_symmetry_Int_Tables_number	1
_symmetry_cell_setting	triclinic
loop_
_symmetry_equiv_pos_as_xyz
  x,y,z
_cell_length_a	16.120490
_cell_length_b	18.050590
_cell_length_c	18.050582
_cell_angle_alpha	89.976663
_cell_angle_beta	87.089789
_cell_angle_gamma	87.110849
loop_
_atom_site_label
_atom_site_type_symbol
_atom_site_fract_x
_atom_site_fract_y
_atom_site_fract_z
Zn1	Zn	1.274541	-0.353423	-0.477380
Zn2	Zn	1.774541	0.146577	0.022620
Zn3	Zn	1.274464	-0.477603	-0.353185
Zn4	Zn	1.774464	0.022397	0.146815
Zn5	Zn	1.135135	-0.347122	-0.346918
Zn6	Zn	1.635135	0.152878	0.153082
Zn7	Zn	1.135100	-0.471262	-0.471049
Zn8	Zn	1.635100	0.028738	0.028951
O9	O	1.204810	-0.412353	-0.412133
O10	O	1.704810	0.087647	0.087867
O11	O	1.391197	-0.375187	-0.466177
O12	O	1.891197	0.124813	0.033823
O13	O	1.255964	-0.460311	-0.248428
O14	O	1.755964	0.039689	0.251572
O15	O	1.153674	-0.244036	-0.364251
O16	O	1.653674	0.255964	0.135749
O17	O	1.391141	-0.466422	-0.374932
O18	O	1.891141	0.033578	0.125068
O19	O	1.256095	-0.248665	-0.460101
O20	O	1.756095	0.251335	0.039899
O21	O	1.153600	-0.364448	-0.243824
O22	O	1.653600	0.135552	0.256176
O23	O	1.018464	-0.358298	-0.358112
O24	O	1.518464	0.141702	0.141888
O25	O	1.153615	-0.455613	-0.575814
O26	O	1.653615	0.044387	-0.075814
O27	O	1.018439	-0.449503	-0.449311
O28	O	1.518439	0.050497	0.050689
O29	O	1.256061	-0.369038	-0.580465
O30	O	1.756061	0.130962	-0.080465
O31	O	1.255931	-0.580684	-0.368793
O32	O	1.755931	-0.080684	0.131207
O33	O	1.153540	-0.576025	-0.455387
O34	O	1.653540	-0.076025	0.044613
C35	C	0.988201	-0.402529	-0.402345
C36	C	1.488201	0.097471	0.097655
C37	C	0.895535	-0.398345	-0.398175
C38	C	1.395535	0.101655	0.101825
C39	C	0.684594	-0.434053	-0.433763
C40	C	1.184594	0.065947	0.066237
C41	C	0.725878	-0.390712	-0.390561
C42	C	1.225878	0.109288	0.109439
C43	C	0.820284	-0.394960	-0.394799
C44	C	1.320284	0.105040	0.105201
C45	C	0.590179	-0.429805	-0.429527
C46	C	1.090179	0.070195	0.070473
C47	C	1.204746	-0.605302	-0.412100
C48	C	1.704746	-0.105302	0.087900
C49	C	1.204795	-0.687850	-0.412115
C50	C	1.704795	-0.187850	0.087885
C51	C	1.260591	-0.889812	-0.365099
C52	C	1.760591	-0.389812	0.134901
C53	C	1.280950	-0.940073	-0.433797
C54	C	1.780950	-0.440073	0.066203
C55	C	1.204842	-0.838982	-0.412147
C56	C	1.704842	-0.338982	0.087853
C57	C	1.184568	-0.935807	-0.343483
C58	C	1.684568	-0.435807	0.156517
C59	C	1.204890	-0.984969	-0.412171
C60	C	1.704890	-0.484969	0.087829
C61	C	1.225240	-0.888157	-0.480882
C62	C	1.725240	-0.388157	0.019118
C63	C	1.128823	-0.883886	-0.390520
C64	C	1.628823	-0.383886	0.109480
C65	C	1.149154	-0.934123	-0.459264
C66	C	1.649154	-0.434123	0.040736
C67	C	1.204817	-0.754883	-0.412131
C68	C	1.704817	-0.254883	0.087869
C69	C	1.204915	-1.069067	-0.412194
C70	C	1.704915	-0.569067	0.087806
C71	C	1.422265	-0.422215	-0.421960
C72	C	1.922265	0.077785	0.078040
C73	C	1.514931	-0.426417	-0.426147
C74	C	2.014931	0.073583	0.073853
C75	C	1.204843	-0.412321	-0.605840
C76	C	1.704843	0.087679	-0.105840
C77	C	1.204857	-0.412308	-0.688386
C78	C	1.704857	0.087692	-0.188386
C79	C	1.204897	-0.218651	-0.412183
C80	C	1.704897	0.281349	0.087817
C81	C	1.204934	-0.136107	-0.412204
C82	C	1.704934	0.363893	0.087796
C83	C	1.149189	-0.459321	-0.885310
C84	C	1.649189	0.040679	-0.385310
C85	C	1.225255	-0.480920	-0.938131
C86	C	1.725255	0.019080	-0.438131
C87	C	1.204898	-0.412253	-0.839519
C88	C	1.704898	0.087747	-0.339519
C89	C	1.128874	-0.390636	-0.933781
C90	C	1.628874	0.109364	-0.433781
C91	C	1.204931	-0.412201	-0.985505
C92	C	1.704931	0.087799	-0.485505
C93	C	1.281004	-0.433888	-0.891254
C94	C	1.781004	0.066112	-0.391254
C95	C	1.184571	-0.343571	-0.886898
C96	C	1.684571	0.156429	-0.386898
C97	C	1.260690	-0.365146	-0.939699
C98	C	1.760690	0.134854	-0.439699
C99	C	1.204878	-0.412285	-0.755420
C100	C	1.704878	0.087715	-0.255420
C101	C	1.204960	-0.412170	-1.069603
C102	C	1.704960	0.087830	-0.569603
C103	C	1.204826	-0.412333	-0.219181
C104	C	1.704826	0.087667	0.280819
C105	C	1.204973	-0.412144	-0.136643
C106	C	1.704973	0.087856	0.363357
H107	H	0.720148	-0.474346	-0.473929
H108	H	1.220148	0.025654	0.026071
H109	H	1.307751	-0.870276	-0.325357
H110	H	1.807751	-0.370276	0.174643
Cl111	Cl	1.251874	-0.855947	-0.570580
Cl112	Cl	1.751874	-0.355947	-0.070580
Cl113	Cl	0.670985	-0.328501	-0.328538
Cl114	Cl	1.170985	0.171499	0.171462
Cl115	Cl	1.157963	-0.253952	-0.852169
Cl116	Cl	1.657963	0.246048	-0.352169
H117	H	1.345257	-0.964642	-0.452104
H118	H	1.845257	-0.464642	0.047896
Cl119	Cl	1.076397	-0.964081	-0.520779
Cl120	Cl	1.576397	-0.464081	-0.020779
Cl121	Cl	1.029562	-0.845932	-0.362229
Cl122	Cl	1.529562	-0.345932	0.137771
H123	H	1.167401	-0.956769	-0.285404
H124	H	1.667401	-0.456769	0.214596
H125	H	1.102122	-0.499183	-0.861514
H126	H	1.602122	0.000817	-0.361514
H127	H	1.242467	-0.538981	-0.960605
H128	H	1.742467	-0.038981	-0.460605
H129	H	1.307869	-0.325322	-0.963364
H130	H	1.807869	0.174678	-0.463364
Cl131	Cl	1.380315	-0.462193	-0.862384
Cl132	Cl	1.880315	0.037807	-0.362384
H133	H	1.064567	-0.372375	-0.952576
H134	H	1.564567	0.127625	-0.452576
