data_functionalizedCrystal
_audit_creation_method	'MofGen! by Chris Wilmer'
_symmetry_space_group_name_H-M	'P1'
_symmetry_Int_Tables_number	1
_symmetry_cell_setting	triclinic
loop_
_symmetry_equiv_pos_as_xyz
  x,y,z
_cell_length_a	17.640280
_cell_length_b	17.639504
_cell_length_c	16.959447
_cell_angle_alpha	101.237346
_cell_angle_beta	78.773258
_cell_angle_gamma	92.181381
loop_
_atom_site_label
_atom_site_type_symbol
_atom_site_fract_x
_atom_site_fract_y
_atom_site_fract_z
Zn1	Zn	-0.067982	-1.222232	-0.680738
Zn2	Zn	0.432018	-0.722232	-0.180738
Zn3	Zn	-0.194997	-1.247854	-0.528101
Zn4	Zn	0.305003	-0.747854	-0.028101
Zn5	Zn	-0.093643	-1.095242	-0.517673
Zn6	Zn	0.406357	-0.595242	-0.017673
Zn7	Zn	-0.220569	-1.120889	-0.629360
Zn8	Zn	0.279431	-0.620889	-0.129360
O9	O	-0.144297	-1.171554	-0.588968
O10	O	0.355703	-0.671554	-0.088968
O11	O	-0.063390	-1.331912	-0.686357
O12	O	0.436610	-0.831912	-0.186357
O13	O	-0.181589	-1.227600	-0.416097
O14	O	0.318411	-0.727600	0.083903
O15	O	0.016037	-1.090631	-0.556441
O16	O	0.516037	-0.590631	-0.056441
O17	O	-0.156707	-1.350736	-0.574215
O18	O	0.343293	-0.850736	-0.074215
O19	O	0.034889	-1.183930	-0.676245
O20	O	0.534889	-0.683930	-0.176245
O21	O	-0.107125	-1.115476	-0.408436
O22	O	0.392875	-0.615476	0.091564
O23	O	-0.131921	-0.992363	-0.506622
O24	O	0.368079	-0.492363	-0.006622
O25	O	-0.200291	-1.134342	-0.746796
O26	O	0.299709	-0.634342	-0.246796
O27	O	-0.225173	-1.011206	-0.588678
O28	O	0.274827	-0.511206	-0.088678
O29	O	-0.088186	-1.208799	-0.784543
O30	O	0.411814	-0.708799	-0.284543
O31	O	-0.304664	-1.252468	-0.524396
O32	O	0.195336	-0.752468	-0.024396
O33	O	-0.323452	-1.159187	-0.598790
O34	O	0.176548	-0.659187	-0.098790
C35	C	-0.184107	-0.974227	-0.540944
C36	C	0.315893	-0.474227	-0.040944
C37	C	-0.201155	-0.889813	-0.520414
C38	C	0.298845	-0.389813	-0.020414
C39	C	-0.014708	-0.563236	-0.745119
C40	C	0.485292	-0.063236	-0.245119
C41	C	-0.030747	-0.483921	-0.725810
C42	C	0.469253	0.016079	-0.225810
C43	C	-0.127757	-0.503512	-0.608917
C44	C	0.372243	-0.003512	-0.108917
C45	C	-0.111729	-0.582832	-0.628219
C46	C	0.388271	-0.082832	-0.128219
C47	C	-0.055203	-0.612687	-0.696320
C48	C	0.444797	-0.112687	-0.196320
C49	C	-0.152224	-0.632282	-0.579420
C50	C	0.347776	-0.132282	-0.079420
C51	C	-0.136194	-0.711594	-0.598718
C52	C	0.363806	-0.211594	-0.098718
C53	C	-0.079669	-0.741456	-0.666815
C54	C	0.420331	-0.241456	-0.166815
C55	C	-0.039173	-0.691999	-0.715619
C56	C	0.460827	-0.191999	-0.215619
C57	C	-0.208746	-0.602425	-0.511316
C58	C	0.291254	-0.102425	-0.011316
C59	C	-0.249241	-0.651875	-0.462517
C60	C	0.250759	-0.151875	0.037483
C61	C	-0.233215	-0.731189	-0.481818
C62	C	0.266785	-0.231189	0.018182
C63	C	-0.176690	-0.761051	-0.549915
C64	C	0.323310	-0.261051	-0.049915
C65	C	-0.273711	-0.780646	-0.433015
C66	C	0.226289	-0.280646	0.066985
C67	C	-0.257681	-0.859958	-0.452313
C68	C	0.242319	-0.359958	0.047687
C69	C	-0.160660	-0.840363	-0.569213
C70	C	0.339340	-0.340363	-0.069213
C71	C	-0.341610	-1.211412	-0.557172
C72	C	0.158390	-0.711412	-0.057172
C73	C	-0.426007	-1.228532	-0.543612
C74	C	0.073993	-0.728532	-0.043612
C75	C	-0.752665	-1.041802	-0.692339
C76	C	-0.252665	-0.541802	-0.192339
C77	C	-0.831969	-1.057891	-0.679573
C78	C	-0.331969	-0.557891	-0.179573
C79	C	-0.812328	-1.155085	-0.602224
C80	C	-0.312328	-0.655085	-0.102224
C81	C	-0.733020	-1.139006	-0.614986
C82	C	-0.233020	-0.639006	-0.114986
C83	C	-0.703196	-1.082364	-0.660044
C84	C	-0.203196	-0.582364	-0.160044
C85	C	-0.683551	-1.179568	-0.582691
C86	C	-0.183551	-0.679568	-0.082691
C87	C	-0.604251	-1.163488	-0.595449
C88	C	-0.104251	-0.663488	-0.095449
C89	C	-0.574421	-1.106846	-0.640503
C90	C	-0.074421	-0.606846	-0.140503
C91	C	-0.623896	-1.066284	-0.672802
C92	C	-0.123896	-0.566284	-0.172802
C93	C	-0.713378	-1.236207	-0.537628
C94	C	-0.213378	-0.736207	-0.037628
C95	C	-0.663908	-1.276768	-0.505333
C96	C	-0.163908	-0.776768	-0.005333
C97	C	-0.584606	-1.260692	-0.518096
C98	C	-0.084606	-0.760692	-0.018096
C99	C	-0.554776	-1.204051	-0.563150
C100	C	-0.054776	-0.704051	-0.063150
C101	C	-0.535131	-1.301255	-0.485797
C102	C	-0.035131	-0.801255	0.014203
C103	C	-0.455831	-1.285175	-0.498555
C104	C	0.044169	-0.785175	0.001445
C105	C	-0.475476	-1.187971	-0.575908
C106	C	0.024524	-0.687971	-0.075908
C107	C	0.053789	-1.131562	-0.620911
C108	C	0.553789	-0.631562	-0.120911
C109	C	0.138202	-1.114519	-0.634523
C110	C	0.638202	-0.614519	-0.134523
C111	C	-0.144228	-1.171573	-0.795154
C112	C	0.355772	-0.671573	-0.295154
C113	C	-0.144199	-1.171581	-0.883018
C114	C	0.355801	-0.671581	-0.383018
C115	C	-0.104322	-0.369650	-0.637179
C116	C	0.395678	0.130350	-0.137179
C117	C	-0.087259	-0.454061	-0.657721
C118	C	0.412741	0.045939	-0.157721
C119	C	-0.202468	-1.132890	-1.234878
C120	C	0.297532	-0.632890	-0.734878
C121	C	-0.085733	-1.210422	-1.274180
C122	C	0.414267	-0.710422	-0.774180
C123	C	-0.085753	-1.210405	-1.191626
C124	C	0.414247	-0.710405	-0.691626
C125	C	-0.144132	-1.171631	-1.130695
C126	C	0.355868	-0.671631	-0.630695
C127	C	-0.202491	-1.132874	-1.152317
C128	C	0.297509	-0.632874	-0.652317
C129	C	-0.027399	-1.249168	-1.169998
C130	C	0.472601	-0.749168	-0.669998
C131	C	-0.027417	-1.249153	-1.087441
C132	C	0.472583	-0.749153	-0.587441
C133	C	-0.085794	-1.210374	-1.026507
C134	C	0.414206	-0.710374	-0.526507
C135	C	-0.144155	-1.171614	-1.048133
C136	C	0.355845	-0.671614	-0.548133
C137	C	-0.202535	-1.132840	-0.987202
C138	C	0.297465	-0.632840	-0.487202
C139	C	-0.260894	-1.094076	-1.008826
C140	C	0.239106	-0.594076	-0.508826
C141	C	-0.260868	-1.094094	-1.091383
C142	C	0.239132	-0.594094	-0.591383
C143	C	-0.085819	-1.210355	-0.943950
C144	C	0.414181	-0.710355	-0.443950
C145	C	-0.202558	-1.132824	-0.904640
C146	C	0.297442	-0.632824	-0.404640
C147	C	-0.144303	-1.171568	-0.383603
C148	C	0.355697	-0.671568	0.116397
C149	C	-0.144089	-1.171664	-0.295810
C150	C	0.355911	-0.671664	0.204190
H151	H	-0.295262	-0.627555	-0.407067
H152	H	0.204738	-0.127555	0.092933
H153	H	-0.114634	-0.864673	-0.624671
H154	H	0.385366	-0.364673	-0.124671
H155	H	-0.038306	-1.241919	-0.926347
H156	H	0.461694	-0.741919	-0.426347
H157	H	0.002237	-0.443658	-0.765549
H158	H	0.502237	0.056342	-0.265549
H159	H	-0.173779	-0.479192	-0.553467
H160	H	0.326221	0.020808	-0.053467
H161	H	-0.451191	-1.141852	-0.612606
H162	H	0.048809	-0.641852	-0.112606
Cl163	Cl	-0.344761	-0.743102	-0.347398
Cl164	Cl	0.155239	-0.243102	0.152602
Cl165	Cl	-0.334230	-1.045372	-1.118575
Cl166	Cl	0.165770	-0.545372	-0.618575
H167	H	0.006853	-0.716309	-0.771076
H168	H	0.506853	-0.216309	-0.271076
H169	H	0.031318	-0.587546	-0.800577
H170	H	0.531318	-0.087546	-0.300577
Cl171	Cl	-0.308597	-0.922130	-0.390972
Cl172	Cl	0.191403	-0.422130	0.109028
H173	H	-0.308429	-1.062510	-0.959205
H174	H	0.191571	-0.562510	-0.459205
Cl175	Cl	-0.715164	-0.970600	-0.748994
Cl176	Cl	-0.215164	-0.470600	-0.248994
H177	H	-0.872244	-1.024865	-0.705887
H178	H	-0.372244	-0.524865	-0.205887
Cl179	Cl	-0.849829	-1.226292	-0.545584
Cl180	Cl	-0.349829	-0.726292	-0.045584
H181	H	-0.221779	-0.537840	-0.495591
H182	H	0.278221	-0.037840	0.004409
H183	H	0.020127	-1.280741	-1.219614
H184	H	0.520127	-0.780741	-0.719614
H185	H	-0.509850	-1.093750	-0.650883
H186	H	-0.009850	-0.593750	-0.150883
H187	H	-0.250093	-1.101241	-0.855032
H188	H	0.249907	-0.601241	-0.355032
H189	H	-0.599611	-1.020165	-0.709500
H190	H	-0.099611	-0.520165	-0.209500
H191	H	-0.777949	-1.249299	-0.527245
H192	H	-0.277949	-0.749299	-0.027245
H193	H	-0.688203	-1.322885	-0.468644
H194	H	-0.188203	-0.822885	0.031356
Cl195	Cl	-0.275828	-1.084157	-1.262061
Cl196	Cl	0.224172	-0.584157	-0.762061
Cl197	Cl	-0.572636	-1.372455	-0.429149
Cl198	Cl	-0.072636	-0.872455	0.070851
H199	H	-0.038206	-1.241995	-1.323795
H200	H	0.461794	-0.741995	-0.823795
H201	H	-0.415552	-1.318204	-0.472255
H202	H	0.084448	-0.818204	0.027745
H203	H	-0.066616	-0.806036	-0.682524
H204	H	0.433384	-0.306036	-0.182524
Cl205	Cl	0.045949	-1.297881	-1.060263
Cl206	Cl	0.545949	-0.797881	-0.560263
