data_functionalizedCrystal
_audit_creation_method	'MofGen! by Chris Wilmer'
_symmetry_space_group_name_H-M	'P1'
_symmetry_Int_Tables_number	1
_symmetry_cell_setting	triclinic
loop_
_symmetry_equiv_pos_as_xyz
  x,y,z
_cell_length_a	6.817900
_cell_length_b	17.458011
_cell_length_c	9.514088
_cell_angle_alpha	90.061718
_cell_angle_beta	118.843545
_cell_angle_gamma	106.367272
loop_
_atom_site_label
_atom_site_type_symbol
_atom_site_fract_x
_atom_site_fract_y
_atom_site_fract_z
V1	V	-4.233184	-0.111987	-0.502203
O2	O	-4.200812	0.003924	-0.491160
O3	O	-4.198635	-0.220649	-0.500194
O4	O	-4.267810	-0.110904	-0.720580
O5	O	-4.131158	-0.106581	-0.269249
V6	V	-4.704259	-0.098047	-0.474166
O7	O	-4.521749	-0.142565	-0.563703
O8	O	-4.865892	-0.067469	-0.412666
O9	O	-4.515601	0.010615	-0.476175
O10	O	-4.854028	-0.213957	-0.485209
O11	O	-4.923682	-0.103453	-0.707120
O12	O	-4.446426	-0.099130	-0.255789
C13	C	-4.044320	-0.247118	-0.492640
C14	C	-4.097912	-0.335955	-0.492453
C15	C	-4.132557	-0.107127	-0.773762
C16	C	-4.242242	-0.106960	-0.952295
C17	C	-4.419467	-0.836438	-0.492088
C18	C	-4.369110	-0.752968	-0.492284
C19	C	-4.158200	-0.707146	-0.484326
C20	C	-3.997626	-0.744796	-0.476155
C21	C	-4.047976	-0.828264	-0.475947
C22	C	-3.987689	-0.457074	-0.484074
C23	C	-3.937352	-0.373601	-0.484287
C24	C	-4.308839	-0.381778	-0.500414
C25	C	-4.359180	-0.465248	-0.500214
C26	C	-4.198597	-0.502890	-0.492035
N27	N	-4.106725	-0.621826	-0.484532
N28	N	-4.250065	-0.588208	-0.491817
C29	C	-4.333258	0.037080	-0.483725
C30	C	-4.258908	0.125916	-0.483922
C31	C	-4.245019	-0.102910	-0.202599
C32	C	-4.114571	-0.103072	-0.024063
H33	H	-4.499863	-0.722322	-0.498940
H34	H	-4.530922	-0.502551	-0.506696
O35	O	-4.472891	-0.110925	-1.041914
C36	C	-4.617118	-0.182993	-1.028714
H37	H	-4.519396	-0.229332	-0.993543
H38	H	-4.787925	-0.208069	-1.150461
H39	H	-4.660662	-0.169856	-0.931467
H40	H	-4.591215	-0.873742	-0.498577
H41	H	-4.439569	-0.351120	-0.507070
O42	O	-3.732680	-0.329078	-0.476844
C43	C	-3.785500	-0.291794	-0.616355
H44	H	-3.971110	-0.327136	-0.718637
H45	H	-3.651886	-0.291010	-0.656179
H46	H	-3.776215	-0.227090	-0.587063
H47	H	-3.921359	-0.099878	-0.948926
H48	H	-3.856912	-0.487710	-0.477394
O49	O	-3.792681	-0.700184	-0.468215
C50	C	-3.659359	-0.640416	-0.327950
H51	H	-3.782054	-0.627708	-0.288342
H52	H	-3.566279	-0.582524	-0.356152
H53	H	-3.521940	-0.662686	-0.225938
O54	O	-3.891685	-0.864728	-0.467795
C55	C	-3.673356	-0.830607	-0.323035
H56	H	-3.658589	-0.767413	-0.278848
H57	H	-3.522641	-0.826546	-0.347124
H58	H	-3.662286	-0.870268	-0.226080
