data_functionalizedCrystal
_audit_creation_method	'MofGen! by Chris Wilmer'
_symmetry_space_group_name_H-M	'P1'
_symmetry_Int_Tables_number	1
_symmetry_cell_setting	triclinic
loop_
_symmetry_equiv_pos_as_xyz
  x,y,z
_cell_length_a	21.395362
_cell_length_b	12.594516
_cell_length_c	21.395356
_cell_angle_alpha	89.979423
_cell_angle_beta	89.957023
_cell_angle_gamma	90.031933
loop_
_atom_site_label
_atom_site_type_symbol
_atom_site_fract_x
_atom_site_fract_y
_atom_site_fract_z
Zn1	Zn	0.957917	-0.423318	-0.354617
Zn2	Zn	1.457917	0.076682	0.145383
Zn3	Zn	0.957848	-0.601311	-0.249852
Zn4	Zn	1.457848	-0.101311	0.250148
Zn5	Zn	0.853134	-0.423396	-0.249818
Zn6	Zn	1.353134	0.076604	0.250182
Zn7	Zn	0.853128	-0.601304	-0.354557
Zn8	Zn	1.353128	-0.101304	0.145443
O9	O	0.905507	-0.512332	-0.302211
O10	O	1.405507	-0.012332	0.197789
O11	O	1.045586	-0.446899	-0.340759
O12	O	1.545586	0.053101	0.159241
O13	O	0.943931	-0.577745	-0.162170
O14	O	1.443931	-0.077745	0.337830
O15	O	0.867065	-0.274440	-0.263730
O16	O	1.367065	0.225560	0.236270
O17	O	1.045535	-0.577670	-0.263789
O18	O	1.545535	-0.077670	0.236211
O19	O	0.944049	-0.274382	-0.340725
O20	O	1.444049	0.225618	0.159275
O21	O	0.866998	-0.447032	-0.162144
O22	O	1.366998	0.052968	0.337856
O23	O	0.765455	-0.447026	-0.263672
O24	O	1.265455	0.052974	0.236328
O25	O	0.867055	-0.577658	-0.442243
O26	O	1.367055	-0.077658	0.057757
O27	O	0.765451	-0.577734	-0.340624
O28	O	1.265451	-0.077734	0.159376
O29	O	0.944043	-0.446893	-0.442287
O30	O	1.444043	0.053107	0.057713
O31	O	0.943926	-0.750256	-0.263731
O32	O	1.443926	-0.250256	0.236269
O33	O	0.866988	-0.750251	-0.340657
O34	O	1.366988	-0.250251	0.159343
C35	C	0.742719	-0.512388	-0.302138
C36	C	1.242719	-0.012388	0.197862
C37	C	0.673078	-0.512438	-0.302122
C38	C	1.173078	-0.012438	0.197878
C39	C	0.905466	-0.788873	-0.302205
C40	C	1.405466	-0.288873	0.197795
C41	C	0.905506	-0.907179	-0.302223
C42	C	1.405506	-0.407179	0.197777
C43	C	0.640379	-0.580588	-0.342130
C44	C	1.140379	-0.080588	0.157870
C45	C	0.574944	-0.580562	-0.342158
C46	C	1.074944	-0.080562	0.157842
C47	C	0.542210	-0.512397	-0.302167
C48	C	1.042210	-0.012397	0.197833
C49	C	0.574917	-0.444234	-0.262155
C50	C	1.074917	0.055766	0.237845
C51	C	0.640351	-0.444254	-0.262133
C52	C	1.140351	0.055746	0.237867
C53	C	0.438485	-0.503838	-0.245761
C54	C	0.938485	-0.003838	0.254239
C55	C	0.373052	-0.503825	-0.245782
C56	C	0.873052	-0.003825	0.254218
C57	C	0.340389	-0.512328	-0.302236
C58	C	0.840389	-0.012328	0.197764
C59	C	0.373167	-0.520866	-0.358670
C60	C	0.873167	-0.020866	0.141330
C61	C	0.438602	-0.520886	-0.358648
C62	C	0.938602	-0.020886	0.141352
C63	C	0.471257	-0.512367	-0.302187
C64	C	0.971257	-0.012367	0.197813
C65	C	0.236738	-0.580453	-0.342278
C66	C	0.736738	-0.080453	0.157722
C67	C	0.171301	-0.580420	-0.342307
C68	C	0.671301	-0.080420	0.157693
C69	C	0.171275	-0.444097	-0.262298
C70	C	0.671275	0.055903	0.237702
C71	C	0.236710	-0.444125	-0.262275
C72	C	0.736710	0.055875	0.237725
C73	C	0.269438	-0.512309	-0.302264
C74	C	0.769438	-0.012309	0.197736
C75	C	0.863655	-0.976468	-0.344034
C76	C	1.363655	-0.476468	0.155966
C77	C	0.848387	-1.047331	-0.286856
C78	C	1.348387	-0.547331	0.213144
C79	C	0.920831	-1.047114	-0.359410
C80	C	1.420831	-0.547114	0.140590
C81	C	0.890207	-0.976483	-0.245015
C82	C	1.390207	-0.476483	0.254985
C83	C	0.962678	-0.976261	-0.317608
C84	C	1.462678	-0.476261	0.182392
C85	C	0.947431	-1.047092	-0.260391
C86	C	1.447431	-0.547092	0.239609
C87	C	1.068930	-0.512276	-0.302284
C88	C	1.568930	-0.012276	0.197716
C89	C	1.138572	-0.512253	-0.302315
C90	C	1.638572	-0.012253	0.197685
C91	C	0.905556	-0.512266	-0.465634
C92	C	1.405556	-0.012266	0.034366
C93	C	0.905577	-0.512238	-0.535275
C94	C	1.405577	-0.012238	-0.035275
C95	C	0.905565	-0.234711	-0.302231
C96	C	1.405565	0.265289	0.197769
C97	C	0.905590	-0.116406	-0.302239
C98	C	1.405590	0.383594	0.197761
C99	C	0.865529	-0.444168	-0.567966
C100	C	1.365529	0.055832	-0.067966
C101	C	0.865527	-0.444148	-0.633401
C102	C	1.365527	0.055852	-0.133401
C103	C	0.905584	-0.512187	-0.666144
C104	C	1.405584	-0.012187	-0.166144
C105	C	0.945635	-0.580271	-0.633446
C106	C	1.445635	-0.080271	-0.133446
C107	C	0.945632	-0.580296	-0.568012
C108	C	1.445632	-0.080296	-0.068012
C109	C	0.962037	-0.520529	-0.769850
C110	C	1.462037	-0.020529	-0.269850
C111	C	0.962042	-0.520496	-0.835283
C112	C	1.462042	-0.020496	-0.335283
C113	C	0.905595	-0.512115	-0.867965
C114	C	1.405595	-0.012115	-0.367965
C115	C	0.849141	-0.503745	-0.835206
C116	C	1.349141	-0.003745	-0.335206
C117	C	0.849137	-0.503771	-0.769771
C118	C	1.349137	-0.003771	-0.269771
C119	C	0.905592	-0.512168	-0.737096
C120	C	1.405592	-0.012168	-0.237096
C121	C	0.865540	-0.444020	-0.971607
C122	C	1.365540	0.055980	-0.471607
C123	C	0.865537	-0.444008	-1.037044
C124	C	1.365537	0.055992	-0.537044
C125	C	0.945651	-0.580125	-1.037088
C126	C	1.445651	-0.080125	-0.537088
C127	C	0.945649	-0.580143	-0.971652
C128	C	1.445649	-0.080143	-0.471652
C129	C	0.905594	-0.512085	-0.938916
C130	C	1.405594	-0.012085	-0.438916
C131	C	0.905494	-0.512321	-0.139423
C132	C	1.405494	-0.012321	0.360577
C133	C	0.905594	-0.512049	-0.069782
C134	C	1.405594	-0.012049	0.430218
H135	H	0.667022	-0.636107	-0.374694
H136	H	1.167022	-0.136107	0.125306
H137	H	0.548315	-0.636058	-0.374740
H138	H	1.048315	-0.136058	0.125260
Cl139	Cl	0.808919	-0.928583	-0.398545
Cl140	Cl	1.308919	-0.428583	0.101455
Cl141	Cl	0.773796	-1.095524	-0.266769
Cl142	Cl	1.273796	-0.595524	0.233231
Cl143	Cl	1.033010	-0.531030	-0.876459
Cl144	Cl	1.533010	-0.031030	-0.376459
Cl145	Cl	0.815171	-0.358615	-0.526815
Cl146	Cl	1.315171	0.141385	-0.026815
Cl147	Cl	1.002131	-1.094671	-0.205752
Cl148	Cl	1.502131	-0.594671	0.294248
Cl149	Cl	0.870162	-0.928787	-0.170336
Cl150	Cl	1.370162	-0.428787	0.329664
Cl151	Cl	0.815190	-0.358544	-0.674506
Cl152	Cl	1.315190	0.141456	-0.174506
Cl153	Cl	0.130193	-0.666096	-0.392612
Cl154	Cl	0.630193	-0.166096	0.107388
H155	H	0.465073	-0.496909	-0.199786
H156	H	0.965073	0.003091	0.300214
H157	H	0.978247	-0.635726	-0.541396
H158	H	1.478247	-0.135726	-0.041396
Cl159	Cl	0.479806	-0.531613	-0.429590
Cl160	Cl	0.979806	-0.031613	0.070410
Cl161	Cl	1.037249	-0.928028	-0.337720
Cl162	Cl	1.537249	-0.428028	0.162280
H163	H	0.144624	-0.388591	-0.229739
H164	H	0.644624	0.111409	0.270261
H165	H	1.008008	-0.527344	-0.743246
H166	H	1.508008	-0.027344	-0.243246
H167	H	0.666974	-0.388755	-0.229553
H168	H	1.166974	0.111245	0.270447
H169	H	0.933759	-1.078140	-0.407766
H170	H	1.433759	-0.578140	0.092234
Cl171	Cl	0.815184	-0.358470	-0.930450
Cl172	Cl	1.315184	0.141530	-0.430450
H173	H	0.263334	-0.388635	-0.229692
H174	H	0.763334	0.111365	0.270308
H175	H	0.803171	-0.496958	-0.743101
H176	H	1.303171	0.003042	-0.243101
H177	H	0.803176	-0.496914	-0.861814
H178	H	1.303176	0.003086	-0.361814
H179	H	0.548260	-0.388732	-0.229595
H180	H	1.048260	0.111268	0.270405
Cl181	Cl	0.332113	-0.531549	-0.429646
Cl182	Cl	0.832113	-0.031549	0.070354
Cl183	Cl	0.815168	-0.358456	-1.078141
Cl184	Cl	1.315168	0.141544	-0.578141
Cl185	Cl	0.996006	-0.665668	-1.078244
Cl186	Cl	1.496006	-0.165668	-0.578244
Cl187	Cl	0.996003	-0.665714	-0.930554
Cl188	Cl	1.496003	-0.165714	-0.430554
H189	H	0.263386	-0.635967	-0.374843
H190	H	0.763386	-0.135967	0.125157
H191	H	0.346369	-0.496879	-0.199830
H192	H	0.846369	0.003121	0.300170
Cl193	Cl	0.995990	-0.665811	-0.674607
Cl194	Cl	1.495990	-0.165811	-0.174607
