data_functionalizedCrystal
_audit_creation_method	'MofGen! by Chris Wilmer'
_symmetry_space_group_name_H-M	'P1'
_symmetry_Int_Tables_number	1
_symmetry_cell_setting	triclinic
loop_
_symmetry_equiv_pos_as_xyz
  x,y,z
_cell_length_a	15.944551
_cell_length_b	19.188930
_cell_length_c	14.421503
_cell_angle_alpha	89.999163
_cell_angle_beta	89.996859
_cell_angle_gamma	83.321760
loop_
_atom_site_label
_atom_site_type_symbol
_atom_site_fract_x
_atom_site_fract_y
_atom_site_fract_z
O1	O	1.114192	0.090038	-0.077026
O2	O	1.614192	0.590038	0.422974
O3	O	0.869601	0.101140	-0.077050
O4	O	1.369601	0.601140	0.422950
O5	O	0.998955	-0.006048	-0.077019
O6	O	1.498955	0.493952	0.422981
O7	O	0.984838	0.197227	-0.077057
O8	O	1.484838	0.697227	0.422943
O9	O	0.998934	-0.006032	0.077204
O10	O	1.498934	0.493968	0.577204
O11	O	0.869580	0.101156	0.077173
O12	O	1.369580	0.601156	0.577173
O13	O	1.114171	0.090054	0.077198
O14	O	1.614171	0.590054	0.577198
Cu15	Cu	0.991873	0.095607	0.091267
Cu16	Cu	1.491873	0.595607	0.591267
Cu17	Cu	0.991899	0.095588	-0.091120
Cu18	Cu	1.491899	0.595588	0.408880
O19	O	0.984817	0.197243	0.077167
O20	O	1.484817	0.697243	0.577167
C21	C	0.838298	0.100687	0.000059
C22	C	1.338298	0.600687	0.500059
C23	C	0.745057	0.099306	0.000050
C24	C	1.245057	0.599306	0.500050
C25	C	0.530462	0.029563	0.000081
C26	C	1.030462	0.529563	0.500081
C27	C	0.469331	0.061941	-0.075965
C28	C	0.969331	0.561941	0.424035
C29	C	0.574341	0.096806	0.000062
C30	C	1.074341	0.596806	0.500062
C31	C	0.469332	0.061973	0.076087
C32	C	0.969332	0.561973	0.576087
C33	C	0.409437	0.094386	0.000077
C34	C	0.909437	0.594386	0.500077
C35	C	0.514438	0.129203	-0.076047
C36	C	1.014438	0.629203	0.423953
C37	C	0.514446	0.129225	0.076073
C38	C	1.014446	0.629225	0.576073
C39	C	0.453332	0.161652	0.000008
C40	C	0.953332	0.661652	0.500008
C41	C	0.669338	0.098198	0.000052
C42	C	1.169338	0.598198	0.500052
C43	C	0.314441	0.093000	0.000080
C44	C	0.814441	0.593000	0.500080
C45	C	0.998487	-0.032052	0.000095
C46	C	1.498487	0.467948	0.500095
C47	C	0.997115	-0.109560	0.000103
C48	C	1.497115	0.390440	0.500103
C49	C	1.073016	-0.154288	0.000115
C50	C	1.573016	0.345712	0.500115
C51	C	1.071726	-0.227115	0.000100
C52	C	1.571726	0.272885	0.500100
C53	C	0.994532	-0.255211	0.000092
C54	C	1.494532	0.244789	0.500092
C55	C	0.918622	-0.210474	0.000075
C56	C	1.418622	0.289526	0.500075
C57	C	0.919913	-0.137648	0.000080
C58	C	1.419913	0.362352	0.500080
N59	N	0.935519	-0.363364	0.052571
N60	N	1.435519	0.136636	0.552571
N61	N	0.934298	-0.432545	0.052568
N62	N	1.434298	0.067455	0.552568
C63	C	0.990637	-0.474630	0.000073
C64	C	1.490637	0.025370	0.500073
N65	N	1.048256	-0.444921	-0.052407
N66	N	1.548256	0.055079	0.447593
N67	N	1.049480	-0.375733	-0.052400
N68	N	1.549480	0.124267	0.447600
C69	C	0.993123	-0.334178	0.000085
C70	C	1.493123	0.165822	0.500085
C71	C	1.065145	-0.598326	0.000067
C72	C	1.565145	-0.098326	0.500067
C73	C	1.063852	-0.671154	0.000046
C74	C	1.563852	-0.171154	0.500046
C75	C	0.910745	-0.654511	0.000030
C76	C	1.410745	-0.154511	0.500030
C77	C	0.912040	-0.581685	0.000041
C78	C	1.412040	-0.081685	0.500041
C79	C	0.989242	-0.553597	0.000064
C80	C	1.489242	-0.053597	0.500064
C81	C	1.145474	0.090507	0.000087
C82	C	1.645474	0.590507	0.500087
C83	C	1.238715	0.091889	0.000089
C84	C	1.738715	0.591889	0.500089
C85	C	0.985285	0.223247	0.000050
C86	C	1.485285	0.723247	0.500050
C87	C	0.986657	0.300755	0.000036
C88	C	1.486657	0.800755	0.500036
N89	N	0.991862	0.095619	0.219549
N90	N	1.491862	0.595619	0.719549
N91	N	0.991917	0.095569	-0.219401
N92	N	1.491917	0.595569	0.280599
C93	C	0.932038	0.145161	0.469188
C94	C	1.432038	0.645161	0.969188
C95	C	1.007887	0.158716	0.530995
C96	C	1.507887	0.658716	1.030995
C97	C	0.991882	0.095603	0.408710
C98	C	1.491882	0.595603	0.908710
C99	C	0.916052	0.082064	0.530997
C100	C	1.416052	0.582064	1.030997
C101	C	0.991895	0.095588	0.591431
C102	C	1.491895	0.595588	1.091431
C103	C	1.067770	0.109189	0.469157
C104	C	1.567770	0.609189	0.969157
C105	C	0.975885	0.032510	0.469153
C106	C	1.475885	0.532510	0.969153
C107	C	1.051789	0.046038	0.530932
C108	C	1.551789	0.546038	1.030932
C109	C	0.991874	0.095613	0.303449
C110	C	1.491874	0.595613	0.803449
C111	C	0.991913	0.095578	0.696690
C112	C	1.491913	0.595578	1.196690
H113	H	0.534462	0.157649	0.140358
H114	H	1.034462	0.657649	0.640358
C115	C	1.153530	0.124709	0.335560
C116	C	1.653530	0.624709	0.835560
C117	C	1.154345	0.124786	0.432649
C118	C	1.654345	0.624786	0.932649
H119	H	1.206969	0.134360	0.313023
H120	H	1.706969	0.634360	0.813023
H121	H	1.142119	0.080036	0.313858
H122	H	1.642119	0.580036	0.813858
H123	H	1.110958	0.159687	0.313955
H124	H	1.610958	0.659687	0.813955
H125	H	1.196913	0.089804	0.454255
H126	H	1.696913	0.589804	0.954255
H127	H	1.165766	0.169465	0.454360
H128	H	1.665766	0.669465	0.954360
C129	C	1.142984	-0.050046	0.000130
C130	C	1.642984	0.449954	0.500130
C131	C	1.157875	-0.123414	0.000127
C132	C	1.657875	0.376586	0.500127
H133	H	1.195373	-0.030986	0.000140
H134	H	1.695373	0.469014	0.500140
H135	H	1.111755	-0.034696	-0.053651
H136	H	1.611755	0.465304	0.446349
H137	H	1.111735	-0.034699	0.053912
H138	H	1.611735	0.465301	0.553912
H139	H	1.189118	-0.138761	-0.053659
H140	H	1.689118	0.361239	0.446341
H141	H	1.189116	-0.138770	0.053913
H142	H	1.689116	0.361230	0.553913
H143	H	0.855769	-0.233354	0.000066
H144	H	1.355769	0.266646	0.500066
H145	H	1.133536	-0.263540	0.000106
H146	H	1.633536	0.236460	0.500106
H147	H	1.128007	-0.575456	0.000081
H148	H	1.628007	-0.075456	0.500081
H149	H	0.881481	0.187105	0.442078
H150	H	1.381481	0.687105	0.942078
H151	H	1.021430	0.212066	0.558159
H152	H	1.521430	0.712066	1.058159
H153	H	1.102458	0.004119	0.557872
H154	H	1.602458	0.504119	1.057872
C155	C	0.878081	-0.053550	0.463601
C156	C	1.378081	0.446450	0.963601
C157	C	0.957571	-0.039486	0.432441
C158	C	1.457571	0.460514	0.932441
H159	H	0.866768	-0.097995	0.440929
H160	H	1.366768	0.402005	0.940929
H161	H	0.877441	-0.053953	0.529456
H162	H	1.377441	0.446047	1.029456
H163	H	0.836124	-0.018244	0.441536
H164	H	1.336124	0.481756	0.941536
H165	H	0.999530	-0.074789	0.454512
H166	H	1.499530	0.425211	0.954512
H167	H	0.958218	-0.039088	0.366572
H168	H	1.458218	0.460912	0.866572
C169	C	0.759539	-0.630741	0.000011
C170	C	1.259539	-0.130741	0.500011
C171	C	0.825889	-0.685385	0.000017
C172	C	1.325889	-0.185385	0.500017
H173	H	0.707152	-0.649805	-0.000006
H174	H	1.207152	-0.149805	0.499994
H175	H	0.763218	-0.602688	0.053793
H176	H	1.263218	-0.102688	0.553793
H177	H	0.763243	-0.602678	-0.053770
H178	H	1.263243	-0.102678	0.446230
H179	H	0.822189	-0.713445	0.053801
H180	H	1.322189	-0.213445	0.553801
H181	H	0.822209	-0.713449	-0.053771
H182	H	1.322209	-0.213449	0.446229
C183	C	0.466238	0.058131	0.242457
C184	C	0.966238	0.558131	0.742457
C185	C	0.442347	0.023577	0.162879
C186	C	0.942347	0.523577	0.662879
H187	H	0.449576	0.034425	0.296033
H188	H	0.949576	0.534425	0.796033
H189	H	0.525776	0.058356	0.242776
H190	H	1.025776	0.558356	0.742776
H191	H	0.439553	0.105046	0.242537
H192	H	0.939553	0.605046	0.742537
H193	H	0.469037	-0.023337	0.162796
H194	H	0.969037	0.476663	0.662796
H195	H	0.382798	0.023345	0.162560
H196	H	0.882798	0.523345	0.662560
C197	C	1.151242	-0.762692	-0.079237
C198	C	1.651242	-0.262692	0.420763
C199	C	1.147291	-0.720320	0.000053
C200	C	1.647291	-0.220320	0.500053
H201	H	1.202758	-0.793041	-0.079235
H202	H	1.702758	-0.293041	0.420765
H203	H	1.105091	-0.789845	-0.079244
H204	H	1.605091	-0.289845	0.420756
H205	H	1.148572	-0.733922	-0.133006
H206	H	1.648572	-0.233922	0.366994
H207	H	1.149956	-0.749090	0.053822
H208	H	1.649956	-0.249090	0.553822
H209	H	1.193455	-0.693165	0.000068
H210	H	1.693455	-0.193165	0.500068
C211	C	0.768445	-0.128514	0.000064
C212	C	1.268445	0.371486	0.500064
C213	C	0.836477	-0.088479	0.000076
C214	C	1.336477	0.411521	0.500076
H215	H	0.716936	-0.098156	0.000069
H216	H	1.216936	0.401844	0.500069
H217	H	0.771132	-0.157258	-0.053718
H218	H	1.271132	0.342742	0.446282
H219	H	0.771124	-0.157272	0.053844
H220	H	1.271124	0.342728	0.553844
H221	H	0.833802	-0.059724	-0.053708
H222	H	1.333802	0.440276	0.446292
H223	H	0.833789	-0.059723	0.053864
H224	H	1.333789	0.440277	0.553864
C225	C	0.824682	-0.490134	-0.079242
C226	C	1.324682	0.009866	0.420758
C227	C	0.828605	-0.532516	0.000037
C228	C	1.328605	-0.032516	0.500037
H229	H	0.773166	-0.459784	-0.079249
H230	H	1.273166	0.040216	0.420751
H231	H	0.870834	-0.462982	-0.079227
H232	H	1.370834	0.037018	0.420773
H233	H	0.827370	-0.518896	-0.133018
H234	H	1.327370	-0.018896	0.366982
H235	H	0.825922	-0.503755	0.053813
H236	H	1.325922	-0.003755	0.553813
H237	H	0.782440	-0.559671	0.000030
H238	H	1.282440	-0.059671	0.500030
H239	H	0.419965	0.217516	-0.000045
H240	H	0.919965	0.717516	0.499955
C241	C	0.553126	-0.080832	-0.079735
C242	C	1.053126	0.419168	0.420265
C243	C	0.575724	-0.045780	-0.000009
C244	C	1.075724	0.454220	0.499991
H245	H	0.581076	-0.127341	-0.079796
H246	H	1.081076	0.372659	0.420204
H247	H	0.493777	-0.082232	-0.080277
H248	H	0.993777	0.417768	0.419723
H249	H	0.569212	-0.056700	-0.133203
H250	H	1.069212	0.443300	0.366797
H251	H	0.559631	-0.069909	0.053459
H252	H	1.059631	0.430091	0.553459
H253	H	0.635085	-0.044384	0.000541
H254	H	1.135085	0.455616	0.500541
H255	H	0.851919	0.070620	0.558163
H256	H	1.351919	0.570620	1.058163
H257	H	0.449336	0.033493	-0.140247
H258	H	0.949336	0.533493	0.359753
H259	H	0.534329	0.157616	-0.140409
H260	H	1.034329	0.657616	0.359591
