data_functionalizedCrystal
_audit_creation_method	'MofGen! by Chris Wilmer'
_symmetry_space_group_name_H-M	'P1'
_symmetry_Int_Tables_number	1
_symmetry_cell_setting	triclinic
loop_
_symmetry_equiv_pos_as_xyz
  x,y,z
_cell_length_a	16.109302
_cell_length_b	14.044190
_cell_length_c	14.586319
_cell_angle_alpha	89.991348
_cell_angle_beta	89.994552
_cell_angle_gamma	88.326779
loop_
_atom_site_label
_atom_site_type_symbol
_atom_site_fract_x
_atom_site_fract_y
_atom_site_fract_z
O1	O	1.112198	0.121838	-0.076292
O2	O	0.871264	0.136999	-0.076287
O3	O	0.988112	-0.008565	-0.076271
O4	O	0.995351	0.267402	-0.076308
O5	O	0.988103	-0.008567	0.076209
O6	O	0.871255	0.136997	0.076194
O7	O	1.112189	0.121836	0.076188
Cu8	Cu	0.991721	0.129416	0.090114
Cu9	Cu	0.991732	0.129419	-0.090212
O10	O	0.995342	0.267400	0.076173
C11	C	0.840239	0.136384	-0.000045
C12	C	0.747807	0.134543	-0.000042
C13	C	0.535144	0.130283	0.083067
C14	C	0.448295	0.128542	0.083064
C15	C	0.448315	0.128550	-0.083179
C16	C	0.535164	0.130283	-0.083175
C17	C	0.578576	0.131155	-0.000050
C18	C	0.404878	0.127681	-0.000056
C19	C	0.310712	0.125793	-0.000060
C20	C	0.672748	0.133040	-0.000045
C21	C	0.984940	-0.043879	-0.000028
C22	C	0.975494	-0.149103	-0.000020
C23	C	1.025219	-0.399404	-0.000057
C24	C	0.958238	-0.341755	-0.000049
C25	C	0.967842	-0.234553	-0.000033
C26	C	1.015617	-0.506616	-0.000073
C27	C	1.143214	0.122451	-0.000055
C28	C	1.235646	0.124293	-0.000064
C29	C	0.998513	0.302715	-0.000072
C30	C	1.007959	0.407938	-0.000086
N31	N	0.991720	0.129414	0.216946
N32	N	0.991740	0.129414	-0.217044
C33	C	1.043480	0.064980	0.451959
C34	C	1.043482	0.064977	0.547940
C35	C	0.939973	0.193851	0.547936
C36	C	0.939967	0.193848	0.451957
C37	C	0.991726	0.129414	0.403971
C38	C	0.991734	0.129414	0.595931
C39	C	0.991736	0.129412	0.699998
C40	C	0.991723	0.129414	0.299897
H41	H	0.893681	-0.372910	-0.000053
O42	O	1.102187	-0.362131	-0.000166
C43	C	1.111740	-0.305590	-0.079137
H44	H	1.048009	-0.281067	-0.105470
H45	H	1.145357	-0.349195	-0.134439
C46	C	1.241127	-0.248170	-0.022783
C47	C	1.162852	-0.218044	-0.055121
H48	H	1.272659	-0.194170	-0.007971
H49	H	1.234694	-0.286265	0.030420
H50	H	1.269131	-0.284509	-0.068873
H51	H	1.134846	-0.181716	-0.009027
H52	H	1.169282	-0.179940	-0.108316
H53	H	1.085623	0.012512	0.412891
H54	H	1.085624	0.012508	0.587010
H55	H	0.897834	0.246314	0.587016
O56	O	0.406013	0.127751	-0.163841
C57	C	0.320045	0.126013	-0.146024
H58	H	0.306957	0.155762	-0.074592
H59	H	0.298484	0.049524	-0.149959
C60	C	0.289019	0.150713	-0.305472
C61	C	0.272943	0.187259	-0.217741
H62	H	0.259963	0.188489	-0.349713
H63	H	0.346937	0.151881	-0.317477
H64	H	0.271051	0.086974	-0.308739
H65	H	0.290920	0.250993	-0.214473
H66	H	0.215027	0.186104	-0.205738
O67	O	0.889666	0.256536	0.405477
C68	C	0.843975	0.313398	0.468409
H69	H	0.878142	0.314487	0.536822
H70	H	0.779932	0.282599	0.478634
C71	C	0.792454	0.414305	0.346903
C72	C	0.834423	0.415649	0.430926
H73	H	0.786558	0.477377	0.323781
H74	H	0.823234	0.375994	0.304503
H75	H	0.739089	0.388635	0.355435
H76	H	0.887789	0.441307	0.422391
H77	H	0.803651	0.453967	0.473324
H78	H	0.570488	0.130993	0.150753
H79	H	0.570526	0.130991	-0.150863
O80	O	0.406232	0.127743	0.163885
C81	C	0.463177	0.128859	0.237249
H82	H	0.523869	0.160088	0.212879
H83	H	0.475500	0.053046	0.262816
C84	C	0.352206	0.151945	0.345703
C85	C	0.426747	0.190309	0.315773
H86	H	0.329734	0.189846	0.394142
H87	H	0.313841	0.151190	0.296277
H88	H	0.362486	0.088768	0.367003
H89	H	0.416465	0.253480	0.294463
H90	H	0.465110	0.191076	0.365197
