data_functionalizedCrystal
_audit_creation_method	'MofGen! by Chris Wilmer'
_symmetry_space_group_name_H-M	'P1'
_symmetry_Int_Tables_number	1
_symmetry_cell_setting	triclinic
loop_
_symmetry_equiv_pos_as_xyz
  x,y,z
_cell_length_a	18.050591
_cell_length_b	21.295417
_cell_length_c	18.050582
_cell_angle_alpha	89.974292
_cell_angle_beta	89.979078
_cell_angle_gamma	90.025707
loop_
_atom_site_label
_atom_site_type_symbol
_atom_site_fract_x
_atom_site_fract_y
_atom_site_fract_z
Zn1	Zn	1.135285	-0.250716	-0.420015
Zn2	Zn	1.635285	0.249284	0.079985
Zn3	Zn	1.135192	-0.355977	-0.295818
Zn4	Zn	1.635192	0.144023	0.204182
Zn5	Zn	1.011104	-0.250719	-0.295826
Zn6	Zn	1.511104	0.249281	0.204174
Zn7	Zn	1.011049	-0.355944	-0.419954
Zn8	Zn	1.511049	0.144056	0.080046
O9	O	1.073158	-0.303339	-0.357903
O10	O	1.573158	0.196661	0.142097
O11	O	1.239197	-0.264692	-0.403563
O12	O	1.739197	0.235308	0.096437
O13	O	1.118716	-0.342030	-0.191895
O14	O	1.618716	0.157970	0.308105
O15	O	1.027639	-0.162629	-0.312329
O16	O	1.527639	0.337371	0.187671
O17	O	1.239129	-0.342027	-0.312316
O18	O	1.739129	0.157973	0.187684
O19	O	1.118874	-0.162627	-0.403570
O20	O	1.618874	0.337373	0.096430
O21	O	1.027549	-0.264697	-0.191901
O22	O	1.527549	0.235303	0.308099
O23	O	0.907172	-0.264664	-0.312270
O24	O	1.407172	0.235336	0.187730
O25	O	1.027545	-0.341970	-0.523887
O26	O	1.527545	0.158030	-0.023887
O27	O	0.907132	-0.341973	-0.403466
O28	O	1.407132	0.158027	0.096534
O29	O	1.118820	-0.264660	-0.523932
O30	O	1.618820	0.235340	-0.023932
O31	O	1.118663	-0.444062	-0.312256
O32	O	1.618663	0.055938	0.187744
O33	O	1.027455	-0.444038	-0.403458
O34	O	1.527455	0.055962	0.096542
C35	C	0.880205	-0.303316	-0.357862
C36	C	1.380205	0.196684	0.142138
C37	C	0.797660	-0.303321	-0.357862
C38	C	1.297660	0.196679	0.142138
C39	C	1.073063	-0.466891	-0.357866
C40	C	1.573063	0.033109	0.142134
C41	C	1.073090	-0.536859	-0.357875
C42	C	1.573090	-0.036859	0.142125
C43	C	0.598210	-0.261232	-0.308384
C44	C	1.098210	0.238768	0.191616
C45	C	0.548788	-0.318646	-0.290105
C46	C	1.048788	0.181354	0.209895
C47	C	0.646529	-0.303340	-0.357896
C48	C	1.146529	0.196660	0.142104
C49	C	0.548869	-0.245945	-0.376174
C50	C	1.048869	0.254055	0.123826
C51	C	0.500544	-0.303353	-0.357927
C52	C	1.000544	0.196647	0.142073
C53	C	0.598195	-0.360785	-0.339581
C54	C	1.098195	0.139215	0.160419
C55	C	0.598280	-0.288045	-0.425682
C56	C	1.098280	0.211955	0.074318
C57	C	0.548881	-0.345499	-0.407428
C58	C	1.048881	0.154501	0.092572
C59	C	0.730628	-0.303331	-0.357876
C60	C	1.230628	0.196669	0.142124
C61	C	0.416448	-0.303368	-0.357947
C62	C	0.916448	0.196632	0.142053
C63	C	1.120569	-0.569667	-0.405418
C64	C	1.620569	-0.069667	0.094582
C65	C	1.120595	-0.635410	-0.405436
C66	C	1.620595	-0.135410	0.094564
C67	C	1.073151	-0.668341	-0.357898
C68	C	1.573151	-0.168341	0.142102
C69	C	1.025662	-0.635525	-0.310352
C70	C	1.525662	-0.135525	0.189648
C71	C	1.025632	-0.569784	-0.310340
C72	C	1.525632	-0.069784	0.189660
N73	N	1.067546	-0.771598	-0.292903
N74	N	1.567546	-0.271598	0.207097
N75	N	1.067579	-0.834050	-0.292916
N76	N	1.567579	-0.334050	0.207084
C77	C	1.073237	-0.866416	-0.357932
C78	C	1.573237	-0.366416	0.142068
N79	N	1.078876	-0.833972	-0.422935
N80	N	1.578876	-0.333972	0.077065
N81	N	1.078846	-0.771515	-0.422920
N82	N	1.578846	-0.271515	0.077080
C83	C	1.073178	-0.739627	-0.357906
C84	C	1.573178	-0.239627	0.142094
C85	C	1.120747	-0.970510	-0.405499
C86	C	1.620747	-0.470510	0.094501
C87	C	1.120768	-1.036254	-0.405518
C88	C	1.620768	-0.536254	0.094482
C89	C	1.025839	-1.036368	-0.310427
C90	C	1.525839	-0.536368	0.189573
C91	C	1.025814	-0.970625	-0.310414
C92	C	1.525814	-0.470625	0.189586
C93	C	1.073272	-0.937700	-0.357949
C94	C	1.573272	-0.437700	0.142051
C95	C	1.266863	-0.303363	-0.357945
C96	C	1.766863	0.196637	0.142055
C97	C	1.349409	-0.303373	-0.357963
C98	C	1.849409	0.196627	0.142037
C99	C	1.073187	-0.303311	-0.551609
C100	C	1.573187	0.196689	-0.051609
C101	C	1.073199	-0.303299	-0.634155
C102	C	1.573199	0.196701	-0.134155
C103	C	1.073273	-0.139149	-0.357957
C104	C	1.573273	0.360851	0.142043
C105	C	1.073322	-0.069181	-0.357980
C106	C	1.573322	0.430819	0.142020
C107	C	1.023601	-0.345283	-0.833581
C108	C	1.523601	0.154717	-0.333581
C109	C	1.091356	-0.360675	-0.882979
C110	C	1.591356	0.139325	-0.382979
C111	C	1.073236	-0.303251	-0.785285
C112	C	1.573236	0.196749	-0.285285
C113	C	1.005518	-0.287842	-0.882970
C114	C	1.505518	0.212158	-0.382970
C115	C	1.073265	-0.303206	-0.931271
C116	C	1.573265	0.196794	-0.431271
C117	C	1.141026	-0.318673	-0.833596
C118	C	1.641026	0.181327	-0.333596
C119	C	1.055142	-0.245814	-0.833582
C120	C	1.555142	0.254186	-0.333582
C121	C	1.122944	-0.261183	-0.882958
C122	C	1.622944	0.238817	-0.382958
C123	C	1.073218	-0.303279	-0.701187
C124	C	1.573218	0.196721	-0.201187
C125	C	1.073291	-0.303178	-1.015367
C126	C	1.573291	0.196822	-0.515367
C127	C	1.073171	-0.303322	-0.164951
C128	C	1.573171	0.196678	0.335049
C129	C	1.073303	-0.303156	-0.082406
C130	C	1.573303	0.196844	0.417594
H131	H	0.619868	-0.225660	-0.266468
H132	H	1.119868	0.274340	0.233532
C133	C	1.179730	-0.213137	-0.912064
C134	C	1.679730	0.286863	-0.412064
N135	N	1.222503	-0.176951	-0.933988
N136	N	1.722503	0.323049	-0.433988
C137	C	0.928135	-0.270258	-0.912266
C138	C	1.428135	0.229742	-0.412266
N139	N	0.869848	-0.257018	-0.934329
N140	N	1.369848	0.242982	-0.434329
H141	H	0.986968	-0.543070	-0.271624
H142	H	1.486968	-0.043070	0.228376
H143	H	1.039801	-0.197273	-0.811868
H144	H	1.539801	0.302727	-0.311868
C145	C	0.966960	-0.393367	-0.804275
C146	C	1.466960	0.106633	-0.304275
N147	N	0.924305	-0.429585	-0.782196
N148	N	1.424305	0.070415	-0.282196
C149	C	0.519796	-0.393669	-0.464007
C150	C	1.019796	0.106331	0.035993
N151	N	0.497887	-0.429952	-0.506618
N152	N	0.997887	0.070048	-0.006618
H153	H	1.159388	-0.943702	-0.444207
H154	H	1.659388	-0.443702	0.055793
H155	H	1.106677	-0.409229	-0.904676
H156	H	1.606677	0.090771	-0.404676
C157	C	0.519414	-0.336134	-0.212681
C158	C	1.019414	0.163866	0.287319
N159	N	0.497291	-0.349301	-0.154364
N160	N	0.997291	0.150699	0.345636
C161	C	0.973638	-1.072588	-0.258144
C162	C	1.473638	-0.572588	0.241856
N163	N	0.934315	-1.099873	-0.218768
N164	N	1.434315	-0.599873	0.281232
C165	C	0.627680	-0.270528	-0.503082
C166	C	1.127680	0.229472	-0.003082
N167	N	0.649827	-0.257326	-0.561379
N168	N	1.149827	0.242674	-0.061379
H169	H	1.198323	-0.331742	-0.811998
H170	H	1.698323	0.168258	-0.311998
H171	H	0.619772	-0.409343	-0.324071
H172	H	1.119772	0.090657	0.175929
C173	C	0.973502	-0.671751	-0.258031
C174	C	1.473502	-0.171751	0.241969
N175	N	0.934221	-0.699036	-0.218612
N176	N	1.434221	-0.199036	0.281388
H177	H	1.159252	-0.662128	-0.444160
H178	H	1.659252	-0.162128	0.055840
H179	H	1.159431	-1.062965	-0.444237
H180	H	1.659431	-0.562965	0.055763
H181	H	0.527163	-0.197408	-0.391595
H182	H	1.027163	0.302592	0.108405
C183	C	1.172779	-0.533454	-0.457703
C184	C	1.672779	-0.033454	0.042297
N185	N	1.212106	-0.506177	-0.497084
N186	N	1.712106	-0.006177	0.002916
H187	H	0.987155	-0.943911	-0.271697
H188	H	1.487155	-0.443911	0.228303
