data_functionalizedCrystal
_audit_creation_method	'MofGen! by Chris Wilmer'
_symmetry_space_group_name_H-M	'P1'
_symmetry_Int_Tables_number	1
_symmetry_cell_setting	triclinic
loop_
_symmetry_equiv_pos_as_xyz
  x,y,z
_cell_length_a	14.044220
_cell_length_b	19.288865
_cell_length_c	18.366186
_cell_angle_alpha	90.004920
_cell_angle_beta	90.002290
_cell_angle_gamma	88.162562
loop_
_atom_site_label
_atom_site_type_symbol
_atom_site_fract_x
_atom_site_fract_y
_atom_site_fract_z
O1	O	0.118208	0.928946	0.060527
O2	O	0.618208	1.428946	0.560527
O3	O	0.134155	0.727710	0.060534
O4	O	0.634155	1.227710	0.560534
O5	O	-0.011790	0.825307	0.060523
O6	O	0.488210	1.325307	0.560523
O7	O	0.264153	0.831348	0.060537
O8	O	0.764153	1.331348	0.560537
O9	O	-0.011785	0.825294	-0.060576
O10	O	0.488215	1.325294	0.439424
O11	O	0.134160	0.727696	-0.060566
O12	O	0.634160	1.227696	0.439434
O13	O	0.118213	0.928932	-0.060573
O14	O	0.618213	1.428932	0.439427
Zn15	Zn	0.126188	0.828312	-0.079796
Zn16	Zn	0.626188	1.328312	0.420204
Zn17	Zn	0.126181	0.828330	0.079757
Zn18	Zn	0.626181	1.328330	0.579757
O19	O	0.264159	0.831335	-0.060562
O20	O	0.764159	1.331335	0.439438
C21	C	-0.047091	0.822656	-0.000027
C22	C	0.452909	1.322656	0.499973
C23	C	-0.152283	0.814768	-0.000027
C24	C	0.347717	1.314768	0.499973
C25	C	0.133645	0.701793	-0.000015
C26	C	0.633645	1.201793	0.499985
C27	C	0.132104	0.624591	-0.000013
C28	C	0.632104	1.124591	0.499987
C29	C	0.118724	0.954848	-0.000022
C30	C	0.618724	1.454848	0.499978
C31	C	0.120264	1.032051	-0.000020
C32	C	0.620264	1.532051	0.499980
C33	C	-0.344882	0.800348	-0.000016
C34	C	0.155118	1.300348	0.499984
C35	C	-0.402755	0.856291	-0.000016
C36	C	0.097245	1.356291	0.499984
C37	C	-0.509924	0.848267	-0.000010
C38	C	-0.009924	1.348267	0.499990
C39	C	-0.237703	0.808370	-0.000022
C40	C	0.262297	1.308370	0.499978
C41	C	0.299459	0.833986	-0.000011
C42	C	0.799459	1.333986	0.499989
C43	C	0.404651	0.841874	-0.000005
C44	C	0.904651	1.341874	0.499995
N45	N	0.126192	0.828305	-0.188687
N46	N	0.626192	1.328305	0.311313
C47	C	0.034630	1.071245	-0.000018
C48	C	0.534630	1.571245	0.499982
C49	C	0.036077	1.143785	-0.000022
C50	C	0.536077	1.643785	0.499978
C51	C	0.123163	1.177128	-0.000014
C52	C	0.623163	1.677128	0.499986
C53	C	0.208809	1.137925	-0.000020
C54	C	0.708809	1.637925	0.499980
C55	C	0.207359	1.065386	-0.000023
C56	C	0.707359	1.565386	0.499977
C57	C	0.191621	1.289808	0.042420
C58	C	0.691621	1.789808	0.542420
C59	C	0.193067	1.362346	0.042428
C60	C	0.693067	1.862346	0.542428
C61	C	0.127638	1.400861	-0.000007
C62	C	0.627638	1.900861	0.499993
C63	C	0.060746	1.366831	-0.042441
C64	C	0.560746	1.866831	0.457559
C65	C	0.059297	1.294292	-0.042444
C66	C	0.559297	1.794292	0.457556
C67	C	0.124745	1.255784	-0.000011
C68	C	0.624745	1.755784	0.499989
C69	C	0.043567	1.518712	-0.000011
C70	C	0.543567	2.018712	0.499989
C71	C	0.045018	1.591253	-0.000020
C72	C	0.545018	2.091253	0.499980
C73	C	0.217751	1.585391	-0.000010
C74	C	0.717751	2.085391	0.499990
C75	C	0.216298	1.512851	-0.000009
C76	C	0.716298	2.012851	0.499991
C77	C	0.129203	1.479516	-0.000006
C78	C	0.629203	1.979516	0.499994
C79	C	0.183489	0.874017	-0.773236
C80	C	0.683489	1.374017	-0.273236
C81	C	0.183498	0.874011	-0.697008
C82	C	0.683498	1.374011	-0.197008
C83	C	0.126170	0.828336	-0.658899
C84	C	0.626170	1.328336	-0.158899
C85	C	0.068847	0.782651	-0.697024
C86	C	0.568847	1.282651	-0.197024
C87	C	0.068847	0.782654	-0.773250
C88	C	0.568847	1.282654	-0.273250
C89	C	0.040732	0.821119	-0.538137
C90	C	0.540732	1.321119	-0.038137
C91	C	0.040731	0.821121	-0.461912
C92	C	0.540731	1.321121	0.038088
C93	C	0.126173	0.828322	-0.423791
C94	C	0.626173	1.328322	0.076209
C95	C	0.211618	0.835536	-0.461905
C96	C	0.711618	1.335536	0.038095
C97	C	0.211618	0.835539	-0.538131
C98	C	0.711618	1.335539	-0.038131
C99	C	0.126165	0.828327	-0.576244
C100	C	0.626165	1.328327	-0.076244
C101	C	0.183507	0.873993	-0.303020
C102	C	0.683507	1.373993	0.196980
C103	C	0.183519	0.873981	-0.226791
C104	C	0.683519	1.373981	0.273209
C105	C	0.068859	0.782625	-0.226809
C106	C	0.568859	1.282625	0.273191
C107	C	0.068857	0.782633	-0.303037
C108	C	0.568857	1.282633	0.196963
C109	C	0.126179	0.828321	-0.341138
C110	C	0.626179	1.328321	0.158862
N111	N	0.126170	0.828342	0.188648
N112	N	0.626170	1.328342	0.688648
H113	H	-0.371814	0.910212	0.000031
H114	H	0.128186	1.410212	0.500031
H115	H	-0.375822	0.746431	-0.000013
H116	H	0.124178	1.246431	0.499987
H117	H	-0.036289	1.044108	-0.000018
H118	H	0.463711	1.544108	0.499982
H119	H	-0.033658	1.175703	-0.000018
H120	H	0.466342	1.675703	0.499982
Br121	Br	-0.008934	0.720629	-0.175098
Br122	Br	0.491066	1.220629	0.324902
H123	H	0.022169	0.745459	-0.804284
H124	H	0.522169	1.245459	-0.304284
H125	H	0.004833	1.266588	-0.076997
H126	H	0.504833	1.766588	0.423003
Br127	Br	-0.008948	0.720658	-0.645307
Br128	Br	0.491052	1.220658	-0.145307
H129	H	0.007463	1.398189	-0.076992
H130	H	0.507463	1.898189	0.423008
Br131	Br	-0.074630	1.473467	-0.000022
Br132	Br	0.425370	1.973467	0.499978
H133	H	-0.024719	1.623164	-0.000023
H134	H	0.475281	2.123164	0.499977
H135	H	0.286031	1.480939	-0.000006
H136	H	0.786031	1.980939	0.499994
Br137	Br	0.335942	1.630634	-0.000014
Br138	Br	0.835942	2.130634	0.499986
H139	H	0.247527	1.390048	0.076986
H140	H	0.747527	1.890048	0.576986
Br141	Br	-0.008941	0.720643	-0.354769
Br142	Br	0.491059	1.220643	0.145231
Br143	Br	0.280435	1.237544	0.100009
Br144	Br	0.780435	1.737544	0.600009
H145	H	0.279715	1.165077	-0.000015
H146	H	0.779715	1.665077	0.499985
H147	H	0.277095	1.033474	-0.000025
H148	H	0.777095	1.533474	0.499975
Br149	Br	0.261290	0.936017	-0.824941
Br150	Br	0.761290	1.436017	-0.324941
H151	H	0.230179	0.911205	-0.665968
H152	H	0.730179	1.411205	-0.165968
Br153	Br	0.261343	0.935958	-0.175060
Br154	Br	0.761343	1.435958	0.324940
Br155	Br	0.327573	0.845325	-0.589856
Br156	Br	0.827573	1.345325	-0.089856
H157	H	0.281193	0.841400	-0.430869
H158	H	0.781193	1.341400	0.069131
Br159	Br	0.261302	0.935994	-0.354734
Br160	Br	0.761302	1.435994	0.145266
H161	H	-0.028844	0.815252	-0.430885
H162	H	0.471156	1.315252	0.069115
Br163	Br	-0.075236	0.811345	-0.589864
Br164	Br	0.424764	1.311345	-0.089864
