data_functionalizedCrystal
_audit_creation_method	'MofGen! by Chris Wilmer'
_symmetry_space_group_name_H-M	'P1'
_symmetry_Int_Tables_number	1
_symmetry_cell_setting	triclinic
loop_
_symmetry_equiv_pos_as_xyz
  x,y,z
_cell_length_a	10.489741
_cell_length_b	10.489741
_cell_length_c	9.565339
_cell_angle_alpha	89.999484
_cell_angle_beta	89.999100
_cell_angle_gamma	95.460826
loop_
_atom_site_label
_atom_site_type_symbol
_atom_site_fract_x
_atom_site_fract_y
_atom_site_fract_z
O1	O	1.694053	-0.179959	-0.116173
O2	O	1.322857	-0.196852	-0.116194
O3	O	1.516901	-0.002807	-0.116175
O4	O	1.500009	-0.374003	-0.116192
O5	O	1.516886	-0.002819	0.116345
O6	O	1.322842	-0.196864	0.116326
O7	O	1.694038	-0.179971	0.116347
Zn8	Zn	1.508437	-0.188419	0.153254
Zn9	Zn	1.508458	-0.188403	-0.153101
O10	O	1.499993	-0.374015	0.116328
C11	C	1.275318	-0.195582	0.000063
C12	C	1.133688	-0.191765	0.000055
C13	C	1.065548	-0.068300	0.000074
C14	C	0.973429	-0.126617	-0.114571
C15	C	0.973448	-0.126659	0.114676
C16	C	1.043435	-0.250133	-0.114684
C17	C	1.043463	-0.250157	0.114665
C18	C	0.951371	-0.308564	-0.000007
C19	C	1.515618	0.044718	0.000084
C20	C	1.511801	0.186348	0.000082
C21	C	1.741577	-0.181241	0.000087
C22	C	1.883206	-0.185058	0.000086
C23	C	1.501277	-0.421541	0.000066
C24	C	1.505094	-0.563170	0.000059
N25	N	1.508433	-0.188429	0.362334
C26	C	1.388336	0.254488	0.000064
C27	C	1.446652	0.346604	0.114712
C28	C	1.446696	0.346591	-0.114534
C29	C	1.570168	0.276599	0.114824
C30	C	1.570195	0.276576	-0.114525
C31	C	1.628600	0.368665	0.000150
N32	N	1.508472	-0.188383	-0.362180
C33	C	1.418666	-0.278138	0.453528
C34	C	1.534163	-0.303949	0.546712
C35	C	1.392986	-0.162629	0.546704
C36	C	1.623988	-0.214298	0.453466
C37	C	1.482735	-0.072928	0.453451
C38	C	1.598314	-0.098690	0.546593
H39	H	1.074269	-0.302328	-0.211717
H40	H	1.342823	-0.354073	0.412665
C41	C	1.639993	0.235595	0.244097
C42	C	1.765360	0.294867	0.244227
C43	C	1.829720	0.257108	0.363279
H44	H	1.596577	0.260116	0.325509
H45	H	1.642044	0.145246	0.243339
H46	H	1.763302	0.385196	0.244998
H47	H	1.808810	0.270353	0.162841
H48	H	1.831771	0.166759	0.362522
H49	H	1.786294	0.281632	0.444683
H50	H	1.914791	0.297309	0.363377
H51	H	0.901947	-0.410168	-0.000074
C52	C	1.764158	0.434368	0.000021
C53	C	1.828983	0.397195	-0.118968
C54	C	1.953870	0.457664	-0.119117
H55	H	1.761216	0.524591	-0.000823
H56	H	1.807854	0.410357	0.081479
H57	H	1.785299	0.421214	-0.200404
H58	H	1.831960	0.306981	-0.118149
H59	H	1.997566	0.433653	-0.037660
H60	H	1.950916	0.547885	-0.119958
H61	H	1.997874	0.432442	-0.199843
C62	C	1.131594	0.067119	0.000142
C63	C	1.094562	0.132132	0.119063
C64	C	1.155365	0.256882	0.119153
H65	H	1.221784	0.063924	0.001038
H66	H	1.107746	0.110849	-0.081361
H67	H	1.118418	0.088413	0.200545
H68	H	1.004381	0.135362	0.118192
H69	H	1.131518	0.300612	0.037650
H70	H	1.245553	0.253674	0.120045
H71	H	1.130239	0.301012	0.199832
H72	H	1.622398	0.245536	-0.211451
C73	C	0.931934	-0.057192	0.243968
C74	C	0.848393	-0.140444	0.323273
C75	C	0.810117	-0.076482	0.442368
H76	H	1.005040	-0.029390	0.298463
H77	H	0.889508	0.014863	0.216459
H78	H	0.890819	-0.212475	0.350785
H79	H	0.775268	-0.168250	0.268820
H80	H	0.767691	-0.004427	0.414859
H81	H	0.883230	-0.048682	0.496851
H82	H	0.753421	-0.132954	0.496185
C83	C	1.262841	-0.133279	0.601230
C84	C	1.235344	-0.013220	0.551978
C85	C	1.115473	0.013857	0.602188
H86	H	1.199027	-0.196989	0.569398
H87	H	1.264005	-0.132620	0.700543
H88	H	1.234170	-0.013888	0.452686
H89	H	1.299126	0.050516	0.583806
H90	H	1.116636	0.014516	0.701501
H91	H	1.051669	-0.049860	0.570353
H92	H	1.096805	0.095324	0.568789
H93	H	1.555926	-0.401606	0.587676
H94	H	0.942421	-0.074372	-0.211491
C95	C	1.084913	-0.319981	0.243730
C96	C	1.145205	-0.427464	0.202778
C97	C	1.183395	-0.491814	0.321646
H98	H	1.142906	-0.264261	0.296858
H99	H	1.011913	-0.346465	0.299007
H100	H	1.218195	-0.400978	0.147524
H101	H	1.087236	-0.483214	0.149667
H102	H	1.110396	-0.518298	0.376923
H103	H	1.241384	-0.436084	0.374765
H104	H	1.224297	-0.564755	0.293877
C105	C	1.377138	0.387803	0.244112
C106	C	1.440801	0.350601	0.363882
C107	C	1.376785	0.388512	0.483104
H108	H	1.375875	0.478228	0.243796
H109	H	1.291788	0.348306	0.244068
H110	H	1.526128	0.390102	0.363926
H111	H	1.442066	0.260182	0.364244
H112	H	1.291435	0.349015	0.483060
H113	H	1.375525	0.478936	0.482773
H114	H	1.419964	0.363265	0.564381
C115	C	1.699577	0.002679	0.600553
C116	C	1.673396	0.123108	0.551179
C117	C	1.766664	0.216511	0.600844
H118	H	1.698658	0.002793	0.699853
H119	H	1.781531	-0.015759	0.568409
H120	H	1.591465	0.141542	0.583330
H121	H	1.674327	0.123036	0.451885
H122	H	1.848617	0.198073	0.568701
H123	H	1.765737	0.216613	0.700143
H124	H	1.748920	0.298231	0.567341
H125	H	1.394447	0.377560	-0.211470
H126	H	1.286824	0.204837	0.000174
C127	C	1.453755	0.057176	0.398495
C128	C	1.455315	0.055734	0.252141
C129	C	1.428625	0.175565	0.201464
H130	H	1.371646	0.075494	0.430212
H131	H	1.516722	0.121125	0.431665
H132	H	1.392351	-0.008196	0.218984
H133	H	1.537413	0.037438	0.220387
H134	H	1.491592	0.239515	0.234633
H135	H	1.346517	0.193873	0.233190
H136	H	1.429691	0.174606	0.102158
H137	H	1.721659	-0.236217	0.412683
