data_functionalizedCrystal
_audit_creation_method	'MofGen! by Chris Wilmer'
_symmetry_space_group_name_H-M	'P1'
_symmetry_Int_Tables_number	1
_symmetry_cell_setting	triclinic
loop_
_symmetry_equiv_pos_as_xyz
  x,y,z
_cell_length_a	14.971482
_cell_length_b	14.044190
_cell_length_c	13.448316
_cell_angle_alpha	89.988796
_cell_angle_beta	89.993798
_cell_angle_gamma	88.402193
loop_
_atom_site_label
_atom_site_type_symbol
_atom_site_fract_x
_atom_site_fract_y
_atom_site_fract_z
O1	O	1.196683	0.123521	-0.082690
O2	O	1.530016	0.456855	0.250643
O3	O	1.863350	0.790188	0.583976
O4	O	0.937449	0.138319	-0.082697
O5	O	1.270782	0.471652	0.250637
O6	O	1.604115	0.804985	0.583970
O7	O	1.063171	-0.007069	-0.082674
O8	O	1.396505	0.326264	0.250659
O9	O	1.729838	0.659598	0.583993
O10	O	1.070960	0.268909	-0.082713
O11	O	1.404294	0.602243	0.250620
O12	O	1.737627	0.935576	0.583954
O13	O	1.063154	-0.007078	0.082710
O14	O	1.396487	0.326255	0.416043
O15	O	1.729820	0.659589	0.749376
O16	O	0.937431	0.138310	0.082687
O17	O	1.270764	0.471643	0.416020
O18	O	1.604097	0.804977	0.749354
O19	O	1.196665	0.123512	0.082693
O20	O	1.529999	0.456846	0.416027
O21	O	1.863332	0.790179	0.749360
Cu22	Cu	1.067046	0.130910	0.097791
Cu23	Cu	1.400380	0.464244	0.431124
Cu24	Cu	1.733713	0.797577	0.764458
Cu25	Cu	1.067068	0.130921	-0.097794
Cu26	Cu	1.400401	0.464254	0.235539
Cu27	Cu	1.733734	0.797588	0.568872
O28	O	1.070942	0.268900	0.082671
O29	O	1.404276	0.602234	0.416004
O30	O	1.737609	0.935567	0.749337
C31	C	0.904063	0.137653	-0.000005
C32	C	1.237396	0.470987	0.333328
C33	C	1.570729	0.804320	0.666661
C34	C	0.804609	0.135672	-0.000007
C35	C	1.137943	0.469005	0.333327
C36	C	1.471276	0.802339	0.666660
C37	C	0.757881	0.134734	0.090145
C38	C	1.091215	0.468067	0.423478
C39	C	1.424548	0.801401	0.756812
C40	C	0.664435	0.132857	0.090147
C41	C	0.997768	0.466191	0.423480
C42	C	1.331102	0.799524	0.756813
C43	C	0.617718	0.131925	-0.000005
C44	C	0.951051	0.465259	0.333328
C45	C	1.284385	0.798592	0.666662
C46	C	0.664453	0.132861	-0.090164
C47	C	0.997786	0.466194	0.243169
C48	C	1.331119	0.799527	0.576503
C49	C	0.757898	0.134730	-0.090164
C50	C	1.091231	0.468064	0.243169
C51	C	1.424564	0.801397	0.576502
C52	C	0.469684	0.128965	-0.090157
C53	C	0.803017	0.462299	0.243176
C54	C	1.136350	0.795632	0.576510
C55	C	0.376232	0.127097	-0.090157
C56	C	0.709566	0.460430	0.243176
C57	C	1.042899	0.793764	0.576510
C58	C	0.376221	0.127092	0.090154
C59	C	0.709555	0.460425	0.423487
C60	C	1.042888	0.793759	0.756820
C61	C	0.469666	0.128962	0.090153
C62	C	0.803000	0.462295	0.423487
C63	C	1.136333	0.795629	0.756820
C64	C	0.516394	0.129899	-0.000006
C65	C	0.849728	0.463232	0.333328
C66	C	1.183061	0.796566	0.666661
C67	C	1.059755	-0.042392	0.000021
C68	C	1.393088	0.290941	0.333354
C69	C	1.726422	0.624275	0.666687
C70	C	1.049591	-0.147629	0.000029
C71	C	1.382925	0.185704	0.333362
C72	C	1.716258	0.519037	0.666696
C73	C	1.103093	-0.397856	-0.000009
C74	C	1.436427	-0.064522	0.333325
C75	C	1.769760	0.268811	0.666658
C76	C	1.031025	-0.340307	-0.000003
C77	C	1.364358	-0.006974	0.333330
C78	C	1.697691	0.326359	0.666663
C79	C	1.041358	-0.233092	0.000015
C80	C	1.374691	0.100242	0.333348
C81	C	1.708024	0.433575	0.666681
C82	C	1.092761	-0.505082	-0.000027
C83	C	1.426095	-0.171748	0.333307
C84	C	1.759428	0.161585	0.666640
C85	C	1.230051	0.124178	-0.000000
C86	C	1.563384	0.457511	0.333333
C87	C	1.896718	0.790845	0.666666
C88	C	1.329504	0.126159	-0.000005
C89	C	1.662838	0.459492	0.333328
C90	C	1.996171	0.792826	0.666661
C91	C	1.074359	0.304223	-0.000026
C92	C	1.407692	0.637556	0.333307
C93	C	1.741025	0.970890	0.666641
C94	C	1.084522	0.409460	-0.000041
C95	C	1.417856	0.742794	0.333292
C96	C	1.751189	1.076127	0.666626
N97	N	1.067038	0.130902	0.235355
N98	N	1.400371	0.464236	0.568689
N99	N	1.733704	0.797569	0.902022
N100	N	1.067082	0.130921	-0.235359
N101	N	1.400416	0.464255	0.097975
N102	N	1.733749	0.797588	0.431308
C103	C	1.122729	0.066551	0.287406
C104	C	1.456062	0.399884	0.620739
C105	C	1.789396	0.733218	0.954072
C106	C	1.122734	0.066550	0.391509
C107	C	1.456068	0.399883	0.724842
C108	C	1.789401	0.733217	1.058176
C109	C	1.067053	0.130906	0.443560
C110	C	1.400386	0.464239	0.776893
C111	C	1.733720	0.797573	1.110227
C112	C	1.011356	0.195260	0.391502
C113	C	1.344689	0.528594	0.724836
C114	C	1.678022	0.861927	1.058169
C115	C	1.011346	0.195256	0.287401
C116	C	1.344679	0.528589	0.620734
C117	C	1.678013	0.861922	0.954068
C118	C	1.011381	0.195267	0.608482
C119	C	1.344714	0.528600	0.941816
C120	C	1.678048	0.861933	1.275149
C121	C	1.011391	0.195273	0.712591
C122	C	1.344725	0.528606	1.045924
C123	C	1.678058	0.861939	1.379258
C124	C	1.122769	0.066561	0.712590
C125	C	1.456103	0.399894	1.045924
C126	C	1.789436	0.733228	1.379257
C127	C	1.122760	0.066557	0.608489
C128	C	1.456093	0.399890	0.941822
C129	C	1.789426	0.733223	1.275156
C130	C	1.067063	0.130912	0.556439
C131	C	1.400397	0.464246	0.889772
C132	C	1.733730	0.797579	1.223105
H133	H	0.507727	0.129729	-0.163574
H134	H	0.841060	0.463062	0.169759
H135	H	1.174394	0.796395	0.503092
H136	H	0.961564	-0.371561	-0.000011
H137	H	1.294898	-0.038227	0.333323
H138	H	1.628231	0.295106	0.666656
H139	H	0.626409	0.132095	-0.163567
H140	H	0.959742	0.465428	0.169766
H141	H	1.293075	0.798762	0.503100
H142	H	1.168119	0.014160	0.754976
H143	H	1.501452	0.347494	1.088309
H144	H	1.834785	0.680827	1.421643
H145	H	1.172548	-0.366604	0.000003
H146	H	1.505881	-0.033271	0.333337
H147	H	1.839215	0.300062	0.666670
H148	H	0.795942	0.135496	-0.163575
H149	H	1.129276	0.468829	0.169758
H150	H	1.462609	0.802163	0.503091
H151	H	0.966024	0.247669	0.566106
H152	H	1.299357	0.581002	0.899440
H153	H	1.632690	0.914336	1.232773
H154	H	1.168075	0.014149	0.245033
H155	H	1.501408	0.347482	0.578366
H156	H	1.834742	0.680816	0.911699
H157	H	0.507700	0.129727	0.163563
H158	H	0.841034	0.463060	0.496896
H159	H	1.174367	0.796393	0.830230
H160	H	1.168104	0.014158	0.566109
H161	H	1.501438	0.347491	0.899443
H162	H	1.834771	0.680825	1.232776
H163	H	1.168082	0.014150	0.433888
H164	H	1.501415	0.347483	0.767221
H165	H	1.834748	0.680817	1.100555
H166	H	0.966049	0.247677	0.754966
H167	H	1.299382	0.581010	1.088299
H168	H	1.632715	0.914344	1.421632
H169	H	0.966014	0.247657	0.433888
H170	H	1.299347	0.580990	0.767222
H171	H	1.632681	0.914324	1.100555
H172	H	0.795911	0.135501	0.163557
H173	H	1.129245	0.468834	0.496891
H174	H	1.462578	0.802167	0.830224
H175	H	0.626394	0.132078	0.163557
H176	H	0.959727	0.465411	0.496891
H177	H	1.293061	0.798744	0.830224
H178	H	0.965996	0.247656	0.245023
H179	H	1.299329	0.580989	0.578356
H180	H	1.632662	0.914323	0.911689
H181	H	0.338171	0.126329	0.163565
H182	H	0.671504	0.459663	0.496898
H183	H	1.004837	0.792996	0.830231
H184	H	0.338198	0.126339	-0.163567
H185	H	0.671531	0.459672	0.169767
H186	H	1.004864	0.793006	0.503100
