data_functionalizedCrystal
_audit_creation_method	'MofGen! by Chris Wilmer'
_symmetry_space_group_name_H-M	'P1'
_symmetry_Int_Tables_number	1
_symmetry_cell_setting	triclinic
loop_
_symmetry_equiv_pos_as_xyz
  x,y,z
_cell_length_a	23.196402
_cell_length_b	14.560432
_cell_length_c	23.196402
_cell_angle_alpha	60.000152
_cell_angle_beta	60.000268
_cell_angle_gamma	59.997866
loop_
_atom_site_label
_atom_site_type_symbol
_atom_site_fract_x
_atom_site_fract_y
_atom_site_fract_z
Zr1	Zr	0.555360	0.120519	0.555375
O2	O	0.583580	0.267162	0.463323
O3	O	0.463307	0.075571	0.583592
O4	O	0.463307	0.267177	0.583589
O5	O	0.678452	-0.075591	0.463331
O6	O	0.463306	0.267182	0.678459
O7	O	0.583580	0.075557	0.463326
O8	O	0.463306	-0.075565	0.678464
O9	O	0.678451	0.267155	0.463326
O10	O	0.524810	0.056399	0.666429
O11	O	0.595613	-0.056405	0.595632
O12	O	0.595613	0.169185	0.595629
O13	O	0.666415	0.056381	0.524832
Zr14	Zr	0.706666	-0.120536	0.706690
Zr15	Zr	0.555357	0.120528	0.706682
Zr16	Zr	0.706669	-0.120544	0.555383
Zr17	Zr	0.706669	0.120509	0.555379
Zr18	Zr	0.555357	-0.120525	0.706686
O19	O	0.798718	-0.075588	0.678473
O20	O	0.583576	0.267174	0.678462
O21	O	0.798722	-0.075600	0.463335
O22	O	0.678445	-0.267178	0.798741
O23	O	0.463303	0.075583	0.798730
O24	O	0.678449	-0.267190	0.583603
O25	O	0.583574	0.075575	0.798733
O26	O	0.798718	-0.267193	0.678476
O27	O	0.798720	-0.267198	0.583606
O28	O	0.678445	-0.075573	0.798738
O29	O	0.678449	0.267162	0.583595
O30	O	0.583576	-0.267178	0.678470
O31	O	0.583574	-0.267172	0.798739
O32	O	0.463303	-0.075558	0.798733
O33	O	0.798722	0.075542	0.463332
O34	O	0.798720	0.075549	0.583601
O35	O	0.666413	-0.169201	0.666436
O36	O	0.595610	-0.056397	0.737233
O37	O	0.666413	0.056389	0.666433
O38	O	0.737216	-0.056415	0.595636
C39	C	0.441748	0.000005	0.631027
C40	C	0.377514	0.000009	0.631025
C41	C	0.631013	-0.301529	0.631037
C42	C	0.631013	-0.403863	0.631039
C43	C	0.310382	0.058896	0.667976
C44	C	0.250027	0.058887	0.667983
C45	C	0.256807	0.000006	0.631025
C46	C	0.323951	-0.058893	0.594073
C47	C	0.384304	-0.058892	0.594074
C48	C	0.189505	0.008406	0.569121
C49	C	0.129151	0.008413	0.569119
C50	C	0.070660	-0.000005	0.631026
C51	C	0.072522	-0.008407	0.692935
C52	C	0.132875	-0.008405	0.692935
C53	C	0.191369	-0.000003	0.631022
C54	C	-0.061918	0.058874	0.667987
C55	C	-0.122273	0.058857	0.667996
C56	C	-0.048347	-0.058915	0.594080
C57	C	0.012006	-0.058906	0.594078
C58	C	0.005215	-0.000005	0.631030
C59	C	0.704922	-0.521640	0.704966
C60	C	0.741873	-0.628602	0.741930
C61	C	0.741872	-0.724749	0.741928
C62	C	0.704917	-0.713930	0.704957
C63	C	0.667965	-0.606968	0.667992
C64	C	0.667969	-0.510826	0.668000
C65	C	0.594061	-0.489192	0.594062
C66	C	0.594058	-0.393044	0.594067
C67	C	0.557106	-0.478373	0.557090
C68	C	0.520150	-0.371410	0.520129
C69	C	0.520152	-0.275260	0.520133
C70	C	0.557106	-0.286082	0.557103
C71	C	0.820277	-0.000021	0.631038
C72	C	0.884512	-0.000025	0.631039
C73	C	0.631016	-0.000019	0.441771
C74	C	0.631018	-0.000022	0.377537
C75	C	0.631013	0.301513	0.631028
C76	C	0.631012	0.403846	0.631026
C77	C	0.594055	-0.058885	0.384319
C78	C	0.594057	-0.058889	0.323965
C79	C	0.631012	-0.000010	0.256829
C80	C	0.667983	0.058855	0.250050
C81	C	0.667986	0.058849	0.310404
C82	C	0.625730	0.098622	0.132898
C83	C	0.625722	0.098632	0.072547
C84	C	0.631007	0.000008	0.070675
C85	C	0.636285	-0.098625	0.129169
C86	C	0.636288	-0.098631	0.189523
C87	C	0.631013	0.000003	0.191381
C88	C	0.594044	-0.058865	0.012016
C89	C	0.594051	-0.058873	-0.048340
C90	C	0.667973	0.058883	-0.122256
C91	C	0.667970	0.058880	-0.061899
C92	C	0.631002	0.000008	0.005235
C93	C	0.631009	0.000002	0.820294
C94	C	0.631008	0.000006	0.884527
C95	C	0.441748	0.301526	0.631023
C96	C	0.377513	0.403864	0.631019
C97	C	0.441745	0.000015	0.820289
C98	C	0.377509	0.000023	0.884521
C99	C	0.631009	-0.301519	0.820299
C100	C	0.631008	-0.403849	0.884534
C101	C	0.631016	0.301502	0.441766
C102	C	0.631017	0.403832	0.377531
C103	C	0.820281	-0.000032	0.441776
C104	C	0.884517	-0.000040	0.377544
C105	C	0.820277	-0.301542	0.631042
C106	C	0.884512	-0.403880	0.631046
C107	C	0.384306	0.510806	0.594061
C108	C	0.323957	0.606973	0.594060
C109	C	0.256815	0.596194	0.631015
C110	C	0.250023	0.489240	0.667978
C111	C	0.310372	0.393076	0.667982
C112	C	0.310380	0.058915	0.877725
C113	C	0.250017	0.058946	0.938072
C114	C	0.256786	0.000076	1.005214
C115	C	0.323922	-0.058818	1.012007
C116	C	0.384283	-0.058841	0.951661
C117	C	0.594049	-0.393021	0.951661
C118	C	0.594051	-0.489162	1.012022
C119	C	0.631007	-0.596129	1.005255
C120	C	0.667971	-0.606954	0.938121
C121	C	0.667973	-0.510814	0.877761
C122	C	0.667984	0.393005	0.310404
C123	C	0.668001	0.489145	0.250042
C124	C	0.631047	0.596112	0.256809
C125	C	0.594080	0.606937	0.323943
C126	C	0.594067	0.510798	0.384304
C127	C	0.951646	-0.058922	0.384339
C128	C	1.012008	-0.058925	0.323993
C129	C	1.005239	-0.000052	0.256851
C130	C	0.938103	0.058837	0.250058
C131	C	0.877743	0.058847	0.310404
C132	C	0.951642	-0.393065	0.594084
C133	C	1.012003	-0.489214	0.594073
C134	C	1.005232	-0.596175	0.631028
C135	C	0.938095	-0.606987	0.667991
C136	C	0.877736	-0.510840	0.667998
H137	H	0.304850	0.106853	0.698066
Br138	Br	0.718138	0.247848	0.301201
H139	H	0.134389	-0.015249	0.743344
H140	H	0.563961	0.519627	0.438960
H141	H	0.698062	0.106825	-0.176918
Br142	Br	0.928929	0.138728	0.158932
Br143	Br	0.960851	-0.138827	0.475452
Br144	Br	1.103112	-0.138855	0.333229
H145	H	1.066663	-0.480388	0.563973
H146	H	0.563993	0.694041	0.329445
Br147	Br	0.718135	0.138773	-0.071102
H148	H	0.698067	-0.519646	0.823106
Br149	Br	1.087166	-0.000077	0.174959
H150	H	0.932593	-0.694088	0.698079
H151	H	0.024900	-0.015275	0.743348
Br152	Br	0.786633	-0.525538	0.718168
H153	H	0.823085	0.106792	0.304861
Br154	Br	0.158913	0.138876	0.928836
H155	H	0.195359	0.106841	0.698073
H156	H	0.698089	0.106780	0.304876
Br157	Br	0.174859	0.000118	1.087106
H158	H	0.957168	-0.305981	0.563989
H159	H	0.207681	0.674506	0.631006
Br160	Br	0.333191	0.752109	0.543891
Br161	Br	1.087158	-0.726650	0.631012
H162	H	0.621421	0.178945	0.024925
H163	H	0.698103	0.480309	0.195385
Br164	Br	-0.071129	0.138802	0.718139
H165	H	0.563948	-0.106815	0.438978
Br166	Br	0.301174	0.138823	0.786613
Br167	Br	0.630998	-0.726594	1.087181
Br168	Br	0.301140	0.247944	0.718135
Br169	Br	-0.213386	0.138785	0.718146
Br170	Br	0.543887	-0.138776	0.333163
Br171	Br	-0.039137	-0.138829	0.543924
Br172	Br	0.103118	-0.138828	0.543928
H173	H	0.237123	0.015284	0.518702
Br174	Br	0.126626	0.019825	0.485100
H175	H	0.329468	-0.106835	0.563983
Br176	Br	0.333096	-0.138711	1.103133
H177	H	0.563952	-0.305932	0.957184
Br178	Br	0.475418	-0.138819	0.543925
Br179	Br	0.158897	0.474632	0.718122
H180	H	0.563948	-0.480328	1.066680
Br181	Br	0.718143	0.138754	0.158938
H182	H	0.640571	-0.178927	0.127656
H183	H	0.631063	0.674386	0.207655
Br184	Br	0.792026	-0.869915	0.792088
H185	H	0.771963	-0.637399	0.772031
Br186	Br	0.704930	-0.844417	0.704940
Br187	Br	0.557110	-0.608858	0.557080
Br188	Br	0.704909	-0.391158	0.704989
Br189	Br	0.475385	-0.138781	0.960896
H190	H	0.490068	-0.362614	0.490026
H191	H	0.490064	-0.188170	0.490030
H192	H	0.557110	-0.207802	0.557112
H193	H	0.438971	0.519604	0.563964
Br194	Br	0.643455	-0.232483	0.268903
H195	H	0.563954	-0.106814	-0.042812
Br196	Br	0.543877	-0.138764	0.103128
H197	H	0.621439	0.178935	0.134408
Br198	Br	0.718124	-0.752132	0.928950
