data_functionalizedCrystal
_audit_creation_method	'MofGen! by Chris Wilmer'
_symmetry_space_group_name_H-M	'P1'
_symmetry_Int_Tables_number	1
_symmetry_cell_setting	triclinic
loop_
_symmetry_equiv_pos_as_xyz
  x,y,z
_cell_length_a	21.295417
_cell_length_b	12.594517
_cell_length_c	21.295411
_cell_angle_alpha	90.024853
_cell_angle_beta	89.978356
_cell_angle_gamma	89.969694
loop_
_atom_site_label
_atom_site_type_symbol
_atom_site_fract_x
_atom_site_fract_y
_atom_site_fract_z
Zn1	Zn	-0.250684	-1.627197	-0.355916
Zn2	Zn	-0.355936	-1.627032	-0.250642
Zn3	Zn	-0.250684	-1.449190	-0.250661
Zn4	Zn	-0.355919	-1.449138	-0.355873
O5	O	-0.303306	-1.538139	-0.303273
O6	O	-0.264653	-1.776121	-0.341962
O7	O	-0.341981	-1.603393	-0.162555
O8	O	-0.162595	-1.472894	-0.264649
O9	O	-0.341981	-1.776000	-0.264617
O10	O	-0.162595	-1.603675	-0.341980
O11	O	-0.264653	-1.472734	-0.162569
O12	O	-0.264637	-1.300237	-0.264607
O13	O	-0.341952	-1.472805	-0.443968
O14	O	-0.341953	-1.300199	-0.341906
O15	O	-0.264637	-1.603625	-0.444000
O16	O	-0.444023	-1.603343	-0.264575
O17	O	-0.444011	-1.472645	-0.341888
C18	C	-0.303293	-1.261598	-0.303254
C19	C	-0.303303	-1.143293	-0.303261
C20	C	-0.466858	-1.538000	-0.303238
C21	C	-0.536826	-1.538037	-0.303244
C22	C	-0.303293	-1.538228	-0.467463
C23	C	-0.303287	-1.538265	-0.537431
C24	C	-0.569678	-1.606152	-0.263029
C25	C	-0.635420	-1.606202	-0.263043
C26	C	-0.668308	-1.538118	-0.303266
C27	C	-0.635448	-1.469999	-0.343489
C28	C	-0.569707	-1.469958	-0.343478
N29	N	-0.771575	-1.445008	-0.308059
N30	N	-0.834026	-1.445050	-0.308065
C31	C	-0.866383	-1.538237	-0.303302
N32	N	-0.833929	-1.631384	-0.298520
N33	N	-0.771472	-1.631342	-0.298510
C34	C	-0.739594	-1.538155	-0.303282
C35	C	-0.970521	-1.606412	-0.263100
C36	C	-1.036264	-1.606464	-0.263118
C37	C	-1.036291	-1.470251	-0.343561
C38	C	-0.970548	-1.470209	-0.343546
C39	C	-0.937667	-1.538288	-0.303312
C40	C	-0.139116	-1.538308	-0.303322
C41	C	-0.069148	-1.538380	-0.303342
C42	C	-0.303319	-1.815760	-0.303292
C43	C	-0.303325	-1.934066	-0.303300
C44	C	-0.261194	-1.074030	-0.261299
C45	C	-0.318610	-1.003192	-0.245807
C46	C	-0.245915	-1.003331	-0.318764
C47	C	-0.360749	-1.074014	-0.287740
C48	C	-0.288016	-1.074159	-0.360723
C49	C	-0.345472	-1.003354	-0.345253
C50	C	-0.263027	-1.606380	-0.570316
C51	C	-0.263000	-1.606378	-0.636058
C52	C	-0.303244	-1.538274	-0.668914
C53	C	-0.343507	-1.470146	-0.636022
C54	C	-0.343528	-1.470142	-0.570280
N55	N	-0.358311	-1.530062	-0.772129
N56	N	-0.358289	-1.530072	-0.834581
C57	C	-0.303180	-1.538280	-0.866989
N58	N	-0.248093	-1.546499	-0.834586
N59	N	-0.248116	-1.546494	-0.772129
C60	C	-0.303224	-1.538270	-0.740199
C61	C	-0.262887	-1.606397	-0.971159
C62	C	-0.262858	-1.606388	-1.036902
C63	C	-0.343371	-1.470161	-1.036865
C64	C	-0.343394	-1.470164	-0.971122
C65	C	-0.303153	-1.538288	-0.938273
C66	C	-0.303274	-1.538113	-0.139721
C67	C	-0.303102	-1.538281	-0.069754
H68	H	-0.542908	-1.661589	-0.230269
H69	H	-0.275055	-1.105354	-0.409286
N70	N	-1.069876	-1.400688	-0.384640
N71	N	-1.062588	-1.302472	-0.380407
H72	H	-1.086310	-1.253342	-0.409421
H73	H	-0.662229	-1.414566	-0.376240
H74	H	-0.542958	-1.414490	-0.376228
H75	H	-0.376312	-1.414670	-0.543506
N76	N	-0.185028	-0.964363	-0.335204
N77	N	-0.175414	-0.866607	-0.338305
H78	H	-0.132412	-0.839086	-0.349913
H79	H	-1.063012	-1.661938	-0.230371
H80	H	-0.376272	-1.414691	-0.662777
H81	H	-0.230259	-1.661850	-0.543574
H82	H	-0.943748	-1.661850	-0.230340
H83	H	-0.943798	-1.414739	-0.376291
N84	N	-0.421656	-1.112809	-0.271231
N85	N	-0.428381	-1.170074	-0.223778
H86	H	-0.471394	-1.197476	-0.212116
H87	H	-0.381132	-0.972516	-0.380756
N88	N	-0.221778	-1.675955	-0.937590
N89	N	-0.221803	-1.675945	-0.878893
H90	H	-0.192769	-1.725070	-0.855185
H91	H	-0.230212	-1.661843	-0.662838
H92	H	-0.230070	-1.661853	-1.063676
N93	N	-0.384470	-1.400589	-1.070427
N94	N	-0.384443	-1.400595	-1.129124
H95	H	-0.413468	-1.351454	-1.152832
H96	H	-0.376182	-1.414704	-0.944348
H97	H	-0.662174	-1.661673	-0.230295
H98	H	-0.331554	-0.972023	-0.197230
N99	N	-0.216567	-1.112953	-0.216724
N100	N	-0.222271	-1.090163	-0.159872
H101	H	-0.190755	-1.117652	-0.128389
