data_functionalizedCrystal
_audit_creation_method	'MofGen! by Chris Wilmer'
_symmetry_space_group_name_H-M	'P1'
_symmetry_Int_Tables_number	1
_symmetry_cell_setting	triclinic
loop_
_symmetry_equiv_pos_as_xyz
  x,y,z
_cell_length_a	19.121102
_cell_length_b	19.121411
_cell_length_c	19.121510
_cell_angle_alpha	90.220995
_cell_angle_beta	85.140415
_cell_angle_gamma	94.959226
loop_
_atom_site_label
_atom_site_type_symbol
_atom_site_fract_x
_atom_site_fract_y
_atom_site_fract_z
Zn1	Zn	1.107224	0.344565	-0.429609
Zn2	Zn	1.357224	0.594565	-0.179609
Zn3	Zn	1.607224	0.844565	0.070391
Zn4	Zn	1.857224	1.094565	0.320391
Zn5	Zn	1.106573	0.456970	-0.307351
Zn6	Zn	1.356573	0.706970	-0.057351
Zn7	Zn	1.606573	0.956970	0.192649
Zn8	Zn	1.856573	1.206970	0.442649
Zn9	Zn	0.983982	0.334302	-0.307364
Zn10	Zn	1.233982	0.584302	-0.057364
Zn11	Zn	1.483982	0.834302	0.192636
Zn12	Zn	1.733982	1.084302	0.442636
Zn13	Zn	0.994099	0.456749	-0.419974
Zn14	Zn	1.244099	0.706749	-0.169974
Zn15	Zn	1.494099	0.956749	0.080026
Zn16	Zn	1.744099	1.206749	0.330026
O17	O	1.047970	0.398147	-0.366074
O18	O	1.297970	0.648147	-0.116074
O19	O	1.547970	0.898147	0.133926
O20	O	1.797970	1.148147	0.383926
O21	O	1.205785	0.363864	-0.417418
O22	O	1.455785	0.613864	-0.167418
O23	O	1.705785	0.863864	0.082582
O24	O	1.955785	1.113864	0.332582
O25	O	1.085805	0.436496	-0.209059
O26	O	1.335805	0.686496	0.040941
O27	O	1.585805	0.936496	0.290941
O28	O	1.835805	1.186496	0.540941
O29	O	0.996369	0.237377	-0.327618
O30	O	1.246369	0.487377	-0.077618
O31	O	1.496369	0.737377	0.172382
O32	O	1.746369	0.987377	0.422382
O33	O	1.205307	0.446448	-0.327595
O34	O	1.455307	0.696448	-0.077595
O35	O	1.705307	0.946448	0.172405
O36	O	1.955307	1.196448	0.422405
O37	O	1.086914	0.244918	-0.417431
O38	O	1.336914	0.494918	-0.167431
O39	O	1.586914	0.744918	0.082569
O40	O	1.836914	0.994918	0.332569
O41	O	0.995738	0.346372	-0.209069
O42	O	1.245738	0.596372	0.040931
O43	O	1.495738	0.846372	0.290931
O44	O	1.745738	1.096372	0.540931
O45	O	0.886677	0.346157	-0.318275
O46	O	1.136677	0.596157	-0.068275
O47	O	1.386677	0.846157	0.181725
O48	O	1.636677	1.096157	0.431725
O49	O	1.013611	0.446070	-0.519545
O50	O	1.263611	0.696070	-0.269545
O51	O	1.513611	0.946070	-0.019545
O52	O	1.763611	1.196070	0.230455
O53	O	0.894109	0.436118	-0.401009
O54	O	1.144109	0.686118	-0.151009
O55	O	1.394109	0.936118	0.098991
O56	O	1.644109	1.186118	0.348991
O57	O	1.096724	0.363649	-0.526625
O58	O	1.346724	0.613649	-0.276625
O59	O	1.596724	0.863649	-0.026625
O60	O	1.846724	1.113649	0.223375
O61	O	1.095615	0.555227	-0.318252
O62	O	1.345615	0.805227	-0.068252
O63	O	1.595615	1.055227	0.181748
O64	O	1.845615	1.305227	0.431748
O65	O	1.012981	0.555065	-0.400996
O66	O	1.262981	0.805065	-0.150996
O67	O	1.512981	1.055065	0.099004
O68	O	1.762981	1.305065	0.349004
C69	C	0.864815	0.390000	-0.358598
C70	C	1.114815	0.640000	-0.108598
C71	C	1.364815	0.890000	0.141402
C72	C	1.614815	1.140000	0.391402
C73	C	0.786462	0.386533	-0.355416
C74	C	1.036462	0.636533	-0.105416
C75	C	1.286462	0.886533	0.144584
C76	C	1.536462	1.136533	0.394584
C77	C	1.055345	0.580632	-0.358593
C78	C	1.305345	0.830632	-0.108593
C79	C	1.555345	1.080632	0.141407
C80	C	1.805345	1.330632	0.391407
C81	C	1.058565	0.658704	-0.355419
C82	C	1.308565	0.908704	-0.105419
C83	C	1.558565	1.158704	0.144581
C84	C	1.808565	1.408704	0.394581
C85	C	1.056369	0.405980	-0.549284
C86	C	1.306369	0.655980	-0.299284
C87	C	1.556369	0.905980	-0.049284
C88	C	1.806369	1.155980	0.200716
C89	C	1.059948	0.409318	-0.627357
C90	C	1.309948	0.659318	-0.377357
C91	C	1.559948	0.909318	-0.127357
C92	C	1.809948	1.159318	0.122643
C93	C	0.753539	0.431807	-0.396923
C94	C	1.003539	0.681807	-0.146923
C95	C	1.253539	0.931807	0.103077
C96	C	1.503539	1.181807	0.353077
C97	C	0.679918	0.428540	-0.393936
C98	C	0.929918	0.678540	-0.143936
C99	C	1.179918	0.928540	0.106064
C100	C	1.429918	1.178540	0.356064
C101	C	0.639221	0.380002	-0.349439
C102	C	0.889221	0.630002	-0.099439
C103	C	1.139221	0.880002	0.150561
C104	C	1.389221	1.130002	0.400561
C105	C	0.672148	0.334723	-0.307930
C106	C	0.922148	0.584723	-0.057930
C107	C	1.172148	0.834723	0.192070
C108	C	1.422148	1.084723	0.442070
C109	C	0.745768	0.337987	-0.310921
C110	C	0.995768	0.587987	-0.060921
C111	C	1.245768	0.837987	0.189079
C112	C	1.495768	1.087987	0.439079
C113	C	0.416742	0.367796	-0.338261
C114	C	0.666742	0.617796	-0.088261
C115	C	0.916742	0.867796	0.161739
C116	C	1.166742	1.117796	0.411739
C117	C	0.343117	0.364537	-0.335272
C118	C	0.593117	0.614537	-0.085272
C119	C	0.843117	0.864537	0.164728
C120	C	1.093117	1.114537	0.414728
C121	C	0.350892	0.458353	-0.421279
C122	C	0.600892	0.708353	-0.171279
C123	C	0.850892	0.958353	0.078721
C124	C	1.100892	1.208353	0.328721
C125	C	0.424513	0.461616	-0.424263
C126	C	0.674513	0.711616	-0.174263
C127	C	0.924513	0.961616	0.075737
C128	C	1.174513	1.211616	0.325737
C129	C	0.457434	0.416335	-0.382757
C130	C	0.707434	0.666335	-0.132757
C131	C	0.957434	0.916335	0.117243
C132	C	1.207434	1.166335	0.367243
C133	C	0.563968	0.376663	-0.346383
C134	C	0.813968	0.626663	-0.096383
C135	C	1.063968	0.876663	0.153617
C136	C	1.313968	1.126663	0.403617
C137	C	0.532685	0.419671	-0.385817
C138	C	0.782685	0.669671	-0.135817
C139	C	1.032685	0.919671	0.114183
C140	C	1.282685	1.169671	0.364183
C141	C	1.231840	0.406325	-0.373580
C142	C	1.481840	0.656325	-0.123580
C143	C	1.731840	0.906325	0.126420
C144	C	1.981840	1.156325	0.376420
C145	C	1.310194	0.409811	-0.376779
C146	C	1.560194	0.659811	-0.126779
C147	C	1.810194	0.909811	0.123221
C148	C	2.060194	1.159811	0.373221
C149	C	1.078955	1.100266	-0.335289
C150	C	1.328955	1.350266	-0.085289
C151	C	1.578955	1.600266	0.164711
C152	C	1.828955	1.850266	0.414711
C153	C	1.075922	1.026909	-0.338273
C154	C	1.325922	1.276909	-0.088273
C155	C	1.575922	1.526909	0.161727
C156	C	1.825922	1.776909	0.411727
C157	C	1.031350	0.990171	-0.382809
C158	C	1.281350	1.240171	-0.132809
C159	C	1.531350	1.490171	0.117191
C160	C	1.781350	1.740171	0.367191
C161	C	0.989801	1.026793	-0.424359
C162	C	1.239801	1.276793	-0.174359
C163	C	1.489801	1.526793	0.075641
C164	C	1.739801	1.776793	0.325641
C165	C	0.992830	1.100148	-0.421371
C166	C	1.242830	1.350148	-0.171371
C167	C	1.492830	1.600148	0.078629
C168	C	1.742830	1.850148	0.328629
C169	C	1.020046	0.768681	-0.393981
C170	C	1.270046	1.018681	-0.143981
C171	C	1.520046	1.268681	0.106019
C172	C	1.770046	1.518681	0.356019
C173	C	1.017022	0.695321	-0.396968
C174	C	1.267022	0.945321	-0.146968
C175	C	1.517022	1.195321	0.103032
C176	C	1.767022	1.445321	0.353032
C177	C	1.103142	0.695442	-0.310879
C178	C	1.353142	0.945442	-0.060879
C179	C	1.603142	1.195442	0.189121
C180	C	1.853142	1.445442	0.439121
C181	C	1.106171	0.768799	-0.307898
C182	C	1.356171	1.018799	-0.057898
C183	C	1.606171	1.268799	0.192102
C184	C	1.856171	1.518799	0.442102
C185	C	1.064620	0.805415	-0.349446
C186	C	1.314620	1.055415	-0.099446
C187	C	1.564620	1.305415	0.150554
C188	C	1.814620	1.555415	0.400554
C189	C	1.028251	0.915188	-0.385862
C190	C	1.278251	1.165188	-0.135862
C191	C	1.528251	1.415188	0.114138
C192	C	1.778251	1.665188	0.364138
C193	C	1.067715	0.880396	-0.346389
C194	C	1.317715	1.130396	-0.096389
C195	C	1.567715	1.380396	0.153611
C196	C	1.817715	1.630396	0.403611
C197	C	1.040579	1.214950	-0.373608
C198	C	1.290579	1.464950	-0.123608
C199	C	1.540579	1.714950	0.126392
C200	C	1.790579	1.964950	0.376392
C201	C	1.037411	1.136883	-0.376837
C202	C	1.287411	1.386883	-0.126837
C203	C	1.537411	1.636883	0.123163
C204	C	1.787411	1.886883	0.373163
C205	C	1.039642	0.390295	-0.183581
C206	C	1.289642	0.640295	0.066419
C207	C	1.539642	0.890295	0.316419
C208	C	1.789642	1.140295	0.566419
C209	C	1.036191	0.386766	-0.105522
C210	C	1.286191	0.636766	0.144478
C211	C	1.536191	0.886766	0.394478
C212	C	1.786191	1.136766	0.644478
C213	C	1.014360	0.364378	0.335957
C214	C	1.264360	0.614378	0.585957
C215	C	1.514360	0.864378	0.835957
C216	C	1.764360	1.114378	1.085957
C217	C	1.017592	0.367712	0.262613
C218	C	1.267592	0.617712	0.512613
C219	C	1.517592	0.867712	0.762613
C220	C	1.767592	1.117712	1.012613
C221	C	1.066416	0.415984	0.225957
C222	C	1.316416	0.665984	0.475957
C223	C	1.566416	0.915984	0.725957
C224	C	1.816416	1.165984	0.975957
C225	C	1.112006	0.460929	0.262649
C226	C	1.362006	0.710929	0.512649
C227	C	1.612006	0.960929	0.762649
C228	C	1.862006	1.210929	1.012649
C229	C	1.108770	0.457597	0.335991
C230	C	1.358770	0.707597	0.585991
C231	C	1.608770	0.957597	0.835991
C232	C	1.858770	1.207597	1.085991
C233	C	1.078545	0.428379	0.004512
C234	C	1.328545	0.678379	0.254512
C235	C	1.578545	0.928379	0.504512
C236	C	1.828545	1.178379	0.754512
C237	C	1.081779	0.431706	-0.068836
C238	C	1.331779	0.681706	0.181164
C239	C	1.581779	0.931706	0.431164
C240	C	1.831779	1.181706	0.681164
C241	C	0.987364	0.338490	-0.068866
C242	C	1.237364	0.588490	0.181134
C243	C	1.487364	0.838490	0.431134
C244	C	1.737364	1.088490	0.681134
C245	C	0.984135	0.335159	0.004477
C246	C	1.234135	0.585159	0.254477
C247	C	1.484135	0.835159	0.504477
C248	C	1.734135	1.085159	0.754477
C249	C	1.029723	0.380106	0.041162
C250	C	1.279723	0.630106	0.291162
C251	C	1.529723	0.880106	0.541162
C252	C	1.779723	1.130106	0.791162
C253	C	1.069722	0.419392	0.150988
C254	C	1.319722	0.669392	0.400988
C255	C	1.569722	0.919392	0.650988
C256	C	1.819722	1.169392	0.900988
C257	C	1.026412	0.376701	0.116130
C258	C	1.276412	0.626701	0.366130
C259	C	1.526412	0.876701	0.616130
C260	C	1.776412	1.126701	0.866130
H261	H	0.786670	0.471334	-0.433155
H262	H	1.036670	0.721334	-0.183155
H263	H	1.286670	0.971334	0.066845
H264	H	1.536670	1.221334	0.316845
H265	H	1.151756	0.500236	0.232798
H266	H	1.401756	0.750236	0.482798
H267	H	1.651756	1.000236	0.732798
H268	H	1.901756	1.250236	0.982798
Cl269	Cl	0.291955	0.303518	-0.279323
Cl270	Cl	0.541955	0.553518	-0.029323
Cl271	Cl	0.791955	0.803518	0.220677
Cl272	Cl	1.041955	1.053518	0.470677
H273	H	0.959005	1.129961	-0.455209
H274	H	1.209005	1.379961	-0.205209
H275	H	1.459005	1.629961	0.044791
H276	H	1.709005	1.879961	0.294791
H277	H	0.944376	0.295853	0.034318
H278	H	1.194376	0.545853	0.284318
H279	H	1.444376	0.795853	0.534318
H280	H	1.694376	1.045853	0.784318
H281	H	1.136970	0.665623	-0.277052
H282	H	1.386970	0.915623	-0.027052
H283	H	1.636970	1.165623	0.222948
H284	H	1.886970	1.415623	0.472948
Cl285	Cl	0.952981	0.303686	0.382031
Cl286	Cl	1.202981	0.553686	0.632031
Cl287	Cl	1.452981	0.803686	0.882031
Cl288	Cl	1.702981	1.053686	1.132031
H289	H	1.115658	0.464985	0.034373
H290	H	1.365658	0.714985	0.284373
H291	H	1.615658	0.964985	0.534373
H292	H	1.865658	1.214985	0.784373
Cl293	Cl	1.166080	0.514099	0.382112
Cl294	Cl	1.416080	0.764099	0.632112
Cl295	Cl	1.666080	1.014099	0.882112
Cl296	Cl	1.916080	1.264099	1.132112
Cl297	Cl	0.930056	0.281991	-0.114989
Cl298	Cl	1.180056	0.531991	0.135011
Cl299	Cl	1.430056	0.781991	0.385011
Cl300	Cl	1.680056	1.031991	0.635011
Cl301	Cl	0.458119	0.310869	-0.286084
Cl302	Cl	0.708119	0.560869	-0.036084
Cl303	Cl	0.958119	0.810869	0.213916
Cl304	Cl	1.208119	1.060869	0.463916
Cl305	Cl	0.965038	0.316017	0.162213
Cl306	Cl	1.215038	0.566017	0.412213
Cl307	Cl	1.465038	0.816017	0.662213
Cl308	Cl	1.715038	1.066017	0.912213
Cl309	Cl	1.123746	0.926582	-0.290401
Cl310	Cl	1.373746	1.176582	-0.040401
Cl311	Cl	1.623746	1.426582	0.209599
Cl312	Cl	1.873746	1.676582	0.459599
Cl313	Cl	1.162210	0.814979	-0.251910
Cl314	Cl	1.412210	1.064979	-0.001910
Cl315	Cl	1.662210	1.314979	0.248090
Cl316	Cl	1.912210	1.564979	0.498090
H317	H	0.991960	0.885270	-0.422126
H318	H	1.241960	1.135270	-0.172126
H319	H	1.491960	1.385270	0.077874
H320	H	1.741960	1.635270	0.327874
Cl321	Cl	0.933767	0.980607	-0.480349
Cl322	Cl	1.183767	1.230607	-0.230349
Cl323	Cl	1.433767	1.480607	0.019651
Cl324	Cl	1.683767	1.730607	0.269651
H325	H	1.109474	0.458696	0.121135
H326	H	1.359474	0.708696	0.371135
H327	H	1.609474	0.958696	0.621135
H328	H	1.859474	1.208696	0.871135
Cl329	Cl	0.638533	0.485458	-0.446119
Cl330	Cl	0.888533	0.735458	-0.196119
Cl331	Cl	1.138533	0.985458	0.053881
Cl332	Cl	1.388533	1.235458	0.303881
H333	H	0.457644	0.501142	-0.460495
H334	H	0.707644	0.751142	-0.210495
H335	H	0.957644	1.001142	0.039505
H336	H	1.207644	1.251142	0.289505
H337	H	0.324079	0.495217	-0.455072
H338	H	0.574079	0.745217	-0.205072
H339	H	0.824079	0.995217	0.044928
H340	H	1.074079	1.245217	0.294928
H341	H	0.639007	0.295200	-0.271703
H342	H	0.889007	0.545200	-0.021703
H343	H	1.139007	0.795200	0.228297
H344	H	1.389007	1.045200	0.478297
Cl345	Cl	0.960247	0.311245	0.216499
Cl346	Cl	1.210247	0.561245	0.466499
Cl347	Cl	1.460247	0.811245	0.716499
Cl348	Cl	1.710247	1.061245	0.966499
Cl349	Cl	0.787157	0.281068	-0.258741
Cl350	Cl	1.037157	0.531068	-0.008741
Cl351	Cl	1.287157	0.781068	0.241259
Cl352	Cl	1.537157	1.031068	0.491259
H353	H	0.565824	0.459187	-0.422049
H354	H	0.815824	0.709187	-0.172049
H355	H	1.065824	0.959187	0.077951
H356	H	1.315824	1.209187	0.327951
H357	H	1.121540	0.471015	-0.098679
H358	H	1.371540	0.721015	0.151321
H359	H	1.621540	0.971015	0.401321
H360	H	1.871540	1.221015	0.651321
H361	H	0.530824	0.337144	-0.310152
H362	H	0.780824	0.587144	-0.060152
H363	H	1.030824	0.837144	0.189848
H364	H	1.280824	1.087144	0.439848
Cl365	Cl	1.134995	1.146444	-0.279300
Cl366	Cl	1.384995	1.396444	-0.029300
Cl367	Cl	1.634995	1.646444	0.220700
Cl368	Cl	1.884995	1.896444	0.470700
H369	H	0.980724	0.665412	-0.433237
H370	H	1.230724	0.915412	-0.183237
H371	H	1.480724	1.165412	0.066763
H372	H	1.730724	1.415412	0.316763
Cl373	Cl	1.128159	0.980880	-0.286045
Cl374	Cl	1.378159	1.230880	-0.036045
Cl375	Cl	1.628159	1.480880	0.213955
Cl376	Cl	1.878159	1.730880	0.463955
Cl377	Cl	0.967823	0.814704	-0.446225
Cl378	Cl	1.217823	1.064704	-0.196225
Cl379	Cl	1.467823	1.314704	0.053775
Cl380	Cl	1.717823	1.564704	0.303775
