data_functionalizedCrystal
_audit_creation_method	'MofGen! by Chris Wilmer'
_symmetry_space_group_name_H-M	'P1'
_symmetry_Int_Tables_number	1
_symmetry_cell_setting	triclinic
loop_
_symmetry_equiv_pos_as_xyz
  x,y,z
_cell_length_a	12.759401
_cell_length_b	12.645330
_cell_length_c	12.759393
_cell_angle_alpha	90.031109
_cell_angle_beta	90.019676
_cell_angle_gamma	90.013072
loop_
_atom_site_label
_atom_site_type_symbol
_atom_site_fract_x
_atom_site_fract_y
_atom_site_fract_z
Zn1	Zn	1.606281	-0.421976	0.593980
Zn2	Zn	1.939615	-0.088643	0.927314
Zn3	Zn	2.272948	0.244691	1.260647
Zn4	Zn	1.606179	-0.599277	0.418298
Zn5	Zn	1.939512	-0.265943	0.751632
Zn6	Zn	2.272845	0.067390	1.084965
Zn7	Zn	1.430580	-0.422029	0.418319
Zn8	Zn	1.763913	-0.088696	0.751653
Zn9	Zn	2.097247	0.244638	1.084986
Zn10	Zn	1.430578	-0.599199	0.593940
Zn11	Zn	1.763912	-0.265866	0.927273
Zn12	Zn	2.097245	0.067467	1.260606
O13	O	1.518405	-0.510620	0.506134
O14	O	1.851738	-0.177287	0.839468
O15	O	2.185071	0.156046	1.172801
O16	O	1.753289	-0.445506	0.570684
O17	O	2.086622	-0.112172	0.904017
O18	O	2.419955	0.221161	1.237351
O19	O	1.582843	-0.575819	0.271280
O20	O	1.916176	-0.242486	0.604613
O21	O	2.249510	0.090848	0.937947
O22	O	1.453931	-0.273675	0.441647
O23	O	1.787264	0.059659	0.774980
O24	O	2.120598	0.392992	1.108313
O25	O	1.753213	-0.575768	0.441611
O26	O	2.086547	-0.242434	0.774945
O27	O	2.419880	0.090899	1.108278
O28	O	1.583018	-0.273636	0.570704
O29	O	1.916351	0.059698	0.904038
O30	O	2.249685	0.393031	1.237371
O31	O	1.453831	-0.445596	0.271295
O32	O	1.787165	-0.112263	0.604629
O33	O	2.120498	0.221071	0.937962
O34	O	1.283559	-0.445521	0.441607
O35	O	1.616892	-0.112187	0.774941
O36	O	1.950225	0.221146	1.108274
O37	O	1.453928	-0.575636	0.740966
O38	O	1.787261	-0.242302	1.074299
O39	O	2.120594	0.091031	1.407633
O40	O	1.283557	-0.575687	0.570635
O41	O	1.616891	-0.242354	0.903968
O42	O	1.950224	0.090980	1.237302
O43	O	1.583016	-0.445430	0.740996
O44	O	1.916349	-0.112097	1.074329
O45	O	2.249683	0.221236	1.407663
O46	O	1.582841	-0.747614	0.441572
O47	O	1.916175	-0.414280	0.774905
O48	O	2.249508	-0.080947	1.108239
O49	O	1.453828	-0.747557	0.570615
O50	O	1.787162	-0.414223	0.903948
O51	O	2.120495	-0.080890	1.237281
C52	C	1.245437	-0.510602	0.506120
C53	C	1.578771	-0.177269	0.839453
C54	C	1.912104	0.156065	1.172786
C55	C	1.128661	-0.510620	0.506138
C56	C	1.461994	-0.177286	0.839471
C57	C	1.795327	0.156047	1.172805
C58	C	1.073839	-0.442915	0.573450
C59	C	1.407172	-0.109581	0.906783
C60	C	1.740505	0.223752	1.240117
C61	C	0.964114	-0.442926	0.573457
C62	C	1.297448	-0.109592	0.906790
C63	C	1.630781	0.223741	1.240123
C64	C	0.964044	-0.578355	0.438837
C65	C	1.297378	-0.245022	0.772171
C66	C	1.630711	0.088311	1.105504
C67	C	1.073766	-0.578338	0.438826
C68	C	1.407100	-0.245005	0.772159
C69	C	1.740433	0.088328	1.105493
C70	C	1.518352	-0.786050	0.506110
C71	C	1.851685	-0.452717	0.839443
C72	C	2.185019	-0.119383	1.172776
C73	C	1.518426	-0.903880	0.506134
C74	C	1.851759	-0.570547	0.839467
C75	C	2.185092	-0.237213	1.172801
C76	C	1.599457	-1.071436	0.424788
C77	C	1.932791	-0.738102	0.758122
C78	C	2.266124	-0.404769	1.091455
C79	C	1.599721	-0.948875	0.424988
C80	C	1.933055	-0.615542	0.758321
C81	C	2.266388	-0.282209	1.091654
C82	C	1.548455	-0.948254	0.616878
C83	C	1.881789	-0.614921	0.950212
C84	C	2.215122	-0.281587	1.283545
C85	C	1.549098	-1.070852	0.616447
C86	C	1.882432	-0.737519	0.949780
C87	C	2.215765	-0.404185	1.283113
C88	C	1.407332	-1.071210	0.477827
C89	C	1.740666	-0.737877	0.811160
C90	C	2.073999	-0.404544	1.144494
C91	C	1.407865	-0.948606	0.475343
C92	C	1.741198	-0.615273	0.808677
C93	C	2.074531	-0.281939	1.142010
C94	C	1.792438	-0.510639	0.506150
C95	C	2.125771	-0.177306	0.839483
C96	C	2.459105	0.156027	1.172817
C97	C	1.909214	-0.510647	0.506157
C98	C	2.242548	-0.177314	0.839490
C99	C	2.575881	0.156019	1.172823
C100	C	1.518483	-0.510518	0.780168
C101	C	1.851817	-0.177185	1.113501
C102	C	2.185150	0.156148	1.446835
C103	C	1.518517	-0.510475	0.896945
C104	C	1.851850	-0.177142	1.230278
C105	C	2.185183	0.156192	1.563611
C106	C	1.518486	-0.234115	0.506182
C107	C	1.851819	0.099218	0.839516
C108	C	2.185153	0.432552	1.172849
C109	C	1.518521	-0.116285	0.506203
C110	C	1.851854	0.217048	0.839536
C111	C	2.185187	0.550382	1.172869
C112	C	1.518387	-0.510645	0.233167
C113	C	1.851720	-0.177312	0.566500
C114	C	2.185053	0.156022	0.899834
C115	C	1.518557	-0.510390	0.116391
C116	C	1.851890	-0.177056	0.449724
C117	C	2.185223	0.156277	0.783058
C118	C	1.585738	-0.442666	0.951824
C119	C	1.919071	-0.109333	1.285157
C120	C	2.252405	0.224000	1.618490
C121	C	1.585756	-0.442621	1.061548
C122	C	1.919089	-0.109287	1.394881
C123	C	2.252422	0.224046	1.728215
C124	C	1.451328	-0.578201	1.061504
C125	C	1.784661	-0.244868	1.394837
C126	C	2.117995	0.088465	1.728171
C127	C	1.451306	-0.578241	0.951782
C128	C	1.784639	-0.244908	1.285115
C129	C	2.117972	0.088426	1.618449
H130	H	0.919483	-0.387792	0.628267
H131	H	1.252817	-0.054458	0.961601
H132	H	1.586150	0.278875	1.294934
F133	F	1.657267	-0.370541	0.893466
F134	F	1.990600	-0.037208	1.226799
F135	F	2.323934	0.296125	1.560132
F136	F	1.132258	-0.370840	0.645086
F137	F	1.465591	-0.037506	0.978420
F138	F	1.798924	0.295827	1.311753
H139	H	1.385222	-0.919615	0.393845
H140	H	1.718556	-0.586282	0.727178
H141	H	2.051889	-0.252949	1.060511
H142	H	0.919336	-0.633490	0.384035
H143	H	1.252669	-0.300157	0.717369
H144	H	1.586003	0.033176	1.050702
F145	F	1.132115	-0.650394	0.367171
F146	F	1.465449	-0.317061	0.700504
F147	F	1.798782	0.016272	1.033838
H148	H	1.380025	-1.102225	0.398479
H149	H	1.713358	-0.768892	0.731812
H150	H	2.046691	-0.435559	1.065146
H151	H	1.580932	-0.918878	0.342872
H152	H	1.914266	-0.585545	0.676206
H153	H	2.247599	-0.252212	1.009539
H154	H	1.580903	-1.100994	0.342433
H155	H	1.914237	-0.767661	0.675766
H156	H	2.247570	-0.434328	1.009100
H157	H	1.681369	-1.102164	0.443347
H158	H	2.014702	-0.768831	0.776680
H159	H	2.348035	-0.435497	1.110013
F160	F	1.707362	-0.910429	0.449524
F161	F	2.040695	-0.577096	0.782857
F162	F	2.374029	-0.243763	1.116191
F163	F	1.475383	-1.109628	0.698427
F164	F	1.808717	-0.776294	1.031761
F165	F	2.142050	-0.442961	1.365094
H166	H	1.630372	-1.099362	0.640483
H167	H	1.963705	-0.766029	0.973817
H168	H	2.297038	-0.432696	1.307150
F169	F	1.473744	-0.910165	0.698290
F170	F	1.807077	-0.576832	1.031624
F171	F	2.140410	-0.243499	1.364957
H172	H	1.640492	-0.387402	1.106226
H173	H	1.973826	-0.054069	1.439559
H174	H	2.307159	0.279264	1.772892
H175	H	1.628811	-0.917463	0.641316
H176	H	1.962144	-0.584130	0.974649
H177	H	2.295477	-0.250797	1.307982
F178	F	1.379751	-0.650411	0.893372
F179	F	1.713084	-0.317078	1.226705
F180	F	2.046418	0.016255	1.560039
H181	H	1.347028	-1.100214	0.537124
H182	H	1.680361	-0.766881	0.870458
H183	H	2.013695	-0.433548	1.203791
F184	F	1.324787	-0.908587	0.547167
F185	F	1.658121	-0.575254	0.880500
F186	F	1.991454	-0.241921	1.213833
F187	F	1.379805	-0.650323	1.119875
F188	F	1.713139	-0.316989	1.453208
F189	F	2.046472	0.016344	1.786542
