data_functionalizedCrystal
_audit_creation_method	'MofGen! by Chris Wilmer'
_symmetry_space_group_name_H-M	'P1'
_symmetry_Int_Tables_number	1
_symmetry_cell_setting	triclinic
loop_
_symmetry_equiv_pos_as_xyz
  x,y,z
_cell_length_a	19.121063
_cell_length_b	19.121215
_cell_length_c	19.805399
_cell_angle_alpha	87.535432
_cell_angle_beta	92.411105
_cell_angle_gamma	95.002544
loop_
_atom_site_label
_atom_site_type_symbol
_atom_site_fract_x
_atom_site_fract_y
_atom_site_fract_z
Zn1	Zn	-0.234359	1.063742	-0.436177
Zn2	Zn	0.015641	1.313742	-0.186177
Zn3	Zn	0.265641	1.563742	0.063823
Zn4	Zn	0.515641	1.813742	0.313823
Zn5	Zn	-0.352029	1.058631	-0.327610
Zn6	Zn	-0.102029	1.308631	-0.077610
Zn7	Zn	0.147971	1.558631	0.172390
Zn8	Zn	0.397971	1.808631	0.422390
Zn9	Zn	-0.239386	0.946075	-0.318359
Zn10	Zn	0.010614	1.196075	-0.068359
Zn11	Zn	0.260614	1.446075	0.181641
Zn12	Zn	0.510614	1.696075	0.431641
Zn13	Zn	-0.356997	0.941017	-0.436115
Zn14	Zn	-0.106997	1.191017	-0.186115
Zn15	Zn	0.143003	1.441017	0.063885
Zn16	Zn	0.393003	1.691017	0.313885
O17	O	-0.295692	1.002366	-0.379565
O18	O	-0.045692	1.252366	-0.129565
O19	O	0.204308	1.502366	0.120435
O20	O	0.454308	1.752366	0.370435
O21	O	-0.245785	1.161529	-0.425673
O22	O	0.004215	1.411529	-0.175673
O23	O	0.254215	1.661529	0.074327
O24	O	0.504215	1.911529	0.324327
O25	O	-0.337111	1.043678	-0.231667
O26	O	-0.087111	1.293678	0.018333
O27	O	0.162889	1.543678	0.268333
O28	O	0.412889	1.793678	0.518333
O29	O	-0.140253	0.965939	-0.330143
O30	O	0.109747	1.215939	-0.080143
O31	O	0.359747	1.465939	0.169857
O32	O	0.609747	1.715939	0.419857
O33	O	-0.332236	1.157775	-0.345909
O34	O	-0.082236	1.407775	-0.095909
O35	O	0.167764	1.657775	0.154091
O36	O	0.417764	1.907775	0.404091
O37	O	-0.136560	1.052388	-0.416703
O38	O	0.113440	1.302388	-0.166703
O39	O	0.363440	1.552388	0.083297
O40	O	0.613440	1.802388	0.333297
O41	O	-0.254353	0.960983	-0.224870
O42	O	-0.004353	1.210983	0.025130
O43	O	0.245647	1.460983	0.275130
O44	O	0.495647	1.710983	0.525130
O45	O	-0.259170	0.846938	-0.330082
O46	O	-0.009170	1.096938	-0.080082
O47	O	0.240830	1.346938	0.169918
O48	O	0.490830	1.596938	0.419918
O49	O	-0.340704	0.957319	-0.530839
O50	O	-0.090704	1.207319	-0.280839
O51	O	0.159296	1.457319	-0.030839
O52	O	0.409296	1.707319	0.219161
O53	O	-0.345579	0.843222	-0.416596
O54	O	-0.095579	1.093222	-0.166596
O55	O	0.154421	1.343222	0.083404
O56	O	0.404421	1.593222	0.333404
O57	O	-0.250602	1.047484	-0.530885
O58	O	-0.000602	1.297484	-0.280885
O59	O	0.249398	1.547484	-0.030885
O60	O	0.499398	1.797484	0.219115
O61	O	-0.451153	1.038773	-0.345849
O62	O	-0.201153	1.288773	-0.095849
O63	O	0.048847	1.538773	0.154151
O64	O	0.298847	1.788773	0.404151
O65	O	-0.454804	0.952363	-0.425567
O66	O	-0.204804	1.202363	-0.175567
O67	O	0.045196	1.452363	0.074433
O68	O	0.295196	1.702363	0.324433
C69	C	-0.303460	0.819549	-0.372329
C70	C	-0.053460	1.069549	-0.122329
C71	C	0.196540	1.319549	0.127671
C72	C	0.446540	1.569549	0.377671
C73	C	-0.306799	0.741338	-0.369250
C74	C	-0.056799	0.991338	-0.119250
C75	C	0.193201	1.241338	0.130750
C76	C	0.443201	1.491338	0.380750
C77	C	-0.478509	0.994484	-0.386720
C78	C	-0.228509	1.244484	-0.136720
C79	C	0.021491	1.494484	0.113280
C80	C	0.271491	1.744484	0.363280
C81	C	-0.556716	0.991176	-0.389807
C82	C	-0.306716	1.241176	-0.139807
C83	C	-0.056716	1.491176	0.110193
C84	C	0.193284	1.741176	0.360193
C85	C	-0.327942	0.298895	-0.349772
C86	C	-0.077942	0.548895	-0.099772
C87	C	0.172058	0.798895	0.150228
C88	C	0.422058	1.048895	0.400228
C89	C	-0.324800	0.372383	-0.352659
C90	C	-0.074800	0.622383	-0.102659
C91	C	0.175200	0.872383	0.147341
C92	C	0.425200	1.122383	0.397341
C93	C	-0.278292	0.411080	-0.395705
C94	C	-0.028292	0.661080	-0.145705
C95	C	0.221708	0.911080	0.104295
C96	C	0.471708	1.161080	0.354295
C97	C	-0.234918	0.376287	-0.435861
C98	C	0.015082	0.626287	-0.185861
C99	C	0.265082	0.876287	0.064139
C100	C	0.515082	1.126287	0.314139
C101	C	-0.238057	0.302801	-0.432969
C102	C	0.011943	0.552801	-0.182969
C103	C	0.261943	0.802801	0.067031
C104	C	0.511943	1.052801	0.317031
C105	C	-0.266564	0.633059	-0.406514
C106	C	-0.016564	0.883059	-0.156514
C107	C	0.233436	1.133059	0.093486
C108	C	0.483436	1.383059	0.343486
C109	C	-0.263430	0.706550	-0.409404
C110	C	-0.013430	0.956550	-0.159404
C111	C	0.236570	1.206550	0.090596
C112	C	0.486570	1.456550	0.340596
C113	C	-0.353312	0.702640	-0.326201
C114	C	-0.103312	0.952640	-0.076201
C115	C	0.146688	1.202640	0.173799
C116	C	0.396688	1.452640	0.423799
C117	C	-0.356449	0.629153	-0.323317
C118	C	-0.106449	0.879153	-0.073317
C119	C	0.143551	1.129153	0.176683
C120	C	0.393551	1.379153	0.426683
C121	C	-0.313073	0.594366	-0.363470
C122	C	-0.063073	0.844366	-0.113470
C123	C	0.186927	1.094366	0.136530
C124	C	0.436927	1.344366	0.386530
C125	C	-0.275081	0.486196	-0.398660
C126	C	-0.025081	0.736196	-0.148660
C127	C	0.224919	0.986196	0.101340
C128	C	0.474919	1.236196	0.351340
C129	C	-0.316280	0.519252	-0.360511
C130	C	-0.066280	0.769252	-0.110511
C131	C	0.183720	1.019252	0.139489
C132	C	0.433720	1.269252	0.389489
C133	C	-0.591532	1.034646	-0.349789
C134	C	-0.341532	1.284646	-0.099789
C135	C	-0.091532	1.534646	0.150211
C136	C	0.158468	1.784646	0.400211
C137	C	-0.665016	1.031540	-0.352696
C138	C	-0.415016	1.281540	-0.102696
C139	C	-0.165016	1.531540	0.147304
C140	C	0.084984	1.781540	0.397304
C141	C	-0.703682	0.984959	-0.395617
C142	C	-0.453682	1.234959	-0.145617
C143	C	-0.203682	1.484959	0.104383
C144	C	0.046318	1.734959	0.354383
C145	C	-0.668860	0.941486	-0.435639
C146	C	-0.418860	1.191486	-0.185639
C147	C	-0.168860	1.441486	0.064361
C148	C	0.081140	1.691486	0.314361
C149	C	-0.595378	0.944597	-0.432735
C150	C	-0.345378	1.194597	-0.182735
C151	C	-0.095378	1.444597	0.067265
C152	C	0.154622	1.694597	0.317265
C153	C	-0.925647	0.973317	-0.406462
C154	C	-0.675647	1.223317	-0.156462
C155	C	-0.425647	1.473317	0.093538
C156	C	-0.175647	1.723317	0.343538
C157	C	-0.999135	0.970208	-0.409361
C158	C	-0.749135	1.220208	-0.159361
C159	C	-0.499135	1.470208	0.090639
C160	C	-0.249135	1.720208	0.340639
C161	C	-0.995285	1.060262	-0.326418
C162	C	-0.745285	1.310262	-0.076418
C163	C	-0.495285	1.560262	0.173582
C164	C	-0.245285	1.810262	0.423582
C165	C	-0.921802	1.063366	-0.323515
C166	C	-0.671802	1.313366	-0.073515
C167	C	-0.421802	1.563366	0.176485
C168	C	-0.171802	1.813366	0.426485
C169	C	-0.886987	1.019897	-0.363540
C170	C	-0.636987	1.269897	-0.113540
C171	C	-0.386987	1.519897	0.136460
C172	C	-0.136987	1.769897	0.386460
C173	C	-0.778794	0.981780	-0.398587
C174	C	-0.528794	1.231780	-0.148587
C175	C	-0.278794	1.481780	0.101413
C176	C	-0.028794	1.731780	0.351413
C177	C	-0.811876	1.023079	-0.360573
C178	C	-0.561876	1.273079	-0.110573
C179	C	-0.311876	1.523079	0.139427
C180	C	-0.061876	1.773079	0.389427
C181	C	-0.112161	1.010298	-0.372398
C182	C	0.137839	1.260298	-0.122398
C183	C	0.387839	1.510298	0.127602
C184	C	0.637839	1.760298	0.377602
C185	C	-0.033951	1.013678	-0.369343
C186	C	0.216049	1.263678	-0.119343
C187	C	0.466049	1.513678	0.130657
C188	C	0.716049	1.763678	0.380657
C189	C	-0.295646	1.002407	-0.556108
C190	C	-0.045646	1.252407	-0.306108
C191	C	0.204354	1.502407	-0.056108
C192	C	0.454354	1.752407	0.193892
C193	C	-0.295627	1.002425	-0.631340
C194	C	-0.045627	1.252425	-0.381340
C195	C	0.204373	1.502425	-0.131340
C196	C	0.454373	1.752425	0.118660
C197	C	-0.287895	1.185897	-0.386830
C198	C	-0.037895	1.435897	-0.136830
C199	C	0.212105	1.685897	0.113170
C200	C	0.462105	1.935897	0.363170
C201	C	-0.284573	1.264107	-0.389926
C202	C	-0.034573	1.514107	-0.139926
C203	C	0.215427	1.764107	0.110074
C204	C	0.465427	2.014107	0.360074
C205	C	-0.248709	1.049375	-0.666709
C206	C	0.001291	1.299375	-0.416709
C207	C	0.251291	1.549375	-0.166709
C208	C	0.501291	1.799375	0.083291
C209	C	-0.248688	1.049383	-0.737397
C210	C	0.001312	1.299383	-0.487397
C211	C	0.251312	1.549383	-0.237397
C212	C	0.501312	1.799383	0.012603
C213	C	-0.295589	1.002444	-0.772715
C214	C	-0.045589	1.252444	-0.522715
C215	C	0.204411	1.502444	-0.272715
C216	C	0.454411	1.752444	-0.022715
C217	C	-0.342510	0.955489	-0.737341
C218	C	-0.092510	1.205489	-0.487341
C219	C	0.157490	1.455489	-0.237341
C220	C	0.407490	1.705489	0.012659
C221	C	-0.342527	0.955478	-0.666654
C222	C	-0.092527	1.205478	-0.416654
C223	C	0.157473	1.455478	-0.166654
C224	C	0.407473	1.705478	0.083346
C225	C	-0.342443	0.955531	-1.022413
C226	C	-0.092443	1.205531	-0.772413
C227	C	0.157557	1.455531	-0.522413
C228	C	0.407557	1.705531	-0.272413
C229	C	-0.342424	0.955547	-1.093105
C230	C	-0.092424	1.205547	-0.843105
C231	C	0.157576	1.455547	-0.593105
C232	C	0.407576	1.705547	-0.343105
C233	C	-0.248604	1.049437	-1.093156
C234	C	0.001396	1.299437	-0.843156
C235	C	0.251396	1.549437	-0.593156
C236	C	0.501396	1.799437	-0.343156
C237	C	-0.248621	1.049426	-1.022469
C238	C	0.001379	1.299426	-0.772469
C239	C	0.251379	1.549426	-0.522469
C240	C	0.501379	1.799426	-0.272469
C241	C	-0.295538	1.002468	-0.987101
C242	C	-0.045538	1.252468	-0.737101
C243	C	0.204462	1.502468	-0.487101
C244	C	0.454462	1.752468	-0.237101
C245	C	-0.295559	1.002459	-0.910453
C246	C	-0.045559	1.252459	-0.660453
C247	C	0.204441	1.502459	-0.410453
C248	C	0.454441	1.752459	-0.160453
C249	C	-0.295572	1.002456	-0.849362
C250	C	-0.045572	1.252456	-0.599362
C251	C	0.204428	1.502456	-0.349362
C252	C	0.454428	1.752456	-0.099362
C253	C	-0.295686	1.002367	-0.203709
C254	C	-0.045686	1.252367	0.046291
C255	C	0.204314	1.502367	0.296291
C256	C	0.454314	1.752367	0.546291
C257	C	-0.295501	1.002495	-0.128475
C258	C	-0.045501	1.252495	0.121525
C259	C	0.204499	1.502495	0.371525
C260	C	0.454499	1.752495	0.621525
H261	H	-0.365818	0.267393	-0.314723
H262	H	-0.115818	0.517393	-0.064723
H263	H	0.134182	0.767393	0.185277
H264	H	0.384182	1.017393	0.435277
H265	H	-0.700348	0.903562	-0.470589
H266	H	-0.450348	1.153562	-0.220589
H267	H	-0.200348	1.403562	0.029411
H268	H	0.049652	1.653562	0.279411
Br269	Br	-0.406200	0.891753	-0.618651
Br270	Br	-0.156200	1.141753	-0.368651
Br271	Br	0.093800	1.391753	-0.118651
Br272	Br	0.343800	1.641753	0.131349
Br273	Br	-0.184927	1.113165	-1.141159
Br274	Br	0.065073	1.363165	-0.891159
Br275	Br	0.315073	1.613165	-0.641159
Br276	Br	0.565073	1.863165	-0.391159
H277	H	-0.202739	0.274478	-0.465665
H278	H	0.047261	0.524478	-0.215665
H279	H	0.297261	0.774478	0.034335
H280	H	0.547261	1.024478	0.284335
H281	H	-0.225553	0.738056	-0.444456
H282	H	0.024447	0.988056	-0.194456
H283	H	0.274447	1.238056	0.055544
H284	H	0.524447	1.488056	0.305544
H285	H	-0.237216	0.517712	-0.433709
H286	H	0.012784	0.767712	-0.183709
H287	H	0.262784	1.017712	0.066291
H288	H	0.512784	1.267712	0.316291
Br289	Br	-0.548125	0.885604	-0.487052
Br290	Br	-0.298125	1.135604	-0.237052
Br291	Br	-0.048125	1.385604	0.012948
Br292	Br	0.201875	1.635604	0.262948
H293	H	-0.360115	0.400704	-0.319960
H294	H	-0.110115	0.650704	-0.069960
H295	H	0.139885	0.900704	0.180040
H296	H	0.389885	1.150704	0.430040
Br297	Br	-0.412175	0.749854	-0.271709
Br298	Br	-0.162175	0.999854	-0.021709
Br299	Br	0.087825	1.249854	0.228291
Br300	Br	0.337825	1.499854	0.478291
H301	H	-0.780392	1.061008	-0.325629
H302	H	-0.530392	1.311008	-0.075629
H303	H	-0.280392	1.561008	0.174371
H304	H	-0.030392	1.811008	0.424371
Br305	Br	-0.207700	0.585857	-0.461013
Br306	Br	0.042300	0.835857	-0.211013
Br307	Br	0.292300	1.085857	0.038987
Br308	Br	0.542300	1.335857	0.288987
Br309	Br	-0.419549	0.576640	-0.264875
Br310	Br	-0.169549	0.826640	-0.014875
Br311	Br	0.080451	1.076640	0.235125
Br312	Br	0.330451	1.326640	0.485125
Br313	Br	-0.539064	1.097860	-0.291529
Br314	Br	-0.289064	1.347860	-0.041529
Br315	Br	-0.039064	1.597860	0.208471
Br316	Br	0.210936	1.847860	0.458471
H317	H	-0.693360	1.066937	-0.320109
H318	H	-0.443360	1.316937	-0.070109
H319	H	-0.193360	1.566937	0.179891
H320	H	0.056640	1.816937	0.429891
Br321	Br	-0.185058	1.113087	-0.618785
Br322	Br	0.064942	1.363087	-0.368785
Br323	Br	0.314942	1.613087	-0.118785
Br324	Br	0.564942	1.863087	0.131215
H325	H	-0.354145	0.487741	-0.325462
H326	H	-0.104145	0.737741	-0.075462
H327	H	0.145855	0.987741	0.174538
H328	H	0.395855	1.237741	0.424538
Br329	Br	-0.406081	0.891840	-1.141037
Br330	Br	-0.156081	1.141840	-0.891037
Br331	Br	0.093919	1.391840	-0.641037
Br332	Br	0.343919	1.641840	-0.391037
H333	H	-0.380656	0.917305	-0.993626
H334	H	-0.130656	1.167305	-0.743626
H335	H	0.119344	1.417305	-0.493626
H336	H	0.369344	1.667305	-0.243626
H337	H	-0.890321	1.101296	-0.288566
H338	H	-0.640321	1.351296	-0.038566
H339	H	-0.390321	1.601296	0.211434
H340	H	-0.140321	1.851296	0.461434
Br341	Br	-1.042538	1.119257	-0.272106
Br342	Br	-0.792538	1.369257	-0.022106
Br343	Br	-0.542538	1.619257	0.227894
Br344	Br	-0.292538	1.869257	0.477894
H345	H	-1.030615	0.932284	-0.444325
H346	H	-0.780615	1.182284	-0.194325
H347	H	-0.530615	1.432284	0.055675
H348	H	-0.280615	1.682284	0.305675
H349	H	-0.897307	0.937921	-0.439050
H350	H	-0.647307	1.187921	-0.189050
H351	H	-0.397307	1.437921	0.060950
H352	H	-0.147307	1.687921	0.310950
H353	H	-0.810284	0.943853	-0.433533
H354	H	-0.560284	1.193853	-0.183533
H355	H	-0.310284	1.443853	0.066467
H356	H	-0.060284	1.693853	0.316467
Br357	Br	-0.406159	0.891780	-0.785271
Br358	Br	-0.156159	1.141780	-0.535271
Br359	Br	0.093841	1.391780	-0.285271
Br360	Br	0.343841	1.641780	-0.035271
H361	H	-0.197047	0.407801	-0.470907
H362	H	0.052953	0.657801	-0.220907
H363	H	0.302953	0.907801	0.029093
H364	H	0.552953	1.157801	0.279093
H365	H	-0.210431	1.087651	-0.993717
H366	H	0.039569	1.337651	-0.743717
H367	H	0.289569	1.587651	-0.493717
H368	H	0.539569	1.837651	-0.243717
Br369	Br	-0.185042	1.113136	-0.785398
Br370	Br	0.064958	1.363136	-0.535398
Br371	Br	0.314958	1.613136	-0.285398
Br372	Br	0.564958	1.863136	-0.035398
