data_functionalizedCrystal
_audit_creation_method	'MofGen! by Chris Wilmer'
_symmetry_space_group_name_H-M	'P1'
_symmetry_Int_Tables_number	1
_symmetry_cell_setting	triclinic
loop_
_symmetry_equiv_pos_as_xyz
  x,y,z
_cell_length_a	6.817900
_cell_length_b	14.125369
_cell_length_c	19.453114
_cell_angle_alpha	96.282118
_cell_angle_beta	101.709288
_cell_angle_gamma	100.397648
loop_
_atom_site_label
_atom_site_type_symbol
_atom_site_fract_x
_atom_site_fract_y
_atom_site_fract_z
V1	V	-3.991096	-0.134114	-0.218721
O2	O	-3.995376	0.005414	-0.214841
O3	O	-3.927384	-0.264934	-0.216952
O4	O	-3.934200	-0.132503	-0.314237
O5	O	-3.988514	-0.127933	-0.116882
V6	V	-4.477809	-0.117371	-0.206573
O7	O	-4.245357	-0.170840	-0.245367
O8	O	-4.673745	-0.080645	-0.179927
O9	O	-4.318315	0.013449	-0.208342
O10	O	-4.590926	-0.256899	-0.210453
O11	O	-4.597788	-0.123552	-0.308412
O12	O	-4.311499	-0.118982	-0.111057
C13	C	-3.768935	-0.296811	-0.213431
C14	C	-3.798073	-0.403761	-0.212621
C15	C	-4.036758	-0.651908	-0.214132
C16	C	-3.851526	-0.599577	-0.211165
C17	C	-3.821785	-0.490615	-0.211975
C18	C	-4.066507	-0.760880	-0.213322
C19	C	-3.777628	-0.127881	-0.337527
C20	C	-3.812291	-0.127430	-0.415610
C21	C	-4.009793	-0.132047	-0.455858
C22	C	-4.042363	-0.131623	-0.529226
C23	C	-3.877426	-0.126601	-0.562345
C24	C	-3.679895	-0.121978	-0.522087
C25	C	-3.647328	-0.122392	-0.448720
N26	N	-3.811736	-0.177410	-0.681029
N27	N	-3.842687	-0.177018	-0.750725
C28	C	-3.975539	-0.125351	-0.783396
N29	N	-4.076305	-0.074102	-0.743739
N30	N	-4.045359	-0.074497	-0.674037
C31	C	-3.912720	-0.126151	-0.641899
C32	C	-4.208369	-0.129507	-0.903197
C33	C	-4.240930	-0.129077	-0.976565
C34	C	-3.878460	-0.119442	-0.969427
C35	C	-3.845901	-0.119862	-0.896059
C36	C	-4.010865	-0.124900	-0.862949
C37	C	-4.140105	0.045321	-0.211861
C38	C	-4.090205	0.152270	-0.212676
C39	C	-4.131413	-0.123607	-0.087763
C40	C	-4.075989	-0.124054	-0.009679
H41	H	-4.172994	-0.614880	-0.217280
C42	C	-3.631493	-0.114727	-0.852285
C43	C	-3.574806	-0.031499	-0.800652
C44	C	-3.377309	-0.026755	-0.760315
H45	H	-3.629662	-0.171035	-0.829766
H46	H	-3.537791	-0.111641	-0.882470
H47	H	-3.668482	-0.034593	-0.770472
H48	H	-3.576589	0.024823	-0.823152
H49	H	-3.283608	-0.023668	-0.790499
H50	H	-3.375498	-0.083066	-0.737800
H51	H	-3.338815	0.029720	-0.725282
C52	C	-3.670078	-0.649114	-0.206923
C53	C	-3.736088	-0.748901	-0.206921
C54	C	-3.569000	-0.794566	-0.203001
H55	H	-3.611894	-0.639762	-0.246721
H56	H	-3.570148	-0.621761	-0.164456
H57	H	-3.835982	-0.776245	-0.249383
H58	H	-3.794252	-0.758281	-0.167126
H59	H	-3.469070	-0.767213	-0.160534
H60	H	-3.510828	-0.785207	-0.242799
H61	H	-3.613761	-0.862274	-0.202992
H62	H	-4.401761	-0.132830	-1.009333
H63	H	-3.744161	-0.115344	-0.996391
H64	H	-4.144121	-0.136145	-0.428904
H65	H	-4.203199	-0.135388	-0.562002
C66	C	-3.500956	-0.116379	-0.558119
C67	C	-3.481798	-0.032676	-0.590758
C68	C	-3.316992	-0.027487	-0.623963
H69	H	-3.378510	-0.113633	-0.523710
H70	H	-3.524627	-0.172382	-0.592924
H71	H	-3.458114	0.023314	-0.555957
H72	H	-3.604202	-0.035402	-0.625177
H73	H	-3.340663	-0.083490	-0.658768
H74	H	-3.194560	-0.024744	-0.589550
H75	H	-3.303984	0.029300	-0.646119
H76	H	-3.486493	-0.118625	-0.415950
H77	H	-4.342691	-0.133605	-0.876237
