data_functionalizedCrystal
_audit_creation_method	'MofGen! by Chris Wilmer'
_symmetry_space_group_name_H-M	'P1'
_symmetry_Int_Tables_number	1
_symmetry_cell_setting	triclinic
loop_
_symmetry_equiv_pos_as_xyz
  x,y,z
_cell_length_a	9.065218
_cell_length_b	15.944551
_cell_length_c	7.540329
_cell_angle_alpha	89.995457
_cell_angle_beta	89.996962
_cell_angle_gamma	84.257312
loop_
_atom_site_label
_atom_site_type_symbol
_atom_site_fract_x
_atom_site_fract_y
_atom_site_fract_z
O1	O	1.957520	0.123161	-0.147492
O2	O	2.457520	0.623161	0.352508
O3	O	1.527999	0.133263	-0.147494
O4	O	2.027999	0.633263	0.352506
O5	O	1.754488	0.006026	-0.147477
O6	O	2.254488	0.506026	0.352523
O7	O	1.731030	0.250398	-0.147509
O8	O	2.231030	0.750398	0.352491
O9	O	1.754475	0.006024	0.147488
O10	O	2.254475	0.506024	0.647488
O11	O	1.527985	0.133261	0.147471
O12	O	2.027985	0.633261	0.647471
O13	O	1.957506	0.123159	0.147473
O14	O	2.457506	0.623159	0.647473
Cu15	Cu	1.742744	0.128210	0.174405
Cu16	Cu	2.242744	0.628210	0.674405
Cu17	Cu	1.742760	0.128212	-0.174426
Cu18	Cu	2.242760	0.628212	0.325574
O19	O	1.731016	0.250396	0.147456
O20	O	2.231016	0.750396	0.647456
C21	C	1.473028	0.132291	-0.000012
C22	C	1.973028	0.632291	0.499988
C23	C	1.309253	0.129388	-0.000013
C24	C	1.809253	0.629388	0.499987
C25	C	1.753508	-0.025276	0.000006
C26	C	2.253508	0.474724	0.500006
C27	C	1.750588	-0.118544	0.000007
C28	C	2.250588	0.381456	0.500007
C29	C	1.603221	-0.334518	-0.000019
C30	C	2.103221	0.165482	0.499981
C31	C	1.671647	-0.395017	0.145418
C32	C	2.171647	0.104983	0.645418
C33	C	1.745306	-0.289310	-0.000007
C34	C	2.245306	0.210690	0.499993
C35	C	1.671693	-0.394999	-0.145395
C36	C	2.171693	0.105001	0.354605
C37	C	1.740194	-0.454262	-0.000028
C38	C	2.240194	0.045738	0.499972
C39	C	1.813771	-0.348582	0.145549
C40	C	2.313771	0.151418	0.645549
C41	C	1.813798	-0.348557	-0.145394
C42	C	2.313798	0.151443	0.354606
C43	C	1.882327	-0.409038	0.000078
C44	C	2.382327	0.090962	0.500078
C45	C	1.748247	-0.194286	0.000007
C46	C	2.248247	0.305714	0.500007
C47	C	1.737264	-0.549285	-0.000029
C48	C	2.237264	-0.049285	0.499971
C49	C	2.012477	0.124131	-0.000013
C50	C	2.512477	0.624131	0.499987
C51	C	2.176252	0.127034	-0.000024
C52	C	2.676252	0.627034	0.499976
C53	C	1.731997	0.281698	-0.000031
C54	C	2.231997	0.781698	0.499969
C55	C	1.734917	0.374966	-0.000043
C56	C	2.234917	0.874966	0.499957
N57	N	1.742744	0.128208	0.419753
N58	N	2.242744	0.628208	0.919753
N59	N	1.742773	0.128207	-0.419774
N60	N	2.242773	0.628207	0.080226
H61	H	1.485283	-0.302103	0.000126
H62	H	1.985283	0.197897	0.500126
H63	H	2.000369	-0.441303	0.000161
H64	H	2.500369	0.058697	0.500161
H65	H	1.873812	-0.328137	0.268639
H66	H	2.373812	0.171863	0.768639
H67	H	1.611544	-0.415582	0.268371
H68	H	2.111544	0.084418	0.768371
H69	H	1.873849	-0.327971	-0.268354
H70	H	2.373849	0.172029	0.231646
H71	H	1.611584	-0.415530	-0.268358
H72	H	2.111584	0.084470	0.231642
