data_functionalizedCrystal
_audit_creation_method	'MofGen! by Chris Wilmer'
_symmetry_space_group_name_H-M	'P1'
_symmetry_Int_Tables_number	1
_symmetry_cell_setting	triclinic
loop_
_symmetry_equiv_pos_as_xyz
  x,y,z
_cell_length_a	17.077404
_cell_length_b	17.077403
_cell_length_c	19.805398
_cell_angle_alpha	90.016265
_cell_angle_beta	89.986476
_cell_angle_gamma	90.005808
loop_
_atom_site_label
_atom_site_type_symbol
_atom_site_fract_x
_atom_site_fract_y
_atom_site_fract_z
Zn1	Zn	-1.200118	-0.312655	0.382785
Zn2	Zn	-0.700118	0.187345	0.882785
Zn3	Zn	-1.200093	-0.443927	0.269621
Zn4	Zn	-0.700093	0.056073	0.769621
Zn5	Zn	-1.068867	-0.312664	0.269609
Zn6	Zn	-0.568867	0.187336	0.769609
Zn7	Zn	-1.068869	-0.443868	0.382767
Zn8	Zn	-0.568869	0.056132	0.882767
O9	O	-1.134487	-0.378278	0.326195
O10	O	-0.634487	0.121722	0.826195
O11	O	-1.309962	-0.330089	0.367786
O12	O	-0.809962	0.169911	0.867786
O13	O	-1.182674	-0.426543	0.174903
O14	O	-0.682674	0.073457	0.674903
O15	O	-1.086287	-0.202816	0.284624
O16	O	-0.586287	0.297184	0.784624
O17	O	-1.309943	-0.426534	0.284645
O18	O	-0.809943	0.073466	0.784645
O19	O	-1.182717	-0.202809	0.367774
O20	O	-0.682717	0.297191	0.867774
O21	O	-1.086263	-0.330105	0.174894
O22	O	-0.586263	0.169895	0.674894
O23	O	-0.959020	-0.330048	0.284607
O24	O	-0.459020	0.169952	0.784607
O25	O	-1.086290	-0.426434	0.477486
O26	O	-0.586290	0.073566	0.977486
O27	O	-0.959022	-0.426442	0.367744
O28	O	-0.459022	0.073558	0.867744
O29	O	-1.182719	-0.330032	0.477499
O30	O	-0.682719	0.169968	0.977499
O31	O	-1.182676	-0.553766	0.284628
O32	O	-0.682676	-0.053766	0.784628
O33	O	-1.086266	-0.553722	0.367756
O34	O	-0.586266	-0.053722	0.867756
C35	C	-0.930539	-0.378240	0.326172
C36	C	-0.430539	0.121760	0.826172
C37	C	-0.843289	-0.378243	0.326179
C38	C	-0.343289	0.121757	0.826179
C39	C	-0.467496	-0.428561	0.369425
C40	C	0.032504	0.071439	0.869425
C41	C	-0.549476	-0.428554	0.369416
C42	C	-0.049476	0.071446	0.869416
C43	C	-0.590440	-0.378281	0.326197
C44	C	-0.090440	0.121719	0.826197
C45	C	-0.549419	-0.328018	0.282979
C46	C	-0.049419	0.171982	0.782979
C47	C	-0.467440	-0.328030	0.282985
C48	C	0.032560	0.171970	0.782985
C49	C	-0.720289	-0.327995	0.282971
C50	C	-0.220289	0.172005	0.782971
C51	C	-0.802274	-0.327982	0.282966
C52	C	-0.302274	0.172018	0.782966
C53	C	-0.802325	-0.428519	0.369401
C54	C	-0.302325	0.071481	0.869401
C55	C	-0.720346	-0.428531	0.369407
C56	C	-0.220346	0.071469	0.869407
C57	C	-0.679331	-0.378267	0.326190
C58	C	-0.179331	0.121733	0.826190
C59	C	-1.134490	-0.582226	0.326206
C60	C	-0.634490	-0.082226	0.826206
C61	C	-1.134563	-0.669476	0.326233
C62	C	-0.634563	-0.169476	0.826233
C63	C	-1.134508	-0.378225	0.502738
C64	C	-0.634508	0.121775	1.002738
C65	C	-1.134517	-0.378203	0.577970
C66	C	-0.634517	0.121797	1.077970
C67	C	-0.339231	-0.378309	0.326215
C68	C	0.160769	0.121691	0.826215
C69	C	-0.426481	-0.378301	0.326212
C70	C	0.073519	0.121699	0.826212
C71	C	-1.134505	-0.173534	0.326200
C72	C	-0.634505	0.326466	0.826200
C73	C	-1.134513	-0.086284	0.326202
C74	C	-0.634513	0.413716	0.826202
C75	C	-1.084314	-0.045296	0.282912
C76	C	-0.584314	0.454704	0.782912
C77	C	-1.084320	0.036684	0.282921
C78	C	-0.584320	0.536684	0.782921
C79	C	-1.134529	0.077675	0.326216
C80	C	-0.634529	0.577675	0.826216
C81	C	-1.184730	0.036681	0.369510
C82	C	-0.684730	0.536681	0.869510
C83	C	-1.184720	-0.045298	0.369504
C84	C	-0.684720	0.454702	0.869504
C85	C	-1.184750	0.207551	0.369518
C86	C	-0.684750	0.707551	0.869518
C87	C	-1.184762	0.289536	0.369522
C88	C	-0.684762	0.789536	0.869522
C89	C	-1.084350	0.289533	0.282934
C90	C	-0.584350	0.789533	0.782934
C91	C	-1.084339	0.207554	0.282928
C92	C	-0.584339	0.707554	0.782928
C93	C	-1.134542	0.166566	0.326222
C94	C	-0.634542	0.666566	0.826222
C95	C	-1.134511	-0.378275	0.150339
C96	C	-0.634511	0.121725	0.650339
C97	C	-1.134654	-0.378076	0.075108
C98	C	-0.634654	0.121924	0.575108
C99	C	-1.184842	-0.428293	1.039764
C100	C	-0.684842	0.071707	1.539764
C101	C	-1.184820	-0.428314	0.969075
C102	C	-0.684820	0.071686	1.469075
C103	C	-1.134614	-0.378114	0.933732
C104	C	-0.634614	0.121886	1.433732
C105	C	-1.084421	-0.327895	0.969081
C106	C	-0.584421	0.172105	1.469081
C107	C	-1.084439	-0.327878	1.039768
C108	C	-0.584439	0.172122	1.539768
C109	C	-1.084345	-0.327962	0.684008
C110	C	-0.584345	0.172038	1.184008
C111	C	-1.084332	-0.327981	0.613316
C112	C	-0.584332	0.172019	1.113316
C113	C	-1.184726	-0.428398	0.613315
C114	C	-0.684726	0.071602	1.113315
C115	C	-1.184744	-0.428382	0.684002
C116	C	-0.684744	0.071618	1.184002
C117	C	-1.134549	-0.378166	0.719345
C118	C	-0.634549	0.121834	1.219345
C119	C	-1.134572	-0.378144	0.795993
C120	C	-0.634572	0.121856	1.295993
C121	C	-1.134594	-0.378131	0.857085
C122	C	-0.634594	0.121869	1.357085
H123	H	-0.434149	-0.469495	0.404622
H124	H	0.065851	0.030505	0.904622
H125	H	-1.225609	0.070061	0.404765
H126	H	-0.725609	0.570061	0.904765
C127	C	-1.239958	0.334625	0.417174
C128	C	-0.739958	0.834625	0.917174
H129	H	-1.269839	0.298475	0.442972
H130	H	-0.769839	0.798475	0.942972
H131	H	-1.274173	0.366606	0.391314
H132	H	-0.774173	0.866606	0.891314
H133	H	-1.209900	0.366604	0.446653
H134	H	-0.709900	0.866604	0.946653
C135	C	-1.029232	-0.272643	1.078650
C136	C	-0.529232	0.227357	1.578650
H137	H	-1.036427	-0.279829	1.125810
H138	H	-0.536427	0.220171	1.625810
H139	H	-1.040715	-0.219904	1.067072
H140	H	-0.540715	0.280096	1.567072
H141	H	-0.976486	-0.284135	1.067061
H142	H	-0.476486	0.215865	1.567061
H143	H	-1.225630	-0.469257	0.712775
H144	H	-0.725630	0.030743	1.212775
H145	H	-0.582867	-0.469483	0.404602
H146	H	-0.082867	0.030517	0.904602
C147	C	-1.239934	-0.483646	0.574439
C148	C	-0.739934	0.016354	1.074439
H149	H	-1.269842	-0.513534	0.605613
H150	H	-0.769842	-0.013534	1.105613
H151	H	-1.209898	-0.517851	0.546863
H152	H	-0.709898	-0.017851	1.046863
H153	H	-1.274135	-0.453627	0.546866
H154	H	-0.774135	0.046373	1.046866
H155	H	-1.225621	0.174182	0.404780
H156	H	-0.725621	0.674182	0.904780
H157	H	-0.686996	-0.469464	0.404603
H158	H	-0.186996	0.030536	0.904603
H159	H	-0.835724	-0.469444	0.404592
H160	H	-0.335724	0.030556	0.904592
C161	C	-1.029094	-0.272767	0.574439
C162	C	-0.529094	0.227233	1.074439
H163	H	-0.999195	-0.242864	0.605611
H164	H	-0.499195	0.257136	1.105611
H165	H	-1.059111	-0.238574	0.546865
H166	H	-0.559111	0.261426	1.046865
H167	H	-0.994887	-0.302810	0.546863
H168	H	-0.494887	0.197190	1.046863
H169	H	-1.043430	-0.078665	0.247654
H170	H	-0.543430	0.421335	0.747654
H171	H	-1.225729	-0.469169	1.068535
H172	H	-0.725729	0.030831	1.568535
H173	H	-1.225591	-0.078669	0.404760
H174	H	-0.725591	0.421331	0.904760
C175	C	-1.029121	0.334616	0.235318
C176	C	-0.529121	0.834616	0.735318
H177	H	-1.036309	0.389311	0.241528
H178	H	-0.536309	0.889311	0.741528
H179	H	-1.040600	0.321171	0.189841
H180	H	-0.540600	0.821171	0.689841
H181	H	-0.976377	0.321190	0.245222
H182	H	-0.476377	0.821190	0.745222
H183	H	-1.225678	-0.469216	0.940301
H184	H	-0.725678	0.030784	1.440301
H185	H	-1.043459	0.174181	0.247670
H186	H	-0.543459	0.674181	0.747670
C187	C	-0.847333	-0.272679	0.235430
C188	C	-0.347333	0.227321	0.735430
H189	H	-0.811166	-0.242750	0.209688
H190	H	-0.311166	0.257250	0.709688
H191	H	-0.879309	-0.238514	0.261373
H192	H	-0.379309	0.261486	0.761373
H193	H	-0.879314	-0.302658	0.205894
H194	H	-0.379314	0.197342	0.705894
C195	C	-1.029141	-0.272719	0.722876
C196	C	-0.529141	0.227281	1.222876
H197	H	-0.999246	-0.242818	0.691701
H198	H	-0.499246	0.257182	1.191701
H199	H	-0.994939	-0.302728	0.750449
H200	H	-0.494939	0.197272	1.250449
H201	H	-1.059184	-0.238513	0.750452
H202	H	-0.559184	0.261487	1.250452
C203	C	-0.675174	-0.272703	0.235436
C204	C	-0.175174	0.227297	0.735436
H205	H	-0.711310	-0.242753	0.209701
H206	H	-0.211310	0.257247	0.709701
H207	H	-0.643188	-0.302684	0.205904
H208	H	-0.143188	0.197316	0.705904
H209	H	-0.643199	-0.238544	0.261386
H210	H	-0.143199	0.261456	0.761386
C211	C	-0.422320	-0.272743	0.235454
C212	C	0.077680	0.227257	0.735454
H213	H	-0.367630	-0.279955	0.241642
H214	H	0.132370	0.220045	0.741642
H215	H	-0.435744	-0.220014	0.245430
H216	H	0.064256	0.279986	0.745430
H217	H	-0.435742	-0.284165	0.189958
H218	H	0.064258	0.215835	0.689958
C219	C	-1.029108	0.081768	0.235296
C220	C	-0.529108	0.581768	0.735296
H221	H	-0.999212	0.045614	0.209504
H222	H	-0.499212	0.545614	0.709504
H223	H	-0.994908	0.113763	0.261180
H224	H	-0.494908	0.613763	0.761180
H225	H	-1.059146	0.113732	0.205811
H226	H	-0.559146	0.613732	0.705811
C227	C	-1.029197	-0.272674	0.930206
C228	C	-0.529197	0.227326	1.430206
H229	H	-1.036379	-0.279869	0.883045
H230	H	-0.536379	0.220131	1.383045
H231	H	-0.976456	-0.284147	0.941787
H232	H	-0.476456	0.215853	1.441787
H233	H	-1.040699	-0.219930	0.941796
H234	H	-0.540699	0.280070	1.441796
H235	H	-0.582778	-0.287089	0.247786
H236	H	-0.082778	0.212911	0.747786
