data_functionalizedCrystal
_audit_creation_method	'MofGen! by Chris Wilmer'
_symmetry_space_group_name_H-M	'P1'
_symmetry_Int_Tables_number	1
_symmetry_cell_setting	triclinic
loop_
_symmetry_equiv_pos_as_xyz
  x,y,z
_cell_length_a	14.908783
_cell_length_b	18.215405
_cell_length_c	18.215399
_cell_angle_alpha	89.971116
_cell_angle_beta	86.683271
_cell_angle_gamma	93.312937
loop_
_atom_site_label
_atom_site_type_symbol
_atom_site_fract_x
_atom_site_fract_y
_atom_site_fract_z
Zn1	Zn	1.379214	-0.228138	-0.481136
Zn2	Zn	1.879214	0.271862	0.018864
Zn3	Zn	1.379118	-0.351219	-0.358068
Zn4	Zn	1.879118	0.148781	0.141932
Zn5	Zn	1.228354	-0.235259	-0.350972
Zn6	Zn	1.728354	0.264741	0.149028
Zn7	Zn	1.228312	-0.358262	-0.473984
Zn8	Zn	1.728312	0.141738	0.026016
O9	O	1.303750	-0.293220	-0.416040
O10	O	1.803750	0.206780	0.083960
O11	O	1.505450	-0.238538	-0.470773
O12	O	2.005450	0.261462	0.029227
O13	O	1.359096	-0.335870	-0.254141
O14	O	1.859096	0.164130	0.245859
O15	O	1.248424	-0.131327	-0.368262
O16	O	1.748424	0.368673	0.131738
O17	O	1.505379	-0.328966	-0.380356
O18	O	2.005379	0.171034	0.119644
O19	O	1.359261	-0.126096	-0.463892
O20	O	1.859261	0.373904	0.036108
O21	O	1.248331	-0.250674	-0.248928
O22	O	1.748331	0.249326	0.251072
O23	O	1.102101	-0.257502	-0.361327
O24	O	1.602101	0.242498	0.138673
O25	O	1.248352	-0.340968	-0.577918
O26	O	1.748352	0.159032	-0.077918
O27	O	1.102070	-0.347872	-0.451704
O28	O	1.602070	0.152128	0.048296
O29	O	1.359220	-0.245367	-0.583173
O30	O	1.859220	0.254633	-0.083173
O31	O	1.359055	-0.455141	-0.373422
O32	O	1.859055	0.044859	0.126578
O33	O	1.248259	-0.460314	-0.458585
O34	O	1.748259	0.039686	0.041415
C35	C	1.069350	-0.304224	-0.404970
C36	C	1.569350	0.195776	0.095030
C37	C	0.969073	-0.308950	-0.400252
C38	C	1.469073	0.191050	0.099748
C39	C	1.303666	-0.484430	-0.416014
C40	C	1.803666	0.015570	0.083986
C41	C	1.303713	-0.566226	-0.416032
C42	C	1.803713	-0.066226	0.083968
C43	C	1.361479	-0.828500	-0.465901
C44	C	1.861479	-0.328500	0.034099
C45	C	1.361449	-0.751643	-0.465889
C46	C	1.861449	-0.251643	0.034111
C47	C	1.246135	-0.757192	-0.366227
C48	C	1.746135	-0.257192	0.133773
C49	C	1.246171	-0.834048	-0.366237
C50	C	1.746171	-0.334048	0.133763
C51	C	1.303841	-0.869700	-0.416078
C52	C	1.803841	-0.369700	0.083922
C53	C	1.303776	-0.715987	-0.416056
C54	C	1.803776	-0.215987	0.083944
C55	C	1.303742	-0.632655	-0.416041
C56	C	1.803742	-0.132655	0.083959
C57	C	1.303876	-0.953037	-0.416091
C58	C	1.803876	-0.453037	0.083909
C59	C	0.780714	-0.223797	-0.485681
C60	C	1.280714	0.276203	0.014319
C61	C	0.686495	-0.228235	-0.481250
C62	C	1.186495	0.271765	0.018750
C63	C	0.686414	-0.322259	-0.386956
C64	C	1.186414	0.177741	0.113044
C65	C	0.780633	-0.317821	-0.391387
C66	C	1.280633	0.182179	0.108613
C67	C	0.827780	-0.268589	-0.440752
C68	C	1.327780	0.231411	0.059248
C69	C	0.922001	-0.264156	-0.445186
C70	C	1.422001	0.235844	0.054814
C71	C	0.921918	-0.358176	-0.350888
C72	C	1.421918	0.141824	0.149112
C73	C	0.827699	-0.362613	-0.346457
C74	C	1.327699	0.137387	0.153543
C75	C	1.539064	-0.282172	-0.427154
C76	C	2.039064	0.217828	0.072846
C77	C	1.639341	-0.277465	-0.431890
C78	C	2.139341	0.222535	0.068110
C79	C	1.303792	-0.293159	-0.607995
C80	C	1.803792	0.206841	-0.107995
C81	C	1.303810	-0.293133	-0.689795
C82	C	1.803810	0.206867	-0.189795
C83	C	1.303858	-0.101262	-0.416083
C84	C	1.803858	0.398738	0.083917
C85	C	1.303904	-0.019460	-0.416102
C86	C	1.803904	0.480540	0.083898
C87	C	1.246184	-0.248737	-0.875277
C88	C	1.746184	0.251263	-0.375277
C89	C	1.246199	-0.248722	-0.952137
C90	C	1.746199	0.251278	-0.452137
C91	C	1.361545	-0.337436	-0.957555
C92	C	1.861545	0.162564	-0.457555
C93	C	1.361524	-0.337455	-0.880697
C94	C	1.861524	0.162545	-0.380697
C95	C	1.303845	-0.293101	-0.839560
C96	C	1.803845	0.206899	-0.339560
C97	C	1.303881	-0.293067	-0.993278
C98	C	1.803881	0.206933	-0.493278
C99	C	1.303899	-0.293050	-1.076613
C100	C	1.803899	0.206950	-0.576613
C101	C	1.303826	-0.293119	-0.756220
C102	C	1.803826	0.206881	-0.256220
C103	C	1.303759	-0.293225	-0.224834
C104	C	1.803759	0.206775	0.275166
C105	C	1.303916	-0.293035	-0.143043
C106	C	1.803916	0.206965	0.356957
H107	H	1.408435	-0.857525	-0.506488
H108	H	1.908435	-0.357525	-0.006488
H109	H	0.789299	-0.402694	-0.306264
H110	H	1.289299	0.097306	0.193736
H111	H	0.648010	-0.362332	-0.346757
H112	H	1.148010	0.137668	0.153243
C113	C	1.182776	-0.199918	-0.991423
C114	C	1.682776	0.300082	-0.491423
H115	H	1.148429	-0.173503	-0.955914
H116	H	1.648429	0.326497	-0.455914
H117	H	1.143458	-0.229906	-1.019542
H118	H	1.643458	0.270094	-0.519542
H119	H	1.217320	-0.166222	-1.023044
H120	H	1.717320	0.333778	-0.523044
H121	H	1.408384	-0.718099	-0.506458
H122	H	1.908384	-0.218099	-0.006458
C123	C	1.182725	-0.199963	-0.830029
C124	C	1.682725	0.300037	-0.330029
H125	H	1.148379	-0.173547	-0.862311
H126	H	1.648379	0.326453	-0.362311
H127	H	1.217234	-0.166280	-0.801680
H128	H	1.717234	0.333720	-0.301680
H129	H	1.143393	-0.229981	-0.798187
H130	H	1.643393	0.270019	-0.298187
C131	C	1.424995	-0.386213	-1.002808
C132	C	1.924995	0.113787	-0.502808
H133	H	1.416757	-0.379842	-1.053699
H134	H	1.916757	0.120158	-0.553699
H135	H	1.411767	-0.436285	-0.989577
H136	H	1.911767	0.063715	-0.489577
H137	H	1.485616	-0.372590	-0.993074
H138	H	1.985616	0.127410	-0.493074
H139	H	0.960249	-0.394655	-0.314309
H140	H	1.460249	0.105345	0.185691
C141	C	1.182695	-0.717973	-0.311413
C142	C	1.682695	-0.217973	0.188587
H143	H	1.190921	-0.666300	-0.318547
H144	H	1.690921	-0.166300	0.181453
H145	H	1.195943	-0.729966	-0.262601
H146	H	1.695943	-0.229966	0.237399
H147	H	1.122073	-0.733452	-0.319285
H148	H	1.622073	-0.233452	0.180715
C149	C	1.424956	-0.386256	-0.841405
C150	C	1.924956	0.113744	-0.341405
H151	H	1.459320	-0.412661	-0.876912
H152	H	1.959320	0.087339	-0.376912
H153	H	1.390419	-0.419949	-0.809784
H154	H	1.890419	0.080051	-0.309784
H155	H	1.464273	-0.356258	-0.813287
H156	H	1.964273	0.143742	-0.313287
H157	H	1.199234	-0.867594	-0.325660
H158	H	1.699234	-0.367594	0.174340
H159	H	0.960386	-0.224070	-0.485382
H160	H	1.460386	0.275930	0.014618
H161	H	0.819102	-0.183714	-0.525879
H162	H	1.319102	0.316286	-0.025879
C163	C	0.634725	-0.178968	-0.530676
C164	C	1.134725	0.321032	-0.030676
H165	H	0.676301	-0.149018	-0.560713
H166	H	1.176301	0.350982	-0.060713
H167	H	0.597963	-0.148600	-0.500854
H168	H	1.097963	0.351400	-0.000854
H169	H	0.597982	-0.208895	-0.560969
H170	H	1.097982	0.291105	-0.060969
