data_functionalizedCrystal
_audit_creation_method	'MofGen! by Chris Wilmer'
_symmetry_space_group_name_H-M	'P1'
_symmetry_Int_Tables_number	1
_symmetry_cell_setting	triclinic
loop_
_symmetry_equiv_pos_as_xyz
  x,y,z
_cell_length_a	12.759401
_cell_length_b	12.759394
_cell_length_c	12.759393
_cell_angle_alpha	90.029257
_cell_angle_beta	90.020938
_cell_angle_gamma	90.016166
loop_
_atom_site_label
_atom_site_type_symbol
_atom_site_fract_x
_atom_site_fract_y
_atom_site_fract_z
Zn1	Zn	1.606267	-0.418173	0.594029
Zn2	Zn	1.606158	-0.593889	0.418353
Zn3	Zn	1.430566	-0.418229	0.418364
Zn4	Zn	1.430558	-0.593815	0.593990
O5	O	1.518387	-0.506026	0.506184
O6	O	1.753273	-0.441489	0.570737
O7	O	1.582823	-0.570641	0.271333
O8	O	1.453921	-0.271200	0.441688
O9	O	1.753194	-0.570587	0.441668
O10	O	1.583008	-0.271159	0.570748
O11	O	1.453816	-0.441585	0.271342
O12	O	1.283543	-0.441513	0.441650
O13	O	1.453908	-0.570462	0.741017
O14	O	1.283538	-0.570516	0.570682
O15	O	1.583001	-0.441418	0.741045
O16	O	1.582815	-0.740900	0.441631
O17	O	1.453803	-0.740846	0.570671
C18	C	1.245420	-0.506014	0.506163
C19	C	1.128643	-0.506033	0.506179
C20	C	1.518325	-0.778994	0.506168
C21	C	1.518394	-0.895771	0.506196
C22	C	1.073806	-0.573307	0.573260
C23	C	0.964081	-0.573311	0.573281
C24	C	0.964042	-0.438765	0.439131
C25	C	1.073764	-0.438756	0.439116
C26	C	1.652959	-1.115197	0.371971
C27	C	1.720154	-1.060326	0.304830
C28	C	1.720100	-0.950605	0.304809
C29	C	1.652840	-0.895751	0.371935
C30	C	1.585644	-0.950622	0.439076
C31	C	1.585709	-1.060346	0.439092
C32	C	1.451199	-0.950641	0.573338
C33	C	1.451257	-1.060363	0.573366
C34	C	1.383939	-0.895787	0.640463
C35	C	1.316748	-0.950658	0.707612
C36	C	1.316806	-1.060386	0.707630
C37	C	1.384062	-1.115233	0.640507
C38	C	1.792420	-0.506040	0.506206
C39	C	1.909197	-0.506046	0.506215
C40	C	1.518466	-0.505925	0.780218
C41	C	1.518499	-0.505882	0.896994
C42	C	1.518478	-0.231993	0.506223
C43	C	1.518517	-0.115216	0.506240
C44	C	1.518369	-0.506051	0.233217
C45	C	1.518539	-0.505798	0.116441
C46	C	1.585723	-0.438679	0.951873
C47	C	1.585740	-0.438633	1.061597
C48	C	1.451308	-0.573005	1.061555
C49	C	1.451286	-0.573044	0.951832
H50	H	0.919438	-0.628091	0.627907
C51	C	1.378467	-0.646075	0.892107
C52	C	1.437918	-0.713420	0.829092
C53	C	1.370874	-0.780693	0.774047
H54	H	1.338421	-0.686174	0.940357
H55	H	1.332715	-0.605922	0.849243
H56	H	1.483652	-0.753569	0.871952
H57	H	1.477962	-0.673350	0.780822
H58	H	1.325122	-0.740540	0.731183
H59	H	1.330832	-0.820785	0.822305
H60	H	1.411201	-0.826388	0.731278
C61	C	1.658514	-0.365690	0.892202
C62	C	1.599034	-0.298388	0.829193
C63	C	1.666051	-0.231140	0.774203
H64	H	1.698572	-0.325558	0.940485
H65	H	1.704256	-0.405863	0.849338
H66	H	1.553310	-0.258219	0.872053
H67	H	1.558978	-0.338491	0.780890
H68	H	1.711793	-0.271313	0.731340
H69	H	1.706106	-0.191015	0.822494
H70	H	1.625705	-0.185474	0.731438
H71	H	0.919346	-0.383991	0.384529
H72	H	1.396588	-0.627687	1.106217
H73	H	1.118414	-0.383967	0.384491
C74	C	1.658552	-0.365535	1.121231
C75	C	1.599098	-0.298145	1.184195
C76	C	1.666135	-0.230776	1.239132
H77	H	1.704345	-0.405584	1.164126
H78	H	1.698554	-0.325483	1.072884
H79	H	1.559114	-0.338192	1.232536
H80	H	1.553308	-0.258073	1.141326
H81	H	1.706137	-0.190724	1.190784
H82	H	1.711925	-0.270834	1.282021
H83	H	1.625806	-0.185038	1.281851
C84	C	1.243796	-0.891234	0.780656
C85	C	1.266627	-0.917844	0.884630
C86	C	1.199439	-0.863129	0.951951
H87	H	1.253319	-0.818015	0.771165
H88	H	1.173203	-0.909306	0.765294
H89	H	1.337203	-0.899765	0.899987
H90	H	1.257097	-0.991054	0.894155
H91	H	1.128846	-0.881201	0.936588
H92	H	1.208968	-0.789912	0.942449
H93	H	1.214914	-0.881183	1.022503
H94	H	1.262088	-1.105055	0.762306
H95	H	1.118485	-0.628086	0.627870
C96	C	1.793338	-1.119760	0.232015
C97	C	1.897266	-1.092963	0.254950
C98	C	1.964703	-1.147682	0.187884
H99	H	1.783884	-1.192979	0.241582
H100	H	1.778048	-1.101820	0.161390
H101	H	1.912551	-1.110910	0.325558
H102	H	1.906753	-1.019753	0.245377
H103	H	1.949414	-1.129742	0.117259
H104	H	1.955240	-1.220898	0.197456
H105	H	2.035225	-1.129501	0.203429
H106	H	1.653020	-1.204538	0.371991
H107	H	1.774812	-0.905929	0.250133
H108	H	1.652793	-0.806410	0.371903
H109	H	1.383896	-0.806446	0.640438
H110	H	1.384120	-1.204574	0.640520
