data_functionalizedCrystal
_audit_creation_method	'MofGen! by Chris Wilmer'
_symmetry_space_group_name_H-M	'P1'
_symmetry_Int_Tables_number	1
_symmetry_cell_setting	triclinic
loop_
_symmetry_equiv_pos_as_xyz
  x,y,z
_cell_length_a	12.759395
_cell_length_b	12.759394
_cell_length_c	12.759393
_cell_angle_alpha	90.032294
_cell_angle_beta	90.018221
_cell_angle_gamma	90.014682
loop_
_atom_site_label
_atom_site_type_symbol
_atom_site_fract_x
_atom_site_fract_y
_atom_site_fract_z
Zn1	Zn	1.606255	-0.418209	0.593968
Zn2	Zn	1.606149	-0.593928	0.418286
Zn3	Zn	1.430557	-0.418263	0.418309
Zn4	Zn	1.430545	-0.593846	0.593929
O5	O	1.518377	-0.506061	0.506123
O6	O	1.753262	-0.441530	0.570671
O7	O	1.582817	-0.570682	0.271268
O8	O	1.453913	-0.271235	0.441636
O9	O	1.753184	-0.570630	0.441598
O10	O	1.582998	-0.271195	0.570693
O11	O	1.453810	-0.441622	0.271284
O12	O	1.283534	-0.441543	0.441598
O13	O	1.453893	-0.570490	0.740955
O14	O	1.283526	-0.570543	0.570625
O15	O	1.582986	-0.441451	0.740984
O16	O	1.582805	-0.740938	0.441560
O17	O	1.453790	-0.740878	0.570603
C18	C	1.245409	-0.506041	0.506110
C19	C	1.128632	-0.506057	0.506129
C20	C	1.128694	-0.371842	0.640750
C21	C	1.073864	-0.304748	0.708069
C22	C	0.964143	-0.304767	0.708082
C23	C	0.909249	-0.371885	0.640767
C24	C	0.964078	-0.438979	0.573448
C25	C	1.073803	-0.438956	0.573444
C26	C	0.964017	-0.573187	0.438824
C27	C	1.073738	-0.573175	0.438814
C28	C	0.909122	-0.640305	0.371508
C29	C	0.963952	-0.707406	0.304193
C30	C	1.073680	-0.707386	0.304184
C31	C	1.128568	-0.640270	0.371495
C32	C	1.518314	-0.779029	0.506098
C33	C	1.518383	-0.895806	0.506122
C34	C	1.652827	-0.895815	0.371849
C35	C	1.720077	-0.950680	0.304725
C36	C	1.720138	-1.060402	0.304754
C37	C	1.652945	-1.115260	0.371916
C38	C	1.585696	-1.060395	0.439040
C39	C	1.585639	-0.950671	0.439002
C40	C	1.451258	-1.060386	0.573316
C41	C	1.451190	-0.950664	0.573284
C42	C	1.384065	-1.115245	0.640478
C43	C	1.316809	-1.060379	0.707598
C44	C	1.316749	-0.950651	0.707566
C45	C	1.383940	-0.895799	0.640408
C46	C	1.792410	-0.506083	0.506137
C47	C	1.909187	-0.506092	0.506142
C48	C	1.518450	-0.505955	0.780156
C49	C	1.518482	-0.505910	0.896933
C50	C	1.518469	-0.232028	0.506171
C51	C	1.518508	-0.115251	0.506192
C52	C	1.518364	-0.506091	0.233156
C53	C	1.518536	-0.505840	0.116379
C54	C	1.585710	-0.438713	0.951812
C55	C	1.585735	-0.438675	1.061536
C56	C	1.451300	-0.573041	1.061493
C57	C	1.451271	-0.573073	0.951771
C58	C	1.652920	-0.371550	0.896975
C59	C	1.720155	-0.304348	0.951854
C60	C	1.720180	-0.304310	1.061578
C61	C	1.652970	-0.371474	1.116423
H62	H	1.652770	-0.806474	0.371806
O63	O	1.386076	-0.638433	1.114650
C64	C	1.409013	-0.743155	1.087829
H65	H	1.449376	-0.745357	1.008163
H66	H	1.463036	-0.778527	1.149573
C67	C	1.256995	-0.804085	1.180587
C68	C	1.306561	-0.806791	1.082736
H69	H	1.193799	-0.843342	1.177449
H70	H	1.241543	-0.733533	1.198661
H71	H	1.302025	-0.833560	1.232030
H72	H	1.261537	-0.777305	1.031298
H73	H	1.322003	-0.877341	1.064653
O74	O	0.911038	-0.239561	0.773574
C75	C	0.983010	-0.180295	0.832965
H76	H	1.061226	-0.223311	0.836519
H77	H	0.994662	-0.100450	0.794638
C78	C	0.844162	-0.112476	0.940448
C79	C	0.940227	-0.165313	0.944820
H80	H	0.817771	-0.103229	1.009444
H81	H	0.795673	-0.152401	0.900433
H82	H	0.853886	-0.045944	0.908504
H83	H	0.930499	-0.231848	0.976751
H84	H	0.988714	-0.125399	0.984843
O85	O	1.785245	-0.897228	0.239519
C86	C	1.770793	-0.788619	0.253900
H87	H	1.689690	-0.773668	0.288243
H88	H	1.833070	-0.757384	0.309886
C89	C	1.880048	-0.750735	0.105407
C90	C	1.780433	-0.732371	0.147580
H91	H	1.885999	-0.716036	0.039825
H92	H	1.889788	-0.823906	0.095720
H93	H	1.931935	-0.724705	0.152071
H94	H	1.728549	-0.758411	0.100921
H95	H	1.770684	-0.659202	0.157256
O96	O	1.384027	-1.221827	0.640678
C97	C	1.310287	-1.258478	0.714330
H98	H	1.295513	-1.195203	0.775680
H99	H	1.233707	-1.278047	0.672622
C100	C	1.371287	-1.435267	0.692898
C101	C	1.353148	-1.357555	0.768255
H102	H	1.397722	-1.496385	0.726159
H103	H	1.420965	-1.410576	0.643274
H104	H	1.307465	-1.451561	0.658147
H105	H	1.416971	-1.341252	0.802994
H106	H	1.303481	-1.382245	0.817886
H107	H	1.774904	-1.105073	0.250101
O108	O	1.385858	-0.638209	0.898418
C109	C	1.318014	-0.578419	0.834940
H110	H	1.311558	-0.495658	0.868020
H111	H	1.350473	-0.574834	0.751785
C112	C	1.216710	-0.731392	0.792619
C113	C	1.208774	-0.629747	0.833252
H114	H	1.149326	-0.763055	0.791573
H115	H	1.262419	-0.771676	0.835382
H116	H	1.243762	-0.728391	0.723326
H117	H	1.181734	-0.632751	0.902548
H118	H	1.163057	-0.589465	0.790501
H119	H	1.118316	-0.762019	0.249361
O120	O	1.251659	-1.113620	0.772984
C121	C	1.274536	-1.086676	0.877704
H122	H	1.358445	-1.056431	0.883064
H123	H	1.218153	-1.023015	0.905103
C124	C	1.159285	-1.221243	0.941259
C125	C	1.262347	-1.184103	0.947844
H126	H	1.151762	-1.281338	0.984526
H127	H	1.143868	-1.239394	0.870707
H128	H	1.112311	-1.168183	0.964089
H129	H	1.309318	-1.237158	0.925001
H130	H	1.277771	-1.165964	1.018394
H131	H	1.653011	-1.204602	0.371942
O132	O	1.235151	-0.640418	0.371580
C133	C	1.271818	-0.741144	0.398344
H134	H	1.208605	-0.784653	0.444070
H135	H	1.291257	-0.786557	0.323876
C136	C	1.448642	-0.677612	0.410243
C137	C	1.371006	-0.731048	0.466412
H138	H	1.509829	-0.671386	0.452227
H139	H	1.423940	-0.609752	0.392208
H140	H	1.464829	-0.715464	0.348189
H141	H	1.354811	-0.693189	0.528458
H142	H	1.395707	-0.798901	0.484460
O143	O	1.785432	-0.238883	1.114770
C144	C	1.762488	-0.134177	1.087997
H145	H	1.722078	-0.132024	1.008330
H146	H	1.708504	-0.098759	1.149755
C147	C	1.914566	-0.073197	1.180790
C148	C	1.864942	-0.070552	1.082938
H149	H	1.977763	-0.033948	1.177674
H150	H	1.930022	-0.143739	1.198832
H151	H	1.869569	-0.043684	1.232244
H152	H	1.909934	-0.100077	1.031488
H153	H	1.849495	-0.000014	1.064887
O154	O	1.653160	-0.371340	1.223009
C155	C	1.726888	-0.297605	1.259691
H156	H	1.788258	-0.282914	1.196467
H157	H	1.685261	-0.220988	1.279181
C158	C	1.705380	-0.358447	1.436492
C159	C	1.780761	-0.340410	1.358841
H160	H	1.738609	-0.384848	1.497655
H161	H	1.655705	-0.408121	1.411780
H162	H	1.670697	-0.294595	1.452720
H163	H	1.815433	-0.404264	1.342605
H164	H	1.830443	-0.290747	1.383553
H165	H	1.218035	-0.371816	0.640742
H166	H	1.261990	-0.905985	0.762230
H167	H	0.819907	-0.371885	0.640775
H168	H	1.118571	-0.250100	0.762874
H169	H	0.819781	-0.640313	0.371521
H170	H	0.919249	-0.762044	0.249386
H171	H	1.383891	-0.806458	0.640368
H172	H	1.652910	-0.371576	0.807632
H173	H	1.774868	-0.249659	0.907192
