data_functionalizedCrystal
_audit_creation_method	'MofGen! by Chris Wilmer'
_symmetry_space_group_name_H-M	'P1'
_symmetry_Int_Tables_number	1
_symmetry_cell_setting	triclinic
loop_
_symmetry_equiv_pos_as_xyz
  x,y,z
_cell_length_a	10.723024
_cell_length_b	10.654551
_cell_length_c	9.730223
_cell_angle_alpha	90.004006
_cell_angle_beta	90.000553
_cell_angle_gamma	84.476616
loop_
_atom_site_label
_atom_site_type_symbol
_atom_site_fract_x
_atom_site_fract_y
_atom_site_fract_z
O1	O	1.657208	0.176154	0.114272
O2	O	1.294059	0.193015	0.114275
O3	O	1.483982	0.001844	0.114274
O4	O	1.467285	0.367325	0.114273
O5	O	1.483980	0.001829	-0.114306
O6	O	1.294056	0.193000	-0.114305
O7	O	1.657206	0.176139	-0.114308
Zn8	Zn	1.475630	0.184567	-0.150598
Zn9	Zn	1.475634	0.184587	0.150566
O10	O	1.467282	0.367310	-0.114307
C11	C	1.247557	0.191780	-0.000014
C12	C	1.109003	0.188109	-0.000012
C13	C	1.482755	-0.044961	-0.000013
C14	C	1.479086	-0.184404	-0.000003
C15	C	1.034036	0.295078	-0.000012
C16	C	0.890832	0.291286	-0.000010
C17	C	1.477366	-0.249907	0.124593
C18	C	1.473908	-0.380927	0.124587
C19	C	1.473895	-0.380929	-0.124624
C20	C	1.477344	-0.249911	-0.124616
C21	C	1.479108	-0.184401	0.249206
C22	C	1.477389	-0.249905	0.373812
C23	C	1.473931	-0.380924	0.373806
C24	C	1.472192	-0.446440	0.249193
C25	C	1.703707	0.177373	-0.000016
C26	C	1.842262	0.181044	-0.000009
C27	C	1.468510	0.414115	-0.000017
C28	C	1.472179	0.553558	-0.000017
N29	N	1.475637	0.184553	-0.356135
N30	N	1.475637	0.184591	0.356102
C31	C	1.559900	0.100090	0.571911
C32	C	1.559897	0.100106	0.428028
C33	C	1.391366	0.269058	0.428066
C34	C	1.391363	0.269035	0.571946
C35	C	1.644174	0.015607	0.643831
C36	C	1.728444	-0.068861	0.571877
C37	C	1.728441	-0.068845	0.427994
C38	C	1.644168	0.015639	0.356065
H39	H	1.075873	0.389465	-0.000020
C40	C	1.471991	-0.452999	-0.261687
C41	C	1.361451	-0.529750	-0.295950
C42	C	1.359552	-0.601820	-0.433015
C43	C	1.468193	-0.597140	-0.535817
C44	C	1.578741	-0.520387	-0.501556
C45	C	1.580640	-0.448316	-0.364491
H46	H	1.281022	-0.533217	-0.219848
H47	H	1.277716	-0.658638	-0.458377
H48	H	1.466787	-0.650491	-0.637280
H49	H	1.659171	-0.516920	-0.577658
H50	H	1.662476	-0.391498	-0.339130
C51	C	0.929269	0.057320	-0.000009
C52	C	1.022610	0.028366	-0.118706
C53	C	1.109628	-0.095358	-0.118706
C54	C	1.103305	-0.190129	-0.000011
C55	C	1.009960	-0.161177	0.118695
C56	C	0.922942	-0.037453	0.118695
H57	H	1.027294	0.098523	-0.206579
H58	H	1.178728	-0.116789	-0.206581
H59	H	1.167721	-0.281717	-0.000011
H60	H	1.005276	-0.231335	0.206568
H61	H	0.853842	-0.016022	0.206569
H62	H	1.478718	-0.196573	-0.226073
C63	C	1.298550	0.361926	0.349028
C64	C	1.301439	0.505013	0.368852
C65	C	1.208563	0.597854	0.289855
C66	C	1.112798	0.547609	0.191035
C67	C	1.109906	0.404515	0.171207
C68	C	1.202782	0.311674	0.250204
H69	H	1.372333	0.542214	0.442009
H70	H	1.210704	0.703782	0.304534
H71	H	1.044046	0.616336	0.132557
H72	H	1.039012	0.367314	0.098050
H73	H	1.200640	0.205746	0.235525
H74	H	1.644186	0.015589	0.760987
H75	H	1.797049	-0.137653	0.630449
H76	H	0.826414	0.382860	-0.000004
C77	C	1.298677	0.361948	0.651103
C78	C	1.206289	0.455185	0.571996
C79	C	1.113596	0.548096	0.651152
C80	C	1.113290	0.547770	0.809414
C81	C	1.205681	0.454529	0.888529
C82	C	1.298374	0.361618	0.809373
H83	H	1.206513	0.455430	0.454834
H84	H	1.045203	0.617119	0.592585
H85	H	1.044673	0.616549	0.868010
H86	H	1.205458	0.454285	1.005692
H87	H	1.366768	0.292595	0.867941
H88	H	1.469358	-0.553123	0.249198
H89	H	1.067166	0.093722	0.000023
H90	H	1.478794	-0.196551	0.475267
H91	H	1.481927	-0.077718	0.249225
H92	H	1.472519	-0.434252	0.475266
H93	H	1.797048	-0.137631	0.369410
H94	H	1.644165	0.015636	0.238905
