data_functionalizedCrystal
_audit_creation_method	'MofGen! by Chris Wilmer'
_symmetry_space_group_name_H-M	'P1'
_symmetry_Int_Tables_number	1
_symmetry_cell_setting	triclinic
loop_
_symmetry_equiv_pos_as_xyz
  x,y,z
_cell_length_a	12.759401
_cell_length_b	12.759400
_cell_length_c	12.759393
_cell_angle_alpha	89.968231
_cell_angle_beta	89.982620
_cell_angle_gamma	90.014845
loop_
_atom_site_label
_atom_site_type_symbol
_atom_site_fract_x
_atom_site_fract_y
_atom_site_fract_z
Zn1	Zn	1.606244	-0.418198	-0.593981
Zn2	Zn	1.606142	-0.593917	-0.418301
Zn3	Zn	1.430549	-0.418253	-0.418321
Zn4	Zn	1.430535	-0.593836	-0.593943
O5	O	1.518367	-0.506051	-0.506137
O6	O	1.753251	-0.441518	-0.570685
O7	O	1.582812	-0.570672	-0.271283
O8	O	1.453905	-0.271225	-0.441647
O9	O	1.753176	-0.570618	-0.441614
O10	O	1.582987	-0.271184	-0.570704
O11	O	1.453805	-0.441613	-0.271297
O12	O	1.283526	-0.441534	-0.441609
O13	O	1.453879	-0.570480	-0.740969
O14	O	1.283516	-0.570533	-0.570638
O15	O	1.582972	-0.441439	-0.740997
O16	O	1.582798	-0.740927	-0.441577
O17	O	1.453780	-0.740868	-0.570620
C18	C	1.245400	-0.506032	-0.506122
C19	C	1.128623	-0.506049	-0.506141
C20	C	1.518305	-0.779018	-0.506115
C21	C	1.518374	-0.895795	-0.506140
C22	C	1.073783	-0.573326	-0.573215
C23	C	0.964059	-0.573340	-0.573227
C24	C	0.964025	-0.438795	-0.439081
C25	C	1.073747	-0.438777	-0.439075
C26	C	1.073802	-0.651008	-0.650660
C27	C	0.964078	-0.651021	-0.650672
C28	C	1.585629	-0.950653	-0.439022
C29	C	1.585693	-1.060377	-0.439054
C30	C	1.451240	-1.060375	-0.573327
C31	C	1.451182	-0.950653	-0.573299
C32	C	1.663251	-0.950655	-0.361498
C33	C	1.663315	-1.060379	-0.361530
C34	C	1.792401	-0.506071	-0.506152
C35	C	1.909177	-0.506080	-0.506158
C36	C	1.518436	-0.505944	-0.780170
C37	C	1.518465	-0.505898	-0.896947
C38	C	1.518459	-0.232018	-0.506182
C39	C	1.518497	-0.115241	-0.506201
C40	C	1.451319	-0.438685	-0.951822
C41	C	1.451351	-0.438653	-1.061546
C42	C	1.585683	-0.573052	-1.061510
C43	C	1.585645	-0.573088	-0.951788
C44	C	1.373767	-0.361087	-0.951844
C45	C	1.373799	-0.361056	-1.061568
C46	C	1.518360	-0.506082	-0.233169
C47	C	1.518534	-0.505831	-0.116393
H48	H	0.919332	-0.384024	-0.384479
H49	H	0.934283	-0.732371	-0.628740
H50	H	1.395616	-0.279674	-1.091366
C51	C	1.633952	-1.100735	-0.251601
H52	H	1.634009	-1.175192	-0.251626
H53	H	1.566147	-1.075999	-0.233360
H54	H	1.683605	-1.075921	-0.202000
C55	C	1.377206	-0.890312	-0.647131
H56	H	1.337191	-0.938701	-0.687122
H57	H	1.417347	-0.847437	-0.692928
H58	H	1.331420	-0.847582	-0.606886
C59	C	1.134068	-0.364769	-0.365297
H60	H	1.085669	-0.324718	-0.325351
H61	H	1.176893	-0.319036	-0.405563
H62	H	1.176847	-0.404903	-0.319441
H63	H	1.103609	-0.629308	-0.732067
C64	C	1.269379	-0.400390	-1.107543
H65	H	1.222854	-0.417922	-1.052091
H66	H	1.281849	-0.460636	-1.149433
H67	H	1.239008	-0.346863	-1.149458
H68	H	1.396535	-1.105054	-0.628005
H69	H	1.292378	-0.382876	-0.922067
H70	H	1.740619	-1.094324	-0.390742
C71	C	0.918139	-0.611787	-0.755161
H72	H	0.973608	-0.594312	-0.801689
H73	H	0.876238	-0.551521	-0.742787
H74	H	0.876241	-0.665337	-0.785479
H75	H	1.744594	-0.920798	-0.383349
C76	C	1.119761	-0.755367	-0.611109
H77	H	1.064302	-0.801855	-0.593506
H78	H	1.161648	-0.742805	-0.550874
H79	H	1.161678	-0.785834	-0.664562
H80	H	1.402931	-0.283809	-0.917828
C81	C	1.623918	-0.904788	-0.257039
H82	H	1.606448	-0.960288	-0.210538
H83	H	1.563634	-0.862918	-0.269458
H84	H	1.677422	-0.862870	-0.226665
C85	C	1.659501	-0.647026	-0.891428
H86	H	1.699521	-0.687027	-0.939806
H87	H	1.619280	-0.692810	-0.848614
H88	H	1.705285	-0.606850	-0.848636
C89	C	1.659581	-0.646948	-1.121838
H90	H	1.649993	-0.637298	-1.195045
H91	H	1.644178	-0.717543	-1.103839
H92	H	1.730175	-0.631576	-1.103859
