data_functionalizedCrystal
_audit_creation_method	'MofGen! by Chris Wilmer'
_symmetry_space_group_name_H-M	'P1'
_symmetry_Int_Tables_number	1
_symmetry_cell_setting	triclinic
loop_
_symmetry_equiv_pos_as_xyz
  x,y,z
_cell_length_a	14.560438
_cell_length_b	14.560438
_cell_length_c	14.560438
_cell_angle_alpha	59.996693
_cell_angle_beta	90.001034
_cell_angle_gamma	60.002023
loop_
_atom_site_label
_atom_site_type_symbol
_atom_site_fract_x
_atom_site_fract_y
_atom_site_fract_z
Zr1	Zr	0.884757	1.005331	-0.120597
O2	O	0.738109	1.196939	-0.267257
O3	O	0.929712	0.813723	-0.075630
O4	O	0.929708	1.005334	-0.267246
O5	O	0.738116	1.005325	0.075500
O6	O	1.080847	1.005336	-0.267247
O7	O	0.738112	1.005327	-0.075640
O8	O	1.080853	0.662579	0.075520
O9	O	0.738110	1.348083	-0.267267
O10	O	1.061678	0.892536	-0.056463
O11	O	0.948888	0.892532	0.056333
O12	O	0.948884	1.118130	-0.169271
O13	O	0.836094	1.118126	-0.056475
Zr14	Zr	1.125811	1.005331	0.120453
Zr15	Zr	1.125805	1.005335	-0.120599
Zr16	Zr	0.884763	1.005327	0.120455
Zr17	Zr	0.884759	1.246388	-0.120613
Zr18	Zr	1.125810	0.764274	0.120469
O19	O	1.080857	1.196939	0.075486
O20	O	1.080848	1.196945	-0.267260
O21	O	0.738117	1.196933	0.075488
O22	O	1.272460	0.813723	0.267113
O23	O	1.272451	0.813728	-0.075632
O24	O	0.929720	0.813717	0.267116
O25	O	1.272452	1.005336	-0.075644
O26	O	1.080860	1.005327	0.267102
O27	O	0.929722	1.005325	0.267103
O28	O	1.272456	1.005334	0.075496
O29	O	0.929711	1.348086	-0.267268
O30	O	1.080858	0.662576	0.267124
O31	O	1.272459	0.662579	0.267123
O32	O	1.272454	0.662582	0.075518
O33	O	0.738115	1.348079	-0.075662
O34	O	0.929716	1.348083	-0.075664
O35	O	1.061684	0.892532	0.169127
O36	O	1.174474	0.892536	0.056331
O37	O	1.061680	1.118130	-0.056477
O38	O	0.948890	1.118126	0.056318
C39	C	1.005282	0.703805	-0.000053
C40	C	1.005281	0.601470	-0.000046
C41	C	0.922014	0.636684	-0.083328
C42	C	0.922019	0.540544	-0.083357
C43	C	1.088563	0.373977	0.083188
C44	C	1.088562	0.470117	0.083211
C45	C	0.703770	1.005326	-0.000070
C46	C	0.601439	1.005324	-0.000069
C47	C	0.612237	0.887568	0.058812
C48	C	0.516083	0.887575	0.058812
C49	C	0.398333	1.123102	-0.058957
C50	C	0.494487	1.123095	-0.058951
C51	C	1.306799	1.005336	-0.000074
C52	C	1.409130	1.005338	-0.000075
C53	C	1.005277	1.005336	-0.301591
C54	C	1.005274	1.005338	-0.403924
C55	C	1.005286	1.306856	-0.000091
C56	C	1.005287	1.409191	-0.000098
C57	C	0.946398	1.123093	-0.510885
C58	C	0.946411	1.123087	-0.607034
C59	C	1.064178	0.887559	-0.489247
C60	C	1.064171	0.887567	-0.393101
C61	C	1.005292	1.005326	0.301447
C62	C	1.005294	1.005324	0.403780
C63	C	1.306796	0.703810	-0.000055
C64	C	1.409127	0.601477	-0.000049
C65	C	1.005290	0.703800	0.301467
C66	C	1.005291	0.601463	0.403806
C67	C	1.306804	0.703805	0.301465
C68	C	1.409137	0.601470	0.403803
C69	C	0.703764	1.306856	-0.301609
C70	C	0.601431	1.409191	-0.403947
C71	C	0.703772	1.306851	-0.000089
C72	C	0.601442	1.409184	-0.000095
C73	C	1.005279	1.306861	-0.301611
C74	C	1.005277	1.409198	-0.403950
C75	C	1.398327	0.553398	-0.058921
C76	C	1.494481	0.457253	-0.058919
C77	C	1.612232	0.457270	0.058835
C78	C	1.516079	0.553420	0.058826
C79	C	1.064169	0.553383	0.510763
C80	C	1.064158	0.457236	0.606918
C81	C	0.946390	0.457254	0.489146
C82	C	0.946395	0.553406	0.392994
C83	C	1.516089	0.553393	0.393007
C84	C	1.612237	0.457247	0.489169
C85	C	1.494470	0.457260	0.606920
C86	C	1.398323	0.553411	0.510759
H87	H	0.854195	0.743635	-0.151116
F88	F	0.833395	0.578031	-0.171998
H89	H	1.156366	0.267021	0.150974
F90	F	1.482979	0.406090	-0.121581
H91	H	1.156374	0.441432	0.151032
H92	H	0.524885	0.791686	0.106760
F93	F	1.126821	0.406073	0.720749
H94	H	0.311243	1.218987	-0.106898
F95	F	1.482972	0.406102	0.720755
F96	F	0.726061	0.762227	0.121482
H97	H	1.699322	0.418129	0.106771
H98	H	1.112122	0.592514	0.519573
F99	F	0.482990	1.248433	-0.121617
H100	H	0.898441	1.218990	-0.519705
H101	H	0.898440	0.418111	0.480356
F102	F	0.883749	1.248419	-0.720870
H103	H	1.112128	0.791675	-0.480449
F104	F	0.883720	0.604585	0.279152
H105	H	1.112120	0.791670	-0.306002
H106	H	1.524899	0.592522	0.305922
F107	F	1.284503	0.604545	-0.121586
F108	F	1.527577	0.604597	0.121484
H109	H	1.699320	0.418106	0.480371
F110	F	1.284487	0.604587	0.522254
