data_functionalizedCrystal
_audit_creation_method	'MofGen! by Chris Wilmer'
_symmetry_space_group_name_H-M	'P1'
_symmetry_Int_Tables_number	1
_symmetry_cell_setting	triclinic
loop_
_symmetry_equiv_pos_as_xyz
  x,y,z
_cell_length_a	19.121241
_cell_length_b	19.121449
_cell_length_c	19.120904
_cell_angle_alpha	89.923197
_cell_angle_beta	90.124528
_cell_angle_gamma	89.915403
loop_
_atom_site_label
_atom_site_type_symbol
_atom_site_fract_x
_atom_site_fract_y
_atom_site_fract_z
Zn1	Zn	1.066081	-0.252666	0.431900
Zn2	Zn	1.566081	0.247334	0.931900
Zn3	Zn	1.075963	-0.364500	0.310107
Zn4	Zn	1.575963	0.135500	0.810107
Zn5	Zn	0.953829	-0.252250	0.309687
Zn6	Zn	1.453829	0.247750	0.809687
Zn7	Zn	0.954212	-0.374414	0.421889
Zn8	Zn	1.454212	0.125586	0.921889
O9	O	1.012521	-0.310957	0.368396
O10	O	1.512521	0.189043	0.868396
O11	O	1.165323	-0.263525	0.420109
O12	O	1.665323	0.236475	0.920109
O13	O	1.063737	-0.345287	0.212123
O14	O	1.563737	0.154713	0.712123
O15	O	0.964423	-0.154377	0.329912
O16	O	1.464423	0.345623	0.829912
O17	O	1.172584	-0.345689	0.330628
O18	O	1.672584	0.154311	0.830628
O19	O	1.046894	-0.154682	0.419702
O20	O	1.546894	0.345318	0.919702
O21	O	0.974006	-0.262818	0.211814
O22	O	1.474006	0.237182	0.711814
O23	O	0.855949	-0.272431	0.320205
O24	O	1.355949	0.227569	0.820205
O25	O	0.965076	-0.362586	0.521146
O26	O	1.465076	0.137414	1.021146
O27	O	0.856230	-0.362184	0.402640
O28	O	1.356230	0.137816	0.902640
O29	O	1.047266	-0.273139	0.528500
O30	O	1.547266	0.226861	1.028500
O31	O	1.064109	-0.463744	0.320921
O32	O	1.564109	0.036256	0.820921
O33	O	0.974659	-0.471027	0.403048
O34	O	1.474659	0.028973	0.903048
C35	C	0.830697	-0.318339	0.360291
C36	C	1.330697	0.181661	0.860291
C37	C	0.752912	-0.321514	0.356840
C38	C	1.252912	0.178486	0.856840
C39	C	0.712589	-0.280301	0.401872
C40	C	1.212589	0.219699	0.901872
C41	C	0.639502	-0.283281	0.398623
C42	C	1.139502	0.216719	0.898623
C43	C	0.606738	-0.327478	0.350346
C44	C	1.106738	0.172522	0.850346
C45	C	0.647067	-0.368692	0.305309
C46	C	1.147067	0.131308	0.805309
C47	C	0.720153	-0.365708	0.308555
C48	C	1.220153	0.134292	0.808555
C49	C	0.386255	-0.338621	0.338208
C50	C	0.886255	0.161379	0.838208
C51	C	0.313164	-0.341603	0.334967
C52	C	0.813164	0.158397	0.834967
C53	C	0.305604	-0.256191	0.428281
C54	C	0.805604	0.243809	0.928281
C55	C	0.378691	-0.253214	0.431526
C56	C	0.878691	0.246786	0.931526
C57	C	0.419013	-0.294425	0.386487
C58	C	0.919013	0.205575	0.886487
C59	C	0.532032	-0.330526	0.347025
C60	C	1.032032	0.169474	0.847025
C61	C	0.493719	-0.291373	0.389804
C62	C	0.993719	0.208627	0.889804
C63	C	1.020516	-0.492777	0.360960
C64	C	1.520516	0.007223	0.860960
C65	C	1.024000	-0.570559	0.357805
C66	C	1.524000	-0.070559	0.857805
C67	C	0.979035	-0.610918	0.399043
C68	C	1.479035	-0.110918	0.899043
C69	C	0.982311	-0.684002	0.396076
C70	C	1.482311	-0.184002	0.896076
C71	C	1.030556	-0.716725	0.351874
C72	C	1.530556	-0.216725	0.851874
C73	C	1.075522	-0.676361	0.310632
C74	C	1.575522	-0.176361	0.810632
C75	C	1.072242	-0.603278	0.313595
C76	C	1.572242	-0.103278	0.813595
C77	C	1.042788	-0.937197	0.340785
C78	C	1.542788	-0.437197	0.840785
C79	C	1.046066	-1.010285	0.337826
C80	C	1.546066	-0.510285	0.837826
C81	C	0.952853	-1.017921	0.423271
C82	C	1.452853	-0.517921	0.923271
C83	C	0.949581	-0.944837	0.426233
C84	C	1.449581	-0.444837	0.926233
C85	C	0.994544	-0.904479	0.384988
C86	C	1.494544	-0.404479	0.884988
C87	C	1.033907	-0.791429	0.348842
C88	C	1.533907	-0.291429	0.848842
C89	C	0.991189	-0.829776	0.388017
C90	C	1.491189	-0.329776	0.888017
C91	C	1.195056	-0.303548	0.376532
C92	C	1.695056	0.196452	0.876532
C93	C	1.272841	-0.300390	0.379999
C94	C	1.772841	0.199610	0.879999
C95	C	1.005111	-0.319015	0.550925
C96	C	1.505111	0.180985	1.050925
C97	C	1.001954	-0.322448	0.628708
C98	C	1.501954	0.177552	1.128708
C99	C	1.004514	-0.128427	0.375877
C100	C	1.504514	0.371573	0.875877
C101	C	1.001101	-0.050644	0.379065
C102	C	1.501101	0.449356	0.879065
C103	C	1.019940	-0.302879	0.186581
C104	C	1.519940	0.197121	0.686581
C105	C	1.023225	-0.299243	0.108812
C106	C	1.523225	0.200757	0.608812
C107	C	1.043260	-0.277493	0.669080
C108	C	1.543260	0.222507	1.169080
C109	C	1.040284	-0.280717	0.742165
C110	C	1.540284	0.219283	1.242165
C111	C	0.996006	-0.328900	0.774876
C112	C	1.496006	0.171100	1.274876
C113	C	0.954695	-0.373857	0.734498
C114	C	1.454695	0.126143	1.234498
C115	C	0.957667	-0.370630	0.661415
C116	C	1.457667	0.129370	1.161415
C117	C	0.984887	-0.340973	0.995350
C118	C	1.484887	0.159027	1.495350
C119	C	0.981919	-0.344198	1.068439
C120	C	1.481919	0.155802	1.568439
C121	C	1.067507	-0.251057	1.076102
C122	C	1.567507	0.248943	1.576102
C123	C	1.070479	-0.247836	1.003016
C124	C	1.570479	0.252164	1.503016
C125	C	1.029166	-0.292791	0.962644
C126	C	1.529166	0.207209	1.462644
C127	C	0.992965	-0.332198	0.849581
C128	C	1.492965	0.167802	1.349581
C129	C	1.032203	-0.289489	0.887941
C130	C	1.532203	0.210511	1.387941
H131	H	0.505348	-0.366511	0.307717
H132	H	1.005348	0.133489	0.807717
Br133	Br	1.099386	-0.835845	0.288862
Br134	Br	1.599386	-0.335845	0.788862
H135	H	0.945860	-0.383437	1.095070
H136	H	1.445860	0.116563	1.595070
Br137	Br	0.538184	-0.231390	0.455318
Br138	Br	1.038184	0.268610	0.955318
H139	H	0.939752	-0.584280	0.435041
H140	H	1.439752	-0.084280	0.935041
Br141	Br	1.140996	-0.720770	0.250641
Br142	Br	1.640996	-0.220770	0.750641
Br143	Br	1.111546	-1.054694	0.277836
Br144	Br	1.611546	-0.554694	0.777836
H145	H	1.073922	-0.244111	0.775034
H146	H	1.573922	0.255889	1.275034
Br147	Br	0.921292	-0.738774	0.452053
Br148	Br	1.421292	-0.238774	0.952053
Br149	Br	0.884108	-0.900432	0.486229
Br150	Br	1.384108	-0.400432	0.986229
H151	H	0.405362	-0.217227	0.470841
H152	H	0.905362	0.282773	0.970841
H153	H	1.079400	-0.904342	0.307203
H154	H	1.579400	-0.404342	0.807203
H155	H	1.106537	-0.208602	0.976388
H156	H	1.606537	0.291398	1.476388
Br157	Br	1.123571	-0.190049	1.130895
Br158	Br	1.623571	0.309951	1.630895
Br159	Br	0.891834	-1.072697	0.479242
Br160	Br	1.391834	-0.572697	0.979242
H161	H	0.739259	-0.244313	0.441187
H162	H	1.239259	0.255687	0.941187
H163	H	1.108856	-0.570418	0.280014
H164	H	1.608856	-0.070418	0.780014
H165	H	0.951257	-0.377588	0.962488
H166	H	1.451257	0.122412	1.462488
Br167	Br	0.894598	-0.439246	0.778891
Br168	Br	1.394598	0.060754	1.278891
Br169	Br	1.103360	-0.212103	0.624694
Br170	Br	1.603360	0.287897	1.124694
Br171	Br	0.774878	-0.421640	0.247436
Br172	Br	1.274878	0.078360	0.747436
Br173	Br	0.901603	-0.431639	0.606622
Br174	Br	1.401603	0.068361	1.106622
Br175	Br	0.932876	-0.397589	0.893980
Br176	Br	1.432876	0.102411	1.393980
Br177	Br	0.250878	-0.200264	0.489402
Br178	Br	0.750878	0.299736	0.989402
Br179	Br	0.268700	-0.401609	0.269462
Br180	Br	0.768700	0.098391	0.769462
Br181	Br	0.440968	-0.394532	0.277066
Br182	Br	0.940968	0.105468	0.777066
H183	H	0.606674	-0.249723	0.435295
H184	H	1.106674	0.250277	0.935295
H185	H	0.951906	-0.803131	0.424003
H186	H	1.451906	-0.303131	0.924003
H187	H	0.620385	-0.404674	0.265997
H188	H	1.120385	0.095326	0.765997
Br189	Br	1.092284	-0.224090	0.843547
Br190	Br	1.592284	0.275910	1.343547
