data_functionalizedCrystal
_audit_creation_method	'MofGen! by Chris Wilmer'
_symmetry_space_group_name_H-M	'P1'
_symmetry_Int_Tables_number	1
_symmetry_cell_setting	triclinic
loop_
_symmetry_equiv_pos_as_xyz
  x,y,z
_cell_length_a	19.077269
_cell_length_b	12.645330
_cell_length_c	19.076919
_cell_angle_alpha	92.274320
_cell_angle_beta	94.669058
_cell_angle_gamma	87.715669
loop_
_atom_site_label
_atom_site_type_symbol
_atom_site_fract_x
_atom_site_fract_y
_atom_site_fract_z
Zn1	Zn	1.061724	-0.507785	-0.355281
Zn2	Zn	1.066402	-0.678214	-0.237404
Zn3	Zn	0.948579	-0.494125	-0.242148
Zn4	Zn	0.943833	-0.678160	-0.359987
O5	O	1.005135	-0.589571	-0.298705
O6	O	1.160992	-0.536132	-0.335690
O7	O	1.054717	-0.648099	-0.139386
O8	O	0.963617	-0.347592	-0.257172
O9	O	1.164429	-0.661345	-0.249086
O10	O	1.046744	-0.357628	-0.340290
O11	O	0.968153	-0.512850	-0.142871
O12	O	0.849303	-0.512798	-0.261735
O13	O	0.955528	-0.661254	-0.458010
O14	O	0.845816	-0.648008	-0.348310
O15	O	1.042142	-0.536080	-0.454553
O16	O	1.050115	-0.826551	-0.253649
O17	O	0.960064	-0.826512	-0.343710
C18	C	0.821981	-0.578916	-0.306048
C19	C	0.743627	-0.574384	-0.309207
C20	C	0.708605	-0.637333	-0.265533
C21	C	0.634982	-0.633076	-0.268510
C22	C	0.596382	-0.565864	-0.315157
C23	C	0.631409	-0.502913	-0.358835
C24	C	0.705031	-0.507176	-0.355861
C25	C	0.376006	-0.546139	-0.328897
C26	C	0.302379	-0.541878	-0.331866
C27	C	0.305957	-0.672043	-0.241541
C28	C	0.379580	-0.676296	-0.238569
C29	C	0.414600	-0.613349	-0.282249
N30	N	0.521128	-0.561508	-0.318199
N31	N	0.489853	-0.617711	-0.279210
C32	C	1.005100	-0.864998	-0.298690
C33	C	1.005149	-0.982831	-0.298704
C34	C	1.061717	-1.150364	-0.241940
C35	C	1.061889	-1.027822	-0.242066
C36	C	1.022306	-1.032705	-0.372203
C37	C	1.022749	-1.155311	-0.371896
C38	C	0.931373	-1.144726	-0.282703
C39	C	0.931797	-1.022046	-0.281023
C40	C	1.189004	-0.600268	-0.291334
C41	C	1.267357	-0.604827	-0.288192
C42	C	0.997783	-0.600185	-0.482575
C43	C	0.994651	-0.604708	-0.560930
C44	C	1.005188	-0.313071	-0.298735
C45	C	1.005211	-0.195243	-0.298748
C46	C	1.038272	-0.541665	-0.595942
C47	C	1.035320	-0.545910	-0.669565
C48	C	0.988749	-0.613205	-0.708174
C49	C	0.945123	-0.676251	-0.673156
C50	C	0.948072	-0.672000	-0.599535
C51	C	0.975090	-0.632904	-0.928551
C52	C	0.972146	-0.637153	-1.002177
C53	C	1.062342	-0.506810	-0.998580
C54	C	1.065290	-0.502569	-0.924958
C55	C	1.021661	-0.565611	-0.889947
N56	N	0.985732	-0.617549	-0.783428
N57	N	1.024675	-0.561261	-0.814694
C58	C	1.012498	-0.578924	-0.115549
C59	C	1.015767	-0.574110	-0.037189
H60	H	0.733544	-0.455916	-0.391424
O61	O	0.601041	-0.694376	-0.226113
C62	C	0.618407	-0.801993	-0.240678
H63	H	0.670785	-0.808910	-0.265618
H64	H	0.622948	-0.846606	-0.189644
H65	H	0.575533	-0.837484	-0.278549
H66	H	0.411003	-0.731026	-0.200583
H67	H	1.070842	-0.494576	-0.698068
O68	O	0.905627	-0.733090	-0.565498
C69	C	0.861822	-0.667636	-0.524728
H70	H	0.856595	-0.585170	-0.547095
H71	H	0.807598	-0.702775	-0.526064
H72	H	0.885850	-0.662036	-0.468058
H73	H	0.277435	-0.723293	-0.205980
H74	H	0.270954	-0.487137	-0.369849
O75	O	0.746171	-0.702686	-0.220315
C76	C	0.787148	-0.776044	-0.258653
H77	H	0.796059	-0.742504	-0.311672
H78	H	0.840057	-0.791525	-0.227833
H79	H	0.758463	-0.853420	-0.267457
O80	O	1.110417	-0.437093	-0.887396
C81	C	1.071976	-0.363817	-0.846459
H82	H	1.019002	-0.397494	-0.837550
H83	H	1.102762	-0.348233	-0.793546
H84	H	1.063080	-0.286471	-0.875176
O85	O	0.409909	-0.484878	-0.371345
C86	C	0.360050	-0.424656	-0.413160
H87	H	0.308717	-0.416223	-0.386408
H88	H	0.381022	-0.342817	-0.419911
H89	H	0.350094	-0.466228	-0.466973
O90	O	1.085815	-1.000926	-0.389307
C91	C	1.100431	-1.046450	-0.455446
H92	H	1.049058	-1.068107	-0.486452
H93	H	1.128547	-0.987206	-0.485733
H94	H	1.135507	-1.120846	-0.447635
O95	O	0.932643	-0.693981	-0.894512
C96	C	0.888845	-0.628511	-0.853745
H97	H	0.883619	-0.546051	-0.876122
H98	H	0.834620	-0.663643	-0.855071
H99	H	0.912878	-0.622897	-0.797078
H100	H	0.982273	-1.003763	-0.415535
H101	H	0.599976	-0.448192	-0.396819
O102	O	1.104644	-0.445605	-1.032702
C103	C	1.092071	-0.463802	-1.105960
H104	H	1.037260	-0.495939	-1.118190
H105	H	1.095745	-0.386290	-1.133757
H106	H	1.133038	-0.523890	-1.125173
H107	H	0.887667	-0.991100	-0.319606
H108	H	1.051501	-0.993883	-0.187475
H109	H	0.915194	-1.171575	-0.230198
O110	O	1.049616	-1.180807	-0.176558
C111	C	1.101134	-1.139353	-0.126910
H112	H	1.124229	-1.066959	-0.148829
H113	H	1.076073	-1.115500	-0.076106
H114	H	1.144758	-1.202079	-0.115646
O115	O	1.126642	-1.191763	-0.254271
C116	C	1.121219	-1.261168	-0.313999
H117	H	1.071374	-1.239753	-0.348371
H118	H	1.169071	-1.253805	-0.345342
H119	H	1.118827	-1.346065	-0.296582
H120	H	1.116639	-1.002355	-0.252441
H121	H	0.934221	-0.691956	-1.033611
H122	H	0.907202	-0.731040	-0.704598
O123	O	1.086979	-1.194287	-0.388637
C124	C	1.079063	-1.259568	-0.450206
H125	H	1.027571	-1.236856	-0.481503
H126	H	1.124956	-1.248749	-0.483646
H127	H	1.078261	-1.345885	-0.435257
O128	O	0.916387	-0.982478	-0.216516
C129	C	0.971682	-0.919655	-0.187453
H130	H	1.002183	-0.890799	-0.231527
H131	H	0.949045	-0.848622	-0.156988
H132	H	1.008532	-0.968740	-0.150344
O133	O	0.975599	-1.191189	-0.423869
C134	C	0.975563	-1.302699	-0.424102
H135	H	0.996015	-1.330994	-0.369963
H136	H	0.919653	-1.330096	-0.437251
H137	H	1.010990	-1.337175	-0.465280
O138	O	0.881103	-1.179153	-0.332061
C139	C	0.815112	-1.133384	-0.317149
H140	H	0.823151	-1.057331	-0.283841
H141	H	0.783102	-1.114485	-0.368511
H142	H	0.785722	-1.191324	-0.287040
O143	O	1.083529	-0.476201	-0.558548
C144	C	1.121408	-0.421487	-0.605242
H145	H	1.090432	-0.419169	-0.658877
H146	H	1.129796	-0.337173	-0.583681
H147	H	1.174626	-0.463873	-0.610925
