data_functionalizedCrystal
_audit_creation_method	'MofGen! by Chris Wilmer'
_symmetry_space_group_name_H-M	'P1'
_symmetry_Int_Tables_number	1
_symmetry_cell_setting	triclinic
loop_
_symmetry_equiv_pos_as_xyz
  x,y,z
_cell_length_a	17.019311
_cell_length_b	19.188924
_cell_length_c	16.098538
_cell_angle_alpha	92.711427
_cell_angle_beta	83.390489
_cell_angle_gamma	83.269696
loop_
_atom_site_label
_atom_site_type_symbol
_atom_site_fract_x
_atom_site_fract_y
_atom_site_fract_z
O1	O	1.053778	0.082446	-0.144832
O2	O	0.823228	0.094528	-0.128300
O3	O	0.945159	-0.013179	-0.137034
O4	O	0.931848	0.190153	-0.136099
O5	O	0.938036	-0.006911	0.001989
O6	O	0.816106	0.100795	0.010723
O7	O	1.046656	0.088713	-0.005809
Zn8	Zn	0.930250	0.095749	0.024530
Zn9	Zn	0.939634	0.087492	-0.158639
O10	O	0.924725	0.196420	0.002924
C11	C	0.790171	0.097326	-0.056674
C12	C	0.702283	0.096318	-0.050371
C13	C	0.205007	0.090812	-0.010925
C14	C	0.287587	0.091759	-0.016849
C15	C	0.332761	0.088811	-0.095594
C16	C	0.295349	0.084923	-0.168419
C17	C	0.212770	0.083981	-0.162495
C18	C	0.582292	0.091488	-0.117273
C19	C	0.664877	0.092429	-0.123192
C20	C	0.657109	0.099266	0.028380
C21	C	0.574529	0.098320	0.034297
C22	C	0.537124	0.094435	-0.038529
C23	C	0.417172	0.089777	-0.101650
C24	C	0.452714	0.093475	-0.032471
C25	C	0.941167	-0.036055	-0.067491
C26	C	0.939876	-0.113558	-0.067396
C27	C	0.943156	-0.153372	-0.143134
C28	C	0.941931	-0.226193	-0.143053
C29	C	0.937443	-0.259199	-0.067230
C30	C	0.934158	-0.219375	0.008519
C31	C	0.935375	-0.146555	0.008436
N32	N	0.977699	-0.376385	-0.013923
N33	N	0.976545	-0.445562	-0.013849
C34	C	0.933776	-0.478603	-0.066975
N35	N	0.892215	-0.439856	-0.120191
N36	N	0.893372	-0.370673	-0.120267
C37	C	0.936123	-0.338161	-0.067131
C38	C	0.935728	-0.597379	-0.142630
C39	C	0.934498	-0.670200	-0.142545
C40	C	0.926733	-0.663382	0.009028
C41	C	0.927954	-0.590560	0.008942
C42	C	0.932456	-0.557564	-0.066890
C43	C	1.079713	0.085915	-0.077438
C44	C	1.167601	0.086922	-0.083746
C45	C	0.928717	0.219297	-0.066621
C46	C	0.930009	0.296799	-0.066721
N47	N	0.923851	0.101384	0.149537
N48	N	0.946039	0.081852	-0.283647
C49	C	0.975622	0.055685	0.189414
C50	C	0.971153	0.059634	0.276923
C51	C	0.914917	0.109285	0.324553
C52	C	0.863140	0.154986	0.284671
C53	C	0.867606	0.151034	0.197164
C54	C	0.898728	0.123600	0.588963
C55	C	0.894268	0.127551	0.676476
C56	C	1.002281	0.032197	0.668722
C57	C	1.006745	0.028252	0.581213
C58	C	0.954965	0.073950	0.541339
C59	C	0.910349	0.113323	0.414002
C60	C	0.959530	0.069908	0.451892
H61	H	0.168232	0.093216	0.053197
Cl62	Cl	0.839654	0.175743	0.473883
H63	H	0.946818	-0.126511	-0.204882
H64	H	0.415930	0.095879	0.031642
Cl65	Cl	0.946055	-0.276256	-0.238274
H66	H	0.930502	-0.246253	0.070255
H67	H	0.701655	0.090033	-0.187318
H68	H	0.932700	-0.114137	0.070114
H69	H	0.318040	0.094925	0.042449
Cl70	Cl	0.517743	0.102042	0.133294
H71	H	0.551847	0.088323	-0.176573
Cl72	Cl	0.352139	0.081217	-0.267413
Cl73	Cl	0.923831	-0.540505	0.104162
Cl74	Cl	0.792438	0.217403	0.344547
Cl75	Cl	0.941379	-0.555893	-0.237959
H76	H	0.825447	0.188246	0.164697
H77	H	1.005315	0.029479	0.413109
Cl78	Cl	0.165745	0.079095	-0.254045
Cl79	Cl	0.473970	0.086062	-0.200641
H80	H	0.856569	0.160811	0.556504
Cl81	Cl	0.938616	-0.720253	-0.237768
Cl82	Cl	1.067368	-0.025252	0.718855
H83	H	0.923072	-0.690254	0.070765
Cl84	Cl	0.704137	0.104155	0.119926
Cl85	Cl	0.823565	0.189977	0.736349
Cl86	Cl	1.046327	-0.006734	0.129545
H87	H	1.013309	0.022421	0.309390
Cl88	Cl	1.077444	-0.034167	0.521335
