data_functionalizedCrystal
_audit_creation_method	'MofGen! by Chris Wilmer'
_symmetry_space_group_name_H-M	'P1'
_symmetry_Int_Tables_number	1
_symmetry_cell_setting	triclinic
loop_
_symmetry_equiv_pos_as_xyz
  x,y,z
_cell_length_a	16.625539
_cell_length_b	13.032951
_cell_length_c	13.031981
_cell_angle_alpha	90.900548
_cell_angle_beta	82.787859
_cell_angle_gamma	97.193383
loop_
_atom_site_label
_atom_site_type_symbol
_atom_site_fract_x
_atom_site_fract_y
_atom_site_fract_z
Zn1	Zn	-0.544874	-1.520332	-0.609588
Zn2	Zn	-0.211540	-1.186999	-0.276255
Zn3	Zn	0.121793	-0.853665	0.057079
Zn4	Zn	-0.391027	-1.498390	-0.781592
Zn5	Zn	-0.057694	-1.165057	-0.448259
Zn6	Zn	0.275639	-0.831724	-0.114925
Zn7	Zn	-0.395370	-1.348343	-0.587737
Zn8	Zn	-0.062037	-1.015009	-0.254404
Zn9	Zn	0.271296	-0.681676	0.078929
Zn10	Zn	-0.511151	-1.326499	-0.759654
Zn11	Zn	-0.177818	-0.993166	-0.426320
Zn12	Zn	0.155515	-0.659833	-0.092987
O13	O	-0.460606	-1.423391	-0.684643
O14	O	-0.127272	-1.090058	-0.351309
O15	O	0.206061	-0.756724	-0.017976
O16	O	-0.536761	-1.661337	-0.650731
O17	O	-0.203427	-1.328003	-0.317397
O18	O	0.129906	-0.994670	0.015936
O19	O	-0.278763	-1.478445	-0.755913
O20	O	0.054570	-1.145112	-0.422580
O21	O	0.387903	-0.811778	-0.089247
O22	O	-0.431133	-1.389482	-0.446704
O23	O	-0.097799	-1.056148	-0.113371
O24	O	0.235534	-0.722815	0.219963
O25	O	-0.423730	-1.645216	-0.777101
O26	O	-0.090397	-1.311883	-0.443768
O27	O	0.242936	-0.978549	-0.110434
O28	O	-0.540972	-1.515842	-0.462758
O29	O	-0.207639	-1.182508	-0.129424
O30	O	0.125695	-0.849175	0.203909
O31	O	-0.281954	-1.368206	-0.613489
O32	O	0.051379	-1.034872	-0.280156
O33	O	0.384713	-0.701539	0.053178
O34	O	-0.398434	-1.201530	-0.592216
O35	O	-0.065100	-0.868197	-0.258883
O36	O	0.268233	-0.534863	0.074450
O37	O	-0.628465	-1.352253	-0.739711
O38	O	-0.295131	-1.018919	-0.406377
O39	O	0.038202	-0.685586	-0.073044
O40	O	-0.483498	-1.185482	-0.718523
O41	O	-0.150164	-0.852148	-0.385189
O42	O	0.183169	-0.518815	-0.051856
O43	O	-0.653240	-1.494661	-0.629458
O44	O	-0.319907	-1.161327	-0.296125
O45	O	0.013426	-0.827994	0.037209
O46	O	-0.391031	-1.457264	-0.922614
O47	O	-0.057698	-1.123931	-0.589280
O48	O	0.275635	-0.790598	-0.255947
O49	O	-0.479286	-1.330977	-0.906496
O50	O	-0.145953	-0.997643	-0.573162
O51	O	0.187380	-0.664310	-0.239829
C52	C	-0.437778	-1.156190	-0.650619
C53	C	-0.104445	-0.822857	-0.317285
C54	C	0.228889	-0.489524	0.016048
C55	C	-0.428029	-1.041877	-0.636088
C56	C	-0.094695	-0.708544	-0.302754
C57	C	0.238638	-0.375211	0.030579
C58	C	-0.465686	-0.982987	-0.692204
C59	C	-0.132352	-0.649654	-0.358870
C60	C	0.200981	-0.316321	-0.025537
C61	C	-0.455610	-0.864839	-0.677187
C62	C	-0.122277	-0.531506	-0.343853
C63	C	0.211057	-0.198172	-0.010520
C64	C	-0.670929	-1.423468	-0.684575
C65	C	-0.337595	-1.090134	-0.351241
C66	C	-0.004262	-0.756801	-0.017908
C67	C	-0.760556	-1.423500	-0.684546
C68	C	-0.427223	-1.090167	-0.351212
C69	C	-0.093889	-0.756834	-0.017879
C70	C	-1.088749	-1.423562	-0.684436
C71	C	-0.755415	-1.090229	-0.351103
C72	C	-0.422082	-0.756896	-0.017770
C73	C	-0.997435	-1.423542	-0.684470
C74	C	-0.664101	-1.090209	-0.351136
C75	C	-0.330768	-0.756875	-0.017803
C76	C	-0.924655	-1.423532	-0.684492
C77	C	-0.591322	-1.090198	-0.351159
C78	C	-0.257989	-0.756865	-0.017825
C79	C	-0.833336	-1.423510	-0.684523
C80	C	-0.500002	-1.090177	-0.351190
C81	C	-0.166669	-0.756844	-0.017857
C82	C	-0.251114	-1.423383	-0.684644
C83	C	0.082219	-1.090050	-0.351311
C84	C	0.415553	-0.756717	-0.017977
C85	C	-0.161536	-1.423587	-0.684409
C86	C	0.171797	-1.090253	-0.351075
C87	C	0.505130	-0.756920	-0.017742
C88	C	-0.431048	-1.389397	-0.951878
C89	C	-0.097715	-1.056064	-0.618545
C90	C	0.235618	-0.722731	-0.285212
C91	C	-0.418438	-1.374949	-1.066215
C92	C	-0.085105	-1.041615	-0.732881
C93	C	0.248228	-0.708282	-0.399548
C94	C	-0.483519	-0.691637	-0.718789
C95	C	-0.150185	-0.358303	-0.385456
C96	C	0.183148	-0.024970	-0.052122
C97	C	-0.493272	-0.805951	-0.733310
C98	C	-0.159939	-0.472618	-0.399977
C99	C	0.173395	-0.139284	-0.066644
C100	C	-0.467208	-1.430987	-1.125044
C101	C	-0.133874	-1.097653	-0.791711
C102	C	0.199459	-0.764320	-0.458377
C103	C	-0.454176	-1.416055	-1.243217
C104	C	-0.120843	-1.082721	-0.909883
C105	C	0.212491	-0.749388	-0.576550
C106	C	-0.490299	-1.457546	-0.416367
C107	C	-0.156965	-1.124212	-0.083034
C108	C	0.176368	-0.790879	0.250299
C109	C	-0.502952	-1.472100	-0.302044
C110	C	-0.169619	-1.138767	0.031289
C111	C	0.163715	-0.805434	0.364622
H112	H	-0.415912	-0.827793	-0.618018
H113	H	-0.082579	-0.494460	-0.284685
H114	H	0.250754	-0.161126	0.048649
H115	H	-0.532979	-0.842997	-0.792469
H116	H	-0.199646	-0.509663	-0.459136
H117	H	0.133688	-0.176330	-0.125802
Cl118	Cl	-0.366740	-0.984683	-0.544740
Cl119	Cl	-0.033406	-0.651350	-0.211406
Cl120	Cl	0.299927	-0.318017	0.121927
H121	H	-0.402775	-1.357015	-1.280332
H122	H	-0.069442	-1.023681	-0.946999
H123	H	0.263892	-0.690348	-0.613666
Cl124	Cl	-0.546577	-1.522118	-1.067740
Cl125	Cl	-0.213244	-1.188785	-0.734407
Cl126	Cl	0.120090	-0.855451	-0.401074
Cl127	Cl	-0.339081	-1.283801	-1.123516
Cl128	Cl	-0.005747	-0.950467	-0.790183
Cl129	Cl	0.327586	-0.617134	-0.456850
H130	H	-0.554359	-1.531132	-1.264929
H131	H	-0.221026	-1.197798	-0.931595
H132	H	0.112307	-0.864465	-0.598262
Cl133	Cl	-0.526975	-1.040181	-0.783551
Cl134	Cl	-0.193642	-0.706848	-0.450218
Cl135	Cl	0.139692	-0.373515	-0.116884
