data_functionalizedCrystal
_audit_creation_method	'MofGen! by Chris Wilmer'
_symmetry_space_group_name_H-M	'P1'
_symmetry_Int_Tables_number	1
_symmetry_cell_setting	triclinic
loop_
_symmetry_equiv_pos_as_xyz
  x,y,z
_cell_length_a	17.699077
_cell_length_b	16.992696
_cell_length_c	16.176319
_cell_angle_alpha	89.998370
_cell_angle_beta	90.003161
_cell_angle_gamma	93.025485
loop_
_atom_site_label
_atom_site_type_symbol
_atom_site_fract_x
_atom_site_fract_y
_atom_site_fract_z
O1	O	1.010250	-0.099109	0.068751
O2	O	0.790674	-0.112012	0.068757
O3	O	0.899582	0.008580	0.068731
O4	O	0.901343	-0.219701	0.068777
O5	O	0.899572	0.008559	-0.068762
O6	O	0.790665	-0.112034	-0.068737
O7	O	1.010240	-0.099130	-0.068743
Cu8	Cu	0.900451	-0.105584	-0.081294
Cu9	Cu	0.900463	-0.105559	0.081308
O10	O	0.901333	-0.219723	-0.068717
C11	C	0.762444	-0.111562	0.000010
C12	C	0.678339	-0.110177	0.000012
C13	C	0.638826	-0.109536	-0.074937
C14	C	0.559801	-0.108223	-0.074938
C15	C	0.520292	-0.107555	0.000010
C16	C	0.559811	-0.108194	0.074965
C17	C	0.638834	-0.109502	0.074965
C18	C	0.241119	-0.102918	0.074965
C19	C	0.162090	-0.101612	0.074959
C20	C	0.162086	-0.101639	-0.074938
C21	C	0.241110	-0.102947	-0.074937
C22	C	0.280622	-0.103581	0.000016
C23	C	0.366309	-0.105004	0.000017
C24	C	0.434605	-0.106138	0.000011
C25	C	0.897312	0.037778	-0.000020
C26	C	0.890555	0.124809	-0.000032
C27	C	0.955752	0.175175	-0.000041
C28	C	0.949399	0.256949	-0.000045
C29	C	0.877846	0.288356	-0.000045
C30	C	0.812644	0.237983	-0.000034
C31	C	0.818998	0.156211	-0.000024
C32	C	0.851510	0.531903	-0.000068
C33	C	0.845160	0.613682	-0.000081
C34	C	0.981916	0.632642	-0.000091
C35	C	0.988264	0.550867	-0.000086
C36	C	0.923061	0.500502	-0.000070
N37	N	0.871350	0.371942	-0.000052
N38	N	0.929558	0.416917	-0.000057
C39	C	1.038471	-0.099581	0.000005
C40	C	1.122575	-0.100966	0.000010
N41	N	0.900449	-0.105602	-0.195659
C42	C	0.903602	0.751079	-0.000000
C43	C	0.910358	0.664048	-0.000090
C44	C	0.851697	-0.058051	-0.761058
C45	C	0.851696	-0.058057	-0.674511
C46	C	0.900466	-0.105552	-0.631234
C47	C	0.949246	-0.153038	-0.674510
C48	C	0.949250	-0.153027	-0.761055
C49	C	0.949230	-0.153082	-0.325481
C50	C	0.949220	-0.153091	-0.238930
C51	C	0.851676	-0.058112	-0.238937
C52	C	0.851680	-0.058101	-0.325482
C53	C	0.900462	-0.105583	-0.368750
C54	C	0.900464	-0.105575	-0.462594
C55	C	0.900461	-0.105565	-0.537392
N56	N	0.900471	-0.105535	0.195673
H57	H	0.129923	-0.101068	0.135995
O58	O	0.755742	0.107171	0.000019
C59	C	0.776693	0.028262	0.000009
H60	H	0.836327	0.025246	0.026036
H61	H	0.735444	-0.008868	0.039935
H62	H	0.775248	0.004599	-0.065950
O63	O	0.804296	-0.011841	-0.802965
C64	C	0.761234	0.030054	-0.746212
H65	H	0.792283	0.034662	-0.684515
H66	H	0.752816	0.091703	-0.771211
H67	H	0.703784	-0.002323	-0.737017
O68	O	0.279463	-0.103454	-0.147764
C69	C	0.264606	-0.035276	-0.193380
H70	H	0.246009	0.012529	-0.149534
H71	H	0.318074	-0.013356	-0.227381
H72	H	0.217724	-0.049868	-0.240112
O73	O	0.788098	0.483097	-0.000100
C74	C	0.723585	0.528356	-0.000089
H75	H	0.739105	0.589424	-0.026124
H76	H	0.677596	0.498098	-0.040006
H77	H	0.701885	0.534143	0.065872
O78	O	1.057752	0.520320	-0.000226
C79	C	1.065503	0.473563	-0.071418
H80	H	1.024786	0.492825	-0.121192
H81	H	1.126049	0.481012	-0.095322
H82	H	1.051943	0.409044	-0.055311
O83	O	0.677178	-0.110268	0.147791
C84	C	0.653387	-0.177805	0.193410
H85	H	0.628535	-0.224893	0.149566
H86	H	0.703858	-0.201443	0.227410
H87	H	0.608533	-0.161694	0.240142
H88	H	0.273280	-0.103432	0.135997
O89	O	0.521314	-0.107577	0.147696
C90	C	0.443094	-0.106268	0.131627
H91	H	0.430663	-0.130912	0.067219
H92	H	0.410558	-0.143812	0.179502
H93	H	0.424809	-0.043024	0.135166
H94	H	0.988951	-0.191745	-0.360700
H95	H	1.014018	0.149611	-0.000046
H96	H	0.811964	-0.019429	-0.360714
O97	O	0.775693	0.644287	0.000033
C98	C	0.767934	0.691017	0.071244
H99	H	0.826355	0.711495	0.094975
H100	H	0.734533	0.744509	0.055221
H101	H	0.736642	0.654835	0.121117
H102	H	0.811957	-0.019447	-0.203698
H103	H	1.002490	0.297955	-0.000054
H104	H	0.988937	-0.191769	-0.203697
O105	O	0.521324	-0.107698	-0.147687
C106	C	0.471147	-0.174819	-0.152170
H107	H	0.457824	-0.197246	-0.087092
H108	H	0.416581	-0.158629	-0.183887
H109	H	0.498460	-0.222858	-0.189154
H110	H	0.670989	-0.110086	-0.135969
O111	O	0.804259	-0.012057	-0.632399
C112	C	0.755500	-0.059958	-0.582377
H113	H	0.782587	-0.118087	-0.569401
H114	H	0.745131	-0.028461	-0.521522
H115	H	0.699355	-0.072058	-0.615758
O116	O	1.045172	0.681679	-0.000062
C117	C	1.024225	0.760589	-0.000091
H118	H	0.964595	0.763612	0.025938
H119	H	1.065482	0.797724	0.039823
H120	H	1.025661	0.784239	-0.066056
H121	H	0.129906	-0.101119	-0.135969
H122	H	0.754385	0.263561	-0.000029
H123	H	0.988958	-0.191705	-0.639267
H124	H	0.988967	-0.191693	-0.796284
