data_functionalizedCrystal
_audit_creation_method	'MofGen! by Chris Wilmer'
_symmetry_space_group_name_H-M	'P1'
_symmetry_Int_Tables_number	1
_symmetry_cell_setting	triclinic
loop_
_symmetry_equiv_pos_as_xyz
  x,y,z
_cell_length_a	23.532407
_cell_length_b	17.038272
_cell_length_c	15.500227
_cell_angle_alpha	93.043705
_cell_angle_beta	92.805592
_cell_angle_gamma	93.019883
loop_
_atom_site_label
_atom_site_type_symbol
_atom_site_fract_x
_atom_site_fract_y
_atom_site_fract_z
O1	O	0.121159	-1.040103	-0.071851
O2	O	0.454493	-0.706769	0.261483
O3	O	0.787826	-0.373436	0.594816
O4	O	0.119196	-0.812488	-0.071876
O5	O	0.452529	-0.479154	0.261457
O6	O	0.785862	-0.145821	0.594791
O7	O	0.037607	-0.933158	-0.071847
O8	O	0.370941	-0.599825	0.261487
O9	O	0.704274	-0.266491	0.594820
O10	O	0.202748	-0.919432	-0.071880
O11	O	0.536081	-0.586099	0.261453
O12	O	0.869414	-0.252765	0.594787
O13	O	0.042537	-0.925836	0.072040
O14	O	0.375871	-0.592502	0.405373
O15	O	0.709204	-0.259169	0.738707
O16	O	0.124126	-0.805165	0.072011
O17	O	0.457459	-0.471832	0.405344
O18	O	0.790792	-0.138499	0.738678
O19	O	0.126090	-1.032780	0.072036
O20	O	0.459423	-0.699447	0.405369
O21	O	0.792756	-0.366113	0.738703
Cu22	Cu	0.125558	-0.918304	0.085162
Cu23	Cu	0.458891	-0.584971	0.418495
Cu24	Cu	0.792225	-0.251637	0.751828
Cu25	Cu	0.119727	-0.926964	-0.085001
Cu26	Cu	0.453061	-0.593630	0.248332
Cu27	Cu	0.786394	-0.260297	0.581665
O28	O	0.207678	-0.912110	0.072007
O29	O	0.541011	-0.578776	0.405340
O30	O	0.874345	-0.245443	0.738674
C31	C	0.119875	-0.779712	0.000065
C32	C	0.453209	-0.446378	0.333398
C33	C	0.786542	-0.113045	0.666731
C34	C	0.114548	-0.692959	0.000056
C35	C	0.447882	-0.359625	0.333389
C36	C	0.781215	-0.026292	0.666722
C37	C	0.018838	-0.929147	0.000099
C38	C	0.352171	-0.595814	0.333432
C39	C	0.685505	-0.262480	0.666766
C40	C	-0.044434	-0.928096	0.000105
C41	C	0.288899	-0.594762	0.333439
C42	C	0.622233	-0.261429	0.666772
N43	N	0.129659	-0.912219	0.204845
N44	N	0.462992	-0.578886	0.538178
N45	N	0.796325	-0.245552	0.871512
C46	C	-0.440131	-0.992917	0.000065
C47	C	-0.106798	-0.659584	0.333398
C48	C	0.226536	-0.326250	0.666732
C49	C	-0.499583	-0.991941	0.000058
C50	C	-0.166249	-0.658607	0.333392
C51	C	0.167084	-0.325274	0.666725
O52	O	-0.533169	-1.052030	0.000033
O53	O	-0.199836	-0.718697	0.333367
O54	O	0.133497	-0.385363	0.666700
N55	N	-0.525981	-0.920202	0.000051
N56	N	-0.192647	-0.586868	0.333385
N57	N	0.140686	-0.253535	0.666718
C58	C	-0.492924	-0.849435	0.000042
C59	C	-0.159590	-0.516101	0.333375
C60	C	0.173743	-0.182768	0.666708
O61	O	-0.520836	-0.788325	0.000034
O62	O	-0.187503	-0.454992	0.333367
O63	O	0.145830	-0.121659	0.666701
C64	C	-0.433473	-0.850412	0.000042
C65	C	-0.100140	-0.517078	0.333376
C66	C	0.233193	-0.183745	0.666709
C67	C	-0.407078	-0.922155	0.000058
C68	C	-0.073745	-0.588822	0.333392
C69	C	0.259588	-0.255488	0.666725
C70	C	-0.413736	-1.064654	0.000080
C71	C	-0.080402	-0.731321	0.333414
C72	C	0.252931	-0.397988	0.666747
C73	C	-0.354288	-1.065630	0.000089
C74	C	-0.020955	-0.732297	0.333422
C75	C	0.312379	-0.398963	0.666755
C76	C	-0.321235	-0.994868	0.000082
C77	C	0.012098	-0.661535	0.333415
C78	C	0.345431	-0.328201	0.666748
C79	C	-0.347631	-0.923131	0.000067
C80	C	-0.014297	-0.589797	0.333400
C81	C	0.319036	-0.256464	0.666733
C82	C	-0.400418	-0.779646	0.000027
C83	C	-0.067084	-0.446312	0.333360
C84	C	0.266249	-0.112979	0.666693
C85	C	-0.340963	-0.780629	0.000026
C86	C	-0.007630	-0.447296	0.333360
C87	C	0.325703	-0.113962	0.666693
C88	C	-0.314569	-0.852372	0.000043
C89	C	0.018765	-0.519039	0.333376
C90	C	0.352098	-0.185706	0.666709
C91	C	-0.255130	-0.853344	0.000068
C92	C	0.078203	-0.520011	0.333401
C93	C	0.411536	-0.186678	0.666735
N94	N	-0.228732	-0.925083	0.000075
N95	N	0.104601	-0.591750	0.333409
N96	N	0.437934	-0.258417	0.666742
C97	C	-0.261785	-0.995845	0.000082
C98	C	0.071548	-0.662512	0.333416
C99	C	0.404882	-0.329178	0.666749
C100	C	-0.617774	-0.847388	0.000039
C101	C	-0.284441	-0.514055	0.333373
C102	C	0.048893	-0.180721	0.666706
C103	C	-0.677223	-0.846410	0.000045
C104	C	-0.343890	-0.513076	0.333378
C105	C	-0.010556	-0.179743	0.666712
C106	C	-0.683878	-0.988916	0.000060
C107	C	-0.350545	-0.655583	0.333393
C108	C	-0.017211	-0.322250	0.666727
C109	C	-0.624428	-0.989894	0.000061
C110	C	-0.291094	-0.656560	0.333394
C111	C	0.042239	-0.323227	0.666727
C112	C	-0.591376	-0.919127	0.000047
C113	C	-0.258043	-0.585794	0.333380
C114	C	0.075291	-0.252460	0.666713
C115	C	-0.136940	-0.997889	0.000100
C116	C	0.196393	-0.664555	0.333434
C117	C	0.529727	-0.331222	0.666767
C118	C	-0.077487	-0.998858	0.000112
C119	C	0.255847	-0.665524	0.333446
C120	C	0.589180	-0.332191	0.666779
C121	C	-0.070837	-0.856352	0.000093
C122	C	0.262496	-0.523018	0.333426
C123	C	0.595830	-0.189685	0.666759
C124	C	-0.130285	-0.855382	0.000085
C125	C	0.203048	-0.522049	0.333419
C126	C	0.536382	-0.188715	0.666752
C127	C	-0.163336	-0.926157	0.000086
C128	C	0.169998	-0.592824	0.333420
C129	C	0.503331	-0.259490	0.666753
O130	O	-0.221508	-0.793287	0.000090
O131	O	0.111826	-0.459953	0.333423
O132	O	0.445159	-0.126620	0.666756
O133	O	-0.233865	-1.056945	0.000078
O134	O	0.099468	-0.723612	0.333412
O135	O	0.432802	-0.390278	0.666745
C136	C	0.226447	-0.916121	0.000059
C137	C	0.559780	-0.582787	0.333393
C138	C	0.893114	-0.249454	0.666726
C139	C	0.289719	-0.917172	0.000047
C140	C	0.623052	-0.583839	0.333381
C141	C	0.956386	-0.250506	0.666714
C142	C	0.125410	-1.065556	0.000094
C143	C	0.458743	-0.732223	0.333427
C144	C	0.792077	-0.398890	0.666760
C145	C	0.130737	-1.152310	0.000097
C146	C	0.464070	-0.818976	0.333430
C147	C	0.797403	-0.485643	0.666764
C148	C	0.163453	-0.642483	0.000046
C149	C	0.496786	-0.309149	0.333380
C150	C	0.830119	0.024184	0.666713
C151	C	0.158445	-0.560969	0.000059
C152	C	0.491778	-0.227635	0.333393
C153	C	0.825111	0.105698	0.666726
C154	C	0.104532	-0.529932	0.000075
C155	C	0.437865	-0.196599	0.333409
C156	C	0.771198	0.136734	0.666742
C157	C	0.055624	-0.580414	0.000087
C158	C	0.388957	-0.247081	0.333420
C159	C	0.722290	0.086252	0.666754
C160	C	0.060632	-0.661927	0.000080
C161	C	0.393966	-0.328593	0.333414
C162	C	0.727299	0.004740	0.666747
C163	C	0.086837	-0.284304	0.000102
C164	C	0.420171	0.049029	0.333435
C165	C	0.753504	0.382363	0.666769
C166	C	0.081832	-0.202786	0.000106
C167	C	0.415166	0.130548	0.333439
C168	C	0.748499	0.463881	0.666773
C169	C	0.184654	-0.183345	0.000080
C170	C	0.517987	0.149988	0.333413
C171	C	0.851320	0.483322	0.666747
C172	C	0.189658	-0.264860	0.000068
C173	C	0.522991	0.068473	0.333401
C174	C	0.856324	0.401807	0.666735
C175	C	0.140750	-0.315335	0.000084
C176	C	0.474083	0.017999	0.333418
C177	C	0.807416	0.351332	0.666751
C178	C	0.099412	-0.446612	0.000086
C179	C	0.432745	-0.113279	0.333419
C180	C	0.766078	0.220055	0.666752
C181	C	0.145871	-0.398653	0.000080
C182	C	0.479204	-0.065320	0.333413
C183	C	0.812537	0.268014	0.666747
N184	N	0.115622	-0.933055	-0.204685
N185	N	0.448956	-0.599722	0.128648
N186	N	0.782289	-0.266388	0.461982
C187	C	0.095101	-0.963369	0.250134
C188	C	0.428435	-0.630036	0.583467
C189	C	0.761768	-0.296702	0.916801
C190	C	0.098208	-0.958774	0.340706
C191	C	0.431542	-0.625441	0.674039
C192	C	0.764875	-0.292107	1.007372
C193	C	0.135876	-0.903033	0.385987
C194	C	0.469209	-0.569699	0.719320
C195	C	0.802543	-0.236366	1.052653
C196	C	0.170435	-0.851877	0.340691
C197	C	0.503768	-0.518544	0.674025
C198	C	0.837101	-0.185211	1.007358
C199	C	0.167324	-0.856469	0.250121
C200	C	0.500658	-0.523136	0.583455
C201	C	0.833991	-0.189802	0.916788
C202	C	0.147071	-0.886491	0.659450
C203	C	0.480404	-0.553158	0.992783
C204	C	0.813737	-0.219825	1.326116
C205	C	0.150180	-0.881905	0.750026
C206	C	0.483513	-0.548572	1.083359
C207	C	0.816846	-0.215238	1.416693
C208	C	0.077952	-0.988801	0.750034
C209	C	0.411286	-0.655468	1.083367
C210	C	0.744619	-0.322135	1.416701
C211	C	0.074848	-0.993391	0.659462
C212	C	0.408181	-0.660058	0.992796
C213	C	0.741514	-0.326725	1.326129
C214	C	0.109404	-0.942233	0.614175
C215	C	0.442738	-0.608900	0.947508
C216	C	0.776071	-0.275567	1.280842
C217	C	0.139054	-0.898336	0.478566
C218	C	0.472387	-0.565003	0.811899
C219	C	0.805721	-0.231669	1.145232
C220	C	0.106223	-0.946927	0.521598
C221	C	0.439556	-0.613593	0.854931
C222	C	0.772890	-0.280260	1.188264
H223	H	-0.055999	-1.057282	0.000128
H224	H	0.277334	-0.723949	0.333461
H225	H	0.610668	-0.390615	0.666794
H226	H	0.169725	-0.852952	0.515441
H227	H	0.503058	-0.519618	0.848774
H228	H	0.836391	-0.186285	1.182108
H229	H	0.180855	-0.836511	0.786890
H230	H	0.514189	-0.503178	1.120223
H231	H	0.847522	-0.169845	1.453557
H232	H	-0.314056	-0.723001	0.000014
H233	H	0.019278	-0.389668	0.333347
H234	H	0.352611	-0.056334	0.666680
H235	H	-0.710801	-1.046535	0.000062
H236	H	-0.377467	-0.713201	0.333396
H237	H	-0.044134	-0.379868	0.666729
H238	H	0.055516	-0.421332	0.000123
H239	H	0.388849	-0.087999	0.333457
H240	H	0.722183	0.245335	0.666790
H241	H	0.064431	-1.008763	0.213272
H242	H	0.397764	-0.675429	0.546605
H243	H	0.731098	-0.342096	0.879939
H244	H	0.070069	-1.000424	0.377580
H245	H	0.403402	-0.667090	0.710913
H246	H	0.736735	-0.333757	1.044246
H247	H	-0.421898	-0.721225	0.000008
H248	H	-0.088565	-0.387892	0.333342
H249	H	0.244769	-0.054558	0.666675
H250	H	-0.151776	-0.796962	0.000096
H251	H	0.181557	-0.463628	0.333430
H252	H	0.514891	-0.130295	0.666763
H253	H	-0.698708	-0.787989	0.000047
H254	H	-0.365375	-0.454655	0.333380
H255	H	-0.032041	-0.121322	0.666713
H256	H	0.175209	-0.844838	0.622584
H257	H	0.508543	-0.511505	0.955917
H258	H	0.841876	-0.178171	1.289250
H259	H	0.201102	-0.806487	0.377565
H260	H	0.534436	-0.473154	0.710898
H261	H	0.867769	-0.139821	1.044231
H262	H	-0.602941	-1.048313	0.000073
H263	H	-0.269608	-0.714980	0.333406
H264	H	0.063726	-0.381647	0.666740
H265	H	0.075552	-0.992309	0.484727
H266	H	0.408885	-0.658975	0.818061
H267	H	0.742218	-0.325642	1.151394
H268	H	-0.043915	-0.798739	0.000090
H269	H	0.289418	-0.465406	0.333423
H270	H	0.622752	-0.132073	0.666757
H271	H	-0.163843	-1.055521	0.000098
H272	H	0.169490	-0.722187	0.333431
H273	H	0.502823	-0.388854	0.666764
H274	H	-0.440642	-1.122281	0.000083
H275	H	-0.107308	-0.788947	0.333416
H276	H	0.226025	-0.455614	0.666749
H277	H	-0.332803	-1.124051	0.000098
H278	H	0.000530	-0.790717	0.333431
H279	H	0.333864	-0.457384	0.666765
H280	H	0.189767	-0.423926	0.000072
H281	H	0.523100	-0.090593	0.333405
H282	H	0.856433	0.242741	0.666739
H283	H	0.020809	-0.703024	0.000087
H284	H	0.354142	-0.369691	0.333421
H285	H	0.687476	-0.036357	0.666754
H286	H	0.207354	-0.667745	0.000033
H287	H	0.540688	-0.334412	0.333366
H288	H	0.874021	-0.001079	0.666700
H289	H	0.195464	-0.814816	0.213248
H290	H	0.528797	-0.481483	0.546581
H291	H	0.862131	-0.148150	0.879915
H292	H	0.198268	-0.519874	0.000051
H293	H	0.531601	-0.186540	0.333384
H294	H	0.864935	0.146793	0.666718
H295	H	-0.590866	-0.789757	0.000035
H296	H	-0.257533	-0.456424	0.333369
H297	H	0.075800	-0.123091	0.666702
H298	H	0.037928	-0.177520	0.000118
H299	H	0.371261	0.155814	0.333452
H300	H	0.704594	0.489147	0.666785
H301	H	0.233559	-0.290124	0.000045
H302	H	0.566892	0.043210	0.333378
H303	H	0.900225	0.376543	0.666712
H304	H	0.224472	-0.142240	0.000069
H305	H	0.557805	0.191093	0.333402
H306	H	0.891138	0.524427	0.666735
H307	H	0.047013	-0.325391	0.000116
H308	H	0.380346	0.007942	0.333449
H309	H	0.713679	0.341275	0.666783
H310	H	0.011727	-0.555138	0.000112
H311	H	0.345060	-0.221804	0.333446
H312	H	0.678394	0.111529	0.666779
H313	H	0.044176	-1.038780	0.622596
H314	H	0.377509	-0.705447	0.955930
H315	H	0.710843	-0.372114	1.289263
H316	H	0.049817	-1.030451	0.786915
H317	H	0.383151	-0.697118	1.120249
H318	H	0.716484	-0.363784	1.453582
