data_functionalizedCrystal
_audit_creation_method	'MofGen! by Chris Wilmer'
_symmetry_space_group_name_H-M	'P1'
_symmetry_Int_Tables_number	1
_symmetry_cell_setting	triclinic
loop_
_symmetry_equiv_pos_as_xyz
  x,y,z
_cell_length_a	12.759395
_cell_length_b	12.759394
_cell_length_c	12.759393
_cell_angle_alpha	90.030600
_cell_angle_beta	90.019818
_cell_angle_gamma	90.014617
loop_
_atom_site_label
_atom_site_type_symbol
_atom_site_fract_x
_atom_site_fract_y
_atom_site_fract_z
Zn1	Zn	1.606262	-0.418183	0.594025
Zn2	Zn	1.606159	-0.593902	0.418349
Zn3	Zn	1.430564	-0.418240	0.418361
Zn4	Zn	1.430555	-0.593823	0.593986
O5	O	1.518385	-0.506037	0.506180
O6	O	1.753270	-0.441502	0.570733
O7	O	1.582827	-0.570657	0.271329
O8	O	1.453918	-0.271211	0.441685
O9	O	1.753194	-0.570602	0.441664
O10	O	1.583002	-0.271170	0.570745
O11	O	1.453818	-0.441599	0.271338
O12	O	1.283542	-0.441522	0.441646
O13	O	1.453903	-0.570467	0.741012
O14	O	1.283536	-0.570522	0.570677
O15	O	1.582994	-0.441425	0.741041
O16	O	1.582818	-0.740913	0.441626
O17	O	1.453803	-0.740855	0.570666
C18	C	1.245418	-0.506021	0.506160
C19	C	1.128641	-0.506039	0.506176
C20	C	0.909285	-0.371847	0.640827
C21	C	0.964191	-0.304729	0.708123
C22	C	1.073912	-0.304711	0.708105
C23	C	1.128731	-0.371821	0.640786
C24	C	1.073825	-0.438939	0.573490
C25	C	0.964101	-0.438947	0.573513
C26	C	1.073735	-0.573157	0.438880
C27	C	0.964014	-0.573171	0.438891
C28	C	1.128554	-0.640267	0.371561
C29	C	1.073648	-0.707381	0.304258
C30	C	0.963920	-0.707395	0.304278
C31	C	0.909108	-0.640289	0.371595
C32	C	1.518327	-0.779005	0.506163
C33	C	1.518398	-0.895781	0.506191
C34	C	1.652713	-0.895580	0.640682
C35	C	1.719904	-0.950340	0.707935
C36	C	1.719966	-1.060061	0.707958
C37	C	1.652829	-1.115025	0.640722
C38	C	1.585638	-1.060265	0.573468
C39	C	1.585585	-0.950541	0.573451
C40	C	1.451319	-1.060467	0.438984
C41	C	1.451260	-0.950745	0.438955
C42	C	1.384181	-1.115431	0.371749
C43	C	1.316994	-1.060671	0.304488
C44	C	1.316935	-0.950943	0.304468
C45	C	1.384070	-0.895985	0.371701
C46	C	1.792419	-0.506054	0.506201
C47	C	1.909195	-0.506062	0.506210
C48	C	1.518459	-0.505931	0.780214
C49	C	1.518490	-0.505886	0.896990
C50	C	1.518473	-0.232004	0.506221
C51	C	1.518510	-0.115227	0.506238
C52	C	1.518372	-0.506067	0.233213
C53	C	1.518545	-0.505816	0.116437
C54	C	1.585717	-0.438687	0.951869
C55	C	1.585742	-0.438649	1.061593
C56	C	1.451310	-0.573018	1.061550
C57	C	1.451281	-0.573049	0.951828
C58	C	1.663334	-0.361114	0.951895
C59	C	1.663359	-0.361076	1.061619
H60	H	0.919546	-0.250092	0.762935
N61	N	1.384254	-1.233773	0.371765
H62	H	1.331530	-1.260280	0.318968
H63	H	1.364961	-1.260089	0.443861
H64	H	1.384033	-0.806644	0.371687
H65	H	1.218072	-0.371810	0.640787
H66	H	1.217895	-0.640253	0.371557
N67	N	1.132770	-0.779760	0.231660
H68	H	1.210609	-0.769568	0.241865
H69	H	1.113561	-0.763315	0.156657
N70	N	1.652902	-1.233367	0.640746
H71	H	1.580837	-1.259847	0.660005
H72	H	1.705701	-1.259624	0.693547
H73	H	1.118616	-0.250060	0.762905
N74	N	0.790943	-0.371866	0.640840
H75	H	0.764485	-0.352474	0.568803
H76	H	0.764630	-0.319179	0.693739
H77	H	1.262331	-1.105432	0.249756
H78	H	1.396534	-0.627765	0.907150
N79	N	1.765658	-0.399952	0.906919
H80	H	1.824731	-0.353231	0.931352
H81	H	1.761892	-0.398680	0.827864
N82	N	0.904703	-0.779794	0.231699
H83	H	0.956082	-0.822301	0.189056
H84	H	0.859160	-0.736979	0.183157
H85	H	0.819767	-0.640282	0.371605
H86	H	1.634244	-0.283767	1.095665
H87	H	1.744730	-0.382868	1.091400
H88	H	1.396588	-0.627697	1.106212
H89	H	1.652679	-0.806238	0.640660
N90	N	1.792442	-1.119127	0.780487
H91	H	1.782290	-1.196975	0.770294
H92	H	1.776048	-1.099913	0.855507
N93	N	1.244459	-0.891883	0.231934
H94	H	1.201941	-0.943355	0.189350
H95	H	1.287220	-0.846362	0.183334
H96	H	1.641564	-0.279750	0.922137
H97	H	1.774565	-0.905578	0.762680
