data_functionalizedCrystal
_audit_creation_method	'MofGen! by Chris Wilmer'
_symmetry_space_group_name_H-M	'P1'
_symmetry_Int_Tables_number	1
_symmetry_cell_setting	triclinic
loop_
_symmetry_equiv_pos_as_xyz
  x,y,z
_cell_length_a	12.594516
_cell_length_b	12.594517
_cell_length_c	12.594509
_cell_angle_alpha	90.007751
_cell_angle_beta	89.972125
_cell_angle_gamma	89.994543
loop_
_atom_site_label
_atom_site_type_symbol
_atom_site_fract_x
_atom_site_fract_y
_atom_site_fract_z
Zn1	Zn	-0.423891	-1.627298	-0.601477
Zn2	Zn	-0.601901	-1.627202	-0.423500
Zn3	Zn	-0.423917	-1.449302	-0.423548
Zn4	Zn	-0.601808	-1.449297	-0.601472
O5	O	-0.512879	-1.538275	-0.512499
O6	O	-0.447532	-1.776231	-0.577850
O7	O	-0.578341	-1.603565	-0.274560
O8	O	-0.274968	-1.472956	-0.447173
O9	O	-0.578315	-1.776161	-0.447091
O10	O	-0.274948	-1.603729	-0.577897
O11	O	-0.447577	-1.472863	-0.274596
O12	O	-0.447487	-1.300356	-0.447168
O13	O	-0.578157	-1.472948	-0.750418
O14	O	-0.578182	-1.300352	-0.577888
O15	O	-0.447442	-1.603724	-0.750422
O16	O	-0.750834	-1.603561	-0.447086
O17	O	-0.750766	-1.472855	-0.577841
C18	C	-0.512828	-1.261734	-0.512533
C19	C	-0.512832	-1.143429	-0.512573
C20	C	-0.584054	-1.074204	-0.583539
C21	C	-0.487005	-1.003389	-0.609721
C22	C	-0.609953	-1.003445	-0.486381
C23	C	-0.415732	-1.074171	-0.538806
C24	C	-0.538744	-1.074234	-0.415421
C25	C	-0.441629	-1.003450	-0.441566
C26	C	-0.789420	-1.538226	-0.512481
C27	C	-0.907726	-1.538302	-0.512508
C28	C	-0.976977	-1.609475	-0.441466
C29	C	-1.047677	-1.635486	-0.538610
C30	C	-1.047825	-1.512424	-0.415427
C31	C	-0.976867	-1.564362	-0.609703
C32	C	-0.977009	-1.441256	-0.486454
C33	C	-1.047676	-1.467229	-0.583665
C34	C	-0.235258	-1.538354	-0.512541
C35	C	-0.116953	-1.538387	-0.512559
C36	C	-0.512786	-1.538346	-0.790120
C37	C	-0.512746	-1.538377	-0.908426
C38	C	-0.512921	-0.815896	-0.512482
C39	C	-0.512914	-0.934201	-0.512516
C40	C	-0.583802	-1.467270	-0.977677
C41	C	-0.609819	-1.564392	-1.048444
C42	C	-0.486665	-1.441330	-1.048457
C43	C	-0.538814	-1.635550	-0.977635
C44	C	-0.415616	-1.512422	-0.977642
C45	C	-0.441596	-1.609612	-1.048377
C46	C	-0.512895	-1.538265	-0.235958
C47	C	-0.512635	-1.538441	-0.117653
H48	H	-0.560662	-1.105376	-0.333310
O49	O	-1.084539	-1.395348	-0.655293
C50	C	-1.146240	-1.318281	-0.602460
H51	H	-1.122369	-1.315119	-0.515219
H52	H	-1.233847	-1.340089	-0.608962
C53	C	-1.156863	-1.212792	-0.760966
C54	C	-1.127537	-1.208902	-0.653816
H55	H	-1.145331	-1.145323	-0.792647
H56	H	-1.115297	-1.264715	-0.796562
H57	H	-1.229867	-1.230970	-0.766370
H58	H	-1.054531	-1.190738	-0.648414
H59	H	-1.169090	-1.156973	-0.618220
H60	H	-0.945933	-1.669674	-0.381443
O61	O	-0.939759	-1.343383	-0.460166
C62	C	-0.827823	-1.344492	-0.461441
H63	H	-0.798893	-1.411748	-0.514689
H64	H	-0.796844	-1.357124	-0.377348
C65	C	-0.822010	-1.155181	-0.439102
C66	C	-0.786477	-1.237781	-0.504509
H67	H	-0.796504	-1.089356	-0.465663
H68	H	-0.897423	-1.154434	-0.438239
H69	H	-0.796191	-1.165722	-0.369029
H70	H	-0.812307	-1.227246	-0.574577
H71	H	-0.711067	-1.238524	-0.505385
H72	H	-1.078720	-1.717593	-0.560675
H73	H	-0.333545	-1.490406	-0.946518
O74	O	-0.939673	-1.590665	-0.707627
C75	C	-0.827732	-1.590319	-0.706413
H76	H	-0.798486	-1.602192	-0.621595
H77	H	-0.797442	-1.511069	-0.737964
C78	C	-0.821796	-1.666376	-0.881214
C79	C	-0.785876	-1.680967	-0.777041
H80	H	-0.795976	-1.722288	-0.924784
H81	H	-0.897213	-1.666605	-0.882034
H82	H	-0.796552	-1.600331	-0.907492
H83	H	-0.811131	-1.747003	-0.750760
H84	H	-0.710462	-1.680750	-0.776217
H85	H	-1.078993	-1.490502	-0.333305
O86	O	-0.655525	-1.395455	-0.940760
C87	C	-0.628914	-1.293430	-0.978370
H88	H	-0.578828	-1.301049	-1.053404
H89	H	-0.581782	-1.249240	-0.914990
C90	C	-0.792688	-1.222027	-0.911554
C91	C	-0.731179	-1.231385	-1.003717
H92	H	-0.855769	-1.183752	-0.927185
H93	H	-0.810616	-1.290762	-0.886211
H94	H	-0.753400	-1.185205	-0.858746
H95	H	-0.770462	-1.268218	-1.056518
H96	H	-0.713260	-1.162654	-1.029069
O97	O	-0.707817	-1.590449	-1.085506
C98	C	-0.782555	-1.515267	-1.049470
H99	H	-0.740224	-1.437770	-1.029618
H100	H	-0.823919	-1.546887	-0.975409
C101	C	-0.917498	-1.590295	-1.161353
C102	C	-0.865506	-1.495109	-1.136978
H103	H	-0.968669	-1.577863	-1.215329
H104	H	-0.867146	-1.640950	-1.185629
H105	H	-0.951958	-1.616635	-1.099628
H106	H	-0.831036	-1.468777	-1.198699
H107	H	-0.915853	-1.444449	-1.112715
O108	O	-0.565226	-1.733446	-0.940510
C109	C	-0.564985	-1.732224	-0.828568
H110	H	-0.576820	-1.647393	-0.799282
H111	H	-0.485788	-1.763852	-0.798252
C112	C	-0.641180	-1.906949	-0.822771
C113	C	-0.655726	-1.802759	-0.786801
H114	H	-0.697150	-1.950462	-0.797006
H115	H	-0.641339	-1.907775	-0.898188
H116	H	-0.575180	-1.933291	-0.797505
H117	H	-0.721719	-1.776414	-0.812079
H118	H	-0.655580	-1.801931	-0.711387
H119	H	-0.464652	-1.359232	-1.079567
O120	O	-0.655895	-1.111328	-0.655065
C121	C	-0.732895	-1.172955	-0.602076
H122	H	-0.736083	-1.148848	-0.514884
H123	H	-0.710991	-1.260559	-0.608401
C124	C	-0.838371	-1.184105	-0.760522
C125	C	-0.842293	-1.154491	-0.653433
H126	H	-0.905853	-1.172720	-0.792203
H127	H	-0.786493	-1.142590	-0.796224
H128	H	-0.820113	-1.257107	-0.765778
H129	H	-0.860538	-1.081487	-0.648179
H130	H	-0.894177	-1.195994	-0.617732
O131	O	-0.460923	-0.966431	-0.707778
C132	C	-0.443474	-1.052823	-0.776824
H133	H	-0.486930	-1.125758	-0.745436
H134	H	-0.354774	-1.070262	-0.781584
C135	C	-0.432159	-0.935537	-0.926768
C136	C	-0.485539	-1.025114	-0.888222
H137	H	-0.458102	-0.918444	-0.995485
H138	H	-0.443911	-0.877332	-0.880250
H139	H	-0.358246	-0.950080	-0.930725
H140	H	-0.559449	-1.010565	-0.884252
H141	H	-0.473801	-1.083316	-0.934741
O142	O	-0.369973	-1.681604	-1.085139
C143	C	-0.397792	-1.783780	-1.048834
H144	H	-0.486110	-1.785772	-1.029074
H145	H	-0.349856	-1.803539	-0.974660
C146	C	-0.265156	-1.863562	-1.160332
C147	C	-0.373632	-1.866011	-1.136072
H148	H	-0.250249	-1.914287	-1.214142
H149	H	-0.246410	-1.794724	-1.184790
H150	H	-0.225222	-1.880025	-1.098514
H151	H	-0.413563	-1.849535	-1.197887
H152	H	-0.392384	-1.934848	-1.111627
H153	H	-0.692051	-0.972372	-0.464255
H154	H	-0.333608	-1.105109	-0.561028
H155	H	-0.381365	-0.972579	-0.381529
