data_functionalizedCrystal
_audit_creation_method	'MofGen! by Chris Wilmer'
_symmetry_space_group_name_H-M	'P1'
_symmetry_Int_Tables_number	1
_symmetry_cell_setting	triclinic
loop_
_symmetry_equiv_pos_as_xyz
  x,y,z
_cell_length_a	6.394989
_cell_length_b	10.654545
_cell_length_c	9.130313
_cell_angle_alpha	89.996934
_cell_angle_beta	90.001550
_cell_angle_gamma	94.509605
loop_
_atom_site_label
_atom_site_type_symbol
_atom_site_fract_x
_atom_site_fract_y
_atom_site_fract_z
O1	O	-0.293397	1.670950	-0.121774
O2	O	-0.321364	1.305767	-0.121780
O3	O	-0.003391	1.493542	-0.121778
O4	O	-0.611369	1.483175	-0.121776
O5	O	-0.003381	1.493529	0.121821
O6	O	-0.321354	1.305754	0.121819
O7	O	-0.293387	1.670937	0.121824
Cu8	Cu	-0.307370	1.488344	0.144064
Cu9	Cu	-0.307381	1.488360	-0.144020
O10	O	-0.611360	1.483162	0.121823
C11	C	-0.319307	1.258941	0.000019
C12	C	-0.313170	1.119432	0.000017
C13	C	-0.310275	1.053890	0.132803
C14	C	-0.304474	0.922809	0.132803
C15	C	-0.304470	0.922824	-0.132782
C16	C	-0.310256	1.053903	-0.132780
C17	C	0.074465	1.491486	0.000016
C18	C	0.310790	1.485221	0.000014
C19	C	-0.295443	1.717763	0.000023
C20	C	-0.301581	1.857272	0.000015
N21	N	-0.307361	1.488342	0.346687
N22	N	-0.307374	1.488371	-0.346642
C23	C	-0.166622	1.571518	0.423340
C24	C	-0.166623	1.571531	0.576676
C25	C	-0.448119	1.405186	0.576695
C26	C	-0.448107	1.405169	0.423361
H27	H	-0.302117	0.869450	0.240931
O28	O	-0.301339	0.852132	-0.275999
H29	H	-0.160289	0.886233	-0.339662
O30	O	-0.014830	1.661256	0.659339
H31	H	0.087557	1.606796	0.729203
O32	O	-0.313386	1.124610	-0.276006
H33	H	-0.310421	1.057023	-0.368348
O34	O	-0.014761	1.661190	0.340646
H35	H	-0.038388	1.647206	0.221144
O36	O	-0.599944	1.315494	0.659390
H37	H	-0.576330	1.329489	0.778891
H38	H	-0.562714	1.337431	0.360946
H39	H	-0.312647	1.107240	0.240935
