data_functionalizedCrystal
_audit_creation_method	'MofGen! by Chris Wilmer'
_symmetry_space_group_name_H-M	'P1'
_symmetry_Int_Tables_number	1
_symmetry_cell_setting	triclinic
loop_
_symmetry_equiv_pos_as_xyz
  x,y,z
_cell_length_a	21.395362
_cell_length_b	11.169416
_cell_length_c	11.169409
_cell_angle_alpha	89.969184
_cell_angle_beta	89.956700
_cell_angle_gamma	90.026221
loop_
_atom_site_label
_atom_site_type_symbol
_atom_site_fract_x
_atom_site_fract_y
_atom_site_fract_z
Zn1	Zn	0.957944	-0.477202	-0.679283
Zn2	Zn	1.457944	0.022798	-0.179283
Zn3	Zn	0.957885	-0.677942	-0.478605
Zn4	Zn	1.457885	-0.177942	0.021395
Zn5	Zn	0.853160	-0.477327	-0.478538
Zn6	Zn	1.353160	0.022673	0.021462
Zn7	Zn	0.853166	-0.677897	-0.679171
Zn8	Zn	1.353166	-0.177897	-0.179171
O9	O	0.905539	-0.577592	-0.578899
O10	O	1.405539	-0.077592	-0.078899
O11	O	1.045614	-0.503797	-0.652738
O12	O	1.545614	-0.003797	-0.152738
O13	O	0.943966	-0.651401	-0.310647
O14	O	1.443966	-0.151401	0.189353
O15	O	0.867083	-0.309361	-0.505186
O16	O	1.367083	0.190639	-0.005186
O17	O	1.045571	-0.651280	-0.505301
O18	O	1.545571	-0.151280	-0.005301
O19	O	0.944067	-0.309269	-0.652673
O20	O	1.444067	0.190731	-0.152673
O21	O	0.867025	-0.504011	-0.310597
O22	O	1.367025	-0.004011	0.189403
O23	O	0.765483	-0.503967	-0.505077
O24	O	1.265483	-0.003967	-0.005077
O25	O	0.867092	-0.651203	-0.847135
O26	O	1.367092	-0.151203	-0.347135
O27	O	0.765487	-0.651325	-0.652481
O28	O	1.265487	-0.151325	-0.152481
O29	O	0.944072	-0.503753	-0.847218
O30	O	1.444072	-0.003753	-0.347218
O31	O	0.943971	-0.845886	-0.505192
O32	O	1.443971	-0.345886	-0.005192
O33	O	0.867034	-0.845853	-0.652546
O34	O	1.367034	-0.345853	-0.152546
C35	C	0.742751	-0.577656	-0.578760
C36	C	1.242751	-0.077656	-0.078760
C37	C	0.673110	-0.577712	-0.578729
C38	C	1.173110	-0.077712	-0.078729
C39	C	0.640415	-0.654543	-0.655367
C40	C	1.140415	-0.154543	-0.155367
C41	C	0.574980	-0.654513	-0.655421
C42	C	1.074980	-0.154513	-0.155421
C43	C	0.542242	-0.577665	-0.578814
C44	C	1.042242	-0.077665	-0.078814
C45	C	0.574944	-0.500819	-0.502171
C46	C	1.074944	-0.000819	-0.002171
C47	C	0.640378	-0.500843	-0.502128
C48	C	1.140378	-0.000843	-0.002128
C49	C	0.438516	-0.568034	-0.470767
C50	C	0.938516	-0.068034	0.029233
C51	C	0.373083	-0.568020	-0.470808
C52	C	0.873083	-0.068020	0.029192
C53	C	0.340421	-0.577587	-0.578947
C54	C	0.840421	-0.077587	-0.078947
C55	C	0.373200	-0.587194	-0.687049
C56	C	0.873200	-0.087194	-0.187049
C57	C	0.438634	-0.587217	-0.687006
C58	C	0.938634	-0.087217	-0.187006
C59	C	0.471289	-0.577631	-0.578853
C60	C	0.971289	-0.077631	-0.078853
C61	C	0.236774	-0.654390	-0.655650
C62	C	0.736774	-0.154390	-0.155650
C63	C	0.171337	-0.654352	-0.655705
C64	C	0.671337	-0.154352	-0.155705
C65	C	0.171303	-0.500665	-0.502445
C66	C	0.671303	-0.000665	-0.002445
C67	C	0.236738	-0.500696	-0.502400
C68	C	0.736738	-0.000696	-0.002400
C69	C	0.269470	-0.577565	-0.579001
C70	C	0.769470	-0.077565	-0.079001
C71	C	0.905514	-0.889417	-0.578890
C72	C	1.405514	-0.389417	-0.078890
C73	C	0.905561	-1.022817	-0.578926
C74	C	1.405561	-0.522817	-0.078926
C75	C	1.068962	-0.577529	-0.579040
C76	C	1.568962	-0.077529	-0.079040
C77	C	1.138603	-0.577502	-0.579100
C78	C	1.638603	-0.077502	-0.079100
C79	C	0.905589	-0.577459	-0.891942
C80	C	1.405589	-0.077459	-0.391942
C81	C	0.905610	-0.577402	-1.025342
C82	C	1.405610	-0.077402	-0.525342
C83	C	0.905581	-0.264550	-0.578935
C84	C	1.405581	0.235450	-0.078935
C85	C	0.905599	-0.131150	-0.578950
C86	C	1.405599	0.368850	-0.078950
C87	C	0.905525	-0.577638	-0.267075
C88	C	1.405525	-0.077638	0.232925
C89	C	0.905625	-0.577356	-0.133675
C90	C	1.405625	-0.077356	0.366325
H91	H	0.465320	-0.595037	-0.775026
H92	H	0.965320	-0.095037	-0.275026
N93	N	0.136005	-0.417779	-0.419811
N94	N	0.636005	0.082221	0.080189
H95	H	0.147433	-0.332052	-0.438586
H96	H	0.647433	0.167948	0.061414
H97	H	0.089601	-0.429519	-0.431501
H98	H	0.589601	0.070481	0.068499
H99	H	0.346608	-0.594983	-0.775106
H100	H	0.846608	-0.094983	-0.275106
N101	N	0.272083	-0.737289	-0.738267
N102	N	0.772083	-0.237289	-0.238267
H103	H	0.241439	-0.785952	-0.786834
H104	H	0.741439	-0.285952	-0.286834
H105	H	0.299283	-0.688509	-0.793869
H106	H	0.799283	-0.188509	-0.293869
N107	N	0.272004	-0.417846	-0.419718
N108	N	0.772004	0.082154	0.080282
H109	H	0.318424	-0.429522	-0.431313
H110	H	0.818424	0.070478	0.068687
H111	H	0.260608	-0.332146	-0.438544
H112	H	0.760608	0.167854	0.061456
H113	H	0.144718	-0.716915	-0.718121
H114	H	0.644718	-0.216915	-0.218121
N115	N	0.675647	-0.417963	-0.419474
N116	N	1.175647	0.082037	0.080526
H117	H	0.644981	-0.369267	-0.370956
H118	H	1.144981	0.130733	0.129044
H119	H	0.702748	-0.466757	-0.363828
H120	H	1.202748	0.033243	0.136172
N121	N	0.337731	-0.557667	-0.354220
N122	N	0.837731	-0.057667	0.145780
H123	H	0.368349	-0.551595	-0.285709
H124	H	0.868349	-0.051595	0.214291
H125	H	0.310606	-0.483712	-0.356093
H126	H	0.810606	0.016288	0.143907
H127	H	0.465104	-0.560238	-0.382701
H128	H	0.965104	-0.060238	0.117299
N129	N	0.675718	-0.737447	-0.737983
N130	N	1.175718	-0.237447	-0.237983
H131	H	0.645073	-0.786115	-0.786542
H132	H	1.145073	-0.286115	-0.286542
H133	H	0.702915	-0.688669	-0.793593
H134	H	1.202915	-0.188669	-0.293593
N135	N	0.539705	-0.737381	-0.738085
N136	N	1.039705	-0.237381	-0.238085
H137	H	0.570370	-0.786078	-0.786606
H138	H	1.070370	-0.286078	-0.286606
H139	H	0.512510	-0.792851	-0.689147
H140	H	1.012510	-0.292851	-0.189147
H141	H	0.548285	-0.438247	-0.439800
H142	H	1.048285	0.061753	0.060200
