data_functionalizedCrystal
_audit_creation_method	'MofGen! by Chris Wilmer'
_symmetry_space_group_name_H-M	'P1'
_symmetry_Int_Tables_number	1
_symmetry_cell_setting	triclinic
loop_
_symmetry_equiv_pos_as_xyz
  x,y,z
_cell_length_a	18.215407
_cell_length_b	12.759400
_cell_length_c	18.215399
_cell_angle_alpha	90.023429
_cell_angle_beta	90.017368
_cell_angle_gamma	90.010609
loop_
_atom_site_label
_atom_site_type_symbol
_atom_site_fract_x
_atom_site_fract_y
_atom_site_fract_z
Zn1	Zn	1.125132	-0.418349	0.416091
Zn2	Zn	1.125065	-0.594046	0.293034
Zn3	Zn	1.002064	-0.418374	0.293043
Zn4	Zn	1.002055	-0.593978	0.416064
O5	O	1.063579	-0.506187	0.354558
O6	O	1.228107	-0.441673	0.399774
O7	O	1.108725	-0.570782	0.190051
O8	O	1.018421	-0.271350	0.309381
O9	O	1.228059	-0.570757	0.309365
O10	O	1.108838	-0.271331	0.399783
O11	O	1.018357	-0.441716	0.190058
O12	O	0.899079	-0.441650	0.309355
O13	O	1.018406	-0.570642	0.519052
O14	O	0.899072	-0.570666	0.399738
O15	O	1.108830	-0.441608	0.519071
O16	O	1.108716	-0.741058	0.309339
O17	O	1.018341	-0.741008	0.399729
C18	C	0.872373	-0.506154	0.354545
C19	C	0.790574	-0.506166	0.354557
C20	C	0.602405	-0.439090	0.401707
C21	C	0.525546	-0.439099	0.401710
C22	C	0.525506	-0.573313	0.307421
C23	C	0.602363	-0.573298	0.307416
C24	C	0.640811	-0.506188	0.354563
C25	C	0.487095	-0.506212	0.354571
C26	C	0.403761	-0.506222	0.354573
C27	C	0.724150	-0.506176	0.354560
C28	C	1.063541	-0.779154	0.354546
C29	C	1.063592	-0.895931	0.354566
C30	C	1.110648	-0.950703	0.401677
C31	C	1.110682	-1.060427	0.401695
C32	C	1.016601	-1.060596	0.307484
C33	C	1.016564	-0.950874	0.307471
C34	C	1.157676	-0.895760	0.448772
C35	C	1.204737	-0.950533	0.495887
C36	C	1.204771	-1.060257	0.495905
C37	C	1.157744	-1.115208	0.448808
C38	C	1.255532	-0.506220	0.354571
C39	C	1.337331	-0.506234	0.354577
C40	C	1.063624	-0.506114	0.546511
C41	C	1.063643	-0.506083	0.628310
C42	C	1.063638	-0.232154	0.354586
C43	C	1.063663	-0.115377	0.354598
C44	C	1.063577	-0.506183	0.163352
C45	C	1.063700	-0.505918	0.081553
C46	C	1.110744	-0.438832	0.816515
C47	C	1.110753	-0.438802	0.893374
C48	C	1.016595	-0.573172	0.893343
C49	C	1.016583	-0.573197	0.816485
C50	C	1.063661	-0.506028	0.778074
C51	C	1.063682	-0.505973	0.931790
C52	C	1.063691	-0.505940	1.015123
C53	C	1.063652	-0.506059	0.694735
H54	H	0.633706	-0.384442	0.440095
O55	O	0.970890	-1.114088	0.261836
C56	C	0.923345	-1.177549	0.303702
H57	H	0.949274	-1.193913	0.359499
H58	H	0.868787	-1.135311	0.311734
C59	C	0.878235	-1.261722	0.194682
C60	C	0.910084	-1.281829	0.263210
H61	H	0.870052	-1.326045	0.169704
H62	H	0.910265	-1.218965	0.166476
H63	H	0.832774	-1.226521	0.201385
H64	H	0.955548	-1.317017	0.256506
H65	H	0.878061	-1.324594	0.291415
H66	H	0.494193	-0.627952	0.269037
H67	H	1.157655	-0.806417	0.448761
H68	H	1.243084	-1.104850	0.534273
O69	O	1.250436	-0.897320	0.541707
C70	C	1.291987	-0.969197	0.583282
H71	H	1.261867	-1.047436	0.585814
H72	H	1.347899	-0.980838	0.556385
C73	C	1.339526	-0.830202	0.658502
C74	C	1.302529	-0.926295	0.661616
H75	H	1.346032	-0.803738	0.706821
H76	H	1.311534	-0.781777	0.630490
H77	H	1.386116	-0.839916	0.636084
H78	H	1.255937	-0.916578	0.684025
H79	H	1.330513	-0.974718	0.689633
H80	H	1.149076	-0.384137	0.785243
H81	H	1.149090	-0.384083	0.924670
O82	O	0.970828	-0.897824	0.261641
C83	C	0.929318	-0.969844	0.220087
H84	H	0.959489	-1.048030	0.217565
H85	H	0.873418	-0.981549	0.246997
C86	C	0.881671	-0.831057	0.144850
C87	C	0.918732	-0.927084	0.141747
H88	H	0.875138	-0.804680	0.096527
H89	H	0.909635	-0.782534	0.172847
H90	H	0.835092	-0.840824	0.167278
H91	H	0.965314	-0.917313	0.119328
H92	H	0.890775	-0.975604	0.113744
O93	O	0.488352	-0.373890	0.447577
C94	C	0.538771	-0.314638	0.489172
H95	H	0.593556	-0.357669	0.491666
H96	H	0.546941	-0.234795	0.462317
C97	C	0.441518	-0.246792	0.564454
C98	C	0.508803	-0.299648	0.567522
H99	H	0.423032	-0.237540	0.612784
H100	H	0.407549	-0.286707	0.536430
H101	H	0.448335	-0.180262	0.542072
H102	H	0.501984	-0.366181	0.589896
H103	H	0.542771	-0.259743	0.595553
O104	O	0.970975	-0.638533	0.930691
C105	C	1.012868	-0.706364	0.975158
H106	H	1.070824	-0.712868	0.952003
H107	H	1.015420	-0.673862	1.033412
C108	C	0.905711	-0.807590	1.004760
C109	C	0.976892	-0.815585	0.976317
H110	H	0.883518	-0.874961	1.005478
H111	H	0.877485	-0.761889	0.974804
H112	H	0.907847	-0.780500	1.053302
H113	H	0.974754	-0.842661	0.927773
H114	H	1.005116	-0.861293	1.006265
O115	O	0.639562	-0.638581	0.261594
C116	C	0.589149	-0.697805	0.219973
H117	H	0.534372	-0.701512	0.250115
H118	H	0.580955	-0.659232	0.164126
C119	C	0.686419	-0.805040	0.172213
C120	C	0.619143	-0.809602	0.209237
H121	H	0.704921	-0.874001	0.165587
H122	H	0.720384	-0.765138	0.200252
H123	H	0.679581	-0.772892	0.125678
H124	H	0.625983	-0.841737	0.255774
H125	H	0.585180	-0.849512	0.181206
H126	H	0.978237	-0.627915	0.785185
H127	H	1.157767	-1.204553	0.448835
