data_functionalizedCrystal
_audit_creation_method	'MofGen! by Chris Wilmer'
_symmetry_space_group_name_H-M	'P1'
_symmetry_Int_Tables_number	1
_symmetry_cell_setting	triclinic
loop_
_symmetry_equiv_pos_as_xyz
  x,y,z
_cell_length_a	15.995350
_cell_length_b	17.699083
_cell_length_c	16.776229
_cell_angle_alpha	89.997548
_cell_angle_beta	89.991668
_cell_angle_gamma	83.387695
loop_
_atom_site_label
_atom_site_type_symbol
_atom_site_fract_x
_atom_site_fract_y
_atom_site_fract_z
O1	O	0.105870	1.004252	0.066173
O2	O	0.605870	1.504252	0.566173
O3	O	0.119646	0.783897	0.066198
O4	O	0.619646	1.283897	0.566198
O5	O	-0.009142	0.900098	0.066184
O6	O	0.490858	1.400098	0.566184
O7	O	0.234658	0.888051	0.066187
O8	O	0.734658	1.388051	0.566187
O9	O	-0.009119	0.900087	-0.066393
O10	O	0.490881	1.400087	0.433607
O11	O	0.119668	0.783886	-0.066378
O12	O	0.619668	1.283886	0.433622
O13	O	0.105892	1.004241	-0.066404
O14	O	0.605892	1.504241	0.433596
Zn15	Zn	0.112784	0.894062	-0.087441
Zn16	Zn	0.612784	1.394062	0.412559
Zn17	Zn	0.112754	0.894076	0.087235
Zn18	Zn	0.612754	1.394076	0.587235
O19	O	0.234680	0.888040	-0.066390
O20	O	0.734680	1.388040	0.433610
C21	C	0.119164	0.755694	-0.000087
C22	C	0.619164	1.255694	0.499913
C23	C	0.117683	0.671673	-0.000077
C24	C	0.617683	1.171673	0.499923
C25	C	0.193278	0.623178	-0.000076
C26	C	0.693278	1.123178	0.499924
C27	C	0.191882	0.544232	-0.000087
C28	C	0.691882	1.044232	0.499913
C29	C	0.114889	0.513783	-0.000092
C30	C	0.614889	1.013783	0.499908
C31	C	0.039287	0.562285	-0.000095
C32	C	0.539287	1.062285	0.499905
C33	C	0.040685	0.641229	-0.000090
C34	C	0.540685	1.141229	0.499910
C35	C	0.033651	0.243912	-0.000115
C36	C	0.533651	0.743912	0.499885
C37	C	0.032259	0.164962	-0.000117
C38	C	0.532259	0.664962	0.499883
C39	C	0.184848	0.146916	-0.000111
C40	C	0.684848	0.646916	0.499889
C41	C	0.186245	0.225860	-0.000106
C42	C	0.686245	0.725860	0.499894
C43	C	0.110644	0.274354	-0.000114
C44	C	0.610644	0.774354	0.499886
C45	C	0.112159	0.359956	-0.000104
C46	C	0.612159	0.859956	0.499896
C47	C	0.113373	0.428183	-0.000096
C48	C	0.613373	0.928183	0.499904
C49	C	-0.040324	0.899595	-0.000103
C50	C	0.459676	1.399595	0.499897
C51	C	-0.133272	0.898101	-0.000098
C52	C	0.366728	1.398101	0.499902
C53	C	-0.471008	0.892739	-0.000100
C54	C	0.028992	1.392739	0.499900
C55	C	-0.423406	0.809983	0.000207
C56	C	0.076594	1.309983	0.500207
C57	C	-0.326719	0.811476	-0.000092
C58	C	0.173281	1.311476	0.499908
C59	C	-0.303453	0.895399	-0.000099
C60	C	0.196547	1.395399	0.499901
C61	C	-0.344601	0.936211	-0.075810
C62	C	0.155399	1.436211	0.424190
C63	C	-0.441232	0.934132	-0.075873
C64	C	0.058768	1.434132	0.424127
C65	C	-0.441620	0.935854	0.074891
C66	C	0.058380	1.435854	0.574891
C67	C	-0.344674	0.935835	0.075892
C68	C	0.155326	1.435835	0.575892
C69	C	-0.208759	0.896907	-0.000101
C70	C	0.291241	1.396907	0.499899
C71	C	-0.565703	0.891234	-0.000104
C72	C	-0.065703	1.391234	0.499896
C73	C	0.265863	0.888544	-0.000101
C74	C	0.765863	1.388544	0.499899
C75	C	0.358810	0.890037	-0.000101
C76	C	0.858810	1.390037	0.499899
C77	C	0.106375	1.032445	-0.000117
C78	C	0.606375	1.532445	0.499883
C79	C	0.107856	1.116465	-0.000122
C80	C	0.607856	1.616465	0.499878
N81	N	0.112804	0.894058	-0.206652
N82	N	0.612804	1.394058	0.293348
C83	C	0.062015	0.848184	-0.751819
C84	C	0.562015	1.348184	-0.251819
C85	C	0.062023	0.848182	-0.668366
C86	C	0.562023	1.348182	-0.168366
C87	C	0.112747	0.894079	-0.626651
C88	C	0.612747	1.394079	-0.126651
C89	C	0.163462	0.939987	-0.668392
C90	C	0.663462	1.439987	-0.168392
C91	C	0.163450	0.939992	-0.751843
C92	C	0.663450	1.439992	-0.251843
C93	C	0.163511	0.939967	-0.331845
C94	C	0.663511	1.439967	0.168155
C95	C	0.163521	0.939956	-0.248389
C96	C	0.663521	1.439956	0.251611
C97	C	0.062084	0.848157	-0.248369
C98	C	0.562084	1.348157	0.251631
C99	C	0.062072	0.848163	-0.331819
C100	C	0.562072	1.348163	0.168181
C101	C	0.112783	0.894073	-0.373553
C102	C	0.612783	1.394073	0.126447
C103	C	0.112773	0.894075	-0.464042
C104	C	0.612773	1.394075	0.035958
C105	C	0.112762	0.894073	-0.536164
C106	C	0.612762	1.394073	-0.036164
N107	N	0.112728	0.894086	0.206446
N108	N	0.612728	1.394086	0.706446
H109	H	-0.020873	0.680714	-0.000090
H110	H	0.479127	1.180714	0.499910
O111	O	0.007383	0.798643	-0.203351
O112	O	0.507383	1.298643	0.296649
H113	H	-0.027881	0.766723	-0.246379
H114	H	0.472119	1.266723	0.253621
H115	H	0.248941	0.250646	-0.000098
H116	H	0.748941	0.750646	0.499902
H117	H	0.253440	0.504750	-0.000085
H118	H	0.753440	1.004750	0.499915
H119	H	-0.023402	0.537487	-0.000111
H120	H	0.476598	1.037487	0.499889
O121	O	-0.050789	0.132120	-0.000138
O122	O	0.449211	0.632120	0.499862
H123	H	-0.087130	0.151601	0.053888
H124	H	0.412870	0.651601	0.553888
O125	O	0.276321	0.656018	-0.000078
O126	O	0.776321	1.156018	0.499922
H127	H	0.328652	0.609030	-0.000090
H128	H	0.828652	1.109030	0.499910
H129	H	-0.298241	0.779395	0.054181
H130	H	0.201759	1.279395	0.554181
H131	H	-0.462114	0.908802	0.132275
H132	H	0.037886	1.408802	0.632275
H133	H	-0.317374	0.905996	0.131901
H134	H	0.182626	1.405996	0.631901
H135	H	-0.459464	0.904363	-0.132463
H136	H	0.040536	1.404363	0.367537
O137	O	-0.324497	1.016904	0.081944
O138	O	0.175503	1.516904	0.581944
H139	H	-0.383862	1.056128	0.081198
H140	H	0.116138	1.556128	0.581198
H141	H	0.246406	0.107421	-0.000109
H142	H	0.746406	0.607421	0.499891
O143	O	-0.483857	1.016675	0.075572
O144	O	0.016143	1.516675	0.575572
H145	H	-0.525584	1.026128	0.022790
H146	H	-0.025584	1.526128	0.522790
O147	O	-0.326052	1.017879	-0.079562
O148	O	0.173948	1.517879	0.420438
H149	H	-0.287213	1.030275	-0.027381
H150	H	0.212787	1.530275	0.472619
O151	O	-0.447887	0.766158	0.072112
O152	O	0.052113	1.266158	0.572112
H153	H	-0.494246	0.802887	0.108400
H154	H	0.005754	1.302887	0.608400
O155	O	-0.306923	0.898660	-0.150441
O156	O	0.193077	1.398660	0.349559
H157	H	-0.258904	0.850936	-0.133801
H158	H	0.241096	1.350936	0.366199
H159	H	0.204830	0.977334	-0.214427
H160	H	0.704830	1.477334	0.285573
O161	O	-0.449240	0.766353	-0.071306
O162	O	0.050760	1.266353	0.428694
H163	H	-0.495836	0.803353	-0.107067
H164	H	0.004164	1.303353	0.392933
O165	O	0.007286	0.798690	-0.796800
O166	O	0.507286	1.298690	-0.296800
H167	H	0.025575	0.738197	-0.780784
H168	H	0.525575	1.238197	-0.280784
H169	H	-0.298779	0.779170	-0.054450
H170	H	0.201221	1.279170	0.445550
O171	O	-0.484122	1.014608	-0.080449
O172	O	0.015878	1.514608	0.419551
H173	H	-0.435816	1.054836	-0.082613
H174	H	0.064184	1.554836	0.417387
H175	H	0.020725	0.810806	-0.634389
H176	H	0.520725	1.310806	-0.134389
O177	O	-0.047886	0.296213	-0.000122
O178	O	0.452114	0.796213	0.499878
H179	H	-0.101656	0.261775	-0.000120
H180	H	0.398344	0.761775	0.499880
H181	H	0.020770	0.810786	-0.365780
H182	H	0.520770	1.310786	0.134220
H183	H	0.204804	0.977349	-0.365815
H184	H	0.704804	1.477349	0.134185
O185	O	0.218181	0.989487	-0.623406
O186	O	0.718181	1.489487	-0.123406
H187	H	0.209679	0.981764	-0.558365
H188	H	0.709679	1.481764	-0.058365
O189	O	0.218150	0.989497	-0.796864
O190	O	0.718150	1.489497	-0.296864
H191	H	0.253431	1.021406	-0.753839
H192	H	0.753431	1.521406	-0.253839
