data_functionalizedCrystal
_audit_creation_method	'MofGen! by Chris Wilmer'
_symmetry_space_group_name_H-M	'P1'
_symmetry_Int_Tables_number	1
_symmetry_cell_setting	triclinic
loop_
_symmetry_equiv_pos_as_xyz
  x,y,z
_cell_length_a	11.792241
_cell_length_b	15.995350
_cell_length_c	10.268362
_cell_angle_alpha	89.996947
_cell_angle_beta	89.999626
_cell_angle_gamma	83.842895
loop_
_atom_site_label
_atom_site_type_symbol
_atom_site_fract_x
_atom_site_fract_y
_atom_site_fract_z
O1	O	1.505952	0.114763	-0.108167
O2	O	1.175512	0.126591	-0.108197
O3	O	1.349764	-0.001170	-0.108180
O4	O	1.331699	0.242524	-0.108184
O5	O	1.349749	-0.001175	0.108421
O6	O	1.175497	0.126586	0.108404
O7	O	1.505936	0.114758	0.108434
Cu8	Cu	1.340715	0.120671	0.128196
Cu9	Cu	1.340733	0.120678	-0.127959
O10	O	1.331684	0.242518	0.108417
C11	C	1.133220	0.125845	0.000100
C12	C	1.007224	0.123621	0.000088
C13	C	0.776546	0.119532	0.000126
C14	C	0.904913	0.121804	0.000105
C15	C	1.349010	-0.032370	0.000118
C16	C	1.346771	-0.125331	0.000111
C17	C	1.338730	-0.463115	0.000114
C18	C	1.214630	-0.416244	-0.000383
C19	C	1.216870	-0.319544	0.000106
C20	C	1.342718	-0.295536	0.000112
C21	C	1.403920	-0.336339	0.123804
C22	C	1.400803	-0.432989	0.123908
C23	C	1.403383	-0.433329	-0.122408
C24	C	1.403354	-0.336384	-0.124042
C25	C	1.344979	-0.200829	0.000115
C26	C	1.336473	-0.557823	0.000120
C27	C	1.548229	0.115504	0.000134
C28	C	1.674224	0.117727	0.000137
C29	C	1.332438	0.273719	0.000116
C30	C	1.334677	0.366680	0.000115
N31	N	1.340711	0.120666	0.308362
N32	N	1.340746	0.120676	-0.308125
C33	C	1.340727	0.120676	0.574033
C34	C	1.340715	0.120673	0.426195
H35	H	1.168761	-0.291338	-0.088562
H36	H	1.165035	-0.434999	-0.089086
N37	N	1.344179	-0.300480	-0.245259
H38	H	1.383560	-0.326986	-0.324787
H39	H	1.261933	-0.312746	-0.244360
H40	H	1.491914	-0.464823	0.129524
N41	N	1.149202	-0.442490	0.116445
H42	H	1.199599	-0.484609	0.169691
H43	H	1.124450	-0.391494	0.171576
N44	N	1.152714	-0.282916	0.117749
H45	H	1.071149	-0.296637	0.113940
H46	H	1.190196	-0.307714	0.199517
H47	H	1.356161	-0.451495	0.216366
H48	H	1.496377	-0.321794	0.128409
H49	H	1.494881	-0.464675	-0.123234
N50	N	1.347620	-0.298998	0.245734
H51	H	1.282482	-0.255663	0.221130
H52	H	1.317490	-0.344998	0.298752
H53	H	1.362816	-0.454051	-0.216159
N54	N	1.524923	-0.315491	-0.133939
H55	H	1.542495	-0.279090	-0.057739
H56	H	1.578458	-0.369186	-0.132874
