data_functionalizedCrystal
_audit_creation_method	'MofGen! by Chris Wilmer'
_symmetry_space_group_name_H-M	'P1'
_symmetry_Int_Tables_number	1
_symmetry_cell_setting	triclinic
loop_
_symmetry_equiv_pos_as_xyz
  x,y,z
_cell_length_a	6.817900
_cell_length_b	10.773972
_cell_length_c	17.982651
_cell_angle_alpha	96.503827
_cell_angle_beta	102.445951
_cell_angle_gamma	96.646171
loop_
_atom_site_label
_atom_site_type_symbol
_atom_site_fract_x
_atom_site_fract_y
_atom_site_fract_z
V1	V	-3.980392	-0.173724	-0.236296
O2	O	-4.004173	0.007179	-0.233074
O3	O	-3.898195	-0.343341	-0.233453
O4	O	-3.927294	-0.171565	-0.339913
O5	O	-3.974872	-0.165786	-0.125877
V6	V	-4.469008	-0.152025	-0.223238
O7	O	-4.230478	-0.221322	-0.264940
O8	O	-4.669119	-0.104427	-0.194595
O9	O	-4.327999	0.017592	-0.226081
O10	O	-4.562624	-0.332928	-0.226461
O11	O	-4.591925	-0.159963	-0.333657
O12	O	-4.298899	-0.154184	-0.119622
C13	C	-3.735125	-0.384674	-0.229409
C14	C	-3.749175	-0.523341	-0.227775
C15	C	-3.772244	-0.165555	-0.365208
C16	C	-3.809891	-0.164911	-0.449907
C17	C	-4.058077	-0.275413	-0.979881
C18	C	-4.022662	-0.275993	-0.900295
C19	C	-3.988070	-0.161996	-0.850451
C20	C	-3.988873	-0.047409	-0.880197
C21	C	-4.024272	-0.046830	-0.959782
C22	C	-3.846107	-0.049745	-0.559240
C23	C	-3.810713	-0.050333	-0.479650
C24	C	-3.844498	-0.278908	-0.499752
C25	C	-3.879897	-0.278328	-0.579337
C26	C	-3.880686	-0.163743	-0.609076
C27	C	-3.919083	-0.163114	-0.695373
C28	C	-3.949688	-0.162623	-0.764156
C29	C	-3.941653	-0.734537	-0.228923
C30	C	-3.927138	-0.591218	-0.230615
C31	C	-4.154409	0.058918	-0.230123
C32	C	-4.119597	0.197584	-0.231762
C33	C	-4.117291	-0.160199	-0.094323
C34	C	-4.058884	-0.160835	-0.009623
H35	H	-4.022011	-0.369294	-0.876084
O36	O	-4.096211	-0.534079	-0.235145
C37	C	-4.432480	-0.522163	-0.308195
C38	C	-4.241122	-0.586958	-0.303172
H39	H	-4.549708	-0.564908	-0.363182
H40	H	-4.390818	-0.416777	-0.308828
H41	H	-4.498632	-0.536894	-0.256253
H42	H	-4.174877	-0.572325	-0.355101
H43	H	-4.282904	-0.692321	-0.302501
H44	H	-4.261197	-0.754428	-0.235450
H45	H	-3.908072	-0.371157	-0.619917
H46	H	-4.086249	-0.368243	-1.020460
H47	H	-3.843841	-0.372209	-0.475530
O48	O	-3.772528	-0.791608	-0.224422
C49	C	-3.436370	-0.803637	-0.151314
C50	C	-3.627765	-0.738883	-0.156325
H51	H	-3.319295	-0.761053	-0.096254
H52	H	-3.369946	-0.788845	-0.203187
H53	H	-3.478246	-0.909030	-0.150771
H54	H	-3.586055	-0.633473	-0.156845
H55	H	-3.694141	-0.753777	-0.104454
H56	H	-3.960694	0.045410	-0.839608
O57	O	-3.777042	0.060528	-0.431336
C58	C	-3.747353	0.287311	-0.419792
C59	C	-3.785462	0.161865	-0.474592
H60	H	-3.754189	0.369273	-0.454743
H61	H	-3.591192	0.297621	-0.379103
H62	H	-3.868619	0.287895	-0.384954
H63	H	-3.664321	0.161193	-0.509481
H64	H	-3.941685	0.151604	-0.515230
H65	H	-3.846722	0.043559	-0.583442
H66	H	-4.024943	0.046471	-0.983996
H67	H	-3.607564	-0.571325	-0.224095
