data_functionalizedCrystal
_audit_creation_method	'MofGen! by Chris Wilmer'
_symmetry_space_group_name_H-M	'P1'
_symmetry_Int_Tables_number	1
_symmetry_cell_setting	triclinic
loop_
_symmetry_equiv_pos_as_xyz
  x,y,z
_cell_length_a	19.077105
_cell_length_b	25.639239
_cell_length_c	25.639243
_cell_angle_alpha	90.006746
_cell_angle_beta	92.302578
_cell_angle_gamma	87.734929
loop_
_atom_site_label
_atom_site_type_symbol
_atom_site_fract_x
_atom_site_fract_y
_atom_site_fract_z
Zn1	Zn	1.075803	-0.240449	0.327687
Zn2	Zn	1.325803	0.009551	0.577687
Zn3	Zn	1.575803	0.259551	0.827687
Zn4	Zn	1.825803	0.509551	1.077687
Zn5	Zn	1.075714	-0.327846	0.240249
Zn6	Zn	1.325714	-0.077846	0.490249
Zn7	Zn	1.575714	0.172154	0.740249
Zn8	Zn	1.825714	0.422154	0.990249
Zn9	Zn	0.958135	-0.236911	0.236757
Zn10	Zn	1.208135	0.013089	0.486757
Zn11	Zn	1.458135	0.263089	0.736757
Zn12	Zn	1.708135	0.513089	0.986757
Zn13	Zn	0.958046	-0.324333	0.324144
Zn14	Zn	1.208046	-0.074333	0.574144
Zn15	Zn	1.458046	0.175667	0.824144
Zn16	Zn	1.708046	0.425667	1.074144
O17	O	1.016925	-0.282385	0.282209
O18	O	1.266925	-0.032385	0.532209
O19	O	1.516925	0.217615	0.782209
O20	O	1.766925	0.467615	1.032209
O21	O	1.174280	-0.254993	0.319032
O22	O	1.424280	-0.004993	0.569032
O23	O	1.674280	0.245007	0.819032
O24	O	1.924280	0.495007	1.069032
O25	O	1.060117	-0.315773	0.166620
O26	O	1.310117	-0.065773	0.416620
O27	O	1.560117	0.184227	0.666620
O28	O	1.810117	0.434227	0.916620
O29	O	0.973818	-0.164217	0.248840
O30	O	1.223818	0.085783	0.498840
O31	O	1.473818	0.335783	0.748840
O32	O	1.723818	0.585783	0.998840
O33	O	1.174215	-0.319204	0.254791
O34	O	1.424215	-0.069204	0.504791
O35	O	1.674215	0.180796	0.754791
O36	O	1.924215	0.430796	1.004791
O37	O	1.060268	-0.166816	0.315646
O38	O	1.310268	0.083184	0.565646
O39	O	1.560268	0.333184	0.815646
O40	O	1.810268	0.583184	1.065646
O41	O	0.973732	-0.248963	0.164055
O42	O	1.223732	0.001037	0.414055
O43	O	1.473732	0.251037	0.664055
O44	O	1.723732	0.501037	0.914055
O45	O	0.859634	-0.245556	0.245405
O46	O	1.109634	0.004444	0.495405
O47	O	1.359634	0.254444	0.745405
O48	O	1.609634	0.504444	0.995405
O49	O	0.973667	-0.313216	0.397779
O50	O	1.223667	-0.063216	0.647779
O51	O	1.473667	0.186784	0.897779
O52	O	1.723667	0.436784	1.147779
O53	O	0.859569	-0.309785	0.309608
O54	O	1.109569	-0.059785	0.559608
O55	O	1.359569	0.190215	0.809608
O56	O	1.609569	0.440215	1.059608
O57	O	1.060182	-0.251586	0.400382
O58	O	1.310182	-0.001586	0.650382
O59	O	1.560182	0.248414	0.900382
O60	O	1.810182	0.498414	1.150382
O61	O	1.060031	-0.400543	0.251356
O62	O	1.310031	-0.150543	0.501356
O63	O	1.560031	0.099457	0.751356
O64	O	1.810031	0.349457	1.001356
O65	O	0.973581	-0.397962	0.312994
O66	O	1.223581	-0.147962	0.562994
O67	O	1.473581	0.102038	0.812994
O68	O	1.723581	0.352038	1.062994
C69	C	0.834064	-0.276906	0.276744
C70	C	1.084064	-0.026906	0.526744
C71	C	1.334064	0.223094	0.776744
C72	C	1.584064	0.473094	1.026744
C73	C	0.755836	-0.274575	0.274418
C74	C	1.005836	-0.024575	0.524418
C75	C	1.255836	0.225425	0.774418
C76	C	1.505836	0.475425	1.024418
C77	C	0.719069	-0.306971	0.306700
C78	C	0.969069	-0.056971	0.556700
C79	C	1.219069	0.193029	0.806700
C80	C	1.469069	0.443029	1.056700
C81	C	0.645565	-0.304774	0.304518
C82	C	0.895565	-0.054774	0.554518
C83	C	1.145565	0.195226	0.804518
C84	C	1.395565	0.445226	1.054518
C85	C	0.608830	-0.270183	0.270050
C86	C	0.858830	-0.020183	0.520050
C87	C	1.108830	0.229817	0.770050
C88	C	1.358830	0.479817	1.020050
C89	C	0.645602	-0.237783	0.237767
C90	C	0.895602	0.012217	0.487767
C91	C	1.145602	0.262217	0.737767
C92	C	1.395602	0.512217	0.987767
C93	C	0.719105	-0.239978	0.239952
C94	C	0.969105	0.010022	0.489952
C95	C	1.219105	0.260022	0.739952
C96	C	1.469105	0.510022	0.989952
C97	C	0.389002	-0.260024	0.259937
C98	C	0.639002	-0.010024	0.509937
C99	C	0.889002	0.239976	0.759937
C100	C	1.139002	0.489976	1.009937
C101	C	0.315494	-0.257833	0.257752
C102	C	0.565494	-0.007833	0.507752
C103	C	0.815494	0.242167	0.757752
C104	C	1.065494	0.492167	1.007752
C105	C	0.315462	-0.324823	0.324504
C106	C	0.565462	-0.074823	0.574504
C107	C	0.815462	0.175177	0.824504
C108	C	1.065462	0.425177	1.074504
C109	C	0.388966	-0.327017	0.326685
C110	C	0.638966	-0.077017	0.576685
C111	C	0.888966	0.172983	0.826685
C112	C	1.138966	0.422983	1.076685
C113	C	0.425732	-0.294616	0.294403
C114	C	0.675732	-0.044616	0.544403
C115	C	0.925732	0.205384	0.794403
C116	C	1.175732	0.455384	1.044403
N117	N	0.533697	-0.267937	0.267817
N118	N	0.783697	-0.017937	0.517817
N119	N	1.033697	0.232063	0.767817
N120	N	1.283697	0.482063	1.017817
N121	N	0.500864	-0.296859	0.296639
N122	N	0.750864	-0.046859	0.546639
N123	N	1.000864	0.203141	0.796639
N124	N	1.250864	0.453141	1.046639
C125	C	1.016806	-0.418224	0.282182
C126	C	1.266806	-0.168224	0.532182
C127	C	1.516806	0.081776	0.782182
C128	C	1.766806	0.331776	1.032182
C129	C	1.016820	-0.476338	0.282189
C130	C	1.266820	-0.226338	0.532189
C131	C	1.516820	0.023662	0.782189
C132	C	1.766820	0.273662	1.032189
C133	C	1.062057	-0.838039	0.250175
C134	C	1.312057	-0.588039	0.500175
C135	C	1.562057	-0.338039	0.750175
C136	C	1.812057	-0.088039	1.000175
C137	C	1.062084	-0.892644	0.250183
C138	C	1.312084	-0.642644	0.500183
C139	C	1.562084	-0.392644	0.750183
C140	C	1.812084	-0.142644	1.000183
O141	O	1.100423	-0.922015	0.222933
O142	O	1.350423	-0.672015	0.472933
O143	O	1.600423	-0.422015	0.722933
O144	O	1.850423	-0.172015	0.972933
N145	N	1.017048	-0.918627	0.282247
N146	N	1.267048	-0.668627	0.532247
N147	N	1.517048	-0.418627	0.782247
N148	N	1.767048	-0.168627	1.032247
C149	C	0.971988	-0.890003	0.314311
C150	C	1.221988	-0.640003	0.564311
C151	C	1.471988	-0.390003	0.814311
C152	C	1.721988	-0.140003	1.064311
O153	O	0.933684	-0.917117	0.341585
O154	O	1.183684	-0.667117	0.591585
O155	O	1.433684	-0.417117	0.841585
O156	O	1.683684	-0.167117	1.091585
C157	C	0.971964	-0.835399	0.314305
C158	C	1.221964	-0.585399	0.564305
C159	C	1.471964	-0.335399	0.814305
C160	C	1.721964	-0.085399	1.064305
C161	C	1.016998	-0.809418	0.282234
C162	C	1.266998	-0.559418	0.532234
C163	C	1.516998	-0.309418	0.782234
C164	C	1.766998	-0.059418	1.032234
C165	C	1.107087	-0.812059	0.218107
C166	C	1.357087	-0.562059	0.468107
C167	C	1.607087	-0.312059	0.718107
C168	C	1.857087	-0.062059	0.968107
C169	C	1.107059	-0.757457	0.218099
C170	C	1.357059	-0.507457	0.468099
C171	C	1.607059	-0.257457	0.718099
C172	C	1.857059	-0.007457	0.968099
C173	C	1.062000	-0.728836	0.250158
C174	C	1.312000	-0.478836	0.500158
C175	C	1.562000	-0.228836	0.750158
C176	C	1.812000	0.021164	1.000158
C177	C	1.016969	-0.754817	0.282226
C178	C	1.266969	-0.504817	0.532226
C179	C	1.516969	-0.254817	0.782226
C180	C	1.766969	-0.004817	1.032226
C181	C	0.926908	-0.806775	0.346371
C182	C	1.176908	-0.556775	0.596371
C183	C	1.426908	-0.306775	0.846371
C184	C	1.676908	-0.056775	1.096371
C185	C	0.926889	-0.752167	0.346363
C186	C	1.176889	-0.502167	0.596363
C187	C	1.426889	-0.252167	0.846363
C188	C	1.676889	-0.002167	1.096363
C189	C	0.971922	-0.726187	0.314292
C190	C	1.221922	-0.476187	0.564292
C191	C	1.471922	-0.226187	0.814292
C192	C	1.721922	0.023813	1.064292
C193	C	0.971882	-0.671595	0.314277
C194	C	1.221882	-0.421595	0.564277
C195	C	1.471882	-0.171595	0.814277
C196	C	1.721882	0.078405	1.064277
N197	N	1.016918	-0.645611	0.282212
N198	N	1.266918	-0.395611	0.532212
N199	N	1.516918	-0.145611	0.782212
N200	N	1.766918	0.104389	1.032212
C201	C	1.061977	-0.674232	0.250153
C202	C	1.311977	-0.424232	0.500153
C203	C	1.561977	-0.174232	0.750153
C204	C	1.811977	0.075768	1.000153
C205	C	0.972041	-1.004675	0.314320
C206	C	1.222041	-0.754675	0.564320
C207	C	1.472041	-0.504675	0.814320
C208	C	1.722041	-0.254675	1.064320
C209	C	0.972060	-1.059278	0.314323
C210	C	1.222060	-0.809278	0.564323
C211	C	1.472060	-0.559278	0.814323
C212	C	1.722060	-0.309278	1.064323
C213	C	1.062157	-1.061916	0.250196
C214	C	1.312157	-0.811916	0.500196
C215	C	1.562157	-0.561916	0.750196
C216	C	1.812157	-0.311916	1.000196
C217	C	1.062134	-1.007312	0.250190
C218	C	1.312134	-0.757312	0.500190
C219	C	1.562134	-0.507312	0.750190
C220	C	1.812134	-0.257312	1.000190
C221	C	1.017076	-0.978692	0.282255
C222	C	1.267076	-0.728692	0.532255
C223	C	1.517076	-0.478692	0.782255
C224	C	1.767076	-0.228692	1.032255
C225	C	1.061913	-0.559565	0.250137
C226	C	1.311913	-0.309565	0.500137
C227	C	1.561913	-0.059565	0.750137
C228	C	1.811913	0.190435	1.000137
C229	C	1.061879	-0.504959	0.250130
C230	C	1.311879	-0.254959	0.500130
C231	C	1.561879	-0.004959	0.750130
C232	C	1.811879	0.245041	1.000130
C233	C	0.971784	-0.502326	0.314259
C234	C	1.221784	-0.252326	0.564259
C235	C	1.471784	-0.002326	0.814259
C236	C	1.721784	0.247674	1.064259
C237	C	0.971816	-0.556927	0.314264
C238	C	1.221816	-0.306927	0.564264
C239	C	1.471816	-0.056927	0.814264
C240	C	1.721816	0.193073	1.064264
C241	C	1.016886	-0.585546	0.282202
C242	C	1.266886	-0.335546	0.532202
C243	C	1.516886	-0.085546	0.782202
C244	C	1.766886	0.164454	1.032202
O245	O	0.933565	-0.642190	0.341514
O246	O	1.183565	-0.392190	0.591514
O247	O	1.433565	-0.142190	0.841514
O248	O	1.683565	0.107810	1.091514
O249	O	1.100280	-0.647111	0.222887
O250	O	1.350280	-0.397111	0.472887
O251	O	1.600280	-0.147111	0.722887
O252	O	1.850280	0.102889	0.972887
C253	C	1.200499	-0.287885	0.287696
C254	C	1.450499	-0.037885	0.537696
C255	C	1.700499	0.212115	0.787696
C256	C	1.950499	0.462115	1.037696
C257	C	1.278727	-0.290229	0.290034
C258	C	1.528727	-0.040229	0.540034
C259	C	1.778727	0.209771	0.790034
C260	C	2.028727	0.459771	1.040034
C261	C	1.016925	-0.282404	0.418582
C262	C	1.266925	-0.032404	0.668582
C263	C	1.516925	0.217596	0.918582
C264	C	1.766925	0.467596	1.168582
C265	C	1.016925	-0.282412	0.476696
C266	C	1.266925	-0.032412	0.726696
C267	C	1.516925	0.217588	0.976696
C268	C	1.766925	0.467588	1.226696
C269	C	1.017063	-0.146016	0.282249
C270	C	1.267063	0.103984	0.532249
C271	C	1.517063	0.353984	0.782249
C272	C	1.767063	0.603984	1.032249
C273	C	1.017121	-0.087903	0.282266
C274	C	1.267121	0.162097	0.532266
C275	C	1.517121	0.412097	0.782266
C276	C	1.767121	0.662097	1.032266
C277	C	1.061971	-0.250298	0.838420
C278	C	1.311971	-0.000298	1.088420
C279	C	1.561971	0.249702	1.338420
C280	C	1.811971	0.499702	1.588420
C281	C	1.061971	-0.250295	0.893024
C282	C	1.311971	-0.000295	1.143024
C283	C	1.561971	0.249705	1.393024
C284	C	1.811971	0.499705	1.643024
O285	O	1.100260	-0.222993	0.922418
O286	O	1.350260	0.027007	1.172418
O287	O	1.600260	0.277007	1.422418
O288	O	1.850260	0.527007	1.672418
N289	N	1.016930	-0.282383	0.918979
N290	N	1.266930	-0.032383	1.168979
N291	N	1.516930	0.217617	1.418979
N292	N	1.766930	0.467617	1.668979
C293	C	0.971881	-0.314472	0.890326
C294	C	1.221881	-0.064472	1.140326
C295	C	1.471881	0.185528	1.390326
C296	C	1.721881	0.435528	1.640326
O297	O	0.933569	-0.341764	0.917416
O298	O	1.183569	-0.091764	1.167416
O299	O	1.433569	0.158236	1.417416
O300	O	1.683569	0.408236	1.667416
C301	C	0.971878	-0.314471	0.835723
C302	C	1.221878	-0.064471	1.085723
C303	C	1.471878	0.185529	1.335723
C304	C	1.721878	0.435529	1.585723
C305	C	1.016927	-0.282385	0.809771
C306	C	1.266927	-0.032385	1.059771
C307	C	1.516927	0.217615	1.309771
C308	C	1.766927	0.467615	1.559771
C309	C	1.107016	-0.218214	0.812468
C310	C	1.357016	0.031786	1.062468
C311	C	1.607016	0.281786	1.312468
C312	C	1.857016	0.531786	1.562468
C313	C	1.107017	-0.218218	0.757868
C314	C	1.357017	0.031782	1.007868
C315	C	1.607017	0.281782	1.257868
C316	C	1.857017	0.531782	1.507868
C317	C	1.061973	-0.250306	0.729219
C318	C	1.311973	-0.000306	0.979219
C319	C	1.561973	0.249694	1.229219
C320	C	1.811973	0.499694	1.479219
C321	C	1.016928	-0.282389	0.755171
C322	C	1.266928	-0.032389	1.005171
C323	C	1.516928	0.217611	1.255171
C324	C	1.766928	0.467611	1.505171
C325	C	0.926826	-0.346557	0.807071
C326	C	1.176826	-0.096557	1.057071
C327	C	1.426826	0.153443	1.307071
C328	C	1.676826	0.403443	1.557071
C329	C	0.926827	-0.346554	0.752464
C330	C	1.176827	-0.096554	1.002464
C331	C	1.426827	0.153446	1.252464
C332	C	1.676827	0.403446	1.502464
C333	C	0.971876	-0.314468	0.726512
C334	C	1.221876	-0.064468	0.976512
C335	C	1.471876	0.185532	1.226512
C336	C	1.721876	0.435532	1.476512
C337	C	0.971885	-0.314481	0.671921
C338	C	1.221885	-0.064481	0.921921
C339	C	1.471885	0.185519	1.171921
C340	C	1.721885	0.435519	1.421921
N341	N	1.016927	-0.282393	0.645967
N342	N	1.266927	-0.032393	0.895967
N343	N	1.516927	0.217607	1.145967
N344	N	1.766927	0.467607	1.395967
C345	C	1.061971	-0.250305	0.674616
C346	C	1.311971	-0.000305	0.924616
C347	C	1.561971	0.249695	1.174616
C348	C	1.811971	0.499695	1.424616
C349	C	0.971889	-0.314469	1.004997
C350	C	1.221889	-0.064469	1.254997
C351	C	1.471889	0.185531	1.504997
C352	C	1.721889	0.435531	1.754997
C353	C	0.971895	-0.314472	1.059599
C354	C	1.221895	-0.064472	1.309599
C355	C	1.471895	0.185528	1.559599
C356	C	1.721895	0.435528	1.809599
C357	C	1.061984	-0.250294	1.062294
C358	C	1.311984	-0.000294	1.312294
C359	C	1.561984	0.249706	1.562294
C360	C	1.811984	0.499706	1.812294
C361	C	1.061981	-0.250294	1.007690
C362	C	1.311981	-0.000294	1.257690
C363	C	1.561981	0.249706	1.507690
C364	C	1.811981	0.499706	1.757690
C365	C	1.016930	-0.282381	0.979042
C366	C	1.266930	-0.032381	1.229042
C367	C	1.516930	0.217619	1.479042
C368	C	1.766930	0.467619	1.729042
C369	C	1.061970	-0.250316	0.559950
C370	C	1.311970	-0.000316	0.809950
C371	C	1.561970	0.249684	1.059950
C372	C	1.811970	0.499684	1.309950
C373	C	1.061969	-0.250325	0.505345
C374	C	1.311969	-0.000325	0.755345
C375	C	1.561969	0.249675	1.005345
C376	C	1.811969	0.499675	1.255345
C377	C	0.971877	-0.314500	0.502655
C378	C	1.221877	-0.064500	0.752655
C379	C	1.471877	0.185500	1.002655
C380	C	1.721877	0.435500	1.252655
C381	C	0.971880	-0.314494	0.557256
C382	C	1.221880	-0.064494	0.807256
C383	C	1.471880	0.185506	1.057256
C384	C	1.721880	0.435506	1.307256
C385	C	1.016929	-0.282398	0.585902
C386	C	1.266929	-0.032398	0.835902
C387	C	1.516929	0.217602	1.085902
C388	C	1.766929	0.467602	1.335902
O389	O	0.933614	-0.341767	0.642494
O390	O	1.183614	-0.091767	0.892494
O391	O	1.433614	0.158233	1.142494
O392	O	1.683614	0.408233	1.392494
O393	O	1.100269	-0.223013	0.647518
O394	O	1.350269	0.026987	0.897518
O395	O	1.600269	0.276987	1.147518
O396	O	1.850269	0.526987	1.397518
C397	C	1.016924	-0.282380	1.146367
C398	C	1.266924	-0.032380	1.396367
C399	C	1.516924	0.217620	1.646367
C400	C	1.766924	0.467620	1.896367
C401	C	1.016936	-0.282382	1.088253
C402	C	1.266936	-0.032382	1.338253
C403	C	1.516936	0.217618	1.588253
C404	C	1.766936	0.467618	1.838253
H405	H	1.098550	-0.483808	0.224012
H406	H	1.348550	-0.233808	0.474012
H407	H	1.598550	0.016192	0.724012
H408	H	1.848550	0.266192	0.974012
H409	H	1.098660	-0.224165	1.085630
H410	H	1.348660	0.025835	1.335630
H411	H	1.598660	0.275835	1.585630
H412	H	1.848660	0.525835	1.835630
H413	H	0.890233	-0.827918	0.372484
H414	H	1.140233	-0.577918	0.622484
H415	H	1.390233	-0.327918	0.872484
H416	H	1.640233	-0.077918	1.122484
H417	H	0.935148	-0.578082	0.340381
H418	H	1.185148	-0.328082	0.590381
H419	H	1.435148	-0.078082	0.840381
H420	H	1.685148	0.171918	1.090381
H421	H	0.935204	-0.340626	0.578387
H422	H	1.185204	-0.090626	0.828387
H423	H	1.435204	0.159374	1.078387
H424	H	1.685204	0.409374	1.328387
H425	H	0.285587	-0.229659	0.229688
H426	H	0.535587	0.020341	0.479688
H427	H	0.785587	0.270341	0.729688
H428	H	1.035587	0.520341	0.979688
H429	H	0.935096	-0.479014	0.340360
H430	H	1.185096	-0.229014	0.590360
H431	H	1.435096	0.020986	0.840360
H432	H	1.685096	0.270986	1.090360
H433	H	1.143700	-0.192089	0.736743
H434	H	1.393700	0.057911	0.986743
H435	H	1.643700	0.307911	1.236743
H436	H	1.893700	0.557911	1.486743
H437	H	0.748973	-0.335140	0.334766
H438	H	0.998973	-0.085140	0.584766
H439	H	1.248973	0.164860	0.834766
H440	H	1.498973	0.414860	1.084766
H441	H	1.098849	-1.085229	0.224093
H442	H	1.348849	-0.835229	0.474093
H443	H	1.598849	-0.585229	0.724093
H444	H	1.848849	-0.335229	0.974093
H445	H	1.098656	-0.224196	0.484218
H446	H	1.348656	0.025804	0.734218
H447	H	1.598656	0.275804	0.984218
H448	H	1.848656	0.525804	1.234218
H449	H	0.749040	-0.213595	0.213667
H450	H	0.999040	0.036405	0.463667
H451	H	1.249040	0.286405	0.713667
H452	H	1.499040	0.536405	0.963667
H453	H	0.285520	-0.351201	0.350787
H454	H	0.535520	-0.101201	0.600787
H455	H	0.785520	0.148799	0.850787
H456	H	1.035520	0.398799	1.100787
H457	H	0.935343	-0.981375	0.340430
H458	H	1.185343	-0.731375	0.590430
H459	H	1.435343	-0.481375	0.840430
H460	H	1.685343	-0.231375	1.090430
H461	H	0.418928	-0.233645	0.233647
H462	H	0.668928	0.016355	0.483647
H463	H	0.918928	0.266355	0.733647
H464	H	1.168928	0.516355	0.983647
H465	H	1.143783	-0.835356	0.192000
H466	H	1.393783	-0.585356	0.442000
H467	H	1.643783	-0.335356	0.692000
H468	H	1.893783	-0.085356	0.942000
H469	H	0.890198	-0.728867	0.372476
H470	H	1.140198	-0.478867	0.622476
H471	H	1.390198	-0.228867	0.872476
H472	H	1.640198	0.021133	1.122476
H473	H	0.615632	-0.331154	0.330805
H474	H	0.865632	-0.081154	0.580805
H475	H	1.115632	0.168846	0.830805
H476	H	1.365632	0.418846	1.080805
H477	H	1.143731	-0.736308	0.191985
H478	H	1.393731	-0.486308	0.441985
H479	H	1.643731	-0.236308	0.691985
H480	H	1.893731	0.013692	0.941985
H481	H	0.615686	-0.209617	0.209704
H482	H	0.865686	0.040383	0.459704
H483	H	1.115686	0.290383	0.709704
H484	H	1.365686	0.540383	0.959704
H485	H	1.098804	-0.986162	0.224076
H486	H	1.348804	-0.736162	0.474076
H487	H	1.598804	-0.486162	0.724076
H488	H	1.848804	-0.236162	0.974076
H489	H	1.098650	-0.224179	0.583268
H490	H	1.348650	0.025821	0.833268
H491	H	1.598650	0.275821	1.083268
H492	H	1.848650	0.525821	1.333268
H493	H	0.935202	-0.340600	0.981675
H494	H	1.185202	-0.090600	1.231675
H495	H	1.435202	0.159400	1.481675
H496	H	1.685202	0.409400	1.731675
H497	H	0.418871	-0.355186	0.354751
H498	H	0.668871	-0.105186	0.604751
H499	H	0.918871	0.144814	0.854751
H500	H	1.168871	0.394814	1.104751
H501	H	0.935219	-0.340605	1.080725
H502	H	1.185219	-0.090605	1.330725
H503	H	1.435219	0.159395	1.580725
H504	H	1.685219	0.409395	1.830725
H505	H	1.143696	-0.192082	0.835789
H506	H	1.393696	0.057918	1.085789
H507	H	1.643696	0.307918	1.335789
H508	H	1.893696	0.557918	1.585789
H509	H	1.098615	-0.582860	0.224030
H510	H	1.348615	-0.332860	0.474030
H511	H	1.598615	-0.082860	0.724030
H512	H	1.848615	0.167140	0.974030
H513	H	1.098663	-0.224166	0.986564
H514	H	1.348663	0.025834	1.236564
H515	H	1.598663	0.275834	1.486564
H516	H	1.848663	0.525834	1.736564
H517	H	0.890142	-0.372685	0.828191
H518	H	1.140142	-0.122685	1.078191
H519	H	1.390142	0.127315	1.328191
H520	H	1.640142	0.377315	1.578191
H521	H	0.890132	-0.372678	0.729141
H522	H	1.140132	-0.122678	0.979141
H523	H	1.390132	0.127322	1.229141
H524	H	1.640132	0.377322	1.479141
H525	H	0.935206	-0.340627	0.479320
H526	H	1.185206	-0.090627	0.729320
H527	H	1.435206	0.159373	0.979320
H528	H	1.685206	0.409373	1.229320
H529	H	0.935382	-1.080426	0.340434
H530	H	1.185382	-0.830426	0.590434
H531	H	1.435382	-0.580426	0.840434
H532	H	1.685382	-0.330426	1.090434
