data_functionalizedCrystal
_audit_creation_method	'MofGen! by Chris Wilmer'
_symmetry_space_group_name_H-M	'P1'
_symmetry_Int_Tables_number	1
_symmetry_cell_setting	triclinic
loop_
_symmetry_equiv_pos_as_xyz
  x,y,z
_cell_length_a	14.519731
_cell_length_b	14.519709
_cell_length_c	13.930277
_cell_angle_alpha	89.994503
_cell_angle_beta	89.992691
_cell_angle_gamma	83.684499
loop_
_atom_site_label
_atom_site_type_symbol
_atom_site_fract_x
_atom_site_fract_y
_atom_site_fract_z
O1	O	1.223859	0.120984	-0.079835
O2	O	0.955385	0.135200	-0.079837
O3	O	1.096740	-0.006146	-0.079827
O4	O	1.082504	0.262330	-0.079845
O5	O	1.096721	-0.006149	0.079835
O6	O	0.955365	0.135197	0.079825
O7	O	1.223839	0.120981	0.079827
Zn8	Zn	1.089599	0.128089	0.105176
Zn9	Zn	1.089625	0.128093	-0.105186
O10	O	1.082484	0.262327	0.079817
C11	C	0.921016	0.134532	-0.000006
C12	C	0.818635	0.132536	-0.000006
C13	C	0.735491	0.130915	-0.000010
C14	C	0.631182	0.128888	-0.000010
C15	C	0.548043	0.127280	-0.000010
C16	C	0.443728	0.125253	-0.000012
C17	C	1.096067	-0.040507	0.000004
C18	C	1.094079	-0.142889	0.000004
C19	C	1.086759	-0.517785	-0.000021
C20	C	1.088792	-0.413477	-0.000013
C21	C	1.090419	-0.330340	-0.000007
C22	C	1.092452	-0.226025	-0.000002
C23	C	1.258209	0.121649	-0.000006
C24	C	1.360589	0.123645	-0.000012
C25	C	1.083157	0.296688	-0.000016
C26	C	1.085146	0.399070	-0.000023
N27	N	1.089588	0.128085	0.248742
N28	N	1.089643	0.128089	-0.248752
C29	C	1.027031	0.190656	0.701007
C30	C	1.152245	0.065522	0.700985
C31	C	1.152234	0.065519	0.600489
C32	C	1.089621	0.128087	0.550248
C33	C	1.027019	0.190657	0.600502
C34	C	1.214841	0.002956	0.550227
C35	C	1.214833	0.002952	0.449725
C36	C	1.152215	0.065515	0.399482
C37	C	1.089610	0.128087	0.449743
C38	C	1.026997	0.190655	0.399501
C39	C	0.964387	0.253223	0.449760
C40	C	0.964401	0.253221	0.550259
C41	C	1.152201	0.065518	0.298983
C42	C	1.026986	0.190656	0.298996
H43	H	0.975996	0.241603	0.258096
H44	H	0.913427	0.304162	0.591185
N45	N	0.963079	0.254553	0.752353
N46	N	0.963088	0.254543	0.842083
H47	H	0.917921	0.299671	0.878349
H48	H	1.203227	0.014586	0.741894
H49	H	0.913411	0.304170	0.408842
N50	N	1.278825	-0.060907	0.601560
N51	N	1.278841	-0.060878	0.691291
H52	H	1.324043	-0.105972	0.727551
H53	H	1.265813	-0.047995	0.408811
N54	N	1.216069	0.001524	0.247661
N55	N	1.271913	-0.054390	0.292530
H56	H	1.316988	-0.099625	0.256285
