data_functionalizedCrystal
_audit_creation_method	'MofGen! by Chris Wilmer'
_symmetry_space_group_name_H-M	'P1'
_symmetry_Int_Tables_number	1
_symmetry_cell_setting	triclinic
loop_
_symmetry_equiv_pos_as_xyz
  x,y,z
_cell_length_a	25.639239
_cell_length_b	10.685980
_cell_length_c	10.686551
_cell_angle_alpha	81.591741
_cell_angle_beta	85.590528
_cell_angle_gamma	94.404956
loop_
_atom_site_label
_atom_site_type_symbol
_atom_site_fract_x
_atom_site_fract_y
_atom_site_fract_z
Zn1	Zn	-0.117194	1.995668	-0.866668
Zn2	Zn	0.382806	2.495668	-0.366668
Zn3	Zn	-0.211916	1.979148	-0.654375
Zn4	Zn	0.288084	2.479148	-0.154375
Zn5	Zn	-0.131747	1.767080	-0.638128
Zn6	Zn	0.368253	2.267080	-0.138128
Zn7	Zn	-0.211866	1.783272	-0.850285
Zn8	Zn	0.288134	2.283272	-0.350285
O9	O	-0.168181	1.881292	-0.752364
O10	O	0.331819	2.381292	-0.252364
O11	O	-0.123690	2.171116	-0.852162
O12	O	0.376310	2.671116	-0.352162
O13	O	-0.207393	1.937327	-0.474586
O14	O	0.292607	2.437327	0.025414
O15	O	-0.056645	1.797540	-0.668501
O16	O	0.443355	2.297540	-0.168501
O17	O	-0.193282	2.158980	-0.696192
O18	O	0.306718	2.658980	-0.196192
O19	O	-0.045954	1.965483	-0.836408
O20	O	0.454046	2.465483	-0.336408
O21	O	-0.148493	1.781522	-0.462649
O22	O	0.351507	2.281522	0.037351
O23	O	-0.148444	1.591588	-0.652615
O24	O	0.351556	2.091588	-0.152615
O25	O	-0.193196	1.825137	-1.030093
O26	O	0.306804	2.325137	-0.530093
O27	O	-0.207307	1.603485	-0.808487
O28	O	0.292693	2.103485	-0.308487
O29	O	-0.123641	1.981183	-1.042129
O30	O	0.376359	2.481183	-0.542129
O31	O	-0.285081	1.953028	-0.680307
O32	O	0.214919	2.453028	-0.180307
O33	O	-0.285044	1.809119	-0.824241
O34	O	0.214956	2.309119	-0.324241
C35	C	-0.179449	1.551477	-0.727011
C36	C	0.320551	2.051477	-0.227011
C37	C	-0.184282	1.410382	-0.716195
C38	C	0.315718	1.910382	-0.216195
C39	C	-0.304033	1.881074	-0.752290
C40	C	0.195967	2.381074	-0.252290
C41	C	-0.362145	1.881100	-0.752309
C42	C	0.137855	2.381100	-0.252309
C43	C	-0.722495	1.956448	-0.677572
C44	C	-0.222495	2.456448	-0.177572
C45	C	-0.777097	1.956499	-0.677593
C46	C	-0.277097	2.456499	-0.177593
O47	O	-0.805333	2.020336	-0.613968
O48	O	-0.305333	2.520336	-0.113968
N49	N	-0.804409	1.881522	-0.752465
N50	N	-0.304409	2.381522	-0.252465
C51	C	-0.777116	1.806499	-0.827332
C52	C	-0.277116	2.306499	-0.327332
O53	O	-0.805361	1.742731	-0.891020
O54	O	-0.305361	2.242731	-0.391020
C55	C	-0.722514	1.806456	-0.827317
C56	C	-0.222514	2.306456	-0.327317
C57	C	-0.695206	1.881429	-0.752430
C58	C	-0.195206	2.381429	-0.252430
C59	C	-0.695187	2.031415	-0.602692
C60	C	-0.195187	2.531415	-0.102692
C61	C	-0.640589	2.031363	-0.602670
C62	C	-0.140589	2.531363	-0.102670
C63	C	-0.613299	1.956343	-0.677527
C64	C	-0.113299	2.456343	-0.177527
C65	C	-0.640608	1.881376	-0.752408
C66	C	-0.140608	2.381376	-0.252408
C67	C	-0.695221	1.731442	-0.902190
C68	C	-0.195221	2.231442	-0.402190
C69	C	-0.640616	1.731406	-0.902169
C70	C	-0.140616	2.231406	-0.402169
C71	C	-0.613308	1.806378	-0.827282
C72	C	-0.113308	2.306378	-0.327282
C73	C	-0.558720	1.806304	-0.827243
C74	C	-0.058720	2.306304	-0.327243
N75	N	-0.531408	1.881281	-0.752371
N76	N	-0.031408	2.381281	-0.252371
C77	C	-0.558698	1.956300	-0.677513
C78	C	-0.058698	2.456300	-0.177513
C79	C	-0.891783	1.806596	-0.827359
C80	C	-0.391783	2.306596	-0.327359
C81	C	-0.946383	1.806631	-0.827367
C82	C	-0.446383	2.306631	-0.327367
C83	C	-0.946361	1.956633	-0.677630
C84	C	-0.446361	2.456633	-0.177630
C85	C	-0.891760	1.956590	-0.677615
C86	C	-0.391760	2.456590	-0.177615
C87	C	-0.864471	1.881573	-0.752486
C88	C	-0.364471	2.381573	-0.252486
C89	C	-0.444038	1.956183	-0.677471
C90	C	0.055962	2.456183	-0.177471
C91	C	-0.389435	1.956120	-0.677451
C92	C	0.110565	2.456120	-0.177451
C93	C	-0.389462	1.806124	-0.827193
C94	C	0.110538	2.306124	-0.327193
C95	C	-0.444060	1.806182	-0.827208
C96	C	0.055940	2.306182	-0.327208
C97	C	-0.471346	1.881221	-0.752344
C98	C	0.028654	2.381221	-0.252344
O99	O	-0.530450	1.742503	-0.890839
O100	O	-0.030450	2.242503	-0.390839
O101	O	-0.530445	2.020071	-0.613848
O102	O	-0.030445	2.520071	-0.113848
C103	C	-0.031796	1.881548	-0.752469
C104	C	0.468204	2.381548	-0.252469
C105	C	0.026323	1.881657	-0.752514
C106	C	0.526323	2.381657	-0.252514
C107	C	-0.156789	1.906809	-1.083457
C108	C	0.343211	2.406809	-0.583457
C109	C	-0.151935	1.917683	-1.224549
C110	C	0.348065	2.417683	-0.724549
C111	C	-0.156869	2.212396	-0.777817
C112	C	0.343131	2.712396	-0.277817
C113	C	-0.152048	2.353493	-0.788663
C114	C	0.347952	2.853493	-0.288663
C115	C	-0.179488	1.855948	-0.422565
C116	C	0.320512	2.355948	0.077435
C117	C	-0.184186	1.845320	-0.281492
C118	C	0.315814	2.345320	0.218508
H119	H	-0.367202	2.017171	-0.616465
H120	H	0.132798	2.517171	-0.116465
C121	C	-0.976418	1.724154	-0.909735
C122	C	-0.476418	2.224154	-0.409735
H123	H	-0.952340	1.679479	-0.954317
H124	H	-0.452340	2.179479	-0.454317
H125	H	-1.001312	1.665154	-0.856900
H126	H	-0.501312	2.165154	-0.356900
H127	H	-0.994121	1.776961	-0.968831
H128	H	-0.494121	2.276961	-0.468831
C129	C	-0.226562	1.330362	-0.621194
C130	C	0.273438	1.830362	-0.121194
H131	H	-0.224378	1.242847	-0.626144
H132	H	0.275622	1.742847	-0.126144
H133	H	-0.221059	1.345451	-0.537580
H134	H	0.278941	1.845451	-0.037580
H135	H	-0.260338	1.353410	-0.641272
H136	H	0.239662	1.853410	-0.141272
H137	H	-0.120610	1.987964	-1.283744
H138	H	0.379390	2.487964	-0.783744
H139	H	-0.120752	1.412728	-0.858979
H140	H	0.379248	1.912728	-0.358979
H141	H	-0.466248	2.017291	-0.616512
H142	H	0.033752	2.517291	-0.116512
H143	H	-0.717447	1.670385	-0.963164
H144	H	-0.217447	2.170385	-0.463164
C145	C	-0.861770	1.724056	-0.909706
C146	C	-0.361770	2.224056	-0.409706
H147	H	-0.885860	1.679406	-0.954285
H148	H	-0.385860	2.179406	-0.454285
H149	H	-0.836878	1.776808	-0.968783
H150	H	-0.336878	2.276808	-0.468783
H151	H	-0.844065	1.665013	-0.856840
H152	H	-0.344065	2.165013	-0.356840
H153	H	-0.618400	1.670320	-0.963142
H154	H	-0.118400	2.170320	-0.463142
H155	H	-0.466295	1.745138	-0.888192
H156	H	0.033705	2.245138	-0.388192
H157	H	-0.367234	1.745040	-0.888138
H158	H	0.132766	2.245040	-0.388138
H159	H	-0.618357	2.092415	-0.541694
H160	H	-0.118357	2.592415	-0.041694
H161	H	-0.717400	2.092512	-0.541734
H162	H	-0.217400	2.592512	-0.041734
H163	H	-0.869528	2.017640	-0.616636
H164	H	-0.369528	2.517640	-0.116636
C165	C	-0.976387	2.039150	-0.595283
C166	C	-0.476387	2.539150	-0.095283
H167	H	-1.012815	2.028439	-0.606029
H168	H	-0.512815	2.528439	-0.106029
H169	H	-0.971028	2.014059	-0.508553
H170	H	-0.471028	2.514059	-0.008553
H171	H	-0.963846	2.125866	-0.620484
H172	H	-0.463846	2.625866	-0.120484
H173	H	-0.215513	1.775052	-1.222305
H174	H	0.284487	2.275052	-0.722305
