data_functionalizedCrystal
_audit_creation_method	'MofGen! by Chris Wilmer'
_symmetry_space_group_name_H-M	'P1'
_symmetry_Int_Tables_number	1
_symmetry_cell_setting	triclinic
loop_
_symmetry_equiv_pos_as_xyz
  x,y,z
_cell_length_a	6.394989
_cell_length_b	10.723022
_cell_length_c	9.198806
_cell_angle_alpha	89.996352
_cell_angle_beta	90.000201
_cell_angle_gamma	94.517531
loop_
_atom_site_label
_atom_site_type_symbol
_atom_site_fract_x
_atom_site_fract_y
_atom_site_fract_z
O1	O	-0.293006	1.660299	-0.120873
O2	O	-0.321057	1.297444	-0.120877
O3	O	-0.003041	1.484022	-0.120876
O4	O	-0.611022	1.473721	-0.120874
O5	O	-0.003040	1.484006	0.120909
O6	O	-0.321057	1.297429	0.120908
O7	O	-0.293005	1.660283	0.120912
Cu8	Cu	-0.307031	1.478855	0.142987
Cu9	Cu	-0.307032	1.478873	-0.142952
O10	O	-0.611021	1.473706	0.120911
C11	C	-0.319016	1.250915	0.000015
C12	C	-0.312911	1.112296	0.000013
C13	C	-0.129522	1.061788	0.000012
C14	C	-0.123207	0.918518	0.000010
C15	C	0.074810	1.481977	0.000011
C16	C	0.311134	1.475753	0.000010
C17	C	-0.295046	1.706812	0.000017
C18	C	-0.301152	1.845431	0.000010
N19	N	-0.307029	1.478851	0.344101
N20	N	-0.307017	1.478886	-0.344066
C21	C	-0.172914	1.557183	0.416299
C22	C	-0.172907	1.557203	0.583711
H23	H	-0.465242	1.049470	0.000007
H24	H	-0.058093	1.624271	0.645797
C25	C	0.088916	0.859793	0.000001
H26	H	0.065333	0.771204	-0.000012
H27	H	0.166151	0.885960	0.084312
H28	H	0.166125	0.885971	-0.084330
H29	H	0.022809	1.124614	0.000005
C30	C	-0.462150	1.388282	0.572086
H31	H	-0.546298	1.339156	0.639116
H32	H	-0.386393	1.335053	0.512715
H33	H	-0.549501	1.434750	0.512706
C34	C	-0.513289	0.904142	0.000011
H35	H	-0.624108	0.839702	0.000020
H36	H	-0.523324	0.954478	-0.084301
H37	H	-0.523320	0.954460	0.084341
C38	C	-0.017800	1.647762	0.332381
H39	H	-0.038162	1.635871	0.230870
H40	H	0.121774	1.631809	0.357259
H41	H	-0.041346	1.731499	0.357232
H42	H	-0.421837	1.411797	0.406229
