data_functionalizedCrystal
_audit_creation_method	'MofGen! by Chris Wilmer'
_symmetry_space_group_name_H-M	'P1'
_symmetry_Int_Tables_number	1
_symmetry_cell_setting	triclinic
loop_
_symmetry_equiv_pos_as_xyz
  x,y,z
_cell_length_a	12.759401
_cell_length_b	18.101395
_cell_length_c	12.759393
_cell_angle_alpha	90.033445
_cell_angle_beta	90.018496
_cell_angle_gamma	90.031265
loop_
_atom_site_label
_atom_site_type_symbol
_atom_site_fract_x
_atom_site_fract_y
_atom_site_fract_z
Zn1	Zn	1.606136	-0.294783	0.593968
Zn2	Zn	2.106136	0.205217	1.093968
Zn3	Zn	1.605980	-0.418644	0.418282
Zn4	Zn	2.105980	0.081356	0.918282
Zn5	Zn	1.430438	-0.294822	0.418307
Zn6	Zn	1.930438	0.205178	0.918307
Zn7	Zn	1.430376	-0.418587	0.593923
Zn8	Zn	1.930376	0.081413	1.093923
O9	O	1.518232	-0.356709	0.506120
O10	O	2.018232	0.143291	1.006120
O11	O	1.753136	-0.311221	0.570671
O12	O	2.253136	0.188779	1.070671
O13	O	1.582654	-0.402259	0.271264
O14	O	2.082654	0.097741	0.771264
O15	O	1.453835	-0.191183	0.441638
O16	O	1.953835	0.308817	0.941638
O17	O	1.753021	-0.402221	0.441595
O18	O	2.253021	0.097779	0.941595
O19	O	1.582920	-0.191155	0.570695
O20	O	2.082920	0.308845	1.070695
O21	O	1.453684	-0.311287	0.271283
O22	O	1.953684	0.188713	0.771283
O23	O	1.283408	-0.311232	0.441595
O24	O	1.783408	0.188768	0.941595
O25	O	1.453730	-0.402124	0.740950
O26	O	1.953730	0.097876	1.240950
O27	O	1.283363	-0.402162	0.570619
O28	O	1.783363	0.097838	1.070619
O29	O	1.582860	-0.311166	0.740983
O30	O	2.082860	0.188834	1.240983
O31	O	1.582594	-0.522270	0.441552
O32	O	2.082594	-0.022270	0.941552
O33	O	1.453579	-0.522228	0.570595
O34	O	1.953579	-0.022228	1.070595
C35	C	1.245265	-0.356695	0.506106
C36	C	1.745265	0.143305	1.006106
C37	C	1.128488	-0.356707	0.506125
C38	C	1.628488	0.143293	1.006125
C39	C	1.518092	-0.549120	0.506089
C40	C	2.018092	-0.049120	1.006089
C41	C	1.518128	-0.631434	0.506111
C42	C	2.018128	-0.131434	1.006111
C43	C	1.073630	-0.404131	0.573197
C44	C	1.573630	0.095869	1.073197
C45	C	0.963906	-0.404140	0.573208
C46	C	1.463906	0.095860	1.073208
C47	C	0.963908	-0.309301	0.439066
C48	C	1.463908	0.190699	0.939066
C49	C	1.073630	-0.309288	0.439061
C50	C	1.573630	0.190712	0.939061
C51	C	1.128488	-0.451550	0.640260
C52	C	1.628488	0.048450	1.140260
C53	C	1.073630	-0.498977	0.707337
C54	C	1.573630	0.001023	1.207337
C55	C	0.963906	-0.498987	0.707348
C56	C	1.463906	0.001013	1.207348
C57	C	0.909040	-0.451568	0.640283
C58	C	1.409040	0.048432	1.140283
C59	C	1.518358	-0.930525	0.506168
C60	C	2.018358	-0.430525	1.006168
C61	C	1.437374	-0.899204	0.587559
C62	C	1.937374	-0.399204	1.087559
C63	C	1.436989	-0.813586	0.587305
C64	C	1.936989	-0.313586	1.087305
C65	C	1.518244	-0.782142	0.506140
C66	C	2.018244	-0.282142	1.006140
C67	C	1.488263	-0.813302	0.395415
C68	C	1.988263	-0.313302	0.895415
C69	C	1.487741	-0.898947	0.395903
C70	C	1.987741	-0.398947	0.895903
C71	C	1.629501	-0.898866	0.534526
C72	C	2.129501	-0.398866	1.034526
C73	C	1.628847	-0.813215	0.536954
C74	C	2.128847	-0.313215	1.036954
C75	C	1.518181	-0.698283	0.506118
C76	C	2.018181	-0.198283	1.006118
C77	C	1.518418	-1.014384	0.506182
C78	C	2.018418	-0.514384	1.006182
C79	C	1.792265	-0.356723	0.506135
C80	C	2.292265	0.143277	1.006135
C81	C	1.909042	-0.356729	0.506141
C82	C	2.409042	0.143271	1.006141
C83	C	1.518306	-0.356634	0.780153
C84	C	2.018306	0.143366	1.280153
C85	C	1.518337	-0.356602	0.896930
C86	C	2.018337	0.143398	1.396930
C87	C	1.518402	-0.163547	0.506174
C88	C	2.018402	0.336453	1.006174
C89	C	1.518474	-0.081233	0.506197
C90	C	2.018474	0.418767	1.006197
C91	C	1.518219	-0.356730	0.233153
C92	C	2.018219	0.143270	0.733153
C93	C	1.518392	-0.356553	0.116376
C94	C	2.018392	0.143447	0.616376
C95	C	1.585584	-0.309236	0.951811
C96	C	2.085584	0.190764	1.451811
C97	C	1.585609	-0.309209	1.061535
C98	C	2.085609	0.190791	1.561535
C99	C	1.451137	-0.403922	1.061488
C100	C	1.951137	0.096078	1.561488
C101	C	1.451108	-0.403944	0.951766
C102	C	1.951108	0.096056	1.451766
C103	C	1.652814	-0.261894	0.896975
C104	C	2.152814	0.238106	1.396975
C105	C	1.720068	-0.214524	0.951856
C106	C	2.220068	0.285476	1.451856
C107	C	1.720092	-0.214497	1.061580
C108	C	2.220092	0.285503	1.561580
C109	C	1.652864	-0.261840	1.116423
C110	C	2.152864	0.238160	1.616423
H111	H	1.217831	-0.451549	0.640256
H112	H	1.717831	0.048451	1.140256
H113	H	1.774796	-0.175974	0.907195
H114	H	2.274796	0.324026	1.407195
H115	H	1.118297	-0.270667	0.384453
H116	H	1.618297	0.229333	0.884453
H117	H	1.118309	-0.537579	0.761945
H118	H	1.618309	-0.037579	1.261945
Br119	Br	1.811364	-0.150212	1.136059
Br120	Br	2.311364	0.349788	1.636059
H121	H	1.652878	-0.261806	1.205768
H122	H	2.152878	0.238194	1.705768
Br123	Br	0.889457	-0.563343	0.798389
Br124	Br	1.389457	-0.063343	1.298389
Br125	Br	0.760128	-0.451574	0.640311
Br126	Br	1.260128	0.048426	1.140311
Br127	Br	1.468250	-0.778463	0.724147
Br128	Br	1.968250	-0.278463	1.224147
Br129	Br	1.359907	-0.468171	1.135918
Br130	Br	1.859907	0.031829	1.635918
Br131	Br	0.889448	-0.244953	0.348055
Br132	Br	1.389448	0.255047	0.848055
Br133	Br	1.581776	-0.933490	0.291375
Br134	Br	2.081776	-0.433490	0.791375
H135	H	1.396333	-0.442503	0.907081
H136	H	1.896333	0.057497	1.407081
H137	H	1.354607	-0.793164	0.568521
H138	H	1.854607	-0.293164	1.068521
Br139	Br	1.468320	-0.933442	0.724850
Br140	Br	1.968320	-0.433442	1.224850
H141	H	1.692377	-0.791806	0.481993
H142	H	2.192377	-0.291806	0.981993
Br143	Br	1.583481	-0.779363	0.291578
Br144	Br	2.083481	-0.279363	0.791578
H145	H	1.355493	-0.920792	0.569012
H146	H	1.855493	-0.420792	1.069012
Br147	Br	1.652790	-0.261932	0.748064
Br148	Br	2.152790	0.238068	1.248064
Br149	Br	1.354282	-0.777668	0.354653
Br150	Br	1.854282	-0.277668	0.854653
Br151	Br	1.352329	-0.932361	0.355861
Br152	Br	1.852329	-0.432361	0.855861
Br153	Br	1.675059	-0.934770	0.666805
Br154	Br	2.175059	-0.434770	1.166805
H155	H	1.651456	-0.792845	0.618442
H156	H	2.151456	-0.292845	1.118442
Br157	Br	1.730071	-0.932639	0.435739
Br158	Br	2.230071	-0.432639	0.935739
