data_functionalizedCrystal
_audit_creation_method	'MofGen! by Chris Wilmer'
_symmetry_space_group_name_H-M	'P1'
_symmetry_Int_Tables_number	1
_symmetry_cell_setting	triclinic
loop_
_symmetry_equiv_pos_as_xyz
  x,y,z
_cell_length_a	14.519731
_cell_length_b	14.519709
_cell_length_c	9.730223
_cell_angle_alpha	89.997715
_cell_angle_beta	89.999699
_cell_angle_gamma	83.684499
loop_
_atom_site_label
_atom_site_type_symbol
_atom_site_fract_x
_atom_site_fract_y
_atom_site_fract_z
O1	O	1.223850	0.120981	-0.114296
O2	O	0.955376	0.135197	-0.114298
O3	O	1.096731	-0.006149	-0.114285
O4	O	1.082495	0.262327	-0.114310
O5	O	1.096730	-0.006146	0.114295
O6	O	0.955374	0.135200	0.114282
O7	O	1.223848	0.120984	0.114284
Zn8	Zn	1.089611	0.128093	0.150575
Zn9	Zn	1.089613	0.128088	-0.150589
O10	O	1.082493	0.262330	0.114270
C11	C	0.921016	0.134532	-0.000009
C12	C	0.818635	0.132536	-0.000009
C13	C	0.735491	0.130915	-0.000015
C14	C	0.631182	0.128888	-0.000015
C15	C	0.548043	0.127280	-0.000015
C16	C	0.443728	0.125253	-0.000017
C17	C	1.096067	-0.040507	0.000006
C18	C	1.094079	-0.142889	0.000006
C19	C	1.086759	-0.517785	-0.000029
C20	C	1.088792	-0.413477	-0.000019
C21	C	1.090419	-0.330340	-0.000010
C22	C	1.092452	-0.226025	-0.000002
C23	C	1.258209	0.121649	-0.000009
C24	C	1.360589	0.123645	-0.000017
C25	C	1.083157	0.296688	-0.000023
C26	C	1.085146	0.399070	-0.000033
N27	N	1.089616	0.128096	0.356111
N28	N	1.089615	0.128078	-0.356125
C29	C	1.152224	0.065529	0.428043
C30	C	1.152222	0.065518	0.571926
C31	C	1.027000	0.190648	0.571932
C32	C	1.026999	0.190654	0.428052
C33	C	1.214842	0.002970	0.356103
C34	C	1.277456	-0.059601	0.428035
C35	C	1.277453	-0.059612	0.571918
C36	C	1.214837	0.002948	0.643868
H37	H	1.214851	0.002975	0.238946
C38	C	1.402916	-0.079343	0.733731
C39	C	1.346271	-0.128390	0.650992
H40	H	1.445400	-0.121805	0.782551
H41	H	1.436144	-0.040880	0.677605
H42	H	1.365617	-0.042091	0.797165
H43	H	1.383569	-0.165637	0.587551
H44	H	1.313040	-0.166869	0.707123
C45	C	1.333010	-0.115198	0.207472
C46	C	1.346241	-0.128404	0.348952
H47	H	1.375469	-0.157684	0.158655
H48	H	1.271442	-0.125321	0.183927
H49	H	1.343162	-0.053635	0.183883
H50	H	1.336083	-0.189965	0.372543
H51	H	1.407824	-0.118289	0.372507
H52	H	1.214834	0.002927	0.761028
H53	H	0.976022	0.241583	0.630524
H54	H	0.976017	0.241601	0.369484
