data_functionalizedCrystal
_audit_creation_method	'MofGen! by Chris Wilmer'
_symmetry_space_group_name_H-M	'P1'
_symmetry_Int_Tables_number	1
_symmetry_cell_setting	triclinic
loop_
_symmetry_equiv_pos_as_xyz
  x,y,z
_cell_length_a	10.540514
_cell_length_b	10.540510
_cell_length_c	13.330367
_cell_angle_alpha	89.997867
_cell_angle_beta	89.991931
_cell_angle_gamma	84.514235
loop_
_atom_site_label
_atom_site_type_symbol
_atom_site_fract_x
_atom_site_fract_y
_atom_site_fract_z
O1	O	1.685893	0.178749	-0.083430
O2	O	2.185893	0.678749	0.416570
O3	O	1.316474	0.195639	-0.083429
O4	O	1.816474	0.695639	0.416571
O5	O	1.509631	0.002484	-0.083429
O6	O	2.009631	0.502484	0.416571
O7	O	1.492735	0.371904	-0.083430
O8	O	1.992735	0.871904	0.416570
O9	O	1.509603	0.002480	0.083418
O10	O	2.009603	0.502480	0.583418
O11	O	1.316445	0.195634	0.083418
O12	O	1.816445	0.695634	0.583418
O13	O	1.685864	0.178745	0.083417
O14	O	2.185864	0.678745	0.583417
Cu15	Cu	1.501152	0.187189	0.098652
Cu16	Cu	2.001152	0.687189	0.598652
Cu17	Cu	1.501186	0.187194	-0.098664
Cu18	Cu	2.001186	0.687194	0.401336
O19	O	1.492707	0.371899	0.083417
O20	O	1.992707	0.871899	0.583417
C21	C	1.269156	0.194377	-0.000005
C22	C	1.769156	0.694377	0.499995
C23	C	1.128207	0.190608	-0.000005
C24	C	1.628207	0.690608	0.499995
C25	C	1.057486	0.328749	-0.000007
C26	C	1.557486	0.828749	0.499993
C27	C	0.910874	0.324875	-0.000391
C28	C	1.410874	0.824875	0.499609
C29	C	0.935893	0.115482	-0.095103
C30	C	1.435893	0.615482	0.404897
C31	C	1.082432	0.120336	-0.095178
C32	C	1.582432	0.620336	0.404822
C33	C	1.082803	0.118286	0.094565
C34	C	1.582803	0.618286	0.594565
C35	C	0.935824	0.116953	0.095810
C36	C	1.435824	0.616953	0.595810
C37	C	1.508358	-0.044821	-0.000008
C38	C	2.008358	0.455179	0.499992
C39	C	1.504591	-0.185771	-0.000014
C40	C	2.004591	0.314229	0.499986
C41	C	1.638776	-0.403239	0.000368
C42	C	2.138776	0.096761	0.500368
C43	C	1.642794	-0.256643	-0.000013
C44	C	2.142794	0.243357	0.499987
C45	C	1.433860	-0.230521	-0.095289
C46	C	1.933860	0.269479	0.404711
C47	C	1.430821	-0.377281	-0.095364
C48	C	1.930821	0.122719	0.404636
C49	C	1.427910	-0.377095	0.094373
C50	C	1.927910	0.122905	0.594373
C51	C	1.434465	-0.230754	0.095627
C52	C	1.934465	0.269246	0.595627
C53	C	1.733182	0.180007	-0.000009
C54	C	2.233182	0.680007	0.499991
C55	C	1.874131	0.183776	-0.000016
C56	C	2.374131	0.683776	0.499984
C57	C	1.493980	0.419205	-0.000006
C58	C	1.993980	0.919205	0.499994
C59	C	1.497747	0.560155	-0.000007
C60	C	1.997747	1.060155	0.499993
N61	N	1.501138	0.187185	0.237434
N62	N	2.001138	0.687185	0.737434
N63	N	1.501210	0.187189	-0.237445
N64	N	2.001210	0.687189	0.262555
C65	C	1.415652	0.272689	0.710057
C66	C	1.915652	0.772689	1.210057
C67	C	1.586754	0.101690	0.710024
C68	C	2.086754	0.601690	1.210024
C69	C	1.586739	0.101686	0.605006
C70	C	2.086739	0.601686	1.105006
C71	C	1.501181	0.187186	0.552508
C72	C	2.001181	0.687186	1.052508
C73	C	1.415637	0.272691	0.605029
C74	C	1.915637	0.772691	1.105029
C75	C	1.672290	0.016192	0.552478
C76	C	2.172290	0.516192	1.052478
C77	C	1.672280	0.016185	0.447453
C78	C	2.172280	0.516185	0.947453
C79	C	1.586715	0.101681	0.394953
C80	C	2.086715	0.601681	0.894953
C81	C	1.501167	0.187187	0.447480
C82	C	2.001167	0.687187	0.947480
C83	C	1.415608	0.272688	0.394982
C84	C	1.915608	0.772688	0.894982
C85	C	1.330053	0.358189	0.447507
C86	C	1.830053	0.858189	0.947507
C87	C	1.330072	0.358186	0.552529
C88	C	1.830072	0.858186	1.052529
C89	C	1.586696	0.101684	0.289932
C90	C	2.086696	0.601684	0.789932
C91	C	1.415594	0.272689	0.289954
C92	C	1.915594	0.772689	0.789954
H93	H	0.868193	0.378591	0.067756
H94	H	1.368193	0.878591	0.567756
H95	H	1.345990	0.342300	0.752825
H96	H	1.845990	0.842300	1.252825
F97	F	1.295716	-0.407330	-0.101021
F98	F	1.795716	0.092670	0.398979
F99	F	1.498094	-0.190199	-0.187968
F100	F	1.998094	0.309801	0.312032
H101	H	1.741943	-0.053435	0.404694
H102	H	2.241943	0.446565	0.904694
F103	F	1.677815	0.010706	0.765896
F104	F	2.177815	0.510706	1.265896
F105	F	1.709142	-0.458083	0.089678
F106	F	2.209142	0.041917	0.589678
F107	F	1.123945	0.178387	0.188800
F108	F	1.623945	0.678387	0.688800
F109	F	1.239006	0.449190	0.391624
F110	F	1.739006	0.949190	0.891624
F111	F	1.096998	0.400930	-0.089004
F112	F	1.596998	0.900930	0.410996
F113	F	0.882218	0.182185	0.187761
F114	F	1.382218	0.682185	0.687761
H115	H	1.332117	-0.183122	-0.098832
H116	H	1.832117	0.316878	0.401168
F117	F	0.904219	-0.017474	0.103692
F118	F	1.404219	0.482526	0.603692
F119	F	1.484918	-0.432653	0.188763
F120	F	1.984918	0.067347	0.688763
H121	H	1.485932	-0.202149	0.166111
H122	H	1.985932	0.297851	0.666111
F123	F	1.708766	-0.460105	-0.088435
F124	F	2.208766	0.039895	0.411565
F125	F	1.239027	0.449178	0.608433
F126	F	1.739027	0.949178	1.108433
F127	F	1.763351	-0.074792	0.608349
F128	F	2.263351	0.425208	1.108349
H129	H	1.333565	-0.181679	0.101380
H130	H	1.833565	0.318321	0.601380
F131	F	1.144603	-0.014889	0.095777
F132	F	1.644603	0.485111	0.595777
H133	H	1.324146	-0.399235	0.095015
H134	H	1.824146	0.100765	0.595015
F135	F	0.856330	0.394788	-0.090010
F136	F	1.356330	0.894788	0.409990
H137	H	1.656360	0.032076	0.247170
H138	H	2.156360	0.532076	0.747170
H139	H	1.698138	-0.227306	0.068283
H140	H	2.198138	0.272694	0.568283
F141	F	1.715579	-0.219513	-0.089439
F142	F	2.215579	0.280487	0.410561
H143	H	1.130450	0.018861	-0.099237
H144	H	1.630450	0.518861	0.400763
F145	F	1.324523	0.363686	0.234090
F146	F	1.824523	0.863686	0.734090
H147	H	1.110663	0.170220	-0.166529
H148	H	1.610663	0.670220	0.333471
H149	H	1.086009	0.384787	0.068171
H150	H	1.586009	0.884787	0.568171
F151	F	0.906744	-0.019975	-0.099378
F152	F	1.406744	0.480025	0.400622
F153	F	1.494039	-0.429854	-0.188450
F154	F	1.994039	0.070146	0.311550
H155	H	0.893293	0.162299	-0.166137
H156	H	1.393293	0.662299	0.333863
