data_functionalizedCrystal
_audit_creation_method	'MofGen! by Chris Wilmer'
_symmetry_space_group_name_H-M	'P1'
_symmetry_Int_Tables_number	1
_symmetry_cell_setting	triclinic
loop_
_symmetry_equiv_pos_as_xyz
  x,y,z
_cell_length_a	15.995350
_cell_length_b	16.992695
_cell_length_c	16.053802
_cell_angle_alpha	92.741074
_cell_angle_beta	87.422378
_cell_angle_gamma	87.080299
loop_
_atom_site_label
_atom_site_type_symbol
_atom_site_fract_x
_atom_site_fract_y
_atom_site_fract_z
O1	O	1.121056	0.097771	-0.069359
O2	O	1.621056	0.597771	0.430641
O3	O	0.878117	0.110251	-0.069376
O4	O	1.378117	0.610251	0.430624
O5	O	0.998613	-0.010132	-0.069361
O6	O	1.498613	0.489868	0.430639
O7	O	1.000561	0.218153	-0.069374
O8	O	1.500561	0.718153	0.430626
O9	O	0.991978	-0.003533	0.069497
O10	O	1.491978	0.496467	0.569497
O11	O	0.871483	0.116849	0.069482
O12	O	1.371483	0.616849	0.569482
O13	O	1.114422	0.104370	0.069499
O14	O	1.614422	0.604370	0.569499
Zn15	Zn	0.991899	0.111657	0.091537
Zn16	Zn	1.491899	0.611657	0.591537
Zn17	Zn	1.000640	0.102963	-0.091414
Zn18	Zn	1.500640	0.602963	0.408586
O19	O	0.993927	0.224752	0.069484
O20	O	1.493927	0.724752	0.569484
C21	C	0.843571	0.113034	0.000051
C22	C	1.343571	0.613034	0.500051
C23	C	0.750517	0.111487	0.000044
C24	C	1.250517	0.611487	0.500044
C25	C	0.992790	-0.036045	0.000068
C26	C	1.492790	0.463955	0.500068
C27	C	0.985314	-0.123089	0.000067
C28	C	1.485314	0.376911	0.500067
C29	C	1.057449	-0.173329	0.000073
C30	C	1.557449	0.326671	0.500073
C31	C	1.050419	-0.255116	0.000065
C32	C	1.550419	0.244884	0.500065
C33	C	0.971254	-0.286661	0.000056
C34	C	1.471254	0.213339	0.500056
C35	C	0.899114	-0.236415	0.000048
C36	C	1.399114	0.263585	0.500048
C37	C	0.906144	-0.154630	0.000050
C38	C	1.406144	0.345370	0.500050
C39	C	0.942116	-0.530260	0.000043
C40	C	1.442116	-0.030260	0.500043
C41	C	0.935091	-0.612051	0.000043
C42	C	1.435091	-0.112051	0.500043
C43	C	1.086398	-0.630747	0.000058
C44	C	1.586398	-0.130747	0.500058
C45	C	1.093421	-0.548959	0.000066
C46	C	1.593421	-0.048959	0.500066
C47	C	1.021281	-0.498720	0.000053
C48	C	1.521281	0.001280	0.500053
N49	N	0.964067	-0.370260	0.000050
N50	N	1.464067	0.129740	0.500050
N51	N	1.028469	-0.415123	0.000053
N52	N	1.528469	0.084877	0.500053
C53	C	0.412397	0.105932	0.000062
C54	C	0.912397	0.605932	0.500062
C55	C	0.454079	0.020213	0.000377
C56	C	0.954079	0.520213	0.500377
C57	C	0.550888	0.021745	0.000058
C58	C	1.050888	0.521745	0.500058
C59	C	0.580143	0.108688	0.000054
C60	C	1.080143	0.608688	0.500054
C61	C	0.545673	0.147206	-0.079240
C62	C	1.045673	0.647206	0.420760
C63	C	0.448896	0.145050	-0.079301
C64	C	0.948896	0.645050	0.420699
C65	C	0.441132	0.154325	0.078607
C66	C	0.941132	0.654325	0.578607
C67	C	0.538026	0.154355	0.079649
C68	C	1.038026	0.654355	0.579649
C69	C	0.674945	0.110249	0.000046
C70	C	1.174945	0.610249	0.500046
C71	C	0.317595	0.104373	0.000064
C72	C	0.817595	0.604373	0.500064
C73	C	1.148969	0.101586	0.000071
C74	C	1.648969	0.601586	0.500071
C75	C	1.242022	0.103133	0.000072
C76	C	1.742022	0.603133	0.500072
C77	C	0.999750	0.250665	0.000054
C78	C	1.499750	0.750665	0.500054
C79	C	1.007226	0.337709	0.000049
C80	C	1.507226	0.837709	0.500049
N81	N	0.985940	0.117590	0.216397
N82	N	1.485940	0.617590	0.716397
N83	N	1.006606	0.097024	-0.216274
N84	N	1.506606	0.597024	0.283726
C85	C	1.037232	0.066386	0.260097
C86	C	1.537232	0.566386	0.760097
C87	C	1.033072	0.070544	0.347504
C88	C	1.533072	0.570544	0.847504
C89	C	0.977623	0.125910	0.391208
C90	C	1.477623	0.625910	0.891208
C91	C	0.926325	0.177117	0.347501
C92	C	1.426325	0.677117	0.847501
C93	C	0.930482	0.172955	0.260097
C94	C	1.430482	0.672955	0.760097
C95	C	0.959465	0.144068	0.652615
C96	C	1.459465	0.644068	1.152615
C97	C	0.955314	0.148228	0.740026
C98	C	1.455314	0.648228	1.240026
C99	C	1.062060	0.041653	0.740022
C100	C	1.562060	0.541653	1.240022
C101	C	1.066215	0.037499	0.652616
C102	C	1.566215	0.537499	1.152616
C103	C	1.014914	0.088703	0.608917
C104	C	1.514914	0.588703	1.108917
N105	N	0.973371	0.130163	0.480551
N106	N	1.473371	0.630163	0.980551
N107	N	1.019162	0.084446	0.519575
N108	N	1.519162	0.584446	1.019575
H109	H	1.109160	-0.296019	0.000071
H110	H	1.609160	0.203981	0.500071
N111	N	1.122990	-0.019000	0.608068
N112	N	1.622990	0.481000	1.108068
N113	N	1.116692	-0.091030	0.617845
N114	N	1.616692	0.408970	1.117845
H115	H	1.156845	-0.130906	0.586413
H116	H	1.656845	0.369094	1.086413
H117	H	0.574902	0.115031	-0.138249
H118	H	1.074902	0.615031	0.361751
H119	H	0.910158	0.193318	0.775606
H120	H	1.410158	0.693318	1.275606
H121	H	0.421032	0.207824	-0.082902
H122	H	0.921032	0.707824	0.417098
H123	H	1.145130	-0.671660	0.000067
H124	H	1.645130	-0.171660	0.500067
N125	N	0.568918	0.227163	-0.082961
N126	N	1.068918	0.727163	0.417039
N127	N	0.513563	0.281830	-0.082702
N128	N	1.013563	0.781830	0.417298
H129	H	0.529979	0.338301	-0.085330
H130	H	1.029979	0.838301	0.414670
N131	N	0.426888	0.102811	-0.153641
N132	N	0.926888	0.602811	0.346359
N133	N	0.386918	0.041752	-0.148708
N134	N	0.886918	0.541752	0.351292
H135	H	0.371378	0.011917	-0.201212
H136	H	0.871378	0.511917	0.298788
H137	H	0.557405	0.217983	0.084436
H138	H	1.057405	0.717983	0.584436
N139	N	0.818240	-0.268618	0.000035
N140	N	1.318240	0.231382	0.500035
N141	N	0.771165	-0.255999	-0.058498
N142	N	1.271165	0.244001	0.441502
H143	H	0.714044	-0.278739	-0.058504
H144	H	1.214044	0.221261	0.441496
N145	N	0.832452	-0.103319	0.000033
N146	N	1.332452	0.396681	0.500033
N147	N	0.761773	-0.131492	0.000021
N148	N	1.261773	0.368508	0.500021
H149	H	0.709725	-0.095256	0.000004
H150	H	1.209725	0.404744	0.500004
N151	N	0.409409	0.122743	0.154000
N152	N	0.909409	0.622743	0.654000
N153	N	0.365231	0.064178	0.150756
N154	N	0.865231	0.564178	0.650756
H155	H	0.342824	0.041866	0.203999
H156	H	0.842824	0.541866	0.703999
H157	H	0.434905	-0.016587	-0.056171
H158	H	0.934905	0.483413	0.443829
N159	N	0.580349	-0.016574	0.071363
N160	N	1.080349	0.483426	0.571363
N161	N	0.529387	-0.044640	0.121710
N162	N	1.029387	0.455360	0.621710
H163	H	0.550189	-0.071710	0.172069
H164	H	1.050189	0.428290	0.672069
H165	H	0.870621	-0.637730	0.000049
H166	H	1.370621	-0.137730	0.500049
H167	H	0.883374	-0.489364	0.000032
H168	H	1.383374	0.010636	0.500032
N169	N	1.085440	0.018235	0.392164
N170	N	1.585440	0.518235	0.892164
N171	N	1.136745	0.045438	0.440952
N172	N	1.636745	0.545438	0.940952
H173	H	1.173717	0.008487	0.472503
H174	H	1.673717	0.508487	0.972503
N175	N	1.114440	-0.010652	0.784673
N176	N	1.614440	0.489348	1.284673
N177	N	1.082297	-0.057014	0.833458
N178	N	1.582297	0.442986	1.333458
H179	H	1.119290	-0.093960	0.864994
H180	H	1.619290	0.406040	1.364994
H181	H	0.917695	0.185762	0.617042
H182	H	1.417695	0.685762	1.117042
N183	N	1.138321	-0.141123	0.000093
N184	N	1.638321	0.358877	0.500093
N185	N	1.202720	-0.185994	0.000099
N186	N	1.702720	0.314006	0.500099
H187	H	1.259840	-0.163251	0.000112
H188	H	1.759840	0.336749	0.500112
N189	N	0.869672	0.233660	0.392143
N190	N	1.369672	0.733660	0.892143
N191	N	0.813718	0.211072	0.440928
N192	N	1.313718	0.711072	0.940928
H193	H	0.773705	0.251006	0.472457
H194	H	1.273705	0.751006	0.972457
N195	N	0.586434	-0.023631	-0.071371
N196	N	1.086434	0.476369	0.428629
N197	N	0.539734	-0.056526	-0.121146
N198	N	1.039734	0.443474	0.378854
H199	H	0.564837	-0.088574	-0.171598
H200	H	1.064837	0.411426	0.328402
N201	N	0.566176	0.119110	0.153235
N202	N	1.066176	0.619110	0.653235
N203	N	0.617066	0.060580	0.147146
N204	N	1.117066	0.560580	0.647146
H205	H	0.636952	0.035686	0.199114
H206	H	1.136952	0.535686	0.699114
N207	N	0.424562	-0.019343	0.071747
N208	N	0.924562	0.480657	0.571747
N209	N	0.348187	-0.030057	0.082601
N210	N	0.848187	0.469943	0.582601
H211	H	0.327342	-0.057978	0.133022
H212	H	0.827342	0.442022	0.633022
H213	H	0.413574	0.217562	0.079140
H214	H	0.913574	0.717562	0.579140
N215	N	1.093830	0.009783	0.215471
N216	N	1.593830	0.509783	0.715471
N217	N	1.139585	-0.035963	0.254505
N218	N	1.639585	0.464037	0.754505
H219	H	1.179538	-0.075960	0.222990
H220	H	1.679538	0.424040	0.722990
N221	N	0.878079	0.225262	0.215468
N222	N	1.378079	0.725262	0.715468
N223	N	0.828573	0.274693	0.254497
N224	N	1.328573	0.774693	0.754497
H225	H	0.791558	0.311635	0.222979
H226	H	1.291558	0.811635	0.722979
H227	H	1.157885	-0.523282	0.000073
H228	H	1.657885	-0.023282	0.500073
