data_functionalizedCrystal
_audit_creation_method	'MofGen! by Chris Wilmer'
_symmetry_space_group_name_H-M	'P1'
_symmetry_Int_Tables_number	1
_symmetry_cell_setting	triclinic
loop_
_symmetry_equiv_pos_as_xyz
  x,y,z
_cell_length_a	6.817900
_cell_length_b	14.858565
_cell_length_c	16.305550
_cell_angle_alpha	95.065908
_cell_angle_beta	103.455250
_cell_angle_gamma	104.523916
loop_
_atom_site_label
_atom_site_type_symbol
_atom_site_fract_x
_atom_site_fract_y
_atom_site_fract_z
V1	V	-4.031556	-0.129456	-0.263268
V2	V	-3.531556	0.370544	0.236732
O3	O	-4.013619	0.005413	-0.258014
O4	O	-3.513619	0.505413	0.241986
O5	O	-3.988195	-0.255912	-0.261700
O6	O	-3.488195	0.244088	0.238300
O7	O	-3.982895	-0.127819	-0.377982
O8	O	-3.482895	0.372181	0.122018
O9	O	-4.018955	-0.123567	-0.140928
O10	O	-3.518955	0.376433	0.359072
V11	V	-4.514565	-0.113282	-0.248607
V12	V	-4.014565	0.386718	0.251393
O13	O	-4.293942	-0.164934	-0.295429
O14	O	-3.793942	0.335066	0.204571
O15	O	-4.702376	-0.077803	-0.216446
O16	O	-4.202376	0.422197	0.283554
O17	O	-4.334720	0.013174	-0.250175
O18	O	-3.834720	0.513174	0.249825
O19	O	-4.649899	-0.248151	-0.253860
O20	O	-4.149899	0.251849	0.246140
O21	O	-4.644563	-0.119171	-0.370947
O22	O	-4.144563	0.380829	0.129053
O23	O	-4.340020	-0.114919	-0.133893
O24	O	-3.840020	0.385081	0.366107
C25	C	-3.834429	-0.286728	-0.257607
C26	C	-3.334429	0.213272	0.242393
C27	C	-3.880261	-0.390110	-0.257090
C28	C	-3.380261	0.109890	0.242910
C29	C	-3.827668	-0.123331	-0.405935
C30	C	-3.327668	0.376669	0.094065
C31	C	-3.869199	-0.122830	-0.499716
C32	C	-3.369199	0.377170	0.000284
C33	C	-4.048011	-0.768675	-0.255208
C34	C	-3.548011	-0.268675	0.244792
C35	C	-4.001329	-0.663347	-0.255731
C36	C	-3.501329	-0.163347	0.244269
C37	C	-3.964137	-0.579396	-0.256148
C38	C	-3.464137	-0.079396	0.243852
C39	C	-3.917454	-0.474061	-0.256673
C40	C	-3.417454	0.025939	0.243327
C41	C	-4.020207	-0.120886	-0.840458
C42	C	-3.520207	0.379114	-0.340458
C43	C	-3.783922	-0.115115	-0.799519
C44	C	-3.283922	0.384885	-0.299519
C45	C	-3.740766	-0.116022	-0.702026
C46	C	-3.240766	0.383978	-0.202026
C47	C	-3.945289	-0.121850	-0.671412
C48	C	-3.445289	0.378150	-0.171412
C49	C	-4.116090	-0.213696	-0.722206
C50	C	-3.616090	0.286304	-0.222206
C51	C	-4.157932	-0.213177	-0.819755
C52	C	-3.657932	0.286823	-0.319755
C53	C	-4.071461	-0.035544	-0.794459
C54	C	-3.571461	0.464456	-0.294459
C55	C	-4.023502	-0.034817	-0.696615
C56	C	-3.523502	0.465183	-0.196615
C57	C	-3.902961	-0.122398	-0.575875
C58	C	-3.402961	0.377602	-0.075875
C59	C	-4.062543	-0.120344	-0.935996
C60	C	-3.562543	0.379656	-0.435996
C61	C	-4.151827	0.043986	-0.254265
C62	C	-3.651827	0.543986	0.245735
C63	C	-4.085234	0.147367	-0.254788
C64	C	-3.585234	0.647367	0.245212
C65	C	-4.158588	-0.119409	-0.105935
C66	C	-3.658588	0.380591	0.394065
C67	C	-4.096296	-0.119906	-0.012154
C68	C	-3.596296	0.380094	0.487846
H69	H	-3.611559	-0.049985	-0.666881
H70	H	-3.111559	0.450015	-0.166881
H71	H	-4.063307	-0.278319	-0.705512
H72	H	-3.563307	0.221681	-0.205512
C73	C	-4.304095	-0.040145	-0.830701
C74	C	-3.804095	0.459855	-0.330701
N75	N	-4.479313	-0.043617	-0.858004
N76	N	-3.979313	0.456383	-0.358004
H77	H	-4.124437	-0.277783	-0.850254
H78	H	-3.624437	0.222217	-0.350254
H79	H	-3.741347	-0.176430	-0.831143
H80	H	-3.241347	0.323570	-0.331143
C81	C	-4.222263	-0.033204	-0.667673
C82	C	-3.722263	0.466796	-0.167673
N83	N	-4.371930	-0.031974	-0.645844
N84	N	-3.871930	0.468026	-0.145844
C85	C	-3.944117	0.058471	-0.812342
C86	C	-3.444117	0.558471	-0.312342
N87	N	-3.848181	0.129280	-0.825812
N88	N	-3.348181	0.629280	-0.325812
C89	C	-3.856207	0.056962	-0.650006
C90	C	-3.356207	0.556962	-0.150006
N91	N	-3.730196	0.126089	-0.614895
N92	N	-3.230196	0.626089	-0.114895
H93	H	-4.332098	-0.221232	-0.847761
H94	H	-3.832098	0.278768	-0.347761
H95	H	-4.269557	-0.221282	-0.703307
H96	H	-3.769557	0.278718	-0.203307
H97	H	-3.676884	-0.178044	-0.685845
H98	H	-3.176884	0.321956	-0.185845
H99	H	-3.675062	-0.048766	-0.811761
H100	H	-3.175062	0.451234	-0.311761
