data_functionalizedCrystal
_audit_creation_method	'MofGen! by Chris Wilmer'
_symmetry_space_group_name_H-M	'P1'
_symmetry_Int_Tables_number	1
_symmetry_cell_setting	triclinic
loop_
_symmetry_equiv_pos_as_xyz
  x,y,z
_cell_length_a	8.597340
_cell_length_b	14.044220
_cell_length_c	7.088638
_cell_angle_alpha	96.779180
_cell_angle_beta	91.327853
_cell_angle_gamma	89.223217
loop_
_atom_site_label
_atom_site_type_symbol
_atom_site_fract_x
_atom_site_fract_y
_atom_site_fract_z
O1	O	2.085098	0.152801	0.184491
O2	O	1.636556	0.159206	0.110595
O3	O	1.854093	0.017890	0.146452
O4	O	1.867561	0.294118	0.148633
O5	O	1.824985	0.036803	0.459644
O6	O	1.607449	0.178119	0.423787
O7	O	2.055990	0.171714	0.497683
Cu8	Cu	1.829062	0.176643	0.489332
Cu9	Cu	1.863485	0.154277	0.118946
O10	O	1.838454	0.313030	0.461826
C11	C	1.564252	0.166921	0.257677
C12	C	1.392173	0.161720	0.229329
C13	C	1.833645	-0.008082	0.302078
C14	C	1.816063	-0.113648	0.299184
C15	C	1.783923	-0.306933	0.293862
C16	C	1.908618	-0.362153	0.314399
C17	C	1.890735	-0.469704	0.311437
C18	C	1.801804	-0.199373	0.296823
C19	C	2.128295	0.163999	0.350596
C20	C	2.300375	0.169199	0.378933
C21	C	1.858902	0.339002	0.306196
C22	C	1.876485	0.444567	0.309077
N23	N	1.804862	0.192374	0.749843
N24	N	1.887696	0.138539	-0.141563
H25	H	1.339113	0.151336	0.079542
H26	H	2.028815	-0.328663	0.334072
H27	H	1.663748	-0.340429	0.274059
H28	H	1.719048	0.248152	0.817388
C29	C	1.961312	-0.027896	0.808768
C30	C	2.003526	0.063192	0.767346
H31	H	2.032810	-0.074420	0.752548
H32	H	1.962953	-0.028926	0.942535
H33	H	1.859547	-0.042122	0.759280
H34	H	2.105287	0.077421	0.816846
H35	H	2.001900	0.064225	0.633551
H36	H	1.353429	0.179576	0.528710
