data_functionalizedCrystal
_audit_creation_method	'MofGen! by Chris Wilmer'
_symmetry_space_group_name_H-M	'P1'
_symmetry_Int_Tables_number	1
_symmetry_cell_setting	triclinic
loop_
_symmetry_equiv_pos_as_xyz
  x,y,z
_cell_length_a	12.759401
_cell_length_b	18.101397
_cell_length_c	18.101390
_cell_angle_alpha	90.035542
_cell_angle_beta	90.018831
_cell_angle_gamma	90.022198
loop_
_atom_site_label
_atom_site_type_symbol
_atom_site_fract_x
_atom_site_fract_y
_atom_site_fract_z
Zn1	Zn	1.606189	-0.294767	0.418710
Zn2	Zn	1.606073	-0.418624	0.294863
Zn3	Zn	1.430498	-0.294805	0.294883
Zn4	Zn	1.430462	-0.418575	0.418664
O5	O	1.518306	-0.356693	0.356780
O6	O	1.753195	-0.311202	0.402292
O7	O	1.582749	-0.402235	0.191232
O8	O	1.453868	-0.191167	0.311337
O9	O	1.753109	-0.402199	0.311302
O10	O	1.582947	-0.191139	0.402312
O11	O	1.453755	-0.311266	0.191248
O12	O	1.283472	-0.311218	0.311293
O13	O	1.453806	-0.402115	0.522303
O14	O	1.283446	-0.402152	0.402234
O15	O	1.582912	-0.311154	0.522337
O16	O	1.582714	-0.522250	0.311257
O17	O	1.453693	-0.522214	0.402213
C18	C	1.245338	-0.356684	0.356761
C19	C	1.128562	-0.356699	0.356770
C20	C	0.963988	-0.404119	0.404074
C21	C	1.073712	-0.404118	0.404054
C22	C	1.073681	-0.309283	0.309499
C23	C	0.963959	-0.309288	0.309516
C24	C	0.964007	-0.458869	0.458667
C25	C	1.073732	-0.458868	0.458646
C26	C	1.518216	-0.549103	0.356744
C27	C	1.518273	-0.631417	0.356753
C28	C	1.518407	-0.930508	0.356821
C29	C	1.599357	-0.899175	0.299440
C30	C	1.599638	-0.813556	0.299589
C31	C	1.518341	-0.782126	0.356787
C32	C	1.548355	-0.813126	0.434847
C33	C	1.548981	-0.898771	0.434535
C34	C	1.407228	-0.899021	0.336817
C35	C	1.407777	-0.813372	0.335074
C36	C	1.518302	-0.698266	0.356772
C37	C	1.518449	-1.014368	0.356841
C38	C	1.792339	-0.356702	0.356799
C39	C	1.909116	-0.356705	0.356808
C40	C	1.518368	-0.356625	0.549942
C41	C	1.518395	-0.356596	0.632256
C42	C	1.518424	-0.163531	0.356832
C43	C	1.518475	-0.081217	0.356854
C44	C	1.518304	-0.356707	0.164369
C45	C	1.518481	-0.356527	0.082056
C46	C	1.518451	-0.356550	0.931347
C47	C	1.599949	-0.299521	0.900043
C48	C	1.599695	-0.299310	0.814425
C49	C	1.518424	-0.356573	0.782965
C50	C	1.407738	-0.335372	0.814040
C51	C	1.408226	-0.334945	0.899685
C52	C	1.546665	-0.434927	0.899755
C53	C	1.549094	-0.434527	0.814105
C54	C	1.518402	-0.356587	0.699105
C55	C	1.518466	-0.356534	1.015207
H56	H	1.118348	-0.270678	0.270995
O57	O	1.707853	-0.927600	0.316776
H58	H	1.737982	-0.959461	0.268875
O59	O	1.708723	-0.786329	0.317121
H60	H	1.761479	-0.834335	0.325534
H61	H	0.930027	-0.438391	0.513192
H62	H	1.383388	-0.278716	0.792605
O63	O	1.118770	-0.531003	0.431301
H64	H	1.053915	-0.569251	0.416824
O65	O	1.476180	-0.493836	0.785742
H66	H	1.500030	-0.548105	0.808769
O67	O	1.377789	-0.786543	0.258982
H68	H	1.304121	-0.754142	0.262492
H69	H	0.919286	-0.270688	0.271019
H70	H	1.581018	-0.241247	0.793955
H71	H	1.630548	-0.450514	0.793794
O72	O	1.323575	-0.785044	0.386373
H73	H	1.359377	-0.748092	0.428336
H74	H	1.630249	-0.918686	0.451480
O75	O	1.709025	-0.316885	0.927333
H76	H	1.765062	-0.275919	0.904507
O77	O	0.924508	-0.534816	0.438176
H78	H	0.953558	-0.575709	0.478996
O79	O	1.325112	-0.388688	0.787036
H80	H	1.344946	-0.445364	0.805759
H81	H	1.487311	-0.477419	0.920004
H82	H	1.492604	-0.919495	0.478761
H83	H	1.346914	-0.919285	0.378609
H84	H	1.580860	-0.792600	0.241708
O85	O	1.113262	-0.438599	0.534644
H86	H	1.045598	-0.428669	0.571865
H87	H	1.580807	-0.919823	0.241386
H88	H	1.491198	-0.792764	0.478750
O89	O	1.654804	-0.784647	0.457677
H90	H	1.686503	-0.748424	0.413557
H91	H	1.379923	-0.920687	0.280882
O92	O	1.651741	-0.460487	0.928365
H93	H	1.713246	-0.420660	0.911213
O94	O	1.708414	-0.316879	0.786586
H95	H	1.761648	-0.325600	0.834296
H96	H	1.581508	-0.241782	0.921584
H97	H	1.384311	-0.277652	0.919679
H98	H	1.345438	-0.374675	0.920392
