data_functionalizedCrystal
_audit_creation_method	'MofGen! by Chris Wilmer'
_symmetry_space_group_name_H-M	'P1'
_symmetry_Int_Tables_number	1
_symmetry_cell_setting	triclinic
loop_
_symmetry_equiv_pos_as_xyz
  x,y,z
_cell_length_a	13.032721
_cell_length_b	19.077241
_cell_length_c	19.076919
_cell_angle_alpha	90.113904
_cell_angle_beta	99.138159
_cell_angle_gamma	80.235812
loop_
_atom_site_label
_atom_site_type_symbol
_atom_site_fract_x
_atom_site_fract_y
_atom_site_fract_z
Zn1	Zn	-0.383275	-1.024257	-0.471971
Zn2	Zn	-0.552470	-1.013873	-0.368328
Zn3	Zn	-0.382719	-0.911522	-0.349703
Zn4	Zn	-0.566552	-0.890442	-0.482218
O5	O	-0.471254	-0.960024	-0.418055
O6	O	-0.400058	-1.121716	-0.461729
O7	O	-0.523826	-1.004773	-0.267025
O8	O	-0.235048	-0.939645	-0.353839
O9	O	-0.524366	-1.114087	-0.385583
O10	O	-0.235457	-1.022470	-0.443669
O11	O	-0.399110	-0.929576	-0.253341
O12	O	-0.412765	-0.809890	-0.363775
O13	O	-0.548367	-0.903717	-0.579691
O14	O	-0.547827	-0.794402	-0.461133
O15	O	-0.413713	-1.002030	-0.572163
O16	O	-0.702082	-0.984332	-0.395519
O17	O	-0.712428	-0.893648	-0.479193
C18	C	-0.481765	-0.776519	-0.411545
C19	C	-0.486288	-0.698012	-0.408779
C20	C	-0.423804	-0.665089	-0.447202
C21	C	-0.428048	-0.591323	-0.444596
C22	C	-0.494783	-0.550482	-0.403571
C23	C	-0.557269	-0.583410	-0.365143
C24	C	-0.553018	-0.657174	-0.367745
C25	C	-0.514418	-0.329445	-0.391526
C26	C	-0.518666	-0.255675	-0.388928
C27	C	-0.389444	-0.263594	-0.468381
C28	C	-0.385204	-0.337359	-0.470983
C29	C	-0.447686	-0.370281	-0.432552
N30	N	-0.499125	-0.475082	-0.400909
N31	N	-0.443337	-0.445681	-0.435211
C32	C	-0.745564	-0.935594	-0.440505
C33	C	-0.862912	-0.925207	-0.450135
C34	C	-0.910076	-0.965481	-0.413062
C35	C	-1.031362	-0.954746	-0.423014
C36	C	-0.195873	-0.984567	-0.395533
C37	C	-0.078522	-0.995026	-0.385936
C38	C	-0.482673	-0.951680	-0.602270
C39	C	-0.487539	-0.948125	-0.680771
C40	C	-0.460697	-0.144246	-0.424585
C41	C	-0.456183	-0.222753	-0.427352
C42	C	-0.419721	-0.997638	-0.713733
C43	C	-0.424290	-0.994289	-0.787493
C44	C	-0.496682	-0.941429	-0.828290
C45	C	-0.564502	-0.891911	-0.795323
C46	C	-0.559928	-0.895257	-0.721564
C47	C	-0.517876	-0.925929	-1.049305
C48	C	-0.522447	-0.922588	-1.123070
C49	C	-0.382233	-1.024966	-1.115234
C50	C	-0.377669	-1.028310	-1.041475
C51	C	-0.445486	-0.978789	-1.008514
N52	N	-0.501356	-0.938006	-0.903684
N53	N	-0.440806	-0.982210	-0.933120
C54	C	-0.459801	-0.968382	-0.234552
C55	C	-0.454630	-0.972101	-0.156031
H56	H	-0.330866	-0.370608	-0.504393
Br57	Br	-0.996182	-1.065753	-0.320753
H58	H	-0.912325	-0.882782	-0.489246
H59	H	-1.080771	-0.912318	-0.462128
Br60	Br	-0.599187	-0.374119	-0.339349
Br61	Br	-0.620697	-0.850842	-1.178437
Br62	Br	-0.333239	-0.720509	-0.502888
Br63	Br	-0.279423	-1.100053	-0.986112
Br64	Br	-0.321478	-1.069385	-0.658373
H65	H	-0.369068	-1.034610	-0.814327
Br66	Br	-0.647829	-0.527984	-0.309459
Br67	Br	-0.290200	-1.092167	-1.159970
Br68	Br	-0.343246	-0.546645	-0.496745
H69	H	-0.573112	-0.885615	-1.022479
H70	H	-0.623442	-0.848869	-0.828545
Br71	Br	-0.609272	-0.200243	-0.333270
Br72	Br	-0.651963	-0.828054	-0.676828
Br73	Br	-0.304651	-0.218911	-0.520533
H74	H	-0.603898	-0.683979	-0.336457
H75	H	-0.860666	-1.007912	-0.373956
