data_functionalizedCrystal
_audit_creation_method	'MofGen! by Chris Wilmer'
_symmetry_space_group_name_H-M	'P1'
_symmetry_Int_Tables_number	1
_symmetry_cell_setting	triclinic
loop_
_symmetry_equiv_pos_as_xyz
  x,y,z
_cell_length_a	6.817900
_cell_length_b	7.076028
_cell_length_c	19.275350
_cell_angle_alpha	87.386712
_cell_angle_beta	109.076023
_cell_angle_gamma	117.700652
loop_
_atom_site_label
_atom_site_type_symbol
_atom_site_fract_x
_atom_site_fract_y
_atom_site_fract_z
V1	V	-4.224910	-0.659331	-0.100129
O2	O	-4.182330	-0.652684	0.006012
O3	O	-4.200387	-0.649143	-0.199693
O4	O	-4.251379	-0.949478	-0.098062
O5	O	-4.130984	-0.350269	-0.096322
V6	V	-4.695743	-0.623054	-0.087495
O7	O	-4.514005	-0.738906	-0.127841
O8	O	-4.856844	-0.543479	-0.059783
O9	O	-4.497059	-0.633242	0.012069
O10	O	-4.855719	-0.629701	-0.193636
O11	O	-4.907065	-0.932116	-0.091301
O12	O	-4.446067	-0.332907	-0.089562
C13	C	-4.048773	-0.637276	-0.223980
C14	C	-4.110509	-0.630880	-0.305372
C15	C	-4.312028	-0.645105	0.036353
C16	C	-4.228002	-0.651666	0.119272
C17	C	-4.246953	-0.261992	-0.093285
C18	C	-4.120783	-0.020374	-0.094335
C19	C	-4.160633	-0.625666	-0.371470
C20	C	-4.223539	-0.619136	-0.454393
V21	V	-4.345786	-0.642823	0.254124
O22	O	-4.270184	-0.631009	0.362115
O23	O	-4.356851	-0.644180	0.150445
O24	O	-4.407228	-0.944600	0.252046
O25	O	-4.219458	-0.328509	0.259810
V26	V	-4.757845	-0.548434	0.287418
O27	O	-4.624539	-0.695230	0.236063
O28	O	-4.881860	-0.443360	0.324201
O29	O	-4.547088	-0.573189	0.381815
O30	O	-4.938476	-0.546514	0.184310
O31	O	-4.989202	-0.849014	0.286614
O32	O	-4.496711	-0.272769	0.280214
C33	C	-4.374731	-0.605063	0.398988
C34	C	-4.273693	-0.613932	0.479514
C35	C	-4.310456	-0.221846	0.269387
C36	C	-4.165901	0.017336	0.267480
