data_functionalizedCrystal
_audit_creation_method	'MofGen! by Chris Wilmer'
_symmetry_space_group_name_H-M	'P1'
_symmetry_Int_Tables_number	1
_symmetry_cell_setting	triclinic
loop_
_symmetry_equiv_pos_as_xyz
  x,y,z
_cell_length_a	13.635800
_cell_length_b	7.190410
_cell_length_c	7.190334
_cell_angle_alpha	82.316864
_cell_angle_beta	60.611776
_cell_angle_gamma	60.610675
loop_
_atom_site_label
_atom_site_type_symbol
_atom_site_fract_x
_atom_site_fract_y
_atom_site_fract_z
V1	V	-2.154323	0.291699	0.663495
V2	V	-1.654323	0.791699	1.163495
O3	O	-2.100792	-0.017518	0.652432
O4	O	-1.600792	0.482482	1.152432
O5	O	-2.172018	0.581756	0.657450
O6	O	-1.672018	1.081756	1.157450
O7	O	-2.172021	0.285676	0.953556
O8	O	-1.672021	0.785676	1.453556
O9	O	-2.100789	0.280612	0.354277
O10	O	-1.600789	0.780612	0.854277
V11	V	-2.385280	0.254894	0.626693
V12	V	-1.885280	0.754894	1.126693
O13	O	-2.308654	0.372432	0.744223
O14	O	-1.808654	0.872432	1.244223
O15	O	-2.456048	0.174161	0.545965
O16	O	-1.956048	0.674161	1.045965
O17	O	-2.255982	-0.035163	0.632738
O18	O	-1.755982	0.464837	1.132738
O19	O	-2.497510	0.564111	0.637757
O20	O	-1.997510	1.064111	1.137757
O21	O	-2.497513	0.265981	0.935912
O22	O	-1.997513	0.765981	1.435912
O23	O	-2.255979	0.260917	0.336633
O24	O	-1.755979	0.760917	0.836633
V25	V	-1.885273	0.254894	0.626693
V26	V	-1.385273	0.754894	1.126693
O27	O	-1.938807	0.265981	0.935912
O28	O	-1.438807	0.765981	1.435912
O29	O	-1.867575	0.260917	0.336633
O30	O	-1.367575	0.760917	0.836633
O31	O	-1.867578	-0.035163	0.632738
O32	O	-1.367578	0.464837	1.132738
O33	O	-1.938804	0.564111	0.637757
O34	O	-1.438804	1.064111	1.137757
V35	V	-1.654316	0.291699	0.663495
V36	V	-1.154316	0.791699	1.163495
O37	O	-1.730942	0.174161	0.545965
O38	O	-1.230942	0.674161	1.045965
O39	O	-1.583548	0.372432	0.744223
O40	O	-1.083548	0.872432	1.244223
O41	O	-1.783617	0.285676	0.953556
O42	O	-1.283617	0.785676	1.453556
O43	O	-1.542083	0.280612	0.354277
O44	O	-1.042083	0.780612	0.854277
O45	O	-1.542086	-0.017518	0.652432
O46	O	-1.042086	0.482482	1.152432
O47	O	-1.783614	0.581756	0.657450
O48	O	-1.283614	1.081756	1.157450
C49	C	-2.159800	0.894087	0.643565
C50	C	-1.659800	1.394087	1.143565
C51	C	-2.103351	0.652508	0.646593
C52	C	-1.603351	1.152508	1.146593
C53	C	-2.103362	0.274824	1.024304
C54	C	-1.603362	0.774824	1.524304
C55	C	-2.159791	0.271759	1.265877
C56	C	-1.659791	0.771759	1.765877
C57	C	-1.936229	0.271762	0.265871
C58	C	-1.436229	0.771762	0.765871
C59	C	-1.879798	0.274816	0.024297
C60	C	-1.379798	0.774816	0.524297
C61	C	-1.936238	-0.105909	0.643597
C62	C	-1.436238	0.394091	1.143597
C63	C	-1.879813	-0.347479	0.646685
C64	C	-1.379813	0.152521	1.146685
