data_functionalizedCrystal
_audit_creation_method	'MofGen! by Chris Wilmer'
_symmetry_space_group_name_H-M	'P1'
_symmetry_Int_Tables_number	1
_symmetry_cell_setting	triclinic
loop_
_symmetry_equiv_pos_as_xyz
  x,y,z
_cell_length_a	18.215405
_cell_length_b	17.077404
_cell_length_c	17.077395
_cell_angle_alpha	90.015839
_cell_angle_beta	89.969669
_cell_angle_gamma	89.978046
loop_
_atom_site_label
_atom_site_type_symbol
_atom_site_fract_x
_atom_site_fract_y
_atom_site_fract_z
Zn1	Zn	-0.293051	-1.200014	-0.443830
Zn2	Zn	0.206949	-0.700014	0.056170
Zn3	Zn	-0.416122	-1.199925	-0.312557
Zn4	Zn	0.083878	-0.699925	0.187443
Zn5	Zn	-0.293067	-1.068754	-0.312577
Zn6	Zn	0.206933	-0.568754	0.187423
Zn7	Zn	-0.416074	-1.068709	-0.443780
Zn8	Zn	0.083926	-0.568709	0.056220
O9	O	-0.354579	-1.134351	-0.378186
O10	O	0.145421	-0.634351	0.121814
O11	O	-0.309390	-1.309849	-0.426428
O12	O	0.190610	-0.809849	0.073572
O13	O	-0.399825	-1.182507	-0.202712
O14	O	0.100175	-0.682507	0.297288
O15	O	-0.190081	-1.086222	-0.330018
O16	O	0.309919	-0.586222	0.169982
O17	O	-0.399809	-1.309784	-0.329983
O18	O	0.100191	-0.809784	0.170017
O19	O	-0.190069	-1.182658	-0.426448
O20	O	0.309931	-0.682658	0.073552
O21	O	-0.309418	-1.086136	-0.202728
O22	O	0.190582	-0.586136	0.297272
O23	O	-0.309371	-0.958902	-0.329969
O24	O	0.190629	-0.458902	0.170031
O25	O	-0.399728	-1.086145	-0.553633
O26	O	0.100272	-0.586145	-0.053633
O27	O	-0.399744	-0.958868	-0.426363
O28	O	0.100256	-0.458868	0.073637
O29	O	-0.309343	-1.182614	-0.553670
O30	O	0.190657	-0.682614	-0.053670
O31	O	-0.519100	-1.182463	-0.329934
O32	O	-0.019100	-0.682463	0.170066
O33	O	-0.519065	-1.086059	-0.426343
O34	O	-0.019065	-0.586059	0.073657
C35	C	-0.354555	-0.930403	-0.378164
C36	C	0.145445	-0.430403	0.121836
C37	C	-0.354562	-0.843153	-0.378173
C38	C	0.145438	-0.343153	0.121827
C39	C	-0.307564	-0.802197	-0.428468
C40	C	0.192436	-0.302197	0.071532
C41	C	-0.307567	-0.720217	-0.428469
C42	C	0.192433	-0.220217	0.071531
C43	C	-0.354574	-0.679194	-0.378179
C44	C	0.145426	-0.179194	0.121821
C45	C	-0.401574	-0.720155	-0.327879
C46	C	0.098426	-0.220155	0.172121
C47	C	-0.401566	-0.802134	-0.327874
C48	C	0.098434	-0.302134	0.172126
C49	C	-0.401588	-0.549285	-0.327894
C50	C	0.098412	-0.049285	0.172106
C51	C	-0.401597	-0.467300	-0.327900
C52	C	0.098403	0.032700	0.172100
C53	C	-0.307589	-0.467368	-0.428490
C54	C	0.192411	0.032632	0.071510
C55	C	-0.307582	-0.549347	-0.428485
C56	C	0.192418	-0.049347	0.071515
C57	C	-0.354583	-0.590303	-0.378185
C58	C	0.145417	-0.090303	0.121815
C59	C	-0.545785	-1.134268	-0.378148
C60	C	-0.045785	-0.634268	0.121852
C61	C	-0.627584	-1.134304	-0.378158
C62	C	-0.127584	-0.634304	0.121842
C63	C	-0.815771	-1.184619	-0.328050
C64	C	-0.315771	-0.684619	0.171950
C65	C	-0.892630	-1.184655	-0.328069
C66	C	-0.392630	-0.684655	0.171931
C67	C	-0.892634	-1.084182	-0.428378
C68	C	-0.392634	-0.584182	0.071622
C69	C	-0.815776	-1.084152	-0.428362
C70	C	-0.315776	-0.584152	0.071638
C71	C	-0.777347	-1.134369	-0.378194
C72	C	-0.277347	-0.634369	0.121806
C73	C	-0.931063	-1.134435	-0.378229
C74	C	-0.431063	-0.634435	0.121771
C75	C	-1.014397	-1.134472	-0.378250
C76	C	-0.514397	-0.634472	0.121750
C77	C	-0.694008	-1.134333	-0.378174
C78	C	-0.194008	-0.634333	0.121826
C79	C	-0.162626	-1.134455	-0.378241
C80	C	0.337374	-0.634455	0.121759
C81	C	-0.080827	-1.134500	-0.378265
C82	C	0.419173	-0.634500	0.121735
C83	C	-0.354529	-1.134384	-0.582930
C84	C	0.145471	-0.634384	-0.082930
C85	C	-0.354507	-1.134399	-0.670180
C86	C	0.145493	-0.634399	-0.170180
C87	C	-0.354599	-0.339095	-0.378203
C88	C	0.145401	0.160905	0.121797
C89	C	-0.354599	-0.426345	-0.378195
C90	C	0.145401	0.073655	0.121805
C91	C	-0.307344	-1.184717	-1.046015
C92	C	0.192656	-0.684717	-0.546015
C93	C	-0.307370	-1.184701	-0.964035
C94	C	0.192630	-0.684701	-0.464035
C95	C	-0.354438	-1.134463	-0.923029
C96	C	0.145562	-0.634463	-0.423029
C97	C	-0.401488	-1.084244	-0.964009
C98	C	0.098512	-0.584244	-0.464009
C99	C	-0.401465	-1.084264	-1.045988
C100	C	0.098535	-0.584264	-0.545988
C101	C	-0.401530	-1.084203	-0.793138
C102	C	0.098470	-0.584203	-0.293138
C103	C	-0.401552	-1.084181	-0.711154
C104	C	0.098448	-0.584181	-0.211154
C105	C	-0.307435	-1.184640	-0.711186
C106	C	0.192565	-0.684640	-0.211186
C107	C	-0.307413	-1.184660	-0.793165
C108	C	0.192587	-0.684660	-0.293165
C109	C	-0.354462	-1.134440	-0.834138
C110	C	0.145538	-0.634440	-0.334138
C111	C	-0.354575	-1.134362	-0.174238
C112	C	0.145425	-0.634362	0.325762
C113	C	-0.354389	-1.134500	-0.086989
C114	C	0.145611	-0.634500	0.413011
H115	H	-0.439860	-0.582628	-0.286933
H116	H	0.060140	-0.082628	0.213067
H117	H	-0.439862	-1.043255	-0.677769
H118	H	0.060138	-0.543255	-0.177769
C119	C	-0.453282	-0.675035	-0.272560
C120	C	0.046718	-0.175035	0.227440
H121	H	-0.481267	-0.711170	-0.242601
H122	H	0.018733	-0.211170	0.257399
H123	H	-0.485387	-0.643056	-0.302527
H124	H	0.014613	-0.143056	0.197473
H125	H	-0.425088	-0.643052	-0.238412
H126	H	0.074912	-0.143052	0.261588
H127	H	-0.269298	-0.686875	-0.469426
H128	H	0.230702	-0.186875	0.030574
C129	C	-0.453299	-0.422175	-0.272579
C130	C	0.046701	0.077825	0.227421
H131	H	-0.481283	-0.458307	-0.242614
H132	H	0.018717	0.041693	0.257386
H133	H	-0.485405	-0.390197	-0.302545
H134	H	0.014595	0.109803	0.197455
H135	H	-0.425100	-0.390192	-0.238437
H136	H	0.074900	0.109808	0.261563
C137	C	-0.773498	-1.239855	-0.272871
C138	C	-0.273498	-0.739855	0.227129
H139	H	-0.722221	-1.232635	-0.280035
H140	H	-0.222221	-0.732635	0.219965
H141	H	-0.786047	-1.292595	-0.284408
H142	H	-0.286047	-0.792595	0.215592
H143	H	-0.786141	-1.228400	-0.220119
H144	H	-0.286141	-0.728400	0.279881
H145	H	-0.439845	-1.043310	-0.826497
H146	H	0.060155	-0.543310	-0.326497
H147	H	-0.439814	-1.043343	-0.930615
H148	H	0.060186	-0.543343	-0.430615
C149	C	-0.934894	-1.239926	-0.272908
C150	C	-0.434894	-0.739926	0.227092
H151	H	-0.900997	-1.269823	-0.243025
H152	H	-0.400997	-0.769823	0.256975
H153	H	-0.964831	-1.274123	-0.302971
H154	H	-0.464831	-0.774123	0.197029
H155	H	-0.964920	-1.209928	-0.238682
H156	H	-0.464920	-0.709928	0.261318
C157	C	-0.255859	-0.847320	-0.483788
C158	C	0.244141	-0.347320	0.016212
H159	H	-0.262589	-0.902010	-0.476589
H160	H	0.237411	-0.402010	0.023411
H161	H	-0.206400	-0.833896	-0.472399
H162	H	0.293600	-0.333896	0.027601
H163	H	-0.266701	-0.833897	-0.536512
H164	H	0.233299	-0.333897	-0.036512
C165	C	-0.453263	-0.847188	-0.272551
C166	C	0.046737	-0.347188	0.227449
H167	H	-0.446521	-0.901887	-0.279745
H168	H	0.053479	-0.401887	0.220255
H169	H	-0.502726	-0.833744	-0.283940
H170	H	-0.002726	-0.333744	0.216060
H171	H	-0.442423	-0.833737	-0.219830
H172	H	0.057577	-0.333737	0.280170
C173	C	-0.934908	-1.028940	-0.483550
C174	C	-0.434908	-0.528940	0.016450
H175	H	-0.986185	-1.036148	-0.476372
H176	H	-0.486185	-0.536148	0.023628
H177	H	-0.922271	-1.040382	-0.536302
H178	H	-0.422271	-0.540382	-0.036302
H179	H	-0.922355	-0.976199	-0.472000
H180	H	-0.422355	-0.476199	0.028000
C181	C	-0.773507	-1.028872	-0.483522
C182	C	-0.273507	-0.528872	0.016478
H183	H	-0.807400	-0.998961	-0.513394
H184	H	-0.307400	-0.498961	-0.013394
H185	H	-0.743480	-1.058866	-0.517745
H186	H	-0.243480	-0.558866	-0.017745
H187	H	-0.743570	-0.994677	-0.453449
H188	H	-0.243570	-0.494677	0.046551
C189	C	-0.255571	-1.239981	-1.091114
C190	C	0.244429	-0.739981	-0.591114
H191	H	-0.227562	-1.269892	-1.054967
H192	H	0.272438	-0.769892	-0.554967
H193	H	-0.223490	-1.209985	-1.123103
H194	H	0.276510	-0.709985	-0.623103
H195	H	-0.283726	-1.274177	-1.123085
H196	H	0.216274	-0.774177	-0.623085
H197	H	-0.269063	-1.225595	-0.930678
H198	H	0.230937	-0.725595	-0.430678
H199	H	-0.439775	-1.043373	-1.079347
H200	H	0.060225	-0.543373	-0.579347
H201	H	-0.269124	-1.225530	-0.677821
H202	H	0.230876	-0.725530	-0.177821
C203	C	-0.255875	-0.594472	-0.483801
C204	C	0.244125	-0.094472	0.016199
H205	H	-0.227879	-0.558340	-0.513753
H206	H	0.272121	-0.058340	-0.013753
H207	H	-0.284065	-0.626457	-0.517945
H208	H	0.215935	-0.126457	-0.017945
H209	H	-0.223769	-0.626449	-0.453825
H210	H	0.276231	-0.126449	0.046175
C211	C	-0.255887	-0.422321	-0.483817
C212	C	0.244113	0.077679	0.016183
H213	H	-0.262616	-0.367622	-0.476613
H214	H	0.237384	0.132378	0.023387
H215	H	-0.266723	-0.435770	-0.536536
H216	H	0.233277	0.064230	-0.036536
H217	H	-0.206422	-0.435769	-0.472423
H218	H	0.293578	0.064231	0.027577
C219	C	-0.255640	-1.239921	-0.838269
C220	C	0.244360	-0.739921	-0.338269
H221	H	-0.227627	-1.269833	-0.802127
H222	H	0.272373	-0.769833	-0.302127
H223	H	-0.223563	-1.209921	-0.870259
H224	H	0.276437	-0.709921	-0.370259
H225	H	-0.283796	-1.274115	-0.870241
H226	H	0.216204	-0.774115	-0.370241
