data_functionalizedCrystal
_audit_creation_method	'MofGen! by Chris Wilmer'
_symmetry_space_group_name_H-M	'P1'
_symmetry_Int_Tables_number	1
_symmetry_cell_setting	triclinic
loop_
_symmetry_equiv_pos_as_xyz
  x,y,z
_cell_length_a	18.215407
_cell_length_b	13.897448
_cell_length_c	18.215399
_cell_angle_alpha	90.026328
_cell_angle_beta	90.019833
_cell_angle_gamma	90.018140
loop_
_atom_site_label
_atom_site_type_symbol
_atom_site_fract_x
_atom_site_fract_y
_atom_site_fract_z
Zn1	Zn	1.125109	-0.384013	0.416124
Zn2	Zn	1.625109	0.115987	0.916124
Zn3	Zn	1.125033	-0.545323	0.293061
Zn4	Zn	1.625033	-0.045323	0.793061
Zn5	Zn	1.002041	-0.384045	0.293072
Zn6	Zn	1.502041	0.115955	0.793072
Zn7	Zn	1.002023	-0.545269	0.416086
Zn8	Zn	1.502023	-0.045269	0.916086
O9	O	1.063551	-0.464663	0.354586
O10	O	1.563551	0.035337	0.854586
O11	O	1.228083	-0.405421	0.399811
O12	O	1.728083	0.094579	0.899811
O13	O	1.108693	-0.523965	0.190078
O14	O	1.608693	-0.023965	0.690078
O15	O	1.018406	-0.249059	0.309415
O16	O	1.518406	0.250941	0.809415
O17	O	1.228027	-0.523934	0.309398
O18	O	1.728027	-0.023934	0.809398
O19	O	1.108823	-0.249036	0.399821
O20	O	1.608823	0.250964	0.899821
O21	O	1.018332	-0.405474	0.190086
O22	O	1.518332	0.094526	0.690086
O23	O	0.899055	-0.405422	0.309378
O24	O	1.399055	0.094578	0.809378
O25	O	1.018374	-0.523843	0.519076
O26	O	1.518374	-0.023843	1.019076
O27	O	0.899041	-0.523873	0.399757
O28	O	1.399041	-0.023873	0.899757
O29	O	1.108805	-0.405369	0.519103
O30	O	1.608805	0.094631	1.019103
O31	O	1.108675	-0.680297	0.309361
O32	O	1.608675	-0.180297	0.809361
O33	O	1.018300	-0.680258	0.399747
O34	O	1.518300	-0.180258	0.899747
C35	C	0.872345	-0.464646	0.354565
C36	C	1.372345	0.035354	0.854565
C37	C	0.790546	-0.464662	0.354573
C38	C	1.290546	0.035338	0.854573
C39	C	1.063498	-0.715277	0.354565
C40	C	1.563498	-0.215277	0.854565
C41	C	1.063542	-0.822491	0.354580
C42	C	1.563542	-0.322491	0.854580
C43	C	0.602364	-0.526437	0.401574
C44	C	1.102364	-0.026437	0.901574
C45	C	0.525506	-0.526440	0.401583
C46	C	1.025506	-0.026440	0.901583
C47	C	0.525490	-0.402906	0.307614
C48	C	1.025490	0.097094	0.807614
C49	C	0.602348	-0.402899	0.307609
C50	C	1.102348	0.097101	0.807609
C51	C	0.640783	-0.464670	0.354588
C52	C	1.140783	0.035330	0.854588
C53	C	0.487067	-0.464680	0.354602
C54	C	0.987067	0.035320	0.854602
C55	C	0.403733	-0.464683	0.354612
C56	C	0.903733	0.035317	0.854612
C57	C	0.724122	-0.464666	0.354579
C58	C	1.224122	0.035334	0.854579
C59	C	1.063619	-1.018786	0.354626
C60	C	1.563619	-0.518786	0.854626
C61	C	1.063574	-0.909553	0.354603
C62	C	1.563574	-0.409553	0.854603
C63	C	1.255504	-0.464680	0.354607
C64	C	1.755504	0.035320	0.854607
C65	C	1.337303	-0.464687	0.354617
C66	C	1.837303	0.035313	0.854617
C67	C	1.063596	-0.464596	0.546539
C68	C	1.563596	0.035404	1.046539
C69	C	1.063615	-0.464568	0.628338
C70	C	1.563615	0.035432	1.128338
C71	C	1.063625	-0.213070	0.354623
C72	C	1.563625	0.286930	0.854623
C73	C	1.063657	-0.105856	0.354639
C74	C	1.563657	0.394144	0.854639
C75	C	1.063549	-0.464659	0.163380
C76	C	1.563549	0.035341	0.663380
C77	C	1.063672	-0.464416	0.081581
C78	C	1.563672	0.035584	0.581581
C79	C	1.110720	-0.402821	0.816547
C80	C	1.610720	0.097179	1.316547
C81	C	1.110728	-0.402792	0.893406
C82	C	1.610728	0.097208	1.393406
C83	C	1.016563	-0.526166	0.893366
C84	C	1.516563	-0.026166	1.393366
C85	C	1.016551	-0.526188	0.816509
C86	C	1.516551	-0.026188	1.316509
C87	C	1.063634	-0.464517	0.778101
C88	C	1.563634	0.035483	1.278101
C89	C	1.063654	-0.464466	0.931818
C90	C	1.563654	0.035534	1.431818
C91	C	1.063663	-0.464436	1.015151
C92	C	1.563663	0.035564	1.515151
C93	C	1.063624	-0.464546	0.694762
C94	C	1.563624	0.035454	1.194762
H95	H	0.494229	-0.576735	0.439845
H96	H	0.994229	-0.076735	0.939845
H97	H	0.494187	-0.352616	0.269364
H98	H	0.994187	0.147384	0.769364
O99	O	1.161499	-0.336306	0.775121
O100	O	1.661499	0.163694	1.275121
H101	H	1.128570	-0.287245	0.740101
H102	H	1.628570	0.212755	1.240101
H103	H	0.978203	-0.576428	0.785205
H104	H	1.478203	-0.076428	1.285205
O105	O	0.643785	-0.336285	0.256915
O106	O	1.143785	0.163715	0.756915
H107	H	0.629050	-0.260600	0.269625
H108	H	1.129050	0.239400	0.769625
H109	H	0.978232	-0.576378	0.924647
H110	H	1.478232	-0.076378	1.424647
O111	O	0.643823	-0.593045	0.452250
O112	O	1.143823	-0.093045	0.952250
H113	H	0.604193	-0.635988	0.484930
H114	H	1.104193	-0.135988	0.984930
O115	O	1.161518	-0.336255	0.934876
O116	O	1.661518	0.163745	1.434876
H117	H	1.194257	-0.293383	0.895254
H118	H	1.694257	0.206617	1.395254
