data_functionalizedCrystal
_audit_creation_method	'MofGen! by Chris Wilmer'
_symmetry_space_group_name_H-M	'P1'
_symmetry_Int_Tables_number	1
_symmetry_cell_setting	triclinic
loop_
_symmetry_equiv_pos_as_xyz
  x,y,z
_cell_length_a	18.101398
_cell_length_b	18.101395
_cell_length_c	18.101389
_cell_angle_alpha	89.983159
_cell_angle_beta	89.990255
_cell_angle_gamma	90.026661
loop_
_atom_site_label
_atom_site_type_symbol
_atom_site_fract_x
_atom_site_fract_y
_atom_site_fract_z
Zn1	Zn	1.132121	-0.294995	-0.418559
Zn2	Zn	1.632121	0.205005	0.081441
Zn3	Zn	1.132017	-0.418821	-0.294721
Zn4	Zn	1.632017	0.081179	0.205279
Zn5	Zn	1.008280	-0.294988	-0.294751
Zn6	Zn	1.508280	0.205012	0.205249
Zn7	Zn	1.008231	-0.418790	-0.418541
Zn8	Zn	1.508231	0.081210	0.081459
O9	O	1.070162	-0.356898	-0.356643
O10	O	1.570162	0.143102	0.143357
O11	O	1.235740	-0.311437	-0.402126
O12	O	1.735740	0.188563	0.097874
O13	O	1.115580	-0.402404	-0.191092
O14	O	1.615580	0.097596	0.308908
O15	O	1.024772	-0.191356	-0.311195
O16	O	1.524772	0.308644	0.188805
O17	O	1.235663	-0.402411	-0.311143
O18	O	1.735663	0.097589	0.188857
O19	O	1.115757	-0.191361	-0.402156
O20	O	1.615757	0.308639	0.097844
O21	O	1.024671	-0.311425	-0.191114
O22	O	1.524671	0.188575	0.308886
O23	O	0.904640	-0.311395	-0.311178
O24	O	1.404640	0.188605	0.188822
O25	O	1.024688	-0.402358	-0.522176
O26	O	1.524688	0.097642	-0.022176
O27	O	0.904604	-0.402351	-0.402125
O28	O	1.404604	0.097649	0.097875
O29	O	1.115710	-0.311407	-0.522189
O30	O	1.615710	0.188593	-0.022189
O31	O	1.115532	-0.522450	-0.311125
O32	O	1.615532	-0.022450	0.188875
O33	O	1.024587	-0.522427	-0.402095
O34	O	1.524587	-0.022427	0.097905
C35	C	1.070063	-0.549309	-0.356621
C36	C	1.570063	-0.049309	0.143379
C37	C	1.070088	-0.631623	-0.356637
C38	C	1.570088	-0.131623	0.143363
C39	C	0.877751	-0.356869	-0.356653
C40	C	1.377751	0.143131	0.143347
C41	C	0.795437	-0.356875	-0.356675
C42	C	1.295437	0.143125	0.143325
C43	C	1.070251	-0.930714	-0.356676
C44	C	1.570251	-0.430714	0.143324
C45	C	1.013163	-0.899405	-0.414054
C46	C	1.513163	-0.399405	0.085946
C47	C	1.012892	-0.813787	-0.413875
C48	C	1.512892	-0.313787	0.086125
C49	C	1.070170	-0.782331	-0.356657
C50	C	1.570170	-0.282331	0.143343
C51	C	1.049041	-0.813467	-0.278611
C52	C	1.549041	-0.313467	0.221389
C53	C	1.048673	-0.899112	-0.278955
C54	C	1.548673	-0.399112	0.221045
C55	C	1.148592	-0.899067	-0.376658
C56	C	1.648592	-0.399067	0.123342
C57	C	1.148132	-0.813417	-0.378369
C58	C	1.648132	-0.313417	0.121631
C59	C	1.070126	-0.698472	-0.356642
C60	C	1.570126	-0.198472	0.143358
C61	C	1.070293	-1.014573	-0.356687
C62	C	1.570293	-0.514573	0.143313
C63	C	0.496346	-0.356918	-0.356644
C64	C	0.996346	0.143082	0.143356
C65	C	0.527674	-0.414422	-0.413583
C66	C	1.027674	0.085578	0.086417
C67	C	0.613292	-0.414242	-0.413817
C68	C	1.113292	0.085758	0.086183
C69	C	0.644729	-0.356897	-0.356660
C70	C	1.144729	0.143103	0.143340
C71	C	0.613675	-0.278899	-0.377985
C72	C	1.113675	0.221101	0.122015
C73	C	0.528029	-0.279244	-0.378390
C74	C	1.028029	0.220756	0.121610
C75	C	0.527894	-0.376725	-0.278242
C76	C	1.027894	0.123275	0.221758
C77	C	0.613544	-0.378437	-0.278661
C78	C	1.113544	0.121563	0.221339
C79	C	0.728588	-0.356881	-0.356667
C80	C	1.228588	0.143119	0.143333
C81	C	0.412487	-0.356930	-0.356639
C82	C	0.912487	0.143070	0.143361
C83	C	1.263324	-0.356928	-0.356633
C84	C	1.763324	0.143072	0.143367
C85	C	1.345638	-0.356941	-0.356629
C86	C	1.845638	0.143059	0.143371
C87	C	1.070205	-0.356880	-0.549805
C88	C	1.570205	0.143120	-0.049805
C89	C	1.070223	-0.356872	-0.632119
C90	C	1.570223	0.143128	-0.132119
C91	C	1.070282	-0.163736	-0.356681
C92	C	1.570282	0.336264	0.143319
C93	C	1.070333	-0.081422	-0.356697
C94	C	1.570333	0.418578	0.143303
C95	C	1.070266	-0.356733	-0.931210
C96	C	1.570266	0.143267	-0.431210
C97	C	1.012801	-0.413775	-0.899877
C98	C	1.512801	0.086225	-0.399877
C99	C	1.012956	-0.414040	-0.814258
C100	C	1.512956	0.085960	-0.314258
C101	C	1.070244	-0.356802	-0.782827
C102	C	1.570244	0.143198	-0.282827
C103	C	1.148270	-0.377992	-0.813914
C104	C	1.648270	0.122008	-0.313914
C105	C	1.147949	-0.378366	-0.899559
C106	C	1.647949	0.121634	-0.399559
C107	C	1.050385	-0.278374	-0.899637
C108	C	1.550385	0.221626	-0.399637
C109	C	1.048649	-0.278826	-0.813987
C110	C	1.548649	0.221174	-0.313987
C111	C	1.070236	-0.356839	-0.698968
C112	C	1.570236	0.143161	-0.198968
C113	C	1.070279	-0.356697	-1.015070
C114	C	1.570279	0.143303	-0.515070
C115	C	1.070162	-0.356864	-0.164232
C116	C	1.570162	0.143136	0.335768
C117	C	1.070287	-0.356663	-0.081919
C118	C	1.570287	0.143337	0.418081
H119	H	1.026111	-0.792735	-0.471746
H120	H	1.526111	-0.292735	0.028254
H121	H	0.633794	-0.401138	-0.471908
H122	H	1.133794	0.098862	0.028092
H123	H	0.507058	-0.472452	-0.400367
H124	H	1.007058	0.027548	0.099633
H125	H	1.026251	-0.919965	-0.472113
H126	H	1.526251	-0.419965	0.027887
N127	N	0.639003	-0.450447	-0.258498
N128	N	1.139003	0.049553	0.241502
N129	N	0.679964	-0.485813	-0.301372
N130	N	1.179964	0.014187	0.198628
H131	H	0.697949	-0.536671	-0.287134
H132	H	1.197949	-0.036671	0.212866
N133	N	0.977951	-0.786652	-0.257000
N134	N	1.477951	-0.286652	0.243000
N135	N	0.926660	-0.831126	-0.244257
N136	N	1.426660	-0.331126	0.255743
H137	H	0.876450	-0.812190	-0.228999
H138	H	1.376450	-0.312190	0.271001
H139	H	0.991229	-0.262847	-0.793669
H140	H	1.491229	0.237153	-0.293669
N141	N	0.639067	-0.223709	-0.327489
N142	N	1.139067	0.276291	0.172511
N143	N	0.619810	-0.157912	-0.335702
N144	N	1.119810	0.342088	0.164298
H145	H	0.637686	-0.118945	-0.299997
H146	H	1.137686	0.381055	0.200003
H147	H	1.089313	-0.793092	-0.234695
H148	H	1.589313	-0.293092	0.265305
H149	H	0.634287	-0.472083	-0.400452
H150	H	1.134287	0.027917	0.099548
H151	H	0.508068	-0.262443	-0.435705
H152	H	1.008068	0.237557	0.064295
H153	H	0.955448	-0.920985	-0.400987
H154	H	1.455448	-0.420985	0.099013
N155	N	0.640364	-0.329706	-0.222571
N156	N	1.140364	0.170294	0.277429
N157	N	0.621068	-0.338746	-0.156880
N158	N	1.121068	0.161254	0.343120
H159	H	0.640007	-0.304324	-0.117267
H160	H	1.140007	0.195676	0.382733
H161	H	0.954823	-0.793357	-0.400641
H162	H	1.454823	-0.293357	0.099359
H163	H	1.192236	-0.337751	-0.793556
H164	H	1.692236	0.162249	-0.293556
H165	H	0.991406	-0.919148	-0.262027
H166	H	1.491406	-0.419148	0.237973
H167	H	0.994478	-0.259069	-0.921237
H168	H	1.494478	0.240931	-0.421237
H169	H	0.955097	-0.400779	-0.793240
H170	H	1.455097	0.099221	-0.293240
N171	N	1.029083	-0.486202	-0.926866
N172	N	1.529083	0.013798	-0.426866
N173	N	0.982273	-0.520418	-0.964371
N174	N	1.482273	-0.020418	-0.464371
H175	H	0.993773	-0.571571	-0.983431
H176	H	1.493773	-0.071571	-0.483431
H177	H	1.192915	-0.792001	-0.339623
H178	H	1.692915	-0.292001	0.160377
H179	H	1.088449	-0.919824	-0.234746
H180	H	1.588449	-0.419824	0.265254
N181	N	1.172754	-0.926121	-0.446832
N182	N	1.672754	-0.426121	0.053168
N183	N	1.132522	-0.969061	-0.482974
N184	N	1.632522	-0.469061	0.017026
H185	H	1.149579	-0.988171	-0.532537
H186	H	1.649579	-0.488171	-0.032537
H187	H	1.164065	-0.793065	-0.435807
H188	H	1.664065	-0.293065	0.064193
H189	H	1.191125	-0.919313	-0.334867
H190	H	1.691125	-0.419313	0.165133
N191	N	0.500687	-0.398200	-0.486037
N192	N	1.000687	0.101800	0.013963
N193	N	0.432753	-0.398405	-0.498410
N194	N	0.932753	0.101595	0.001590
H195	H	0.413691	-0.386946	-0.549580
H196	H	0.913691	0.113054	-0.049580
H197	H	0.954768	-0.400650	-0.920477
H198	H	1.454768	0.099350	-0.420477
H199	H	0.507308	-0.234865	-0.338820
H200	H	1.007308	0.265135	0.161180
N201	N	0.640607	-0.257445	-0.449104
N202	N	1.140607	0.242555	0.050896
N203	N	0.682663	-0.299464	-0.484205
N204	N	1.182663	0.200536	0.015795
H205	H	0.701684	-0.284317	-0.534435
H206	H	1.201684	0.215683	-0.034435
H207	H	1.192217	-0.338623	-0.920287
H208	H	1.692217	0.161377	-0.420287
N209	N	0.500762	-0.446847	-0.253928
N210	N	1.000762	0.053153	0.246072
N211	N	0.457838	-0.483078	-0.294095
N212	N	0.957838	0.016922	0.205905
H213	H	0.438674	-0.532604	-0.276930
H214	H	0.938674	-0.032604	0.223070
N215	N	0.502464	-0.324192	-0.225017
N216	N	1.002464	0.175808	0.274983
N217	N	0.464825	-0.345177	-0.171040
N218	N	0.964825	0.154823	0.328960
H219	H	0.446860	-0.308073	-0.133456
H220	H	0.946860	0.191927	0.366544
N221	N	1.029448	-0.486900	-0.788566
N222	N	1.529448	0.013100	-0.288566
N223	N	1.040885	-0.537711	-0.833889
N224	N	1.540885	-0.037711	-0.333889
H225	H	1.052534	-0.589172	-0.815745
H226	H	1.552534	-0.089172	-0.315745
N227	N	1.169100	-0.450225	-0.924618
N228	N	1.669100	0.049775	-0.424618
N229	N	1.183992	-0.499751	-0.878855
N230	N	1.683992	0.000249	-0.378855
H231	H	1.198931	-0.550504	-0.896549
H232	H	1.698931	-0.050504	-0.396549
N233	N	1.169775	-0.449086	-0.787005
N234	N	1.669775	0.050914	-0.287005
N235	N	1.127773	-0.484269	-0.744943
N236	N	1.627773	0.015731	-0.244943
H237	H	1.142957	-0.534481	-0.725938
H238	H	1.642957	-0.034481	-0.225938
H239	H	1.087450	-0.234070	-0.792592
H240	H	1.587450	0.265930	-0.292592
N241	N	1.102896	-0.225065	-0.925059
N242	N	1.602896	0.274935	-0.425059
N243	N	1.154758	-0.244597	-0.966250
N244	N	1.654758	0.255403	-0.466250
H245	H	1.191848	-0.206954	-0.984208
H246	H	1.691848	0.293046	-0.484208
