data_functionalizedCrystal
_audit_creation_method	'MofGen! by Chris Wilmer'
_symmetry_space_group_name_H-M	'P1'
_symmetry_Int_Tables_number	1
_symmetry_cell_setting	triclinic
loop_
_symmetry_equiv_pos_as_xyz
  x,y,z
_cell_length_a	8.559649
_cell_length_b	10.723023
_cell_length_c	7.088929
_cell_angle_alpha	83.717996
_cell_angle_beta	95.324505
_cell_angle_gamma	77.123106
loop_
_atom_site_label
_atom_site_type_symbol
_atom_site_fract_x
_atom_site_fract_y
_atom_site_fract_z
O1	O	2.103420	-0.027904	-0.158980
O2	O	1.638921	0.036472	-0.158984
O3	O	1.881887	-0.178392	-0.158974
O4	O	1.860455	0.186959	-0.158990
O5	O	1.914356	-0.207164	0.159002
O6	O	1.671391	0.007699	0.158992
O7	O	2.135889	-0.056676	0.158996
Cu8	Cu	1.906605	-0.027116	0.188028
Cu9	Cu	1.868206	0.006911	-0.188016
O10	O	1.892924	0.158187	0.158986
C11	C	1.595679	0.026964	0.000003
C12	C	1.418458	0.041486	0.000002
C13	C	1.896562	-0.239117	0.000012
C14	C	1.891896	-0.377193	0.000006
C15	C	1.872996	-0.423840	-0.164718
C16	C	1.868173	-0.566548	-0.164728
C17	C	2.179131	-0.047168	0.000004
C18	C	2.356351	-0.061689	-0.000007
C19	C	1.878249	0.218913	-0.000004
C20	C	1.882913	0.356990	-0.000011
N21	N	1.933624	-0.051050	0.452517
N22	N	1.841199	0.030834	-0.452505
H23	H	1.336049	0.140930	-0.000021
H24	H	2.029429	-0.135904	0.534177
H25	H	1.860378	-0.358125	-0.305737
H26	H	1.438767	-0.161138	-0.000003
H27	H	1.745412	0.115690	0.465845
O28	O	1.846719	-0.619742	-0.351551
H29	H	1.846282	-0.723479	-0.322242
H30	H	1.899111	-0.602848	0.141023
H31	H	1.904496	-0.442905	0.141024
