data_functionalizedCrystal
_audit_creation_method	'MofGen! by Chris Wilmer'
_symmetry_space_group_name_H-M	'P1'
_symmetry_Int_Tables_number	1
_symmetry_cell_setting	triclinic
loop_
_symmetry_equiv_pos_as_xyz
  x,y,z
_cell_length_a	23.096457
_cell_length_b	20.875641
_cell_length_c	20.875684
_cell_angle_alpha	87.035909
_cell_angle_beta	58.316564
_cell_angle_gamma	57.592177
loop_
_atom_site_label
_atom_site_type_symbol
_atom_site_fract_x
_atom_site_fract_y
_atom_site_fract_z
Zr1	Zr	0.641693	-0.120380	0.613539
O2	O	0.769145	-0.220985	0.507427
O3	O	0.518864	-0.089543	0.646066
O4	O	0.648834	-0.228180	0.640980
O5	O	0.631931	0.027016	0.516527
O6	O	0.649208	-0.233852	0.746332
O7	O	0.639176	-0.082348	0.512513
O8	O	0.416716	0.014145	0.755429
O9	O	0.864423	-0.220981	0.507430
O10	O	0.567952	-0.080619	0.738564
O11	O	0.562267	0.005230	0.662937
O12	O	0.715289	-0.157997	0.656949
O13	O	0.709604	-0.072148	0.581322
Zr14	Zr	0.630735	0.044998	0.787966
Zr15	Zr	0.642290	-0.129425	0.781563
Zr16	Zr	0.630139	0.054043	0.619942
Zr17	Zr	0.793650	-0.120373	0.613544
Zr18	Zr	0.478778	0.044991	0.787961
O19	O	0.753564	0.014161	0.755439
O20	O	0.769993	-0.233846	0.746335
O21	O	0.752716	0.027022	0.516531
O22	O	0.503283	0.145603	0.894078
O23	O	0.519712	-0.102404	0.884974
O24	O	0.502435	0.158464	0.655170
O25	O	0.640498	-0.102398	0.884978
O26	O	0.623595	0.152798	0.760525
O27	O	0.623221	0.158469	0.655174
O28	O	0.633253	0.006966	0.888992
O29	O	0.864897	-0.228170	0.640986
O30	O	0.407532	0.152788	0.760519
O31	O	0.408006	0.145599	0.894075
O32	O	0.417190	0.006956	0.888986
O33	O	0.855239	-0.082338	0.512519
O34	O	0.855713	-0.089527	0.646076
O35	O	0.557139	0.082615	0.744556
O36	O	0.562825	-0.003234	0.820183
O37	O	0.710162	-0.080612	0.738568
O38	O	0.704476	0.005237	0.662941
C39	C	0.446139	-0.037700	0.700747
C40	C	0.381630	-0.037703	0.700745
C41	C	0.635468	-0.026377	0.490580
C42	C	0.635215	-0.022538	0.419250
C43	C	0.621762	0.180485	0.708762
C44	C	0.616857	0.254532	0.711480
C45	C	0.354297	-0.082518	0.740216
C46	C	0.293674	-0.082512	0.740224
C47	C	0.260399	-0.037701	0.700745
C48	C	0.287735	0.007124	0.661273
C49	C	0.348351	0.007123	0.661273
N50	N	0.198158	-0.040013	0.633739
N51	N	0.140577	-0.040016	0.633741
C52	C	0.077766	-0.037693	0.700745
N53	N	0.074720	-0.035382	0.767746
N54	N	0.132309	-0.035383	0.767742
C55	C	0.194671	-0.037694	0.700741
C56	C	-0.015301	-0.082504	0.740228
C57	C	-0.075929	-0.082492	0.740238
C58	C	-0.081861	0.007139	0.661279
C59	C	-0.021240	0.007132	0.661277
C60	C	0.012039	-0.037694	0.700749
C61	C	0.826289	-0.037682	0.700758
C62	C	0.890799	-0.037679	0.700760
C63	C	0.650667	-0.255868	0.692743
C64	C	0.655572	-0.329915	0.690025
C65	C	0.691458	0.248931	0.670156
C66	C	0.686844	0.318509	0.672707
C67	C	0.607628	0.393688	0.716586
C68	C	0.533020	0.399287	0.757911
C69	C	0.537635	0.329710	0.755355
C70	C	0.585579	0.606108	0.728794
C71	C	0.580970	0.675686	0.731349
C72	C	0.734795	0.594904	0.646143
C73	C	0.739403	0.525329	0.643595
C74	C	0.664795	0.530935	0.684916
N75	N	0.602910	0.464808	0.719197
N76	N	0.669514	0.459815	0.682301
C77	C	0.633340	0.005598	0.017984
C78	C	0.633577	0.001982	0.085007
C79	C	0.637693	-0.060080	0.116297
C80	C	0.641564	-0.118526	0.080565
C81	C	0.641321	-0.114906	0.013547
C82	C	0.638843	-0.077364	0.316499
C83	C	0.639088	-0.080980	0.383521
C84	C	0.631100	0.039529	0.387959
C85	C	0.630862	0.043140	0.320937
C86	C	0.634728	-0.015303	0.285213
N87	N	0.637938	-0.063779	0.184804
N88	N	0.634477	-0.011600	0.216711
C89	C	0.636960	-0.049005	0.910925
C90	C	0.637213	-0.052845	0.982255
C91	C	0.446885	-0.049014	0.910919
C92	C	0.382629	-0.052857	0.982248
C93	C	0.431687	0.180476	0.708756
C94	C	0.362272	0.254520	0.711472
C95	C	0.432433	0.169163	0.918928
C96	C	0.363271	0.239367	0.992975
C97	C	0.839996	-0.244545	0.482577
C98	C	0.909157	-0.314749	0.408530
C99	C	0.825543	-0.026369	0.490586
C100	C	0.889800	-0.022526	0.419257
C101	C	0.840742	-0.255859	0.692749
C102	C	0.910157	-0.329903	0.690033
C103	C	0.355130	-0.095062	0.973140
C104	C	0.294764	-0.098689	1.040154
C105	C	0.261893	-0.060105	1.116275
C106	C	0.289397	-0.017897	1.125381
C107	C	0.349767	-0.014276	1.058368
C108	C	0.326997	0.329694	0.755352
C109	C	0.261783	0.399273	0.757902
C110	C	0.231840	0.393677	0.716575
C111	C	0.267121	0.318496	0.672690
C112	C	0.332339	0.248918	0.670136
C113	C	0.333760	0.227523	1.067232
C114	C	0.268784	0.293480	1.136813
C115	C	0.233317	0.371281	1.132136
C116	C	0.262834	0.383124	1.057871
C117	C	0.327813	0.317167	0.988292
C118	C	0.938676	-0.302905	0.334273
C119	C	1.003671	-0.368862	0.264692
C120	C	1.039141	-0.446663	0.269370
C121	C	1.009620	-0.458506	0.343634
C122	C	0.944631	-0.392550	0.413213
C123	C	0.917305	0.019673	0.428365
C124	C	0.977689	0.023280	0.361350
C125	C	1.010563	-0.015307	0.285229
C126	C	0.983055	-0.057511	0.276123
C127	C	0.922677	-0.061122	0.343137
C128	C	0.940078	-0.324281	0.731368
C129	C	1.005292	-0.393847	0.728832
C130	C	1.040588	-0.469034	0.684954
C131	C	1.010660	-0.474655	0.643618
C132	C	0.945443	-0.405089	0.646159
H133	H	0.271415	-0.119007	0.772367
O134	O	0.251856	0.055453	0.618685
H135	H	0.205121	0.047917	0.625308
H136	H	0.244758	0.283823	1.197276
O137	O	0.626395	0.110093	0.287203
H138	H	0.623726	0.150134	0.323316
O139	O	0.020596	-0.130842	0.782803
H140	H	-0.031688	-0.109612	0.846787
H141	H	0.381389	-0.119016	0.772359
H142	H	0.178735	0.450337	0.718661
O143	O	1.075664	-0.011377	0.212961
H144	H	1.132654	-0.038019	0.212035
H145	H	0.351832	0.326823	0.927832
O146	O	0.377845	0.055453	0.618691
H147	H	0.344528	0.086612	0.591235
H148	H	0.627951	0.087112	0.417052
H149	H	0.644910	-0.169056	0.106048
O150	O	0.628896	0.072543	-0.015754
H151	H	0.686103	0.046884	-0.078035
O152	O	1.047884	-0.542425	0.348667
H153	H	1.016449	-0.539590	0.411991
H154	H	0.630423	0.049571	0.114098
H155	H	-0.098188	-0.118983	0.772385
O156	O	0.893011	-0.106637	0.333306
H157	H	0.823401	-0.065168	0.363451
H158	H	0.909799	-0.239561	0.330450
O159	O	0.234800	0.312462	0.628143
H160	H	0.183511	0.373476	0.637312
O161	O	0.265098	-0.144207	1.030324
H162	H	0.298089	-0.170412	0.966133
O163	O	-0.117738	0.055472	0.618694
H164	H	-0.164477	0.047941	0.625321
H165	H	0.212735	-0.063059	1.170835
H166	H	0.381894	-0.126493	0.911164
H167	H	0.642441	-0.131522	0.408994
H168	H	1.027695	-0.359204	0.204230
H169	H	0.476886	0.334275	0.789003
H170	H	0.361052	0.187712	0.634407
O171	O	0.505125	0.612134	0.773366
H172	H	0.503728	0.580017	0.817623
H173	H	0.911350	-0.263066	0.767098
O174	O	0.643030	-0.140404	0.277963
H175	H	0.645946	-0.184173	0.310974
O176	O	0.163223	0.442419	1.207185
H177	H	0.148658	0.421104	1.259603
O178	O	0.912783	-0.405313	0.493312
H179	H	0.887429	-0.439463	0.498885
H180	H	1.009830	-0.088927	0.214136
H181	H	0.362629	0.164179	1.071055
H182	H	0.233947	0.446478	1.054075
O183	O	0.253933	0.023726	1.207485
H184	H	0.207327	0.014121	1.252547
O185	O	0.881867	0.061281	0.510463
H186	H	0.911158	0.091216	0.505524
H187	H	0.001017	0.043622	0.629132
O188	O	0.776900	0.167847	0.622827
H189	H	0.827999	0.175645	0.594515
O190	O	1.037567	-0.387777	0.773415
H191	H	1.002073	-0.323806	0.804339
O192	O	1.007336	0.068815	0.371188
H193	H	1.054851	0.064843	0.311806
O194	O	1.110940	-0.544064	0.682204
H195	H	1.125819	-0.527514	0.718313
H196	H	1.092059	-0.500363	0.212708
H197	H	0.644473	-0.162495	-0.015542
O198	O	0.495523	0.756770	0.778749
H199	H	0.504852	0.804206	0.773617
H200	H	0.372148	0.020098	1.065795
O201	O	1.048740	-0.555751	0.596285
H202	H	1.099123	-0.603172	0.601458
H203	H	0.351369	0.334266	0.789006
O204	O	0.913182	-0.411156	0.601562
H205	H	0.948694	-0.475127	0.570620
H206	H	0.747593	0.313942	0.639058
H207	H	0.795536	0.590350	0.612501
O208	O	0.824843	0.444244	0.596266
H209	H	0.875945	0.452038	0.567954
H210	H	0.233064	0.460481	0.793641
O211	O	0.447576	0.480366	0.805292
H212	H	0.456899	0.527806	0.800153
