data_functionalizedCrystal
_audit_creation_method	'MofGen! by Chris Wilmer'
_symmetry_space_group_name_H-M	'P1'
_symmetry_Int_Tables_number	1
_symmetry_cell_setting	triclinic
loop_
_symmetry_equiv_pos_as_xyz
  x,y,z
_cell_length_a	25.639242
_cell_length_b	25.639240
_cell_length_c	12.827885
_cell_angle_alpha	89.956835
_cell_angle_beta	89.977793
_cell_angle_gamma	90.025061
loop_
_atom_site_label
_atom_site_type_symbol
_atom_site_fract_x
_atom_site_fract_y
_atom_site_fract_z
Zn1	Zn	0.799287	-0.208233	-0.590833
Zn2	Zn	0.799208	-0.295678	-0.416053
Zn3	Zn	0.711851	-0.208247	-0.416098
Zn4	Zn	0.711818	-0.295627	-0.590744
O5	O	0.755541	-0.251946	-0.503432
O6	O	0.872442	-0.219848	-0.567667
O7	O	0.787601	-0.284107	-0.269822
O8	O	0.723497	-0.135080	-0.439333
O9	O	0.872383	-0.284094	-0.439256
O10	O	0.787736	-0.135069	-0.567711
O11	O	0.723420	-0.219871	-0.269856
O12	O	0.638682	-0.219822	-0.439246
O13	O	0.723440	-0.284007	-0.736992
O14	O	0.638657	-0.284021	-0.567558
O15	O	0.787703	-0.219799	-0.737057
O16	O	0.787568	-0.368836	-0.439169
O17	O	0.723363	-0.368799	-0.567514
C18	C	0.619698	-0.251918	-0.503398
C19	C	0.561584	-0.251918	-0.503408
C20	C	0.755467	-0.387789	-0.503350
C21	C	0.755483	-0.445903	-0.503350
C22	C	0.310429	-0.218553	-0.570417
C23	C	0.365034	-0.218548	-0.570411
O24	O	0.393303	-0.190156	-0.627377
N25	N	0.392310	-0.251940	-0.503444
C26	C	0.364980	-0.285344	-0.436485
O27	O	0.393195	-0.313746	-0.379525
C28	C	0.310377	-0.285351	-0.436498
C29	C	0.283103	-0.251953	-0.503462
C30	C	0.283155	-0.185158	-0.637377
C31	C	0.228555	-0.185162	-0.637381
C32	C	0.201228	-0.218562	-0.570426
C33	C	0.228502	-0.251957	-0.503466
C34	C	0.283047	-0.318757	-0.369545
C35	C	0.228440	-0.318761	-0.369564
C36	C	0.201166	-0.285363	-0.436528
C37	C	0.146575	-0.285362	-0.436515
N38	N	0.119298	-0.251969	-0.503482
C39	C	0.146625	-0.218570	-0.570438
C40	C	0.479651	-0.285326	-0.436467
C41	C	0.534253	-0.285316	-0.436449
C42	C	0.534303	-0.218521	-0.570376
C43	C	0.479700	-0.218529	-0.570388
C44	C	0.452374	-0.251934	-0.503434
C45	C	0.031960	-0.218581	-0.570441
C46	C	-0.022646	-0.218587	-0.570436
C47	C	-0.022691	-0.285384	-0.436513
C48	C	0.031910	-0.285377	-0.436514
C49	C	0.059234	-0.251973	-0.503486
O50	O	0.118271	-0.313740	-0.379581
O51	O	0.118403	-0.190176	-0.627399
C52	C	0.789007	-0.806222	-0.570398
C53	C	0.789022	-0.860826	-0.570420
O54	O	0.817437	-0.889026	-0.627343
N55	N	0.755613	-0.888185	-0.503533
C56	C	0.722184	-0.860937	-0.436628
O57	O	0.693768	-0.889222	-0.379738
C58	C	0.722166	-0.806334	-0.436613
C59	C	0.755580	-0.778978	-0.503496
C60	C	0.822418	-0.778866	-0.637278
C61	C	0.822403	-0.724265	-0.637255
C62	C	0.788977	-0.697021	-0.570353
C63	C	0.755566	-0.724377	-0.503474
C64	C	0.688734	-0.779086	-0.369714
C65	C	0.688719	-0.724479	-0.369705
C66	C	0.722133	-0.697123	-0.436589
C67	C	0.722124	-0.642532	-0.436549
N68	N	0.755533	-0.615173	-0.503436
C69	C	0.788959	-0.642418	-0.570338
C70	C	0.722223	-0.975607	-0.436666
C71	C	0.722243	-1.030210	-0.436675
C72	C	0.789080	-1.030096	-0.570469
C73	C	0.789063	-0.975492	-0.570454
C74	C	0.755631	-0.948249	-0.503553
C75	C	0.788926	-0.527753	-0.570284
C76	C	0.788909	-0.473147	-0.570252
C77	C	0.722070	-0.473266	-0.436463
C78	C	0.722088	-0.527867	-0.436490
C79	C	0.755518	-0.555109	-0.503409
O80	O	0.693723	-0.614298	-0.379658
O81	O	0.817365	-0.614126	-0.627228
C82	C	0.891914	-0.251975	-0.503466
C83	C	0.950028	-0.251987	-0.503481
C84	C	0.755577	-0.251896	-0.776002
C85	C	0.755592	-0.251875	-0.892155
C86	C	0.755629	-0.115573	-0.503537
C87	C	0.755667	-0.057459	-0.503582
C88	C	0.787395	-0.220096	-0.943973
C89	C	0.787411	-0.220073	-1.064023
C90	C	0.755536	-0.251958	-0.231922
C91	C	0.755622	-0.251833	-0.115769
H92	H	-0.044850	-0.191388	-0.624967
H93	H	-0.044950	-0.312576	-0.381996
C94	C	0.449703	-0.181792	-0.644060
N95	N	0.427113	-0.154121	-0.699556
H96	H	0.556562	-0.191325	-0.624895
C97	C	0.685301	-0.443287	-0.362878
N98	N	0.657602	-0.420705	-0.307461
C99	C	0.685333	-0.557959	-0.362909
N100	N	0.657645	-0.580621	-0.307494
H101	H	0.695000	-0.953428	-0.382179
C102	C	0.718835	-0.288590	-1.055579
N103	N	0.691126	-0.316275	-1.010235
H104	H	0.054201	-0.191381	-0.624976
H105	H	0.814641	-0.192868	-1.108585
H106	H	0.816144	-0.549926	-0.624783
H107	H	0.814608	-0.192904	-0.899459
H108	H	0.206353	-0.157968	-0.691915
H109	H	0.728373	-0.279061	-0.936670
C110	C	0.313206	-0.148409	-0.711033
N111	N	0.335836	-0.120723	-0.766509
C112	C	0.449597	-0.322069	-0.362792
N113	N	0.426964	-0.349743	-0.307298
C114	C	0.564248	-0.322052	-0.362773
N115	N	0.586839	-0.349725	-0.307283
H116	H	0.305245	-0.345953	-0.315016
H117	H	0.661524	-0.801350	-0.315249
C118	C	0.198386	-0.355509	-0.295903
N119	N	0.175750	-0.383185	-0.240419
H120	H	0.054118	-0.312568	-0.381977
H121	H	0.816121	-0.450876	-0.624717
C122	C	0.859197	-0.808826	-0.710873
N123	N	0.886906	-0.831389	-0.766302
C124	C	0.859164	-0.694181	-0.710829
N125	N	0.886854	-0.671525	-0.766249
H126	H	0.695039	-1.052478	-0.382201
C127	C	0.825846	-1.060075	-0.644071
N128	N	0.853536	-1.082657	-0.699505
C129	C	0.825819	-0.945406	-0.644034
N130	N	0.853504	-0.922747	-0.699461
C131	C	0.651941	-0.694515	-0.296105
N132	N	0.624241	-0.671947	-0.240668
