data_functionalizedCrystal
_audit_creation_method	'MofGen! by Chris Wilmer'
_symmetry_space_group_name_H-M	'P1'
_symmetry_Int_Tables_number	1
_symmetry_cell_setting	triclinic
loop_
_symmetry_equiv_pos_as_xyz
  x,y,z
_cell_length_a	10.723023
_cell_length_b	10.723024
_cell_length_c	15.021413
_cell_angle_alpha	90.002854
_cell_angle_beta	90.006772
_cell_angle_gamma	95.532291
loop_
_atom_site_label
_atom_site_type_symbol
_atom_site_fract_x
_atom_site_fract_y
_atom_site_fract_z
O1	O	1.657195	-0.175009	0.074022
O2	O	1.294043	-0.191764	0.074026
O3	O	1.483996	-0.001810	0.074019
O4	O	1.467242	-0.364963	0.074029
O5	O	1.483967	-0.001831	-0.074045
O6	O	1.294014	-0.191784	-0.074039
O7	O	1.657166	-0.175030	-0.074042
Zn8	Zn	1.475585	-0.183410	-0.097549
Zn9	Zn	1.475624	-0.183383	0.097532
O10	O	1.467213	-0.364983	-0.074036
C11	C	1.247529	-0.190555	-0.000006
C12	C	1.108974	-0.186908	-0.000005
C13	C	1.047187	-0.185292	-0.076706
C14	C	0.903984	-0.181522	-0.076706
C15	C	1.482762	0.044679	-0.000012
C16	C	1.479114	0.183233	-0.000010
C17	C	1.703680	-0.176239	-0.000009
C18	C	1.842235	-0.179886	-0.000004
N19	N	1.475568	-0.183428	-0.230686
C20	C	1.585402	0.258216	-0.000011
C21	C	1.581634	0.401420	-0.000009
C22	C	1.468447	0.588527	-0.000004
C23	C	1.472095	0.449973	-0.000006
C24	C	1.388474	-0.271961	-0.529698
C25	C	1.362267	-0.159327	-0.470342
C26	C	1.475622	-0.183377	-0.587723
C27	C	1.501744	-0.296033	-0.470338
C28	C	1.475593	-0.183408	-0.412299
C29	C	1.449359	-0.070686	-0.529674
C30	C	1.588886	-0.207466	-0.529675
C31	C	1.562726	-0.094751	-0.470345
C32	C	1.475636	-0.183361	-0.688781
C33	C	1.475579	-0.183412	-0.311244
N34	N	1.475651	-0.183355	0.230670
H35	H	1.100307	-0.186693	-0.142372
N36	N	1.242101	-0.133781	-0.437623
N37	N	1.223148	-0.128794	-0.355653
H38	H	1.138279	-0.110759	-0.332546
N39	N	1.695789	0.482238	-0.000029
N40	N	1.719108	0.557994	-0.062446
H41	H	1.799734	0.615075	-0.062463
N42	N	0.908855	-0.181637	0.082389
N43	N	0.883670	-0.269058	0.136450
H44	H	0.930728	-0.270295	0.194642
N45	N	1.529515	-0.415521	-0.437643
N46	N	1.623985	-0.423782	-0.390041
H47	H	1.643592	-0.508172	-0.366952
H48	H	1.684653	-0.227873	-0.555759
H49	H	1.427140	0.024593	-0.555628
H50	H	1.381099	0.385548	-0.000012
N51	N	1.042354	-0.185114	0.082378
N52	N	0.980438	-0.095381	0.100317
H53	H	0.933390	-0.094111	0.158503
N54	N	1.296004	-0.365835	-0.562401
N55	N	1.301854	-0.478245	-0.542323
H56	H	1.236550	-0.544543	-0.565420
H57	H	1.385328	0.225055	-0.000004
H58	H	1.679188	0.216394	-0.000017
H59	H	1.636415	-0.019770	-0.444450
H60	H	0.850848	-0.180140	-0.142373
