data_functionalizedCrystal
_audit_creation_method	'MofGen! by Chris Wilmer'
_symmetry_space_group_name_H-M	'P1'
_symmetry_Int_Tables_number	1
_symmetry_cell_setting	triclinic
loop_
_symmetry_equiv_pos_as_xyz
  x,y,z
_cell_length_a	14.971486
_cell_length_b	12.837942
_cell_length_c	14.048226
_cell_angle_alpha	89.994377
_cell_angle_beta	89.998499
_cell_angle_gamma	89.221535
loop_
_atom_site_label
_atom_site_type_symbol
_atom_site_fract_x
_atom_site_fract_y
_atom_site_fract_z
O1	O	1.198338	0.135106	-0.079050
O2	O	0.939302	0.151285	-0.079075
O3	O	1.063076	-0.007715	-0.079057
O4	O	1.074564	0.294105	-0.079068
O5	O	1.063059	-0.007724	0.079264
O6	O	0.939284	0.151275	0.079246
O7	O	1.198320	0.135096	0.079272
Zn8	Zn	1.068800	0.143184	0.104396
Zn9	Zn	1.068822	0.143197	-0.104199
O10	O	1.074546	0.294096	0.079254
C11	C	0.905907	0.150556	0.000082
C12	C	0.806427	0.148388	0.000072
C13	C	0.757077	0.241796	0.000070
C14	C	0.663606	0.239752	0.000085
C15	C	0.619486	0.144300	0.000094
C16	C	0.668842	0.050885	0.000099
C17	C	0.762313	0.052930	0.000091
C18	C	0.474021	0.046630	0.000112
C19	C	0.380545	0.044585	0.000118
C20	C	0.375314	0.233453	0.000105
C21	C	0.468784	0.235498	0.000098
C22	C	0.518135	0.142082	0.000101
C23	C	1.059187	-0.046345	0.000103
C24	C	1.047612	-0.161436	0.000100
C25	C	1.186755	-0.402222	0.000094
C26	C	1.175884	-0.510362	0.000091
C27	C	1.015001	-0.485856	0.000085
C28	C	1.025872	-0.377717	0.000088
C29	C	1.111751	-0.335904	0.000093
C30	C	1.122621	-0.227763	0.000103
C31	C	0.961739	-0.203260	0.000090
C32	C	0.950868	-0.311399	0.000087
C33	C	1.231715	0.135824	0.000112
C34	C	1.331195	0.137993	0.000116
C35	C	1.078436	0.332726	0.000092
C36	C	1.090010	0.447817	0.000088
N37	N	1.068791	0.143175	0.246756
N38	N	1.068838	0.143197	-0.246560
C39	C	1.123619	0.072799	0.296583
C40	C	1.123625	0.072799	0.396240
C41	C	1.068807	0.143180	0.446070
C42	C	1.013972	0.213559	0.396237
C43	C	1.013962	0.213554	0.296581
C44	C	1.013998	0.213567	0.603951
C45	C	1.014009	0.213573	0.703614
C46	C	1.123662	0.072811	0.703610
C47	C	1.123652	0.072806	0.603954
C48	C	1.068818	0.143187	0.554128
H49	H	0.335129	0.309515	0.000107
H50	H	1.256681	-0.368178	0.000108
C51	C	0.804810	0.345539	0.000108
C52	C	0.741580	0.426903	0.000136
C53	C	0.785515	0.522487	0.000186
H54	H	0.841161	0.350416	-0.055090
H55	H	0.841146	0.350315	0.055337
H56	H	0.705260	0.422129	-0.055088
H57	H	0.705227	0.422060	0.055330
H58	H	0.821851	0.527263	0.055415
H59	H	0.821865	0.527353	-0.055013
H60	H	0.742621	0.577704	0.000214
H61	H	1.168270	0.015493	0.436808
H62	H	0.880947	-0.345458	0.000079
C63	C	0.880219	-0.131380	-0.000058
C64	C	0.829035	-0.150297	-0.081500
C65	C	0.753929	-0.084112	-0.081658
H66	H	0.898864	-0.060950	-0.000102
H67	H	0.845335	-0.144097	0.055123
H68	H	0.863913	-0.137572	-0.136666
H69	H	0.810368	-0.220713	-0.081474
H70	H	0.719045	-0.096829	-0.026477
H71	H	0.772582	-0.013687	-0.081698
H72	H	0.719188	-0.096945	-0.136910
C73	C	1.183169	-0.003733	0.242658
C74	C	1.231168	-0.065384	0.307629
C75	C	1.286023	-0.135910	0.257993
H76	H	1.223656	0.033508	0.203768
H77	H	1.147326	-0.047011	0.203814
H78	H	1.267007	-0.022111	0.346457
H79	H	1.190703	-0.102648	0.346522
H80	H	1.250181	-0.179189	0.219149
H81	H	1.326505	-0.098661	0.219104
H82	H	1.318591	-0.177755	0.302068
H83	H	0.945081	-0.519920	0.000070
H84	H	1.168294	0.015502	0.563383
C85	C	1.183042	-0.003728	0.757749
C86	C	1.129993	-0.067310	0.814955
C87	C	1.184664	-0.137833	0.864834
H88	H	1.223472	0.033517	0.796694
H89	H	1.215672	-0.045699	0.713827
H90	H	1.097378	-0.025344	0.858872
H91	H	1.089564	-0.104578	0.776034
H92	H	1.217294	-0.179804	0.820912
H93	H	1.225092	-0.100579	0.903774
H94	H	1.148678	-0.180988	0.903647
C95	C	0.954380	0.290015	0.757545
C96	C	0.906328	0.351621	0.692583
C97	C	0.851374	0.422035	0.742229
H98	H	0.990131	0.333343	0.796419
H99	H	0.913932	0.252656	0.796407
H100	H	0.946771	0.388977	0.653737
H101	H	0.870559	0.308321	0.653707
H102	H	0.810926	0.384676	0.781091
H103	H	0.887132	0.465356	0.781101
H104	H	0.818758	0.463837	0.698160
H105	H	0.344625	-0.033141	0.000127
C106	C	1.257428	-0.582193	0.000142
C107	C	1.334960	-0.522423	0.000171
C108	C	1.410098	-0.588558	0.000229
H109	H	1.256661	-0.624904	-0.055053
H110	H	1.256580	-0.624879	0.055374
H111	H	1.335809	-0.479755	-0.055056
H112	H	1.335757	-0.479715	0.055362
H113	H	1.409250	-0.631245	0.055461
H114	H	1.409322	-0.631266	-0.054968
H115	H	1.462712	-0.548015	0.000257
H116	H	1.192549	-0.193721	0.000111
H117	H	0.514200	-0.029439	0.000116
H118	H	0.969343	0.270875	0.563386
H119	H	0.969332	0.270861	0.436814
C120	C	0.954405	0.290082	0.242652
C121	C	0.906417	0.351740	0.307618
C122	C	0.851549	0.422257	0.257975
H123	H	0.913912	0.252834	0.203784
H124	H	0.990239	0.333356	0.203785
H125	H	0.870586	0.308471	0.346469
H126	H	0.946888	0.389011	0.346488
H127	H	0.887383	0.465532	0.219108
H128	H	0.811061	0.385000	0.219109
H129	H	0.818989	0.464107	0.302047
H130	H	0.623429	0.315815	0.000082
H131	H	0.504704	0.313223	0.000081
H132	H	0.802492	-0.023133	0.000092
H133	H	0.632913	-0.026834	0.000120
