data_functionalizedCrystal
_audit_creation_method	'MofGen! by Chris Wilmer'
_symmetry_space_group_name_H-M	'P1'
_symmetry_Int_Tables_number	1
_symmetry_cell_setting	triclinic
loop_
_symmetry_equiv_pos_as_xyz
  x,y,z
_cell_length_a	17.699083
_cell_length_b	16.974813
_cell_length_c	16.053810
_cell_angle_alpha	96.219974
_cell_angle_beta	87.420691
_cell_angle_gamma	83.339637
loop_
_atom_site_label
_atom_site_type_symbol
_atom_site_fract_x
_atom_site_fract_y
_atom_site_fract_z
O1	O	1.000627	0.103655	0.076315
O2	O	0.780216	0.116707	0.077224
O3	O	0.896925	-0.005309	0.068962
O4	O	0.883918	0.225671	0.084577
O5	O	0.903342	-0.012003	-0.070350
O6	O	0.786633	0.110014	-0.062088
O7	O	1.007044	0.096961	-0.062997
Zn8	Zn	0.897858	0.102425	-0.084661
Zn9	Zn	0.889403	0.111244	0.098888
O10	O	0.890335	0.218978	-0.054735
C11	C	0.755229	0.112893	0.007540
C12	C	0.671213	0.111491	0.007455
C13	C	0.899758	-0.038209	-0.002690
C14	C	0.898631	-0.126269	-0.008638
C15	C	0.622421	0.183112	0.012297
C16	C	0.543481	0.181788	0.012197
C17	C	0.513335	0.108843	0.007261
C18	C	0.562135	0.037217	0.002416
C19	C	0.641073	0.038541	0.002511
C20	C	0.243785	0.031875	0.002034
C21	C	0.164841	0.030557	0.001943
C22	C	0.146193	0.175123	0.011721
C23	C	0.225132	0.176447	0.011815
C24	C	0.273924	0.104820	0.006966
C25	C	0.359519	0.106256	0.007073
C26	C	0.427741	0.107407	0.007160
C27	C	0.894605	-0.163987	0.064507
C28	C	0.893541	-0.246728	0.058916
C29	C	0.896508	-0.291750	-0.019820
C30	C	0.900532	-0.254027	-0.092970
C31	C	0.901591	-0.171287	-0.087378
C32	C	0.893712	-0.539598	-0.044686
C33	C	0.892655	-0.622344	-0.050272
C34	C	0.885662	-0.615039	0.101614
C35	C	0.886726	-0.532298	0.107199
C36	C	0.890746	-0.494582	0.034049
N37	N	0.895423	-0.376325	-0.025537
N38	N	0.891826	-0.410007	0.039766
C39	C	1.032032	0.100776	0.006689
C40	C	1.116047	0.102178	0.006779
C41	C	0.887502	0.251878	0.016919
C42	C	0.888629	0.339938	0.022872
N43	N	0.903634	0.096406	-0.209929
N44	N	0.883633	0.117257	0.224156
C45	C	0.853880	0.148225	0.749885
C46	C	0.857922	0.144023	0.662194
C47	C	0.911716	0.087998	0.614690
C48	C	0.961475	0.036177	0.654882
C49	C	0.957436	0.040383	0.742572
C50	C	0.929352	0.069641	0.352038
C51	C	0.933387	0.065438	0.264342
C52	C	0.829834	0.173285	0.271659
C53	C	0.825796	0.177483	0.359350
C54	C	0.875558	0.125664	0.399535
N55	N	0.915848	0.083701	0.525055
N56	N	0.871429	0.129966	0.489169
H57	H	0.503756	0.240109	0.016141
H58	H	0.904858	-0.140577	-0.146940
H59	H	0.789321	0.215474	0.238933
C60	C	1.019996	-0.024565	0.603364
C61	C	1.093295	-0.010623	0.625541
C62	C	1.147222	-0.066562	0.578095
H63	H	1.011530	-0.076868	0.614120
H64	H	1.015329	-0.019652	0.545374
H65	H	1.097960	-0.015542	0.683517
H66	H	1.101786	0.041670	0.614781
H67	H	1.142554	-0.061649	0.520105
H68	H	1.138749	-0.118862	0.588855
H69	H	1.196961	-0.057105	0.593130
C70	C	0.903721	-0.302762	-0.178534
C71	C	0.907453	-0.252015	-0.241394
C72	C	0.910384	-0.296878	-0.320227
H73	H	0.947582	-0.341330	-0.184412
H74	H	0.859305	-0.329041	-0.183496
H75	H	0.951865	-0.225749	-0.236434
H76	H	0.863597	-0.213446	-0.235543
H77	H	0.865968	-0.323157	-0.325189
H78	H	0.954245	-0.335445	-0.326096
H79	H	0.912909	-0.262452	-0.362887
H80	H	0.249671	0.235846	0.015838
C81	C	0.093122	0.252837	0.017103
C82	C	0.043931	0.259732	0.088994
C83	C	-0.004972	0.331304	0.093977
H84	H	0.122284	0.296536	0.020107
H85	H	0.064141	0.253003	-0.031287
H86	H	0.072910	0.259573	0.137372
H87	H	0.014752	0.216050	0.086006
H88	H	-0.033954	0.331470	0.045587
H89	H	0.024197	0.374998	0.096979
H90	H	-0.038358	0.335989	0.142750
H91	H	0.997952	-0.001812	0.775291
C92	C	0.803866	0.200151	0.618451
C93	C	0.760134	0.155441	0.565231
C94	C	0.710334	0.207122	0.524916
H95	H	0.771180	0.234133	0.659209
H96	H	0.832443	0.231549	0.586430
H97	H	0.731560	0.124057	0.597250
H98	H	0.792800	0.121462	0.524458
H99	H	0.738910	0.238519	0.492895
H100	H	0.677653	0.241100	0.565680
H101	H	0.680661	0.176793	0.488797
C102	C	0.991864	0.004569	0.212912
C103	C	1.034587	-0.039903	0.266872
C104	C	1.088459	-0.095979	0.219526
H105	H	0.966493	-0.030189	0.176472
H106	H	1.024809	0.031461	0.180640
H107	H	1.001647	-0.066794	0.299130
H108	H	1.059975	-0.005167	0.303313
H109	H	1.121404	-0.069087	0.187254
H110	H	1.063082	-0.130731	0.183088
H111	H	1.117459	-0.126155	0.256131
H112	H	0.897000	-0.508901	-0.104250
H113	H	0.781993	0.223102	0.398026
C114	C	0.529505	-0.042033	-0.002815
C115	C	0.551040	-0.081885	0.065921
C116	C	0.521005	-0.154898	0.061128
H117	H	0.475505	-0.032675	-0.002139
H118	H	0.548537	-0.073893	-0.053367
H119	H	0.532004	-0.050032	0.116460
H120	H	0.605035	-0.091264	0.065259
H121	H	0.540038	-0.186758	0.010576
H122	H	0.467006	-0.145532	0.061802
H123	H	0.535618	-0.181950	0.107759
H124	H	0.140300	-0.028847	-0.002078
H125	H	0.680800	-0.019780	-0.001432
H126	H	0.810072	0.193842	0.788557
H127	H	0.646958	0.242512	0.016317
H128	H	0.882388	-0.645757	0.161168
H129	H	0.892193	-0.127335	0.128622
H130	H	0.283503	-0.026447	-0.001915
H131	H	0.890265	-0.277434	0.118478
H132	H	0.884311	-0.495646	0.171314
H133	H	0.969869	0.027447	0.384749
C134	C	0.895840	-0.671084	-0.135840
C135	C	0.899566	-0.620342	-0.198705
C136	C	0.902492	-0.665211	-0.277535
H137	H	0.939701	-0.709652	-0.141719
H138	H	0.851424	-0.697363	-0.140795
H139	H	0.943978	-0.594075	-0.193753
H140	H	0.855709	-0.581774	-0.192854
H141	H	0.858076	-0.691491	-0.282490
H142	H	0.946354	-0.703777	-0.283405
H143	H	0.905013	-0.630788	-0.320198
