data_functionalizedCrystal
_audit_creation_method	'MofGen! by Chris Wilmer'
_symmetry_space_group_name_H-M	'P1'
_symmetry_Int_Tables_number	1
_symmetry_cell_setting	triclinic
loop_
_symmetry_equiv_pos_as_xyz
  x,y,z
_cell_length_a	19.077236
_cell_length_b	19.076808
_cell_length_c	19.076919
_cell_angle_alpha	89.878360
_cell_angle_beta	89.887323
_cell_angle_gamma	94.519737
loop_
_atom_site_label
_atom_site_type_symbol
_atom_site_fract_x
_atom_site_fract_y
_atom_site_fract_z
Zn1	Zn	1.048453	-0.255469	-0.429870
Zn2	Zn	1.298453	-0.005469	-0.179870
Zn3	Zn	1.548453	0.244531	0.070130
Zn4	Zn	1.798453	0.494531	0.320130
Zn5	Zn	1.048749	-0.368252	-0.307652
Zn6	Zn	1.298749	-0.118252	-0.057652
Zn7	Zn	1.548749	0.131748	0.192348
Zn8	Zn	1.798749	0.381748	0.442348
Zn9	Zn	0.935682	-0.255100	-0.307665
Zn10	Zn	1.185682	-0.005100	-0.057665
Zn11	Zn	1.435682	0.244900	0.192335
Zn12	Zn	1.685682	0.494900	0.442335
Zn13	Zn	0.926207	-0.377641	-0.419997
Zn14	Zn	1.176207	-0.127641	-0.169997
Zn15	Zn	1.426207	0.122359	0.080003
Zn16	Zn	1.676207	0.372359	0.330003
O17	O	0.989773	-0.314115	-0.366296
O18	O	1.239773	-0.064115	-0.116296
O19	O	1.489773	0.185885	0.133704
O20	O	1.739773	0.435885	0.383704
O21	O	1.146971	-0.266655	-0.417783
O22	O	1.396971	-0.016655	-0.167783
O23	O	1.646971	0.233345	0.082217
O24	O	1.896971	0.483345	0.332217
O25	O	1.037840	-0.349158	-0.209493
O26	O	1.287840	-0.099158	0.040507
O27	O	1.537840	0.150842	0.290507
O28	O	1.787840	0.400842	0.540507
O29	O	0.954483	-0.156664	-0.328013
O30	O	1.204483	0.093336	-0.078013
O31	O	1.454483	0.343336	0.171987
O32	O	1.704483	0.593336	0.421987
O33	O	1.147189	-0.349516	-0.327990
O34	O	1.397189	-0.099516	-0.077990
O35	O	1.647189	0.150484	0.172010
O36	O	1.897189	0.400484	0.422010
O37	O	1.037335	-0.156935	-0.417796
O38	O	1.287335	0.093065	-0.167796
O39	O	1.537335	0.343065	0.082204
O40	O	1.787335	0.593065	0.332204
O41	O	0.954771	-0.266026	-0.209503
O42	O	1.204771	-0.016026	0.040497
O43	O	1.454771	0.233974	0.290497
O44	O	1.704771	0.483974	0.540497
O45	O	0.835946	-0.275130	-0.318440
O46	O	1.085946	-0.025130	-0.068440
O47	O	1.335946	0.224870	0.181560
O48	O	1.585946	0.474870	0.431560
O49	O	0.938333	-0.365518	-0.519467
O50	O	1.188333	-0.115518	-0.269467
O51	O	1.438333	0.134482	-0.019467
O52	O	1.688333	0.384482	0.230533
O53	O	0.828985	-0.365160	-0.400970
O54	O	1.078985	-0.115160	-0.150970
O55	O	1.328985	0.134840	0.099030
O56	O	1.578985	0.384840	0.349030
O57	O	1.028147	-0.275759	-0.526720
O58	O	1.278147	-0.025759	-0.276720
O59	O	1.528147	0.224241	-0.026720
O60	O	1.778147	0.474241	0.223280
O61	O	1.028652	-0.467982	-0.318417
O62	O	1.278652	-0.217982	-0.068417
O63	O	1.528652	0.032018	0.181583
O64	O	1.778652	0.282018	0.431583
O65	O	0.938621	-0.474880	-0.400957
O66	O	1.188621	-0.224880	-0.150957
O67	O	1.438621	0.025120	0.099043
O68	O	1.688621	0.275120	0.349043
C69	C	0.806931	-0.321124	-0.358636
C70	C	1.056931	-0.071124	-0.108636
C71	C	1.306931	0.178876	0.141364
C72	C	1.556931	0.428876	0.391364
C73	C	0.728709	-0.324141	-0.355375
C74	C	0.978709	-0.074141	-0.105375
C75	C	1.228709	0.175859	0.144625
C76	C	1.478709	0.425859	0.394625
C77	C	0.691842	-0.282491	-0.400659
C78	C	0.941842	-0.032491	-0.150659
C79	C	1.191842	0.217509	0.099341
C80	C	1.441842	0.467509	0.349341
C81	C	0.618344	-0.285321	-0.397589
C82	C	0.868344	-0.035321	-0.147589
C83	C	1.118344	0.214679	0.102411
C84	C	1.368344	0.464679	0.352411
C85	C	0.581715	-0.329806	-0.349238
C86	C	0.831715	-0.079806	-0.099238
C87	C	1.081715	0.170194	0.150762
C88	C	1.331715	0.420194	0.400762
C89	C	0.618588	-0.371457	-0.303949
C90	C	0.868588	-0.121457	-0.053949
C91	C	1.118588	0.128543	0.196051
C92	C	1.368588	0.378543	0.446051
C93	C	0.692084	-0.368623	-0.307016
C94	C	0.942084	-0.118623	-0.057016
C95	C	1.192084	0.131377	0.192984
C96	C	1.442084	0.381377	0.442984
C97	C	0.361918	-0.342898	-0.335042
C98	C	0.611918	-0.092898	-0.085042
C99	C	0.861918	0.157102	0.164958
C100	C	1.111918	0.407102	0.414958
C101	C	0.288416	-0.345731	-0.331979
C102	C	0.538416	-0.095731	-0.081979
C103	C	0.788416	0.154269	0.168021
C104	C	1.038416	0.404269	0.418021
C105	C	0.288178	-0.259593	-0.425619
C106	C	0.538178	-0.009593	-0.175619
C107	C	0.788178	0.240407	0.074381
C108	C	1.038178	0.490407	0.324381
C109	C	0.361676	-0.256766	-0.428684
C110	C	0.611676	-0.006766	-0.178684
C111	C	0.861676	0.243234	0.071316
C112	C	1.111676	0.493234	0.321316
C113	C	0.398542	-0.298415	-0.383393
C114	C	0.648542	-0.048415	-0.133393
C115	C	0.898542	0.201585	0.116607
C116	C	1.148542	0.451585	0.366607
N117	N	0.506589	-0.332702	-0.346100
N118	N	0.756589	-0.082702	-0.096100
N119	N	1.006589	0.167298	0.153900
N120	N	1.256589	0.417298	0.403900
N121	N	0.473667	-0.295515	-0.386528
N122	N	0.723667	-0.045515	-0.136528
N123	N	0.973667	0.204485	0.113472
N124	N	1.223667	0.454485	0.363472
C125	C	0.982659	-0.496966	-0.358631
C126	C	1.232659	-0.246966	-0.108631
C127	C	1.482659	0.003034	0.141369
C128	C	1.732659	0.253034	0.391369
C129	C	0.979679	-0.575189	-0.355377
C130	C	1.229679	-0.325189	-0.105377
C131	C	1.479679	-0.075189	0.144623
C132	C	1.729679	0.174811	0.394623
C133	C	1.021380	-0.612022	-0.400629
C134	C	1.271380	-0.362022	-0.150629
C135	C	1.521380	-0.112022	0.099371
C136	C	1.771380	0.137978	0.349371
C137	C	1.018577	-0.685521	-0.397574
C138	C	1.268577	-0.435521	-0.147574
C139	C	1.518577	-0.185521	0.102426
C140	C	1.768577	0.064479	0.352426
C141	C	0.974076	-0.722186	-0.349263
C142	C	1.224076	-0.472186	-0.099263
C143	C	1.474076	-0.222186	0.150737
C144	C	1.724076	0.027814	0.400737
C145	C	0.932370	-0.685348	-0.304009
C146	C	1.182370	-0.435348	-0.054009
C147	C	1.432370	-0.185348	0.195991
C148	C	1.682370	0.064652	0.445991
C149	C	0.935170	-0.611851	-0.307068
C150	C	1.185170	-0.361851	-0.057068
C151	C	1.435170	-0.111851	0.192932
C152	C	1.685170	0.138149	0.442932
C153	C	0.961078	-0.941990	-0.335099
C154	C	1.211078	-0.691990	-0.085099
C155	C	1.461078	-0.441990	0.164901
C156	C	1.711078	-0.191990	0.414901
C157	C	0.958283	-1.015493	-0.332042
C158	C	1.208283	-0.765493	-0.082042
C159	C	1.458283	-0.515493	0.167958
C160	C	1.708283	-0.265493	0.417958
C161	C	1.044489	-1.015661	-0.425608
C162	C	1.294489	-0.765661	-0.175608
C163	C	1.544489	-0.515661	0.074392
C164	C	1.794489	-0.265661	0.324392
C165	C	1.047288	-0.942162	-0.428660
C166	C	1.297288	-0.692162	-0.178660
C167	C	1.547288	-0.442162	0.071340
C168	C	1.797288	-0.192162	0.321340
C169	C	1.005579	-0.905331	-0.383409
C170	C	1.255579	-0.655331	-0.133409
C171	C	1.505579	-0.405331	0.116591
C172	C	1.755579	-0.155331	0.366591
N173	N	0.971212	-0.797313	-0.346137
N174	N	1.221212	-0.547313	-0.096137
N175	N	1.471212	-0.297313	0.153863
N176	N	1.721212	-0.047313	0.403863
N177	N	1.008441	-0.830205	-0.386539
N178	N	1.258441	-0.580205	-0.136539
N179	N	1.508441	-0.330205	0.113461
N180	N	1.758441	-0.080205	0.363461
C181	C	1.173328	-0.307079	-0.373986
C182	C	1.423328	-0.057079	-0.123986
C183	C	1.673328	0.192921	0.126014
C184	C	1.923328	0.442921	0.376014
C185	C	1.251549	-0.304081	-0.377263
C186	C	1.501549	-0.054081	-0.127263
C187	C	1.751549	0.195919	0.122737
C188	C	2.001549	0.445919	0.372737
C189	C	0.982150	-0.321727	-0.549257
C190	C	1.232150	-0.071727	-0.299257
C191	C	1.482150	0.178273	-0.049257
C192	C	1.732150	0.428273	0.200743
C193	C	0.978902	-0.324971	-0.627224
C194	C	1.228902	-0.074971	-0.377224
C195	C	1.478902	0.175029	-0.127224
C196	C	1.728902	0.425029	0.122776
C197	C	0.996933	-0.130550	-0.374007
C198	C	1.246933	0.119450	-0.124007
C199	C	1.496933	0.369450	0.125993
C200	C	1.746933	0.619450	0.375993
C201	C	0.999984	-0.052326	-0.377294
C202	C	1.249984	0.197674	-0.127294
C203	C	1.499984	0.447674	0.122706
C204	C	1.749984	0.697674	0.372706
C205	C	1.024134	-0.279764	-0.667631
C206	C	1.274134	-0.029764	-0.417631
C207	C	1.524134	0.220236	-0.167631
C208	C	1.774134	0.470236	0.082369
C209	C	1.021074	-0.282809	-0.740889
C210	C	1.271074	-0.032809	-0.490889
C211	C	1.521074	0.217191	-0.240889
C212	C	1.771074	0.467191	0.009111
C213	C	0.972783	-0.331065	-0.773740
C214	C	1.222783	-0.081065	-0.523740
C215	C	1.472783	0.168935	-0.273740
C216	C	1.722783	0.418935	-0.023740
C217	C	0.927546	-0.376274	-0.733328
C218	C	1.177546	-0.126274	-0.483328
C219	C	1.427546	0.123726	-0.233328
C220	C	1.677546	0.373726	0.016672
C221	C	0.930604	-0.373225	-0.660071
C222	C	1.180604	-0.123225	-0.410071
C223	C	1.430604	0.126775	-0.160071
C224	C	1.680604	0.376775	0.089929
C225	C	0.958621	-0.345193	-0.992429
C226	C	1.208621	-0.095193	-0.742429
C227	C	1.458621	0.154807	-0.492429
C228	C	1.708621	0.404807	-0.242429
C229	C	0.955568	-0.348241	-1.065691
C230	C	1.205568	-0.098241	-0.815691
C231	C	1.455568	0.151759	-0.565691
C232	C	1.705568	0.401759	-0.315691
C233	C	1.049095	-0.254774	-1.073247
C234	C	1.299095	-0.004774	-0.823247
C235	C	1.549095	0.245226	-0.573247
C236	C	1.799095	0.495226	-0.323247
C237	C	1.052152	-0.251732	-0.999989
C238	C	1.302152	-0.001732	-0.749989
C239	C	1.552152	0.248268	-0.499989
C240	C	1.802152	0.498268	-0.249989
C241	C	1.006912	-0.296938	-0.959583
C242	C	1.256912	-0.046938	-0.709583
C243	C	1.506912	0.203062	-0.459583
C244	C	1.756912	0.453062	-0.209583
N245	N	0.969655	-0.334181	-0.848621
N246	N	1.219655	-0.084181	-0.598621
N247	N	1.469655	0.165819	-0.348621
N248	N	1.719655	0.415819	-0.098621
N249	N	1.010037	-0.293819	-0.884703
N250	N	1.260037	-0.043819	-0.634703
N251	N	1.510037	0.206181	-0.384703
N252	N	1.760037	0.456181	-0.134703
C253	C	0.997408	-0.306481	-0.184050
C254	C	1.247408	-0.056481	0.065950
C255	C	1.497408	0.193519	0.315950
C256	C	1.747408	0.443519	0.565950
C257	C	1.000801	-0.303034	-0.106097
C258	C	1.250801	-0.053034	0.143903
C259	C	1.500801	0.196966	0.393903
C260	C	1.750801	0.446966	0.643903
H261	H	0.721660	-0.246268	-0.440033
H262	H	0.971660	0.003732	-0.190033
H263	H	1.221660	0.253732	0.059967
H264	H	1.471660	0.503732	0.309967
F265	F	0.579603	-0.418798	-0.252486
F266	F	0.829603	-0.168798	-0.002486
F267	F	1.079603	0.081202	0.247514
F268	F	1.329603	0.331202	0.497514
H269	H	0.722100	-0.402538	-0.270141
H270	H	0.972100	-0.152538	-0.020141
H271	H	1.222100	0.097462	0.229859
H272	H	1.472100	0.347462	0.479859
H273	H	0.258595	-0.381959	-0.292605
H274	H	0.508595	-0.131959	-0.042605
H275	H	0.758595	0.118041	0.207395
H276	H	1.008595	0.368041	0.457395
H277	H	0.922042	-1.045343	-0.292700
H278	H	1.172042	-0.795343	-0.042700
H279	H	1.422042	-0.545343	0.207300
H280	H	1.672042	-0.295343	0.457300
H281	H	0.921793	-0.382013	-0.959539
H282	H	1.171793	-0.132013	-0.709539
H283	H	1.421793	0.117987	-0.459539
H284	H	1.671793	0.367987	-0.209539
F285	F	1.088873	-1.054865	-0.473766
F286	F	1.338873	-0.804865	-0.223766
F287	F	1.588873	-0.554865	0.026234
F288	F	1.838873	-0.304865	0.276234
F289	F	1.068748	-0.573007	-0.452046
F290	F	1.318748	-0.323007	-0.202046
F291	F	1.568748	-0.073007	0.047954
F292	F	1.818748	0.176993	0.297954
H293	H	0.588330	-0.251406	-0.434465
H294	H	0.838330	-0.001406	-0.184465
H295	H	1.088330	0.248594	0.065535
H296	H	1.338330	0.498594	0.315535
H297	H	0.258154	-0.225684	-0.462491
H298	H	0.508154	0.024316	-0.212491
H299	H	0.758154	0.274316	0.037509
H300	H	1.008154	0.524316	0.287509
H301	H	0.893763	-0.410031	-0.627173
H302	H	1.143763	-0.160031	-0.377173
H303	H	1.393763	0.089969	-0.127173
H304	H	1.643763	0.339969	0.122827
H305	H	1.052540	-0.715507	-0.434417
H306	H	1.302540	-0.465507	-0.184417
H307	H	1.552540	-0.215507	0.065583
H308	H	1.802540	0.034493	0.315583
H309	H	1.083524	-0.912311	-0.467999
H310	H	1.333524	-0.662311	-0.217999
H311	H	1.583524	-0.412311	0.032001
H312	H	1.833524	-0.162311	0.282001
F313	F	0.876149	-0.427630	-0.768292
F314	F	1.126149	-0.177630	-0.518292
F315	F	1.376149	0.072370	-0.268292
F316	F	1.626149	0.322370	-0.018292
H317	H	0.927118	-0.912008	-0.298252
H318	H	1.177118	-0.662008	-0.048252
H319	H	1.427118	-0.412008	0.201748
H320	H	1.677118	-0.162008	0.451748
H321	H	0.896134	-0.715206	-0.264675
H322	H	1.146134	-0.465206	-0.014675
H323	H	1.396134	-0.215206	0.235325
H324	H	1.646134	0.034794	0.485325
H325	H	1.063460	-0.240470	-0.640890
H326	H	1.313460	0.009530	-0.390890
H327	H	1.563460	0.259530	-0.140890
H328	H	1.813460	0.509530	0.109110
F329	F	0.400653	-0.209423	-0.480150
F330	F	0.650653	0.040577	-0.230150
F331	F	0.900653	0.290577	0.019850
F332	F	1.150653	0.540577	0.269850
H333	H	0.901211	-0.581862	-0.270220
H334	H	1.151211	-0.331862	-0.020220
H335	H	1.401211	-0.081862	0.229780
H336	H	1.651211	0.168138	0.479780
F337	F	0.401145	-0.387212	-0.286827
F338	F	0.651145	-0.137212	-0.036827
F339	F	0.901145	0.112788	0.213173
F340	F	1.151145	0.362788	0.463173
F341	F	1.069240	-0.234717	-0.783890
F342	F	1.319240	0.015283	-0.533890
F343	F	1.569240	0.265283	-0.283890
F344	F	1.819240	0.515283	-0.033890
H345	H	0.916242	-0.387538	-1.092435
H346	H	1.166242	-0.137538	-0.842435
H347	H	1.416242	0.112462	-0.592435
H348	H	1.666242	0.362462	-0.342435
H349	H	1.091477	-0.212438	-0.973247
H350	H	1.341477	0.037562	-0.723247
H351	H	1.591477	0.287562	-0.473247
H352	H	1.841477	0.537562	-0.223247
F353	F	1.097238	-0.206664	-1.116255
F354	F	1.347238	0.043336	-0.866255
F355	F	1.597238	0.293336	-0.616255
F356	F	1.847238	0.543336	-0.366255
