data_functionalizedCrystal
_audit_creation_method	'MofGen! by Chris Wilmer'
_symmetry_space_group_name_H-M	'P1'
_symmetry_Int_Tables_number	1
_symmetry_cell_setting	triclinic
loop_
_symmetry_equiv_pos_as_xyz
  x,y,z
_cell_length_a	13.897449
_cell_length_b	12.759400
_cell_length_c	12.759393
_cell_angle_alpha	89.976116
_cell_angle_beta	90.023713
_cell_angle_gamma	89.996721
loop_
_atom_site_label
_atom_site_type_symbol
_atom_site_fract_x
_atom_site_fract_y
_atom_site_fract_z
Zn1	Zn	-1.474806	-0.418220	-0.594146
Zn2	Zn	-1.474738	-0.593936	-0.418487
Zn3	Zn	-1.313493	-0.418271	-0.418473
Zn4	Zn	-1.313517	-0.593857	-0.594115
O5	O	-1.394139	-0.506071	-0.506305
O6	O	-1.609779	-0.441541	-0.570863
O7	O	-1.453310	-0.570687	-0.271464
O8	O	-1.334910	-0.271243	-0.441783
O9	O	-1.609729	-0.570638	-0.441807
O10	O	-1.453426	-0.271206	-0.570850
O11	O	-1.334844	-0.441627	-0.271454
O12	O	-1.178515	-0.441551	-0.441754
O13	O	-1.334951	-0.570504	-0.741141
O14	O	-1.178532	-0.570553	-0.570797
O15	O	-1.453450	-0.441465	-0.741163
O16	O	-1.453333	-0.740946	-0.441777
O17	O	-1.334885	-0.740888	-0.570811
C18	C	-1.143524	-0.506050	-0.506271
C19	C	-1.036310	-0.506066	-0.506282
C20	C	-1.394131	-0.779038	-0.506315
C21	C	-1.394215	-0.895815	-0.506354
C22	C	-1.394211	-0.505970	-0.780339
C23	C	-1.394242	-0.505927	-0.897115
C24	C	-0.840015	-0.506065	-0.506301
C25	C	-0.949248	-0.506062	-0.506287
C26	C	-0.645732	-0.506086	-0.506330
C27	C	-0.752945	-0.506074	-0.506315
C28	C	-1.394173	-0.232038	-0.506319
C29	C	-1.394188	-0.115261	-0.506324
C30	C	-1.332493	-0.060417	-0.439132
C31	C	-1.332504	0.049307	-0.439149
C32	C	-1.455913	0.049333	-0.573554
C33	C	-1.455896	-0.060389	-0.573541
C34	C	-1.218758	0.199260	-0.401610
C35	C	-1.157072	0.254108	-0.334401
C36	C	-1.142232	0.218467	-0.231880
C37	C	-1.189092	0.127981	-0.196548
C38	C	-1.250786	0.073139	-0.263751
C39	C	-1.265608	0.108777	-0.366286
C40	C	-1.569643	-0.210343	-0.611069
C41	C	-1.631342	-0.265187	-0.678268
C42	C	-1.646192	-0.229549	-0.780791
C43	C	-1.599349	-0.139060	-0.816120
C44	C	-1.537650	-0.084215	-0.748921
C45	C	-1.522798	-0.119861	-0.646400
C46	C	-1.455948	-0.438725	-0.951991
C47	C	-1.455965	-0.438680	-1.061715
C48	C	-1.332565	-0.573047	-1.061679
C49	C	-1.332544	-0.573086	-0.951956
C50	C	-1.490474	-0.314725	-1.211681
C51	C	-1.552196	-0.247532	-1.266560
C52	C	-1.646311	-0.231425	-1.230972
C53	C	-1.678724	-0.282525	-1.140506
C54	C	-1.617007	-0.349725	-1.085632
C55	C	-1.522879	-0.365813	-1.121219
C56	C	-1.298045	-0.697043	-0.801989
C57	C	-1.236332	-0.764250	-0.747113
C58	C	-1.142215	-0.780368	-0.782699
C59	C	-1.109806	-0.729286	-0.873169
C60	C	-1.171519	-0.662080	-0.928044
C61	C	-1.265634	-0.645960	-0.892451
C62	C	-1.394122	-0.506096	-0.233338
C63	C	-1.394278	-0.505843	-0.116562
H64	H	-1.288940	-0.000532	-0.234983
C65	C	-1.523796	0.109696	-0.647476
H66	H	-1.514979	0.182898	-0.637853
H67	H	-1.509698	0.091740	-0.718064
H68	H	-1.588602	0.091698	-0.632098
H69	H	-1.262732	-0.805853	-0.673455
H70	H	-1.118918	0.327782	-0.363179
C71	C	-1.782256	-0.264817	-1.101365
H72	H	-1.792720	-0.304879	-1.039636
H73	H	-1.791421	-0.192599	-1.086310
H74	H	-1.826501	-0.286068	-1.154001
H75	H	-1.374680	-0.683917	-0.773000
H76	H	-1.611444	-0.110039	-0.899601
H77	H	-1.696565	-0.176714	-1.275662
H78	H	-1.696442	-0.274209	-0.835500
H79	H	-1.525797	-0.205926	-1.340217
H80	H	-1.033170	-0.742414	-0.902147
C81	C	-1.264709	-0.646926	-1.122002
H82	H	-1.227950	-0.686949	-1.073602
H83	H	-1.301609	-0.692692	-1.164810
H84	H	-1.222691	-0.606712	-1.164797
C85	C	-1.264606	-0.120773	-0.365208
H86	H	-1.227858	-0.072391	-0.325202
H87	H	-1.301481	-0.163596	-0.319429
H88	H	-1.222579	-0.163555	-0.405397
H89	H	-1.091973	-0.835103	-0.738015
H90	H	-1.177013	0.098977	-0.113060
C91	C	-1.386943	-0.332435	-1.250822
H92	H	-1.354822	-0.379764	-1.205179
H93	H	-1.388605	-0.360968	-1.319552
H94	H	-1.353523	-0.267495	-1.251867
C95	C	-1.135868	-0.605885	-1.027556
H96	H	-1.070974	-0.625102	-1.040891
H97	H	-1.174861	-0.625670	-1.085422
H98	H	-1.139761	-0.532206	-1.017736
H99	H	-1.230824	0.228278	-0.485095
C100	C	-1.074373	0.278793	-0.157956
H101	H	-1.048588	0.337781	-0.193683
H102	H	-1.109239	0.301741	-0.098198
H103	H	-1.023409	0.234075	-0.136402
C104	C	-1.682869	-0.364726	-0.639408
H105	H	-1.665179	-0.378108	-0.568728
H106	H	-1.750517	-0.354920	-0.643650
H107	H	-1.664680	-0.422567	-0.681868
H108	H	-1.499510	-0.010532	-0.777694
H109	H	-1.506183	-0.384037	-0.907343
H110	H	-1.557545	-0.239378	-0.527591
H111	H	-1.643398	-0.391334	-1.011980
