data_functionalizedCrystal
_audit_creation_method	'MofGen! by Chris Wilmer'
_symmetry_space_group_name_H-M	'P1'
_symmetry_Int_Tables_number	1
_symmetry_cell_setting	triclinic
loop_
_symmetry_equiv_pos_as_xyz
  x,y,z
_cell_length_a	18.101398
_cell_length_b	21.295417
_cell_length_c	18.101389
_cell_angle_alpha	89.978482
_cell_angle_beta	89.990255
_cell_angle_gamma	90.025259
loop_
_atom_site_label
_atom_site_type_symbol
_atom_site_fract_x
_atom_site_fract_y
_atom_site_fract_z
Zn1	Zn	1.132128	-0.250750	-0.418535
Zn2	Zn	1.132027	-0.356003	-0.294686
Zn3	Zn	1.008287	-0.250744	-0.294727
Zn4	Zn	1.008241	-0.355977	-0.418506
O5	O	1.070171	-0.303369	-0.356614
O6	O	1.235748	-0.264726	-0.402101
O7	O	1.115590	-0.342049	-0.191059
O8	O	1.024776	-0.162655	-0.311179
O9	O	1.235673	-0.342055	-0.311110
O10	O	1.115762	-0.162660	-0.402140
O11	O	1.024678	-0.264715	-0.191089
O12	O	0.904648	-0.264690	-0.311152
O13	O	1.024698	-0.342010	-0.522143
O14	O	0.904614	-0.342004	-0.402092
O15	O	1.115717	-0.264700	-0.522164
O16	O	1.115545	-0.444089	-0.311083
O17	O	1.024600	-0.444070	-0.402053
C18	C	0.877760	-0.303344	-0.356624
C19	C	0.795446	-0.303348	-0.356646
C20	C	0.496355	-0.303385	-0.356615
C21	C	0.527684	-0.352265	-0.413550
C22	C	0.613302	-0.352112	-0.413784
C23	C	0.644738	-0.303368	-0.356630
C24	C	0.613681	-0.237068	-0.377962
C25	C	0.528036	-0.237361	-0.378367
C26	C	0.527903	-0.320222	-0.278211
C27	C	0.613553	-0.321676	-0.278630
C28	C	0.728597	-0.303353	-0.356638
C29	C	0.412496	-0.303395	-0.356609
C30	C	1.070076	-0.466920	-0.356576
C31	C	1.070104	-0.536888	-0.356585
C32	C	1.117453	-0.569700	-0.403982
C33	C	1.117479	-0.635443	-0.404000
C34	C	1.070164	-0.668371	-0.356608
C35	C	1.022806	-0.635551	-0.309208
C36	C	1.022776	-0.569810	-0.309196
N37	N	1.064571	-0.771624	-0.291797
N38	N	1.064604	-0.834075	-0.291810
C39	C	1.070250	-0.866445	-0.356642
N40	N	1.075877	-0.834005	-0.421461
N41	N	1.075848	-0.771548	-0.421447
C42	C	1.070191	-0.739656	-0.356616
C43	C	1.117630	-0.970543	-0.404063
C44	C	1.117651	-1.036286	-0.404082
C45	C	1.022982	-1.036394	-0.309283
C46	C	1.022957	-0.970651	-0.309270
C47	C	1.070285	-0.937730	-0.356659
C48	C	1.263333	-0.303394	-0.356604
C49	C	1.345647	-0.303405	-0.356600
C50	C	1.070214	-0.303353	-0.549776
C51	C	1.070232	-0.303346	-0.632090
C52	C	1.070286	-0.139178	-0.356668
C53	C	1.070335	-0.069210	-0.356690
C54	C	1.070275	-0.303228	-0.931181
C55	C	1.012811	-0.351714	-0.899843
C56	C	1.012966	-0.351939	-0.814224
C57	C	1.070253	-0.303286	-0.782798
C58	C	1.148279	-0.321298	-0.813883
C59	C	1.147959	-0.321617	-0.899528
C60	C	1.050392	-0.236622	-0.899615
C61	C	1.048656	-0.237006	-0.813964
C62	C	1.070245	-0.303318	-0.698939
C63	C	1.070288	-0.303197	-1.015041
C64	C	1.070171	-0.303339	-0.164203
C65	C	1.070296	-0.303168	-0.081890
H66	H	0.507313	-0.199638	-0.338801
H67	H	1.156030	-0.662163	-0.442605
H68	H	0.507070	-0.401591	-0.400329
H69	H	0.984280	-0.662365	-0.270623
H70	H	0.984217	-0.543094	-0.270599
Br71	Br	0.916078	-0.333117	-0.934169
H72	H	1.192244	-0.287093	-0.793528
Br73	Br	1.034421	-0.433491	-0.935770
H74	H	1.192225	-0.287834	-0.920259
Br75	Br	1.176863	-0.401589	-0.778134
Br76	Br	0.916531	-0.333147	-0.779190
Br77	Br	0.957207	-0.209272	-0.935615
Br78	Br	0.494761	-0.213559	-0.473898
H79	H	1.156208	-1.063001	-0.442682
Br80	Br	1.120151	-0.176411	-0.933392
Br81	Br	1.181858	-0.925860	-0.468376
Br82	Br	1.034889	-0.434219	-0.780068
H83	H	0.633859	-0.370463	-0.262542
Br84	Br	0.648302	-0.434064	-0.391532
Br85	Br	0.647481	-0.333547	-0.510608
H86	H	1.164814	-0.370307	-0.919504
Br87	Br	0.958692	-0.926118	-0.244944
H88	H	0.991235	-0.223423	-0.793648
H89	H	0.984452	-1.063203	-0.270700
Br90	Br	0.647620	-0.174719	-0.311007
H91	H	1.087456	-0.198963	-0.792572
H92	H	0.635146	-0.222528	-0.434656
H93	H	0.506173	-0.341268	-0.471306
H94	H	0.506291	-0.367740	-0.258826
H95	H	0.634952	-0.288659	-0.233931
H96	H	0.507644	-0.284618	-0.235790
Br97	Br	1.181680	-0.525024	-0.468299
