data_functionalizedCrystal
_audit_creation_method	'MofGen! by Chris Wilmer'
_symmetry_space_group_name_H-M	'P1'
_symmetry_Int_Tables_number	1
_symmetry_cell_setting	triclinic
loop_
_symmetry_equiv_pos_as_xyz
  x,y,z
_cell_length_a	19.288864
_cell_length_b	10.654545
_cell_length_c	18.366186
_cell_angle_alpha	89.996152
_cell_angle_beta	89.977106
_cell_angle_gamma	83.810837
loop_
_atom_site_label
_atom_site_type_symbol
_atom_site_fract_x
_atom_site_fract_y
_atom_site_fract_z
O1	O	0.922379	0.156657	-0.060780
O2	O	0.720257	0.177789	-0.060729
O3	O	0.825965	-0.015616	-0.060755
O4	O	0.816671	0.350062	-0.060754
O5	O	0.825946	-0.015625	0.060344
O6	O	0.720239	0.177780	0.060370
O7	O	0.922361	0.156647	0.060320
Zn8	Zn	0.821297	0.167212	0.079572
Zn9	Zn	0.821321	0.167224	-0.079982
O10	O	0.816653	0.350052	0.060345
C11	C	0.694367	0.177105	-0.000173
C12	C	0.617250	0.175063	-0.000154
C13	C	0.825273	-0.062404	-0.000207
C14	C	0.823231	-0.201803	-0.000211
C15	C	0.573297	0.288545	-0.000165
C16	C	0.500837	0.286627	-0.000173
C17	C	0.472334	0.171222	-0.000185
C18	C	0.516296	0.057725	-0.000170
C19	C	0.588754	0.059646	-0.000155
C20	C	0.363484	0.080503	-0.042636
C21	C	0.291027	0.078587	-0.042656
C22	C	0.248849	0.165292	-0.000229
C23	C	0.279136	0.253935	0.042208
C24	C	0.351594	0.255855	0.042224
C25	C	0.393766	0.169126	-0.000201
C26	C	0.126327	0.276702	-0.000248
C27	C	0.053866	0.274779	-0.000251
C28	C	0.069327	0.045875	-0.000255
C29	C	0.141786	0.047800	-0.000244
C30	C	0.170281	0.163217	-0.000244
C31	C	0.823259	-0.201802	-0.132237
C32	C	0.822316	-0.267290	-0.198249
C33	C	0.820398	-0.398268	-0.198250
C34	C	0.819420	-0.463760	-0.132230
C35	C	0.820362	-0.398271	-0.066218
C36	C	0.822283	-0.267291	-0.066225
C37	C	0.820329	-0.398272	0.065807
C38	C	0.822253	-0.267295	0.065809
C39	C	0.819351	-0.463763	0.131826
C40	C	0.820299	-0.398276	0.197840
C41	C	0.822218	-0.267290	0.197838
C42	C	0.823196	-0.201806	0.131821
C43	C	0.948251	0.157332	-0.000238
C44	C	1.025368	0.159373	-0.000262
C45	C	0.817345	0.396840	-0.000205
C46	C	0.819387	0.536240	-0.000206
N47	N	0.821285	0.167203	0.188463
N48	N	0.821337	0.167224	-0.188873
C49	C	0.868109	0.081605	0.226552
C50	C	0.868113	0.081599	0.302780
C51	C	0.821301	0.167213	0.340916
C52	C	0.774469	0.252817	0.302818
C53	C	0.774461	0.252812	0.226591
C54	C	0.812752	0.281634	0.461678
C55	C	0.812765	0.281641	0.537903
C56	C	0.821321	0.167229	0.576023
C57	C	0.829879	0.052804	0.537909
C58	C	0.829871	0.052799	0.461683
C59	C	0.821304	0.167228	0.423571
C60	C	0.868151	0.081618	0.696767
C61	C	0.868151	0.081610	0.772996
C62	C	0.774510	0.252840	0.773033
C63	C	0.774507	0.252836	0.696805
C64	C	0.821331	0.167226	0.658677
H65	H	0.465044	0.379040	-0.000180
N66	N	0.803530	0.405047	0.420568
H67	H	0.804822	0.387683	0.366496
H68	H	0.757196	0.452860	0.433913
H69	H	0.906243	0.011892	0.333798
H70	H	0.624542	-0.032767	-0.000146
H71	H	0.493084	-0.036239	-0.000189
H72	H	0.819624	-0.451587	-0.252003
H73	H	0.244796	0.324537	0.076757
N74	N	0.825341	-0.060537	-0.132236
H75	H	0.825820	-0.028987	-0.184073
H76	H	0.782815	-0.018655	-0.106280
N77	N	0.839099	-0.070603	0.420573
H78	H	0.844521	-0.143088	0.456283
H79	H	0.796866	-0.077739	0.388970
H80	H	0.906276	0.011905	0.665722
H81	H	0.376251	0.328027	0.076780
H82	H	0.736353	0.322524	0.333872
N83	N	0.817361	-0.605030	-0.132228
H84	H	0.816915	-0.636580	-0.184064
H85	H	0.859882	-0.646881	-0.106284
H86	H	0.822975	-0.213975	0.251594
H87	H	0.906234	0.011894	0.195510
N88	N	0.723955	0.345135	0.185504
H89	H	0.694296	0.399368	0.221227
H90	H	0.750805	0.400532	0.153860
H91	H	0.736382	0.322543	0.665791
H92	H	0.823112	-0.213952	-0.252001
H93	H	0.596493	0.382526	-0.000167
N94	N	0.839112	-0.070610	0.579012
H95	H	0.837815	-0.053250	0.633085
H96	H	0.800247	-0.122732	0.565709
H97	H	0.736392	0.322543	0.804082
H98	H	0.817785	-0.570411	0.131821
H99	H	0.177574	-0.044609	-0.000239
N100	N	0.408973	-0.013016	-0.088402
H101	H	0.442659	-0.066160	-0.055899
H102	H	0.378743	-0.069367	-0.115286
H103	H	0.819498	-0.451608	0.251588
N104	N	0.825265	-0.060539	0.131827
H105	H	0.868713	-0.039405	0.105904
H106	H	0.782723	-0.018661	0.105929
N107	N	0.918667	-0.010697	0.814082
H108	H	0.948332	-0.064915	0.778358
H109	H	0.949593	0.037277	0.845682
N110	N	0.803529	0.405048	0.579008
H111	H	0.842379	0.457242	0.565717
H112	H	0.757162	0.452789	0.565745
N113	N	0.157068	0.401179	-0.000244
H114	H	0.118226	0.472781	-0.000246
H115	H	0.186772	0.406956	0.044653
H116	H	0.018080	0.367194	-0.000256
H117	H	0.046120	-0.048091	-0.000310
N118	N	0.258362	-0.017018	-0.088422
H119	H	0.225208	0.028298	-0.124714
H120	H	0.296117	-0.071638	-0.115241
