data_functionalizedCrystal
_audit_creation_method	'MofGen! by Chris Wilmer'
_symmetry_space_group_name_H-M	'P1'
_symmetry_Int_Tables_number	1
_symmetry_cell_setting	triclinic
loop_
_symmetry_equiv_pos_as_xyz
  x,y,z
_cell_length_a	29.839131
_cell_length_b	29.839134
_cell_length_c	29.839125
_cell_angle_alpha	89.978020
_cell_angle_beta	90.025363
_cell_angle_gamma	89.969912
loop_
_atom_site_label
_atom_site_type_symbol
_atom_site_fract_x
_atom_site_fract_y
_atom_site_fract_z
Zn1	Zn	-0.178978	-0.686739	0.254101
Zn2	Zn	-0.254090	-0.686679	0.178961
Zn3	Zn	-0.178968	-0.611622	0.178971
Zn4	Zn	-0.254075	-0.611578	0.254049
O5	O	-0.216528	-0.649154	0.216521
O6	O	-0.188952	-0.749598	0.244151
O7	O	-0.244127	-0.676716	0.116095
O8	O	-0.116102	-0.621630	0.188963
O9	O	-0.244137	-0.749554	0.188946
O10	O	-0.116109	-0.676818	0.244161
O11	O	-0.188935	-0.621572	0.116102
O12	O	-0.188921	-0.548749	0.188912
O13	O	-0.244111	-0.621554	0.316923
O14	O	-0.244101	-0.548716	0.244072
O15	O	-0.188937	-0.676775	0.316961
O16	O	-0.316955	-0.676673	0.188896
O17	O	-0.316944	-0.621497	0.244063
C18	C	-0.333250	-0.649086	0.216483
C19	C	-0.383185	-0.649098	0.216482
C20	C	-0.216509	-0.532432	0.216488
C21	C	-0.216511	-0.482497	0.216485
C22	C	-0.216524	-0.649167	0.333699
C23	C	-0.216522	-0.649172	0.383633
C24	C	-0.692797	-0.677885	0.245303
C25	C	-0.880470	-0.677933	0.245330
O26	O	-0.904708	-0.702342	0.269807
N27	N	-0.903970	-0.649231	0.216570
C28	C	-0.880548	-0.620512	0.187804
O29	O	-0.904843	-0.596096	0.163346
C30	C	-0.692876	-0.620461	0.187780
C31	C	-0.669379	-0.649169	0.216538
C32	C	-0.669300	-0.706590	0.274059
C33	C	-0.622384	-0.706579	0.274051
C34	C	-0.598966	-0.677863	0.245286
C35	C	-0.622463	-0.649158	0.216529
C36	C	-0.669456	-0.591740	0.159016
C37	C	-0.622535	-0.591729	0.159013
C38	C	-0.599037	-0.620437	0.187771
C39	C	-0.552130	-0.620431	0.187755
N40	N	-0.528630	-0.649134	0.216515
C41	C	-0.552048	-0.677850	0.245280
C42	C	-0.979079	-0.620541	0.187818
C43	C	-1.025997	-0.620554	0.187824
C44	C	-1.025915	-0.677975	0.245351
C45	C	-0.978996	-0.677964	0.245342
C46	C	-0.955579	-0.649244	0.216578
C47	C	-0.453522	-0.677826	0.245259
C48	C	-0.406603	-0.677814	0.245247
C49	C	-0.406688	-0.620391	0.187722
C50	C	-0.453604	-0.620404	0.187732
C51	C	-0.477020	-0.649123	0.216505
O52	O	-0.527863	-0.596032	0.163295
O53	O	-0.527746	-0.702255	0.269742
C54	C	-0.739712	-0.677895	0.245312
C55	C	-0.763210	-0.649190	0.216556
C56	C	-0.739792	-0.620474	0.187790
C57	C	-0.810128	-0.649203	0.216561
C58	C	-0.833546	-0.677919	0.245326
C59	C	-0.810046	-0.706622	0.274086
C60	C	-0.763130	-0.706611	0.274077
C61	C	-0.763291	-0.591772	0.159031
C62	C	-0.810207	-0.591785	0.159041
C63	C	-0.833625	-0.620501	0.187807
C64	C	-0.099349	-0.649235	0.216568
C65	C	-0.049415	-0.649270	0.216589
C66	C	-0.216547	-0.766333	0.216553
C67	C	-0.216555	-0.816267	0.216567
C68	C	-0.245303	-0.172847	0.245207
C69	C	-0.245315	0.014827	0.245227
O70	O	-0.269774	0.039098	0.269629
N71	N	-0.216544	0.038288	0.216554
C72	C	-0.187766	0.014828	0.187877
O73	O	-0.163291	0.039089	0.163492
C74	C	-0.187751	-0.172844	0.187859
C75	C	-0.216527	-0.196303	0.216531
C76	C	-0.274076	-0.196305	0.273877
C77	C	-0.274075	-0.243221	0.273870
C78	C	-0.245299	-0.266677	0.245193
C79	C	-0.216526	-0.243219	0.216524
C80	C	-0.158971	-0.196303	0.159184
C81	C	-0.158969	-0.243224	0.159183
C82	C	-0.187745	-0.266683	0.187855
C83	C	-0.187749	-0.313591	0.187840
N84	N	-0.216520	-0.337052	0.216513
C85	C	-0.245295	-0.313595	0.245189
C86	C	-0.187776	0.113358	0.187887
C87	C	-0.187780	0.160276	0.187891
C88	C	-0.245329	0.160272	0.245242
C89	C	-0.245327	0.113353	0.245236
C90	C	-0.216547	0.089897	0.216560
C91	C	-0.245290	-0.412121	0.245172
C92	C	-0.245287	-0.459041	0.245161
C93	C	-0.187736	-0.459032	0.187812
C94	C	-0.187740	-0.412117	0.187821
C95	C	-0.216519	-0.388662	0.216505
O96	O	-0.163299	-0.337891	0.163455
O97	O	-0.269759	-0.337865	0.269577
C98	C	-0.245304	-0.125931	0.245214
C99	C	-0.216531	-0.102472	0.216545
C100	C	-0.187755	-0.125929	0.187868
C101	C	-0.216535	-0.055554	0.216548
C102	C	-0.245310	-0.032098	0.245225
C103	C	-0.274082	-0.055559	0.273898
C104	C	-0.274080	-0.102474	0.273891
C105	C	-0.158984	-0.102468	0.159196
C106	C	-0.158989	-0.055552	0.159205
C107	C	-0.187764	-0.032096	0.187881
C108	C	-0.216499	-0.649168	0.099798
C109	C	-0.216374	-0.649250	0.049864
C110	C	-0.187718	-0.677955	0.693300
C111	C	-0.187680	-0.677978	0.880973
O112	O	-0.163232	-0.702417	0.905257
N113	N	-0.216402	-0.649231	0.904419
C114	C	-0.245133	-0.620475	0.880943
O115	O	-0.269559	-0.596022	0.905192
C116	C	-0.245169	-0.620451	0.693271
C117	C	-0.216448	-0.649202	0.669828
C118	C	-0.158999	-0.706704	0.669856
C119	C	-0.159011	-0.706700	0.622941
C120	C	-0.187741	-0.677947	0.599469
C121	C	-0.216460	-0.649198	0.622912
C122	C	-0.273898	-0.591693	0.669797
C123	C	-0.273903	-0.591689	0.622876
C124	C	-0.245183	-0.620440	0.599432
C125	C	-0.245202	-0.620441	0.552525
N126	N	-0.216480	-0.649188	0.529079
C127	C	-0.187749	-0.677941	0.552551
C128	C	-0.245113	-0.620491	0.979474
C129	C	-0.245105	-0.620497	1.026392
C130	C	-0.187650	-0.677999	1.026418
C131	C	-0.187661	-0.677994	0.979499
C132	C	-0.216391	-0.649237	0.956028
C133	C	-0.187776	-0.677930	0.454025
C134	C	-0.187792	-0.677925	0.407105
C135	C	-0.245244	-0.620421	0.407083
C136	C	-0.245230	-0.620428	0.453999
C137	C	-0.216493	-0.649184	0.477469
O138	O	-0.269633	-0.596011	0.528212
O139	O	-0.163320	-0.702383	0.528294
C140	C	-0.187706	-0.677959	0.740215
C141	C	-0.216425	-0.649211	0.763659
C142	C	-0.245155	-0.620458	0.740187
C143	C	-0.216417	-0.649217	0.810577
C144	C	-0.187686	-0.677970	0.834049
C145	C	-0.158964	-0.706717	0.810603
C146	C	-0.158976	-0.706712	0.763687
C147	C	-0.273877	-0.591711	0.763633
C148	C	-0.273864	-0.591718	0.810548
C149	C	-0.245133	-0.620471	0.834020
H150	H	-0.387473	-0.701192	0.268665
H151	H	-0.472736	-0.597032	0.164312
C152	C	-0.953322	-0.588951	0.156170
C153	C	-0.921085	-0.553652	0.175585
C154	C	-0.895330	-0.522065	0.143935
C155	C	-0.901813	-0.525777	0.092869
C156	C	-0.934051	-0.561078	0.073452
C157	C	-0.959806	-0.592665	0.105102
H158	H	-0.916285	-0.550903	0.213389
H159	H	-0.871465	-0.495934	0.158309
H160	H	-0.882747	-0.502395	0.069440
H161	H	-0.938851	-0.563827	0.035648
H162	H	-0.983671	-0.618796	0.090728
H163	H	-0.164374	-0.701344	0.473128
H164	H	-0.268621	-0.597020	0.473087
C165	C	-0.695292	-0.560154	0.127385
C166	C	-0.688863	-0.563843	0.076316
C167	C	-0.714697	-0.532252	0.044685
C168	C	-0.746962	-0.496972	0.064123
C169	C	-0.753393	-0.493282	0.115194
C170	C	-0.727558	-0.524873	0.146825
H171	H	-0.664977	-0.589960	0.061925
H172	H	-0.709936	-0.534984	0.006879
H173	H	-0.766086	-0.473587	0.040707
H174	H	-0.777278	-0.467164	0.129585
H175	H	-0.732319	-0.522140	0.184632
C176	C	-0.156195	-0.709551	0.381318
C177	C	-0.175673	-0.744808	0.349071
C178	C	-0.144077	-0.776433	0.323285
C179	C	-0.093004	-0.772800	0.329746
C180	C	-0.073524	-0.737542	0.361995
C181	C	-0.105119	-0.705917	0.387781
H182	H	-0.213483	-0.747498	0.344286
H183	H	-0.158498	-0.802533	0.299412
H184	H	-0.069615	-0.796211	0.310658
H185	H	-0.035714	-0.734851	0.366780
H186	H	-0.090698	-0.679817	0.411654
H187	H	-0.603470	-0.568340	0.135590
C188	C	-0.737288	-0.738188	0.305716
C189	C	-0.743707	-0.789263	0.302109
C190	C	-0.717869	-0.820840	0.333751
C191	C	-0.685611	-0.801342	0.368999
C192	C	-0.679190	-0.750264	0.372607
C193	C	-0.705029	-0.718687	0.340965
H194	H	-0.767588	-0.803699	0.276015
H195	H	-0.722622	-0.858651	0.331080
H196	H	-0.666484	-0.824717	0.392423
H197	H	-0.655310	-0.735828	0.398702
H198	H	-0.700276	-0.680875	0.343636
H199	H	-0.135588	-0.730125	0.744604
C200	C	-0.305735	-0.170509	0.305423
C201	C	-0.356798	-0.176945	0.301649
C202	C	-0.388462	-0.151153	0.333195
C203	C	-0.369062	-0.118924	0.368513
C204	C	-0.317996	-0.112487	0.372288
C205	C	-0.286332	-0.138279	0.340743
H206	H	-0.371162	-0.200804	0.275503
H207	H	-0.426265	-0.155919	0.330400
H208	H	-0.392502	-0.099831	0.391865
H209	H	-0.303633	-0.088628	0.398434
H210	H	-0.248529	-0.133513	0.343537
C211	C	-0.305734	-0.029751	0.305443
C212	C	-0.340973	0.002535	0.285911
C213	C	-0.372621	0.028345	0.317456
C214	C	-0.369031	0.021871	0.368535
C215	C	-0.333790	-0.010416	0.388070
C216	C	-0.302142	-0.036227	0.356524
H217	H	-0.343632	0.007329	0.248097
H218	H	-0.398709	0.052246	0.302995
H219	H	-0.392459	0.040978	0.391887
H220	H	-0.331131	-0.015210	0.425884
H221	H	-0.276055	-0.060128	0.370986
C222	C	-0.305512	-0.560057	0.597060
C223	C	-0.340796	-0.579496	0.564806
C224	C	-0.372406	-0.547866	0.538992
C225	C	-0.368732	-0.496798	0.545432
C226	C	-0.333446	-0.477356	0.577687
C227	C	-0.301836	-0.508986	0.603501
H228	H	-0.343517	-0.617302	0.560037
H229	H	-0.398527	-0.562258	0.515114
H230	H	-0.392132	-0.473384	0.526323
H231	H	-0.330725	-0.439550	0.582456
H232	H	-0.275715	-0.494594	0.627379
H233	H	-0.959868	-0.701340	0.268760
C234	C	-0.380923	-0.588801	0.156085
C235	C	-0.329315	-0.588787	0.156084
C236	C	-0.303548	-0.557193	0.124451
C237	C	-0.329389	-0.525612	0.092819
C238	C	-0.381000	-0.525624	0.092818
C239	C	-0.406767	-0.557218	0.124451
H240	H	-0.310183	-0.612167	0.179501
H241	H	-0.265342	-0.557184	0.124451
H242	H	-0.310315	-0.502224	0.069402
H243	H	-0.400131	-0.502245	0.069401
H244	H	-0.444972	-0.557227	0.124451
H245	H	-1.044990	-0.701357	0.268772
H246	H	-0.268759	0.094256	0.268583
C247	C	-1.051840	-0.588978	0.156186
C248	C	-1.045411	-0.592676	0.105118
C249	C	-1.071252	-0.561096	0.073481
C250	C	-1.103523	-0.525818	0.092912
C251	C	-1.109953	-0.522118	0.143983
C252	C	-1.084112	-0.553698	0.175620
H253	H	-1.021521	-0.618792	0.090731
H254	H	-1.066492	-0.563835	0.035675
H255	H	-1.122652	-0.502440	0.069493
H256	H	-1.133843	-0.496002	0.158369
H257	H	-1.088872	-0.550960	0.213426
H258	H	-0.164257	-0.701411	1.045537
H259	H	-0.135573	-0.730130	0.829722
H260	H	-0.135623	-0.730112	0.603857
C261	C	-0.276941	-0.484844	0.276703
C262	C	-0.328007	-0.478363	0.272940
C263	C	-0.359660	-0.504165	0.304482
C264	C	-0.340246	-0.536448	0.339787
C265	C	-0.289178	-0.542930	0.343552
C266	C	-0.257525	-0.517129	0.312010
H267	H	-0.342380	-0.454465	0.246804
H268	H	-0.397464	-0.499366	0.301694
H269	H	-0.363677	-0.555548	0.363136
H270	H	-0.274804	-0.566829	0.369688
H271	H	-0.219721	-0.521928	0.314797
H272	H	-0.268759	0.179378	0.268592
H273	H	-0.744228	-0.568387	0.135607
C274	C	-0.127333	-0.029752	0.127661
C275	C	-0.076268	-0.036236	0.131430
C276	C	-0.044610	-0.010438	0.099890
C277	C	-0.064018	0.021844	0.064581
C278	C	-0.115086	0.028329	0.060810
C279	C	-0.146743	0.002531	0.092350
H280	H	-0.061899	-0.060134	0.157570
H281	H	-0.006806	-0.015239	0.102682
H282	H	-0.040583	0.040941	0.041233
H283	H	-0.129455	0.052227	0.034671
H284	H	-0.184547	0.007332	0.089559
C285	C	-0.305457	-0.560085	0.836330
C286	C	-0.356531	-0.563704	0.829868
C287	C	-0.388119	-0.532066	0.855647
C288	C	-0.368632	-0.496808	0.887889
C289	C	-0.317555	-0.493188	0.894353
C290	C	-0.285968	-0.524826	0.868574
H291	H	-0.370959	-0.589804	0.805999
H292	H	-0.425929	-0.534746	0.850862
H293	H	-0.392015	-0.473388	0.906972
H294	H	-0.303127	-0.467087	0.918221
H295	H	-0.248157	-0.522146	0.873359
C296	C	-0.835812	-0.738209	0.305729
C297	C	-0.868055	-0.773498	0.286306
C298	C	-0.893824	-0.805080	0.317949
C299	C	-0.887349	-0.801374	0.369016
C300	C	-0.855104	-0.766084	0.388442
C301	C	-0.829335	-0.734502	0.356799
H302	H	-0.872850	-0.776242	0.248500
H303	H	-0.917694	-0.831204	0.303568
H304	H	-0.906424	-0.824754	0.392440
H305	H	-0.850309	-0.763340	0.426247
H306	H	-0.805466	-0.708378	0.371179
H307	H	-0.268497	-0.597090	1.045476
C308	C	-0.479275	-0.709418	0.276906
C309	C	-0.472782	-0.760490	0.273289
C310	C	-0.498535	-0.792085	0.304933
C311	C	-0.530782	-0.772608	0.340194
C312	C	-0.537277	-0.721534	0.343812
C313	C	-0.511523	-0.689939	0.312168
H314	H	-0.448910	-0.774910	0.247186
H315	H	-0.493727	-0.829893	0.302255
H316	H	-0.549846	-0.795996	0.363619
H317	H	-0.561149	-0.707114	0.369915
H318	H	-0.516332	-0.652130	0.314847
C319	C	-0.305485	-0.560080	0.737822
C320	C	-0.301810	-0.509012	0.744269
C321	C	-0.333422	-0.477379	0.718463
C322	C	-0.368710	-0.496812	0.686209
C323	C	-0.372387	-0.547882	0.679761
C324	C	-0.340774	-0.579516	0.705567
H325	H	-0.275687	-0.494624	0.768146
H326	H	-0.330700	-0.439573	0.723237
H327	H	-0.392112	-0.473395	0.667106
H328	H	-0.398510	-0.562270	0.655883
H329	H	-0.343496	-0.617321	0.700793
H330	H	-0.829334	-0.568408	0.135619
H331	H	-0.135551	-0.121561	0.135843
C332	C	-0.127395	-0.738337	0.695671
C333	C	-0.092109	-0.718910	0.727929
C334	C	-0.060505	-0.750548	0.753740
C335	C	-0.064187	-0.801615	0.747293
C336	C	-0.099475	-0.821045	0.715033
C337	C	-0.131079	-0.789407	0.689222
H338	H	-0.089381	-0.681105	0.732704
H339	H	-0.034383	-0.736164	0.777621
H340	H	-0.040792	-0.825036	0.766399
H341	H	-0.102202	-0.858850	0.710258
H342	H	-0.157201	-0.803791	0.665341
C343	C	-0.156065	-0.709618	0.953714
C344	C	-0.104993	-0.705987	0.960182
C345	C	-0.073395	-0.737612	0.934399
C346	C	-0.092869	-0.772867	0.902148
C347	C	-0.143945	-0.776499	0.895678
C348	C	-0.175543	-0.744875	0.921461
H349	H	-0.090574	-0.679888	0.984058
H350	H	-0.035585	-0.734923	0.939189
H351	H	-0.069478	-0.796277	0.883062
H352	H	-0.158363	-0.802598	0.871802
H353	H	-0.213352	-0.747564	0.916672
C354	C	-0.156087	-0.386313	0.156280
C355	C	-0.175492	-0.354028	0.120973
C356	C	-0.143833	-0.328229	0.089435
C357	C	-0.092768	-0.334716	0.093205
C358	C	-0.073360	-0.367003	0.128513
C359	C	-0.105019	-0.392801	0.160051
H360	H	-0.213296	-0.349224	0.118182
H361	H	-0.158201	-0.304329	0.063298
H362	H	-0.069332	-0.315619	0.069858
H363	H	-0.035556	-0.371806	0.131305
H364	H	-0.090652	-0.416702	0.186189
C365	C	-0.276948	-0.386326	0.276721
C366	C	-0.328013	-0.392756	0.272949
C367	C	-0.359673	-0.366961	0.304495
C368	C	-0.340269	-0.334735	0.339814
C369	C	-0.289202	-0.328303	0.343588
C370	C	-0.257541	-0.354099	0.312042
H371	H	-0.342379	-0.416613	0.246802
H372	H	-0.397476	-0.371722	0.301701
H373	H	-0.363706	-0.315640	0.363166
H374	H	-0.274836	-0.304446	0.369734
H375	H	-0.219738	-0.349337	0.314836
H376	H	-0.603255	-0.729954	0.297470
C377	C	-0.156131	0.186078	0.156347
C378	C	-0.124480	0.160270	0.124805
C379	C	-0.092828	0.186069	0.093261
C380	C	-0.092827	0.237677	0.093258
C381	C	-0.124480	0.263488	0.124801
C382	C	-0.156132	0.237689	0.156345
H383	H	-0.124479	0.122064	0.124806
H384	H	-0.069397	0.166962	0.069911
H385	H	-0.069397	0.256775	0.069907
H386	H	-0.124480	0.301694	0.124800
H387	H	-0.179563	0.256796	0.179695
C388	C	-0.127316	-0.170511	0.127641
C389	C	-0.076251	-0.176996	0.131408
C390	C	-0.044594	-0.151206	0.099861
C391	C	-0.064003	-0.118931	0.064547
C392	C	-0.115071	-0.112444	0.060778
C393	C	-0.146727	-0.138234	0.092325
H394	H	-0.061881	-0.200889	0.157552
H395	H	-0.006790	-0.156008	0.102651
H396	H	-0.040569	-0.099839	0.041194
H397	H	-0.129441	-0.088551	0.034635
H398	H	-0.184531	-0.133432	0.089535
H399	H	-0.268511	-0.597073	0.960368
H400	H	-0.297285	-0.568280	0.688876
H401	H	-0.688362	-0.729974	0.297486
H402	H	-0.297506	-0.262317	0.297218
H403	H	-0.268637	-0.597013	0.387964
H404	H	-0.164339	0.094265	0.164534
H405	H	-0.135529	-0.262320	0.135834
H406	H	-0.164309	-0.478139	0.164463
H407	H	-0.297512	-0.121570	0.297238
