data_functionalizedCrystal
_audit_creation_method	'MofGen! by Chris Wilmer'
_symmetry_space_group_name_H-M	'P1'
_symmetry_Int_Tables_number	1
_symmetry_cell_setting	triclinic
loop_
_symmetry_equiv_pos_as_xyz
  x,y,z
_cell_length_a	12.759401
_cell_length_b	13.032721
_cell_length_c	12.759393
_cell_angle_alpha	97.147684
_cell_angle_beta	89.980098
_cell_angle_gamma	97.203405
loop_
_atom_site_label
_atom_site_type_symbol
_atom_site_fract_x
_atom_site_fract_y
_atom_site_fract_z
Zn1	Zn	-1.553081	0.416001	0.647136
Zn2	Zn	-1.530643	0.590783	0.493759
Zn3	Zn	-1.377380	0.416052	0.471474
Zn4	Zn	-1.355046	0.590698	0.669382
O5	O	-1.454038	0.503383	0.570438
O6	O	-1.697124	0.439200	0.626807
O7	O	-1.510268	0.567661	0.343789
O8	O	-1.419424	0.269809	0.476140
O9	O	-1.680638	0.567611	0.514121
O10	O	-1.548511	0.269771	0.605198
O11	O	-1.397667	0.439288	0.327417
O12	O	-1.227398	0.439206	0.497711
O13	O	-1.381360	0.567467	0.813445
O14	O	-1.210990	0.567517	0.643113
O15	O	-1.526855	0.439118	0.797101
O16	O	-1.488612	0.737008	0.535693
O17	O	-1.359602	0.736946	0.664722
C18	C	-1.181073	0.503358	0.570409
C19	C	-1.064295	0.503373	0.570424
C20	C	-1.419277	0.774894	0.605063
C21	C	-1.404503	0.891048	0.619910
C22	C	-1.454119	0.503277	0.844458
C23	C	-1.454154	0.503232	0.961229
C24	C	-1.000866	0.570128	0.511642
C25	C	-0.891140	0.570144	0.511660
C26	C	-0.908282	0.436639	0.629243
C27	C	-1.018005	0.436630	0.629231
C28	C	-1.047156	0.636871	0.452835
C29	C	-0.983727	0.703631	0.394048
C30	C	-0.874001	0.703647	0.394065
C31	C	-0.827704	0.636902	0.452870
C32	C	-0.728068	0.503404	0.570462
C33	C	-0.844846	0.503398	0.570454
C34	C	-1.488962	0.230812	0.535701
C35	C	-1.503845	0.114658	0.520899
C36	C	-1.461804	0.942829	0.562736
C37	C	-1.446536	1.062880	0.578081
C38	C	-1.454026	0.503414	0.297475
C39	C	-1.454232	0.503165	0.180667
C40	C	-1.395553	0.436375	1.007570
C41	C	-1.395588	0.436344	1.117290
C42	C	-1.512836	0.570029	1.134319
C43	C	-1.512794	0.570064	1.024601
C44	C	-1.336913	0.369542	0.944198
C45	C	-1.278308	0.302680	0.990538
C46	C	-1.278344	0.302648	1.100259
C47	C	-1.336985	0.369480	1.163638
H48	H	-1.136500	0.636864	0.452812
N49	N	-1.576009	0.642170	0.974621
H50	H	-1.630119	0.599721	0.923689
H51	H	-1.527018	0.690596	0.935326
H52	H	-1.564215	1.070118	0.460590
N53	N	-1.366578	1.121868	0.657979
H54	H	-1.367005	1.199266	0.657617
H55	H	-1.293945	1.102921	0.639153
N56	N	-1.324549	0.950040	0.699804
H57	H	-1.324976	1.027438	0.699442
H58	H	-1.251917	0.931093	0.680978
H59	H	-1.230617	0.248213	1.137987
N60	N	-1.541758	0.883827	0.482849
H61	H	-1.523083	0.902836	0.410179
H62	H	-1.614403	0.902712	0.501719
H63	H	-1.336880	0.369558	0.854857
H64	H	-1.337006	0.369452	1.252980
N65	N	-1.576078	0.642110	1.202672
H66	H	-1.567212	0.631942	1.279210
H67	H	-1.653189	0.625865	1.181427
N68	N	-1.215055	0.230601	0.922195
H69	H	-1.160910	0.273074	0.882076
H70	H	-1.264013	0.182201	0.870573
N71	N	-1.033648	0.775621	0.330626
H72	H	-1.072995	0.824093	0.379413
H73	H	-1.084534	0.733015	0.276582
N74	N	-0.805584	0.775654	0.330672
H75	H	-0.851562	0.817931	0.293419
H76	H	-0.765485	0.733062	0.276698
N77	N	-0.709355	0.636927	0.452903
H78	H	-0.676195	0.689348	0.406746
H79	H	-0.692172	0.565185	0.424598
N80	N	-0.858362	0.364645	0.692660
H81	H	-0.807416	0.407171	0.746704
H82	H	-0.819083	0.316183	0.643792
N83	N	-1.086426	0.364635	0.692634
H84	H	-1.040455	0.322350	0.729884
H85	H	-1.138129	0.316222	0.643771
