data_functionalizedCrystal
_audit_creation_method	'MofGen! by Chris Wilmer'
_symmetry_space_group_name_H-M	'P1'
_symmetry_Int_Tables_number	1
_symmetry_cell_setting	triclinic
loop_
_symmetry_equiv_pos_as_xyz
  x,y,z
_cell_length_a	13.897449
_cell_length_b	16.120484
_cell_length_c	13.897441
_cell_angle_alpha	87.133502
_cell_angle_beta	90.018596
_cell_angle_gamma	92.926780
loop_
_atom_site_label
_atom_site_type_symbol
_atom_site_fract_x
_atom_site_fract_y
_atom_site_fract_z
Zn1	Zn	1.455161	-0.331860	0.564824
Zn2	Zn	1.705161	-0.081860	0.814824
Zn3	Zn	1.955161	0.168140	1.064824
Zn4	Zn	2.205161	0.418140	1.314824
Zn5	Zn	1.446859	-0.471289	0.411694
Zn6	Zn	1.696859	-0.221289	0.661694
Zn7	Zn	1.946859	0.028711	0.911694
Zn8	Zn	2.196859	0.278711	1.161694
Zn9	Zn	1.293854	-0.331897	0.403545
Zn10	Zn	1.543854	-0.081897	0.653545
Zn11	Zn	1.793854	0.168103	0.903545
Zn12	Zn	2.043854	0.418103	1.153545
Zn13	Zn	1.285633	-0.471237	0.572944
Zn14	Zn	1.535633	-0.221237	0.822944
Zn15	Zn	1.785633	0.028763	1.072944
Zn16	Zn	2.035633	0.278763	1.322944
O17	O	1.370376	-0.401571	0.488252
O18	O	1.620376	-0.151571	0.738252
O19	O	1.870376	0.098429	0.988252
O20	O	2.120376	0.348429	1.238252
O21	O	1.589041	-0.350362	0.544524
O22	O	1.839041	-0.100362	0.794524
O23	O	2.089041	0.149638	1.044524
O24	O	2.339041	0.399638	1.294524
O25	O	1.426528	-0.452836	0.275634
O26	O	1.676528	-0.202836	0.525634
O27	O	1.926528	0.047164	0.775634
O28	O	2.176528	0.297164	1.025634
O29	O	1.322166	-0.215227	0.418130
O30	O	1.572166	0.034773	0.668130
O31	O	1.822166	0.284773	0.918130
O32	O	2.072166	0.534773	1.168130
O33	O	1.582941	-0.452800	0.432020
O34	O	1.832941	-0.202800	0.682020
O35	O	2.082941	0.047200	0.932020
O36	O	2.332941	0.297200	1.182020
O37	O	1.440678	-0.215199	0.536621
O38	O	1.690678	0.034801	0.786621
O39	O	1.940678	0.284801	1.036621
O40	O	2.190678	0.534801	1.286621
O41	O	1.314116	-0.350426	0.269646
O42	O	1.564116	-0.100426	0.519646
O43	O	1.814116	0.149574	0.769646
O44	O	2.064116	0.399574	1.019646
O45	O	1.157782	-0.350375	0.426003
O46	O	1.407782	-0.100375	0.676003
O47	O	1.657782	0.149625	0.926003
O48	O	1.907782	0.399625	1.176003
O49	O	1.308155	-0.452711	0.706846
O50	O	1.558155	-0.202711	0.956846
O51	O	1.808155	0.047289	1.206846
O52	O	2.058155	0.297289	1.456846
O53	O	1.151742	-0.452747	0.550460
O54	O	1.401742	-0.202747	0.800460
O55	O	1.651742	0.047253	1.050460
O56	O	1.901742	0.297253	1.300460
O57	O	1.432706	-0.350311	0.700881
O58	O	1.682706	-0.100311	0.950881
O59	O	1.932706	0.149689	1.200881
O60	O	2.182706	0.399689	1.450881
O61	O	1.418557	-0.587948	0.439893
O62	O	1.668557	-0.337948	0.689893
O63	O	1.918557	-0.087948	0.939893
O64	O	2.168557	0.162052	1.189893
O65	O	1.300105	-0.587910	0.558363
O66	O	1.550105	-0.337910	0.808363
O67	O	1.800105	-0.087910	1.058363
O68	O	2.050105	0.162090	1.308363
C69	C	1.119763	-0.401560	0.488229
C70	C	1.369763	-0.151560	0.738229
C71	C	1.619763	0.098440	0.988229
C72	C	1.869763	0.348440	1.238229
C73	C	1.012548	-0.401575	0.488243
C74	C	1.262548	-0.151575	0.738243
C75	C	1.512548	0.098425	0.988243
C76	C	1.762548	0.348425	1.238243
C77	C	0.816253	-0.401578	0.488269
C78	C	1.066253	-0.151578	0.738269
C79	C	1.316253	0.098422	0.988269
C80	C	1.566253	0.348422	1.238269
C81	C	0.925485	-0.401574	0.488252
C82	C	1.175485	-0.151574	0.738252
C83	C	1.425485	0.098426	0.988252
C84	C	1.675485	0.348426	1.238252
C85	C	1.357564	-0.618179	0.500914
C86	C	1.607564	-0.368179	0.750914
C87	C	1.857564	-0.118179	1.000914
C88	C	2.107564	0.131821	1.250914
C89	C	1.352171	-0.710845	0.506364
C90	C	1.602171	-0.460845	0.756364
C91	C	1.852171	-0.210845	1.006364
C92	C	2.102171	0.039155	1.256364
C93	C	1.342330	-0.880506	0.516333
C94	C	1.592330	-0.630506	0.766333
C95	C	1.842330	-0.380506	1.016333
C96	C	2.092330	-0.130506	1.266333
C97	C	1.398595	-0.921795	0.460187
C98	C	1.648595	-0.671795	0.710187
C99	C	1.898595	-0.421795	0.960187
C100	C	2.148595	-0.171795	1.210187
C101	C	1.393120	-1.016201	0.465733
C102	C	1.643120	-0.766201	0.715733
C103	C	1.893120	-0.516201	0.965733
C104	C	2.143120	-0.266201	1.215733
C105	C	1.347805	-0.786092	0.510787
C106	C	1.597805	-0.536092	0.760787
C107	C	1.847805	-0.286092	1.010787
C108	C	2.097805	-0.036092	1.260787
C109	C	1.621969	-0.401583	0.488275
C110	C	1.871969	-0.151583	0.738275
C111	C	2.121969	0.098417	0.988275
C112	C	2.371969	0.348417	1.238275
C113	C	1.729182	-0.401588	0.488285
C114	C	1.979182	-0.151588	0.738285
C115	C	2.229182	0.098412	0.988285
C116	C	2.479182	0.348412	1.238285
C117	C	1.370439	-0.401501	0.739841
C118	C	1.620439	-0.151501	0.989841
C119	C	1.870439	0.098499	1.239841
C120	C	2.120439	0.348499	1.489841
C121	C	1.370466	-0.401471	0.847053
C122	C	1.620466	-0.151471	1.097053
C123	C	1.870466	0.098529	1.347053
C124	C	2.120466	0.348529	1.597053
C125	C	1.383265	-0.184117	0.475561
C126	C	1.633265	0.065883	0.725561
C127	C	1.883265	0.315883	0.975561
C128	C	2.133265	0.565883	1.225561
C129	C	1.388757	-0.091451	0.470153
C130	C	1.638757	0.158549	0.720153
C131	C	1.888757	0.408549	0.970153
C132	C	2.138757	0.658549	1.220153
C133	C	1.370372	-0.401581	0.237638
C134	C	1.620372	-0.151581	0.487638
C135	C	1.870372	0.098419	0.737638
C136	C	2.120372	0.348419	0.987638
C137	C	1.370546	-0.401376	0.130412
C138	C	1.620546	-0.151376	0.380412
C139	C	1.870546	0.098624	0.630412
C140	C	2.120546	0.348624	0.880412
C141	C	1.370488	-0.401448	0.934121
C142	C	1.620488	-0.151448	1.184121
C143	C	1.870488	0.098552	1.434121
C144	C	2.120488	0.348552	1.684121
C145	C	1.370517	-0.401410	1.043352
C146	C	1.620517	-0.151410	1.293352
C147	C	1.870517	0.098590	1.543352
C148	C	2.120517	0.348590	1.793352
H149	H	1.450876	-0.886242	0.407952
H150	H	1.700876	-0.636242	0.657952
H151	H	1.950876	-0.386242	0.907952
H152	H	2.200876	-0.136242	1.157952
Br153	Br	1.255195	-0.939759	0.603388
Br154	Br	1.505195	-0.689759	0.853388
Br155	Br	1.755195	-0.439759	1.103388
Br156	Br	2.005195	-0.189759	1.353388
