data_functionalizedCrystal
_audit_creation_method	'MofGen! by Chris Wilmer'
_symmetry_space_group_name_H-M	'P1'
_symmetry_Int_Tables_number	1
_symmetry_cell_setting	triclinic
loop_
_symmetry_equiv_pos_as_xyz
  x,y,z
_cell_length_a	17.019292
_cell_length_b	17.699083
_cell_length_c	16.098691
_cell_angle_alpha	86.940143
_cell_angle_beta	83.071016
_cell_angle_gamma	83.337122
loop_
_atom_site_label
_atom_site_type_symbol
_atom_site_fract_x
_atom_site_fract_y
_atom_site_fract_z
O1	O	-1.046758	-0.096643	0.005846
O2	O	-0.546758	0.403357	0.505846
O3	O	-0.816321	-0.108226	-0.010689
O4	O	-0.316321	0.391774	0.489311
O5	O	-0.938051	0.007730	-0.001947
O6	O	-0.438051	0.507730	0.498053
O7	O	-0.925029	-0.212599	-0.002896
O8	O	-0.425029	0.287401	0.497104
O9	O	-0.944330	0.001676	0.137013
O10	O	-0.444330	0.501676	0.637013
O11	O	-0.822601	-0.114280	0.128271
O12	O	-0.322601	0.385720	0.628271
O13	O	-1.053038	-0.102697	0.144806
O14	O	-0.553038	0.397303	0.644806
Zn15	Zn	-0.938817	-0.109450	0.158601
Zn16	Zn	-0.438817	0.390550	0.658601
Zn17	Zn	-0.930543	-0.101473	-0.024485
Zn18	Zn	-0.430543	0.398527	0.475515
O19	O	-0.931309	-0.218653	0.136064
O20	O	-0.431309	0.281347	0.636064
C21	C	-0.789977	-0.110696	0.056675
C22	C	-0.289977	0.389304	0.556675
C23	C	-0.702125	-0.109026	0.050371
C24	C	-0.202125	0.390974	0.550371
C25	C	-0.664279	-0.111539	0.123159
C26	C	-0.164279	0.388461	0.623159
C27	C	-0.581734	-0.109958	0.117238
C28	C	-0.081734	0.390042	0.617238
C29	C	-0.537035	-0.105869	0.038529
C30	C	-0.037035	0.394131	0.538529
C31	C	-0.574886	-0.103353	-0.034263
C32	C	-0.074886	0.396647	0.465737
C33	C	-0.657431	-0.104928	-0.028342
C34	C	-0.157431	0.395072	0.471658
C35	C	-0.287633	-0.100941	0.016861
C36	C	0.212367	0.399059	0.516861
C37	C	-0.205082	-0.099367	0.010945
C38	C	0.294918	0.400633	0.510945
C39	C	-0.211936	-0.105972	0.162448
C40	C	0.288064	0.394028	0.662448
C41	C	-0.294481	-0.107552	0.168362
C42	C	0.205519	0.392448	0.668362
C43	C	-0.332326	-0.105031	0.095569
C44	C	0.167674	0.394969	0.595569
C45	C	-0.452660	-0.104255	0.032476
C46	C	0.047340	0.395745	0.532476
C47	C	-0.416700	-0.106640	0.101624
C48	C	0.083300	0.393360	0.601624
C49	C	-0.079383	-0.100223	0.077438
C50	C	0.420617	0.399777	0.577438
C51	C	-0.167237	-0.101881	0.083733
C52	C	0.332763	0.398119	0.583733
C53	C	-0.940724	0.032902	0.067499
C54	C	-0.440724	0.532902	0.567499
C55	C	-0.939324	0.116925	0.067399
C56	C	-0.439324	0.616925	0.567399
C57	C	-0.928636	-0.243824	0.066615
C58	C	-0.428636	0.256176	0.566615
C59	C	-0.930035	-0.327848	0.066710
C60	C	-0.430035	0.172152	0.566710
N61	N	-0.944469	-0.114893	0.283552
N62	N	-0.444469	0.385107	0.783552
C63	C	-1.010777	0.165276	0.072528
C64	C	-0.510777	0.665276	0.572528
C65	C	-1.009456	0.244225	0.072425
C66	C	-0.509456	0.744225	0.572425
C67	C	-0.936683	0.274820	0.067201
C68	C	-0.436683	0.774820	0.567201
C69	C	-0.865225	0.226463	0.062070
C70	C	-0.365225	0.726463	0.562070
C71	C	-0.866546	0.147516	0.062166
C72	C	-0.366546	0.647516	0.562166
C73	C	-0.859897	0.544846	0.061681
C74	C	-0.359897	1.044846	0.561681
C75	C	-0.858582	0.623799	0.061587
C76	C	-0.358582	1.123799	0.561587
C77	C	-1.002808	0.641555	0.071940
C78	C	-0.502808	1.141555	0.571940
C79	C	-1.004128	0.562608	0.072036
C80	C	-0.504128	1.062608	0.572036
C81	C	-0.932671	0.514258	0.066901
C82	C	-0.432671	1.014258	0.566901
C83	C	-0.934103	0.428653	0.067010
C84	C	-0.434103	0.928653	0.567010
C85	C	-0.935250	0.360423	0.067098
C86	C	-0.435250	0.860423	0.567098
C87	C	-0.898555	-0.070771	0.323870
C88	C	-0.398555	0.429229	0.823870
C89	C	-0.902529	-0.074588	0.411342
C90	C	-0.402529	0.425412	0.911342
C91	C	-0.952422	-0.122522	0.458495
C92	C	-0.452422	0.377478	0.958495
C93	C	-0.998337	-0.166649	0.418171
C94	C	-0.498337	0.333351	0.918171
C95	C	-0.994359	-0.162836	0.330701
C96	C	-0.494359	0.337164	0.830701
C97	C	-0.966828	-0.136342	0.722770
C98	C	-0.466828	0.363658	1.222770
C99	C	-0.970805	-0.140150	0.810246
C100	C	-0.470805	0.359850	1.310246
C101	C	-0.874995	-0.048089	0.803411
C102	C	-0.374995	0.451911	1.303411
C103	C	-0.871024	-0.044277	0.715939
C104	C	-0.371024	0.455723	1.215939
C105	C	-0.916937	-0.088407	0.675623
C106	C	-0.416937	0.411593	1.175623
C107	C	-0.956487	-0.126423	0.547905
C108	C	-0.456487	0.373577	1.047905
C109	C	-0.912867	-0.084510	0.586214
C110	C	-0.412867	0.415490	1.086214
N111	N	-0.924891	-0.096028	0.850564
N112	N	-0.424891	0.403972	1.350564
H113	H	-0.688243	-0.102883	-0.087614
H114	H	-0.188243	0.397117	0.412386
H115	H	-0.805972	0.251380	0.057811
H116	H	-0.305972	0.751380	0.557811
H117	H	-0.453098	-0.109966	0.165708
H118	H	0.046902	0.390034	0.665708
H119	H	-1.038958	-0.205682	0.456570
H120	H	-0.538958	0.294318	0.956570
Cl121	Cl	-0.396465	-0.099080	-0.066469
Cl122	Cl	0.103535	0.400920	0.433531
H123	H	-0.872241	-0.045485	0.547818
H124	H	-0.372241	0.454515	1.047818
Cl125	Cl	-0.817276	0.007380	0.854099
Cl126	Cl	-0.317276	0.507380	1.354099
Cl127	Cl	-1.102269	0.126821	0.079104
Cl128	Cl	-0.602269	0.626821	0.579104
Cl129	Cl	-1.099287	0.305007	0.078875
Cl130	Cl	-0.599287	0.805007	0.578875
H131	H	-0.700667	-0.114875	0.187252
H132	H	-0.200667	0.385125	0.687252
Cl133	Cl	-0.776716	0.086731	0.055716
Cl134	Cl	-0.276716	0.586731	0.555716
H135	H	-1.004216	-0.172272	0.689956
H136	H	-0.504216	0.327728	1.189956
Cl137	Cl	-0.767089	0.662260	0.055017
Cl138	Cl	-0.267089	1.162260	0.555017
H139	H	-0.801712	0.505488	0.057499
H140	H	-0.301712	1.005488	0.557499
H141	H	-1.063388	0.537702	0.076295
H142	H	-0.563388	1.037702	0.576295
Cl143	Cl	-0.534158	-0.113132	0.208747
Cl144	Cl	-0.034158	0.386868	0.708747
Cl145	Cl	-1.052084	-0.218304	0.280016
Cl146	Cl	-0.552084	0.281696	0.780016
H147	H	-0.830399	-0.005241	0.677553
H148	H	-0.330399	0.494759	1.177553
H149	H	-1.060992	0.680932	0.076117
H150	H	-0.560992	1.180932	0.576117
Cl151	Cl	-0.350668	-0.112698	0.267314
Cl152	Cl	0.149332	0.387302	0.767314
H153	H	-0.857930	-0.031735	0.285484
H154	H	-0.357930	0.468265	0.785484
Cl155	Cl	-1.033535	-0.200412	0.869524
Cl156	Cl	-0.533535	0.299588	1.369524
Cl157	Cl	-0.518696	-0.098184	-0.133212
Cl158	Cl	-0.018696	0.401816	0.366788
H159	H	-0.181114	-0.108022	0.221711
H160	H	0.318886	0.391978	0.721711
H161	H	-0.865142	-0.038659	0.444164
H162	H	-0.365142	0.461341	0.944164
H163	H	-0.997112	-0.165449	0.586307
H164	H	-0.497112	0.334551	1.086307
H165	H	-0.168690	-0.096040	-0.053152
H166	H	0.331310	0.403960	0.446848
H167	H	-0.318436	-0.098886	-0.042412
H168	H	0.181564	0.401114	0.457588
