data_functionalizedCrystal
_audit_creation_method	'MofGen! by Chris Wilmer'
_symmetry_space_group_name_H-M	'P1'
_symmetry_Int_Tables_number	1
_symmetry_cell_setting	triclinic
loop_
_symmetry_equiv_pos_as_xyz
  x,y,z
_cell_length_a	17.038272
_cell_length_b	17.019372
_cell_length_c	10.268362
_cell_angle_alpha	86.128188
_cell_angle_beta	90.005029
_cell_angle_gamma	92.757580
loop_
_atom_site_label
_atom_site_type_symbol
_atom_site_fract_x
_atom_site_fract_y
_atom_site_fract_z
O1	O	-0.099574	1.053348	-0.009747
O2	O	-0.112280	0.824539	0.015892
O3	O	0.007888	0.937584	0.003236
O4	O	-0.219741	0.940304	0.002908
O5	O	0.007883	0.937572	-0.213363
O6	O	-0.112284	0.824528	-0.200708
O7	O	-0.099578	1.053337	-0.226347
Cu8	Cu	-0.105931	0.938931	-0.233304
Cu9	Cu	-0.105926	0.938945	0.022849
O10	O	-0.219745	0.940292	-0.213691
C11	C	-0.111801	0.795112	-0.089111
C12	C	-0.110358	0.707446	-0.079287
C13	C	-0.102174	0.211628	-0.017713
C14	C	-0.103530	0.293999	-0.026961
C15	C	-0.104215	0.335170	-0.149655
C16	C	-0.103538	0.293967	-0.263107
C17	C	-0.102177	0.211597	-0.253858
C18	C	-0.108320	0.583873	-0.183490
C19	C	-0.109683	0.666248	-0.192731
C20	C	-0.109673	0.666275	0.043417
C21	C	-0.108317	0.583904	0.052655
C22	C	-0.107635	0.542707	-0.060797
C23	C	-0.105603	0.419367	-0.159111
C24	C	-0.106242	0.458513	-0.051340
C25	C	-0.248869	0.942772	-0.105671
C26	C	-0.335655	0.950152	-0.106507
C27	C	-0.385829	0.882393	-0.098913
C28	C	-0.467374	0.889332	-0.099675
C29	C	-0.498743	0.964031	-0.108039
C30	C	-0.448562	1.031795	-0.115628
C31	C	-0.367019	1.024855	-0.114858
C32	C	-0.744479	0.988548	-0.110756
C33	C	-0.826028	0.995483	-0.111530
C34	C	-0.844834	0.853019	-0.095574
C35	C	-0.763289	0.846086	-0.094812
C36	C	-0.713115	0.913850	-0.102395
C37	C	-0.582094	0.971126	-0.108821
C38	C	-0.629766	0.906755	-0.101603
C39	C	0.037012	0.935104	-0.104781
C40	C	0.123798	0.927724	-0.103937
C41	C	-0.100057	1.082764	-0.121341
C42	C	-0.101499	1.170430	-0.131157
N43	N	-0.105934	0.938928	-0.413470
C44	C	-0.105934	0.938933	-0.531313
C45	C	-0.105927	0.938943	-0.679152
N46	N	-0.105917	0.938954	0.203014
H47	H	-0.105681	0.424988	0.048557
H48	H	-0.508222	0.834155	-0.093487
N49	N	-0.312907	1.097943	-0.123059
H50	H	-0.278661	1.098235	-0.203388
H51	H	-0.278700	1.098203	-0.042743
H52	H	-0.737754	0.785258	-0.087986
H53	H	-0.101621	0.178112	0.082198
H54	H	-0.107758	0.550388	0.152566
N55	N	-0.482393	1.112364	-0.124659
H56	H	-0.464091	1.142289	-0.208308
H57	H	-0.464076	1.142239	-0.047662
H58	H	-0.885693	0.797850	-0.089399
H59	H	-0.607644	1.031946	-0.115675
N60	N	-0.351998	0.801824	-0.089908
H61	H	-0.396160	0.759953	-0.085213
H62	H	-0.318567	0.795842	-0.008947
H63	H	-0.110228	0.699826	0.135783
H64	H	-0.604222	0.845935	-0.094786
N65	N	-0.104248	0.338436	0.095395
H66	H	-0.103609	0.299856	0.174524
H67	H	-0.153250	0.369472	0.097059
N68	N	-0.110424	0.710657	-0.325070
H69	H	-0.109784	0.672061	-0.395540
H70	H	-0.062549	0.747982	-0.334394
N71	N	-0.107586	0.539445	-0.305850
H72	H	-0.108231	0.578028	-0.384976
H73	H	-0.155462	0.502121	-0.306807
N74	N	-0.104283	0.338366	-0.395445
H75	H	-0.055609	0.327174	-0.445810
H76	H	-0.105282	0.396782	-0.383985
N77	N	-0.101443	0.167160	-0.376216
H78	H	-0.101529	0.205775	-0.455346
H79	H	-0.149602	0.130236	-0.377622
N80	N	-0.859864	1.076055	-0.120556
H81	H	-0.815707	1.117931	-0.125241
H82	H	-0.893285	1.082036	-0.040931
N83	N	-0.106354	0.463778	-0.291439
H84	H	-0.154562	0.446292	-0.341091
H85	H	-0.057650	0.452571	-0.341707
N86	N	-0.690370	1.061634	-0.118950
H87	H	-0.722618	1.110006	-0.124376
H88	H	-0.656136	1.061850	-0.199276
