data_functionalizedCrystal
_audit_creation_method	'MofGen! by Chris Wilmer'
_symmetry_space_group_name_H-M	'P1'
_symmetry_Int_Tables_number	1
_symmetry_cell_setting	triclinic
loop_
_symmetry_equiv_pos_as_xyz
  x,y,z
_cell_length_a	10.968094
_cell_length_b	10.967829
_cell_length_c	10.065875
_cell_angle_alpha	86.921207
_cell_angle_beta	93.118877
_cell_angle_gamma	87.247546
loop_
_atom_site_label
_atom_site_type_symbol
_atom_site_fract_x
_atom_site_fract_y
_atom_site_fract_z
O1	O	1.622257	0.210019	0.218612
O2	O	2.122257	0.710019	0.718612
O3	O	1.272372	0.213467	0.135519
O4	O	1.772372	0.713467	0.635519
O5	O	1.449060	0.036823	0.218620
O6	O	1.949060	0.536823	0.718620
O7	O	1.445568	0.386663	0.135510
O8	O	1.945568	0.886663	0.635510
O9	O	1.415375	0.070648	0.429731
O10	O	1.915375	0.570648	0.929731
O11	O	1.238686	0.247292	0.346629
O12	O	1.738686	0.747292	0.846629
O13	O	1.588571	0.243844	0.429723
O14	O	2.088571	0.743844	0.929723
Zn15	Zn	1.408280	0.250938	0.421694
Zn16	Zn	1.908280	0.750938	0.921694
Zn17	Zn	1.452663	0.206373	0.143547
Zn18	Zn	1.952663	0.706373	0.643547
O19	O	1.411882	0.420488	0.346621
O20	O	1.911882	0.920488	0.846621
C21	C	1.210611	0.227574	0.231170
C22	C	1.710611	0.727574	0.731170
C23	C	1.076768	0.219201	0.201663
C24	C	1.576768	0.719201	0.701663
C25	C	1.429418	0.008822	0.334079
C26	C	1.929418	0.508822	0.834079
C27	C	1.421063	-0.125005	0.363584
C28	C	1.921063	0.374995	0.863584
C29	C	0.861307	0.224324	0.267368
C30	C	1.361307	0.724324	0.767368
C31	C	0.999638	0.232988	0.297876
C32	C	1.499638	0.732988	0.797876
C33	C	1.434789	-0.202187	0.267376
C34	C	1.934789	0.297813	0.767376
C35	C	1.426153	-0.340505	0.297868
C36	C	1.926153	0.159495	0.797868
C37	C	1.650332	0.229737	0.334068
C38	C	2.150332	0.729737	0.834068
C39	C	1.784176	0.238108	0.363567
C40	C	2.284176	0.738108	0.863567
C41	C	1.431525	0.448488	0.231160
C42	C	1.931525	0.948488	0.731160
C43	C	1.439881	0.582315	0.201646
C44	C	1.939881	1.082315	0.701646
N45	N	1.377999	0.281353	0.611525
N46	N	1.877999	0.781353	1.111525
N47	N	1.482953	0.175949	-0.046279
N48	N	1.982953	0.675949	0.453721
C49	C	1.442119	0.216947	0.709532
C50	C	1.942119	0.716947	1.209532
C51	C	1.418823	0.240364	0.855713
C52	C	1.918823	0.740364	1.355713
H53	H	0.824933	0.206101	0.162426
H54	H	1.324933	0.706101	0.662426
Cl55	Cl	1.266608	0.393250	0.649050
Cl56	Cl	1.766608	0.893250	1.149050
Cl57	Cl	0.840326	0.266222	0.525601
Cl58	Cl	1.340326	0.766222	1.025601
Cl59	Cl	1.055782	0.261103	0.459917
Cl60	Cl	1.555782	0.761103	0.959917
Cl61	Cl	1.462830	-0.146120	0.105354
Cl62	Cl	1.962830	0.353880	0.605354
Cl63	Cl	1.020626	0.191105	0.039616
Cl64	Cl	1.520626	0.691105	0.539616
H65	H	1.408001	-0.376822	0.402815
H66	H	1.908001	0.123178	0.902815
Cl67	Cl	1.467849	-0.361621	0.039598
Cl68	Cl	1.967849	0.138379	0.539598
H69	H	1.402912	-0.161328	0.468524
H70	H	1.902912	0.338672	0.968524
Cl71	Cl	1.553220	0.104762	0.672006
Cl72	Cl	2.053220	0.604762	1.172006
H73	H	1.346672	0.312842	0.880018
H74	H	1.846672	0.812842	1.380018
H75	H	1.555095	0.103462	0.929416
H76	H	2.055095	0.603462	1.429416
