data_functionalizedCrystal
_audit_creation_method	'MofGen! by Chris Wilmer'
_symmetry_space_group_name_H-M	'P1'
_symmetry_Int_Tables_number	1
_symmetry_cell_setting	triclinic
loop_
_symmetry_equiv_pos_as_xyz
  x,y,z
_cell_length_a	15.944551
_cell_length_b	15.021413
_cell_length_c	15.944480
_cell_angle_alpha	90.010117
_cell_angle_beta	96.515708
_cell_angle_gamma	90.002826
loop_
_atom_site_label
_atom_site_type_symbol
_atom_site_fract_x
_atom_site_fract_y
_atom_site_fract_z
O1	O	1.114501	0.073927	-0.108324
O2	O	1.447835	0.407260	0.225009
O3	O	1.781168	0.740594	0.558342
O4	O	0.869948	0.073948	-0.121681
O5	O	1.203282	0.407281	0.211652
O6	O	1.536615	0.740614	0.544986
O7	O	0.998934	0.073945	0.007276
O8	O	1.332267	0.407278	0.340609
O9	O	1.665601	0.740611	0.673943
O10	O	0.985516	0.073930	-0.237282
O11	O	1.318849	0.407263	0.096052
O12	O	1.652182	0.740597	0.429385
O13	O	0.998913	-0.074120	0.007258
O14	O	1.332247	0.259214	0.340591
O15	O	1.665580	0.592547	0.673924
O16	O	0.869928	-0.074117	-0.121700
O17	O	1.203261	0.259217	0.211634
O18	O	1.536594	0.592550	0.544967
O19	O	1.114481	-0.074137	-0.108343
O20	O	1.447814	0.259196	0.224990
O21	O	1.781147	0.592529	0.558324
Zn22	Zn	0.992201	-0.097635	-0.115024
Zn23	Zn	1.325534	0.235698	0.218309
Zn24	Zn	1.658868	0.569031	0.551643
Zn25	Zn	0.992228	0.097446	-0.115000
Zn26	Zn	1.325561	0.430779	0.218333
Zn27	Zn	1.658895	0.764112	0.551667
O28	O	0.985495	-0.074134	-0.237300
O29	O	1.318829	0.259199	0.096033
O30	O	1.652162	0.592532	0.429367
C31	C	0.838644	-0.000082	-0.121136
C32	C	1.171978	0.333252	0.212198
C33	C	1.505311	0.666585	0.545531
C34	C	0.745399	-0.000073	-0.119473
C35	C	1.078732	0.333260	0.213860
C36	C	1.412065	0.666594	0.547193
N37	N	0.992189	-0.230773	-0.115040
N38	N	1.325522	0.102560	0.218293
N39	N	1.658855	0.435894	0.551626
C40	C	0.932537	-0.470455	-0.174642
C41	C	1.265870	-0.137121	0.158691
C42	C	1.599203	0.196212	0.492025
C43	C	1.008433	-0.529797	-0.190950
C44	C	1.341766	-0.196464	0.142384
C45	C	1.675100	0.136870	0.475717
C46	C	0.992210	-0.412380	-0.115019
C47	C	1.325544	-0.079046	0.218314
C48	C	1.658877	0.254287	0.551648
C49	C	0.916335	-0.529779	-0.098730
C50	C	1.249668	-0.196446	0.234603
C51	C	1.583001	0.136887	0.567936
C52	C	0.992224	-0.587804	-0.115001
C53	C	1.325558	-0.254471	0.218333
C54	C	1.658891	0.078863	0.551666
C55	C	1.068145	-0.470416	-0.131365
C56	C	1.401478	-0.137082	0.201969
C57	C	1.734811	0.196251	0.535302
C58	C	0.975997	-0.470393	-0.039112
C59	C	1.309330	-0.137059	0.294221
C60	C	1.642663	0.196274	0.627554
C61	C	1.051948	-0.529708	-0.055388
C62	C	1.385281	-0.196375	0.277946
C63	C	1.718614	0.136959	0.611279
C64	C	0.992201	-0.311322	-0.115032
C65	C	1.325534	0.022011	0.218301
C66	C	1.658868	0.355344	0.551635
C67	C	0.992242	-0.688859	-0.114987
C68	C	1.325575	-0.355526	0.218346
C69	C	1.658909	-0.022192	0.551679
C70	C	0.530563	-0.000085	-0.035566
C71	C	0.863897	0.333248	0.297767
C72	C	1.197230	0.666581	0.631100
C73	C	0.469543	0.072916	-0.074521
C74	C	0.802877	0.406249	0.258812
C75	C	1.136210	0.739582	0.592146
C76	C	0.574674	-0.000083	-0.116466
C77	C	0.908007	0.333250	0.216867
C78	C	1.241340	0.666583	0.550201
C79	C	0.469545	-0.073064	-0.074558
C80	C	0.802879	0.260269	0.258775
C81	C	1.136212	0.593603	0.592108
C82	C	0.409762	-0.000097	-0.113555
C83	C	0.743095	0.333236	0.219778
C84	C	1.076428	0.666569	0.553111
C85	C	0.514882	0.072978	-0.155443
C86	C	0.848215	0.406311	0.177890
C87	C	1.181549	0.739645	0.511224
C88	C	0.514890	-0.073067	-0.155469
C89	C	0.848224	0.260266	0.177864
C90	C	1.181557	0.593599	0.511198
C91	C	0.453888	-0.000048	-0.194482
C92	C	0.787221	0.333285	0.138851
C93	C	1.120555	0.666618	0.472184
C94	C	0.669675	-0.000075	-0.118141
C95	C	1.003009	0.333259	0.215193
C96	C	1.336342	0.666592	0.548526
C97	C	0.314761	-0.000100	-0.111887
C98	C	0.648094	0.333234	0.221446
C99	C	0.981428	0.666567	0.554780
C100	C	1.145785	-0.000106	-0.108888
C101	C	1.479118	0.333227	0.224445
C102	C	1.812452	0.666561	0.557778
C103	C	1.239031	-0.000109	-0.110551
C104	C	1.572364	0.333225	0.222783
C105	C	1.905697	0.666558	0.556116
C106	C	0.998377	-0.000083	0.038562
C107	C	1.331711	0.333250	0.371895
C108	C	1.665044	0.666583	0.705229
C109	C	0.996739	-0.000072	0.131811
C110	C	1.330072	0.333262	0.465144
C111	C	1.663405	0.666595	0.798478
N112	N	0.992247	0.230583	-0.114977
N113	N	1.325580	0.563917	0.218356
N114	N	1.658914	0.897250	0.551690
C115	C	1.072670	-0.000094	0.367572
C116	C	1.406003	0.333239	0.700906
C117	C	1.739336	0.666573	1.034239
C118	C	1.031741	0.072913	0.418150
C119	C	1.365074	0.406246	0.751483
C120	C	1.698408	0.739579	1.084816
C121	C	0.993702	-0.000082	0.302533
C122	C	1.327036	0.333252	0.635866
C123	C	1.660369	0.666585	0.969200
C124	C	1.031703	-0.073067	0.418108
C125	C	1.365036	0.260266	0.751441
C126	C	1.698369	0.593600	1.084774
C127	C	0.990775	-0.000095	0.467444
C128	C	1.324109	0.333238	0.800777
C129	C	1.657442	0.666572	1.134110
C130	C	0.952795	0.072985	0.351882
C131	C	1.286128	0.406319	0.685216
C132	C	1.619462	0.739652	1.018549
C133	C	0.952768	-0.073060	0.351837
C134	C	1.286101	0.260273	0.685170
C135	C	1.619435	0.593607	1.018503
C136	C	0.911781	-0.000036	0.402381
C137	C	1.245115	0.333298	0.735715
C138	C	1.578448	0.666631	1.069048
C139	C	0.995391	-0.000073	0.207533
C140	C	1.328724	0.333260	0.540866
C141	C	1.662057	0.666594	0.874199
C142	C	0.989081	-0.000097	0.562441
C143	C	1.322414	0.333236	0.895775
C144	C	1.655747	0.666569	1.229108
C145	C	0.986063	-0.000103	0.731416
C146	C	1.319397	0.333230	1.064749
C147	C	1.652730	0.666564	1.398082
C148	C	0.987736	-0.000106	0.638171
C149	C	1.321070	0.333227	0.971504
C150	C	1.654403	0.666561	1.304838
H151	H	0.882124	-0.444438	-0.225104
H152	H	1.215457	-0.111105	0.108229
H153	H	1.548790	0.222229	0.441563
Br154	Br	0.436066	-0.175926	-0.017518
Br155	Br	0.769400	0.157407	0.315815
Br156	Br	1.102733	0.490741	0.649148
Br157	Br	0.398589	0.000007	-0.306500
Br158	Br	0.731922	0.333341	0.026833
Br159	Br	1.065256	0.666674	0.360166
Br160	Br	0.548418	-0.175946	-0.212468
Br161	Br	0.881751	0.157387	0.120865
Br162	Br	1.215085	0.490721	0.454199
H163	H	0.563913	0.000009	0.031574
H164	H	0.897246	0.333342	0.364907
H165	H	1.230580	0.666676	0.698241
H166	H	1.132331	-0.444449	-0.145210
H167	H	1.465665	-0.111116	0.188123
H168	H	1.798998	0.222218	0.521456
H169	H	0.919473	0.134772	0.323070
H170	H	1.252807	0.468106	0.656403
H171	H	1.586140	0.801439	0.989737
H172	H	0.962246	-0.444279	0.025052
H173	H	1.295580	-0.110946	0.358385
H174	H	1.628913	0.222387	0.691718
H175	H	0.852162	-0.555858	-0.084962
H176	H	1.185495	-0.222524	0.248372
H177	H	1.518829	0.110809	0.581705
Br178	Br	0.436057	0.175793	-0.017482
Br179	Br	0.769390	0.509126	0.315851
Br180	Br	1.102723	0.842459	0.649184
Br181	Br	1.087336	0.175778	0.466409
Br182	Br	1.420670	0.509111	0.799743
Br183	Br	1.754003	0.842445	1.133076
Br184	Br	0.798328	0.000035	0.428163
Br185	Br	1.131662	0.333368	0.761496
Br186	Br	1.464995	0.666701	1.094830
Br187	Br	1.186034	0.000012	0.341521
Br188	Br	1.519367	0.333346	0.674854
Br189	Br	1.852701	0.666679	1.008188
H190	H	0.534869	0.134762	-0.189627
H191	H	0.868203	0.468095	0.143706
H192	H	1.201536	0.801429	0.477040
H193	H	1.102473	-0.555562	-0.004956
H194	H	1.435806	-0.222228	0.328378
H195	H	1.769139	0.111105	0.661711
H196	H	1.022159	-0.555890	-0.255134
H197	H	1.355493	-0.222556	0.078199
H198	H	1.688826	0.110777	0.411533
Br199	Br	0.897235	-0.175931	0.303529
Br200	Br	1.230568	0.157403	0.636863
Br201	Br	1.563901	0.490736	0.970196
Br202	Br	1.087297	-0.175933	0.466316
Br203	Br	1.420630	0.157400	0.799650
Br204	Br	1.753964	0.490734	1.132983
