data_functionalizedCrystal
_audit_creation_method	'MofGen! by Chris Wilmer'
_symmetry_space_group_name_H-M	'P1'
_symmetry_Int_Tables_number	1
_symmetry_cell_setting	triclinic
loop_
_symmetry_equiv_pos_as_xyz
  x,y,z
_cell_length_a	15.944545
_cell_length_b	15.944551
_cell_length_c	9.198806
_cell_angle_alpha	89.995864
_cell_angle_beta	89.998841
_cell_angle_gamma	83.497455
loop_
_atom_site_label
_atom_site_type_symbol
_atom_site_fract_x
_atom_site_fract_y
_atom_site_fract_z
O1	O	1.114527	0.108305	-0.120801
O2	O	1.614527	0.608305	0.379199
O3	O	0.869977	0.121667	-0.120825
O4	O	1.369977	0.621667	0.379175
O5	O	0.998930	-0.007289	-0.120800
O6	O	1.498930	0.492711	0.379200
O7	O	0.985574	0.237261	-0.120827
O8	O	1.485574	0.737261	0.379173
O9	O	0.998920	-0.007289	0.120985
O10	O	1.498920	0.492711	0.620985
O11	O	0.869966	0.121667	0.120960
O12	O	1.369966	0.621667	0.620960
O13	O	1.114517	0.108305	0.120984
O14	O	1.614517	0.608305	0.620984
Cu15	Cu	0.992241	0.114986	0.143048
Cu16	Cu	1.492241	0.614986	0.643048
Cu17	Cu	0.992253	0.114986	-0.142890
Cu18	Cu	1.492253	0.614986	0.357110
O19	O	0.985563	0.237261	0.120958
O20	O	1.485563	0.737261	0.620958
C21	C	0.838677	0.121113	0.000064
C22	C	1.338677	0.621113	0.500064
C23	C	0.745431	0.119453	0.000055
C24	C	1.245431	0.619453	0.500055
C25	C	0.474798	0.034559	0.000080
C26	C	0.974798	0.534559	0.500080
C27	C	0.525375	0.075488	0.119292
C28	C	1.025375	0.575488	0.619292
C29	C	0.409787	0.113532	0.000081
C30	C	0.909787	0.613532	0.500081
C31	C	0.525366	0.075509	-0.119089
C32	C	1.025366	0.575509	0.380911
C33	C	0.574701	0.116437	0.000066
C34	C	1.074701	0.616437	0.500066
C35	C	0.459136	0.154440	0.119391
C36	C	0.959136	0.654440	0.619391
C37	C	0.459123	0.154450	-0.119097
C38	C	0.959123	0.654450	0.380903
C39	C	0.509667	0.195436	0.000144
C40	C	1.009667	0.695436	0.500144
C41	C	0.314785	0.111856	0.000091
C42	C	0.814785	0.611856	0.500091
C43	C	0.669700	0.118119	0.000067
C44	C	1.169700	0.618119	0.500067
C45	C	0.998370	-0.038583	0.000093
C46	C	1.498370	0.461417	0.500093
C47	C	0.996708	-0.131829	0.000094
C48	C	1.496708	0.368171	0.500094
C49	C	0.912803	-0.346684	0.000065
C50	C	1.412803	0.153316	0.500065
C51	C	0.951761	-0.407702	0.119284
C52	C	1.451761	0.092298	0.619284
C53	C	0.993701	-0.302555	0.000082
C54	C	1.493701	0.197445	0.500082
C55	C	0.951790	-0.407685	-0.119097
C56	C	1.451790	0.092315	0.380903
C57	C	0.990790	-0.467468	0.000065
C58	C	1.490790	0.032532	0.500065
C59	C	1.032680	-0.362345	0.119399
C60	C	1.532680	0.137655	0.619399
C61	C	1.032698	-0.362322	-0.119089
C62	C	1.532698	0.137678	0.380911
C63	C	1.071715	-0.423322	0.000158
C64	C	1.571715	0.076678	0.500158
C65	C	0.995375	-0.207553	0.000093
C66	C	1.495375	0.292447	0.500093
C67	C	0.989122	-0.562469	0.000064
C68	C	1.489122	-0.062469	0.500064
C69	C	1.145816	0.108859	0.000091
C70	C	1.645816	0.608859	0.500091
C71	C	1.239062	0.110519	0.000090
C72	C	1.739062	0.610519	0.500090
C73	C	0.986123	0.268555	0.000062
C74	C	1.486123	0.768555	0.500062
C75	C	0.987785	0.361801	0.000052
C76	C	1.487785	0.861801	0.500052
N77	N	0.992238	0.114985	0.344162
N78	N	1.492238	0.614985	0.844162
N79	N	0.992262	0.114980	-0.344004
N80	N	1.492262	0.614980	0.155996
C81	C	1.046384	0.060603	0.416370
C82	C	1.546384	0.560603	0.916370
C83	C	1.046397	0.060600	0.583783
C84	C	1.546397	0.560600	1.083783
H85	H	0.430322	0.187767	0.220283
H86	H	0.930322	0.687767	0.720283
Br87	Br	0.914998	0.192594	0.552516
Br88	Br	1.414998	0.692594	1.052516
H89	H	1.092757	0.014045	0.645878
H90	H	1.592757	0.514045	1.145878
H91	H	1.066889	-0.342192	-0.219877
H92	H	1.566889	0.157808	0.280123
H93	H	0.459145	-0.033453	0.000204
H94	H	0.959145	0.466547	0.500204
H95	H	0.554302	0.042135	0.220083
H96	H	1.054302	0.542135	0.720083
H97	H	0.525159	0.263501	0.000206
H98	H	1.025159	0.763501	0.500206
Br99	Br	0.894744	-0.441173	-0.287071
Br100	Br	1.394744	0.058827	0.212929
H101	H	1.066864	-0.342355	0.220300
H102	H	1.566864	0.157645	0.720300
H103	H	0.945888	0.161538	0.406281
H104	H	1.445888	0.661538	0.906281
H105	H	1.138922	-0.456483	0.000232
H106	H	1.638922	0.043517	0.500232
Br107	Br	0.800886	-0.291168	0.000238
Br108	Br	1.300886	0.208832	0.500238
Br109	Br	0.410880	0.209993	-0.287097
Br110	Br	0.910880	0.709993	0.212903
H111	H	1.092728	0.014044	0.354253
H112	H	1.592728	0.514044	0.854253
H113	H	0.554287	0.042144	-0.219867
H114	H	1.054287	0.542144	0.280133
H115	H	0.917540	-0.427810	0.220067
H116	H	1.417540	0.072190	0.720067
