data_functionalizedCrystal
_audit_creation_method	'MofGen! by Chris Wilmer'
_symmetry_space_group_name_H-M	'P1'
_symmetry_Int_Tables_number	1
_symmetry_cell_setting	triclinic
loop_
_symmetry_equiv_pos_as_xyz
  x,y,z
_cell_length_a	19.288865
_cell_length_b	19.288840
_cell_length_c	17.766277
_cell_angle_alpha	90.006284
_cell_angle_beta	89.987037
_cell_angle_gamma	96.868869
loop_
_atom_site_label
_atom_site_type_symbol
_atom_site_fract_x
_atom_site_fract_y
_atom_site_fract_z
O1	O	0.086569	-0.921353	-0.062728
O2	O	0.098275	-0.719090	-0.062704
O3	O	-0.008709	-0.826066	-0.062702
O4	O	0.193553	-0.814377	-0.062730
O5	O	-0.008720	-0.826069	0.062487
O6	O	0.098265	-0.719093	0.062485
O7	O	0.086558	-0.921356	0.062460
Cu8	Cu	0.092410	-0.820225	0.073903
Cu9	Cu	0.092423	-0.820222	-0.074147
O10	O	0.193542	-0.814380	0.062458
C11	C	-0.034591	-0.825692	-0.000105
C12	C	-0.111694	-0.824563	-0.000099
C13	C	0.097896	-0.693215	-0.000106
C14	C	0.096774	-0.616110	-0.000096
C15	C	0.086937	-0.947232	-0.000139
C16	C	0.088059	-1.024336	-0.000154
C17	C	-0.156396	-0.887331	-0.000103
C18	C	-0.228843	-0.886270	-0.000114
C19	C	-0.256585	-0.822438	-0.000107
C20	C	-0.211873	-0.759661	-0.000107
C21	C	-0.139428	-0.760723	-0.000103
C22	C	-0.364871	-0.772258	0.043750
C23	C	-0.437316	-0.771198	0.043750
C24	C	-0.480030	-0.819158	-0.000123
C25	C	-0.450293	-0.868189	-0.043988
C26	C	-0.377847	-0.869251	-0.043984
C27	C	-0.335139	-0.821278	-0.000112
C28	C	-0.603288	-0.880781	-0.000141
C29	C	-0.675736	-0.879717	-0.000158
C30	C	-0.658764	-0.753106	-0.000143
C31	C	-0.586318	-0.754171	-0.000134
C32	C	-0.558584	-0.818010	-0.000130
C33	C	0.219424	-0.814755	-0.000140
C34	C	0.296527	-0.815884	-0.000152
C35	C	0.096241	-0.579905	-0.068338
C36	C	0.095179	-0.507459	-0.068347
C37	C	0.094636	-0.471221	-0.000110
C38	C	0.095173	-0.507434	0.068141
C39	C	0.096243	-0.579879	0.068148
C40	C	0.052254	-0.361895	0.052164
C41	C	0.051181	-0.289452	0.052155
C42	C	0.091342	-0.247778	-0.000129
C43	C	0.132568	-0.278556	-0.052416
C44	C	0.133637	-0.351001	-0.052408
C45	C	0.093477	-0.392667	-0.000110
C46	C	0.089658	-0.133017	-0.068386
C47	C	0.088601	-0.060568	-0.068392
C48	C	0.088588	-0.060547	0.068098
C49	C	0.089653	-0.132993	0.068102
C50	C	0.090185	-0.169225	-0.000142
N51	N	0.092427	-0.820220	-0.178277
C52	C	0.045146	-0.867673	-0.217663
C53	C	0.045145	-0.867679	-0.296465
C54	C	0.092418	-0.820220	-0.335878
C55	C	0.139707	-0.772763	-0.296482
C56	C	0.139712	-0.772763	-0.217682
C57	C	0.101569	-0.756932	-0.460716
C58	C	0.101559	-0.756931	-0.539515
C59	C	0.092408	-0.820220	-0.578924
C60	C	0.083251	-0.883513	-0.539525
C61	C	0.083255	-0.883513	-0.460725
C62	C	0.092418	-0.820215	-0.421323
C63	C	0.045123	-0.867684	-0.703756
C64	C	0.045127	-0.867691	-0.782559
C65	C	0.139686	-0.772769	-0.782575
C66	C	0.139685	-0.772768	-0.703773
C67	C	0.092401	-0.820225	-0.664368
N68	N	0.092401	-0.820232	0.178034
H69	H	-0.133820	-0.939314	-0.000102
H70	H	0.178198	-0.734123	-0.328576
H71	H	0.006623	-0.906328	-0.671672
H72	H	-0.265246	-0.937386	-0.000121
H73	H	0.178183	-0.734125	-0.671703
O74	O	0.178107	-0.384200	-0.108789
H75	H	0.205861	-0.343055	-0.145145
H76	H	0.178214	-0.734121	-0.185613
O77	O	-0.573366	-0.949631	-0.000152
H78	H	-0.616625	-0.993102	-0.000171
H79	H	0.090082	-0.162472	0.123672
O80	O	0.006713	-0.256262	0.108545
H81	H	0.012707	-0.198887	0.099749
O82	O	0.088008	-0.021468	0.141697
H83	H	0.088561	-0.058818	0.189153
H84	H	0.094746	-0.477975	-0.123920
O85	O	0.190670	-0.721581	-0.825080
H86	H	0.244826	-0.730157	-0.809980
O87	O	-0.005846	-0.918859	-0.175158
H88	H	0.023381	-0.952455	-0.139268
H89	H	0.075802	-0.935048	-0.428649
O90	O	0.008936	-0.406837	0.108565
H91	H	0.016611	-0.462381	0.099793
O92	O	0.111437	-0.688670	-0.582008
H93	H	0.117816	-0.644661	-0.541368
O94	O	0.094924	-0.468312	0.141741
H95	H	0.094207	-0.411838	0.130272
O96	O	-0.005860	-0.918846	-0.338971
H97	H	0.002930	-0.972943	-0.323869
O98	O	-0.345768	-0.922120	-0.091302
H99	H	-0.387635	-0.955288	-0.121820
H100	H	0.165274	-0.244625	-0.094987
H101	H	0.075804	-0.935050	-0.571610
O102	O	0.096824	-0.618984	-0.141940
H103	H	0.096281	-0.581632	-0.189395
O104	O	0.111444	-0.688667	-0.418210
H105	H	0.162671	-0.659511	-0.433352
O106	O	-0.318806	-0.720531	0.091082
H107	H	-0.281403	-0.688264	0.054103
H108	H	0.006628	-0.906336	-0.814628
O109	O	0.096827	-0.618935	0.141755
H110	H	0.096274	-0.581568	0.189205
O111	O	-0.688679	-0.684257	-0.000130
H112	H	-0.670697	-0.654105	-0.051153
O113	O	-0.496350	-0.919919	-0.091320
H114	H	-0.551721	-0.910939	-0.083965
H115	H	-0.712132	-0.930833	-0.000165
H116	H	0.088171	-0.031091	-0.123965
O117	O	0.090244	-0.172102	-0.141986
H118	H	0.089708	-0.134750	-0.189443
O119	O	-0.538101	-0.686467	-0.000110
H120	H	-0.547925	-0.655900	-0.051127
O121	O	-0.469390	-0.718320	0.091060
H122	H	-0.427518	-0.685141	0.121558
H123	H	-0.234465	-0.707687	-0.000103
H124	H	-0.103030	-0.709608	-0.000099
