data_functionalizedCrystal
_audit_creation_method	'MofGen! by Chris Wilmer'
_symmetry_space_group_name_H-M	'P1'
_symmetry_Int_Tables_number	1
_symmetry_cell_setting	triclinic
loop_
_symmetry_equiv_pos_as_xyz
  x,y,z
_cell_length_a	11.026607
_cell_length_b	9.482900
_cell_length_c	10.908878
_cell_angle_alpha	82.984801
_cell_angle_beta	95.664596
_cell_angle_gamma	78.636152
loop_
_atom_site_label
_atom_site_type_symbol
_atom_site_fract_x
_atom_site_fract_y
_atom_site_fract_z
O1	O	-1.528431	0.120894	0.498728
O2	O	-1.028431	0.620894	0.998728
O3	O	-1.186931	0.120896	0.440226
O4	O	-0.686931	0.620896	0.940226
O5	O	-1.402950	0.120889	0.293010
O6	O	-0.902950	0.620889	0.793010
O7	O	-1.312412	0.120901	0.645943
O8	O	-0.812412	0.620901	1.145943
O9	O	-1.359040	-0.120902	0.323067
O10	O	-0.859040	0.379098	0.823067
O11	O	-1.143022	-0.120895	0.470282
O12	O	-0.643022	0.379105	0.970282
O13	O	-1.484521	-0.120897	0.528784
O14	O	-0.984521	0.379103	1.028784
Cu15	Cu	-1.309762	-0.142974	0.502278
Cu16	Cu	-0.809762	0.357026	1.002278
Cu17	Cu	-1.361690	0.142972	0.466732
Cu18	Cu	-0.861690	0.642972	0.966732
O19	O	-1.268502	-0.120891	0.676000
O20	O	-0.768502	0.379109	1.176000
C21	C	-1.121943	0.000001	0.444461
C22	C	-0.621943	0.500001	0.944461
C23	C	-0.993722	0.000001	0.412288
C24	C	-0.493722	0.500001	0.912288
N25	N	-1.273247	-0.344093	0.527279
N26	N	-0.773247	0.155907	1.027279
C27	C	-1.389457	-0.000005	0.262153
C28	C	-0.889457	0.499995	0.762153
C29	C	-1.414656	0.000000	0.125424
C30	C	-0.914656	0.500000	0.625424
C31	C	-1.549509	0.000001	0.524548
C32	C	-1.049509	0.500001	1.024548
C33	C	-1.677732	0.000010	0.556720
C34	C	-1.177732	0.500010	1.056720
C35	C	-0.901990	0.000005	0.501123
C36	C	-0.401990	0.500005	1.001123
C37	C	-0.769466	0.000006	0.467873
C38	C	-0.269466	0.500006	0.967873
C39	C	-1.350913	-0.416294	0.474098
C40	C	-0.850913	0.083706	0.974098
C41	C	-1.320539	-0.583711	0.494912
C42	C	-0.820539	-0.083711	0.994912
N43	N	-1.398216	0.344091	0.441723
N44	N	-0.898216	0.844091	0.941723
C45	C	-1.322712	0.000003	0.055161
C46	C	-0.822712	0.500003	0.555161
C47	C	-1.348755	0.000008	-0.086155
C48	C	-0.848755	0.500008	0.413845
C49	C	-1.281996	0.000007	0.706857
C50	C	-0.781996	0.500007	1.206857
C51	C	-1.256798	0.000011	0.843584
C52	C	-0.756798	0.500011	1.343584
H53	H	-0.921564	0.000000	0.601794
H54	H	-0.421564	0.500000	1.101794
H55	H	-1.487198	-0.593787	0.380775
H56	H	-0.987198	-0.093787	0.880775
Br57	Br	-0.736857	-0.000016	0.300071
Br58	Br	-0.236857	0.499984	0.800071
Br59	Br	-1.498992	-0.312758	0.372151
Br60	Br	-0.998992	0.187242	0.872151
Br61	Br	-1.172216	-0.687242	0.596476
Br62	Br	-0.672216	-0.187242	1.096476
Br63	Br	-0.961107	-0.000020	0.244493
Br64	Br	-0.461107	0.499980	0.744493
H65	H	-1.184265	-0.406220	0.588213
H66	H	-0.684265	0.093780	1.088213
H67	H	-1.224715	-0.000005	0.099628
H68	H	-0.724715	0.499995	0.599628
Br69	Br	-1.512100	-0.000007	-0.160246
Br70	Br	-1.012100	0.499993	0.339754
Br71	Br	-1.093445	-0.000013	-0.082324
Br72	Br	-0.593445	0.499987	0.417676
H73	H	-1.512651	-0.000005	0.080959
H74	H	-1.012651	0.499995	0.580959
H75	H	-0.697298	0.000004	0.657399
H76	H	-0.197298	0.500004	1.157399
