data_functionalizedCrystal
_audit_creation_method	'MofGen! by Chris Wilmer'
_symmetry_space_group_name_H-M	'P1'
_symmetry_Int_Tables_number	1
_symmetry_cell_setting	triclinic
loop_
_symmetry_equiv_pos_as_xyz
  x,y,z
_cell_length_a	6.817900
_cell_length_b	15.866870
_cell_length_c	23.752930
_cell_angle_alpha	113.703831
_cell_angle_beta	100.066047
_cell_angle_gamma	102.655915
loop_
_atom_site_label
_atom_site_type_symbol
_atom_site_fract_x
_atom_site_fract_y
_atom_site_fract_z
V1	V	-4.008524	-0.134100	-0.206675
O2	O	-3.976275	0.005142	-0.173913
O3	O	-3.979506	-0.264644	-0.232988
O4	O	-3.943345	-0.132608	-0.284164
O5	O	-4.012686	-0.127808	-0.122382
V6	V	-4.491814	-0.117377	-0.193225
O7	O	-4.270292	-0.170781	-0.236179
O8	O	-4.680243	-0.080695	-0.163721
O9	O	-4.297626	0.013167	-0.166913
O10	O	-4.641460	-0.256618	-0.225987
O11	O	-4.605049	-0.123668	-0.277518
O12	O	-4.333786	-0.118868	-0.115736
C13	C	-3.829765	-0.296450	-0.236881
C14	C	-3.887214	-0.403176	-0.258911
C15	C	-3.920362	-0.683812	-0.054564
C16	C	-3.974350	-0.784102	-0.075284
C17	C	-4.036667	-0.812239	-0.186007
C18	C	-3.982674	-0.711950	-0.165296
C19	C	-3.924526	-0.647743	-0.099574
C20	C	-3.986838	-0.675881	-0.210306
C21	C	-3.932859	-0.575600	-0.189597
C22	C	-3.874717	-0.511388	-0.123878
C23	C	-3.870548	-0.547463	-0.078865
C24	C	-4.045000	-0.740089	-0.276029
C25	C	-4.049164	-0.704020	-0.321039
C26	C	-3.995171	-0.603737	-0.300330
C27	C	-3.937028	-0.539525	-0.234610
C28	C	-3.999340	-0.567663	-0.345343
C29	C	-3.945362	-0.467382	-0.324634
C30	C	-3.883050	-0.439245	-0.213901
C31	C	-3.783637	-0.128024	-0.302161
C32	C	-3.811759	-0.127669	-0.365691
C33	C	-4.168507	-0.130189	-0.763547
C34	C	-4.194951	-0.129842	-0.823236
O35	O	-4.363557	-0.133723	-0.857439
N36	N	-4.025975	-0.124862	-0.849162
C37	C	-3.830537	-0.120218	-0.815392
O38	O	-3.689238	-0.115950	-0.842925
C39	C	-3.804092	-0.120558	-0.755702
C40	C	-3.973087	-0.125548	-0.729782
C41	C	-4.337486	-0.135178	-0.737627
C42	C	-4.311045	-0.135526	-0.677942
C43	C	-4.115624	-0.130886	-0.644177
C44	C	-3.946645	-0.125897	-0.670098
C45	C	-3.608652	-0.115907	-0.721931
C46	C	-3.582221	-0.116247	-0.662237
C47	C	-3.751215	-0.121237	-0.636317
C48	C	-3.724783	-0.121605	-0.576648
N49	N	-3.893759	-0.126585	-0.550722
C50	C	-4.089179	-0.131225	-0.584487
C51	C	-3.886086	-0.119504	-0.940746
C52	C	-3.912533	-0.119171	-1.000437
C53	C	-4.276944	-0.128793	-1.008277
C54	C	-4.250499	-0.129133	-0.948586
C55	C	-4.055062	-0.124484	-0.914820
C56	C	-4.033637	-0.131957	-0.459144
C57	C	-4.007179	-0.132309	-0.399455
C58	C	-3.642768	-0.122682	-0.391620
C59	C	-3.669225	-0.122335	-0.451305
C60	C	-3.864673	-0.126970	-0.485065
O61	O	-3.556237	-0.117723	-0.542408
O62	O	-4.230442	-0.135481	-0.556942
C63	C	-4.110710	0.044969	-0.163018
C64	C	-4.032498	0.151693	-0.140992
C65	C	-4.156837	-0.123456	-0.097737
C66	C	-4.107954	-0.123806	-0.034205
H67	H	-3.970948	-0.813463	-0.038626
Br68	Br	-4.479859	-0.135905	-0.913416
Br69	Br	-3.804089	-0.352097	-0.124705
H70	H	-4.084025	-0.864529	-0.239518
H71	H	-3.726931	-0.115717	-0.913256
H72	H	-3.830774	-0.429734	-0.107018
Br73	Br	-4.542166	-0.135090	-1.054111
H74	H	-3.823166	-0.495181	-0.025347
Br75	Br	-4.118275	-0.876186	-0.304135
Br76	Br	-3.683184	-0.112422	-1.035614
Br77	Br	-4.128094	-0.791164	-0.410231
H78	H	-4.192785	-0.135733	-0.486626
Br79	Br	-4.236551	-0.139088	-0.364284
H80	H	-3.948784	-0.438016	-0.361286
Br81	Br	-4.078297	-0.654810	-0.434535
Br82	Br	-3.316965	-0.109927	-0.616411
Br83	Br	-4.602730	-0.141479	-0.783440
H84	H	-3.531622	-0.118282	-0.472413
Br85	Br	-3.377564	-0.116390	-0.345787
H86	H	-3.471033	-0.111844	-0.743024
H87	H	-3.872980	-0.631530	-0.001045
H88	H	-4.448659	-0.139585	-0.656842
