data_functionalizedCrystal
_audit_creation_method	'MofGen! by Chris Wilmer'
_symmetry_space_group_name_H-M	'P1'
_symmetry_Int_Tables_number	1
_symmetry_cell_setting	triclinic
loop_
_symmetry_equiv_pos_as_xyz
  x,y,z
_cell_length_a	14.044191
_cell_length_b	14.044220
_cell_length_c	13.448316
_cell_angle_alpha	90.007340
_cell_angle_beta	90.004141
_cell_angle_gamma	93.190327
loop_
_atom_site_label
_atom_site_type_symbol
_atom_site_fract_x
_atom_site_fract_y
_atom_site_fract_z
O1	O	1.277176	0.230202	0.082648
O2	O	1.777176	0.730202	0.582648
O3	O	1.000503	0.221890	0.082661
O4	O	1.500503	0.721890	0.582661
O5	O	1.134686	0.087710	0.082645
O6	O	1.634686	0.587710	0.582645
O7	O	1.142992	0.364382	0.082664
O8	O	1.642992	0.864382	0.582664
O9	O	1.134667	0.087700	-0.082739
O10	O	1.634667	0.587700	0.417261
O11	O	1.000484	0.221879	-0.082723
O12	O	1.500484	0.721879	0.417277
O13	O	1.277156	0.230192	-0.082736
O14	O	1.777156	0.730192	0.417264
Cu15	Cu	1.138818	0.226034	-0.097830
Cu16	Cu	1.638818	0.726034	0.402170
Cu17	Cu	1.138841	0.226047	0.097755
Cu18	Cu	1.638841	0.726047	0.597755
O19	O	1.142973	0.364371	-0.082720
O20	O	1.642973	0.864371	0.417280
C21	C	0.964872	0.218248	-0.000030
C22	C	1.464872	0.718248	0.499970
C23	C	0.858728	0.207401	-0.000025
C24	C	1.358728	0.707401	0.499975
C25	C	0.613270	0.264501	-0.000031
C26	C	1.113270	0.764501	0.499969
C27	C	0.664395	0.187585	-0.000035
C28	C	1.164395	0.687585	0.499965
C29	C	0.772532	0.198613	-0.000030
C30	C	1.272532	0.698613	0.499970
C31	C	0.505123	0.253474	-0.000037
C32	C	1.005123	0.753474	0.499963
C33	C	1.131041	0.052083	-0.000047
C34	C	1.631041	0.552083	0.499953
C35	C	1.120197	-0.054060	-0.000048
C36	C	1.620197	0.445940	0.499952
C37	C	1.100370	-0.248398	-0.000033
C38	C	1.600370	0.251602	0.499967
C39	C	1.177285	-0.299526	-0.000033
C40	C	1.677285	0.200474	0.499967
C41	C	1.166253	-0.407663	-0.000025
C42	C	1.666253	0.092337	0.499975
C43	C	1.111400	-0.140252	-0.000041
C44	C	1.611400	0.359748	0.499959
C45	C	1.312788	0.233834	-0.000043
C46	C	1.812788	0.733834	0.499957
C47	C	1.418931	0.244681	-0.000041
C48	C	1.918931	0.744681	0.499959
C49	C	1.146618	0.399998	-0.000025
C50	C	1.646618	0.899998	0.499975
C51	C	1.157463	0.506142	-0.000018
C52	C	1.657463	1.006142	0.499982
N53	N	1.138809	0.226026	-0.235395
N54	N	1.638809	0.726026	0.264605
C55	C	1.198248	0.166639	-0.287442
C56	C	1.698248	0.666639	0.212558
C57	C	1.198254	0.166639	-0.391545
C58	C	1.698254	0.666639	0.108455
C59	C	1.138825	0.226031	-0.443599
C60	C	1.638825	0.726031	0.056401
C61	C	1.079380	0.285420	-0.391544
C62	C	1.579380	0.785420	0.108456
C63	C	1.079370	0.285414	-0.287443
C64	C	1.579370	0.785414	0.212557
C65	C	1.079407	0.285428	-0.608525
C66	C	1.579407	0.785428	-0.108525
C67	C	1.079418	0.285435	-0.712633
C68	C	1.579418	0.785435	-0.212633
C69	C	1.198291	0.166653	-0.712627
C70	C	1.698291	0.666653	-0.212627
C71	C	1.198281	0.166648	-0.608525
C72	C	1.698281	0.666648	-0.108525
C73	C	1.138837	0.226038	-0.556478
C74	C	1.638837	0.726038	-0.056478
N75	N	1.138857	0.226049	0.235320
N76	N	1.638857	0.726049	0.735320
H77	H	1.251419	-0.262085	0.000030
H78	H	1.751419	0.237915	0.500030
H79	H	1.026242	-0.285837	-0.000027
H80	H	1.526242	0.214163	0.499973
Cl81	Cl	1.272968	0.091975	-0.222014
Cl82	Cl	1.772968	0.591975	0.277986
H83	H	1.246692	0.118295	-0.755010
H84	H	1.746692	0.618295	-0.255010
Cl85	Cl	1.004663	0.360080	-0.456981
Cl86	Cl	1.504663	0.860080	0.043019
H87	H	0.650711	0.338628	-0.000023
H88	H	1.150711	0.838628	0.499977
H89	H	1.246653	0.118282	-0.433922
H90	H	1.746653	0.618282	0.066078
Cl91	Cl	1.272997	0.091990	-0.543084
Cl92	Cl	1.772997	0.591990	-0.043084
Cl93	Cl	1.004702	0.360100	-0.778064
Cl94	Cl	1.504702	0.860100	-0.278064
H95	H	1.030998	0.333787	-0.566151
H96	H	1.530998	0.833787	-0.066151
Cl97	Cl	1.004639	0.360071	-0.222013
Cl98	Cl	1.504639	0.860071	0.277987
H99	H	0.626952	0.113452	0.000030
H100	H	1.126952	0.613452	0.500030
