data_functionalizedCrystal
_audit_creation_method	'MofGen! by Chris Wilmer'
_symmetry_space_group_name_H-M	'P1'
_symmetry_Int_Tables_number	1
_symmetry_cell_setting	triclinic
loop_
_symmetry_equiv_pos_as_xyz
  x,y,z
_cell_length_a	19.288867
_cell_length_b	18.366186
_cell_length_c	19.288865
_cell_angle_alpha	89.988521
_cell_angle_beta	83.136658
_cell_angle_gamma	89.992441
loop_
_atom_site_label
_atom_site_type_symbol
_atom_site_fract_x
_atom_site_fract_y
_atom_site_fract_z
O1	O	0.921352	-0.060532	0.086655
O2	O	1.171352	0.189468	0.336655
O3	O	1.421352	0.439468	0.586655
O4	O	1.671352	0.689468	0.836655
O5	O	0.719091	-0.060541	0.098343
O6	O	0.969091	0.189459	0.348343
O7	O	1.219091	0.439459	0.598343
O8	O	1.469091	0.689459	0.848343
O9	O	0.826066	-0.060522	-0.008631
O10	O	1.076066	0.189478	0.241369
O11	O	1.326066	0.439478	0.491369
O12	O	1.576066	0.689478	0.741369
O13	O	0.814377	-0.060551	0.193629
O14	O	1.064377	0.189449	0.443629
O15	O	1.314377	0.439449	0.693629
O16	O	1.564377	0.689449	0.943629
O17	O	0.826048	0.060578	-0.008637
O18	O	1.076048	0.310578	0.241363
O19	O	1.326048	0.560578	0.491363
O20	O	1.576048	0.810578	0.741363
O21	O	0.719073	0.060559	0.098337
O22	O	0.969073	0.310559	0.348337
O23	O	1.219073	0.560559	0.598337
O24	O	1.469073	0.810559	0.848337
O25	O	0.921334	0.060567	0.086650
O26	O	1.171334	0.310567	0.336650
O27	O	1.421334	0.560567	0.586650
O28	O	1.671334	0.810567	0.836650
Zn29	Zn	0.820201	0.079790	0.092493
Zn30	Zn	1.070201	0.329790	0.342493
Zn31	Zn	1.320201	0.579790	0.592493
Zn32	Zn	1.570201	0.829790	0.842493
Zn33	Zn	0.820224	-0.079764	0.092500
Zn34	Zn	1.070224	0.170236	0.342500
Zn35	Zn	1.320224	0.420236	0.592500
Zn36	Zn	1.570224	0.670236	0.842500
O37	O	0.814359	0.060548	0.193624
O38	O	1.064359	0.310548	0.443624
O39	O	1.314359	0.560548	0.693624
O40	O	1.564359	0.810548	0.943624
C41	C	0.693206	0.000008	0.097964
C42	C	0.943206	0.250008	0.347964
C43	C	1.193206	0.500008	0.597964
C44	C	1.443206	0.750008	0.847964
C45	C	0.616102	0.000006	0.096834
C46	C	0.866102	0.250006	0.346834
C47	C	1.116102	0.500006	0.596834
C48	C	1.366102	0.750006	0.846834
C49	C	0.825681	0.000030	-0.034510
C50	C	1.075681	0.250030	0.215490
C51	C	1.325681	0.500030	0.465490
C52	C	1.575681	0.750030	0.715490
C53	C	0.824552	0.000036	-0.111614
C54	C	1.074552	0.250036	0.138386
C55	C	1.324552	0.500036	0.388386
C56	C	1.574552	0.750036	0.638386
C57	C	0.060547	-0.065996	0.088701
C58	C	0.310547	0.184004	0.338701
C59	C	0.560547	0.434004	0.588701
C60	C	0.810547	0.684004	0.838701
C61	C	0.132994	-0.065999	0.089758
C62	C	0.382994	0.184001	0.339758
C63	C	0.632994	0.434001	0.589758
C64	C	0.882994	0.684001	0.839758
C65	C	0.169213	0.000012	0.090287
C66	C	0.419213	0.250012	0.340287
C67	C	0.669213	0.500012	0.590287
C68	C	0.919213	0.750012	0.840287
C69	C	0.132981	0.066031	0.089741
C70	C	0.382981	0.316031	0.339741
C71	C	0.632981	0.566031	0.589741
C72	C	0.882981	0.816031	0.839741
C73	C	0.060535	0.066032	0.088677
C74	C	0.310535	0.316032	0.338677
C75	C	0.560535	0.566032	0.588677
C76	C	0.810535	0.816032	0.838677
C77	C	0.278533	0.050579	0.132652
C78	C	0.528533	0.300579	0.382652
C79	C	0.778533	0.550579	0.632652
C80	C	1.028533	0.800579	0.882652
C81	C	0.350976	0.050575	0.133721
C82	C	0.600976	0.300575	0.383721
C83	C	0.850976	0.550575	0.633721
C84	C	1.100976	0.800575	0.883721
C85	C	0.392659	0.000012	0.093566
C86	C	0.642659	0.250012	0.343566
C87	C	0.892659	0.500012	0.593566
C88	C	1.142659	0.750012	0.843566
C89	C	0.361888	-0.050560	0.052352
C90	C	0.611888	0.199440	0.302352
C91	C	0.861888	0.449440	0.552352
C92	C	1.111888	0.699440	0.802352
C93	C	0.289443	-0.050559	0.051287
C94	C	0.539443	0.199441	0.301287
C95	C	0.789443	0.449441	0.551287
C96	C	1.039443	0.699441	0.801287
C97	C	0.247768	0.000019	0.091440
C98	C	0.497768	0.250019	0.341440
C99	C	0.747768	0.500019	0.591440
C100	C	0.997768	0.750019	0.841440
C101	C	0.507439	-0.066006	0.095253
C102	C	0.757439	0.183994	0.345253
C103	C	1.007439	0.433994	0.595253
C104	C	1.257439	0.683994	0.845253
C105	C	0.579889	-0.066006	0.096306
C106	C	0.829889	0.183994	0.346306
C107	C	1.079889	0.433994	0.596306
C108	C	1.329889	0.683994	0.846306
C109	C	0.579872	0.066026	0.096296
C110	C	0.829872	0.316026	0.346296
C111	C	1.079872	0.566026	0.596296
C112	C	1.329872	0.816026	0.846296
C113	C	0.507425	0.066024	0.095236
C114	C	0.757425	0.316024	0.345236
C115	C	1.007425	0.566024	0.595236
C116	C	1.257425	0.816024	0.845236
C117	C	0.471213	0.000006	0.094718
C118	C	0.721213	0.250006	0.344718
C119	C	0.971213	0.500006	0.594718
C120	C	1.221213	0.750006	0.844718
C121	C	0.947219	0.000016	0.087029
C122	C	1.197219	0.250016	0.337029
C123	C	1.447219	0.500016	0.587029
C124	C	1.697219	0.750016	0.837029
C125	C	1.024323	0.000014	0.088159
C126	C	1.274323	0.250014	0.338159
C127	C	1.524323	0.500014	0.588159
C128	C	1.774323	0.750014	0.838159
N129	N	0.820189	0.188681	0.092488
N130	N	1.070189	0.438681	0.342488
N131	N	1.320189	0.688681	0.592488
N132	N	1.570189	0.938681	0.842488
N133	N	0.820241	-0.188655	0.092499
N134	N	1.070241	0.061345	0.342499
N135	N	1.320241	0.311345	0.592499
N136	N	1.570241	0.561345	0.842499
C137	C	0.867573	0.226790	0.045143
C138	C	1.117573	0.476790	0.295143
C139	C	1.367573	0.726790	0.545143
C140	C	1.617573	0.976790	0.795143
C141	C	0.867578	0.303018	0.045140
C142	C	1.117578	0.553018	0.295140
C143	C	1.367578	0.803018	0.545140
C144	C	1.617578	1.053018	0.795140
C145	C	0.820205	0.341134	0.092493
C146	C	1.070205	0.591134	0.342493
C147	C	1.320205	0.841134	0.592493
C148	C	1.570205	1.091134	0.842493
C149	C	0.772812	0.303016	0.139842
C150	C	1.022812	0.553016	0.389842
C151	C	1.272812	0.803016	0.639842
C152	C	1.522812	1.053016	0.889842
C153	C	0.772804	0.226790	0.139839
C154	C	1.022804	0.476790	0.389839
C155	C	1.272804	0.726790	0.639839
C156	C	1.522804	0.976790	0.889839
C157	C	0.810907	0.461885	0.155781
C158	C	1.060907	0.711885	0.405781
C159	C	1.310907	0.961885	0.655781
C160	C	1.560907	1.211885	0.905781
C161	C	0.810919	0.538110	0.155785
C162	C	1.060919	0.788110	0.405785
C163	C	1.310919	1.038110	0.655785
C164	C	1.560919	1.288110	0.905785
C165	C	0.820224	0.576241	0.092502
C166	C	1.070224	0.826241	0.342502
C167	C	1.320224	1.076241	0.592502
C168	C	1.570224	1.326241	0.842502
C169	C	0.829532	0.538139	0.029213
C170	C	1.079532	0.788139	0.279213
C171	C	1.329532	1.038139	0.529213
C172	C	1.579532	1.288139	0.779213
C173	C	0.829524	0.461912	0.029210
C174	C	1.079524	0.711912	0.279210
C175	C	1.329524	0.961912	0.529210
C176	C	1.579524	1.211912	0.779210
C177	C	0.820208	0.423789	0.092502
C178	C	1.070208	0.673789	0.342502
C179	C	1.320208	0.923789	0.592502
C180	C	1.570208	1.173789	0.842502
C181	C	0.867616	0.697005	0.045150
C182	C	1.117616	0.947005	0.295150
C183	C	1.367616	1.197005	0.545150
C184	C	1.617616	1.447005	0.795150
C185	C	0.867615	0.773234	0.045146
C186	C	1.117615	1.023234	0.295146
C187	C	1.367615	1.273234	0.545146
C188	C	1.617615	1.523234	0.795146
C189	C	0.772853	0.773231	0.139854
C190	C	1.022853	1.023231	0.389854
C191	C	1.272853	1.273231	0.639854
C192	C	1.522853	1.523231	0.889854
C193	C	0.772850	0.697003	0.139852
C194	C	1.022850	0.947003	0.389852
C195	C	1.272850	1.197003	0.639852
C196	C	1.522850	1.447003	0.889852
C197	C	0.820235	0.658895	0.092501
C198	C	1.070235	0.908895	0.342501
C199	C	1.320235	1.158895	0.592501
C200	C	1.570235	1.408895	0.842501
C201	C	0.887320	0.000042	-0.156310
C202	C	1.137320	0.250042	0.093690
C203	C	1.387320	0.500042	0.343690
C204	C	1.637320	0.750042	0.593690
C205	C	0.886259	0.000031	-0.228757
C206	C	1.136259	0.250031	0.021243
C207	C	1.386259	0.500031	0.271243
C208	C	1.636259	0.750031	0.521243
C209	C	0.822427	0.000028	-0.256505
C210	C	1.072427	0.250028	-0.006505
C211	C	1.322427	0.500028	0.243495
C212	C	1.572427	0.750028	0.493495
C213	C	0.759651	0.000018	-0.211799
C214	C	1.009651	0.250018	0.038201
C215	C	1.259651	0.500018	0.288201
C216	C	1.509651	0.750018	0.538201
C217	C	0.760713	0.000022	-0.139354
C218	C	1.010713	0.250022	0.110646
C219	C	1.260713	0.500022	0.360646
C220	C	1.510713	0.750022	0.610646
C221	C	0.772241	0.042444	-0.364795
C222	C	1.022241	0.292444	-0.114795
C223	C	1.272241	0.542444	0.135205
C224	C	1.522241	0.792444	0.385205
C225	C	0.771181	0.042445	-0.437239
C226	C	1.021181	0.292445	-0.187239
C227	C	1.271181	0.542445	0.062761
C228	C	1.521181	0.792445	0.312761
C229	C	0.819147	0.000011	-0.479951
C230	C	1.069147	0.250011	-0.229951
C231	C	1.319147	0.500011	0.020049
C232	C	1.569147	0.750011	0.270049
C233	C	0.868185	-0.042413	-0.450210
C234	C	1.118185	0.207587	-0.200210
C235	C	1.368185	0.457587	0.049790
C236	C	1.618185	0.707587	0.299790
C237	C	0.869247	-0.042408	-0.377765
C238	C	1.119247	0.207592	-0.127765
C239	C	1.369247	0.457592	0.122235
C240	C	1.619247	0.707592	0.372235
C241	C	0.821268	0.000023	-0.335059
C242	C	1.071268	0.250023	-0.085059
C243	C	1.321268	0.500023	0.164941
C244	C	1.571268	0.750023	0.414941
C245	C	0.880769	0.000004	-0.603202
C246	C	1.130769	0.250004	-0.353202
C247	C	1.380769	0.500004	-0.103202
C248	C	1.630769	0.750004	0.146798
C249	C	0.879706	-0.000012	-0.675650
C250	C	1.129706	0.249988	-0.425650
C251	C	1.379706	0.499988	-0.175650
C252	C	1.629706	0.749988	0.074350
C253	C	0.753096	-0.000018	-0.658691
C254	C	1.003096	0.249982	-0.408691
C255	C	1.253096	0.499982	-0.158691
C256	C	1.503096	0.749982	0.091309
C257	C	0.754161	-0.000009	-0.586245
C258	C	1.004161	0.249991	-0.336245
C259	C	1.254161	0.499991	-0.086245
C260	C	1.504161	0.749991	0.163755
C261	C	0.818000	0.000005	-0.558505
C262	C	1.068000	0.250005	-0.308505
C263	C	1.318000	0.500005	-0.058505
C264	C	1.568000	0.750005	0.191495
C265	C	0.814744	-0.000005	0.219503
C266	C	1.064744	0.249995	0.469503
C267	C	1.314744	0.499995	0.719503
C268	C	1.564744	0.749995	0.969503
C269	C	0.815873	-0.000016	0.296607
C270	C	1.065873	0.249984	0.546607
C271	C	1.315873	0.499984	0.796607
C272	C	1.565873	0.749984	1.046607
H273	H	0.031067	-0.119753	0.088276
H274	H	0.281067	0.130247	0.338276
H275	H	0.531067	0.380247	0.588276
H276	H	0.781067	0.630247	0.838276
H277	H	0.734218	0.195761	0.178394
H278	H	0.984218	0.445761	0.428394
H279	H	1.234218	0.695761	0.678394
H280	H	1.484218	0.945761	0.928394
H281	H	0.162493	-0.119754	0.090203
H282	H	0.412493	0.130246	0.340203
H283	H	0.662493	0.380246	0.590203
H284	H	0.912493	0.630246	0.840203
H285	H	0.906197	0.665976	0.006591
H286	H	1.156197	0.915976	0.256591
H287	H	1.406197	1.165976	0.506591
H288	H	1.656197	1.415976	0.756591
H289	H	0.734239	0.334054	0.178397
H290	H	0.984239	0.584054	0.428397
H291	H	1.234239	0.834054	0.678397
H292	H	1.484239	1.084054	0.928397
H293	H	0.909174	-0.076953	-0.353553
H294	H	1.159174	0.173047	-0.103553
H295	H	1.409174	0.423047	0.146447
H296	H	1.659174	0.673047	0.396447
H297	H	0.907243	-0.076966	-0.484985
H298	H	1.157243	0.173034	-0.234985
H299	H	1.407243	0.423034	0.015015
H300	H	1.657243	0.673034	0.265015
H301	H	0.932750	0.000012	-0.580616
H302	H	1.182750	0.250012	-0.330616
H303	H	1.432750	0.500012	-0.080616
H304	H	1.682750	0.750012	0.169384
H305	H	0.609382	-0.119761	0.096742
H306	H	0.859382	0.130239	0.346742
H307	H	1.109382	0.380239	0.596742
H308	H	1.359382	0.630239	0.846742
H309	H	0.837101	0.430892	-0.022322
H310	H	1.087101	0.680892	0.227678
H311	H	1.337101	0.930892	0.477678
H312	H	1.587101	1.180892	0.727678
H313	H	0.264392	-0.091735	0.017728
H314	H	0.514392	0.158265	0.267728
H315	H	0.764392	0.408265	0.517728
H316	H	1.014392	0.658265	0.767728
H317	H	0.477931	0.119777	0.094797
H318	H	0.727931	0.369777	0.344797
H319	H	0.977931	0.619777	0.594797
H320	H	1.227931	0.869777	0.844797
H321	H	0.930821	-0.000011	-0.712042
H322	H	1.180821	0.249989	-0.462042
H323	H	1.430821	0.499989	-0.212042
H324	H	1.680821	0.749989	0.037958
H325	H	0.709598	0.000017	-0.102962
H326	H	0.959598	0.250017	0.147038
H327	H	1.209598	0.500017	0.397038
H328	H	1.459598	0.750017	0.647038
H329	H	0.031042	0.119787	0.088238
H330	H	0.281042	0.369787	0.338238
H331	H	0.531042	0.619787	0.588238
H332	H	0.781042	0.869787	0.838238
H333	H	0.701123	-0.000024	-0.681283
H334	H	0.951123	0.249976	-0.431283
H335	H	1.201123	0.499976	-0.181283
H336	H	1.451123	0.749976	0.068717
H337	H	0.395824	-0.091736	0.019656
H338	H	0.645824	0.158264	0.269656
H339	H	0.895824	0.408264	0.519656
H340	H	1.145824	0.658264	0.769656
H341	H	0.906164	0.334051	0.006584
H342	H	1.156164	0.584051	0.256584
H343	H	1.406164	0.834051	0.506584
H344	H	1.656164	1.084051	0.756584
H345	H	0.803345	0.569127	0.207319
H346	H	1.053345	0.819127	0.457319
H347	H	1.303345	1.069127	0.707319
H348	H	1.553345	1.319127	0.957319
H349	H	0.939302	0.000052	-0.133729
H350	H	1.189302	0.250052	0.116271
H351	H	1.439302	0.500052	0.366271
H352	H	1.689302	0.750052	0.616271
H353	H	0.376022	0.091739	0.167297
H354	H	0.626022	0.341739	0.417297
H355	H	0.876022	0.591739	0.667297
H356	H	1.126022	0.841739	0.917297
H357	H	0.477953	-0.119761	0.094829
H358	H	0.727953	0.130239	0.344829
H359	H	0.977953	0.380239	0.594829
H360	H	1.227953	0.630239	0.844829
H361	H	0.803317	0.430844	0.207317
H362	H	1.053317	0.680844	0.457317
H363	H	1.303317	0.930844	0.707317
H364	H	1.553317	1.180844	0.957317
H365	H	0.707678	0.000014	-0.234396
H366	H	0.957678	0.250014	0.015604
H367	H	1.207678	0.500014	0.265604
H368	H	1.457678	0.750014	0.515604
H369	H	0.734269	0.665973	0.178408
H370	H	0.984269	0.915973	0.428408
H371	H	1.234269	1.165973	0.678408
H372	H	1.484269	1.415973	0.928408
H373	H	0.906155	0.195764	0.006585
H374	H	1.156155	0.445764	0.256585
H375	H	1.406155	0.695764	0.506585
H376	H	1.656155	0.945764	0.756585
H377	H	0.906199	0.804263	0.006588
H378	H	1.156199	1.054263	0.256588
H379	H	1.406199	1.304263	0.506588
H380	H	1.656199	1.554263	0.756588
H381	H	0.609361	0.119773	0.096724
H382	H	0.859361	0.369773	0.346724
H383	H	1.109361	0.619773	0.596724
H384	H	1.359361	0.869773	0.846724
H385	H	0.244601	0.091762	0.165348
H386	H	0.494601	0.341762	0.415348
H387	H	0.744601	0.591762	0.665348
H388	H	0.994601	0.841762	0.915348
H389	H	0.837109	0.569184	-0.022318
H390	H	1.087109	0.819184	0.227682
H391	H	1.337109	1.069184	0.477682
H392	H	1.587109	1.319184	0.727682
H393	H	0.734279	0.804265	0.178408
H394	H	0.984279	1.054265	0.428408
H395	H	1.234279	1.304265	0.678408
H396	H	1.484279	1.554265	0.928408
H397	H	0.703049	-0.000010	-0.549852
H398	H	0.953049	0.249990	-0.299852
H399	H	1.203049	0.499990	-0.049852
H400	H	1.453049	0.749990	0.200148
H401	H	0.937374	0.000033	-0.265155
H402	H	1.187374	0.250033	-0.015155
H403	H	1.437374	0.500033	0.234845
H404	H	1.687374	0.750033	0.484845
H405	H	0.731249	0.076984	-0.461447
H406	H	0.981249	0.326984	-0.211447
H407	H	1.231249	0.576984	0.038553
H408	H	1.481249	0.826984	0.288553
H409	H	0.162475	0.119778	0.090170
H410	H	0.412475	0.369778	0.340170
H411	H	0.662475	0.619778	0.590170
H412	H	0.912475	0.869778	0.840170
H413	H	0.733179	0.077002	-0.330024
H414	H	0.983179	0.327002	-0.080024
H415	H	1.233179	0.577002	0.169976
H416	H	1.483179	0.827002	0.419976
