data_functionalizedCrystal
_audit_creation_method	'MofGen! by Chris Wilmer'
_symmetry_space_group_name_H-M	'P1'
_symmetry_Int_Tables_number	1
_symmetry_cell_setting	triclinic
loop_
_symmetry_equiv_pos_as_xyz
  x,y,z
_cell_length_a	9.065218
_cell_length_b	17.699083
_cell_length_c	7.540329
_cell_angle_alpha	89.995522
_cell_angle_beta	89.996962
_cell_angle_gamma	84.149450
loop_
_atom_site_label
_atom_site_type_symbol
_atom_site_fract_x
_atom_site_fract_y
_atom_site_fract_z
O1	O	1.957110	0.110973	-0.147491
O2	O	1.527555	0.120075	-0.147494
O3	O	1.754468	0.005430	-0.147477
O4	O	1.730196	0.225619	-0.147508
O5	O	1.754455	0.005428	0.147488
O6	O	1.527542	0.120074	0.147471
O7	O	1.957096	0.110971	0.147474
Cu8	Cu	1.742318	0.115522	0.174405
Cu9	Cu	1.742334	0.115524	-0.174425
O10	O	1.730183	0.225617	0.147457
C11	C	1.472588	0.119200	-0.000012
C12	C	1.308822	0.116584	-0.000012
C13	C	1.753592	-0.022775	0.000006
C14	C	1.750983	-0.106813	0.000007
C15	C	1.884176	-0.154396	0.000010
C16	C	1.881716	-0.233358	-0.000006
C17	C	1.746060	-0.264737	-0.000012
C18	C	1.612857	-0.217149	-0.000021
C19	C	1.615319	-0.138188	-0.000018
C20	C	1.602925	-0.535589	-0.000035
C21	C	1.600474	-0.614556	-0.000033
C22	C	1.869322	-0.630760	-0.000023
C23	C	1.871784	-0.551799	-0.000020
C24	C	1.738581	-0.504217	-0.000038
C25	C	1.741251	-0.418597	-0.000025
C26	C	1.743390	-0.350355	-0.000013
C27	C	2.012064	0.111847	-0.000012
C28	C	2.175829	0.114463	-0.000023
C29	C	1.731059	0.253822	-0.000030
C30	C	1.733669	0.337860	-0.000042
N31	N	1.742317	0.115521	0.419754
N32	N	1.742346	0.115520	-0.419774
H33	H	1.990175	-0.272097	0.000001
H34	H	1.490001	-0.640101	-0.000035
O35	O	1.485839	-0.092041	-0.000255
C36	C	1.403487	-0.106388	-0.153047
H37	H	1.439925	-0.166022	-0.203972
H38	H	1.423519	-0.063069	-0.260020
C39	C	1.192495	-0.026776	-0.044108
C40	C	1.237240	-0.100022	-0.106646
H41	H	1.089945	-0.022846	-0.015490
H42	H	1.247978	-0.017107	0.058829
H43	H	1.209201	0.009315	-0.133262
H44	H	1.220551	-0.136111	-0.017484
H45	H	1.181750	-0.109697	-0.209567
H46	H	1.977782	-0.669510	-0.000018
O47	O	2.003689	-0.521443	-0.000094
C48	C	2.120725	-0.580374	-0.000053
H49	H	2.079566	-0.634283	-0.055895
H50	H	2.161794	-0.591267	0.141456
C51	C	2.299243	-0.490996	-0.047144
C52	C	2.248694	-0.557207	-0.115744
H53	H	2.378184	-0.476705	-0.118501
H54	H	2.220395	-0.451293	-0.047165
H55	H	2.333456	-0.500083	0.070779
H56	H	2.214464	-0.548117	-0.233656
H57	H	2.327539	-0.596908	-0.115746
H58	H	1.494463	-0.496857	-0.000050
H59	H	1.502404	-0.242703	-0.000037
H60	H	1.994642	-0.128854	0.000026
