data_functionalizedCrystal
_audit_creation_method	'MofGen! by Chris Wilmer'
_symmetry_space_group_name_H-M	'P1'
_symmetry_Int_Tables_number	1
_symmetry_cell_setting	triclinic
loop_
_symmetry_equiv_pos_as_xyz
  x,y,z
_cell_length_a	6.817900
_cell_length_b	11.168136
_cell_length_c	11.168138
_cell_angle_alpha	92.020086
_cell_angle_beta	108.508793
_cell_angle_gamma	108.508683
loop_
_atom_site_label
_atom_site_type_symbol
_atom_site_fract_x
_atom_site_fract_y
_atom_site_fract_z
V1	V	-4.109883	-0.393710	-0.174724
O2	O	-4.069466	-0.386204	0.008377
O3	O	-4.086173	-0.391027	-0.346429
O4	O	-4.086174	-0.565415	-0.172045
O5	O	-4.069465	-0.210609	-0.167215
V6	V	-4.587113	-0.371808	-0.152822
O7	O	-4.384947	-0.441753	-0.222767
O8	O	-4.762246	-0.323765	-0.104778
O9	O	-4.387617	-0.374490	0.018883
O10	O	-4.744927	-0.379314	-0.335922
O11	O	-4.744928	-0.554909	-0.160331
O12	O	-4.387616	-0.200102	-0.155501
C13	C	-3.936381	-0.384819	-0.388287
C14	C	-3.998446	-0.383771	-0.528658
C15	C	-3.851277	-0.377314	-0.585129
C16	C	-3.915420	-0.376230	-0.730210
C17	C	-3.936381	-0.607267	-0.165841
C18	C	-3.998443	-0.747637	-0.164786
C19	C	-4.200951	-0.816329	-0.170305
C20	C	-4.265099	-0.961410	-0.169216
C21	C	-4.200752	-0.380695	0.060735
C22	C	-4.117926	-0.381752	0.201105
C23	C	-4.200751	-0.158245	-0.161709
C24	C	-4.117926	-0.017873	-0.162757
H25	H	-4.243831	-0.387288	-0.750318
C26	C	-4.220870	-0.280904	-0.667591
C27	C	-4.232647	-0.390144	-0.608373
H28	H	-4.365461	-0.284843	-0.716806
H29	H	-4.152343	-0.207070	-0.604328
H30	H	-4.136848	-0.276726	-0.721818
H31	H	-4.316657	-0.394316	-0.554139
H32	H	-4.301207	-0.463997	-0.671644
H33	H	-4.326830	-0.767731	-0.175828
H34	H	-4.438584	-1.020461	-0.173947
C35	C	-3.895540	-0.879000	-0.265668
C36	C	-3.883730	-0.938194	-0.156412
H37	H	-3.750956	-0.829804	-0.261754
H38	H	-3.964111	-0.942274	-0.339493
H39	H	-3.979536	-0.824758	-0.269839
H40	H	-3.799748	-0.992444	-0.152246
H41	H	-3.815127	-0.874912	-0.082567
C42	C	-3.598867	-0.373252	-0.377120
C43	C	-3.617075	-0.370940	-0.505413
H44	H	-3.454281	-0.369326	-0.327913
H45	H	-3.626717	-0.302029	-0.346679
H46	H	-3.703238	-0.449984	-0.369764
H47	H	-3.512716	-0.294204	-0.512771
H48	H	-3.589202	-0.442170	-0.535863
H49	H	-3.789534	-0.370708	-0.778798
H50	H	-3.872554	-0.796233	-0.159246
