data_functionalizedCrystal
_audit_creation_method	'MofGen! by Chris Wilmer'
_symmetry_space_group_name_H-M	'P1'
_symmetry_Int_Tables_number	1
_symmetry_cell_setting	triclinic
loop_
_symmetry_equiv_pos_as_xyz
  x,y,z
_cell_length_a	14.908571
_cell_length_b	25.639240
_cell_length_c	14.908308
_cell_angle_alpha	93.255449
_cell_angle_beta	90.175053
_cell_angle_gamma	86.728305
loop_
_atom_site_label
_atom_site_type_symbol
_atom_site_fract_x
_atom_site_fract_y
_atom_site_fract_z
Zn1	Zn	1.345200	-0.272845	-0.587486
Zn2	Zn	1.845200	0.227155	-0.087486
Zn3	Zn	1.353751	-0.355542	-0.437097
Zn4	Zn	1.853751	0.144458	0.062903
Zn5	Zn	1.203518	-0.262803	-0.428487
Zn6	Zn	1.703518	0.237197	0.071513
Zn7	Zn	1.194779	-0.354921	-0.578749
Zn8	Zn	1.694779	0.145079	-0.078749
O9	O	1.274312	-0.311527	-0.507955
O10	O	1.774312	0.188473	-0.007955
O11	O	1.472158	-0.288277	-0.574796
O12	O	1.972158	0.211723	-0.074796
O13	O	1.341059	-0.339297	-0.310132
O14	O	1.841059	0.160703	0.189868
O15	O	1.222392	-0.190974	-0.449632
O16	O	1.722392	0.309026	0.050368
O17	O	1.478441	-0.349035	-0.464306
O18	O	1.978441	0.150965	0.035694
O19	O	1.326484	-0.198352	-0.566448
O20	O	1.826484	0.301648	-0.066448
O21	O	1.230683	-0.271162	-0.303806
O22	O	1.730683	0.228838	0.196194
O23	O	1.076535	-0.270560	-0.441160
O24	O	1.576535	0.229440	0.058840
O25	O	1.207496	-0.347976	-0.705731
O26	O	1.707496	0.152024	-0.205731
O27	O	1.070114	-0.338238	-0.551557
O28	O	1.570114	0.161762	-0.051557
O29	O	1.318010	-0.287675	-0.712150
O30	O	1.818010	0.212325	-0.212150
O31	O	1.332584	-0.428620	-0.455834
O32	O	1.832584	0.071380	0.044166
O33	O	1.215788	-0.428164	-0.559905
O34	O	1.715788	0.071836	-0.059905
C35	C	1.040699	-0.303242	-0.494477
C36	C	1.540699	0.196758	0.005523
C37	C	0.940758	-0.299711	-0.488732
C38	C	1.440758	0.200289	0.011268
C39	C	1.274189	-0.447363	-0.507877
C40	C	1.774189	0.052637	-0.007877
C41	C	1.274217	-0.505478	-0.507879
C42	C	1.774217	-0.005478	-0.007879
C43	C	0.746328	-0.363648	-0.592738
C44	C	1.246328	0.136352	-0.092738
C45	C	0.652423	-0.360332	-0.587344
C46	C	1.152423	0.139668	-0.087344
C47	C	0.659043	-0.289760	-0.472553
C48	C	1.159043	0.210240	0.027447
C49	C	0.752947	-0.293077	-0.477948
C50	C	1.252947	0.206923	0.022052
C51	C	0.796586	-0.330022	-0.538041
C52	C	1.296586	0.169978	-0.038041
C53	C	0.890492	-0.333341	-0.543431
C54	C	1.390492	0.166659	-0.043431
C55	C	0.897110	-0.262767	-0.428646
C56	C	1.397110	0.237233	0.071354
C57	C	0.803205	-0.259451	-0.423251
C58	C	1.303205	0.240549	0.076749
C59	C	1.328536	-0.869655	-0.568886
C60	C	1.828536	-0.369655	-0.068886
C61	C	1.328561	-0.924260	-0.568906
C62	C	1.828561	-0.424260	-0.068906
O63	O	1.374598	-0.955732	-0.620696
O64	O	1.874598	-0.455732	-0.120696
N65	N	1.274432	-0.947774	-0.508049
N66	N	1.774432	-0.447774	-0.008049
C67	C	1.220267	-0.916678	-0.447174
C68	C	1.720267	-0.416678	0.052826
O69	O	1.174227	-0.941692	-0.395413
O70	O	1.674227	-0.441692	0.104587
C71	C	1.220237	-0.862073	-0.447159
C72	C	1.720237	-0.362073	0.052841
C73	C	1.274377	-0.838563	-0.508014
C74	C	1.774377	-0.338563	-0.008014
C75	C	1.382670	-0.846144	-0.629737
C76	C	1.882670	-0.346144	-0.129737
C77	C	1.382646	-0.791542	-0.629716
C78	C	1.882646	-0.291542	-0.129716
C79	C	1.328487	-0.760450	-0.568844
C80	C	1.828487	-0.260450	-0.068844
C81	C	1.274352	-0.783961	-0.507993
C82	C	1.774352	-0.283961	-0.007993
C83	C	1.166068	-0.830978	-0.386290
C84	C	1.666068	-0.330978	0.113710
C85	C	1.166042	-0.776370	-0.386281
C86	C	1.666042	-0.276370	0.113719
C87	C	1.220182	-0.752860	-0.447135
C88	C	1.720182	-0.252860	0.052865
C89	C	1.220169	-0.698267	-0.447100
C90	C	1.720169	-0.198267	0.052900
N91	N	1.274298	-0.674754	-0.507957
N92	N	1.774298	-0.174754	-0.007957
C93	C	1.328457	-0.705846	-0.568829
C94	C	1.828457	-0.205846	-0.068829
C95	C	1.220332	-1.031352	-0.447211
C96	C	1.720332	-0.531352	0.052789
C97	C	1.220366	-1.085956	-0.447221
C98	C	1.720366	-0.585956	0.052779
C99	C	1.328659	-1.093534	-0.568954
C100	C	1.828659	-0.593534	-0.068954
C101	C	1.328629	-1.038930	-0.568939
C102	C	1.828629	-0.538930	-0.068939
C103	C	1.274461	-1.007839	-0.508068
C104	C	1.774461	-0.507839	-0.008068
C105	C	1.328402	-0.591177	-0.568779
C106	C	1.828402	-0.091177	-0.068779
C107	C	1.328376	-0.536570	-0.568750
C108	C	1.828376	-0.036570	-0.068750
C109	C	1.220079	-0.528996	-0.447021
C110	C	1.720079	-0.028996	0.052979
C111	C	1.220109	-0.583598	-0.447046
C112	C	1.720109	-0.083598	0.052954
C113	C	1.274273	-0.614688	-0.507933
C114	C	1.774273	-0.114688	-0.007933
O115	O	1.174153	-0.666763	-0.395339
O116	O	1.674153	-0.166763	0.104661
O117	O	1.374480	-0.680825	-0.620589
O118	O	1.874480	-0.180825	-0.120589
C119	C	1.508837	-0.319845	-0.521486
C120	C	2.008837	0.180155	-0.021486
C121	C	1.608777	-0.323390	-0.527252
C122	C	2.108777	0.176610	-0.027252
C123	C	1.260824	-0.318876	-0.742477
C124	C	1.760824	0.181124	-0.242477
C125	C	1.255077	-0.322008	-0.842417
C126	C	1.755077	0.177992	-0.342417
C127	C	1.274459	-0.175163	-0.508054
C128	C	1.774459	0.324837	-0.008054
C129	C	1.274521	-0.117052	-0.508096
C130	C	1.774521	0.382948	-0.008096
C131	C	1.359351	-0.265089	-1.036900
C132	C	1.859351	0.234911	-0.536900
C133	C	1.353954	-0.268030	-1.130802
C134	C	1.853954	0.231970	-0.630802
C135	C	1.238880	-0.330827	-1.124126
C136	C	1.738880	0.169173	-0.624126
C137	C	1.244277	-0.327886	-1.030223
C138	C	1.744277	0.172114	-0.530223
C139	C	1.304516	-0.295017	-0.986614
C140	C	1.804516	0.204983	-0.486614
C141	C	1.309918	-0.292079	-0.892710
C142	C	1.809918	0.207921	-0.392710
C143	C	1.194840	-0.354873	-0.886035
C144	C	1.694840	0.145127	-0.386035
C145	C	1.189442	-0.357814	-0.979937
C146	C	1.689442	0.142186	-0.479937
C147	C	1.287799	-0.304171	-0.274347
C148	C	1.787799	0.195829	0.225653
C149	C	1.293721	-0.300898	-0.174419
C150	C	1.793721	0.199102	0.325581
H151	H	0.926022	-0.363425	-0.592361
H152	H	1.426022	0.136575	-0.092361
H153	H	0.767661	-0.229369	-0.374327
H154	H	1.267661	0.270631	0.125673
H155	H	0.611506	-0.387713	-0.631886
H156	H	1.111506	0.112287	-0.131886
H157	H	1.189836	-0.357588	-1.159649
H158	H	1.689836	0.142412	-0.659649
H159	H	1.140396	-0.384574	-1.015457
H160	H	1.640396	0.115426	-0.515457
H161	H	0.623495	-0.259678	-0.423634
H162	H	1.123495	0.240322	0.076366
H163	H	1.150191	-0.379244	-0.845082
H164	H	1.650191	0.120756	-0.345082
H165	H	0.938040	-0.235387	-0.384105
H166	H	1.438040	0.264613	0.115895
H167	H	0.781860	-0.393734	-0.641664
H168	H	1.281860	0.106266	-0.141664
H169	H	1.372466	-0.517430	-0.618306
H170	H	1.872466	-0.017430	-0.118306
H171	H	1.121982	-0.850111	-0.336735
H172	H	1.621982	-0.350111	0.163265
N173	N	1.383732	-0.622921	-0.630980
N174	N	1.883732	-0.122921	-0.130980
N175	N	1.432059	-0.601914	-0.685302
N176	N	1.932059	-0.101914	-0.185302
H177	H	1.471139	-0.624333	-0.729229
H178	H	1.971139	-0.124333	-0.229229
N179	N	1.371442	-0.258497	-0.848175
N180	N	1.871442	0.241503	-0.348175
N181	N	1.364916	-0.210372	-0.858355
N182	N	1.864916	0.289628	-0.358355
H183	H	1.408367	-0.186652	-0.826906
H184	H	1.908367	0.313348	-0.326906
H185	H	1.176032	-0.602741	-0.397487
H186	H	1.676032	-0.102741	0.102513
N187	N	1.420893	-0.231519	-0.992363
N188	N	1.920893	0.268481	-0.492363
N189	N	1.469855	-0.204803	-1.037273
N190	N	1.969855	0.295197	-0.537273
H191	H	1.513320	-0.181093	-1.005821
H192	H	2.013320	0.318907	-0.505821
H193	H	1.426728	-0.772404	-0.679271
H194	H	1.926728	-0.272404	-0.179271
N195	N	1.437998	-0.877890	-0.691931
N196	N	1.937998	-0.377890	-0.191931
N197	N	1.486321	-0.856881	-0.746254
N198	N	1.986321	-0.356881	-0.246254
H199	H	1.525404	-0.879299	-0.790181
H200	H	2.025404	-0.379299	-0.290181
N201	N	1.110709	-0.744605	-0.324111
N202	N	1.610709	-0.244605	0.175889
N203	N	1.051557	-0.713112	-0.352384
N204	N	1.551557	-0.213112	0.147616
H205	H	1.012478	-0.690678	-0.308477
H206	H	1.512478	-0.190678	0.191523
N207	N	1.409967	-0.237453	-1.182155
N208	N	1.909967	0.262547	-0.682155
N209	N	1.463740	-0.208106	-1.143202
N210	N	1.963740	0.291894	-0.643202
H211	H	1.503301	-0.186508	-1.179469
H212	H	2.003301	0.313492	-0.679469
H213	H	1.175987	-0.503673	-0.397457
H214	H	1.675987	-0.003673	0.102543
H215	H	1.372714	-1.019791	-0.618493
H216	H	1.872714	-0.519791	-0.118493
N217	N	1.383981	-1.125307	-0.631126
N218	N	1.883981	-0.625307	-0.131126
N219	N	1.383993	-1.174060	-0.631124
N220	N	1.883993	-0.674060	-0.131124
H221	H	1.423063	-1.196502	-0.675028
H222	H	1.923063	-0.696502	-0.175028
N223	N	1.165075	-1.109959	-0.385038
N224	N	1.665075	-0.609959	0.114962
N225	N	1.116730	-1.082186	-0.330691
N226	N	1.616730	-0.582186	0.169309
H227	H	1.077677	-1.099136	-0.286773
H228	H	1.577677	-0.599136	0.213227
H229	H	1.176225	-1.006040	-0.397635
H230	H	1.676225	-0.506040	0.102365
