data_functionalizedCrystal
_audit_creation_method	'MofGen! by Chris Wilmer'
_symmetry_space_group_name_H-M	'P1'
_symmetry_Int_Tables_number	1
_symmetry_cell_setting	triclinic
loop_
_symmetry_equiv_pos_as_xyz
  x,y,z
_cell_length_a	14.971487
_cell_length_b	10.268362
_cell_length_c	14.971494
_cell_angle_alpha	90.003567
_cell_angle_beta	96.384020
_cell_angle_gamma	90.001589
loop_
_atom_site_label
_atom_site_type_symbol
_atom_site_fract_x
_atom_site_fract_y
_atom_site_fract_z
O1	O	-1.186948	0.108109	0.116566
O2	O	-0.686948	0.608109	0.616566
O3	O	-0.926548	0.108152	0.130524
O4	O	-0.426548	0.608152	0.630524
O5	O	-1.063724	0.108126	-0.006655
O6	O	-0.563724	0.608126	0.493345
O7	O	-1.049773	0.108134	0.253744
O8	O	-0.549773	0.608134	0.753744
O9	O	-1.063712	-0.108475	-0.006660
O10	O	-0.563712	0.391525	0.493340
O11	O	-0.926536	-0.108449	0.130518
O12	O	-0.426536	0.391551	0.630518
O13	O	-1.186936	-0.108492	0.116560
O14	O	-0.686936	0.391508	0.616560
Cu15	Cu	-1.056735	-0.128248	0.123539
Cu16	Cu	-0.556735	0.371752	0.623539
Cu17	Cu	-1.056749	0.127908	0.123545
Cu18	Cu	-0.556749	0.627908	0.623545
O19	O	-1.049761	-0.108466	0.253739
O20	O	-0.549761	0.391534	0.753739
C21	C	-0.893218	-0.000143	0.129897
C22	C	-0.393218	0.499857	0.629897
C23	C	-0.793920	-0.000127	0.128026
C24	C	-0.293920	0.499873	0.628026
N25	N	-1.056732	-0.308414	0.123533
N26	N	-0.556732	0.191586	0.623533
C27	C	-0.736698	-0.000124	0.208615
C28	C	-0.236698	0.499876	0.708615
C29	C	-0.643398	-0.000141	0.206851
C30	C	-0.143398	0.499859	0.706851
C31	C	-0.607323	-0.000151	0.124498
C32	C	-0.107323	0.499849	0.624498
C33	C	-0.664553	-0.000157	0.043903
C34	C	-0.164553	0.499843	0.543903
C35	C	-0.757851	-0.000149	0.045668
C36	C	-0.257851	0.499851	0.545668
C37	C	-0.470091	-0.000169	0.040232
C38	C	0.029909	0.499831	0.540232
C39	C	-0.376787	-0.000174	0.038467
C40	C	0.123213	0.499826	0.538467
C41	C	-0.355638	-0.000160	0.201415
C42	C	0.144362	0.499840	0.701415
C43	C	-0.448936	-0.000153	0.203180
C44	C	0.051064	0.499847	0.703180
C45	C	-0.506159	-0.000157	0.122584
C46	C	-0.006159	0.499843	0.622584
C47	C	-1.056745	-0.574084	0.123544
C48	C	-0.556745	-0.074084	0.623544
C49	C	-1.056734	-0.426246	0.123541
C50	C	-0.556734	0.073754	0.623541
C51	C	-0.220267	-0.000187	0.117187
C52	C	0.279733	0.499813	0.617187
C53	C	-0.319564	-0.000171	0.119056
C54	C	0.180436	0.499829	0.619056
C55	C	-1.063092	-0.000172	-0.039982
C56	C	-0.563092	0.499828	0.460018
C57	C	-1.061219	-0.000166	-0.139279
C58	C	-0.561219	0.499834	0.360721
N59	N	-1.056760	0.308073	0.123543
N60	N	-0.556760	0.808073	0.623543
C61	C	-1.060347	0.117905	-0.185920
C62	C	-0.560347	0.617905	0.314080
C63	C	-1.058581	0.117907	-0.279220
C64	C	-0.558581	0.617907	0.220780
C65	C	-1.057692	-0.000163	-0.325876
C66	C	-0.557692	0.499837	0.174124
C67	C	-1.058562	-0.118243	-0.279228
C68	C	-0.558562	0.381757	0.220772
C69	C	-1.060321	-0.118244	-0.185929
C70	C	-0.560321	0.381756	0.314071
C71	C	-1.054896	-0.118234	-0.473691
C72	C	-0.554896	0.381766	0.026309
C73	C	-1.053137	-0.118234	-0.566996
C74	C	-0.553137	0.381766	-0.066996
C75	C	-1.053155	0.117917	-0.566981
C76	C	-0.553155	0.617917	-0.066981
C77	C	-1.054915	0.117916	-0.473683
C78	C	-0.554915	0.617916	0.026317
C79	C	-1.055785	-0.000164	-0.427041
C80	C	-0.555785	0.499836	0.072959
C81	C	-1.050392	-0.000165	0.287066
C82	C	-0.550392	0.499835	0.787066
C83	C	-1.052266	-0.000163	0.386363
C84	C	-0.552266	0.499837	0.886363
H85	H	-0.596810	-0.000138	0.272475
H86	H	-0.096810	0.499862	0.772475
H87	H	-1.055585	-0.214387	-0.435715
H88	H	-0.555585	0.285613	0.064285
O89	O	-0.531807	-0.000172	-0.046699
O90	O	-0.031807	0.499828	0.453301
H91	H	-0.574819	-0.088459	-0.049800
H92	H	-0.074819	0.411541	0.450200
H93	H	-1.052406	-0.214377	-0.604980
H94	H	-0.552406	0.285623	-0.104980
O95	O	-1.057619	-0.245588	-0.329555
O96	O	-0.557619	0.254412	0.170445
H97	H	-0.995909	-0.251229	-0.364170
H98	H	-0.495909	0.248771	0.135830
H99	H	-0.309041	-0.000163	0.267039
H100	H	0.190959	0.499837	0.767039
H101	H	-1.055644	0.214059	-0.435698
H102	H	-0.555644	0.714059	0.064302
H103	H	-0.804442	-0.000151	-0.019956
H104	H	-0.304442	0.499849	0.480044
O105	O	-0.487851	-0.000159	0.292000
O106	O	0.012149	0.499841	0.792000
H107	H	-0.432388	-0.000177	0.347747
H108	H	0.067612	0.499823	0.847747
H109	H	-1.061019	-0.214389	-0.147953
H110	H	-0.561019	0.285611	0.352047
O111	O	-0.775606	-0.000127	0.297439
O112	O	-0.275606	0.499873	0.797439
H113	H	-0.720137	-0.000145	0.353180
H114	H	-0.220137	0.499855	0.853180
O115	O	-0.337871	-0.000201	-0.050353
O116	O	0.162129	0.499799	0.449647
H117	H	-0.393335	-0.000225	-0.106100
H118	H	0.106665	0.499775	0.393900
H119	H	-0.635174	-0.000183	-0.023150
H120	H	-0.135174	0.499817	0.476850
H121	H	-1.052444	0.214062	-0.604961
H122	H	-0.552444	0.714062	-0.104961
H123	H	-1.061075	0.214052	-0.147940
H124	H	-0.561075	0.714052	0.352060
O125	O	-1.057596	0.245253	-0.329524
O126	O	-0.557596	0.745253	0.170476
H127	H	-1.058503	0.327354	-0.281406
H128	H	-0.558503	0.827354	0.218594
