data_functionalizedCrystal
_audit_creation_method	'MofGen! by Chris Wilmer'
_symmetry_space_group_name_H-M	'P1'
_symmetry_Int_Tables_number	1
_symmetry_cell_setting	triclinic
loop_
_symmetry_equiv_pos_as_xyz
  x,y,z
_cell_length_a	19.188905
_cell_length_b	19.188924
_cell_length_c	14.048226
_cell_angle_alpha	89.991497
_cell_angle_beta	89.986412
_cell_angle_gamma	83.138260
loop_
_atom_site_label
_atom_site_type_symbol
_atom_site_fract_x
_atom_site_fract_y
_atom_site_fract_z
O1	O	0.926156	0.087086	-0.079322
O2	O	0.722842	0.098839	-0.079290
O3	O	0.830368	-0.008694	-0.079295
O4	O	0.818629	0.194619	-0.079316
O5	O	0.830355	-0.008700	0.079026
O6	O	0.722829	0.098832	0.079032
O7	O	0.926143	0.087080	0.079000
Zn8	Zn	0.824484	0.092955	0.104152
Zn9	Zn	0.824501	0.092963	-0.104443
O10	O	0.818616	0.194613	0.079005
C11	C	0.696824	0.098458	-0.000125
C12	C	0.619318	0.097324	-0.000112
C13	C	0.582934	0.096783	-0.086416
C14	C	0.510110	0.095710	-0.086427
C15	C	0.473676	0.095164	-0.000131
C16	C	0.510069	0.095709	0.086184
C17	C	0.582890	0.096789	0.086193
N18	N	0.364651	0.053733	0.064096
N19	N	0.295474	0.052705	0.064081
C20	C	0.254269	0.091911	-0.000154
N21	N	0.284856	0.132175	-0.064387
N22	N	0.354039	0.133200	-0.064375
C23	C	0.394713	0.093993	-0.000131
C24	C	0.138921	0.090208	-0.086476
C25	C	0.066095	0.089139	-0.086484
C26	C	0.066056	0.089131	0.086130
C27	C	0.138880	0.090207	0.086136
C28	C	0.175308	0.090742	-0.000170
C29	C	0.829982	-0.034708	-0.000134
C30	C	0.828844	-0.112213	-0.000131
C31	C	0.828319	-0.148608	-0.086432
C32	C	0.827239	-0.221431	-0.086439
C33	C	0.826698	-0.257857	-0.000140
C34	C	0.827219	-0.221453	0.086172
C35	C	0.828291	-0.148630	0.086177
N36	N	0.864741	-0.377526	0.064084
N37	N	0.863723	-0.446705	0.064074
C38	C	0.823464	-0.477266	-0.000149
N39	N	0.784269	-0.436037	-0.064376
N40	N	0.785290	-0.366853	-0.064368
C41	C	0.825534	-0.336821	-0.000136
C42	C	0.821767	-0.592624	-0.086464
C43	C	0.820683	-0.665447	-0.086467
C44	C	0.820669	-0.665468	0.086147
C45	C	0.821747	-0.592646	0.086148
C46	C	0.822299	-0.556228	-0.000160
C47	C	0.952160	0.087461	-0.000167
C48	C	1.029666	0.088594	-0.000186
C49	C	0.819002	0.220627	-0.000158
C50	C	0.820141	0.298132	-0.000167
N51	N	0.824477	0.092949	0.246513
N52	N	0.824513	0.092964	-0.246803
C53	C	0.872105	0.045353	0.296329
C54	C	0.872110	0.045353	0.395986
C55	C	0.824489	0.092952	0.445827
C56	C	0.776857	0.140550	0.396004
C57	C	0.776849	0.140547	0.296348
C58	C	0.776877	0.140555	0.603718
C59	C	0.776885	0.140560	0.703381
C60	C	0.872137	0.045361	0.703356
C61	C	0.872130	0.045358	0.603701
C62	C	0.824498	0.092957	0.553885
H63	H	0.168581	0.090651	-0.156751
H64	H	0.738080	0.179305	0.436590
C65	C	0.026070	0.088547	-0.181426
C66	C	0.044222	0.028078	-0.252612
C67	C	0.004197	0.027487	-0.347556
C68	C	-0.053981	0.087364	-0.371314
C69	C	-0.072136	0.147837	-0.300125
C70	C	-0.032110	0.148429	-0.205181
H71	H	0.087291	-0.016251	-0.235027
H72	H	0.017637	-0.017280	-0.400254
H73	H	-0.083610	0.086926	-0.441597
H74	H	-0.115205	0.192166	-0.317711
H75	H	-0.045550	0.193195	-0.152483
C76	C	0.822368	-0.552556	-0.181396
C77	C	0.882840	-0.570683	-0.252608
C78	C	0.883441	-0.530617	-0.347540
C79	C	0.823570	-0.472424	-0.371261
C80	C	0.763094	-0.454294	-0.300048
C81	C	0.762493	-0.494360	-0.205115
H82	H	0.927164	-0.613764	-0.235050
H83	H	0.928210	-0.544039	-0.400257
H84	H	0.824015	-0.442764	-0.441535
H85	H	0.718769	-0.411213	-0.317605
H86	H	0.717724	-0.480939	-0.152399
C87	C	0.924489	-0.007008	0.241510
C88	C	0.924487	-0.007016	0.131892
C89	C	0.976871	-0.059381	0.077076
C90	C	1.029257	-0.111738	0.131878
C91	C	1.029261	-0.111733	0.241502
C92	C	0.976877	-0.059368	0.296318
H93	H	0.885706	0.031744	0.091319
H94	H	0.976868	-0.059385	-0.004075
H95	H	1.068035	-0.150502	0.091300
H96	H	1.068042	-0.150492	0.282075
H97	H	0.976880	-0.059364	0.377468
C98	C	0.724459	0.192905	0.241548
C99	C	0.672101	0.245288	0.296367
C100	C	0.619707	0.297645	0.241569
C101	C	0.619670	0.297619	0.131951
C102	C	0.672029	0.245234	0.077126
C103	C	0.724424	0.192877	0.131925
H104	H	0.672127	0.245309	0.377518
H105	H	0.580947	0.336424	0.282154
H106	H	0.580884	0.336377	0.091386
H107	H	0.672003	0.245213	-0.004025
H108	H	0.763184	0.154098	0.091339
C109	C	0.924511	-0.007000	0.548871
C110	C	0.923592	-0.086507	0.562586
C111	C	0.975972	-0.138866	0.507755
C112	C	1.029272	-0.111718	0.439209
C113	C	1.030193	-0.032207	0.425491
C114	C	0.977813	0.020152	0.480322
H115	H	0.884134	-0.106607	0.613330
H116	H	0.975289	-0.197725	0.517910
H117	H	1.068047	-0.150477	0.398620
H118	H	1.069651	-0.012107	0.374747
H119	H	0.978496	0.079011	0.470167
C120	C	0.820085	-0.705536	0.181074
C121	C	0.880850	-0.703656	0.252253
C122	C	0.880268	-0.743730	0.347180
C123	C	0.818921	-0.785685	0.370928
C124	C	0.758152	-0.787567	0.299747
C125	C	0.758733	-0.747493	0.204820
H126	H	0.926267	-0.672596	0.234674
H127	H	0.925254	-0.742337	0.399873
H128	H	0.818490	-0.815351	0.441199
H129	H	0.712735	-0.818627	0.317326
H130	H	0.713748	-0.748886	0.152127
H131	H	0.480480	0.095270	-0.156708
H132	H	0.910921	0.006604	0.743922
C133	C	0.622921	0.097378	0.181131
C134	C	0.681103	0.037500	0.204871
C135	C	0.721138	0.038086	0.299809
C136	C	0.702990	0.098549	0.371006
C137	C	0.644805	0.158430	0.347267
C138	C	0.604771	0.157845	0.252330
H139	H	0.694540	-0.007262	0.152165
H140	H	0.764210	-0.006243	0.317381
H141	H	0.732626	0.098982	0.441284
H142	H	0.631369	0.203192	0.399973
H143	H	0.561698	0.202173	0.234757
H144	H	0.738107	0.179320	0.743956
H145	H	0.612589	0.097219	-0.156693
C146	C	0.826623	-0.261520	0.181101
C147	C	0.765270	-0.303470	0.204835
C148	C	0.764669	-0.343537	0.299766
C149	C	0.825423	-0.341655	0.370964
C150	C	0.886781	-0.299703	0.347231
C151	C	0.887381	-0.259636	0.252300
H152	H	0.720292	-0.304865	0.152129
H153	H	0.719248	-0.374593	0.317334
H154	H	0.824979	-0.371315	0.441237
H155	H	0.931758	-0.298308	0.399937
H156	H	0.932803	-0.228581	0.234732
H157	H	0.168505	0.090643	0.156414
C158	C	0.469995	0.095107	0.181112
C159	C	0.389895	0.093914	0.181106
C160	C	0.349822	0.093315	0.276038
C161	C	0.389848	0.093910	0.370975
C162	C	0.469953	0.095103	0.370984
C163	C	0.510026	0.095702	0.276053
H164	H	0.360261	0.093474	0.110825
H165	H	0.290523	0.092432	0.276031
H166	H	0.360184	0.093467	0.441249
H167	H	0.499587	0.095543	0.441266
H168	H	0.569325	0.096585	0.276060
C169	C	0.828874	-0.108591	0.181113
C170	C	0.890227	-0.066654	0.204841
C171	C	0.890812	-0.026613	0.299778
C172	C	0.830044	-0.028509	0.370987
C173	C	0.768686	-0.070448	0.347262
C174	C	0.768101	-0.110489	0.252325
H175	H	0.935216	-0.065249	0.152125
H176	H	0.936234	0.004433	0.317340
H177	H	0.830476	0.001132	0.441265
H178	H	0.723697	-0.071853	0.399977
H179	H	0.722679	-0.141535	0.234762
H180	H	0.738087	0.179314	0.563162
C181	C	0.826668	-0.261478	-0.181376
C182	C	0.827276	-0.221421	-0.276309
C183	C	0.826707	-0.261466	-0.371244
C184	C	0.825530	-0.341568	-0.371247
C185	C	0.824922	-0.381630	-0.276310
C186	C	0.825491	-0.341585	-0.181375
H187	H	0.828148	-0.162121	-0.276310
H188	H	0.827158	-0.231810	-0.441523
H189	H	0.825109	-0.371212	-0.441524
H190	H	0.824051	-0.440930	-0.276309
H191	H	0.825041	-0.371241	-0.111096
H192	H	0.036392	0.088691	0.156395
H193	H	0.820253	-0.695079	-0.156747
C194	C	0.822337	-0.552607	0.181082
C195	C	0.821745	-0.592671	0.276012
C196	C	0.822335	-0.552633	0.370951
C197	C	0.823518	-0.472531	0.370960
C198	C	0.824110	-0.432464	0.276026
C199	C	0.823520	-0.472502	0.181087
H200	H	0.820869	-0.651970	0.276008
H201	H	0.821896	-0.582294	0.441227
H202	H	0.823954	-0.442893	0.441239
H203	H	0.824986	-0.373164	0.276030
H204	H	0.823959	-0.442841	0.110812
H205	H	0.910891	0.006596	0.436546
H206	H	0.828767	-0.118962	-0.156711
