data_functionalizedCrystal
_audit_creation_method	'MofGen! by Chris Wilmer'
_symmetry_space_group_name_H-M	'P1'
_symmetry_Int_Tables_number	1
_symmetry_cell_setting	triclinic
loop_
_symmetry_equiv_pos_as_xyz
  x,y,z
_cell_length_a	8.559649
_cell_length_b	17.666332
_cell_length_c	8.559649
_cell_angle_alpha	90.005352
_cell_angle_beta	110.221336
_cell_angle_gamma	89.987048
loop_
_atom_site_label
_atom_site_type_symbol
_atom_site_fract_x
_atom_site_fract_y
_atom_site_fract_z
O1	O	-2.126892	0.063003	-0.055034
O2	O	-1.651407	0.062991	0.028748
O3	O	-1.931040	0.062998	-0.250885
O4	O	-1.847259	0.062997	0.224599
O5	O	-1.930998	-0.062899	-0.250893
O6	O	-1.651365	-0.062905	0.028740
O7	O	-2.126850	-0.062893	-0.055042
Cu8	Cu	-1.889104	-0.074395	-0.013152
Cu9	Cu	-1.889154	0.074493	-0.013142
O10	O	-1.847217	-0.062900	0.224592
C11	C	-1.591077	0.000042	0.035093
C12	C	-1.411378	0.000037	0.053992
N13	N	-1.889081	-0.179114	-0.013161
C14	C	-2.012932	-0.218721	-0.136933
C15	C	-2.012942	-0.297969	-0.136942
C16	C	-1.889114	-0.337606	-0.013153
C17	C	-1.765241	-0.297990	0.110630
C18	C	-1.765225	-0.218744	0.110626
N19	N	-1.850848	-0.462025	0.132928
N20	N	-1.850874	-0.537306	0.132926
C21	C	-1.889154	-0.576370	-0.013135
N22	N	-1.927439	-0.537310	-0.159202
N23	N	-1.927421	-0.462023	-0.159199
C24	C	-1.889117	-0.423535	-0.013135
C25	C	-2.013023	-0.701907	-0.136927
C26	C	-2.013022	-0.781156	-0.136936
C27	C	-1.765328	-0.781175	0.110649
C28	C	-1.765322	-0.701928	0.110645
C29	C	-1.889178	-0.662298	-0.013142
C30	C	-1.187180	0.000051	-0.061387
C31	C	-1.366879	0.000041	-0.080286
C32	C	-1.937369	0.000051	-0.311198
C33	C	-1.956268	0.000056	-0.490898
N34	N	-1.889191	0.179212	-0.013148
C35	C	-1.840889	0.000049	0.284904
C36	C	-1.821990	0.000049	0.464604
H37	H	-1.312000	0.000042	0.183411
H38	H	-1.692570	0.000043	-0.436018
H39	H	-1.664477	-0.669678	0.211438
H40	H	-1.466268	0.000043	-0.209714
H41	H	-2.085696	0.000053	-0.590286
H42	H	-2.113799	-0.330223	-0.237735
Br43	Br	-2.181012	-0.164937	-0.304928
Br44	Br	-1.597176	-0.351781	0.278622
Br45	Br	-1.597128	-0.164987	0.278613
Br46	Br	-2.181106	-0.648122	-0.304926
Br47	Br	-1.597258	-0.834962	0.278634
Br48	Br	-2.181106	-0.834912	-0.304938
