data_functionalizedCrystal
_audit_creation_method	'MofGen! by Chris Wilmer'
_symmetry_space_group_name_H-M	'P1'
_symmetry_Int_Tables_number	1
_symmetry_cell_setting	triclinic
loop_
_symmetry_equiv_pos_as_xyz
  x,y,z
_cell_length_a	17.019282
_cell_length_b	17.038278
_cell_length_c	9.730223
_cell_angle_alpha	89.988387
_cell_angle_beta	93.877933
_cell_angle_gamma	87.241329
loop_
_atom_site_label
_atom_site_type_symbol
_atom_site_fract_x
_atom_site_fract_y
_atom_site_fract_z
O1	O	1.053360	0.099546	0.010400
O2	O	0.824548	0.112259	-0.016696
O3	O	0.937595	-0.007912	-0.003274
O4	O	0.940313	0.219716	-0.003022
O5	O	0.937587	-0.007915	0.225305
O6	O	0.824540	0.112255	0.211883
O7	O	1.053352	0.099543	0.238979
Zn8	Zn	0.938945	0.105898	0.261723
Zn9	Zn	0.938955	0.105903	-0.039440
O10	O	0.940305	0.219713	0.225557
C11	C	0.795122	0.111777	0.094110
C12	C	0.707455	0.110337	0.083730
C13	C	0.935118	-0.037040	0.110729
C14	C	0.927738	-0.123826	0.109873
C15	C	0.882402	-0.614196	0.104379
C16	C	0.889342	-0.532652	0.105214
C17	C	0.964043	-0.501287	0.114079
C18	C	1.031807	-0.551470	0.122095
C19	C	1.024867	-0.633012	0.121250
C20	C	0.988562	-0.255552	0.117044
C21	C	0.995498	-0.174003	0.117893
C22	C	0.853032	-0.155190	0.101009
C23	C	0.846098	-0.236735	0.100173
C24	C	0.913863	-0.286912	0.108182
C25	C	0.971138	-0.417936	0.114937
C26	C	0.906767	-0.370261	0.107314
C27	C	0.666269	0.109657	0.203455
C28	C	0.583898	0.108292	0.193706
C29	C	0.542713	0.107612	0.064231
C30	C	0.583905	0.108290	-0.055503
C31	C	0.666275	0.109650	-0.045753
C32	C	0.294007	0.103502	0.028557
C33	C	0.211631	0.102144	0.018816
C34	C	0.211630	0.102144	0.268027
C35	C	0.294001	0.103509	0.277766
C36	C	0.335186	0.104183	0.158032
C37	C	0.458516	0.106219	0.054263
C38	C	0.419382	0.105570	0.168001
C39	C	1.082778	0.100024	0.128170
C40	C	1.170445	0.101464	0.138541
C41	C	0.942782	0.248841	0.111552
C42	C	0.950162	0.335627	0.112398
N43	N	0.938943	0.105895	0.467259
N44	N	0.938963	0.105900	-0.244975
C45	C	0.989020	0.052706	0.545131
C46	C	0.989028	0.052706	0.689015
C47	C	0.888880	0.159092	0.677143
C48	C	0.888869	0.159087	0.533261
H49	H	0.821573	-0.639727	0.097176
H50	H	0.178088	0.101595	0.365507
C51	C	1.044097	-0.005813	0.472533
N52	N	1.085580	-0.049894	0.417857
C53	C	0.464687	0.106339	0.310420
N54	N	0.498816	0.106930	0.417691
H55	H	1.029804	0.009394	0.752414
C56	C	0.824598	-0.404766	0.097572
N57	N	0.762709	-0.430762	0.090245
C58	C	1.113979	-0.516965	0.131854
N59	N	1.175872	-0.490977	0.139213
H60	H	0.550369	0.107725	0.291200
H61	H	0.699808	0.110205	-0.143246
C62	C	0.833799	0.217598	0.749758
N63	N	0.792311	0.261666	0.804451
H64	H	0.178100	0.101593	-0.086624
C65	C	1.077678	-0.139504	0.127633
N66	N	1.139572	-0.113518	0.134968
H67	H	0.848086	0.202401	0.469853
H68	H	0.550366	0.107731	-0.160925
H69	H	0.327530	0.104048	-0.068939
H70	H	0.834165	-0.491801	0.098679
C71	C	0.413204	0.105476	-0.088158
N72	N	0.379072	0.104915	-0.195429
H73	H	0.785269	-0.262266	0.092939
C74	C	0.778496	-0.099991	0.092183
N75	N	0.722352	-0.058413	0.085526
H76	H	0.699796	0.110217	0.308888
C77	C	1.099408	-0.688207	0.130077
N78	N	1.155555	-0.729780	0.136723
C79	C	1.053307	-0.383425	0.124711
N80	N	1.115197	-0.357429	0.132077
C81	C	0.339299	0.104252	0.420199
N82	N	0.373417	0.104813	0.527482
H83	H	1.043742	-0.296396	0.123574
