data_functionalizedCrystal
_audit_creation_method	'MofGen! by Chris Wilmer'
_symmetry_space_group_name_H-M	'P1'
_symmetry_Int_Tables_number	1
_symmetry_cell_setting	triclinic
loop_
_symmetry_equiv_pos_as_xyz
  x,y,z
_cell_length_a	18.215407
_cell_length_b	13.031981
_cell_length_c	18.215398
_cell_angle_alpha	82.791416
_cell_angle_beta	89.983470
_cell_angle_gamma	97.189409
loop_
_atom_site_label
_atom_site_type_symbol
_atom_site_fract_x
_atom_site_fract_y
_atom_site_fract_z
Zn1	Zn	1.087906	-0.416214	-0.378812
Zn2	Zn	1.072210	-0.590996	-0.240105
Zn3	Zn	0.964838	-0.416231	-0.255764
Zn4	Zn	0.949204	-0.590937	-0.363142
O5	O	1.018539	-0.503595	-0.309456
O6	O	1.188807	-0.439417	-0.360417
O7	O	1.057940	-0.567845	-0.139195
O8	O	0.994275	-0.269967	-0.285199
O9	O	1.177274	-0.567829	-0.258510
O10	O	1.084693	-0.269954	-0.375601
O11	O	0.979055	-0.439446	-0.150700
O12	O	0.859782	-0.439389	-0.270003
O13	O	0.967629	-0.567727	-0.468207
O14	O	0.848295	-0.567744	-0.348893
O15	O	1.069533	-0.439359	-0.479721
O16	O	1.042781	-0.737250	-0.243314
O17	O	0.952409	-0.737206	-0.333709
C18	C	0.827336	-0.503562	-0.309447
C19	C	0.745536	-0.503574	-0.309459
C20	C	0.474505	-0.570539	-0.350459
C21	C	0.551365	-0.570530	-0.350456
C22	C	0.563313	-0.436674	-0.268463
C23	C	0.486454	-0.436689	-0.268462
C24	C	0.442053	-0.503620	-0.309465
C25	C	0.595771	-0.503596	-0.309463
C26	C	0.679105	-0.503586	-0.309459
C27	C	0.358712	-0.503631	-0.309467
C28	C	0.994215	-0.775152	-0.285128
C29	C	0.983876	-0.891326	-0.274745
C30	C	1.023975	-0.943030	-0.314889
C31	C	1.013290	-1.063101	-0.304159
C32	C	1.210489	-0.503627	-0.309465
C33	C	1.292287	-0.503641	-0.309468
C34	C	1.018588	-0.503534	-0.501414
C35	C	1.018609	-0.503509	-0.583215
C36	C	1.042979	-0.230976	-0.333895
C37	C	1.053394	-0.114803	-0.344309
C38	C	1.059730	-0.570237	-0.842298
C39	C	1.059716	-0.570273	-0.765436
C40	C	0.977562	-0.436579	-0.777399
C41	C	0.977573	-0.436549	-0.854259
C42	C	1.018661	-0.503376	-0.886707
C43	C	1.018636	-0.503443	-0.732985
C44	C	1.018620	-0.503482	-0.649648
C45	C	1.018676	-0.503339	-0.970049
C46	C	1.018540	-0.503579	-0.118251
C47	C	1.018688	-0.503310	-0.036476
H48	H	0.599474	-0.382179	-0.235082
H49	H	1.095634	-1.070181	-0.386628
O50	O	0.962838	-1.116165	-0.253666
C51	C	0.870540	-1.105075	-0.161170
C52	C	0.927636	-1.044850	-0.218337
H53	H	0.842074	-1.047443	-0.132579
H54	H	0.827474	-1.156170	-0.190355
H55	H	0.899844	-1.156209	-0.118215
H56	H	0.898395	-0.993659	-0.261308
H57	H	0.970697	-0.993821	-0.189100
H58	H	0.941633	-0.935952	-0.232436
H59	H	0.944111	-0.382169	-0.750970
H60	H	0.460031	-0.382193	-0.235076
H61	H	1.066212	-0.898406	-0.357206
O62	O	1.099497	-0.635332	-0.722256
C63	C	1.096749	-0.776445	-0.622811
C64	C	1.051605	-0.702843	-0.671672
H65	H	1.058050	-0.831032	-0.581892
H66	H	1.126095	-0.824276	-0.659168
H67	H	1.139539	-0.728454	-0.591166
H68	H	1.008778	-0.750753	-0.703326
H69	H	1.022311	-0.655008	-0.635276
H70	H	0.438355	-0.625039	-0.383846
H71	H	1.093186	-0.624654	-0.868715
O72	O	0.937568	-0.371646	-0.897315
C73	C	0.816926	-0.320942	-0.925383
C74	C	0.862146	-0.394483	-0.876562
H75	H	0.755937	-0.339394	-0.908633
H76	H	0.837338	-0.236651	-0.917815
H77	H	0.824027	-0.332384	-0.985889
H78	H	0.855065	-0.383134	-0.816039
H79	H	0.841724	-0.478746	-0.884194
O80	O	0.582773	-0.635566	-0.390347
C81	C	0.562802	-0.768375	-0.471641
C82	C	0.527140	-0.694753	-0.426510
H83	H	0.517838	-0.816262	-0.500878
H84	H	0.603061	-0.720501	-0.514511
H85	H	0.593913	-0.822918	-0.432896
H86	H	0.495990	-0.640195	-0.465198
H87	H	0.486921	-0.742691	-0.383633
