data_functionalizedCrystal
_audit_creation_method	'MofGen! by Chris Wilmer'
_symmetry_space_group_name_H-M	'P1'
_symmetry_Int_Tables_number	1
_symmetry_cell_setting	triclinic
loop_
_symmetry_equiv_pos_as_xyz
  x,y,z
_cell_length_a	25.639242
_cell_length_b	29.839132
_cell_length_c	29.839126
_cell_angle_alpha	89.973634
_cell_angle_beta	90.028678
_cell_angle_gamma	89.959210
loop_
_atom_site_label
_atom_site_type_symbol
_atom_site_fract_x
_atom_site_fract_y
_atom_site_fract_z
Zn1	Zn	0.799235	0.178941	0.254107
Zn2	Zn	1.132568	0.512275	0.587440
Zn3	Zn	1.465901	0.845608	0.920773
Zn4	Zn	0.799138	0.254062	0.178974
Zn5	Zn	1.132472	0.587395	0.512307
Zn6	Zn	1.465805	0.920728	0.845640
Zn7	Zn	0.711801	0.178941	0.178977
Zn8	Zn	1.045134	0.512274	0.512311
Zn9	Zn	1.378468	0.845607	0.845644
Zn10	Zn	0.711746	0.254039	0.254063
Zn11	Zn	1.045079	0.587373	0.587397
Zn12	Zn	1.378413	0.920706	0.920730
O13	O	0.755480	0.216496	0.216530
O14	O	1.088813	0.549829	0.549864
O15	O	1.422147	0.883162	0.883197
O16	O	0.872387	0.188916	0.244157
O17	O	1.205720	0.522249	0.577490
O18	O	1.539054	0.855583	0.910823
O19	O	0.787535	0.244106	0.116107
O20	O	1.120869	0.577439	0.449440
O21	O	1.454202	0.910773	0.782774
O22	O	0.723463	0.116074	0.188963
O23	O	1.056796	0.449407	0.522297
O24	O	1.390129	0.782740	0.855630
O25	O	0.872316	0.244107	0.188957
O26	O	1.205650	0.577440	0.522290
O27	O	1.538983	0.910773	0.855623
O28	O	0.787700	0.116074	0.244160
O29	O	1.121033	0.449407	0.577494
O30	O	1.454367	0.782741	0.910827
O31	O	0.723369	0.188915	0.116110
O32	O	1.056703	0.522248	0.449443
O33	O	1.390036	0.855582	0.782776
O34	O	0.638629	0.188893	0.188921
O35	O	0.971962	0.522226	0.522255
O36	O	1.305295	0.855560	0.855588
O37	O	0.723369	0.244068	0.316936
O38	O	1.056702	0.577401	0.650270
O39	O	1.390036	0.910735	0.983603
O40	O	0.638588	0.244067	0.244086
O41	O	0.971922	0.577401	0.577420
O42	O	1.305255	0.910734	0.910753
O43	O	0.787647	0.188894	0.316968
O44	O	1.120980	0.522227	0.650301
O45	O	1.454313	0.855561	0.983635
O46	O	0.787482	0.316926	0.188915
O47	O	1.120815	0.650259	0.522248
O48	O	1.454149	0.983593	0.855581
O49	O	0.723275	0.316909	0.244083
O50	O	1.056609	0.650243	0.577416
O51	O	1.389942	0.983576	0.910749
C52	C	0.619638	0.216478	0.216500
C53	C	0.952971	0.549811	0.549833
C54	C	1.286304	0.883145	0.883166
C55	C	0.561523	0.216481	0.216497
C56	C	0.894857	0.549815	0.549831
C57	C	1.228190	0.883148	0.883164
C58	C	0.755377	0.333218	0.216503
C59	C	1.088710	0.666552	0.549837
C60	C	1.422043	0.999885	0.883170
C61	C	0.755380	0.383153	0.216507
C62	C	1.088713	0.716486	0.549840
C63	C	1.422047	1.049819	0.883174
C64	C	0.201148	0.245273	0.245228
C65	C	0.534482	0.578606	0.578561
C66	C	0.867815	0.911940	0.911894
C67	C	0.146544	0.245276	0.245235
C68	C	0.479877	0.578609	0.578568
C69	C	0.813211	0.911943	0.911901
O70	O	0.118297	0.269734	0.269636
O71	O	0.451630	0.603067	0.602970
O72	O	0.784964	0.936400	0.936303
N73	N	0.119241	0.216508	0.216560
N74	N	0.452574	0.549841	0.549893
N75	N	0.785908	0.883175	0.883226
C76	C	0.146545	0.187733	0.187879
C77	C	0.479879	0.521066	0.521212
C78	C	0.813212	0.854399	0.854545
O79	O	0.118308	0.163263	0.163489
O80	O	0.451641	0.496597	0.496823
O81	O	0.784975	0.829930	0.830156
C82	C	0.201149	0.187728	0.187874
C83	C	0.534482	0.521061	0.521208
C84	C	0.867815	0.854395	0.854541
C85	C	0.228449	0.216501	0.216548
C86	C	0.561782	0.549834	0.549881
C87	C	0.895115	0.883167	0.883215
C88	C	0.228448	0.274043	0.273899
C89	C	0.561782	0.607377	0.607233
C90	C	0.895115	0.940710	0.940566
C91	C	0.283049	0.274041	0.273892
C92	C	0.616382	0.607374	0.607225
C93	C	0.949716	0.940708	0.940558
C94	C	0.310349	0.245269	0.245212
C95	C	0.643683	0.578602	0.578545
C96	C	0.977016	0.911935	0.911879
C97	C	0.283049	0.216498	0.216540
C98	C	0.616383	0.549832	0.549874
C99	C	0.949716	0.883165	0.883207
C100	C	0.228452	0.158950	0.159196
C101	C	0.561785	0.492284	0.492529
C102	C	0.895118	0.825617	0.825863
C103	C	0.283059	0.158948	0.159194
C104	C	0.616392	0.492281	0.492528
C105	C	0.949725	0.825615	0.825861
C106	C	0.310359	0.187721	0.187868
C107	C	0.643692	0.521054	0.521201
C108	C	0.977026	0.854387	0.854535
C109	C	0.364950	0.187724	0.187853
C110	C	0.698283	0.521057	0.521186
C111	C	1.031617	0.854390	0.854519
N112	N	0.392253	0.216492	0.216528
N113	N	0.725586	0.549825	0.549861
N114	N	1.058920	0.883158	0.883195
C115	C	0.364953	0.245264	0.245207
C116	C	0.698286	0.578597	0.578541
C117	C	1.031619	0.911931	0.911874
C118	C	0.031875	0.187744	0.187891
C119	C	0.365208	0.521077	0.521224
C120	C	0.698541	0.854411	0.854558
C121	C	-0.022728	0.187751	0.187893
C122	C	0.310606	0.521084	0.521226
C123	C	0.643939	0.854417	0.854559
C124	C	-0.022725	0.245293	0.245249
C125	C	0.310608	0.578627	0.578583
C126	C	0.643941	0.911960	0.911916
C127	C	0.031878	0.245289	0.245245
C128	C	0.365211	0.578622	0.578578
C129	C	0.698545	0.911955	0.911912
C130	C	0.059178	0.216512	0.216566
C131	C	0.392511	0.549845	0.549899
C132	C	0.725844	0.883178	0.883233
C133	C	0.479618	0.245257	0.245189
C134	C	0.812951	0.578591	0.578522
C135	C	1.146284	0.911924	0.911855
C136	C	0.534223	0.245254	0.245177
C137	C	0.867556	0.578587	0.578510
C138	C	1.200890	0.911920	0.911844
C139	C	0.534216	0.187709	0.187822
C140	C	0.867549	0.521043	0.521156
C141	C	1.200883	0.854376	0.854489
C142	C	0.479615	0.187714	0.187832
C143	C	0.812949	0.521048	0.521165
C144	C	1.146282	0.854381	0.854499
C145	C	0.452318	0.216490	0.216519
C146	C	0.785651	0.549823	0.549852
C147	C	1.118984	0.883156	0.883186
O148	O	0.393232	0.163277	0.163465
O149	O	0.726565	0.496610	0.496798
O150	O	1.059899	0.829944	0.830132
O151	O	0.393197	0.269725	0.269597
O152	O	0.726530	0.603058	0.602930
O153	O	1.059863	0.936392	0.936264
C154	C	0.788936	0.692792	0.187828
C155	C	1.122269	1.026126	0.521161
C156	C	1.455603	1.359459	0.854494
C157	C	0.788986	0.880465	0.187838
C158	C	1.122319	1.213799	0.521171
C159	C	1.455653	1.547132	0.854505
O160	O	0.817460	0.904727	0.163446
O161	O	1.150794	1.238060	0.496779
O162	O	1.484127	1.571393	0.830113
N163	N	0.755535	0.903938	0.216538
N164	N	1.088868	1.237271	0.549871
N165	N	1.422201	1.570604	0.883204
C166	C	0.722071	0.880489	0.245239
C167	C	1.055405	1.213823	0.578572
C168	C	1.388738	1.547156	0.911905
O169	O	0.693624	0.904760	0.269653
O170	O	1.026957	1.238094	0.602986
O171	O	1.360291	1.571427	0.936320
C172	C	0.722024	0.692817	0.245230
C173	C	1.055358	1.026150	0.578564
C174	C	1.388691	1.359484	0.911897
C175	C	0.755474	0.669347	0.216526
C176	C	1.088807	1.002680	0.549859
C177	C	1.422141	1.336014	0.883192
C178	C	0.822383	0.669322	0.159126
C179	C	1.155717	1.002655	0.492459
C180	C	1.489050	1.335989	0.825793
C181	C	0.822369	0.622407	0.159122
C182	C	1.155702	0.955740	0.492455
C183	C	1.489035	1.289073	0.825789
C184	C	0.788906	0.598961	0.187820
C185	C	1.122240	0.932295	0.521153
C186	C	1.455573	1.265628	0.854486
C187	C	0.755459	0.622431	0.216522
C188	C	1.088792	0.955765	0.549855
C189	C	1.422126	1.289098	0.883188
C190	C	0.688564	0.669369	0.273934
C191	C	1.021897	1.002703	0.607267
C192	C	1.355231	1.336036	0.940600
C193	C	0.688556	0.622448	0.273930
C194	C	1.021889	0.955782	0.607263
C195	C	1.355223	1.289115	0.940596
C196	C	0.722006	0.598978	0.245225
C197	C	1.055339	0.932312	0.578558
C198	C	1.388672	1.265645	0.911892
C199	C	0.721982	0.552071	0.245216
C200	C	1.055316	0.885404	0.578549
C201	C	1.388649	1.218737	0.911882
N202	N	0.755433	0.528598	0.216516
N203	N	1.088767	0.861932	0.549850
N204	N	1.422100	1.195265	0.883183
C205	C	0.788895	0.552043	0.187818
C206	C	1.122229	0.885377	0.521152
C207	C	1.455562	1.218710	0.854485
C208	C	0.722097	0.979020	0.245240
C209	C	1.055431	1.312353	0.578574
C210	C	1.388764	1.645687	0.911907
C211	C	0.722108	1.025938	0.245242
C212	C	1.055442	1.359271	0.578575
C213	C	1.388775	1.692604	0.911909
C214	C	0.789024	1.025910	0.187842
C215	C	1.122357	1.359244	0.521175
C216	C	1.455691	1.692577	0.854508
C217	C	0.789010	0.978992	0.187838
C218	C	1.122343	1.312325	0.521172
C219	C	1.455677	1.645658	0.854505
C220	C	0.755549	0.955547	0.216541
C221	C	1.088882	1.288881	0.549874
C222	C	1.422215	1.622214	0.883207
C223	C	0.788862	0.453518	0.187812
C224	C	1.122195	0.786851	0.521145
C225	C	1.455528	1.120184	0.854478
C226	C	0.788842	0.406598	0.187809
C227	C	1.122176	0.739931	0.521142
C228	C	1.455509	1.073265	0.854476
C229	C	0.721929	0.406629	0.245211
C230	C	1.055262	0.739963	0.578544
C231	C	1.388596	1.073296	0.911877
C232	C	0.721946	0.453545	0.245212
C233	C	1.055279	0.786878	0.578545
C234	C	1.388613	1.120212	0.911879
C235	C	0.755417	0.476988	0.216511
C236	C	1.088750	0.810321	0.549844
C237	C	1.422083	1.143655	0.883178
O238	O	0.693527	0.527780	0.269599
O239	O	1.026860	0.861114	0.602932
O240	O	1.360194	1.194447	0.936265
O241	O	0.817347	0.527764	0.163415
O242	O	1.150680	0.861098	0.496748
O243	O	1.484013	1.194431	0.830081
C244	C	0.788951	0.739708	0.187832
C245	C	1.122284	1.073041	0.521165
C246	C	1.455618	1.406374	0.854498
C247	C	0.755504	0.763178	0.216534
C248	C	1.088837	1.096511	0.549867
C249	C	1.422170	1.429845	0.883200
C250	C	0.722042	0.739733	0.245232
C251	C	1.055375	1.073066	0.578565
C252	C	1.388708	1.406399	0.911898
C253	C	0.755515	0.810096	0.216535
C254	C	1.088848	1.143429	0.549869
C255	C	1.422181	1.476762	0.883202
C256	C	0.788977	0.833541	0.187837
C257	C	1.122310	1.166874	0.521171
C258	C	1.455643	1.500208	0.854504
C259	C	0.822428	0.810068	0.159138
C260	C	1.155761	1.143402	0.492471
C261	C	1.489094	1.476735	0.825804
C262	C	0.822413	0.763153	0.159134
C263	C	1.155746	1.096486	0.492467
C264	C	1.489080	1.429820	0.825800
C265	C	0.688590	0.763205	0.273931
C266	C	1.021924	1.096539	0.607265
C267	C	1.355257	1.429872	0.940598
C268	C	0.688608	0.810121	0.273933
C269	C	1.021941	1.143454	0.607266
C270	C	1.355274	1.476787	0.940599
C271	C	0.722070	0.833566	0.245235
C272	C	1.055403	1.166899	0.578568
C273	C	1.388736	1.500233	0.911901
C274	C	0.891853	0.216514	0.216561
C275	C	1.225186	0.549847	0.549894
C276	C	1.558520	0.883181	0.883228
C277	C	0.949967	0.216522	0.216574
C278	C	1.283300	0.549855	0.549908
C279	C	1.616634	0.883188	0.883241
C280	C	0.755512	0.216479	0.333709
C281	C	1.088846	0.549812	0.667042
C282	C	1.422179	0.883145	1.000375
C283	C	0.755526	0.216471	0.383643
C284	C	1.088860	0.549805	0.716976
C285	C	1.422193	0.883138	1.050310
C286	C	0.755579	1.099317	0.216557
C287	C	1.088912	1.432651	0.549891
C288	C	1.422245	1.765984	0.883224
C289	C	0.755571	1.049383	0.216544
C290	C	1.088904	1.382716	0.549877
C291	C	1.422237	1.716050	0.883211
C292	C	0.755478	0.216481	0.099808
C293	C	1.088811	0.549814	0.433141
C294	C	1.422145	0.883147	0.766474
C295	C	0.755565	0.216361	0.049874
C296	C	1.088899	0.549695	0.383207
C297	C	1.422232	0.883028	0.716540
C298	C	0.722125	0.187688	0.693291
C299	C	1.055459	0.521022	1.026624
C300	C	1.388792	0.854355	1.359958
C301	C	0.722140	0.187657	0.880964
C302	C	1.055474	0.520990	1.214297
C303	C	1.388807	0.854324	1.547631
O304	O	0.693715	0.163230	0.905233
O305	O	1.027049	0.496563	1.238566
O306	O	1.360382	0.829896	1.571899
N307	N	0.755551	0.216387	0.904428
N308	N	1.088884	0.549720	1.237762
N309	N	1.422218	0.883054	1.571095
C310	C	0.788958	0.245129	0.880972
C311	C	1.122292	0.578462	1.214305
C312	C	1.455625	0.911795	1.547638
O313	O	0.817373	0.269568	0.905236
O314	O	1.150706	0.602901	1.238569
O315	O	1.484039	0.936234	1.571902
C316	C	0.788940	0.245162	0.693299
C317	C	1.122274	0.578495	1.026633
C318	C	1.455607	0.911828	1.359966
C319	C	0.755531	0.216427	0.669837
C320	C	1.088864	0.549760	1.003171
C321	C	1.422198	0.883094	1.336504
C322	C	0.688718	0.158956	0.669829
C323	C	1.022052	0.492289	1.003162
C324	C	1.355385	0.825623	1.336496
C325	C	0.688717	0.158962	0.622914
C326	C	1.022050	0.492296	0.956247
C327	C	1.355384	0.825629	1.289580
C328	C	0.722123	0.187701	0.599460
C329	C	1.055456	0.521034	0.932793
C330	C	1.388789	0.854368	1.266127
C331	C	0.755530	0.216433	0.622922
C332	C	1.088863	0.549767	0.956255
C333	C	1.422196	0.883100	1.289589
C334	C	0.822344	0.273906	0.669843
C335	C	1.155678	0.607239	1.003177
C336	C	1.489011	0.940572	1.336510
C337	C	0.822336	0.273912	0.622922
C338	C	1.155669	0.607245	0.956256
C339	C	1.489003	0.940579	1.289589
C340	C	0.788927	0.245177	0.599460
C341	C	1.122260	0.578510	0.932794
C342	C	1.455593	0.911844	1.266127
C343	C	0.788934	0.245178	0.552553
C344	C	1.122267	0.578512	0.885886
C345	C	1.455601	0.911845	1.219220
N346	N	0.755523	0.216448	0.529089
N347	N	1.088856	0.549782	0.862422
N348	N	1.422190	0.883115	1.195755
C349	C	0.722117	0.187710	0.552542
C350	C	1.055451	0.521043	0.885875
C351	C	1.388784	0.854376	1.219209
C352	C	0.788966	0.245109	0.979502
C353	C	1.122299	0.578442	1.312836
C354	C	1.455633	0.911775	1.646169
C355	C	0.788971	0.245100	1.026420
C356	C	1.122304	0.578433	1.359753
C357	C	1.455638	0.911767	1.693087
C358	C	0.722152	0.187629	1.026409
C359	C	1.055486	0.520962	1.359743
C360	C	1.388819	0.854295	1.693076
C361	C	0.722150	0.187636	0.979491
C362	C	1.055483	0.520969	1.312824
C363	C	1.388817	0.854302	1.646157
C364	C	0.755555	0.216379	0.956038
C365	C	1.088888	0.549712	1.289371
C366	C	1.422222	0.883045	1.622705
C367	C	0.722117	0.187725	0.454016
C368	C	1.055451	0.521058	0.787350
C369	C	1.388784	0.854392	1.120683
C370	C	0.722121	0.187733	0.407097
C371	C	1.055454	0.521066	0.740430
C372	C	1.388787	0.854399	1.073763
C373	C	0.788937	0.245205	0.407111
C374	C	1.122271	0.578539	0.740445
C375	C	1.455604	0.911872	1.073778
C376	C	0.788936	0.245196	0.454027
C377	C	1.122270	0.578529	0.787360
C378	C	1.455603	0.911863	1.120694
C379	C	0.755522	0.216455	0.477478
C380	C	1.088855	0.549788	0.810812
C381	C	1.422189	0.883121	1.144145
O382	O	0.817340	0.269596	0.528255
O383	O	1.150673	0.602930	0.861589
O384	O	1.484006	0.936263	1.194922
O385	O	0.693699	0.163281	0.528270
O386	O	1.027032	0.496615	0.861603
O387	O	1.360366	0.829948	1.194937
C388	C	0.722127	0.187682	0.740206
C389	C	1.055460	0.521015	1.073540
C390	C	1.388793	0.854349	1.406873
C391	C	0.755534	0.216414	0.763668
C392	C	1.088867	0.549747	1.097002
C393	C	1.422200	0.883081	1.430335
C394	C	0.788939	0.245153	0.740215
C395	C	1.122273	0.578486	1.073548
C396	C	1.455606	0.911819	1.406881
C397	C	0.755539	0.216405	0.810586
C398	C	1.088872	0.549739	1.143920
C399	C	1.422206	0.883072	1.477253
C400	C	0.722133	0.187667	0.834040
C401	C	1.055467	0.521000	1.167373
C402	C	1.388800	0.854333	1.500706
C403	C	0.688722	0.158937	0.810575
C404	C	1.022056	0.492270	1.143909
C405	C	1.355389	0.825604	1.477242
C406	C	0.688721	0.158943	0.763660
C407	C	1.022054	0.492277	1.096993
C408	C	1.355388	0.825610	1.430327
C409	C	0.822350	0.273883	0.763679
C410	C	1.155684	0.607216	1.097012
C411	C	1.489017	0.940549	1.430346
C412	C	0.822349	0.273874	0.810595
C413	C	1.155683	0.607207	1.143928
C414	C	1.489016	0.940540	1.477261
C415	C	0.788944	0.245135	0.834048
C416	C	1.122277	0.578468	1.167381
C417	C	1.455610	0.911802	1.500715
H418	H	0.556448	0.268686	0.268527
H419	H	0.889782	0.602019	0.601860
H420	H	1.223115	0.935352	0.935194
C421	C	0.449598	0.276896	0.276757
C422	C	0.782931	0.610229	0.610090
C423	C	1.116265	0.943562	0.943424
H424	H	0.473683	0.294025	0.293832
H425	H	0.807017	0.627359	0.627165
H426	H	1.140350	0.960692	0.960498
H427	H	0.428334	0.259728	0.296364
H428	H	0.761667	0.593062	0.629697
H429	H	1.095001	0.926395	0.963031
H430	H	0.428262	0.296456	0.259551
H431	H	0.761595	0.629789	0.592884
H432	H	1.094928	0.963122	0.926217
H433	H	0.694909	0.164320	0.473105
H434	H	1.028242	0.497654	0.806438
H435	H	1.361576	0.830987	1.139771
C436	C	-0.052752	0.156103	0.156349
C437	C	0.280581	0.489437	0.489682
C438	C	0.613915	0.822770	0.823016
H439	H	-0.028668	0.138967	0.139271
H440	H	0.304666	0.472300	0.472604
H441	H	0.637999	0.805633	0.805938
H442	H	-0.074082	0.173259	0.136744
H443	H	0.259251	0.506593	0.470077
H444	H	0.592585	0.839926	0.803410
H445	H	-0.074023	0.136551	0.173576
H446	H	0.259311	0.469884	0.506909
H447	H	0.592644	0.803217	0.840242
H448	H	0.816182	0.268494	1.045519
H449	H	1.149516	0.601827	1.378852
H450	H	1.482849	0.935160	1.712185
H451	H	0.305272	0.297470	0.297242
H452	H	0.638605	0.630803	0.630575
H453	H	0.971939	0.964137	0.963908
H454	H	0.694866	1.045043	0.268612
H455	H	1.028199	1.378377	0.601945
H456	H	1.361532	1.711710	0.935279
C457	C	0.564253	0.156060	0.156279
C458	C	0.897587	0.489394	0.489613
C459	C	1.230920	0.822727	0.822946
H460	H	0.600682	0.160178	0.160388
H461	H	0.934015	0.493512	0.493721
H462	H	1.267349	0.826845	0.827055
H463	H	0.555282	0.162587	0.126081
H464	H	0.888615	0.495921	0.459414
H465	H	1.221948	0.829254	0.792748
H466	H	0.555333	0.125884	0.162918
H467	H	0.888666	0.459217	0.496251
H468	H	1.222000	0.792551	0.829585
C469	C	0.859192	0.695105	0.127553
C470	C	1.192525	1.028438	0.460886
C471	C	1.525858	1.361771	0.794219
H472	H	0.879104	0.674401	0.110459
H473	H	1.212437	1.007734	0.443792
H474	H	1.545771	1.341067	0.777126
H475	H	0.881970	0.713383	0.144753
H476	H	1.215303	1.046716	0.478086
H477	H	1.548637	1.380050	0.811419
H478	H	0.839205	0.713429	0.107957
H479	H	1.172538	1.046763	0.441290
H480	H	1.505871	1.380096	0.774623
C481	C	0.825678	0.276817	0.381307
C482	C	1.159012	0.610151	0.714640
C483	C	1.492345	0.943484	1.047973
H484	H	0.820885	0.272707	0.350004
H485	H	1.154218	0.606040	0.683338
H486	H	1.487552	0.939374	1.016671
H487	H	0.860817	0.270252	0.389007
H488	H	1.194150	0.603585	0.722341
H489	H	1.527484	0.936918	1.055674
H490	H	0.817989	0.307001	0.388983
H491	H	1.151322	0.640334	0.722316
H492	H	1.484655	0.973668	1.055649
C493	C	0.198426	0.305696	0.305449
C494	C	0.531760	0.639030	0.638782
C495	C	0.865093	0.972363	0.972116
H496	H	0.222513	0.322829	0.322519
H497	H	0.555846	0.656162	0.655853
H498	H	0.889180	0.989496	0.989186
H499	H	0.177150	0.288546	0.325061
H500	H	0.510483	0.621879	0.658394
H501	H	0.843817	0.955212	0.991727
H502	H	0.177102	0.325253	0.288227
H503	H	0.510435	0.658586	0.621561
H504	H	0.843769	0.991919	0.954894
H505	H	0.849651	0.744047	0.135760
H506	H	1.182984	1.077380	0.469093
H507	H	1.516317	1.410713	0.802427
H508	H	-0.044963	0.268720	0.268603
H509	H	0.288370	0.602053	0.601937
H510	H	0.621704	0.935387	0.935270
C511	C	0.825641	0.380783	0.156235
C512	C	1.158974	0.714117	0.489568
C513	C	1.492307	1.047450	0.822901
H514	H	0.845575	0.401469	0.139148
H515	H	1.178908	0.734802	0.472482
H516	H	1.512241	1.068136	0.805815
H517	H	0.805651	0.362507	0.136639
H518	H	1.138984	0.695841	0.469972
H519	H	1.472317	1.029174	0.803306
H520	H	0.848407	0.362454	0.173443
H521	H	1.181740	0.695787	0.506776
H522	H	1.515074	1.029120	0.840109
C523	C	0.859102	0.305485	0.836398
C524	C	1.192435	0.638818	1.169731
C525	C	1.525768	0.972151	1.503064
H526	H	0.878991	0.322603	0.815706
H527	H	1.212324	0.655936	1.149039
H528	H	1.545658	0.989270	1.482372
H529	H	0.881904	0.288306	0.854717
H530	H	1.215237	0.621639	1.188051
H531	H	1.548570	0.954972	1.521384
H532	H	0.839076	0.325056	0.854683
H533	H	1.172410	0.658390	1.188016
H534	H	1.505743	0.991723	1.521349
H535	H	0.054102	0.268718	0.268594
H536	H	0.387436	0.602051	0.601928
H537	H	0.720769	0.935384	0.935261
H538	H	0.816169	0.268517	0.960411
H539	H	1.149502	0.601851	1.293745
H540	H	1.482835	0.935184	1.627078
C541	C	0.061899	0.156093	0.156337
C542	C	0.395233	0.489426	0.489670
C543	C	0.728566	0.822759	0.823003
H544	H	0.037815	0.138965	0.139259
H545	H	0.371148	0.472298	0.472592
H546	H	0.704481	0.805632	0.805925
H547	H	0.083227	0.136538	0.173552
H548	H	0.416561	0.469871	0.506886
H549	H	0.749894	0.803205	0.840219
H550	H	0.083172	0.173251	0.136725
H551	H	0.416505	0.506585	0.470058
H552	H	0.749839	0.839918	0.803392
C553	C	0.198433	0.127296	0.127658
C554	C	0.531767	0.460629	0.460991
C555	C	0.865100	0.793963	0.794325
H556	H	0.222520	0.110158	0.110584
H557	H	0.555854	0.443491	0.443917
H558	H	0.889187	0.776825	0.777251
H559	H	0.177103	0.144447	0.108049
H560	H	0.510437	0.477781	0.441382
H561	H	0.843770	0.811114	0.774716
H562	H	0.177163	0.107745	0.144887
H563	H	0.510497	0.441078	0.478220
H564	H	0.843830	0.774411	0.811553
C565	C	0.313085	0.127292	0.127647
C566	C	0.646418	0.460625	0.460980
C567	C	0.979752	0.793959	0.794313
H568	H	0.289002	0.110161	0.110571
H569	H	0.622336	0.443494	0.443904
H570	H	0.955669	0.776827	0.777237
H571	H	0.334414	0.107741	0.144866
H572	H	0.667747	0.441075	0.478200
H573	H	1.001080	0.774408	0.811533
H574	H	0.334357	0.144449	0.108033
H575	H	0.667691	0.477782	0.441367
H576	H	1.001024	0.811115	0.774700
C577	C	0.859103	0.305493	0.737886
C578	C	1.192436	0.638827	1.071220
C579	C	1.525769	0.972160	1.404553
H580	H	0.879002	0.322598	0.758584
H581	H	1.212335	0.655931	1.091917
H582	H	1.545668	0.989264	1.425251
H583	H	0.839089	0.325071	0.719567
H584	H	1.172423	0.658404	1.052901
H585	H	1.505756	0.991738	1.386234
H586	H	0.881903	0.288309	0.719602
H587	H	1.215237	0.621642	1.052935
H588	H	1.548570	0.954976	1.386268
H589	H	0.661510	0.135565	0.603815
H590	H	0.994843	0.468899	0.937148
H591	H	1.328176	0.802232	1.270482
H592	H	0.694953	0.164228	1.045513
H593	H	1.028287	0.497561	1.378846
H594	H	1.361620	0.830894	1.712180
H595	H	0.816118	0.472599	0.164442
H596	H	1.149451	0.805933	0.497775
H597	H	1.482784	1.139266	0.831108
H598	H	0.457386	0.164286	0.164483
H599	H	0.790720	0.497619	0.497816
H600	H	1.124053	0.830953	0.831149
H601	H	0.694710	0.472655	0.268587
H602	H	1.028044	0.805989	0.601920
H603	H	1.361377	1.139322	0.935254
H604	H	0.661308	0.603362	0.297304
H605	H	0.994642	0.936696	0.630638
H606	H	1.327975	1.270029	0.963971
H607	H	0.849607	0.603300	0.135749
H608	H	1.182941	0.936633	0.469083
H609	H	1.516274	1.269966	0.802416
C610	C	0.859083	0.305530	0.597127
C611	C	1.192416	0.638863	0.930460
C612	C	1.525750	0.972197	1.263794
H613	H	0.878981	0.322638	0.617822
H614	H	1.212314	0.655972	0.951156
H615	H	1.545647	0.989305	1.284489
H616	H	0.839062	0.325104	0.578810
H617	H	1.172395	0.658437	0.912143
H618	H	1.505729	0.991771	1.245477
H619	H	0.881885	0.288350	0.578839
H620	H	1.215218	0.621683	0.912173
H621	H	1.548552	0.955017	1.245506
H622	H	0.849550	0.297305	0.688938
H623	H	1.182883	0.630638	1.022271
H624	H	1.516216	0.963972	1.355605
H625	H	0.816248	0.959885	0.164465
H626	H	1.149581	1.293218	0.497798
H627	H	1.482914	1.626552	0.831131
C628	C	0.685128	0.380836	0.276781
C629	C	1.018461	0.714169	0.610115
C630	C	1.351794	1.047502	0.943448
H631	H	0.665206	0.401531	0.293877
H632	H	0.998539	0.734864	0.627210
H633	H	1.331872	1.068198	0.960544
H634	H	0.705118	0.362508	0.296368
H635	H	1.038451	0.695842	0.629702
H636	H	1.371785	1.029175	0.963035
H637	H	0.662350	0.362559	0.259575
H638	H	0.995683	0.695892	0.592908
H639	H	1.329017	1.029226	0.926241
C640	C	0.651966	0.127339	0.737858
C641	C	0.985299	0.460672	1.071191
C642	C	1.318632	0.794005	1.404524
H643	H	0.632070	0.110228	0.758551
H644	H	0.965403	0.443561	1.091884
H645	H	1.298737	0.776894	1.425218
H646	H	0.671979	0.107767	0.719567
H647	H	1.005312	0.441100	1.052900
H648	H	1.338645	0.774434	1.386234
H649	H	0.629162	0.144527	0.719544
H650	H	0.962496	0.477860	1.052877
H651	H	1.295829	0.811193	1.386210
H652	H	0.816270	1.045007	0.164475
H653	H	1.149604	1.378341	0.497808
H654	H	1.482937	1.711674	0.831141
C655	C	0.685393	0.156034	0.953687
C656	C	1.018726	0.489367	1.287020
C657	C	1.352060	0.822700	1.620353
H658	H	0.665497	0.138921	0.974379
H659	H	0.998831	0.472254	1.307712
H660	H	1.332164	0.805588	1.641045
H661	H	0.705404	0.136464	0.935393
H662	H	1.038738	0.469797	1.268726
H663	H	1.372071	0.803130	1.602060
H664	H	0.662590	0.173225	0.935375
H665	H	0.995923	0.506558	1.268709
H666	H	1.329256	0.839891	1.602042
H667	H	0.694848	0.959935	0.268614
H668	H	1.028181	1.293268	0.601947
H669	H	1.361515	1.626601	0.935281
C670	C	0.651772	0.695176	0.305512
C671	C	0.985106	1.028510	0.638846
C672	C	1.318439	1.361843	0.972179
H673	H	0.631851	0.674487	0.322605
H674	H	0.965184	1.007821	0.655938
H675	H	1.298517	1.341154	0.989272
H676	H	0.629003	0.713508	0.288315
H677	H	0.962336	1.046842	0.621648
H678	H	1.295669	1.380175	0.954981
H679	H	0.671770	0.713450	0.325109
H680	H	1.005103	1.046783	0.658442
H681	H	1.338436	1.380116	0.991776
H682	H	0.849672	0.829166	0.135770
H683	H	1.183006	1.162499	0.469103
H684	H	1.516339	1.495832	0.802436
C685	C	0.651811	0.835933	0.305511
C686	C	0.985145	1.169266	0.638844
C687	C	1.318478	1.502600	0.972178
H688	H	0.631886	0.815246	0.322603
H689	H	0.965220	1.148579	0.655937
H690	H	1.298553	1.481913	0.989270
H691	H	0.629045	0.854267	0.288312
H692	H	0.962378	1.187600	0.621645
H693	H	1.295711	1.520933	0.954979
H694	H	0.671810	0.854205	0.325108
H695	H	1.005144	1.187538	0.658441
H696	H	1.338477	1.520871	0.991774
H697	H	0.816147	0.268590	0.473131
H698	H	1.149480	0.601923	0.806464
H699	H	1.482813	0.935256	1.139797
C700	C	0.651972	0.127330	0.836380
C701	C	0.985305	0.460663	1.169714
C702	C	1.318638	0.793997	1.503047
H703	H	0.656757	0.131448	0.867682
H704	H	0.990091	0.464781	1.201016
H705	H	1.323424	0.798115	1.534349
H706	H	0.659645	0.097144	0.828709
H707	H	0.992979	0.430478	1.162042
H708	H	1.326312	0.763811	1.495376
H709	H	0.616834	0.133909	0.828676
H710	H	0.950168	0.467242	1.162009
H711	H	1.283501	0.800576	1.495342
C712	C	0.685365	0.156126	0.381291
C713	C	1.018698	0.489460	0.714624
C714	C	1.352032	0.822793	1.047958
H715	H	0.665467	0.139014	0.401982
H716	H	0.998800	0.472348	0.735315
H717	H	1.332133	0.805681	1.068648
H718	H	0.705380	0.136555	0.363001
H719	H	1.038714	0.469889	0.696335
H720	H	1.372047	0.803222	1.029668
H721	H	0.662564	0.173315	0.362976
H722	H	0.995897	0.506648	0.696309
H723	H	1.329231	0.839982	1.029642
H724	H	0.661513	0.135553	0.688920
H725	H	0.994846	0.468887	1.022253
H726	H	1.328179	0.802220	1.355587
H727	H	0.661342	0.744120	0.297301
H728	H	0.994675	1.077453	0.630635
H729	H	1.328009	1.410786	0.963968
