data_functionalizedCrystal
_audit_creation_method	'MofGen! by Chris Wilmer'
_symmetry_space_group_name_H-M	'P1'
_symmetry_Int_Tables_number	1
_symmetry_cell_setting	triclinic
loop_
_symmetry_equiv_pos_as_xyz
  x,y,z
_cell_length_a	14.044220
_cell_length_b	16.956984
_cell_length_c	16.053802
_cell_angle_alpha	87.610701
_cell_angle_beta	92.799619
_cell_angle_gamma	84.621148
loop_
_atom_site_label
_atom_site_type_symbol
_atom_site_fract_x
_atom_site_fract_y
_atom_site_fract_z
O1	O	0.034824	1.063881	-0.069434
O2	O	0.067919	0.834077	-0.069435
O3	O	-0.086342	0.945529	-0.069426
O4	O	0.189085	0.952429	-0.069443
O5	O	-0.077884	0.939392	0.069432
O6	O	0.076377	0.827940	0.069423
O7	O	0.043282	1.057744	0.069425
Zn8	Zn	0.061173	0.941868	0.091471
Zn9	Zn	0.050029	0.949953	-0.091481
O10	O	0.197544	0.946292	0.069416
C11	C	0.073843	0.801421	-0.000006
C12	C	0.078881	0.713259	-0.000006
C13	C	-0.005360	0.675182	0.000000
C14	C	-0.000620	0.592344	-0.000006
C15	C	0.088361	0.547584	-0.000013
C16	C	0.172608	0.585667	-0.000022
C17	C	0.167867	0.668503	-0.000022
C18	C	0.111826	0.299481	-0.000020
C19	C	0.116561	0.216639	-0.000018
C20	C	-0.056668	0.223322	-0.000004
C21	C	-0.061401	0.306160	0.000002
C22	C	0.022846	0.344235	-0.000012
N23	N	0.093208	0.462911	-0.000017
N24	N	0.017998	0.428908	-0.000014
C25	C	-0.117191	0.939441	0.000003
C26	C	-0.221711	0.930433	0.000004
C27	C	-0.413083	0.913966	-0.000008
C28	C	-0.475722	0.977851	-0.000010
C29	C	-0.582208	0.968689	-0.000017
C30	C	-0.306587	0.923127	-0.000001
C31	C	0.228392	0.952380	-0.000016
C32	C	0.332912	0.961388	-0.000022
C33	C	0.037359	1.090400	-0.000006
C34	C	0.032320	1.178562	-0.000011
N35	N	0.068777	0.936355	0.216331
N36	N	0.042416	0.955472	-0.216341
C37	C	0.003159	0.983798	0.260028
C38	C	0.008487	0.979950	0.347435
C39	C	0.079438	0.928662	0.391142
C40	C	0.145059	0.881214	0.347438
C41	C	0.139726	0.885058	0.260033
C42	C	0.102705	0.911867	0.652550
C43	C	0.108034	0.908028	0.739961
C44	C	-0.028539	1.006764	0.739952
C45	C	-0.033862	1.010608	0.652545
C46	C	0.031756	0.963156	0.608849
N47	N	0.084887	0.924730	0.480485
N48	N	0.026302	0.967085	0.519507
H49	H	0.236465	0.699504	-0.000023
H50	H	0.189024	0.180197	-0.000020
H51	H	-0.077818	0.711620	0.000009
C52	C	-0.518736	1.118276	0.000002
C53	C	-0.440164	1.060978	0.000002
H54	H	-0.496779	1.169592	0.000007
H55	H	-0.553412	1.109907	0.048417
H56	H	-0.559297	1.114194	-0.048429
H57	H	-0.399607	1.065056	0.048436
H58	H	-0.405473	1.069350	-0.048419
H59	H	0.202825	0.839450	0.383029
H60	H	0.156135	0.873232	0.616979
C61	C	0.202649	0.391876	-0.071449
C62	C	0.204438	0.341314	-0.000053
H63	H	0.259832	0.417695	-0.071476
H64	H	0.148997	0.430396	-0.071433
H65	H	0.197919	0.361822	-0.119857
H66	H	0.209160	0.371368	0.048356
H67	H	0.258104	0.302788	-0.000060
C68	C	-0.043987	1.017894	0.481416
C69	C	-0.063642	1.032102	0.395468
H70	H	-0.088524	1.050088	0.511068
H71	H	0.019121	1.030347	0.495726
H72	H	-0.049246	0.963610	0.495744
H73	H	-0.058376	1.086384	0.381140
H74	H	-0.126766	1.019654	0.381153
C75	C	-0.131307	1.081001	0.268808
C76	C	-0.074835	1.040175	0.211990
H77	H	-0.179463	1.115800	0.239150
H78	H	-0.092205	1.110815	0.302882
H79	H	-0.160565	1.044072	0.302914
H80	H	-0.045571	1.077103	0.177887
H81	H	-0.113942	1.010359	0.177900
C82	C	0.317364	0.557617	-0.071421
C83	C	0.270417	0.536466	-0.000033
H84	H	0.377746	0.527239	-0.071427
H85	H	0.326598	0.612394	-0.071417
H86	H	0.279592	0.547549	-0.119835
H87	H	0.308187	0.546539	0.048381
H88	H	0.261187	0.481677	-0.000030
C89	C	-0.172321	0.607270	0.000028
C90	C	-0.093220	0.550490	0.000011
H91	H	-0.229489	0.581430	0.000044
H92	H	-0.173524	0.641579	-0.048393
H93	H	-0.167601	0.637301	0.048454
H94	H	-0.097936	0.520463	-0.048418
H95	H	-0.092018	0.516168	0.048436
C96	C	-0.168333	1.107809	0.661319
C97	C	-0.111859	1.066980	0.604505
H98	H	-0.216486	1.142609	0.631659
H99	H	-0.129232	1.137624	0.695394
H100	H	-0.197593	1.070883	0.695426
H101	H	-0.082592	1.103907	0.570402
H102	H	-0.150965	1.037164	0.570416
C103	C	-0.152167	1.010523	0.838257
C104	C	-0.100672	1.058911	0.787986
H105	H	-0.196706	1.042717	0.867907
H106	H	-0.109147	0.979438	0.876791
H107	H	-0.185585	0.976606	0.804162
H108	H	-0.067248	1.092824	0.822082
H109	H	-0.143698	1.090010	0.749448
H110	H	-0.133859	0.342598	0.000011
H111	H	0.165815	0.866261	0.775543
H112	H	-0.439427	0.852396	-0.000010
H113	H	0.193158	0.846424	0.224455
H114	H	-0.125257	0.192313	-0.000002
