data_functionalizedCrystal
_audit_creation_method	'MofGen! by Chris Wilmer'
_symmetry_space_group_name_H-M	'P1'
_symmetry_Int_Tables_number	1
_symmetry_cell_setting	triclinic
loop_
_symmetry_equiv_pos_as_xyz
  x,y,z
_cell_length_a	14.044220
_cell_length_b	12.503552
_cell_length_c	14.044190
_cell_angle_alpha	86.163821
_cell_angle_beta	93.190328
_cell_angle_gamma	93.839891
loop_
_atom_site_label
_atom_site_type_symbol
_atom_site_fract_x
_atom_site_fract_y
_atom_site_fract_z
O1	O	1.282213	0.089227	0.225121
O2	O	1.782213	0.589227	0.725121
O3	O	1.005543	0.089254	0.216814
O4	O	1.505543	0.589254	0.716814
O5	O	1.139721	0.089220	0.082632
O6	O	1.639721	0.589220	0.582632
O7	O	1.148036	0.089261	0.359302
O8	O	1.648036	0.589261	0.859302
O9	O	1.129618	-0.089420	0.092732
O10	O	1.629618	0.410580	0.592732
O11	O	0.995440	-0.089386	0.226913
O12	O	1.495440	0.410614	0.726913
O13	O	1.272111	-0.089412	0.235221
O14	O	1.772111	0.410588	0.735221
Cu15	Cu	1.132853	-0.105711	0.231989
Cu16	Cu	1.632853	0.394289	0.731989
Cu17	Cu	1.144801	0.105552	0.220045
Cu18	Cu	1.644801	0.605552	0.720045
O19	O	1.137933	-0.089379	0.369402
O20	O	1.637933	0.410621	0.869402
C21	C	0.964870	-0.000063	0.218228
C22	C	1.464870	0.499937	0.718228
C23	C	0.858728	-0.000054	0.207383
C24	C	1.358728	0.499946	0.707383
N25	N	1.124457	-0.254301	0.240390
N26	N	1.624457	0.245699	0.740390
C27	C	1.165551	-0.526745	0.199276
C28	C	1.665551	-0.026745	0.699276
C29	C	1.112113	-0.473407	0.252749
C30	C	1.612113	0.026593	0.752749
C31	C	1.118983	-0.351485	0.245871
C32	C	1.618983	0.148515	0.745871
C33	C	1.158682	-0.648678	0.206153
C34	C	1.658682	-0.148678	0.706153
C35	C	0.664388	-0.000078	0.187558
C36	C	1.164388	0.499922	0.687558
C37	C	0.613260	-0.000071	0.264472
C38	C	1.113260	0.499929	0.764472
C39	C	0.505123	-0.000085	0.253441
C40	C	1.005123	0.499915	0.753441
C41	C	0.772535	-0.000065	0.198587
C42	C	1.272535	0.499935	0.698587
C43	C	1.312784	-0.000093	0.233806
C44	C	1.812784	0.499907	0.733806
C45	C	1.418927	-0.000095	0.244651
C46	C	1.918927	0.499905	0.744651
C47	C	1.131033	-0.000103	0.052060
C48	C	1.631033	0.499897	0.552060
C49	C	1.120185	-0.000111	-0.054082
C50	C	1.620185	0.499889	0.445918
N51	N	1.153204	0.254143	0.211637
N52	N	1.653204	0.754143	0.711637
C53	C	1.177287	-0.000075	-0.299543
C54	C	1.677287	0.499925	0.200457
C55	C	1.100371	-0.000075	-0.248417
C56	C	1.600371	0.499925	0.251583
C57	C	1.111398	-0.000095	-0.140279
C58	C	1.611398	0.499905	0.359721
C59	C	1.166262	-0.000054	-0.407691
C60	C	1.666262	0.499946	0.092309
C61	C	1.146621	-0.000053	0.399974
C62	C	1.646621	0.499947	0.899974
C63	C	1.157469	-0.000038	0.506116
C64	C	1.657469	0.499962	1.006116
H65	H	1.061205	-0.519310	0.303695
H66	H	1.561205	-0.019310	0.803695
N67	N	1.229406	-0.469154	0.135371
N68	N	1.729406	0.030846	0.635371
N69	N	1.234964	-0.368757	0.129808
N70	N	1.734964	0.131243	0.629808
H71	H	1.280063	-0.328071	0.084677
H72	H	1.780063	0.171929	0.584677
H73	H	0.650703	-0.000055	0.338605
H74	H	1.150703	0.499945	0.838605
H75	H	0.626948	-0.000095	0.113431
H76	H	1.126948	0.499905	0.613431
H77	H	1.026239	-0.000061	-0.285862
H78	H	1.526239	0.499939	0.214138
N79	N	1.270274	-0.000091	-0.252563
N80	N	1.770274	0.499909	0.247437
N81	N	1.279210	-0.000108	-0.163510
N82	N	1.779210	0.499892	0.336490
H83	H	1.344881	-0.000122	-0.130319
H84	H	1.844881	0.499878	0.369681
