data_functionalizedCrystal
_audit_creation_method	'MofGen! by Chris Wilmer'
_symmetry_space_group_name_H-M	'P1'
_symmetry_Int_Tables_number	1
_symmetry_cell_setting	triclinic
loop_
_symmetry_equiv_pos_as_xyz
  x,y,z
_cell_length_a	21.883469
_cell_length_b	21.882911
_cell_length_c	21.879399
_cell_angle_alpha	60.006540
_cell_angle_beta	60.013207
_cell_angle_gamma	59.992231
loop_
_atom_site_label
_atom_site_type_symbol
_atom_site_fract_x
_atom_site_fract_y
_atom_site_fract_z
O1	O	0.084645	-0.892842	0.746620
O2	O	0.584645	-0.392842	1.246620
O3	O	0.031867	-0.695139	0.601571
O4	O	0.531867	-0.195139	1.101571
O5	O	0.157054	-0.820237	0.601476
O6	O	0.657054	-0.320237	1.101476
O7	O	-0.040542	-0.767744	0.746716
O8	O	0.459458	-0.267744	1.246716
O9	O	0.198586	-0.778715	0.642912
O10	O	0.698586	-0.278715	1.142912
O11	O	0.073399	-0.653617	0.643007
O12	O	0.573399	-0.153617	1.143007
O13	O	0.126177	-0.851320	0.788056
O14	O	0.626177	-0.351320	1.288056
Cu15	Cu	0.103580	-0.748677	0.719315
Cu16	Cu	0.603580	-0.248677	1.219315
Cu17	Cu	0.054464	-0.797782	0.670313
Cu18	Cu	0.554464	-0.297782	1.170313
O19	O	0.000990	-0.726222	0.788151
O20	O	0.500990	-0.226222	1.288151
N21	N	0.138128	-0.714145	0.753785
N22	N	0.638128	-0.214145	1.253785
N23	N	0.019923	-0.832320	0.635843
N24	N	0.519923	-0.332320	1.135843
C25	C	0.190018	-0.547369	0.805644
C26	C	0.690018	-0.047369	1.305644
C27	C	0.190029	-0.662289	0.805630
C28	C	0.690029	-0.162289	1.305630
C29	C	0.218780	-0.633565	0.834353
C30	C	0.718780	-0.133565	1.334353
C31	C	0.344122	-0.611968	0.768360
C32	C	0.844122	-0.111968	1.268360
C33	C	0.422474	-0.638085	0.742222
C34	C	0.922474	-0.138085	1.242222
C35	C	0.422504	-0.764859	0.790561
C36	C	0.922504	-0.264859	1.290561
C37	C	0.344154	-0.738739	0.816702
C38	C	0.844154	-0.238739	1.316702
C39	C	0.208899	-0.508180	0.728617
C40	C	0.708899	-0.008180	1.228617
C41	C	0.182748	-0.429822	0.702522
C42	C	0.682748	0.070178	1.202522
C43	C	0.118843	-0.429847	0.830485
C44	C	0.618843	0.070153	1.330485
C45	C	0.144993	-0.508205	0.856580
C46	C	0.644993	-0.008205	1.356580
C47	C	0.112994	-0.643364	0.824587
C48	C	0.612994	-0.143364	1.324587
C49	C	0.086865	-0.669476	0.798467
C50	C	0.586865	-0.169476	1.298467
C51	C	0.214799	-0.733437	0.734451
C52	C	0.714799	-0.233437	1.234451
C53	C	0.240932	-0.707325	0.760562
C54	C	0.740932	-0.207325	1.260562
C55	C	0.113084	-0.643389	0.959747
C56	C	0.613084	-0.143389	1.459747
C57	C	0.087018	-0.669524	1.038102
C58	C	0.587018	-0.169524	1.538102
C59	C	0.214996	-0.733501	1.038048
C60	C	0.714996	-0.233501	1.538048
C61	C	0.241061	-0.707367	0.959690
C62	C	0.741061	-0.207367	1.459690
C63	C	0.190103	-0.662308	0.920542
C64	C	0.690103	-0.162308	1.420542
C65	C	0.304966	-0.662293	0.805598
C66	C	0.804966	-0.162293	1.305598
C67	C	-0.117460	-0.854702	0.612901
C68	C	0.382540	-0.354702	1.112901
C69	C	-0.002405	-0.854864	0.498145
C70	C	0.497595	-0.354864	0.998145
C71	C	-0.002621	-0.969735	0.613108
C72	C	0.497379	-0.469735	1.113108
C73	C	-0.002603	-0.854858	0.613180
C74	C	0.497397	-0.354858	1.113180
C75	C	-0.031272	-0.883541	0.584334
C76	C	0.468728	-0.383541	1.084334
N77	N	0.460550	-0.714150	0.753681
N78	N	0.960550	-0.214150	1.253681
O79	O	0.699805	-0.721060	0.574973
O80	O	1.199805	-0.221060	1.074973
O81	O	0.700047	-0.866553	0.772482
O82	O	1.200047	-0.366553	1.272482
O83	O	0.699952	-0.866219	0.647213
O84	O	1.199952	-0.366219	1.147213
O85	O	0.699900	-0.721394	0.700242
O86	O	1.199900	-0.221394	1.200242
O87	O	0.575478	-0.824800	0.688791
O88	O	1.075478	-0.324800	1.188791
O89	O	0.575573	-0.825134	0.814060
O90	O	1.075573	-0.325134	1.314060
O91	O	0.575331	-0.679641	0.616551
O92	O	1.075331	-0.179641	1.116551
Cu93	Cu	0.564087	-0.748606	0.719102
Cu94	Cu	1.064087	-0.248606	1.219102
Cu95	Cu	0.711292	-0.797588	0.669931
Cu96	Cu	1.211292	-0.297588	1.169931
O97	O	0.575426	-0.679975	0.741820
O98	O	1.075426	-0.179975	1.241820
N99	N	0.814828	-0.832044	0.635345
N100	N	1.314828	-0.332044	1.135345
N101	N	0.138106	-0.391772	0.753815
N102	N	0.638106	0.108228	1.253815
O103	O	-0.040520	-0.152377	0.746758
O104	O	0.459480	0.347623	1.246758
O105	O	0.156993	-0.152371	0.601281
O106	O	0.656993	0.347629	1.101281
O107	O	0.031698	-0.152390	0.601639
O108	O	0.531698	0.347610	1.101639
O109	O	0.084775	-0.152358	0.746401
O110	O	0.584775	0.347642	1.246401
O111	O	0.073234	-0.276876	0.643130
O112	O	0.573234	0.223124	1.143130
O113	O	0.198529	-0.276856	0.642772
O114	O	0.698529	0.223144	1.142772
O115	O	0.001015	-0.276863	0.788249
O116	O	0.501015	0.223137	1.288249
Cu117	Cu	0.103564	-0.288226	0.719299
Cu118	Cu	0.603564	0.211774	1.219299
Cu119	Cu	0.054444	-0.141007	0.670231
Cu120	Cu	0.554444	0.358993	1.170231
O121	O	0.126310	-0.276844	0.787892
O122	O	0.626310	0.223156	1.287892
N123	N	0.019892	-0.037461	0.635717
N124	N	0.519892	0.462539	1.135717
N125	N	0.138332	-0.714192	1.076133
N126	N	0.638332	-0.214192	1.576133
O127	O	0.131293	-0.892804	1.315506
O128	O	0.631293	-0.392804	1.815506
O129	O	-0.014162	-0.695219	1.315533
O130	O	0.485838	-0.195219	1.815533
O131	O	-0.013826	-0.820490	1.315480
O132	O	0.486174	-0.320490	1.815480
O133	O	0.130957	-0.767533	1.315559
O134	O	0.630957	-0.267533	1.815559
O135	O	0.027651	-0.778981	1.191001
O136	O	0.527651	-0.278981	1.691001
O137	O	0.027314	-0.653710	1.191054
O138	O	0.527314	-0.153710	1.691054
O139	O	0.172770	-0.851295	1.191026
O140	O	0.672770	-0.351295	1.691026
Cu141	Cu	0.103829	-0.748713	1.179674
Cu142	Cu	0.603829	-0.248713	1.679674
Cu143	Cu	0.054778	-0.797802	1.326885
Cu144	Cu	0.554778	-0.297802	1.826885
O145	O	0.172434	-0.726024	1.191079
O146	O	0.672434	-0.226024	1.691079
N147	N	0.020275	-0.832331	1.430426
N148	N	0.520275	-0.332331	1.930426
C149	C	0.047687	-0.649466	0.602306
C150	C	0.547687	-0.149466	1.102306
C151	C	0.202716	-0.804385	0.602188
C152	C	0.702716	-0.304385	1.102188
C153	C	0.110357	-0.896993	0.787321
C154	C	0.610357	-0.396993	1.287321
C155	C	-0.044672	-0.742074	0.787439
C156	C	0.455328	-0.242074	1.287439
C157	C	0.637839	-0.865879	0.818154
C158	C	1.137839	-0.365879	1.318154
C159	C	0.637724	-0.865466	0.663023
C160	C	1.137724	-0.365466	1.163023
C161	C	0.637536	-0.680313	0.570880
C162	C	1.137536	-0.180313	1.070880
C163	C	0.637655	-0.680728	0.726010
C164	C	1.137655	-0.180728	1.226010
C165	C	0.202592	-0.214459	0.601942
C166	C	0.702592	0.285541	1.101942
C167	C	0.047481	-0.214636	0.602435
C168	C	0.547481	0.285364	1.102435
C169	C	-0.044635	-0.214620	0.787537
C170	C	0.455365	0.285380	1.287537
C171	C	0.110528	-0.214598	0.787096
C172	C	0.610528	0.285402	1.287096
C173	C	-0.013455	-0.649572	1.253296
C174	C	0.486545	-0.149572	1.753296
C175	C	-0.013030	-0.804697	1.253206
C176	C	0.486970	-0.304697	1.753206
C177	C	0.172063	-0.896942	1.253263
C178	C	0.672063	-0.396942	1.753263
C179	C	0.171648	-0.741808	1.253325
C180	C	0.671648	-0.241808	1.753325
H181	H	0.071582	-0.606692	0.927876
H182	H	0.571582	-0.106692	1.427876
H183	H	0.036114	-0.214639	0.556956
H184	H	0.536114	0.285361	1.056956
C185	C	-0.091586	-0.880144	1.317054
C186	C	0.408414	-0.380144	1.817054
C187	C	-0.074409	-0.819959	1.253102
C188	C	0.425591	-0.319959	1.753102
H189	H	-0.129475	-0.889568	1.316986
H190	H	0.370525	-0.389568	1.816986
H191	H	-0.108907	-0.868273	1.360480
H192	H	0.391093	-0.368273	1.860480
H193	H	-0.048025	-0.923411	1.317061
H194	H	0.451975	-0.423411	1.817061
H195	H	-0.117969	-0.776690	1.253099
H196	H	0.382031	-0.276690	1.753099
H197	H	-0.057091	-0.831826	1.209666
H198	H	0.442909	-0.331826	1.709666
C199	C	0.312383	-0.768492	0.520519
C200	C	0.812383	-0.268492	1.020519
C201	C	0.279327	-0.819482	0.540610
C202	C	0.779327	-0.319482	1.040610
H203	H	0.359677	-0.777811	0.482500
H204	H	0.859677	-0.277811	0.982500
H205	H	0.318922	-0.774128	0.563046
H206	H	0.818922	-0.274128	1.063046
H207	H	0.280972	-0.718956	0.502373
H208	H	0.780972	-0.218956	1.002373
H209	H	0.310735	-0.869019	0.558761
H210	H	0.810735	-0.369019	1.058761
H211	H	0.272791	-0.813853	0.498075
H212	H	0.772791	-0.313853	0.998075
H213	H	0.637644	-0.635235	0.737357
H214	H	1.137644	-0.135235	1.237357
C215	C	0.325323	-0.213827	0.566714
C216	C	0.825323	0.286173	1.066714
C217	C	0.279005	-0.213984	0.540126
C218	C	0.779005	0.286016	1.040126
H219	H	0.372495	-0.213529	0.528548
H220	H	0.872495	0.286471	1.028548
H221	H	0.332144	-0.257330	0.609101
H222	H	0.832144	0.242670	1.109101
H223	H	0.302746	-0.170509	0.580512
H224	H	0.802746	0.329491	1.080512
H225	H	0.301580	-0.257305	0.526333
H226	H	0.801580	0.242695	1.026333
H227	H	0.272186	-0.170477	0.497725
H228	H	0.772186	0.329523	0.997725
C229	C	0.207070	-1.019883	1.253221
C230	C	0.707070	-0.519883	1.753221
C231	C	0.233715	-0.973546	1.253251
C232	C	0.733715	-0.473546	1.753251
H233	H	0.245132	-1.067176	1.253217
H234	H	0.745132	-0.567176	1.753217
H235	H	0.193472	-0.997480	1.209808
H236	H	0.693472	-0.497480	1.709808
H237	H	0.164542	-1.026429	1.296625
H238	H	0.664542	-0.526429	1.796625
H239	H	0.276241	-0.966995	1.209844
H240	H	0.776241	-0.466995	1.709844
H241	H	0.247324	-0.995954	1.296669
H242	H	0.747324	-0.495954	1.796669
H243	H	0.217133	-0.730478	1.253340
H244	H	0.717133	-0.230478	1.753340
C245	C	0.198597	-1.019863	0.821965
C246	C	0.698597	-0.519863	1.321965
C247	C	0.125567	-0.973660	0.848822
C248	C	0.625567	-0.473660	1.348822
H249	H	0.207984	-1.067195	0.859932
H250	H	0.707984	-0.567195	1.359932
H251	H	0.233148	-0.997396	0.808333
H252	H	0.733148	-0.497396	1.308333
H253	H	0.204181	-1.026341	0.779421
H254	H	0.704181	-0.526341	1.279421
H255	H	0.119985	-0.967177	0.891363
H256	H	0.619985	-0.467177	1.391363
H257	H	0.091006	-0.996132	0.862464
H258	H	0.591006	-0.496132	1.362464
H259	H	0.637900	-0.911553	0.874882
H260	H	1.137900	-0.411553	1.374882
C261	C	-0.167563	-0.653948	0.822252
C262	C	0.332437	-0.153948	1.322252
C263	C	-0.121284	-0.726974	0.849016
C264	C	0.378716	-0.226974	1.349016
H265	H	-0.214857	-0.644626	0.860270
H266	H	0.285143	-0.144626	1.360270
H267	H	-0.174101	-0.648326	0.779730
H268	H	0.325899	-0.148326	1.279730
H269	H	-0.145120	-0.619368	0.808616
H270	H	0.354880	-0.119368	1.308616
H271	H	-0.143724	-0.761555	0.862646
H272	H	0.356276	-0.261555	1.362646
H273	H	-0.114748	-0.732603	0.891550
H274	H	0.385252	-0.232603	1.391550
C275	C	0.637671	-0.899914	0.574673
C276	C	1.137671	-0.399914	1.074673
C277	C	0.637746	-0.926887	0.647710
C278	C	1.137746	-0.426887	1.147710
H279	H	0.637679	-0.937832	0.565222
H280	H	1.137679	-0.437832	1.065222
H281	H	0.681044	-0.886260	0.540134
H282	H	1.181044	-0.386260	1.040134
H283	H	0.594230	-0.857362	0.569133
H284	H	1.094230	-0.357362	1.069133
H285	H	0.681190	-0.969436	0.653248
H286	H	1.181190	-0.469436	1.153248
H287	H	0.594368	-0.940551	0.682258
H288	H	1.094368	-0.440551	1.182258
H289	H	-0.101359	-0.214623	0.833209
H290	H	0.398641	0.285377	1.333209
C291	C	0.637413	-0.645297	0.447959
C292	C	1.137413	-0.145297	0.947959
C293	C	0.637433	-0.618644	0.494309
C294	C	1.137433	-0.118644	0.994309
H295	H	0.637353	-0.607225	0.400687
H296	H	1.137353	-0.107225	0.900687
H297	H	0.594034	-0.658925	0.470374
H298	H	1.094034	-0.158925	0.970374
H299	H	0.680848	-0.687813	0.441374
H300	H	1.180848	-0.187813	0.941374
H301	H	0.593995	-0.576131	0.500900
H302	H	1.093995	-0.076131	1.000900
H303	H	0.680816	-0.605006	0.471890
H304	H	1.180816	-0.105006	0.971890
C305	C	0.198918	-0.214607	0.821526
C306	C	0.698918	0.285393	1.321526
C307	C	0.125868	-0.214605	0.848500
C308	C	0.625868	0.285395	1.348500
H309	H	0.208389	-0.214620	0.859439
H310	H	0.708389	0.285380	1.359439
H311	H	0.204471	-0.171195	0.778973
H312	H	0.704471	0.328805	1.278973
H313	H	0.233435	-0.258017	0.807886
H314	H	0.733435	0.241983	1.307886
H315	H	0.091350	-0.171193	0.862135
H316	H	0.591350	0.328807	1.362135
H317	H	0.120309	-0.258023	0.891066
H318	H	0.620309	0.241977	1.391066
C319	C	-0.048463	-0.526631	1.253339
C320	C	0.451537	-0.026631	1.753339
C321	C	-0.075108	-0.572969	1.253308
C322	C	0.424892	-0.072969	1.753308
H323	H	-0.086527	-0.479341	1.253351
H324	H	0.413473	0.020659	1.753351
H325	H	-0.005941	-0.520083	1.209939
H326	H	0.494059	-0.020083	1.709939
H327	H	-0.034861	-0.549040	1.296757
H328	H	0.465139	-0.049040	1.796757
H329	H	-0.088704	-0.550562	1.209886
H330	H	0.411296	-0.050562	1.709886
H331	H	-0.117642	-0.579515	1.296712
H332	H	0.382358	-0.079515	1.796712
H333	H	0.036413	-0.592673	0.556752
H334	H	0.536413	-0.092673	1.056752
H335	H	0.256495	-0.770176	1.069914
H336	H	0.756495	-0.270176	1.569914
C337	C	-0.030097	-0.675262	1.062254
C338	C	0.469903	-0.175262	1.562254
C339	C	0.002351	-0.648710	1.081186
C340	C	0.502351	-0.148710	1.581186
H341	H	-0.082367	-0.662408	1.088850
H342	H	0.417633	-0.162408	1.588850
H343	H	-0.008085	-0.728125	1.075088
H344	H	0.491915	-0.228125	1.575088
H345	H	-0.021855	-0.653248	1.009984
H346	H	0.478145	-0.153248	1.509984
H347	H	-0.005887	-0.670728	1.133455
H348	H	0.494113	-0.170728	1.633455
H349	H	-0.019669	-0.595837	1.068357
H350	H	0.480331	-0.095837	1.568357
C351	C	0.364945	-0.773228	0.967510
C352	C	0.864945	-0.273228	1.467510
C353	C	0.325727	-0.728167	0.916598
C354	C	0.825727	-0.228167	1.416598
H355	H	0.417213	-0.786064	0.940906
H356	H	0.917213	-0.286064	1.440906
H357	H	0.352120	-0.817529	0.998066
H358	H	0.852120	-0.317529	1.498066
H359	H	0.352107	-0.746642	0.998077
H360	H	0.852107	-0.246642	1.498077
H361	H	0.338560	-0.754754	0.886034
H362	H	0.838560	-0.254754	1.386034
H363	H	0.338558	-0.683857	0.886029
H364	H	0.838558	-0.183857	1.386029
H365	H	0.071542	-0.606694	0.861281
H366	H	0.571542	-0.106694	1.361281
H367	H	0.256252	-0.770113	0.697763
H368	H	0.756252	-0.270113	1.197763
C369	C	-0.036977	-0.603651	0.864389
C370	C	0.463023	-0.103651	1.364389
C371	C	0.002186	-0.648687	0.819308
C372	C	0.502186	-0.148687	1.319308
H373	H	-0.089253	-0.590823	0.877260
H374	H	0.410747	-0.090823	1.377260
H375	H	-0.024161	-0.559343	0.837811
H376	H	0.475839	-0.059343	1.337811
H377	H	-0.024084	-0.630250	0.908675
H378	H	0.475916	-0.130250	1.408675
H379	H	-0.010702	-0.622085	0.775019
H380	H	0.489298	-0.122085	1.275019
H381	H	-0.010635	-0.693002	0.845886
H382	H	0.489365	-0.193002	1.345886
H383	H	0.312274	-0.779724	0.847024
H384	H	0.812274	-0.279724	1.347024
C385	C	0.357973	-0.701504	0.661789
C386	C	0.857973	-0.201504	1.161789
C387	C	0.325608	-0.728099	0.739720
C388	C	0.825608	-0.228099	1.239720
H389	H	0.410248	-0.714327	0.648922
H390	H	0.910248	-0.214327	1.148922
H391	H	0.335927	-0.648643	0.643802
H392	H	0.835927	-0.148643	1.143802
H393	H	0.349705	-0.723517	0.639793
H394	H	0.849705	-0.223517	1.139793
H395	H	0.333871	-0.706082	0.761716
H396	H	0.833871	-0.206082	1.261716
H397	H	0.347662	-0.780971	0.757715
H398	H	0.847662	-0.280971	1.257715
C399	C	0.414671	-0.887550	0.840962
C400	C	0.914671	-0.387550	1.340962
C401	C	0.465586	-0.848891	0.802756
C402	C	0.965586	-0.348891	1.302756
H403	H	0.441269	-0.939427	0.848494
H404	H	0.941269	-0.439427	1.348494
H405	H	0.384088	-0.869167	0.812266
H406	H	0.884088	-0.369167	1.312266
H407	H	0.384134	-0.880282	0.888044
H408	H	0.884134	-0.380282	1.388044
H409	H	0.496120	-0.856153	0.755672
H410	H	0.996120	-0.356153	1.255672
H411	H	0.496182	-0.867279	0.831452
H412	H	0.996182	-0.367279	1.331452
H413	H	0.454353	-0.597104	0.711898
H414	H	0.954353	-0.097104	1.211898
H415	H	0.312222	-0.549720	0.759316
H416	H	0.812222	-0.049720	1.259316
H417	H	0.198119	-0.397913	0.639797
H418	H	0.698119	0.102087	1.139797
C419	C	0.269420	-0.500283	0.599508
C420	C	0.769420	-0.000283	1.099508
C421	C	0.258382	-0.551231	0.672631
C422	C	0.758382	-0.051231	1.172631
H423	H	0.299965	-0.526862	0.564944
H424	H	0.799965	-0.026862	1.064944
H425	H	0.293343	-0.469723	0.591974
H426	H	0.793343	0.030277	1.091974
H427	H	0.222437	-0.469720	0.592013
H428	H	0.722437	0.030280	1.092013
H429	H	0.305366	-0.581791	0.680128
H430	H	0.805366	-0.081791	1.180128
H431	H	0.234461	-0.581804	0.680168
H432	H	0.734461	-0.081804	1.180168
H433	H	0.082193	-0.397958	0.871963
H434	H	0.582193	0.102042	1.371963
H435	H	0.129609	-0.540114	0.919306
H436	H	0.629609	-0.040114	1.419306
