data_functionalizedCrystal
_audit_creation_method	'MofGen! by Chris Wilmer'
_symmetry_space_group_name_H-M	'P1'
_symmetry_Int_Tables_number	1
_symmetry_cell_setting	triclinic
loop_
_symmetry_equiv_pos_as_xyz
  x,y,z
_cell_length_a	24.447405
_cell_length_b	24.446649
_cell_length_c	24.443239
_cell_angle_alpha	60.006064
_cell_angle_beta	60.011844
_cell_angle_gamma	59.992812
loop_
_atom_site_label
_atom_site_type_symbol
_atom_site_fract_x
_atom_site_fract_y
_atom_site_fract_z
O1	O	0.075907	-0.799232	0.668277
O2	O	0.028634	-0.622262	0.538455
O3	O	0.140702	-0.734230	0.538349
O4	O	-0.036160	-0.687265	0.668384
O5	O	0.177886	-0.697056	0.575424
O6	O	0.065818	-0.585088	0.575530
O7	O	0.113091	-0.762059	0.705353
Cu8	Cu	0.092850	-0.670179	0.643827
Cu9	Cu	0.048876	-0.714142	0.599981
O10	O	0.001024	-0.650091	0.705459
N11	N	0.123780	-0.639263	0.674669
N12	N	0.017951	-0.745064	0.569139
C13	C	0.170236	-0.489965	0.721065
C14	C	0.170249	-0.592837	0.721058
C15	C	0.195989	-0.567121	0.746758
C16	C	0.308182	-0.547773	0.687664
C17	C	0.378316	-0.571143	0.664253
C18	C	0.378353	-0.684626	0.707525
C19	C	0.308220	-0.661254	0.730938
C20	C	0.187125	-0.454882	0.652117
C21	C	0.163710	-0.384741	0.628763
C22	C	0.106523	-0.384772	0.743308
C23	C	0.129938	-0.454913	0.766662
C24	C	0.101291	-0.575906	0.738041
C25	C	0.077897	-0.599283	0.714670
C26	C	0.192412	-0.656523	0.657348
C27	C	0.215809	-0.633146	0.680711
C28	C	0.101393	-0.575928	0.859014
C29	C	0.078071	-0.599328	0.929152
C30	C	0.192636	-0.656582	0.929078
C31	C	0.215955	-0.633184	0.858938
C32	C	0.170332	-0.592855	0.823908
C33	C	0.273137	-0.592827	0.721004
C34	C	-0.131205	-0.791294	0.522327
C35	C	-0.028388	-0.791420	0.522551
C36	C	-0.054056	-0.817099	0.496741
C37	C	-0.073479	-0.929255	0.555734
C38	C	-0.050156	-0.999396	0.579142
C39	C	0.063326	-0.999525	0.536064
C40	C	0.040001	-0.929386	0.512654
C41	C	-0.166365	-0.808188	0.591256
C42	C	-0.236499	-0.784726	0.614512
C43	C	-0.236309	-0.727482	0.499907
C44	C	-0.166175	-0.750944	0.476651
C45	C	-0.045285	-0.722468	0.505590
C46	C	-0.021951	-0.699130	0.529061
C47	C	0.035176	-0.813691	0.586439
C48	C	0.011842	-0.837031	0.562976
C49	C	-0.045097	-0.722476	0.384488
C50	C	-0.021613	-0.699140	0.314350
C51	C	0.035607	-0.813706	0.314419
C52	C	0.012124	-0.837041	0.384558
C53	C	-0.028229	-0.791425	0.419591
C54	C	-0.028402	-0.894253	0.522492
N55	N	0.412405	-0.639229	0.674505
O56	O	0.626552	-0.645384	0.514503
O57	O	0.626802	-0.775625	0.691288
O58	O	0.626698	-0.775326	0.579168
O59	O	0.626656	-0.645683	0.626623
O60	O	0.515277	-0.738265	0.616407
O61	O	0.515382	-0.738564	0.728527
O62	O	0.515131	-0.608323	0.551742
Cu63	Cu	0.505083	-0.670059	0.643535
Cu64	Cu	0.636850	-0.713889	0.599495
O65	O	0.515236	-0.608622	0.663862
N66	N	0.729529	-0.744719	0.568518
N67	N	0.123755	-0.350686	0.674680
O68	O	-0.036153	-0.136410	0.668391
O69	O	0.140633	-0.136380	0.538141
O70	O	0.028472	-0.136412	0.538488
O71	O	0.076007	-0.136377	0.668044
O72	O	0.065663	-0.247842	0.575621
O73	O	0.177823	-0.247810	0.575274
O74	O	0.001037	-0.247840	0.705524
Cu75	Cu	0.092826	-0.258000	0.643789
Cu76	Cu	0.048844	-0.126220	0.599875
O77	O	0.113198	-0.247808	0.705177
N78	N	0.017907	-0.033534	0.568986
N79	N	0.124013	-0.639306	0.963182
O80	O	0.117754	-0.799195	1.177439
O81	O	-0.012458	-0.622342	1.177485
O82	O	-0.012155	-0.734480	1.177444
O83	O	0.117450	-0.687057	1.177480
O84	O	0.024954	-0.697317	1.066020
O85	O	0.024650	-0.585179	1.066061
O86	O	0.154862	-0.762032	1.066014
Cu87	Cu	0.093145	-0.670212	1.055863
Cu88	Cu	0.049259	-0.714162	1.187636
O89	O	0.154559	-0.649894	1.066055
N90	N	0.018389	-0.745075	1.280318
C91	C	0.042795	-0.581375	0.539107
C92	C	0.181576	-0.720034	0.538975
C93	C	0.098930	-0.802946	0.704700
C94	C	-0.039851	-0.664287	0.704832
C95	C	0.571122	-0.775030	0.732180
C96	C	0.570995	-0.774660	0.593332
C97	C	0.570808	-0.608917	0.510851
C98	C	0.570939	-0.609288	0.649698
C99	C	0.181453	-0.191954	0.538725
C100	C	0.042602	-0.192131	0.539201
C101	C	-0.039829	-0.192128	0.704893
C102	C	0.099069	-0.192090	0.704464
C103	C	-0.011836	-0.581480	1.121779
C104	C	-0.011453	-0.720342	1.121706
C105	C	0.154240	-0.802894	1.121720
C106	C	0.153865	-0.664024	1.121769
H107	H	0.064236	-0.543084	0.830495
H108	H	0.109248	-0.192079	0.745165
O109	O	0.202426	-0.651995	1.121889
C110	C	0.220491	-0.697940	1.179579
H111	H	0.177582	-0.717579	1.219913
H112	H	0.231353	-0.671835	1.198957
H113	H	0.267144	-0.741557	1.166517
O114	O	0.241954	-0.191663	0.489903
C115	C	0.292718	-0.249246	0.512524
H116	H	0.274485	-0.268704	0.569629
H117	H	0.339309	-0.236001	0.492888
H118	H	0.305410	-0.289594	0.493347
O119	O	-0.100349	-0.192165	0.753761
C120	C	-0.100301	-0.192137	0.811405
H121	H	-0.046549	-0.213221	0.810591
H122	H	-0.130061	-0.224492	0.858048
H123	H	-0.124254	-0.138676	0.812189
O124	O	0.571012	-0.560783	0.661857
C125	C	0.628764	-0.583825	0.677556
H126	H	0.648058	-0.640937	0.696767
H127	H	0.615813	-0.564473	0.717872
H128	H	0.669119	-0.564697	0.630723
O129	O	0.011077	-0.582786	0.963143
C130	C	-0.024185	-0.542187	0.917180
H131	H	0.009235	-0.516682	0.867175
H132	H	-0.070983	-0.502507	0.937469
H133	H	-0.039320	-0.574540	0.909731
H134	H	0.032695	-0.530537	0.498334
H135	H	0.177459	-0.356175	0.572617
O136	O	0.074812	-0.858110	0.280497
C137	C	0.084644	-0.923969	0.326524
H138	H	0.076736	-0.923830	0.376546
H139	H	0.137834	-0.957327	0.306344
H140	H	0.047313	-0.944006	0.333901
H141	H	0.229790	-0.689406	0.957592
H142	H	0.032420	-0.192135	0.498498
O143	O	0.570805	-0.560110	0.450281
C144	C	0.628484	-0.542084	0.420581
H145	H	0.647774	-0.555654	0.461181
H146	H	0.615438	-0.485841	0.392552
H147	H	0.668878	-0.570181	0.383993
H148	H	0.232372	-0.730046	0.498140
H149	H	0.219934	-0.483420	0.614988
H150	H	-0.052716	-0.530687	1.121793
O151	O	0.110864	-0.863596	0.753369
C152	C	0.064910	-0.893363	0.771406
H153	H	0.018506	-0.852787	0.757990
H154	H	0.049887	-0.921528	0.827622
H155	H	0.089176	-0.929844	0.743192
O156	O	0.282949	-0.649669	0.824942
C157	C	0.318213	-0.690291	0.870903
H158	H	0.284794	-0.681350	0.920910
H159	H	0.365011	-0.677139	0.850615
H160	H	0.333348	-0.745229	0.878350
O161	O	-0.100477	-0.652230	0.753486
C162	C	-0.142123	-0.586404	0.729268
H163	H	-0.109868	-0.554585	0.686237
H164	H	-0.174211	-0.563972	0.771314
H165	H	-0.175965	-0.587424	0.710672
O166	O	-0.059925	-0.732521	1.121607
C167	C	-0.035519	-0.798380	1.121585
H168	H	0.021546	-0.816024	1.100523
H169	H	-0.055891	-0.799322	1.089187
H170	H	-0.052478	-0.833050	1.175024
O171	O	0.202931	-0.863533	1.121731
C172	C	0.178824	-0.905216	1.121692
H173	H	0.121758	-0.887069	1.142792
H174	H	0.199379	-0.958892	1.154026
H175	H	0.195840	-0.903392	1.068228
H176	H	0.064189	-0.543085	0.770891
H177	H	0.073721	-0.356231	0.780438
H178	H	0.229515	-0.689349	0.624505
O179	O	0.010890	-0.582806	0.731255
C180	C	-0.024308	-0.542207	0.771867
H181	H	0.009173	-0.551155	0.797337
H182	H	-0.071083	-0.555375	0.811571
H183	H	-0.039476	-0.487263	0.739535
O184	O	0.571179	-0.823877	0.792721
C185	C	0.571236	-0.881563	0.792688
H186	H	0.550093	-0.866718	0.753040
H187	H	0.538950	-0.906667	0.844058
H188	H	0.624708	-0.917950	0.780940
O189	O	0.282816	-0.649658	0.664162
C190	C	0.318014	-0.690224	0.623516
H191	H	0.284580	-0.715749	0.632494
H192	H	0.364861	-0.729887	0.636605
H193	H	0.333063	-0.657840	0.568584
H194	H	0.279688	-0.697946	0.758086
H195	H	0.406920	-0.740344	0.715602
H196	H	0.406848	-0.534453	0.637104
O197	O	0.570895	-0.823188	0.581230
C198	C	0.513162	-0.800136	0.565496
H199	H	0.472820	-0.758554	0.587151
H200	H	0.493838	-0.843306	0.587853
H201	H	0.526145	-0.779909	0.508763
O202	O	0.274208	-0.481285	0.677985
C203	C	0.320184	-0.446531	0.643520
H204	H	0.370198	-0.482528	0.651586
H205	H	0.299931	-0.404234	0.663382
H206	H	0.327601	-0.424729	0.587724
H207	H	0.116177	-0.483478	0.822809
H208	H	-0.035357	-0.642993	0.285778
H209	H	-0.077958	-0.685325	0.413008
H210	H	0.025866	-0.893188	0.413136
O211	O	-0.084463	-0.678132	0.466428
C212	C	-0.143297	-0.637517	0.501767
H213	H	-0.153134	-0.664581	0.557894
H214	H	-0.187435	-0.626860	0.489118
H215	H	-0.136899	-0.588267	0.486867
O216	O	-0.038265	-0.632146	0.512467
C217	C	-0.014174	-0.603073	0.442220
H218	H	0.029079	-0.643059	0.419676
H219	H	0.004071	-0.561776	0.428841
H220	H	-0.056191	-0.580873	0.421340
H221	H	0.025599	-0.893178	0.576787
O222	O	0.074326	-0.858064	0.625624
C223	C	0.133176	-0.898660	0.590276
H224	H	0.123836	-0.899335	0.549390
H225	H	0.147901	-0.951849	0.626299
H226	H	0.175379	-0.877625	0.566557
O227	O	0.083867	-0.895457	0.480295
C228	C	0.131530	-0.912634	0.422501
H229	H	0.134817	-0.963546	0.428819
H230	H	0.182558	-0.915091	0.414934
H231	H	0.115757	-0.873157	0.377017
O232	O	0.129770	-1.033733	0.526475
C233	C	0.154112	-1.074306	0.488311
H234	H	0.110825	-1.084756	0.493713
H235	H	0.192849	-1.123656	0.506994
H236	H	0.178345	-1.047315	0.433366
H237	H	-0.129177	-0.900656	0.563750
O238	O	-0.094033	-1.033292	0.611402
C239	C	-0.126847	-1.016148	0.568438
H240	H	-0.125132	-0.965272	0.528463
H241	H	-0.181238	-1.013631	0.598718
H242	H	-0.100708	-1.055677	0.543393
O243	O	-0.132497	-0.847351	0.635713
C244	C	-0.178572	-0.857238	0.701541
H245	H	-0.228534	-0.814906	0.701329
H246	H	-0.158368	-0.857629	0.734910
H247	H	-0.186071	-0.907174	0.721613
O248	O	-0.270734	-0.801162	0.681458
C249	C	-0.311301	-0.836420	0.698309
H250	H	-0.321722	-0.823759	0.652028
H251	H	-0.360661	-0.821444	0.738919
H252	H	-0.284326	-0.892568	0.717606
H253	H	-0.137547	-0.737181	0.420520
O254	O	-0.270179	-0.688277	0.455450
C255	C	-0.224107	-0.678423	0.389621
H256	H	-0.174135	-0.686316	0.389844
H257	H	-0.244299	-0.625227	0.356272
H258	H	-0.216632	-0.715756	0.369516
