data_functionalizedCrystal
_audit_creation_method	'MofGen! by Chris Wilmer'
_symmetry_space_group_name_H-M	'P1'
_symmetry_Int_Tables_number	1
_symmetry_cell_setting	triclinic
loop_
_symmetry_equiv_pos_as_xyz
  x,y,z
_cell_length_a	10.540510
_cell_length_b	14.519709
_cell_length_c	13.596369
_cell_angle_alpha	90.006934
_cell_angle_beta	89.994444
_cell_angle_gamma	95.903272
loop_
_atom_site_label
_atom_site_type_symbol
_atom_site_fract_x
_atom_site_fract_y
_atom_site_fract_z
O1	O	1.684585	-0.129839	-0.081800
O2	O	2.017918	0.203495	0.251533
O3	O	2.351252	0.536828	0.584867
O4	O	1.315042	-0.142113	-0.081801
O5	O	1.648375	0.191221	0.251533
O6	O	1.981709	0.524554	0.584866
O7	O	1.509611	-0.001789	-0.081791
O8	O	1.842945	0.331544	0.251542
O9	O	2.176278	0.664877	0.584875
O10	O	1.490016	-0.270162	-0.081809
O11	O	1.823349	0.063171	0.251524
O12	O	2.156682	0.396505	0.584857
O13	O	1.509592	-0.001782	0.081791
O14	O	1.842925	0.331552	0.415125
O15	O	2.176259	0.664885	0.748458
O16	O	1.315023	-0.142105	0.081782
O17	O	1.648356	0.191228	0.415115
O18	O	1.981689	0.524562	0.748449
O19	O	1.684566	-0.129831	0.081783
O20	O	2.017899	0.203502	0.415116
O21	O	2.351232	0.536836	0.748450
Zn22	Zn	1.499791	-0.135967	0.107755
Zn23	Zn	1.833124	0.197367	0.441088
Zn24	Zn	2.166458	0.530700	0.774422
Zn25	Zn	1.499817	-0.135977	-0.107773
Zn26	Zn	1.833150	0.197357	0.225561
Zn27	Zn	2.166483	0.530690	0.558894
O28	O	1.489996	-0.270154	0.081774
O29	O	1.823330	0.063179	0.415107
O30	O	2.156663	0.396512	0.748440
C31	C	1.267738	-0.141194	-0.000009
C32	C	1.601071	0.192139	0.333324
C33	C	1.934405	0.525472	0.666657
C34	C	1.126816	-0.138458	-0.000009
C35	C	1.460149	0.194876	0.333324
C36	C	1.793483	0.528209	0.666657
C37	C	0.908365	-0.235940	-0.000392
C38	C	1.241699	0.097393	0.332942
C39	C	1.575032	0.430727	0.666275
C40	C	1.054931	-0.238859	-0.000017
C41	C	1.388264	0.094474	0.333316
C42	C	1.721598	0.427808	0.666649
C43	C	1.082570	-0.087058	0.093406
C44	C	1.415903	0.246276	0.426739
C45	C	1.749236	0.579609	0.760072
C46	C	0.935831	-0.084850	0.093478
C47	C	1.269165	0.248484	0.426811
C48	C	1.602498	0.581817	0.760145
C49	C	0.936069	-0.082767	-0.092546
C50	C	1.269402	0.250566	0.240787
C51	C	1.602735	0.583899	0.574120
C52	C	1.082361	-0.087530	-0.093775
C53	C	1.415695	0.245804	0.239558
C54	C	1.749028	0.579137	0.572891
C55	C	1.508688	0.032579	0.000000
C56	C	1.842022	0.365913	0.333334
C57	C	2.175355	0.699246	0.666667
C58	C	1.505952	0.134975	0.000001
C59	C	1.839285	0.468308	0.333334
C60	C	2.172618	0.801642	0.666667
C61	C	1.731870	-0.130749	-0.000011
C62	C	2.065203	0.202584	0.333323
C63	C	2.398536	0.535917	0.666656
C64	C	1.872792	-0.133486	-0.000017
C65	C	2.206125	0.199847	0.333316
C66	C	2.539458	0.533181	0.666650
C67	C	1.490919	-0.304523	-0.000020
C68	C	1.824253	0.028810	0.333313
C69	C	2.157586	0.362144	0.666647
C70	C	1.493656	-0.406919	-0.000027
C71	C	1.826989	-0.073585	0.333306
C72	C	2.160322	0.259748	0.666640
N73	N	1.499783	-0.135959	0.254847
N74	N	1.833116	0.197374	0.588180
N75	N	2.166449	0.530707	0.921513
C76	C	1.495877	0.509924	-0.000025
C77	C	1.829210	0.843258	0.333308
C78	C	2.162544	1.176591	0.666642
C79	C	1.498675	0.405602	-0.000017
C80	C	1.832008	0.738935	0.333316
C81	C	2.165341	1.072268	0.666649
C82	C	1.500914	0.322453	-0.000011
C83	C	1.834247	0.655786	0.333322
C84	C	2.167581	0.989120	0.666656
C85	C	1.503712	0.218124	-0.000006
C86	C	1.837046	0.551457	0.333328
C87	C	2.170379	0.884790	0.666661
N88	N	1.499835	-0.135977	-0.254864
N89	N	1.833168	0.197356	0.078469
N90	N	2.166501	0.530690	0.411802
C91	C	1.499815	-0.135978	0.656138
C92	C	1.833148	0.197356	0.989471
C93	C	2.166482	0.530689	1.322804
C94	C	1.499802	-0.135976	0.544486
C95	C	1.833136	0.197358	0.877820
C96	C	2.166469	0.530691	1.211153
C97	C	1.499799	-0.135969	0.455496
C98	C	1.833133	0.197364	0.788829
C99	C	2.166466	0.530697	1.122162
C100	C	1.499786	-0.135966	0.343837
C101	C	1.833119	0.197367	0.677171
C102	C	2.166452	0.530701	1.010504
H103	H	0.893206	-0.114433	-0.163350
H104	H	1.226539	0.218901	0.169984
H105	H	1.559872	0.552234	0.503317
H106	H	0.895248	-0.119971	0.163302
H107	H	1.228581	0.213363	0.496636
H108	H	1.561915	0.546696	0.829969
H109	H	0.914684	-0.007386	-0.093173
H110	H	1.248017	0.325947	0.240161
H111	H	1.581351	0.659280	0.573494
O112	O	1.122926	-0.134330	0.185494
O113	O	1.456260	0.199003	0.518827
O114	O	1.789593	0.532337	0.852160
H115	H	1.174482	-0.194423	0.164966
H116	H	1.507815	0.138910	0.498299
H117	H	1.841148	0.472243	0.831632
H118	H	1.083875	-0.279070	-0.066983
H119	H	1.417208	0.054263	0.266350
H120	H	1.750541	0.387597	0.599683
H121	H	1.110606	-0.124928	-0.162883
H122	H	1.443939	0.208405	0.170450
H123	H	1.777273	0.541739	0.503784
O124	O	0.852252	-0.287766	-0.089121
O125	O	1.185586	0.045567	0.244212
O126	O	1.518919	0.378900	0.577546
H127	H	0.890114	-0.252649	-0.157111
H128	H	1.223448	0.080684	0.176223
H129	H	1.556781	0.414017	0.509556
O130	O	0.850234	-0.287454	0.087848
O131	O	1.183568	0.045879	0.421182
O132	O	1.516901	0.379212	0.754515
H133	H	0.796117	-0.240404	0.131972
H134	H	1.129450	0.092929	0.465305
H135	H	1.462784	0.426262	0.798638
O136	O	1.092037	-0.292323	0.088899
O137	O	1.425370	0.041010	0.422232
O138	O	1.758704	0.374344	0.755566
H139	H	1.005244	-0.316195	0.131796
H140	H	1.338577	0.017138	0.465130
H141	H	1.671911	0.350471	0.798463
H142	H	1.132178	-0.014230	-0.099411
H143	H	1.465511	0.319104	0.233922
H144	H	1.798845	0.652437	0.567255
H145	H	0.913602	-0.009756	0.097726
H146	H	1.246936	0.323578	0.431060
H147	H	1.580269	0.656911	0.764393
H148	H	1.130714	-0.013144	0.096885
H149	H	1.464047	0.320189	0.430218
H150	H	1.797380	0.653523	0.763551
