data_functionalizedCrystal
_audit_creation_method	'MofGen! by Chris Wilmer'
_symmetry_space_group_name_H-M	'P1'
_symmetry_Int_Tables_number	1
_symmetry_cell_setting	triclinic
loop_
_symmetry_equiv_pos_as_xyz
  x,y,z
_cell_length_a	12.594517
_cell_length_b	18.215405
_cell_length_c	18.215399
_cell_angle_alpha	89.969449
_cell_angle_beta	89.979999
_cell_angle_gamma	90.024685
loop_
_atom_site_label
_atom_site_type_symbol
_atom_site_fract_x
_atom_site_fract_y
_atom_site_fract_z
Zn1	Zn	1.627188	-0.292996	-0.416106
Zn2	Zn	1.627055	-0.416067	-0.293034
Zn3	Zn	1.449196	-0.293018	-0.293053
Zn4	Zn	1.449146	-0.416025	-0.416059
O5	O	1.538146	-0.354526	-0.354563
O6	O	1.776116	-0.309330	-0.399792
O7	O	1.603427	-0.399772	-0.190052
O8	O	1.472883	-0.190031	-0.309404
O9	O	1.776019	-0.399750	-0.309372
O10	O	1.603653	-0.190014	-0.399810
O11	O	1.472754	-0.309368	-0.190066
O12	O	1.300243	-0.309327	-0.309358
O13	O	1.472799	-0.399677	-0.519049
O14	O	1.300207	-0.399699	-0.399730
O15	O	1.603605	-0.309289	-0.519084
O16	O	1.603379	-0.519046	-0.309326
O17	O	1.472670	-0.519015	-0.399711
C18	C	1.538034	-0.545733	-0.354527
C19	C	1.538083	-0.627532	-0.354537
C20	C	1.261605	-0.354512	-0.354541
C21	C	1.143300	-0.354523	-0.354549
C22	C	1.606303	-0.815717	-0.307560
C23	C	1.606351	-0.892576	-0.307578
C24	C	1.470126	-0.892584	-0.401619
C25	C	1.470084	-0.815726	-0.401604
C26	C	1.538171	-0.777295	-0.354570
C27	C	1.538260	-0.931011	-0.354603
C28	C	1.538311	-1.014345	-0.354623
C29	C	1.538122	-0.693956	-0.354552
C30	C	1.074036	-0.305303	-0.305490
C31	C	1.003210	-0.372431	-0.287381
C32	C	1.003326	-0.287428	-0.372671
C33	C	1.074033	-0.421686	-0.336405
C34	C	1.074155	-0.336639	-0.421726
C35	C	1.003362	-0.403813	-0.403643
C36	C	1.815767	-0.354542	-0.354585
C37	C	1.934072	-0.354548	-0.354594
C38	C	1.538211	-0.354476	-0.546516
C39	C	1.538239	-0.354454	-0.628315
C40	C	1.538288	-0.162574	-0.354614
C41	C	1.538348	-0.080775	-0.354636
C42	C	1.606374	-0.307345	-0.816528
C43	C	1.606387	-0.307323	-0.893387
C44	C	1.470179	-0.401450	-0.893339
C45	C	1.470161	-0.401467	-0.816482
C46	C	1.538265	-0.354415	-0.778078
C47	C	1.538295	-0.354377	-0.931795
C48	C	1.538308	-0.354354	-1.015128
C49	C	1.538251	-0.354437	-0.694739
C50	C	1.538143	-0.354524	-0.163357
C51	C	1.538321	-0.354338	-0.081558
H52	H	1.661832	-0.923856	-0.269298
H53	H	1.414690	-0.923884	-0.439911
N54	N	1.675840	-0.776461	-0.259511
N55	N	1.668844	-0.785100	-0.191601
H56	H	1.717957	-0.757377	-0.157665
N57	N	1.675960	-0.259233	-0.932651
N58	N	1.736752	-0.217226	-0.898350
H59	H	1.785890	-0.183258	-0.926079
H60	H	1.661825	-0.269030	-0.785262
N61	N	1.112958	-0.253128	-0.253387
N62	N	1.049231	-0.216293	-0.215851
H63	H	1.076719	-0.179447	-0.179052
N64	N	0.964132	-0.391425	-0.216134
N65	N	0.986764	-0.352311	-0.161987
H66	H	0.959171	-0.365722	-0.111667
H67	H	1.414603	-0.784441	-0.439889
H68	H	1.104962	-0.478455	-0.321034
H69	H	0.972525	-0.445496	-0.445150
H70	H	1.105341	-0.321475	-0.478500
N71	N	0.964362	-0.216232	-0.391867
N72	N	0.987017	-0.161977	-0.352905
H73	H	0.959501	-0.111693	-0.366456
N74	N	1.400622	-0.449504	-0.932581
N75	N	1.400646	-0.449483	-1.001203
H76	H	1.351521	-0.483423	-1.028917
H77	H	1.414691	-0.439797	-0.785175
