data_functionalizedCrystal
_audit_creation_method	'MofGen! by Chris Wilmer'
_symmetry_space_group_name_H-M	'P1'
_symmetry_Int_Tables_number	1
_symmetry_cell_setting	triclinic
loop_
_symmetry_equiv_pos_as_xyz
  x,y,z
_cell_length_a	14.971486
_cell_length_b	16.109301
_cell_length_c	13.448316
_cell_angle_alpha	89.991973
_cell_angle_beta	89.998199
_cell_angle_gamma	83.537805
loop_
_atom_site_label
_atom_site_type_symbol
_atom_site_fract_x
_atom_site_fract_y
_atom_site_fract_z
O1	O	1.186791	0.108348	-0.082581
O2	O	1.686791	0.608348	0.417419
O3	O	0.926372	0.121323	-0.082608
O4	O	1.426372	0.621323	0.417392
O5	O	1.063736	-0.006187	-0.082584
O6	O	1.563736	0.493813	0.417416
O7	O	1.049428	0.235857	-0.082605
O8	O	1.549428	0.735857	0.417395
O9	O	1.063718	-0.006195	0.082800
O10	O	1.563718	0.493805	0.582800
O11	O	0.926355	0.121315	0.082776
O12	O	1.426355	0.621315	0.582776
O13	O	1.186774	0.108340	0.082803
O14	O	1.686774	0.608340	0.582803
Cu15	Cu	1.056563	0.114827	0.097890
Cu16	Cu	1.556563	0.614827	0.597890
Cu17	Cu	1.056583	0.114836	-0.097695
Cu18	Cu	1.556583	0.614836	0.402305
O19	O	1.049410	0.235850	0.082778
O20	O	1.549410	0.735850	0.582778
C21	C	0.893040	0.120739	0.000080
C22	C	1.393040	0.620739	0.500080
C23	C	0.793745	0.119000	0.000070
C24	C	1.293745	0.619000	0.500070
C25	C	1.063147	-0.037166	0.000109
C26	C	1.563147	0.462834	0.500109
C27	C	1.061410	-0.129464	0.000110
C28	C	1.561410	0.370536	0.500110
C29	C	0.736412	0.193908	0.000065
C30	C	1.236412	0.693908	0.500065
C31	C	0.643115	0.192269	0.000080
C32	C	1.143115	0.692269	0.500080
C33	C	0.607153	0.115721	0.000093
C34	C	1.107153	0.615721	0.500093
C35	C	0.664494	0.040807	0.000101
C36	C	1.164494	0.540807	0.500101
C37	C	0.757789	0.042447	0.000093
C38	C	1.257789	0.542447	0.500093
C39	C	0.470036	0.037395	0.000115
C40	C	0.970036	0.537395	0.500115
C41	C	0.376734	0.035755	0.000121
C42	C	0.876734	0.535755	0.500121
C43	C	0.355362	0.187217	0.000102
C44	C	0.855362	0.687217	0.500102
C45	C	0.448657	0.188857	0.000094
C46	C	0.948657	0.688857	0.500094
C47	C	0.505991	0.113942	0.000100
C48	C	1.005991	0.613942	0.500100
C49	C	1.138878	-0.351640	0.000102
C50	C	1.638878	0.148360	0.500102
C51	C	1.137239	-0.438362	0.000094
C52	C	1.637239	0.061638	0.500094
C53	C	0.974262	-0.418691	0.000081
C54	C	1.474262	0.081309	0.500081
C55	C	0.975902	-0.331970	0.000082
C56	C	1.475902	0.168030	0.500082
C57	C	1.058213	-0.298447	0.000098
C58	C	1.558213	0.201553	0.500098
C59	C	1.054933	-0.471890	0.000088
C60	C	1.554933	0.028110	0.500088
C61	C	1.053155	-0.565918	0.000079
C62	C	1.553155	-0.065918	0.500079
C63	C	1.059992	-0.204413	0.000105
C64	C	1.559992	0.295587	0.500105
C65	C	1.220106	0.108924	0.000112
C66	C	1.720106	0.608924	0.500112
C67	C	1.319401	0.110663	0.000116
C68	C	1.819401	0.610663	0.500116
C69	C	1.049999	0.266829	0.000084
C70	C	1.549999	0.766829	0.500084
C71	C	1.051736	0.359127	0.000076
C72	C	1.551736	0.859127	0.500076
N73	N	1.056555	0.114820	0.235454
N74	N	1.556555	0.614820	0.735454
N75	N	1.056598	0.114837	-0.235260
N76	N	1.556598	0.614837	0.264740
C77	C	1.117398	0.058382	0.287506
C78	C	1.617398	0.558382	0.787506
C79	C	1.117404	0.058381	0.391609
C80	C	1.617404	0.558381	0.891609
C81	C	1.056570	0.114823	0.443659
C82	C	1.556570	0.614823	0.943659
C83	C	0.995720	0.171264	0.391601
C84	C	1.495720	0.671264	0.891601
C85	C	0.995711	0.171260	0.287499
C86	C	1.495711	0.671260	0.787499
C87	C	0.995745	0.171269	0.608581
C88	C	1.495745	0.671269	1.108581
C89	C	0.995755	0.171275	0.712689
C90	C	1.495755	0.671275	1.212689
C91	C	1.117438	0.058391	0.712690
C92	C	1.617438	0.558391	1.212690
C93	C	1.117429	0.058387	0.608589
C94	C	1.617429	0.558387	1.108589
C95	C	1.056580	0.114829	0.556538
C96	C	1.556580	0.614829	1.056538
H97	H	0.596437	0.253267	0.000074
H98	H	1.096437	0.753267	0.500074
H99	H	1.205901	-0.324348	0.000113
H100	H	1.705901	0.175652	0.500113
N101	N	0.775187	0.276476	0.000051
N102	N	1.275187	0.776476	0.500051
H103	H	0.813422	0.280531	0.061355
H104	H	1.313422	0.780531	0.561355
H105	H	0.813369	0.280489	-0.061302
H106	H	1.313369	0.780489	0.438698
H107	H	0.308675	0.248215	0.000101
H108	H	0.808675	0.748215	0.500101
H109	H	0.477934	0.251189	0.000074
H110	H	0.977934	0.751189	0.500074
N111	N	0.337943	-0.046805	0.000133
N112	N	0.837943	0.453195	0.500133
H113	H	0.388419	-0.094015	0.000143
H114	H	0.888419	0.405985	0.500143
H115	H	0.299698	-0.050780	0.061444
H116	H	0.799698	0.449220	0.561444
N117	N	0.885487	-0.454848	0.000068
N118	N	1.385487	0.045152	0.500068
H119	H	0.896686	-0.517857	0.000071
H120	H	1.396686	-0.017857	0.500071
H121	H	0.850187	-0.435400	0.061376
H122	H	1.350187	0.064600	0.561376
H123	H	1.166947	0.012425	0.433989
H124	H	1.666947	0.512425	0.933989
H125	H	1.202924	-0.481669	0.000096
H126	H	1.702924	0.018331	0.500096
N127	N	0.531878	-0.043404	0.000129
N128	N	1.031878	0.456596	0.500129
H129	H	0.494941	-0.092146	0.000135
H130	H	0.994941	0.407854	0.500135
H131	H	0.571050	-0.046019	-0.061184
H132	H	1.071050	0.453981	0.438816
H133	H	0.910211	-0.288658	0.000075
H134	H	1.410211	0.211342	0.500075
N135	N	0.625700	-0.041752	0.000114
N136	N	1.125700	0.458248	0.500114
H137	H	0.646607	-0.074573	-0.061190
H138	H	1.146607	0.425427	0.438810
H139	H	0.646617	-0.074511	0.061466
H140	H	1.146617	0.425489	0.561466
N141	N	1.183072	-0.002486	0.768824
N142	N	1.683072	0.497514	1.268824
H143	H	1.173846	0.006077	0.842669
H144	H	1.673846	0.506077	1.342669
H145	H	1.172765	-0.061485	0.750639
H146	H	1.672765	0.438515	1.250639
H147	H	0.946216	0.217235	0.755063
H148	H	1.446216	0.717235	1.255063
N149	N	0.930112	0.232141	0.552436
N150	N	1.430112	0.732141	1.052436
H151	H	0.891577	0.267900	0.601204
H152	H	1.391577	0.767900	1.101204
H153	H	0.964338	0.268947	0.509230
H154	H	1.464338	0.768947	1.009230
N155	N	0.930110	0.232139	0.447745
N156	N	1.430110	0.732139	0.947745
H157	H	0.940387	0.291163	0.429610
H158	H	1.440387	0.791163	0.929610
H159	H	0.866660	0.222393	0.429623
H160	H	1.366660	0.722393	0.929623
H161	H	0.946165	0.217216	0.245120
H162	H	1.446165	0.717216	0.745120
N163	N	1.183018	-0.002491	0.231369
N164	N	1.683018	0.497509	0.731369
H165	H	1.221562	-0.038245	0.280145
H166	H	1.721562	0.461755	0.780145
H167	H	1.148788	-0.039302	0.188190
H168	H	1.648788	0.460698	0.688190
N169	N	0.819632	-0.038347	0.000107
N170	N	1.319632	0.461653	0.500107
H171	H	0.782695	-0.087089	0.000116
H172	H	1.282695	0.412911	0.500116
H173	H	0.858807	-0.040966	-0.061203
H174	H	1.358807	0.459034	0.438797
H175	H	1.166969	0.012432	0.566210
H176	H	1.666969	0.512432	1.066210
