data_functionalizedCrystal
_audit_creation_method	'MofGen! by Chris Wilmer'
_symmetry_space_group_name_H-M	'P1'
_symmetry_Int_Tables_number	1
_symmetry_cell_setting	triclinic
loop_
_symmetry_equiv_pos_as_xyz
  x,y,z
_cell_length_a	18.215407
_cell_length_b	16.120484
_cell_length_c	18.215399
_cell_angle_alpha	92.867230
_cell_angle_beta	89.983176
_cell_angle_gamma	92.926015
loop_
_atom_site_label
_atom_site_type_symbol
_atom_site_fract_x
_atom_site_fract_y
_atom_site_fract_z
Zn1	Zn	1.110191	-0.331886	-0.430959
Zn2	Zn	1.103863	-0.471313	-0.314128
Zn3	Zn	0.987128	-0.331919	-0.307908
Zn4	Zn	0.980849	-0.471261	-0.437151
O5	O	1.045508	-0.401595	-0.372536
O6	O	1.212335	-0.350389	-0.415473
O7	O	1.088358	-0.452858	-0.210320
O8	O	1.008729	-0.215249	-0.319036
O9	O	1.207687	-0.452826	-0.329638
O10	O	1.099142	-0.215225	-0.409441
O11	O	1.002593	-0.350446	-0.205750
O12	O	0.883312	-0.350395	-0.325040
O13	O	0.998027	-0.452737	-0.539312
O14	O	0.878698	-0.452769	-0.419995
O15	O	1.093054	-0.350339	-0.534763
O16	O	1.082269	-0.587972	-0.335642
O17	O	0.991891	-0.587933	-0.426026
C18	C	0.854302	-0.401580	-0.372515
C19	C	0.772503	-0.401594	-0.372524
C20	C	1.035732	-0.618203	-0.382197
C21	C	1.031617	-0.710869	-0.386355
C22	C	0.581922	-0.454984	-0.421911
C23	C	0.505063	-0.454987	-0.421920
C24	C	0.509845	-0.348220	-0.323179
C25	C	0.586703	-0.348214	-0.323173
C26	C	0.622739	-0.401601	-0.372539
C27	C	0.469023	-0.401610	-0.372553
C28	C	0.385689	-0.401612	-0.372563
C29	C	0.706078	-0.401597	-0.372530
C30	C	1.024109	-0.880530	-0.393960
C31	C	1.067038	-0.921819	-0.351125
C32	C	1.062861	-1.016224	-0.355356
C33	C	1.028286	-0.786116	-0.389729
C34	C	1.237460	-0.401610	-0.372559
C35	C	1.319259	-0.401616	-0.372568
C36	C	1.045546	-0.401528	-0.564487
C37	C	1.045562	-0.401500	-0.646284
C38	C	1.055342	-0.184141	-0.362854
C39	C	1.059533	-0.091475	-0.358728
C40	C	1.000946	-0.348138	-0.832098
C41	C	1.000959	-0.348121	-0.908956
C42	C	1.090270	-0.454762	-0.913704
C43	C	1.090252	-0.454783	-0.836848
C44	C	1.045591	-0.401466	-0.796046
C45	C	1.045623	-0.401428	-0.949761
C46	C	1.045638	-0.401411	-1.033094
C47	C	1.045575	-0.401484	-0.712708
C48	C	1.045515	-0.401601	-0.181331
C49	C	1.045652	-0.401394	-0.099523
H50	H	0.471834	-0.498456	-0.462125
H51	H	0.619937	-0.304738	-0.282968
H52	H	0.480495	-0.304756	-0.282986
C53	C	1.138649	-0.512654	-0.797566
C54	C	1.129056	-0.501276	-0.721527
C55	C	1.173615	-0.554580	-0.685318
H56	H	1.188679	-0.500506	-0.809533
H57	H	1.125341	-0.568684	-0.812610
H58	H	1.142369	-0.445259	-0.706489
H59	H	1.079036	-0.513430	-0.709538
H60	H	1.160307	-0.610610	-0.700361
H61	H	1.223642	-0.542428	-0.697291
H62	H	1.167107	-0.546873	-0.633722
C63	C	1.120149	-0.874271	-0.298001
C64	C	1.113765	-0.788730	-0.304289
C65	C	1.162667	-0.744899	-0.255355
H66	H	1.169012	-0.888326	-0.309380
H67	H	1.108778	-0.888500	-0.249155
H68	H	1.125141	-0.774506	-0.353123
H69	H	1.064913	-0.774649	-0.292903
H70	H	1.151296	-0.759129	-0.206510
H71	H	1.211526	-0.758962	-0.266739
H72	H	1.158337	-0.686856	-0.259611
C73	C	1.138860	-0.512502	-0.958038
C74	C	1.188185	-0.465285	-1.000050
C75	C	1.232965	-0.518445	-1.040890
H76	H	1.109159	-0.548834	-0.989695
H77	H	1.165490	-0.544253	-0.925581
H78	H	1.161558	-0.433548	-1.032504
H79	H	1.217903	-0.428955	-0.968412
H80	H	1.259596	-0.550196	-1.008433
H81	H	1.203258	-0.554774	-1.072543
H82	H	1.266443	-0.486416	-1.069395
H83	H	0.984221	-0.916080	-0.433808
C84	C	0.952371	-0.290229	-0.787930
C85	C	0.913259	-0.243542	-0.835958
C86	C	0.868494	-0.190198	-0.795300
H87	H	0.982075	-0.253836	-0.756328
H88	H	0.918820	-0.322113	-0.759380
H89	H	0.946806	-0.211660	-0.864495
H90	H	0.883542	-0.279913	-0.867560
H91	H	0.834943	-0.222081	-0.766750
H92	H	0.898203	-0.153810	-0.763700
H93	H	0.841947	-0.158519	-0.827881
C94	C	0.952385	-0.290361	-0.948139
C95	C	0.903076	-0.337556	-0.994337
C96	C	0.858306	-0.284377	-1.030436
H97	H	0.982095	-0.254011	-0.976571
H98	H	0.925742	-0.258631	-0.912851
H99	H	0.929717	-0.369272	-1.029621
H100	H	0.873350	-0.373905	-0.965923
H101	H	0.831663	-0.252647	-0.995147
H102	H	0.888022	-0.248030	-1.058864
H103	H	0.824841	-0.316392	-1.061780
H104	H	0.611261	-0.498453	-0.462109
