data_functionalizedCrystal
_audit_creation_method	'MofGen! by Chris Wilmer'
_symmetry_space_group_name_H-M	'P1'
_symmetry_Int_Tables_number	1
_symmetry_cell_setting	triclinic
loop_
_symmetry_equiv_pos_as_xyz
  x,y,z
_cell_length_a	18.215407
_cell_length_b	18.215406
_cell_length_c	18.215399
_cell_angle_alpha	89.984834
_cell_angle_beta	90.020595
_cell_angle_gamma	89.999279
loop_
_atom_site_label
_atom_site_type_symbol
_atom_site_fract_x
_atom_site_fract_y
_atom_site_fract_z
Zn1	Zn	-1.125195	-0.292993	-0.416196
Zn2	Zn	-0.875195	-0.042993	-0.166196
Zn3	Zn	-0.625195	0.207007	0.083804
Zn4	Zn	-0.375195	0.457007	0.333804
Zn5	Zn	-1.125155	-0.416065	-0.293157
Zn6	Zn	-0.875155	-0.166065	-0.043157
Zn7	Zn	-0.625155	0.083935	0.206843
Zn8	Zn	-0.375155	0.333935	0.456843
Zn9	Zn	-1.002128	-0.293016	-0.293142
Zn10	Zn	-0.752128	-0.043016	-0.043142
Zn11	Zn	-0.502128	0.206984	0.206858
Zn12	Zn	-0.252128	0.456984	0.456858
Zn13	Zn	-1.002145	-0.416022	-0.416181
Zn14	Zn	-0.752145	-0.166022	-0.166181
Zn15	Zn	-0.502145	0.083978	0.083819
Zn16	Zn	-0.252145	0.333978	0.333819
O17	O	-1.063656	-0.354524	-0.354669
O18	O	-0.813656	-0.104524	-0.104669
O19	O	-0.563656	0.145476	0.145331
O20	O	-0.313656	0.395476	0.395331
O21	O	-1.228174	-0.309327	-0.399888
O22	O	-0.978174	-0.059327	-0.149888
O23	O	-0.728174	0.190673	0.100112
O24	O	-0.478174	0.440673	0.350112
O25	O	-1.108811	-0.399769	-0.190171
O26	O	-0.858811	-0.149769	0.059829
O27	O	-0.608811	0.100231	0.309829
O28	O	-0.358811	0.350231	0.559829
O29	O	-1.018462	-0.190029	-0.309465
O30	O	-0.768462	0.059971	-0.059465
O31	O	-0.518462	0.309971	0.190535
O32	O	-0.268462	0.559971	0.440535
O33	O	-1.228145	-0.399747	-0.309492
O34	O	-0.978145	-0.149747	-0.059492
O35	O	-0.728145	0.100253	0.190508
O36	O	-0.478145	0.350253	0.440508
O37	O	-1.108879	-0.190012	-0.399873
O38	O	-0.858879	0.059988	-0.149873
O39	O	-0.608879	0.309988	0.100127
O40	O	-0.358879	0.559988	0.350127
O41	O	-1.018424	-0.309366	-0.190160
O42	O	-0.768424	-0.059366	0.059840
O43	O	-0.518424	0.190634	0.309840
O44	O	-0.268424	0.440634	0.559840
O45	O	-0.899146	-0.309325	-0.309450
O46	O	-0.649146	-0.059325	-0.059450
O47	O	-0.399146	0.190675	0.190550
O48	O	-0.149146	0.440675	0.440550
O49	O	-1.018492	-0.399675	-0.519167
O50	O	-0.768492	-0.149675	-0.269167
O51	O	-0.518492	0.100325	-0.019167
O52	O	-0.268492	0.350325	0.230833
O53	O	-0.899159	-0.399697	-0.399846
O54	O	-0.649159	-0.149697	-0.149846
O55	O	-0.399159	0.100303	0.100154
O56	O	-0.149159	0.350303	0.350154
O57	O	-1.108896	-0.309286	-0.519178
O58	O	-0.858896	-0.059286	-0.269178
O59	O	-0.608896	0.190714	-0.019178
O60	O	-0.358896	0.440714	0.230822
O61	O	-1.108828	-0.519043	-0.309477
O62	O	-0.858828	-0.269043	-0.059477
O63	O	-0.608828	-0.019043	0.190523
O64	O	-0.358828	0.230957	0.440523
O65	O	-1.018454	-0.519012	-0.399861
O66	O	-0.768454	-0.269012	-0.149861
O67	O	-0.518454	-0.019012	0.100139
O68	O	-0.268454	0.230988	0.350139
C69	C	-0.872450	-0.354510	-0.354645
C70	C	-0.622450	-0.104510	-0.104645
C71	C	-0.372450	0.145490	0.145355
C72	C	-0.122450	0.395490	0.395355
C73	C	-0.790651	-0.354521	-0.354653
C74	C	-0.540651	-0.104521	-0.104653
C75	C	-0.290651	0.145479	0.145347
C76	C	-0.040651	0.395479	0.395347
C77	C	-0.602483	-0.401650	-0.401660
C78	C	-0.352483	-0.151650	-0.151660
C79	C	-0.102483	0.098350	0.098340
C80	C	0.147517	0.348350	0.348340
C81	C	-0.525624	-0.401652	-0.401669
C82	C	-0.275624	-0.151652	-0.151669
C83	C	-0.025624	0.098348	0.098331
C84	C	0.224376	0.348348	0.348331
C85	C	-0.525581	-0.307402	-0.307681
C86	C	-0.275581	-0.057402	-0.057681
C87	C	-0.025581	0.192598	0.192319
C88	C	0.224419	0.442598	0.442319
C89	C	-0.602438	-0.307397	-0.307677
C90	C	-0.352438	-0.057397	-0.057677
C91	C	-0.102438	0.192603	0.192323
C92	C	0.147562	0.442603	0.442323
C93	C	-0.640887	-0.354526	-0.354665
C94	C	-0.390887	-0.104526	-0.104665
C95	C	-0.140887	0.145474	0.145335
C96	C	0.109113	0.395474	0.395335
C97	C	-0.487171	-0.354532	-0.354678
C98	C	-0.237171	-0.104532	-0.104678
C99	C	0.012829	0.145468	0.145322
C100	C	0.262829	0.395468	0.395322
C101	C	-0.403837	-0.354533	-0.354686
C102	C	-0.153837	-0.104533	-0.104686
C103	C	0.096163	0.145467	0.145314
C104	C	0.346163	0.395467	0.395314
C105	C	-0.724226	-0.354523	-0.354658
C106	C	-0.474226	-0.104523	-0.104658
C107	C	-0.224226	0.145477	0.145342
C108	C	0.025774	0.395477	0.395342
C109	C	-1.063659	-0.545730	-0.354685
C110	C	-0.813659	-0.295730	-0.104685
C111	C	-0.563659	-0.045730	0.145315
C112	C	-0.313659	0.204270	0.395315
C113	C	-1.063727	-0.627529	-0.354717
C114	C	-0.813727	-0.377529	-0.104717
C115	C	-0.563727	-0.127529	0.145283
C116	C	-0.313727	0.122471	0.395283
C117	C	-0.255609	-0.354537	-0.354690
C118	C	-0.005609	-0.104537	-0.104690
C119	C	0.244391	0.145463	0.145310
C120	C	0.494391	0.395463	0.395310
C121	C	-0.337408	-0.354536	-0.354690
C122	C	-0.087408	-0.104536	-0.104690
C123	C	0.162592	0.145464	0.145310
C124	C	0.412592	0.395464	0.395310
C125	C	-1.063701	-0.354473	-0.546622
C126	C	-0.813701	-0.104473	-0.296622
C127	C	-0.563701	0.145527	-0.046622
C128	C	-0.313701	0.395527	0.203378
C129	C	-1.063720	-0.354452	-0.628421
C130	C	-0.813720	-0.104452	-0.378421
C131	C	-0.563720	0.145548	-0.128421
C132	C	-0.313720	0.395548	0.121579
C133	C	-1.063673	-0.162571	-0.354669
C134	C	-0.813673	0.087429	-0.104669
C135	C	-0.563673	0.337429	0.145331
C136	C	-0.313673	0.587429	0.395331
C137	C	-1.063681	-0.080772	-0.354669
C138	C	-0.813681	0.169228	-0.104669
C139	C	-0.563681	0.419228	0.145331
C140	C	-0.313681	0.669228	0.395331
C141	C	-1.016624	0.107414	-0.307621
C142	C	-0.766624	0.357414	-0.057621
C143	C	-0.516624	0.607414	0.192379
C144	C	-0.266624	0.857414	0.442379
C145	C	-1.016630	0.184273	-0.307629
C146	C	-0.766630	0.434273	-0.057629
C147	C	-0.516630	0.684273	0.192371
C148	C	-0.266630	0.934273	0.442371
C149	C	-1.110786	0.184279	-0.401770
C150	C	-0.860786	0.434279	-0.151770
C151	C	-0.610786	0.684279	0.098230
C152	C	-0.360786	0.934279	0.348230
C153	C	-1.110776	0.107422	-0.401765
C154	C	-0.860776	0.357422	-0.151765
C155	C	-0.610776	0.607422	0.098235
C156	C	-0.360776	0.857422	0.348235
C157	C	-1.063696	0.068991	-0.354685
C158	C	-0.813696	0.318991	-0.104685
C159	C	-0.563696	0.568991	0.145315
C160	C	-0.313696	0.818991	0.395315
C161	C	-1.063712	0.222707	-0.354700
C162	C	-0.813712	0.472707	-0.104700
C163	C	-0.563712	0.722707	0.145300
C164	C	-0.313712	0.972707	0.395300
C165	C	-1.063719	0.306041	-0.354710
C166	C	-0.813719	0.556041	-0.104710
C167	C	-0.563719	0.806041	0.145290
C168	C	-0.313719	1.056041	0.395290
C169	C	-1.063687	-0.014348	-0.354676
C170	C	-0.813687	0.235652	-0.104676
C171	C	-0.563687	0.485652	0.145324
C172	C	-0.313687	0.735652	0.395324
C173	C	-1.110810	-0.307342	-0.816622
C174	C	-0.860810	-0.057342	-0.566622
C175	C	-0.610810	0.192658	-0.316622
C176	C	-0.360810	0.442658	-0.066622
C177	C	-1.110819	-0.307321	-0.893481
C178	C	-0.860819	-0.057321	-0.643481
C179	C	-0.610819	0.192679	-0.393481
C180	C	-0.360819	0.442679	-0.143481
C181	C	-1.016681	-0.401447	-0.893458
C182	C	-0.766681	-0.151447	-0.643458
C183	C	-0.516681	0.098553	-0.393458
C184	C	-0.266681	0.348553	-0.143458
C185	C	-1.016669	-0.401465	-0.816600
C186	C	-0.766669	-0.151465	-0.566600
C187	C	-0.516669	0.098535	-0.316600
C188	C	-0.266669	0.348535	-0.066600
C189	C	-1.063738	-0.354413	-0.778185
C190	C	-0.813738	-0.104413	-0.528185
C191	C	-0.563738	0.145587	-0.278185
C192	C	-0.313738	0.395587	-0.028185
C193	C	-1.063759	-0.354374	-0.931901
C194	C	-0.813759	-0.104374	-0.681901
C195	C	-0.563759	0.145626	-0.431901
C196	C	-0.313759	0.395626	-0.181901
C197	C	-1.063768	-0.354352	-1.015234
C198	C	-0.813768	-0.104352	-0.765234
C199	C	-0.563768	0.145648	-0.515234
C200	C	-0.313768	0.395648	-0.265234
C201	C	-1.063728	-0.354435	-0.694846
C202	C	-0.813728	-0.104435	-0.444846
C203	C	-0.563728	0.145565	-0.194846
C204	C	-0.313728	0.395565	0.055154
C205	C	-1.063654	-0.354522	-0.163463
C206	C	-0.813654	-0.104522	0.086537
C207	C	-0.563654	0.145478	0.336537
C208	C	-0.313654	0.395478	0.586537
C209	C	-1.063777	-0.354336	-0.081664
C210	C	-0.813777	-0.104336	0.168336
C211	C	-0.563777	0.145664	0.418336
C212	C	-0.313777	0.395664	0.668336
H213	H	-0.494266	-0.269033	-0.269423
H214	H	-0.244266	-0.019033	-0.019423
H215	H	0.005734	0.230967	0.230577
H216	H	0.255734	0.480967	0.480577
O217	O	-0.970804	0.221515	-0.261945
O218	O	-0.720804	0.471515	-0.011945
O219	O	-0.470804	0.721515	0.238055
O220	O	-0.220804	0.971515	0.488055
C221	C	-0.897457	0.202756	-0.278029
C222	C	-0.647457	0.452756	-0.028029
C223	C	-0.397457	0.702756	0.221971
C224	C	-0.147457	0.952756	0.471971
H225	H	-0.895934	0.146958	-0.306315
H226	H	-0.645934	0.396958	-0.056315
H227	H	-0.395934	0.646958	0.193685
H228	H	-0.145934	0.896958	0.443685
H229	H	-0.864446	0.200119	-0.224912
H230	H	-0.614446	0.450119	0.025088
H231	H	-0.364446	0.700119	0.275088
H232	H	-0.114446	0.950119	0.525088
H233	H	-0.872682	0.246021	-0.315866
H234	H	-0.622682	0.496021	-0.065866
H235	H	-0.372682	0.746021	0.184134
H236	H	-0.122682	0.996021	0.434134
H237	H	-0.633786	-0.440023	-0.439924
H238	H	-0.383786	-0.190023	-0.189924
H239	H	-0.133786	0.059977	0.060076
H240	H	0.116214	0.309977	0.310076
O241	O	-0.488237	-0.447467	-0.447216
O242	O	-0.238237	-0.197467	-0.197216
O243	O	0.011763	0.052533	0.052784
O244	O	0.261763	0.302533	0.302784
C245	C	-0.443776	-0.494960	-0.405247
C246	C	-0.193776	-0.244960	-0.155247
C247	C	0.056224	0.005040	0.094753
C248	C	0.306224	0.255040	0.344753
H249	H	-0.432235	-0.468933	-0.349517
H250	H	-0.182235	-0.218933	-0.099517
H251	H	0.067765	0.031067	0.150483
H252	H	0.317765	0.281067	0.400483
H253	H	-0.389744	-0.504863	-0.435214
H254	H	-0.139744	-0.254863	-0.185214
H255	H	0.110256	-0.004863	0.064786
H256	H	0.360256	0.245137	0.314786
H257	H	-0.473394	-0.549485	-0.397074
H258	H	-0.223394	-0.299485	-0.147074
H259	H	0.026606	-0.049485	0.102926
H260	H	0.276606	0.200515	0.352926
H261	H	-0.978286	0.076126	-0.269287
H262	H	-0.728286	0.326126	-0.019287
H263	H	-0.478286	0.576126	0.230713
H264	H	-0.228286	0.826126	0.480713
O265	O	-1.156499	-0.261700	-0.779191
O266	O	-0.906499	-0.011700	-0.529191
O267	O	-0.656499	0.238300	-0.279191
O268	O	-0.406499	0.488300	-0.029191
C269	C	-1.146383	-0.271792	-0.703111
C270	C	-0.896383	-0.021792	-0.453111
C271	C	-0.646383	0.228208	-0.203111
C272	C	-0.396383	0.478208	0.046889
H273	H	-1.122283	-0.328590	-0.692604
H274	H	-0.872283	-0.078590	-0.442604
H275	H	-0.622283	0.171410	-0.192604
H276	H	-0.372283	0.421410	0.057396
H277	H	-1.201502	-0.266801	-0.673912
H278	H	-0.951502	-0.016801	-0.423912
H279	H	-0.701502	0.233199	-0.173912
H280	H	-0.451502	0.483199	0.076088
H281	H	-1.107186	-0.228147	-0.681297
H282	H	-0.857186	0.021853	-0.431297
H283	H	-0.607186	0.271853	-0.181297
H284	H	-0.357186	0.521853	0.068703
O285	O	-1.156616	-0.261574	-0.930705
O286	O	-0.906616	-0.011574	-0.680705
O287	O	-0.656616	0.238426	-0.430705
O288	O	-0.406616	0.488426	-0.180705
C289	C	-1.198140	-0.220038	-0.880314
C290	C	-0.948140	0.029962	-0.630314
C291	C	-0.698140	0.279962	-0.380314
C292	C	-0.448140	0.529962	-0.130314
H293	H	-1.200678	-0.250197	-0.825528
H294	H	-0.950678	-0.000197	-0.575528
H295	H	-0.700678	0.249803	-0.325528
H296	H	-0.450678	0.499803	-0.075528
H297	H	-1.256127	-0.212186	-0.902533
H298	H	-1.006127	0.037814	-0.652533
H299	H	-0.756127	0.287814	-0.402533
H300	H	-0.506127	0.537814	-0.152533
H301	H	-1.171194	-0.164146	-0.872134
H302	H	-0.921194	0.085854	-0.622134
H303	H	-0.671194	0.335854	-0.372134
H304	H	-0.421194	0.585854	-0.122134
H305	H	-0.633708	-0.269018	-0.269408
H306	H	-0.383708	-0.019018	-0.019408
H307	H	-0.133708	0.230982	0.230592
H308	H	0.116292	0.480982	0.480592
O309	O	-1.156498	0.221726	-0.447426
O310	O	-0.906498	0.471726	-0.197426
O311	O	-0.656498	0.721726	0.052574
O312	O	-0.406498	0.971726	0.302574
C313	C	-1.146404	0.297802	-0.437352
C314	C	-0.896404	0.547802	-0.187352
C315	C	-0.646404	0.797802	0.062648
C316	C	-0.396404	1.047802	0.312648
H317	H	-1.122286	0.308291	-0.380557
H318	H	-0.872286	0.558291	-0.130557
H319	H	-0.622286	0.808291	0.119443
H320	H	-0.372286	1.058291	0.369443
H321	H	-1.201534	0.327004	-0.442349
H322	H	-0.951534	0.577004	-0.192349
H323	H	-0.701534	0.827004	0.057651
H324	H	-0.451534	1.077004	0.307651
H325	H	-1.107230	0.319627	-0.481003
H326	H	-0.857230	0.569627	-0.231003
H327	H	-0.607230	0.819627	0.018997
H328	H	-0.357230	1.069627	0.268997
O329	O	-1.156573	0.070207	-0.447510
O330	O	-0.906573	0.320207	-0.197510
O331	O	-0.656573	0.570207	0.052490
O332	O	-0.406573	0.820207	0.302490
C333	C	-1.198121	0.120605	-0.489074
C334	C	-0.948121	0.370605	-0.239074
C335	C	-0.698121	0.620605	0.010926
C336	C	-0.448121	0.870605	0.260926
H337	H	-1.200673	0.175386	-0.458936
H338	H	-0.950673	0.425386	-0.208936
H339	H	-0.700673	0.675386	0.041064
H340	H	-0.450673	0.925386	0.291064
H341	H	-1.256101	0.098389	-0.496929
H342	H	-1.006101	0.348389	-0.246929
H343	H	-0.756101	0.598389	0.003071
H344	H	-0.506101	0.848389	0.253071
H345	H	-1.171185	0.128794	-0.544963
H346	H	-0.921185	0.378794	-0.294963
H347	H	-0.671185	0.628794	-0.044963
H348	H	-0.421185	0.878794	0.205037
O349	O	-0.971034	-0.447131	-0.930890
O350	O	-0.721034	-0.197131	-0.680890
O351	O	-0.471034	0.052869	-0.430890
O352	O	-0.221034	0.302869	-0.180890
C353	C	-0.981125	-0.437011	-1.006969
C354	C	-0.731125	-0.187011	-0.756969
C355	C	-0.481125	0.062989	-0.506969
C356	C	-0.231125	0.312989	-0.256969
H357	H	-1.037923	-0.412910	-1.017479
H358	H	-0.787923	-0.162910	-0.767479
H359	H	-0.537923	0.087090	-0.517479
H360	H	-0.287923	0.337090	-0.267479
H361	H	-0.976135	-0.492129	-1.036175
H362	H	-0.726135	-0.242129	-0.786175
H363	H	-0.476135	0.007871	-0.536175
H364	H	-0.226135	0.257871	-0.286175
H365	H	-0.937479	-0.397814	-1.028773
H366	H	-0.687479	-0.147814	-0.778773
H367	H	-0.437479	0.102186	-0.528773
H368	H	-0.187479	0.352186	-0.278773
H369	H	-0.978332	-0.439795	-0.785304
H370	H	-0.728332	-0.189795	-0.535304
H371	H	-0.478332	0.060205	-0.285304
H372	H	-0.228332	0.310205	-0.035304
