data_functionalizedCrystal
_audit_creation_method	'MofGen! by Chris Wilmer'
_symmetry_space_group_name_H-M	'P1'
_symmetry_Int_Tables_number	1
_symmetry_cell_setting	triclinic
loop_
_symmetry_equiv_pos_as_xyz
  x,y,z
_cell_length_a	16.992695
_cell_length_b	16.956995
_cell_length_c	8.140239
_cell_angle_alpha	89.994135
_cell_angle_beta	89.997290
_cell_angle_gamma	96.638653
loop_
_atom_site_label
_atom_site_type_symbol
_atom_site_fract_x
_atom_site_fract_y
_atom_site_fract_z
O1	O	-0.032362	1.060097	-0.136719
O2	O	-0.059776	0.829687	-0.136692
O3	O	0.068014	0.943969	-0.136720
O4	O	-0.160152	0.945816	-0.136691
O5	O	0.068015	0.943962	0.136507
O6	O	-0.059775	0.829680	0.136535
O7	O	-0.032361	1.060091	0.136508
Zn8	Zn	-0.046068	0.944884	0.179902
Zn9	Zn	-0.046069	0.944893	-0.180086
O10	O	-0.160151	0.945809	0.136536
C11	C	-0.061179	0.800065	-0.000075
C12	C	-0.065352	0.711811	-0.000066
C13	C	-0.096570	0.214500	-0.000123
C14	C	-0.092643	0.297425	-0.000123
C15	C	-0.018931	0.343815	-0.000119
C16	C	0.050860	0.307278	-0.000134
C17	C	0.046932	0.224354	-0.000146
C18	C	0.000510	0.592349	-0.000093
C19	C	0.004433	0.675278	-0.000075
C20	C	-0.139071	0.665419	-0.000067
C21	C	-0.142992	0.582495	-0.000070
C22	C	-0.073202	0.545964	-0.000093
N23	N	-0.014915	0.428578	-0.000113
N24	N	-0.077218	0.461203	-0.000111
C25	C	-0.189210	0.948189	-0.000075
C26	C	-0.275795	0.955280	-0.000065
C27	C	-0.330469	0.886865	-0.000057
C28	C	-0.411824	0.893532	-0.000079
C29	C	-0.438502	0.968615	-0.000096
C30	C	-0.383821	1.037034	-0.000108
C31	C	-0.302468	1.030367	-0.000099
C32	C	-0.680309	0.996250	-0.000137
C33	C	-0.761668	1.002913	-0.000141
C34	C	-0.789666	0.859409	-0.000115
C35	C	-0.708310	0.852748	-0.000096
C36	C	-0.653636	0.921168	-0.000117
N37	N	-0.521659	0.975431	-0.000112
N38	N	-0.570480	0.914351	-0.000112
C39	C	0.097073	0.941589	-0.000113
C40	C	0.183657	0.934498	-0.000134
C41	C	-0.030958	1.089712	-0.000113
C42	C	-0.026785	1.177967	-0.000133
N43	N	-0.046066	0.944884	0.425585
N44	N	-0.046064	0.944900	-0.425769
H45	H	-0.149470	0.327165	-0.000130
O46	O	-0.627178	1.062690	-0.000441
C47	C	-0.579266	1.063125	-0.141929
H48	H	-0.611721	1.024414	-0.240825
H49	H	-0.565969	1.126510	-0.189440
H50	H	-0.521368	1.038805	-0.109933
O51	O	-0.409636	1.110015	0.000087
C52	C	-0.381260	1.152028	0.141605
H53	H	-0.326177	1.126783	0.188795
H54	H	-0.365664	1.217438	0.109763
H55	H	-0.428992	1.145837	0.240691
H56	H	0.064462	0.713048	-0.000081
H57	H	0.110878	0.345056	-0.000141
O58	O	-0.168195	0.169473	-0.000419
C59	C	-0.210885	0.186767	-0.141904
H60	H	-0.167819	0.212453	-0.240803
H61	H	-0.246013	0.130004	-0.189414
H62	H	-0.253344	0.231827	-0.109907
O63	O	-0.206882	0.700870	0.000229
C64	C	-0.251508	0.677581	0.141708
H65	H	-0.210611	0.657662	0.240616
H66	H	-0.281476	0.729875	0.189208
H67	H	-0.298523	0.626377	0.109705
H68	H	0.103758	0.194611	-0.000157
H69	H	0.057338	0.562616	-0.000107
H70	H	-0.308755	0.825724	-0.000024
O71	O	-0.787450	1.075914	-0.000254
C72	C	-0.721750	1.134874	-0.000240
H73	H	-0.667858	1.109088	-0.051947
H74	H	-0.735464	1.186974	-0.079596
H75	H	-0.708799	1.156238	0.130830
H76	H	-0.257952	1.086078	-0.000112
O77	O	-0.464827	0.826993	0.000014
C78	C	-0.423835	0.759294	0.000006
H79	H	-0.361742	0.775579	0.051733
H80	H	-0.457135	0.711041	0.079347
H81	H	-0.419482	0.736518	-0.131065
H82	H	-0.203017	0.544728	-0.000078
O83	O	-0.682531	0.779751	-0.000151
C84	C	-0.748235	0.720794	-0.000103
H85	H	-0.802119	0.746579	-0.051850
H86	H	-0.734515	0.668685	-0.079407
H87	H	-0.761200	0.699444	0.130983
H88	H	-0.834189	0.803706	-0.000100
