data_functionalizedCrystal
_audit_creation_method	'MofGen! by Chris Wilmer'
_symmetry_space_group_name_H-M	'P1'
_symmetry_Int_Tables_number	1
_symmetry_cell_setting	triclinic
loop_
_symmetry_equiv_pos_as_xyz
  x,y,z
_cell_length_a	14.586319
_cell_length_b	9.065218
_cell_length_c	16.109296
_cell_angle_alpha	84.237729
_cell_angle_beta	90.002940
_cell_angle_gamma	89.996417
loop_
_atom_site_label
_atom_site_type_symbol
_atom_site_fract_x
_atom_site_fract_y
_atom_site_fract_z
O1	O	0.076227	-1.957446	-0.121906
O2	O	0.576227	-1.457446	0.378094
O3	O	0.076227	-1.527919	-0.131905
O4	O	0.576227	-1.027919	0.368095
O5	O	0.076237	-1.754486	-0.005965
O6	O	0.576237	-1.254486	0.494035
O7	O	0.076217	-1.730880	-0.247846
O8	O	0.576217	-1.230880	0.252154
O9	O	-0.076244	-1.754470	-0.005963
O10	O	0.423756	-1.254470	0.494037
O11	O	-0.076254	-1.527904	-0.131903
O12	O	0.423746	-1.027904	0.368097
O13	O	-0.076254	-1.957431	-0.121904
O14	O	0.423746	-1.457431	0.378096
Cu15	Cu	-0.090176	-1.742666	-0.126903
Cu16	Cu	0.409824	-1.242666	0.373097
Cu17	Cu	0.090150	-1.742684	-0.126905
Cu18	Cu	0.590150	-1.242684	0.373095
O19	O	-0.076263	-1.730864	-0.247844
O20	O	0.423737	-1.230864	0.252156
C21	C	-0.000013	-1.472948	-0.130943
C22	C	0.499987	-0.972948	0.369057
C23	C	-0.000012	-1.309175	-0.128069
C24	C	0.499988	-0.809175	0.371931
N25	N	-0.217008	-1.742663	-0.126901
N26	N	0.282992	-1.242663	0.373099
C27	C	0.000001	-1.753523	0.025019
C28	C	0.500001	-1.253523	0.525019
C29	C	0.000014	-1.750660	0.117336
C30	C	0.500014	-1.250660	0.617336
C31	C	-0.452010	-1.843020	-0.071154
C32	C	0.047990	-1.343020	0.428846
C33	C	-0.547992	-1.843024	-0.071152
C34	C	-0.047992	-1.343024	0.428848
C35	C	-0.548010	-1.642331	-0.182651
C36	C	-0.048010	-1.142331	0.317349
C37	C	-0.452030	-1.642321	-0.182648
C38	C	0.047970	-1.142321	0.317352
C39	C	-0.404033	-1.742674	-0.126901
C40	C	0.095967	-1.242674	0.373099
C41	C	-0.595994	-1.742688	-0.126901
C42	C	-0.095994	-1.242688	0.373099
C43	C	-0.700061	-1.742692	-0.126900
C44	C	-0.200061	-1.242692	0.373100
C45	C	-0.299959	-1.742668	-0.126901
C46	C	0.200041	-1.242668	0.373099
N47	N	0.216981	-1.742698	-0.126901
N48	N	0.716981	-1.242698	0.373099
C49	C	-0.000012	-2.012402	-0.122866
C50	C	0.499988	-1.512402	0.377134
C51	C	-0.000006	-2.176175	-0.125739
C52	C	0.499994	-1.676175	0.374261
C53	C	0.083120	-1.741325	0.416476
C54	C	0.583120	-1.241325	0.916476
C55	C	0.083124	-1.744035	0.329735
C56	C	0.583124	-1.244035	0.829735
C57	C	-0.083119	-1.744039	0.329723
C58	C	0.416881	-1.244039	0.829723
C59	C	-0.083122	-1.741339	0.416463
C60	C	0.416878	-1.241339	0.916463
C61	C	-0.000000	-1.739975	0.459837
C62	C	0.500000	-1.239975	0.959837
C63	C	0.000007	-1.745385	0.286356
C64	C	0.500007	-1.245385	0.786356
C65	C	0.000011	-1.748323	0.192308
C66	C	0.500011	-1.248323	0.692308
C67	C	-0.000004	-1.737039	0.553891
C68	C	0.499996	-1.237039	1.053891
C69	C	-0.000019	-1.731829	0.721173
C70	C	0.499981	-1.231829	1.221173
C71	C	-0.000007	-1.734700	0.628856
C72	C	0.499993	-1.234700	1.128856
H73	H	-0.412933	-1.924732	-0.025760
H74	H	0.087067	-1.424732	0.474240
O75	O	-0.594778	-1.545005	-0.236776
O76	O	-0.094778	-1.045005	0.263224
C77	C	-0.742647	-1.456022	-0.286167
C78	C	-0.242647	-0.956022	0.213833
C79	C	-0.689800	-1.566344	-0.224836
C80	C	-0.189800	-1.066344	0.275164
H81	H	-0.819481	-1.473215	-0.276522
H82	H	-0.319481	-0.973215	0.223478
H83	H	-0.723841	-1.475209	-0.352927
H84	H	-0.223841	-0.975209	0.147073
H85	H	-0.723732	-1.337883	-0.274416
H86	H	-0.223732	-0.837883	0.225584
H87	H	-0.708686	-1.684526	-0.236510
H88	H	-0.208686	-1.184526	0.263490
H89	H	-0.708610	-1.547027	-0.158096
H90	H	-0.208610	-1.047027	0.341904
H91	H	-0.587052	-1.924734	-0.025757
H92	H	-0.087052	-1.424734	0.474243
H93	H	0.150809	-1.745136	0.294435
H94	H	0.650809	-1.245136	0.794435
H95	H	-0.412964	-1.560599	-0.228044
H96	H	0.087036	-1.060599	0.271956
O97	O	0.163943	-1.740050	0.458485
O98	O	0.663943	-1.240050	0.958485
C99	C	0.328833	-1.740180	0.449328
C100	C	0.828833	-1.240180	0.949328
C101	C	0.237365	-1.741677	0.401657
C102	C	0.737365	-1.241677	0.901657
H103	H	0.388219	-1.741464	0.403401
H104	H	0.888219	-1.241464	0.903401
H105	H	0.333072	-1.842110	0.496760
H106	H	0.833072	-1.342110	0.996760
H107	H	0.332917	-1.635742	0.483116
H108	H	0.832917	-1.135742	0.983116
H109	H	0.233219	-1.846047	0.367819
H110	H	0.733219	-1.346047	0.867819
H111	H	0.233164	-1.639677	0.354272
H112	H	0.733164	-1.139677	0.854272
H113	H	-0.150794	-1.745148	0.294397
H114	H	0.349206	-1.245148	0.794397
H115	H	-0.150813	-1.740244	0.451768
H116	H	0.349187	-1.240244	0.951768
