data_functionalizedCrystal
_audit_creation_method	'MofGen! by Chris Wilmer'
_symmetry_space_group_name_H-M	'P1'
_symmetry_Int_Tables_number	1
_symmetry_cell_setting	triclinic
loop_
_symmetry_equiv_pos_as_xyz
  x,y,z
_cell_length_a	19.288859
_cell_length_b	10.723024
_cell_length_c	17.766277
_cell_angle_alpha	90.000320
_cell_angle_beta	90.007461
_cell_angle_gamma	83.800798
loop_
_atom_site_label
_atom_site_type_symbol
_atom_site_fract_x
_atom_site_fract_y
_atom_site_fract_z
O1	O	0.922366	0.155614	0.062607
O2	O	0.720241	0.176620	0.062605
O3	O	0.825966	-0.015557	0.062603
O4	O	0.816641	0.347791	0.062609
O5	O	0.825952	-0.015551	-0.062585
O6	O	0.720227	0.176627	-0.062583
O7	O	0.922352	0.155621	-0.062581
Cu8	Cu	0.821288	0.166124	-0.074013
Cu9	Cu	0.821305	0.166116	0.074037
O10	O	0.816627	0.347798	-0.062580
C11	C	0.694353	0.175949	0.000011
C12	C	0.617236	0.173924	0.000010
C13	C	0.053840	0.272985	0.000013
C14	C	0.126299	0.274899	0.000017
C15	C	0.170272	0.162138	0.000013
C16	C	0.141781	0.047455	0.000026
C17	C	0.069323	0.045544	0.000029
C18	C	0.290990	0.078044	-0.043850
C19	C	0.363447	0.079959	-0.043858
C20	C	0.393756	0.168026	0.000006
C21	C	0.351600	0.254198	0.043868
C22	C	0.279142	0.252288	0.043872
C23	C	0.248841	0.164197	0.000010
C24	C	0.500808	0.284777	0.000003
C25	C	0.573268	0.286686	0.000012
C26	C	0.588749	0.059238	0.000013
C27	C	0.516290	0.057333	0.000012
C28	C	0.472323	0.170105	0.000004
C29	C	0.825280	-0.062039	0.000010
C30	C	0.823250	-0.200551	0.000013
C31	C	0.882408	-0.276778	0.000014
C32	C	0.880311	-0.419937	0.000017
C33	C	0.948240	0.156292	0.000015
C34	C	1.025357	0.158317	0.000021
C35	C	0.817313	0.394280	0.000015
C36	C	0.819343	0.532791	0.000018
N37	N	0.821281	0.166129	-0.178143
C38	C	0.863801	0.241575	-0.782430
C39	C	0.863794	0.241587	-0.703628
C40	C	0.821312	0.166102	-0.664232
C41	C	0.778819	0.090624	-0.703645
C42	C	0.778822	0.090624	-0.782445
C43	C	0.818853	0.053602	-0.539390
C44	C	0.818855	0.053599	-0.460591
C45	C	0.821299	0.166105	-0.421186
C46	C	0.823755	0.278615	-0.460589
C47	C	0.823757	0.278614	-0.539390
C48	C	0.821303	0.166095	-0.578787
C49	C	0.863777	0.241598	-0.296337
C50	C	0.863766	0.241613	-0.217534
C51	C	0.778794	0.090639	-0.217552
C52	C	0.778802	0.090635	-0.296354
C53	C	0.821297	0.166113	-0.335741
N54	N	0.821317	0.166101	0.178167
H55	H	0.149495	0.368278	0.000003
N56	N	0.384272	0.349198	0.091187
H57	H	0.410684	0.403583	0.057594
H58	H	0.417421	0.304079	0.128692
N59	N	0.947400	-0.506684	0.000010
H60	H	0.936392	-0.596655	0.000011
H61	H	0.975356	-0.490655	0.046419
H62	H	0.934608	-0.236054	0.000010
N63	N	0.826339	0.399983	-0.418098
H64	H	0.827880	0.471256	-0.455017
H65	H	0.869393	0.393623	-0.385373
H66	H	0.397765	0.009798	-0.079577
H67	H	0.768697	-0.401718	0.000011
H68	H	0.771050	-0.241275	0.000017
N69	N	0.909658	0.322935	-0.824912
H70	H	0.936579	0.370734	-0.787988
H71	H	0.879693	0.384093	-0.857627
H72	H	0.244821	0.322450	0.079587
H73	H	0.825755	0.370224	-0.571469
H74	H	0.898389	0.303052	-0.671540
N75	N	0.816222	-0.067746	-0.581895
H76	H	0.773151	-0.061436	-0.614597
H77	H	0.814700	-0.138962	-0.544937
N78	N	0.453384	0.406405	0.000003
H79	H	0.462615	0.456448	0.046413
H80	H	0.403179	0.387693	-0.000027
N81	N	0.909605	0.323013	-0.338822
H82	H	0.896332	0.413865	-0.325113
H83	H	0.903146	0.311451	-0.394708
N84	N	0.909589	0.323022	-0.175030
H85	H	0.936510	0.370829	-0.211943
H86	H	0.943277	0.268448	-0.142329
H87	H	0.266319	0.006323	-0.079570
H88	H	0.816860	-0.038014	-0.428515
H89	H	0.744200	0.029185	-0.185477
H90	H	0.744210	0.029171	-0.328436
H91	H	0.744228	0.029167	-0.671564
H92	H	0.596457	0.380066	0.000012
N93	N	0.733006	0.009203	-0.824950
H94	H	0.706091	-0.038618	-0.788039
H95	H	0.763008	-0.051937	-0.857632
N96	N	0.636167	-0.062386	0.000018
H97	H	0.686391	-0.043778	0.000017
H98	H	0.626876	-0.112384	-0.046389
H99	H	0.018047	0.364814	0.000009
H100	H	0.493099	-0.036043	0.000014
H101	H	0.177589	-0.044356	0.000025
H102	H	0.046134	-0.047835	0.000036
