data_functionalizedCrystal
_audit_creation_method	'MofGen! by Chris Wilmer'
_symmetry_space_group_name_H-M	'P1'
_symmetry_Int_Tables_number	1
_symmetry_cell_setting	triclinic
loop_
_symmetry_equiv_pos_as_xyz
  x,y,z
_cell_length_a	9.198806
_cell_length_b	14.971486
_cell_length_c	14.971486
_cell_angle_alpha	96.385871
_cell_angle_beta	90.003393
_cell_angle_gamma	90.001013
loop_
_atom_site_label
_atom_site_type_symbol
_atom_site_fract_x
_atom_site_fract_y
_atom_site_fract_z
O1	O	0.120726	-1.186944	0.116561
O2	O	0.120766	-0.926544	0.130520
O3	O	0.120734	-1.063724	-0.006660
O4	O	0.120757	-1.049765	0.253740
O5	O	-0.121051	-1.063713	-0.006660
O6	O	-0.121019	-0.926533	0.130519
O7	O	-0.121059	-1.186933	0.116560
Cu8	Cu	-0.143116	-1.056732	0.123540
Cu9	Cu	0.142823	-1.056745	0.123540
O10	O	-0.121028	-1.049754	0.253740
C11	C	-0.000122	-0.893214	0.129895
C12	C	-0.000107	-0.793917	0.128024
N13	N	-0.344230	-1.056730	0.123539
C14	C	-0.000158	-1.063094	-0.039985
C15	C	-0.000156	-1.061223	-0.139282
C16	C	-0.416440	-1.114329	0.065689
C17	C	-0.583853	-1.114343	0.065686
N18	N	0.343937	-1.056755	0.123534
C19	C	-0.000168	-1.220263	0.117185
C20	C	-0.000174	-1.319561	0.119056
C21	C	-0.000102	-0.736692	0.208614
C22	C	-0.000124	-0.643392	0.206850
C23	C	-0.000140	-0.607320	0.124497
C24	C	-0.000150	-0.664552	0.043902
C25	C	-0.000138	-0.757850	0.045666
C26	C	-0.000170	-0.470090	0.040231
C27	C	-0.000179	-0.376786	0.038466
C28	C	-0.000156	-0.355632	0.201415
C29	C	-0.000144	-0.448930	0.203179
C30	C	-0.000151	-0.506156	0.122584
C31	C	-0.000169	-1.141812	-0.196507
C32	C	-0.000154	-1.140049	-0.289807
C33	C	-0.000137	-1.057696	-0.325879
C34	C	-0.000119	-0.977101	-0.268646
C35	C	-0.000123	-0.978865	-0.175349
C36	C	-0.000113	-0.973430	-0.463109
C37	C	-0.000111	-0.971665	-0.556413
C38	C	-0.000144	-1.134614	-0.577567
C39	C	-0.000149	-1.136378	-0.484269
C40	C	-0.000134	-1.055782	-0.427043
C41	C	-0.000133	-1.050384	0.287065
C42	C	-0.000125	-1.052254	0.386362
H43	H	-0.354325	-1.163630	0.016160
O44	O	-0.418098	-0.997821	0.182658
C45	C	-0.318452	-0.944278	0.236463
H46	H	-0.209916	-0.943056	0.199871
H47	H	-0.362554	-0.872908	0.250158
H48	H	-0.302313	-0.973570	0.302866
H49	H	-0.000193	-1.208874	-0.167145
O50	O	-0.000294	-0.895198	-0.407429
C51	C	-0.125538	-0.891328	-0.352851
H52	H	-0.167294	-0.962329	-0.348061
H53	H	-0.097376	-0.858086	-0.282765
H54	H	-0.213217	-0.850441	-0.383592
H55	H	-0.000118	-0.596802	0.272474
O56	O	-0.000071	-0.813314	-0.032702
C57	C	-0.000120	-0.761472	-0.105768
H58	H	0.045649	-0.691862	-0.083141
H59	H	0.070074	-0.795825	-0.162240
H60	H	-0.116120	-0.754809	-0.131007
H61	H	-0.645950	-1.163660	0.016161
H62	H	-0.593975	-1.007442	0.173067
O63	O	0.000042	-0.299959	0.279650
C64	C	0.125275	-0.245366	0.283512
H65	H	0.167002	-0.240567	0.212508
H66	H	0.097111	-0.175285	0.316760
H67	H	0.212977	-0.276099	0.324389
H68	H	-0.000088	-0.766054	0.275675
H69	H	-0.000120	-0.904606	-0.585780
H70	H	-0.000112	-0.913240	-0.128756
O71	O	-0.000190	-0.483824	0.283254
C72	C	-0.000152	-0.413311	0.354012
H73	H	-0.045938	-0.349906	0.328876
H74	H	-0.070339	-0.432877	0.411501
H75	H	0.115846	-0.400131	0.378875
H76	H	-0.000095	-0.910047	-0.298024
H77	H	-0.000152	-1.200238	-0.624165
H78	H	-0.000194	-0.347419	-0.028593
H79	H	-0.000178	-0.516682	-0.025399
H80	H	-0.000184	-0.635175	-0.023152
O81	O	-0.000242	-1.218417	-0.345267
C82	C	-0.000235	-1.291481	-0.293423
H83	H	-0.046007	-1.268847	-0.223818
H84	H	-0.070449	-1.347946	-0.327781
H85	H	0.115752	-1.316733	-0.286747
O86	O	-0.000108	-1.216452	-0.449375
C87	C	-0.000156	-1.287210	-0.519888
H88	H	0.045629	-1.262077	-0.583293
H89	H	0.070026	-1.344704	-0.500322
H90	H	-0.116157	-1.312066	-0.533068
