data_functionalizedCrystal
_audit_creation_method	'MofGen! by Chris Wilmer'
_symmetry_space_group_name_H-M	'P1'
_symmetry_Int_Tables_number	1
_symmetry_cell_setting	triclinic
loop_
_symmetry_equiv_pos_as_xyz
  x,y,z
_cell_length_a	15.944551
_cell_length_b	10.723024
_cell_length_c	9.798715
_cell_angle_alpha	89.998022
_cell_angle_beta	90.000805
_cell_angle_gamma	83.983304
loop_
_atom_site_label
_atom_site_type_symbol
_atom_site_fract_x
_atom_site_fract_y
_atom_site_fract_z
O1	O	-1.115445	-0.160932	0.113345
O2	O	-0.871009	-0.180773	0.113379
O3	O	-0.998865	0.010795	0.113356
O4	O	-0.987588	-0.352500	0.113368
O5	O	-0.998855	0.010795	-0.113626
O6	O	-0.870999	-0.180773	-0.113604
O7	O	-1.115435	-0.160931	-0.113637
Zn8	Zn	-0.993215	-0.170852	-0.149659
Zn9	Zn	-0.993228	-0.170853	0.149400
O10	O	-0.987579	-0.352500	-0.113615
C11	C	-0.998039	0.057284	-0.000133
C12	C	-0.995584	0.195808	-0.000128
C13	C	-0.839705	-0.179949	-0.000108
C14	C	-0.746445	-0.177480	-0.000095
C15	C	-1.146738	-0.161755	-0.000147
C16	C	-1.239999	-0.164225	-0.000151
C17	C	-0.530875	-0.052834	-0.000126
C18	C	-0.470191	-0.110716	0.111790
C19	C	-0.575693	-0.173012	-0.000112
C20	C	-0.470204	-0.110744	-0.111996
C21	C	-0.410756	-0.168688	-0.000133
C22	C	-0.516238	-0.230927	0.111897
C23	C	-0.516257	-0.230938	-0.111990
C24	C	-0.455591	-0.288907	-0.000047
C25	C	-0.670710	-0.175500	-0.000098
C26	C	-0.315741	-0.166210	-0.000137
C27	C	-0.988404	-0.398989	-0.000122
C28	C	-0.990859	-0.537512	-0.000118
N29	N	-0.993213	-0.170851	-0.353758
C30	C	-1.067126	0.271694	-0.000136
C31	C	-1.064590	0.414865	-0.000131
C32	C	-1.046896	-0.090065	-0.421545
C33	C	-1.046910	-0.090061	-0.578707
N34	N	-0.993237	-0.170844	0.353500
H35	H	-0.563637	0.046904	0.000009
Cl36	Cl	-1.164594	0.208367	-0.000141
Cl37	Cl	-1.117653	0.016998	-0.331519
H38	H	-0.947259	-0.240007	-0.412075
Cl39	Cl	-1.159153	0.515533	-0.000152
Cl40	Cl	-0.896293	0.361828	-0.000119
H41	H	-1.092874	-0.020901	-0.637001
Cl42	Cl	-0.898116	0.259135	-0.000101
H43	H	-0.449793	-0.059886	0.206404
H44	H	-0.449822	-0.059891	-0.206609
H45	H	-0.423004	-0.388748	0.000019
Cl46	Cl	-0.547547	-0.309346	0.258139
H47	H	-0.536675	-0.281726	-0.206609
Cl48	Cl	-0.922276	-0.277643	-0.556514
