data_functionalizedCrystal
_audit_creation_method	'MofGen! by Chris Wilmer'
_symmetry_space_group_name_H-M	'P1'
_symmetry_Int_Tables_number	1
_symmetry_cell_setting	triclinic
loop_
_symmetry_equiv_pos_as_xyz
  x,y,z
_cell_length_a	11.026607
_cell_length_b	10.489741
_cell_length_c	10.065875
_cell_angle_alpha	98.879541
_cell_angle_beta	79.302338
_cell_angle_gamma	96.562595
loop_
_atom_site_label
_atom_site_type_symbol
_atom_site_fract_x
_atom_site_fract_y
_atom_site_fract_z
O1	O	1.632468	0.520484	-0.113500
O2	O	2.132468	1.020484	0.386500
O3	O	1.278630	0.459543	-0.113501
O4	O	1.778630	0.959543	0.386499
O5	O	1.463599	0.306188	-0.113492
O6	O	1.963599	0.806188	0.386508
O7	O	1.447499	0.673839	-0.113509
O8	O	1.947499	1.173839	0.386491
O9	O	1.428329	0.335581	0.113495
O10	O	1.928329	0.835581	0.613495
O11	O	1.243360	0.488935	0.113486
O12	O	1.743360	0.988935	0.613486
O13	O	1.597198	0.549877	0.113487
O14	O	2.097198	1.049877	0.613487
Zn15	Zn	1.414679	0.524073	0.149526
Zn16	Zn	1.914679	1.024073	0.649526
Zn17	Zn	1.461149	0.485347	-0.149540
Zn18	Zn	1.961149	0.985347	0.350460
O19	O	1.412229	0.703232	0.113478
O20	O	1.912229	1.203232	0.613478
C21	C	1.215686	0.462996	-0.000008
C22	C	1.715686	0.962996	0.499992
C23	C	1.080679	0.429482	-0.000008
C24	C	1.580679	0.929482	0.499992
C25	C	1.007682	0.522021	-0.000013
C26	C	1.507682	1.022021	0.499987
C27	C	0.868146	0.487384	-0.000013
C28	C	1.368146	0.987384	0.499987
C29	C	1.444748	0.273085	0.000000
C30	C	1.944748	0.773085	0.500000
C31	C	1.441110	0.130655	-0.000002
C32	C	1.941110	0.630655	0.499998
C33	C	1.323420	0.036624	-0.000012
C34	C	1.823420	0.536624	0.499988
C35	C	1.361626	-0.028776	0.111904
C36	C	1.861626	0.471224	0.611904
C37	C	1.396427	-0.057724	-0.111887
C38	C	1.896427	0.442276	0.388113
C39	C	1.479350	0.067142	0.112007
C40	C	1.979350	0.567142	0.612007
C41	C	1.514151	0.038187	-0.111885
C42	C	2.014151	0.538187	0.388115
C43	C	1.552438	-0.027164	0.000059
C44	C	2.052438	0.472836	0.500059
C45	C	1.660143	0.546423	-0.000009
C46	C	2.160143	1.046423	0.499991
C47	C	1.795151	0.579937	-0.000018
C48	C	2.295151	1.079937	0.499982
C49	C	1.431080	0.736334	-0.000017
C50	C	1.931080	1.236334	0.499983
C51	C	1.434720	0.878763	-0.000024
C52	C	1.934720	1.378763	0.499976
N53	N	1.382974	0.550504	0.353630
N54	N	1.882974	1.050504	0.853630
N55	N	1.492864	0.458908	-0.353644
N56	N	1.992864	0.958908	0.146356
C57	C	1.450110	0.494533	0.421412
C58	C	1.950110	0.994533	0.921412
C59	C	1.425718	0.514887	0.578578
C60	C	1.925718	1.014887	1.078578
H61	H	0.835951	0.684814	-0.000014
H62	H	1.335951	1.184814	0.499986
F63	F	0.814817	0.350304	0.000002
F64	F	1.314817	0.850304	0.500002
H65	H	1.578609	0.067924	-0.206507
H66	H	2.078609	0.567924	0.293493
F67	F	1.350527	-0.128561	-0.235552
F68	F	1.850527	0.371439	0.264448
F69	F	1.326974	0.597215	0.654799
F70	F	1.826974	1.097215	1.154799
F71	F	1.027344	0.292409	0.000007
F72	F	1.527344	0.792409	0.500007
F73	F	1.591807	0.376832	0.570138
F74	F	2.091807	0.876832	1.070138
F75	F	1.284235	0.632827	0.429856
F76	F	1.784235	1.132827	0.929856
H77	H	1.226637	0.065005	0.000100
H78	H	1.726637	0.565005	0.500100
F79	F	1.061015	0.659095	-0.000014
F80	F	1.561015	1.159095	0.499986
F81	F	1.277323	-0.067614	0.235577
F82	F	1.777323	0.432386	0.735577
H83	H	1.514387	0.121184	0.206730
H84	H	2.014387	0.621184	0.706730
F85	F	1.679018	-0.063911	0.000136
F86	F	2.179018	0.436089	0.500136
H87	H	1.525641	0.431539	0.363091
H88	H	2.025641	0.931539	0.863091
