data_functionalizedCrystal
_audit_creation_method	'MofGen! by Chris Wilmer'
_symmetry_space_group_name_H-M	'P1'
_symmetry_Int_Tables_number	1
_symmetry_cell_setting	triclinic
loop_
_symmetry_equiv_pos_as_xyz
  x,y,z
_cell_length_a	19.805407
_cell_length_b	16.625546
_cell_length_c	19.805399
_cell_angle_alpha	89.972133
_cell_angle_beta	89.980427
_cell_angle_gamma	90.022468
loop_
_atom_site_label
_atom_site_type_symbol
_atom_site_fract_x
_atom_site_fract_y
_atom_site_fract_z
Zn1	Zn	1.034754	-0.321020	-0.382718
Zn2	Zn	1.034677	-0.455857	-0.269529
Zn3	Zn	0.921569	-0.321043	-0.269543
Zn4	Zn	0.921540	-0.455815	-0.382676
O5	O	0.978135	-0.388434	-0.326117
O6	O	1.129461	-0.338915	-0.367716
O7	O	1.019652	-0.438001	-0.174815
O8	O	0.936628	-0.208207	-0.284579
O9	O	1.129404	-0.437980	-0.284556
O10	O	1.019784	-0.208191	-0.367729
O11	O	0.936553	-0.338953	-0.174825
O12	O	0.826848	-0.338912	-0.284538
O13	O	0.936579	-0.437907	-0.477398
O14	O	0.826827	-0.437928	-0.367657
O15	O	1.019756	-0.338874	-0.477429
O16	O	1.019625	-0.568684	-0.284515
O17	O	0.936504	-0.568653	-0.367644
C18	C	0.802279	-0.388418	-0.326095
C19	C	0.727047	-0.388431	-0.326102
C20	C	0.691710	-0.440067	-0.369311
C21	C	0.621021	-0.440068	-0.369321
C22	C	0.585671	-0.388437	-0.326117
C23	C	0.621014	-0.336796	-0.282905
C24	C	0.691701	-0.336791	-0.282899
C25	C	0.335941	-0.336814	-0.282927
C26	C	0.265248	-0.336825	-0.282935
C27	C	0.265261	-0.440091	-0.369349
C28	C	0.335948	-0.440086	-0.369343
C29	C	0.371284	-0.388442	-0.326134
C30	C	0.447932	-0.388440	-0.326125
C31	C	0.509024	-0.388443	-0.326122
C32	C	0.978071	-0.597925	-0.326088
C33	C	0.978105	-0.687546	-0.326099
C34	C	0.978224	-1.015721	-0.326169
C35	C	0.978189	-0.924413	-0.326152
C36	C	0.978164	-0.851636	-0.326134
C37	C	0.978130	-0.760322	-0.326117
C38	C	1.154678	-0.388450	-0.326139
C39	C	1.229910	-0.388457	-0.326149
C40	C	0.978173	-0.388383	-0.502660
C41	C	0.978189	-0.388361	-0.577892
C42	C	0.978218	-0.178125	-0.326160
C43	C	0.978253	-0.088504	-0.326178
C44	C	1.021501	-0.336792	-0.613253
C45	C	1.021508	-0.336769	-0.683941
C46	C	0.978206	-0.388319	-0.719267
C47	C	0.934889	-0.439890	-0.683901
C48	C	0.934880	-0.439909	-0.613214
C49	C	0.934928	-0.439815	-0.968974
C50	C	0.934942	-0.439794	-1.039667
C51	C	1.021556	-0.336675	-1.039702
C52	C	1.021546	-0.336694	-0.969015
C53	C	0.978227	-0.388262	-0.933655
C54	C	0.978219	-0.388285	-0.857006
C55	C	0.978217	-0.388300	-0.795914
C56	C	0.978136	-0.388426	-0.150261
C57	C	0.978251	-0.388221	-0.075029
H58	H	0.592226	-0.294754	-0.247730
C59	C	0.730591	-0.496862	-0.416837
C60	C	0.720842	-0.588516	-0.411179
C61	C	0.759722	-0.645311	-0.458709
C62	C	0.808351	-0.610452	-0.511896
C63	C	0.818102	-0.518793	-0.517556
C64	C	0.779223	-0.461998	-0.470027
H65	H	0.684842	-0.614325	-0.371805
H66	H	0.752503	-0.713163	-0.454518
H67	H	0.837132	-0.652495	-0.547080
H68	H	0.854102	-0.492984	-0.556930
H69	H	0.786442	-0.394146	-0.474217
H70	H	0.236481	-0.482139	-0.404534
H71	H	0.899604	-0.481894	-0.584423
H72	H	0.236469	-0.294776	-0.247753
C73	C	1.069150	-0.280040	-0.722839
C74	C	1.116783	-0.223338	-0.683983
C75	C	1.164425	-0.166604	-0.722880
C76	C	1.164433	-0.166571	-0.800633
C77	C	1.116799	-0.223275	-0.839494
C78	C	1.069157	-0.280009	-0.800596
H79	H	1.116778	-0.223361	-0.626422
H80	H	1.199687	-0.124628	-0.694113
H81	H	1.199701	-0.124572	-0.829427
H82	H	1.116803	-0.223252	-0.897055
H83	H	1.033894	-0.321985	-0.829364
C84	C	0.887303	-0.496498	-1.078527
C85	C	0.887319	-0.496479	-1.156280
C86	C	0.839684	-0.553179	-1.195141
C87	C	0.792032	-0.609900	-1.156248
C88	C	0.792014	-0.609922	-1.078490
C89	C	0.839650	-0.553221	-1.039630
H90	H	0.922596	-0.454489	-1.185074
H91	H	0.839697	-0.553163	-1.252702
H92	H	0.756769	-0.651873	-1.185015
H93	H	0.756738	-0.651912	-1.049696
H94	H	0.839636	-0.553237	-0.982068
C95	C	0.582153	-0.496872	-0.416852
C96	C	0.591845	-0.588524	-0.411183
C97	C	0.552978	-0.645330	-0.458718
C98	C	0.504420	-0.610484	-0.511921
C99	C	0.494726	-0.518827	-0.517593
C100	C	0.533593	-0.462021	-0.470058
H101	H	0.627792	-0.614323	-0.371796
H102	H	0.560155	-0.713181	-0.454519
H103	H	0.475649	-0.652536	-0.547109
H104	H	0.458779	-0.493028	-0.556979
H105	H	0.526416	-0.394171	-0.474257
C106	C	1.069135	-0.280086	-0.574397
C107	C	1.039824	-0.216794	-0.525808
C108	C	1.087458	-0.160083	-0.486955
C109	C	1.164402	-0.166665	-0.496690
C110	C	1.193716	-0.229959	-0.545281
C111	C	1.146082	-0.286670	-0.584135
H112	H	0.982862	-0.211919	-0.518600
H113	H	1.065757	-0.113229	-0.450984
H114	H	1.199663	-0.124685	-0.467929
H115	H	1.250678	-0.234834	-0.552490
H116	H	1.167783	-0.333525	-0.620105
H117	H	0.364726	-0.482132	-0.404522
C118	C	0.374804	-0.280031	-0.235379
C119	C	0.335919	-0.223258	-0.187842
C120	C	0.374786	-0.166481	-0.140283
C121	C	0.452539	-0.166477	-0.140262
C122	C	0.491429	-0.223252	-0.187801
C123	C	0.452562	-0.280029	-0.235359
H124	H	0.278357	-0.223259	-0.187856
H125	H	0.345997	-0.124452	-0.105092
H126	H	0.481311	-0.124448	-0.105056
H127	H	0.548991	-0.223252	-0.187786
H128	H	0.481351	-0.322058	-0.270551
C129	C	0.730576	-0.279991	-0.235369
C130	C	0.720883	-0.188339	-0.241035
C131	C	0.759759	-0.131534	-0.193507
C132	C	0.808327	-0.166380	-0.140313
C133	C	0.818022	-0.258037	-0.134645
C134	C	0.779147	-0.314843	-0.182173
H135	H	0.684928	-0.162540	-0.280415
H136	H	0.752581	-0.063683	-0.197704
H137	H	0.837105	-0.124329	-0.105130
H138	H	0.853978	-0.283837	-0.095265
H139	H	0.786325	-0.382693	-0.177976
C140	C	1.069203	-0.279941	-1.078600
C141	C	1.069216	-0.279909	-1.156353
C142	C	1.116863	-0.223179	-1.195248
C143	C	1.164496	-0.166480	-1.156390
C144	C	1.164485	-0.166509	-1.078633
C145	C	1.116838	-0.223239	-1.039737
H146	H	1.033953	-0.321883	-1.185122
H147	H	1.116871	-0.223158	-1.252809
H148	H	1.199767	-0.124484	-1.185183
H149	H	1.199747	-0.124535	-1.049864
H150	H	1.116830	-0.223261	-0.982176
H151	H	0.899665	-0.481817	-0.940193
C152	C	0.887256	-0.496597	-0.722757
C153	C	0.887267	-0.496583	-0.800510
C154	C	0.839634	-0.553294	-0.839365
C155	C	0.791991	-0.610018	-0.800466
C156	C	0.791978	-0.610033	-0.722708
C157	C	0.839611	-0.553323	-0.683854
H158	H	0.922538	-0.454591	-0.829309
H159	H	0.839644	-0.553282	-0.896926
H160	H	0.756730	-0.651998	-0.829228
H161	H	0.756707	-0.652026	-0.693909
H162	H	0.839601	-0.553335	-0.626293
H163	H	1.056809	-0.294719	-0.940256
