data_functionalizedCrystal
_audit_creation_method	'MofGen! by Chris Wilmer'
_symmetry_space_group_name_H-M	'P1'
_symmetry_Int_Tables_number	1
_symmetry_cell_setting	triclinic
loop_
_symmetry_equiv_pos_as_xyz
  x,y,z
_cell_length_a	13.032721
_cell_length_b	13.033293
_cell_length_c	13.033109
_cell_angle_alpha	74.800007
_cell_angle_beta	105.143326
_cell_angle_gamma	105.184121
loop_
_atom_site_label
_atom_site_type_symbol
_atom_site_fract_x
_atom_site_fract_y
_atom_site_fract_z
Zn1	Zn	-0.311713	1.665132	-0.842278
Zn2	Zn	0.188287	2.165132	-0.342278
Zn3	Zn	-0.471371	1.624457	-0.682627
Zn4	Zn	0.028629	2.124457	-0.182627
Zn5	Zn	-0.311733	1.464934	-0.642082
Zn6	Zn	0.188267	1.964934	-0.142082
Zn7	Zn	-0.511805	1.464897	-0.842154
Zn8	Zn	-0.011805	1.964897	-0.342154
O9	O	-0.401656	1.554855	-0.752285
O10	O	0.098344	2.054855	-0.252285
O11	O	-0.315962	1.810297	-0.838120
O12	O	0.184038	2.310297	-0.338120
O13	O	-0.433282	1.586289	-0.526704
O14	O	0.066718	2.086289	-0.026704
O15	O	-0.161182	1.508529	-0.651722
O16	O	0.338818	2.008529	-0.151722
O17	O	-0.433262	1.780413	-0.720825
O18	O	0.066738	2.280413	-0.220825
O19	O	-0.161168	1.655613	-0.798805
O20	O	0.338832	2.155613	-0.298805
O21	O	-0.315996	1.469088	-0.496916
O22	O	0.184004	1.969088	0.003084
O23	O	-0.355203	1.314369	-0.651602
O24	O	0.144797	1.814369	-0.151602
O25	O	-0.502176	1.508466	-0.992715
O26	O	-0.002176	2.008466	-0.492715
O27	O	-0.502195	1.314342	-0.798594
O28	O	-0.002195	1.814342	-0.298594
O29	O	-0.355169	1.655578	-0.992806
O30	O	0.144831	2.155578	-0.492806
O31	O	-0.627283	1.586253	-0.720705
O32	O	-0.127283	2.086253	-0.220705
O33	O	-0.656990	1.469025	-0.837909
O34	O	-0.156990	1.969025	-0.337909
C35	C	-0.433090	1.275317	-0.720685
C36	C	0.066910	1.775317	-0.220685
C37	C	-0.446566	1.155729	-0.707195
C38	C	0.053434	1.655729	-0.207195
C39	C	-0.394649	1.117199	-0.759329
C40	C	0.105351	1.617199	-0.259329
C41	C	-0.408577	0.993599	-0.745387
C42	C	0.091423	1.493599	-0.245387
C43	C	-0.681171	1.523253	-0.783720
C44	C	-0.181171	2.023253	-0.283720
C45	C	-0.800742	1.509836	-0.797215
C46	C	-0.300742	2.009836	-0.297215
C47	C	-0.839317	1.561920	-0.745297
C48	C	-0.339317	2.061920	-0.245297
C49	C	-0.962899	1.548054	-0.759243
C50	C	-0.462899	2.048054	-0.259243
C51	C	-0.121048	1.586612	-0.720755
C52	C	0.378952	2.086612	-0.220755
C53	C	-0.001470	1.600145	-0.707318
C54	C	0.498530	2.100145	-0.207318
C55	C	-0.433181	1.586555	-1.032886
C56	C	0.066819	2.086555	-0.532886
C57	C	-0.446615	1.600063	-1.152462
C58	C	0.053385	2.100063	-0.652462
C59	C	-0.370100	1.835485	-0.784009
C60	C	0.129900	2.335485	-0.284009
C61	C	-0.356653	1.955073	-0.797528
C62	C	0.143347	2.455073	-0.297528
C63	C	-0.394573	1.548097	-1.191034
C64	C	0.105427	2.048097	-0.691034
C65	C	-0.408457	1.562057	-1.314621
C66	C	0.091543	2.062057	-0.814621
C67	C	-0.370169	1.523350	-0.472774
C68	C	0.129831	2.023350	0.027226
C69	C	-0.356408	1.510084	-0.353188
C70	C	0.143592	2.010084	0.146812
H71	H	-0.301884	1.013586	-0.852480
H72	H	0.198116	1.513586	-0.352480
H73	H	-0.339887	1.175716	-0.814279
H74	H	0.160113	1.675716	-0.314279
H75	H	-0.859209	1.454985	-0.851993
H76	H	-0.359209	1.954985	-0.351993
H77	H	-0.463336	0.935084	-0.690427
H78	H	0.036664	1.435084	-0.190427
O79	O	-0.519094	1.078227	-0.634390
O80	O	-0.019094	1.578227	-0.134390
H81	H	-0.603208	1.092263	-0.664602
H82	H	-0.103208	1.592263	-0.164602
O83	O	-0.761886	1.634613	-0.672764
O84	O	-0.261886	2.134613	-0.172764
H85	H	-0.676970	1.634104	-0.673200
H86	H	-0.176970	2.134104	-0.173200
O87	O	-0.321938	1.475473	-1.113587
O88	O	0.178062	1.975473	-0.613587
H89	H	-0.285934	1.439525	-1.160641
H90	H	0.214066	1.939525	-0.660641
H91	H	-0.463295	1.616885	-1.373090
H92	H	0.036705	2.116885	-0.873090
O93	O	-0.283753	1.437468	-1.275752
O94	O	0.216247	1.937468	-0.775752
H95	H	-0.314091	1.353346	-1.289770
H96	H	0.185909	1.853346	-0.789770
O97	O	-1.040327	1.475373	-0.831795
O98	O	-0.540327	1.975373	-0.331795
H99	H	-1.125243	1.475876	-0.831354
H100	H	-0.625243	1.975876	-0.331354
O101	O	-0.924044	1.672821	-0.634759
O102	O	-0.424044	2.172821	-0.134759
H103	H	-0.839127	1.672307	-0.635186
H104	H	-0.339127	2.172307	-0.135186
H105	H	-0.501449	1.654887	-1.210934
H106	H	-0.001449	2.154887	-0.710934
