data_functionalizedCrystal
_audit_creation_method	'MofGen! by Chris Wilmer'
_symmetry_space_group_name_H-M	'P1'
_symmetry_Int_Tables_number	1
_symmetry_cell_setting	triclinic
loop_
_symmetry_equiv_pos_as_xyz
  x,y,z
_cell_length_a	19.188905
_cell_length_b	19.188925
_cell_length_c	18.266242
_cell_angle_alpha	89.993996
_cell_angle_beta	89.983837
_cell_angle_gamma	83.138552
loop_
_atom_site_label
_atom_site_type_symbol
_atom_site_fract_x
_atom_site_fract_y
_atom_site_fract_z
O1	O	0.926159	0.087086	-0.061001
O2	O	1.259492	0.420419	0.272332
O3	O	1.592825	0.753752	0.605666
O4	O	0.722845	0.098838	-0.060976
O5	O	1.056178	0.432172	0.272357
O6	O	1.389511	0.765505	0.605691
O7	O	0.830371	-0.008694	-0.060985
O8	O	1.163704	0.324639	0.272348
O9	O	1.497038	0.657972	0.605682
O10	O	0.818633	0.194618	-0.060992
O11	O	1.151966	0.527952	0.272341
O12	O	1.485299	0.861285	0.605675
O13	O	0.830353	-0.008700	0.060777
O14	O	1.163686	0.324633	0.394110
O15	O	1.497019	0.657967	0.727444
O16	O	0.722827	0.098833	0.060786
O17	O	1.056160	0.432166	0.394119
O18	O	1.389493	0.765499	0.727453
O19	O	0.926141	0.087080	0.060761
O20	O	1.259474	0.420414	0.394094
O21	O	1.592807	0.753747	0.727428
Zn22	Zn	0.824481	0.092956	0.080106
Zn23	Zn	1.157814	0.426289	0.413439
Zn24	Zn	1.491147	0.759622	0.746773
Zn25	Zn	0.824505	0.092963	-0.080321
Zn26	Zn	1.157838	0.426296	0.253013
Zn27	Zn	1.491171	0.759630	0.586346
O28	O	0.818614	0.194613	0.060770
O29	O	1.151948	0.527946	0.394103
O30	O	1.485281	0.861280	0.727437
C31	C	0.696824	0.098458	-0.000092
C32	C	1.030158	0.431791	0.333242
C33	C	1.363491	0.765125	0.666575
C34	C	0.619319	0.097324	-0.000082
C35	C	0.952652	0.430657	0.333251
C36	C	1.285986	0.763991	0.666585
C37	C	0.829982	-0.034708	-0.000105
C38	C	1.163316	0.298625	0.333229
C39	C	1.496649	0.631958	0.666562
C40	C	0.828843	-0.112213	-0.000106
C41	C	1.162176	0.221120	0.333227
C42	C	1.495510	0.554454	0.666561
C43	C	0.884308	-0.673988	-0.000131
C44	C	1.217641	-0.340655	0.333202
C45	C	1.550974	-0.007321	0.666535
C46	C	0.885384	-0.601165	-0.000125
C47	C	1.218718	-0.267832	0.333209
C48	C	1.552051	0.065502	0.666542
C49	C	0.822291	-0.556225	-0.000117
C50	C	1.155625	-0.222891	0.333216
C51	C	1.488958	0.110442	0.666550
C52	C	0.758117	-0.584113	-0.000097
C53	C	1.091451	-0.250780	0.333236
C54	C	1.424784	0.082554	0.666569
C55	C	0.757043	-0.656935	-0.000096
C56	C	1.090376	-0.323602	0.333237
C57	C	1.423709	0.009732	0.666570
N58	N	0.776621	-0.435538	-0.041556
N59	N	1.109954	-0.102205	0.291777
N60	N	1.443288	0.231128	0.625111
N61	N	0.777646	-0.366361	-0.041558
N62	N	1.110979	-0.033028	0.291775
N63	N	1.444313	0.300306	0.625108
C64	C	0.825526	-0.336816	-0.000118
C65	C	1.158859	-0.003483	0.333215
C66	C	1.492192	0.329851	0.666549
N67	N	0.872352	-0.379063	0.041316
N68	N	1.205685	-0.045729	0.374649
N69	N	1.539018	0.287604	0.707982
N70	N	0.871328	-0.448247	0.041315
N71	N	1.204662	-0.114913	0.374648
N72	N	1.537995	0.218420	0.707981
C73	C	0.823450	-0.477261	-0.000118
C74	C	1.156783	-0.143927	0.333216
C75	C	1.490116	0.189406	0.666549
C76	C	0.890863	-0.229973	-0.000126
C77	C	1.224196	0.103361	0.333208
C78	C	1.557529	0.436694	0.666541
C79	C	0.891937	-0.157148	-0.000115
C80	C	1.225270	0.176185	0.333219
C81	C	1.558603	0.509519	0.666552
C82	C	0.764668	-0.140097	-0.000095
C83	C	1.098001	0.193236	0.333239
C84	C	1.431334	0.526569	0.666572
C85	C	0.763596	-0.212921	-0.000098
C86	C	1.096929	0.120412	0.333235
C87	C	1.430262	0.453746	0.666568
C88	C	0.826695	-0.257855	-0.000117
C89	C	1.160029	0.075479	0.333216
C90	C	1.493362	0.408812	0.666549
C91	C	0.582937	0.096783	-0.066456
C92	C	0.916270	0.430116	0.266877
C93	C	1.249604	0.763449	0.600210
C94	C	0.510113	0.095710	-0.066465
C95	C	0.843447	0.429043	0.266868
C96	C	1.176780	0.762376	0.600201
C97	C	0.473676	0.095164	-0.000096
C98	C	0.807010	0.428497	0.333237
C99	C	1.140343	0.761831	0.666570
C100	C	0.510066	0.095710	0.066287
C101	C	0.843400	0.429043	0.399620
C102	C	1.176733	0.762376	0.732953
C103	C	0.582888	0.096790	0.066294
C104	C	0.916221	0.430123	0.399627
C105	C	1.249554	0.763456	0.732961
N106	N	0.364650	0.053733	0.049297
N107	N	0.697983	0.387066	0.382630
N108	N	1.031316	0.720400	0.715964
N109	N	0.295473	0.052706	0.049286
N110	N	0.628806	0.386039	0.382619
N111	N	0.962139	0.719372	0.715952
C112	C	0.254270	0.091911	-0.000114
C113	C	0.587603	0.425245	0.333219
C114	C	0.920936	0.758578	0.666553
N115	N	0.284858	0.132175	-0.049513
N116	N	0.618192	0.465508	0.283820
N117	N	0.951525	0.798841	0.617154
N118	N	0.354042	0.133199	-0.049504
N119	N	0.687376	0.466533	0.283829
N120	N	1.020709	0.799866	0.617163
C121	C	0.394714	0.093993	-0.000097
C122	C	0.728047	0.427327	0.333237
C123	C	1.061381	0.760660	0.666570
C124	C	0.138924	0.090207	-0.066503
C125	C	0.472257	0.423541	0.266831
C126	C	0.805591	0.756874	0.600164
C127	C	0.066099	0.089139	-0.066509
C128	C	0.399432	0.422472	0.266824
C129	C	0.732765	0.755805	0.600158
C130	C	0.066054	0.089132	0.066245
C131	C	0.399387	0.422465	0.399578
C132	C	0.732721	0.755798	0.732912
C133	C	0.138877	0.090207	0.066249
C134	C	0.472210	0.423541	0.399583
C135	C	0.805544	0.756874	0.732916
C136	C	0.175308	0.090742	-0.000126
C137	C	0.508642	0.424075	0.333207
C138	C	0.841975	0.757409	0.666540
C139	C	0.952161	0.087461	-0.000125
C140	C	1.285494	0.420794	0.333208
C141	C	1.618828	0.754127	0.666542
C142	C	1.029666	0.088594	-0.000139
C143	C	1.363000	0.421928	0.333194
C144	C	1.696333	0.755261	0.666527
C145	C	0.819003	0.220627	-0.000112
C146	C	1.152336	0.553960	0.333221
C147	C	1.485670	0.887293	0.666555
C148	C	0.820142	0.298131	-0.000116
C149	C	1.153475	0.631465	0.333218
C150	C	1.486809	0.964798	0.666551
N151	N	0.824469	0.092950	0.189593
N152	N	1.157803	0.426284	0.522926
N153	N	1.491136	0.759617	0.856259
N154	N	0.824521	0.092963	-0.189808
N155	N	1.157855	0.426296	0.143526
N156	N	1.491188	0.759629	0.476859
C157	C	0.872098	0.045358	0.227898
C158	C	1.205431	0.378691	0.561231
C159	C	1.538764	0.712025	0.894564
C160	C	0.872102	0.045355	0.304543
C161	C	1.205435	0.378688	0.637876
C162	C	1.538769	0.712021	0.971209
C163	C	0.824485	0.092956	0.342880
C164	C	1.157818	0.426289	0.676213
C165	C	1.491152	0.759622	1.009546
C166	C	0.776848	0.140552	0.304566
C167	C	1.110181	0.473885	0.637899
C168	C	1.443515	0.807218	0.971232
C169	C	0.776840	0.140549	0.227922
C170	C	1.110173	0.473882	0.561256
C171	C	1.443507	0.807216	0.894589
N172	N	0.815408	0.154764	0.463211
N173	N	1.148741	0.488098	0.796544
N174	N	1.482075	0.821431	1.129877
N175	N	0.815420	0.154765	0.536019
N176	N	1.148753	0.488098	0.869352
N177	N	1.482086	0.821431	1.202685
C178	C	0.824504	0.092966	0.573802
C179	C	1.157838	0.426299	0.907135
C180	C	1.491171	0.759633	1.240469
N181	N	0.833591	0.031165	0.536027
N182	N	1.166925	0.364498	0.869360
N183	N	1.500258	0.697831	1.202694
N184	N	0.833583	0.031165	0.463212
N185	N	1.166916	0.364498	0.796545
N186	N	1.500250	0.697831	1.129879
C187	C	0.824488	0.092964	0.425987
C188	C	1.157821	0.426297	0.759320
C189	C	1.491154	0.759630	1.092653
C190	C	0.872140	0.045366	0.695214
C191	C	1.205473	0.378699	1.028547
C192	C	1.538807	0.712033	1.361881
C193	C	0.872140	0.045362	0.771860
C194	C	1.205473	0.378695	1.105194
C195	C	1.538806	0.712029	1.438527
C196	C	0.776889	0.140565	0.771882
C197	C	1.110222	0.473898	1.105215
C198	C	1.443556	0.807232	1.438549
C199	C	0.776886	0.140563	0.695237
C200	C	1.110219	0.473896	1.028571
C201	C	1.443553	0.807230	1.361904
C202	C	0.824515	0.092964	0.656908
C203	C	1.157849	0.426298	0.990241
C204	C	1.491182	0.759631	1.323574
H205	H	0.935689	-0.710569	-0.000143
H206	H	1.269022	-0.377236	0.333191
H207	H	1.602355	-0.043902	0.666524
H208	H	0.738076	0.179308	0.335784
H209	H	1.071410	0.512641	0.669117
H210	H	1.404743	0.845975	1.002450
C211	C	0.469984	0.095109	0.139293
C212	C	0.803318	0.428442	0.472626
C213	C	1.136651	0.761775	0.805960
N214	N	0.439794	0.094658	0.194284
N215	N	0.773128	0.427991	0.527617
N216	N	1.106461	0.761324	0.860950
C217	C	0.924526	-0.006999	0.653049
C218	C	1.257860	0.326334	0.986382
C219	C	1.591193	0.659668	1.319716
N220	N	0.963983	-0.046442	0.621293
N221	N	1.297316	0.286891	0.954626
N222	N	1.630650	0.620224	1.287959
H223	H	0.036387	0.088692	0.120284
H224	H	0.369720	0.422025	0.453617
H225	H	0.703054	0.755359	0.786951
H226	H	0.910922	0.006603	0.803049
H227	H	1.244255	0.339936	1.136382
H228	H	1.577589	0.673270	1.469715
H229	H	0.738116	0.179320	0.803096
H230	H	1.071449	0.512653	1.136429
H231	H	1.404782	0.845987	1.469762
H232	H	0.944190	-0.134450	-0.000123
H233	H	1.277523	0.198883	0.333211
H234	H	1.610857	0.532217	0.666544
C235	C	0.724541	0.192969	0.653100
C236	C	1.057874	0.526303	0.986434
C237	C	1.391208	0.859636	1.319767
N238	N	0.685128	0.232460	0.621363
N239	N	1.018461	0.565793	0.954696
N240	N	1.351794	0.899126	1.288030
C241	C	0.924485	-0.007009	0.185740
C242	C	1.257818	0.326325	0.519073
C243	C	1.591151	0.659658	0.852406
N244	N	0.963941	-0.046454	0.153985
N245	N	1.297274	0.286879	0.487319
N246	N	1.630608	0.620213	0.820652
C247	C	0.693007	-0.243590	-0.000090
C248	C	1.026341	0.089743	0.333243
C249	C	1.359674	0.423076	0.666577
N250	N	0.639837	-0.266690	-0.000083
N251	N	0.973170	0.066643	0.333250
N252	N	1.306504	0.399977	0.666584
H253	H	0.168500	0.090644	0.120299
H254	H	0.501834	0.423977	0.453632
H255	H	0.835167	0.757311	0.786965
H256	H	0.612595	0.097218	-0.120505
H257	H	0.945928	0.430551	0.212828
H258	H	1.279261	0.763884	0.546162
C259	C	0.955974	-0.570489	-0.000149
C260	C	1.289308	-0.237156	0.333185
C261	C	1.622641	0.096177	0.666518
N262	N	1.009143	-0.547386	-0.000169
N263	N	1.342476	-0.214053	0.333164
N264	N	1.675810	0.119280	0.666497
C265	C	0.470086	0.095109	-0.139485
C266	C	0.803419	0.428442	0.193848
C267	C	1.136753	0.761776	0.527181
N268	N	0.439940	0.094655	-0.194484
N269	N	0.773273	0.427988	0.138849
N270	N	1.106606	0.761321	0.472183
C271	C	0.924506	-0.006996	0.346686
C272	C	1.257839	0.326338	0.680020
C273	C	1.591172	0.659671	1.013353
N274	N	0.963979	-0.046423	0.378427
N275	N	1.297312	0.286910	0.711760
N276	N	1.630646	0.620243	1.045093
C277	C	0.622910	0.097380	0.139314
C278	C	0.956243	0.430713	0.472648
C279	C	1.289576	0.764046	0.805981
N280	N	0.653056	0.097821	0.194314
N281	N	0.986389	0.431155	0.527648
N282	N	1.319722	0.764488	0.860981
H283	H	0.706747	-0.547518	-0.000089
H284	H	1.040080	-0.214185	0.333244
H285	H	1.373413	0.119149	0.666578
C286	C	0.724473	0.192937	0.185786
C287	C	1.057807	0.526270	0.519119
C288	C	1.391140	0.859603	0.852452
N289	N	0.685041	0.232407	0.154047
N290	N	1.018375	0.565741	0.487381
N291	N	1.351708	0.899074	0.820714
H292	H	0.704790	-0.679634	-0.000082
H293	H	1.038123	-0.346301	0.333251
H294	H	1.371456	-0.012967	0.666585
H295	H	0.942242	-0.266560	-0.000141
H296	H	1.275576	0.066773	0.333193
H297	H	1.608909	0.400107	0.666526
H298	H	0.713296	-0.103508	-0.000082
H299	H	1.046630	0.229826	0.333251
H300	H	1.379963	0.563159	0.666585
C301	C	0.178999	0.090808	-0.139517
C302	C	0.512332	0.424141	0.193816
C303	C	0.845666	0.757474	0.527150
N304	N	0.209181	0.091263	-0.194512
N305	N	0.542515	0.424596	0.138821
N306	N	0.875848	0.757929	0.472155
H307	H	0.036477	0.088702	-0.120561
H308	H	0.369810	0.422035	0.212772
H309	H	0.703144	0.755369	0.546105
