data_functionalizedCrystal
_audit_creation_method	'MofGen! by Chris Wilmer'
_symmetry_space_group_name_H-M	'P1'
_symmetry_Int_Tables_number	1
_symmetry_cell_setting	triclinic
loop_
_symmetry_equiv_pos_as_xyz
  x,y,z
_cell_length_a	13.033290
_cell_length_b	12.759399
_cell_length_c	12.759393
_cell_angle_alpha	90.030906
_cell_angle_beta	97.213189
_cell_angle_gamma	97.183203
loop_
_atom_site_label
_atom_site_type_symbol
_atom_site_fract_x
_atom_site_fract_y
_atom_site_fract_z
Zn1	Zn	-1.597809	0.214446	-0.798470
Zn2	Zn	-1.597699	0.390176	-0.622775
Zn3	Zn	-1.423032	0.236787	-0.600441
Zn4	Zn	-1.423023	0.412374	-0.776061
O5	O	-1.510391	0.313446	-0.699437
O6	O	-1.744041	0.219118	-0.793889
O7	O	-1.574487	0.369888	-0.472786
O8	O	-1.446266	0.086796	-0.626742
O9	O	-1.743961	0.348225	-0.664806
O10	O	-1.574674	0.070383	-0.772233
O11	O	-1.446160	0.257194	-0.456377
O12	O	-1.276784	0.278719	-0.605012
O13	O	-1.446251	0.386059	-0.926060
O14	O	-1.276777	0.407722	-0.734039
O15	O	-1.574665	0.240643	-0.942524
O16	O	-1.574478	0.540148	-0.643077
O17	O	-1.446144	0.556457	-0.755696
C18	C	-1.238860	0.348054	-0.664671
C19	C	-1.122698	0.362885	-0.649823
C20	C	-1.510483	0.039401	-0.699496
C21	C	-1.510523	-0.077381	-0.699521
C22	C	-0.950892	0.321034	-0.691833
C23	C	-1.070952	0.305708	-0.707178
C24	C	-0.782982	0.278695	-0.734330
C25	C	-0.899144	0.263865	-0.749179
C26	C	-1.510327	0.586421	-0.699405
C27	C	-1.510395	0.703189	-0.699438
C28	C	-1.510469	0.313335	-0.973480
C29	C	-1.510502	0.313288	-1.090261
C30	C	-1.577295	0.749515	-0.640884
C31	C	-1.577362	0.859230	-0.640928
C32	C	-1.443620	0.876287	-0.758082
C33	C	-1.443559	0.766572	-0.758044
C34	C	-1.577373	0.237558	-1.153698
C35	C	-1.577390	0.237510	-1.263425
C36	C	-1.443664	0.388932	-1.246267
C37	C	-1.443642	0.388974	-1.136542
C38	C	-1.510373	0.313473	-0.426467
C39	C	-1.510542	0.313198	-0.309713
H40	H	-0.906313	0.381320	-0.631371
H41	H	-1.389081	0.728852	-0.805731
H42	H	-1.389232	0.450555	-1.283963
H43	H	-1.115527	0.245408	-0.767634
O44	O	-0.952269	0.191792	-0.821190
C45	C	-0.925655	0.090427	-0.795054
H46	H	-0.895539	0.088837	-0.707310
H47	H	-0.997499	0.029427	-0.813313
H48	H	-0.862409	0.071050	-0.843404
O49	O	-1.378794	0.462681	-1.074973
C50	C	-1.401582	0.564480	-1.104699
H51	H	-1.485075	0.559136	-1.145561
H52	H	-1.392549	0.617557	-1.031371
H53	H	-1.345551	0.599063	-1.161200
H54	H	-1.389204	0.927906	-0.805795
H55	H	-1.631811	0.175927	-1.116020
O56	O	-1.069487	0.434940	-0.577837
C57	C	-1.006348	0.510853	-0.629523
H58	H	-1.039346	0.513253	-0.716448
H59	H	-1.004977	0.591838	-0.591215
H60	H	-0.923666	0.488857	-0.622700
H61	H	-1.631718	0.697910	-0.593166
O62	O	-1.642300	0.163807	-1.324922
C63	C	-1.619477	0.062013	-1.295217
H64	H	-1.579286	0.064992	-1.210402
H65	H	-1.694920	0.005294	-1.301132
H66	H	-1.565774	0.033441	-1.350093
O67	O	-1.642379	0.904064	-0.583950
C68	C	-1.701372	0.824587	-0.532242
H69	H	-1.658520	0.751879	-0.523063
H70	H	-1.712578	0.854919	-0.450917
H71	H	-1.780720	0.802697	-0.580932
