data_functionalizedCrystal
_audit_creation_method	'MofGen! by Chris Wilmer'
_symmetry_space_group_name_H-M	'P1'
_symmetry_Int_Tables_number	1
_symmetry_cell_setting	triclinic
loop_
_symmetry_equiv_pos_as_xyz
  x,y,z
_cell_length_a	17.640112
_cell_length_b	25.639240
_cell_length_c	17.640968
_cell_angle_alpha	78.760674
_cell_angle_beta	92.139080
_cell_angle_gamma	101.259448
loop_
_atom_site_label
_atom_site_type_symbol
_atom_site_fract_x
_atom_site_fract_y
_atom_site_fract_z
Zn1	Zn	1.247774	-0.015024	-0.195077
Zn2	Zn	1.747774	0.484976	0.304923
Zn3	Zn	1.221971	-0.122901	-0.068072
Zn4	Zn	1.721971	0.377099	0.431928
Zn5	Zn	1.095095	-0.049036	-0.093716
Zn6	Zn	1.595095	0.450964	0.406284
Zn7	Zn	1.120714	-0.116018	-0.220656
Zn8	Zn	1.620714	0.383982	0.279344
O9	O	1.171388	-0.075745	-0.144380
O10	O	1.671388	0.424255	0.355620
O11	O	1.350624	-0.017980	-0.156793
O12	O	1.850624	0.482020	0.343207
O13	O	1.183620	-0.130218	0.034802
O14	O	1.683620	0.369782	0.534802
O15	O	1.115426	0.028655	-0.107189
O16	O	1.615426	0.528655	0.392811
O17	O	1.331666	-0.097237	-0.063483
O18	O	1.831666	0.402763	0.436517
O19	O	1.227598	0.053644	-0.181658
O20	O	1.727598	0.553644	0.318342
O21	O	1.090406	-0.075950	0.015962
O22	O	1.590406	0.424050	0.515962
O23	O	0.992221	-0.069276	-0.131992
O24	O	1.492221	0.430724	0.368008
O25	O	1.159089	-0.085506	-0.323539
O26	O	1.659089	0.414494	0.176461
O27	O	1.011043	-0.118487	-0.225254
O28	O	1.511043	0.381513	0.274746
O29	O	1.252439	-0.011306	-0.304747
O30	O	1.752439	0.488694	0.195253
O31	O	1.208462	-0.195167	-0.088286
O32	O	1.708462	0.304833	0.411714
O33	O	1.134069	-0.190110	-0.200388
O34	O	1.634069	0.309890	0.299612
C35	C	0.974076	-0.096826	-0.184181
C36	C	1.474076	0.403174	0.315819
C37	C	0.889669	-0.105854	-0.201227
C38	C	1.389669	0.394146	0.298773
C39	C	0.563037	-0.007149	-0.014897
C40	C	1.063037	0.492851	0.485103
C41	C	0.483725	-0.015641	-0.030923
C42	C	0.983725	0.484359	0.469077
C43	C	0.503345	-0.067004	-0.127870
C44	C	1.003345	0.432996	0.372130
C45	C	0.582660	-0.058513	-0.111854
C46	C	1.082660	0.441487	0.388146
C47	C	0.612499	-0.028586	-0.055366
C48	C	1.112499	0.471414	0.444634
C49	C	0.632123	-0.079951	-0.152323
C50	C	1.132123	0.420049	0.347677
C51	C	0.711430	-0.071464	-0.136305
C52	C	1.211430	0.428536	0.363695
C53	C	0.741276	-0.041539	-0.079818
C54	C	1.241276	0.458461	0.420182
C55	C	0.691807	-0.020099	-0.039348
C56	C	1.191807	0.479901	0.460652
C57	C	0.602281	-0.109881	-0.208807
C58	C	1.102281	0.390119	0.291193
C59	C	0.651744	-0.131319	-0.249276
C60	C	1.151744	0.368681	0.250724
C61	C	0.731054	-0.122828	-0.233262
C62	C	1.231054	0.377172	0.266738
C63	C	0.760899	-0.092904	-0.176775
C64	C	1.260899	0.407096	0.323225
C65	C	0.780522	-0.144268	-0.273732
C66	C	1.280522	0.355732	0.226268
C67	C	0.859830	-0.135781	-0.257715
C68	C	1.359830	0.364219	0.242285
C69	C	0.840207	-0.084416	-0.160757
C70	C	1.340207	0.415584	0.339243
C71	C	1.171269	-0.211608	-0.144342
C72	C	1.671269	0.288392	0.355658
C73	C	1.171293	-0.269720	-0.144338
C74	C	1.671293	0.230280	0.355662
C75	C	1.229838	-0.616997	-0.183239
C76	C	1.729838	-0.116997	0.316761
C77	C	1.229864	-0.671597	-0.183250
C78	C	1.729864	-0.171597	0.316750
O79	O	1.279501	-0.688731	-0.216290
O80	O	1.779501	-0.188731	0.283710
N81	N	1.171509	-0.711961	-0.144432
N82	N	1.671509	-0.211961	0.355568
C83	C	1.113120	-0.697723	-0.105608
C84	C	1.613120	-0.197723	0.394392
O85	O	1.063486	-0.737069	-0.072592
O86	O	1.563486	-0.237069	0.427408
C87	C	1.113092	-0.643124	-0.105602
C88	C	1.613092	-0.143124	0.394398
C89	C	1.171455	-0.602763	-0.144416
C90	C	1.671455	-0.102763	0.355584
C91	C	1.288196	-0.576637	-0.222051
C92	C	1.788196	-0.076637	0.277949
C93	C	1.288171	-0.522041	-0.222038
C94	C	1.788171	-0.022041	0.277962
C95	C	1.229788	-0.507806	-0.183215
C96	C	1.729788	-0.007806	0.316785
C97	C	1.171430	-0.548167	-0.144403
C98	C	1.671430	-0.048167	0.355597
C99	C	1.054701	-0.628887	-0.066782
C100	C	1.554701	-0.128887	0.433218
C101	C	1.054677	-0.574283	-0.066780
C102	C	1.554677	-0.074283	0.433220
C103	C	1.113041	-0.533922	-0.105594
C104	C	1.613041	-0.033922	0.394406
C105	C	1.113022	-0.479337	-0.105568
C106	C	1.613022	0.020663	0.394432
N107	N	1.171377	-0.438973	-0.144385
N108	N	1.671377	0.061027	0.355615
C109	C	1.229760	-0.453208	-0.183209
C110	C	1.729760	0.046792	0.316791
C111	C	1.113182	-0.812383	-0.105624
C112	C	1.613182	-0.312383	0.394376
C113	C	1.113212	-0.866981	-0.105625
C114	C	1.613212	-0.366981	0.394375
C115	C	1.229956	-0.840851	-0.183269
C116	C	1.729956	-0.340851	0.316731
C117	C	1.229928	-0.786252	-0.183263
C118	C	1.729928	-0.286252	0.316737
C119	C	1.171537	-0.772019	-0.144442
C120	C	1.671537	-0.272019	0.355558
C121	C	1.229704	-0.338554	-0.183180
C122	C	1.729704	0.161446	0.316820
C123	C	1.229676	-0.283955	-0.183161
C124	C	1.729676	0.216045	0.316839
C125	C	1.112930	-0.310089	-0.105521
C126	C	1.612930	0.189911	0.394479
C127	C	1.112960	-0.364684	-0.105536
C128	C	1.612960	0.135316	0.394464
C129	C	1.171351	-0.378914	-0.144371
C130	C	1.671351	0.121086	0.355629
O131	O	1.063408	-0.462162	-0.072547
O132	O	1.563408	0.037838	0.427453
O133	O	1.279380	-0.413856	-0.216228
O134	O	1.779380	0.086144	0.283772
C135	C	1.369471	-0.054582	-0.104424
C136	C	1.869471	0.445418	0.395576
C137	C	1.453882	-0.045564	-0.087397
C138	C	1.953882	0.454436	0.412603
C139	C	1.211500	-0.043844	-0.342470
C140	C	1.711500	0.456156	0.157530
C141	C	1.228593	-0.030250	-0.426884
C142	C	1.728593	0.469750	0.073116
C143	C	1.171532	0.060654	-0.144431
C144	C	1.671532	0.560654	0.355569
C145	C	1.171593	0.118779	-0.144452
C146	C	1.671593	0.618779	0.355548
C147	C	1.041826	-0.178703	-0.753426
C148	C	1.541826	0.321297	-0.253426
C149	C	1.057903	-0.165920	-0.832743
C150	C	1.557903	0.334080	-0.332743
C151	C	1.155101	-0.088662	-0.813165
C152	C	1.655101	0.411338	-0.313165
C153	C	1.139029	-0.101436	-0.733846
C154	C	1.639029	0.398564	-0.233846
C155	C	1.082391	-0.146458	-0.703983
C156	C	1.582391	0.353542	-0.203983
C157	C	1.179594	-0.069191	-0.684403
C158	C	1.679594	0.430809	-0.184403
C159	C	1.163526	-0.081966	-0.605090
C160	C	1.663526	0.418034	-0.105090
C161	C	1.106893	-0.126986	-0.575220
C162	C	1.606893	0.373014	-0.075220
C163	C	1.066323	-0.159232	-0.624670
C164	C	1.566323	0.340768	-0.124670
C165	C	1.236235	-0.024173	-0.714266
C166	C	1.736235	0.475827	-0.214266
C167	C	1.276801	0.008072	-0.664823
C168	C	1.776801	0.508072	-0.164823
C169	C	1.260729	-0.004700	-0.585509
C170	C	1.760729	0.495300	-0.085509
C171	C	1.204096	-0.049720	-0.555640
C172	C	1.704096	0.450280	-0.055640
C173	C	1.301299	0.027546	-0.536059
C174	C	1.801299	0.527546	-0.036059
C175	C	1.285230	0.014771	-0.456747
C176	C	1.785230	0.514771	0.043253
C177	C	1.188027	-0.062495	-0.476327
C178	C	1.688027	0.437505	0.023673
C179	C	1.131477	-0.107479	0.052947
C180	C	1.631477	0.392521	0.552947
C181	C	1.114531	-0.120910	0.137390
C182	C	1.614531	0.379090	0.637390
H183	H	0.627437	-0.155687	-0.295266
H184	H	1.127437	0.344313	0.204734
H185	H	1.141889	-0.099145	-0.452015
H186	H	1.641889	0.400855	0.047985
H187	H	0.805853	-0.034631	-0.066776
H188	H	1.305853	0.465369	0.433224
H189	H	1.007175	-0.661741	-0.035176
H190	H	1.507175	-0.161741	0.464824
H191	H	0.716106	0.004281	0.006639
H192	H	1.216106	0.504281	0.506639
H193	H	1.024866	-0.192182	-0.872998
H194	H	1.524866	0.307818	-0.372998
O195	O	1.089554	-0.140776	-0.489676
O196	O	1.589554	0.359224	0.010324
H197	H	1.069999	-0.106347	-0.471868
H198	H	1.569999	0.393653	0.028132
H199	H	0.443455	0.001823	0.002030
H200	H	0.943455	0.501823	0.502030
H201	H	0.587335	0.017231	0.031090
H202	H	1.087335	0.517231	0.531090
O203	O	1.292633	-0.240421	-0.225015
O204	O	1.792633	0.259579	0.274985
H205	H	1.333232	-0.259496	-0.252015
H206	H	1.833232	0.240504	0.247985
O207	O	1.005226	-0.207787	-0.592454
O208	O	1.505226	0.292213	-0.092454
H209	H	1.031864	-0.236581	-0.549445
H210	H	1.531864	0.263419	-0.049445
H211	H	0.995688	-0.215353	-0.729114
H212	H	1.495688	0.284647	-0.229114
H213	H	1.347418	0.064199	-0.560385
H214	H	1.847418	0.564199	-0.060385
H215	H	1.201217	-0.052007	-0.837490
H216	H	1.701217	0.447993	-0.337490
H217	H	1.249318	-0.013774	-0.778848
H218	H	1.749318	0.486226	-0.278848
O219	O	0.516744	-0.119053	-0.226094
O220	O	1.016744	0.380947	0.273906
H221	H	0.498967	-0.079388	-0.245791
H222	H	0.998967	0.420612	0.254209
O223	O	0.471162	-0.099278	-0.188799
O224	O	0.971162	0.400722	0.311201
H225	H	0.407705	-0.101575	-0.193143
H226	H	0.907705	0.398425	0.306857
H227	H	1.322917	0.044727	-0.689148
H228	H	1.822917	0.544727	-0.189148
O229	O	0.748336	-0.176547	-0.334656
O230	O	1.248336	0.323453	0.165344
H231	H	0.684879	-0.178846	-0.338996
H232	H	1.184879	0.321154	0.161004
O233	O	0.913189	-0.158897	-0.301365
O234	O	1.413189	0.341103	0.198635
H235	H	0.879118	-0.181127	-0.343341
H236	H	1.379118	0.318873	0.156659
O237	O	1.292684	-0.353899	-0.225058
O238	O	1.792684	0.146101	0.274942
H239	H	1.333259	-0.316656	-0.252034
H240	H	1.833259	0.183344	0.247966
H241	H	1.335694	-0.489181	-0.253646
H242	H	1.835694	0.010819	0.246354
H243	H	1.318262	0.041029	-0.416488
H244	H	1.818262	0.541029	0.083512
H245	H	0.864505	-0.060037	-0.114771
H246	H	1.364505	0.439963	0.385229
O247	O	1.050271	-0.910509	-0.063745
O248	O	1.550271	-0.410509	0.436255
H249	H	1.060094	-0.950870	-0.070263
H250	H	1.560094	-0.450870	0.429737
H251	H	1.277493	-0.852450	-0.214883
H252	H	1.777493	-0.352450	0.285117
O253	O	1.351174	-0.591986	-0.263924
O254	O	1.851174	-0.091986	0.236076
H255	H	1.391745	-0.554741	-0.290902
H256	H	1.891745	-0.054741	0.209098
O257	O	1.292877	-0.742721	-0.225122
O258	O	1.792877	-0.242721	0.274878
H259	H	1.333476	-0.761798	-0.252117
H260	H	1.833476	-0.261798	0.247883
O261	O	1.050212	-0.797033	-0.063732
O262	O	1.550212	-0.297033	0.436268
H263	H	1.009649	-0.834277	-0.036736
H264	H	1.509649	-0.334277	0.463264
O265	O	0.991703	-0.558931	-0.024900
O266	O	1.491703	-0.058931	0.475100
H267	H	0.951134	-0.596173	0.002092
H268	H	1.451134	-0.096173	0.502092
H269	H	1.065441	-0.397549	-0.073923
H270	H	1.565441	0.102451	0.426077
O271	O	1.049959	-0.294731	-0.063650
O272	O	1.549959	0.205269	0.436350
H273	H	1.059748	-0.249984	-0.070174
H274	H	1.559748	0.250016	0.429826
