data_functionalizedCrystal
_audit_creation_method	'MofGen! by Chris Wilmer'
_symmetry_space_group_name_H-M	'P1'
_symmetry_Int_Tables_number	1
_symmetry_cell_setting	triclinic
loop_
_symmetry_equiv_pos_as_xyz
  x,y,z
_cell_length_a	6.394989
_cell_length_b	16.109301
_cell_length_c	14.586319
_cell_angle_alpha	90.002176
_cell_angle_beta	89.996926
_cell_angle_gamma	84.979596
loop_
_atom_site_label
_atom_site_type_symbol
_atom_site_fract_x
_atom_site_fract_y
_atom_site_fract_z
O1	O	-0.268488	-1.105969	0.076176
O2	O	-0.301900	-0.864261	0.076190
O3	O	0.018873	-0.988546	0.076184
O4	O	-0.589260	-0.981684	0.076183
O5	O	0.018893	-0.988545	-0.076297
O6	O	-0.301880	-0.864260	-0.076291
O7	O	-0.268468	-1.105968	-0.076305
Cu8	Cu	-0.285172	-0.985114	-0.090220
Cu9	Cu	-0.285196	-0.985115	0.090106
O10	O	-0.589240	-0.981683	-0.076298
C11	C	-0.300536	-0.833271	-0.000048
C12	C	-0.296479	-0.740933	-0.000043
N13	N	-0.285197	-0.985116	0.216938
C14	C	-0.269831	-1.136958	-0.000064
C15	C	-0.273889	-1.229296	-0.000063
C16	C	0.096703	-0.987189	-0.000053
C17	C	0.332935	-0.983042	-0.000052
N18	N	-0.285154	-0.985119	-0.217052
C19	C	-0.477384	-0.520575	-0.000054
C20	C	-0.473555	-0.433814	-0.000060
C21	C	-0.092969	-0.449660	-0.000055
C22	C	-0.096800	-0.536419	-0.000056
C23	C	-0.289014	-0.571874	-0.000051
C24	C	-0.281354	-0.398354	-0.000056
C25	C	-0.277201	-0.304284	-0.000062
C26	C	-0.293168	-0.665950	-0.000046
C27	C	-0.143434	-1.040262	0.451941
C28	C	-0.143429	-1.040264	0.547923
C29	C	-0.426931	-0.929971	0.547938
C30	C	-0.426945	-0.929973	0.451958
C31	C	-0.285185	-0.985117	0.403962
C32	C	-0.285166	-0.985118	0.595923
C33	C	-0.285162	-0.985120	0.699990
C34	C	-0.285191	-0.985117	0.299889
H35	H	-0.633896	-0.549440	-0.000056
H36	H	-0.028007	-1.085165	0.412865
H37	H	-0.626945	-0.392050	-0.000064
H38	H	0.056603	-0.578189	-0.000056
C39	C	0.012514	-1.100925	0.600695
N40	N	0.129979	-1.146616	0.640442
C41	C	-0.582843	-0.869308	0.600742
N42	N	-0.700273	-0.823613	0.640513
C43	C	-0.582886	-0.869305	0.399178
N44	N	-0.700337	-0.823613	0.359424
H45	H	0.063525	-0.420781	-0.000065
