data_functionalizedCrystal
_audit_creation_method	'MofGen! by Chris Wilmer'
_symmetry_space_group_name_H-M	'P1'
_symmetry_Int_Tables_number	1
_symmetry_cell_setting	triclinic
loop_
_symmetry_equiv_pos_as_xyz
  x,y,z
_cell_length_a	23.532407
_cell_length_b	23.532355
_cell_length_c	15.455446
_cell_angle_alpha	87.346862
_cell_angle_beta	92.661642
_cell_angle_gamma	82.838088
loop_
_atom_site_label
_atom_site_type_symbol
_atom_site_fract_x
_atom_site_fract_y
_atom_site_fract_z
O1	O	0.071495	0.752778	0.072021
O2	O	0.571495	1.252778	0.572021
O3	O	0.081530	0.586910	0.072050
O4	O	0.581530	1.086910	0.572050
O5	O	-0.006421	0.674846	0.072019
O6	O	0.493579	1.174846	0.572019
O7	O	0.159445	0.664842	0.072052
O8	O	0.659445	1.164842	0.572052
O9	O	-0.011432	0.679847	-0.072242
O10	O	0.488568	1.179847	0.427758
O11	O	0.076518	0.591910	-0.072211
O12	O	0.576518	1.091910	0.427789
O13	O	0.066483	0.757779	-0.072240
O14	O	0.566483	1.257779	0.427760
Cu15	Cu	0.071043	0.675301	-0.085397
Cu16	Cu	0.571043	1.175301	0.414603
Cu17	Cu	0.076970	0.669388	0.085208
Cu18	Cu	0.576970	1.169388	0.585208
O19	O	0.154434	0.669842	-0.072209
O20	O	0.654434	1.169842	0.427791
C21	C	0.078773	0.568193	-0.000077
C22	C	0.578773	1.068193	0.499923
C23	C	0.078020	0.504974	-0.000067
C24	C	0.578020	1.004974	0.499933
C25	C	-0.030143	0.677092	-0.000114
C26	C	0.469857	1.177092	0.499886
C27	C	-0.093360	0.676326	-0.000120
C28	C	0.406640	1.176326	0.499880
C29	C	0.070549	0.115688	-0.078741
C30	C	0.570549	0.615688	0.421259
C31	C	0.069831	0.056288	-0.078744
C32	C	0.569831	0.556288	0.421256
O33	O	0.067117	0.027888	-0.145621
O34	O	0.567117	0.527888	0.354379
N35	N	0.072207	0.023854	-0.000108
N36	N	0.572207	0.523854	0.499892
C37	C	0.075295	0.050823	0.078537
C38	C	0.575295	0.550823	0.578537
O39	O	0.077249	0.017781	0.145423
O40	O	0.577249	0.517781	0.645423
C41	C	0.076008	0.110222	0.078540
C42	C	0.576008	0.610222	0.578540
C43	C	0.073638	0.142652	-0.000102
C44	C	0.573638	0.642652	0.499898
C45	C	0.068178	0.148118	-0.157376
C46	C	0.568178	0.648118	0.342624
C47	C	0.068896	0.207513	-0.157372
C48	C	0.568896	0.707513	0.342628
C49	C	0.071986	0.234478	-0.078733
C50	C	0.571986	0.734478	0.421267
C51	C	0.074357	0.202047	-0.000098
C52	C	0.574357	0.702047	0.499902
C53	C	0.079092	0.137190	0.157184
C54	C	0.579092	0.637190	0.657184
C55	C	0.079805	0.196593	0.157179
C56	C	0.579805	0.696593	0.657179
C57	C	0.077435	0.229024	0.078538
C58	C	0.577435	0.729024	0.578538
C59	C	0.078165	0.288407	0.078545
C60	C	0.578165	0.788407	0.578545
N61	N	0.075789	0.320841	-0.000091
N62	N	0.575789	0.820841	0.499909
C63	C	0.072699	0.293877	-0.078730
C64	C	0.572699	0.793877	0.421270
C65	C	0.073795	-0.073918	0.078526
C66	C	0.573795	0.426082	0.578526
C67	C	0.073086	-0.133317	0.078524
C68	C	0.573086	0.366683	0.578524
C69	C	0.067621	-0.127847	-0.078757
C70	C	0.567621	0.372153	0.421243
C71	C	0.068335	-0.068448	-0.078755
C72	C	0.568335	0.431552	0.421245
C73	C	0.071419	-0.041484	-0.000111
C74	C	0.571419	0.458516	0.499889
C75	C	0.074209	0.418610	-0.078716
C76	C	0.574209	0.918610	0.421284
C77	C	0.074930	0.478010	-0.078705
C78	C	0.574930	0.978010	0.421295
C79	C	0.080392	0.472535	0.078575
C80	C	0.580392	0.972535	0.578575
C81	C	0.079674	0.413140	0.078565
C82	C	0.579674	0.913140	0.578565
C83	C	0.076580	0.386180	-0.000088
C84	C	0.576580	0.886180	0.499912
O85	O	0.080875	0.316847	0.145387
O86	O	0.580875	0.816847	0.645387
O87	O	0.070738	0.326926	-0.145605
O88	O	0.570738	0.826926	0.354395
C89	C	-0.492470	0.723560	-0.000081
C90	C	0.007530	1.223560	0.499919
C91	C	-0.551870	0.722848	-0.000074
C92	C	-0.051870	1.222848	0.499926
O93	O	-0.588622	0.766634	-0.000050
O94	O	-0.088622	1.266634	0.499950
N95	N	-0.574486	0.670570	-0.000066
N96	N	-0.074486	1.170570	0.499934
C97	C	-0.537699	0.619000	-0.000055
C98	C	-0.037699	1.119000	0.499945
O99	O	-0.562390	0.574468	-0.000047
O100	O	-0.062390	1.074468	0.499953
C101	C	-0.478300	0.619712	-0.000056
C102	C	0.021700	1.119712	0.499944
C103	C	-0.455688	0.671994	-0.000073
C104	C	0.044312	1.171994	0.499927
C105	C	-0.469857	0.775837	-0.000097
C106	C	0.030143	1.275837	0.499903
C107	C	-0.410462	0.776549	-0.000106
C108	C	0.089538	1.276549	0.499894
C109	C	-0.373679	0.724983	-0.000098
C110	C	0.126321	1.224983	0.499902
C111	C	-0.396292	0.672705	-0.000081
C112	C	0.103708	1.172705	0.499919
C113	C	-0.441513	0.568143	-0.000039
C114	C	0.058487	1.068143	0.499961
C115	C	-0.382111	0.568859	-0.000039
C116	C	0.117889	1.068859	0.499961
C117	C	-0.359499	0.621141	-0.000056
C118	C	0.140501	1.121141	0.499944
C119	C	-0.300113	0.621851	-0.000082
C120	C	0.199887	1.121851	0.499918
N121	N	-0.277497	0.674129	-0.000090
N122	N	0.222503	1.174129	0.499910
C123	C	-0.314280	0.725695	-0.000098
C124	C	0.185720	1.225695	0.499902
C125	C	-0.662441	0.617509	-0.000053
C126	C	-0.162441	1.117509	0.499947
C127	C	-0.721839	0.616796	-0.000058
C128	C	-0.221839	1.116796	0.499942
C129	C	-0.736006	0.720644	-0.000076
C130	C	-0.236006	1.220644	0.499924
C131	C	-0.676607	0.721356	-0.000076
C132	C	-0.176607	1.221356	0.499924
C133	C	-0.639825	0.669787	-0.000061
C134	C	-0.139825	1.169787	0.499939
C135	C	-0.189544	0.727185	-0.000116
C136	C	0.310456	1.227185	0.499884
C137	C	-0.130143	0.727892	-0.000128
C138	C	0.369857	1.227892	0.499872
C139	C	-0.115980	0.624044	-0.000106
C140	C	0.384020	1.124044	0.499894
C141	C	-0.175377	0.623337	-0.000099
C142	C	0.324623	1.123337	0.499901
C143	C	-0.212158	0.674912	-0.000101
C144	C	0.287842	1.174912	0.499899
O145	O	-0.263327	0.578088	-0.000103
O146	O	0.236673	1.078088	0.499897
O147	O	-0.289580	0.770219	-0.000095
O148	O	0.210420	1.270219	0.499905
C149	C	0.178156	0.667597	-0.000074
C150	C	0.678156	1.167597	0.499926
C151	C	0.241373	0.668362	-0.000062
C152	C	0.741373	1.168362	0.499938
C153	C	0.069240	0.776495	-0.000111
C154	C	0.569240	1.276495	0.499889
C155	C	0.069994	0.839714	-0.000115
C156	C	0.569994	1.339714	0.499885
N157	N	0.066875	0.679465	-0.205392
N158	N	0.566875	1.179465	0.294608
C159	C	0.043784	0.702594	-0.749394
C160	C	0.543784	1.202594	-0.249394
C161	C	0.046944	0.699432	-0.658587
C162	C	0.546944	1.199432	-0.158587
C163	C	0.087451	0.658902	-0.613185
C164	C	0.587451	1.158902	-0.113185
C165	C	0.124805	0.621535	-0.658595
C166	C	0.624805	1.121535	-0.158595
C167	C	0.121648	0.624700	-0.749401
C168	C	0.621648	1.124700	-0.249401
C169	C	0.101071	0.645263	-0.341607
C170	C	0.601071	1.145263	0.158393
C171	C	0.104225	0.642100	-0.250795
C172	C	0.604225	1.142100	0.249205
C173	C	0.026363	0.719998	-0.250794
C174	C	0.526363	1.219998	0.249206
C175	C	0.023207	0.723157	-0.341601
C176	C	0.523207	1.223157	0.158399
C177	C	0.060563	0.685792	-0.387003
C178	C	0.560563	1.185792	0.112997
N179	N	0.090681	0.655668	-0.520366
N180	N	0.590681	1.155668	-0.020366
N181	N	0.057336	0.689029	-0.479821
N182	N	0.557336	1.189029	0.020179
N183	N	0.081134	0.665229	0.205202
N184	N	0.581134	1.165229	0.705202
H185	H	0.073002	0.504412	-0.142748
H186	H	0.573002	1.004412	0.357252
C187	C	0.082288	0.377465	0.165074
C188	C	0.582288	0.877465	0.665074
N189	N	0.084252	0.350599	0.230234
N190	N	0.584252	0.850599	0.730234
C191	C	0.077196	-0.044265	0.165046
C192	C	0.577196	0.455735	0.665046
N193	N	0.079757	-0.021932	0.230214
N194	N	0.579757	0.478068	0.730214
H195	H	0.010796	0.735595	-0.786355
H196	H	0.510796	1.235595	-0.286355
C197	C	0.065722	-0.032779	-0.165266
C198	C	0.565722	0.467221	0.334734
N199	N	0.063751	-0.005916	-0.230429
N200	N	0.563751	0.494084	0.269571
H201	H	-0.086021	0.582061	-0.000103
H202	H	0.413979	1.082061	0.499897
H203	H	-0.632495	0.575512	-0.000048
H204	H	-0.132495	1.075512	0.499952
C205	C	-0.341653	0.512127	-0.000025
C206	C	0.158347	1.012127	0.499975
N207	N	-0.311182	0.469396	-0.000018
N208	N	0.188818	0.969396	0.499982
C209	C	0.005853	0.740534	-0.608647
C210	C	0.505853	1.240534	-0.108647
N211	N	-0.025100	0.771494	-0.571033
N212	N	0.474900	1.271494	-0.071033
H213	H	-0.009777	0.756159	-0.378565
H214	H	0.490223	1.256159	0.121435
H215	H	-0.219485	0.769182	-0.000115
H216	H	0.280515	1.269182	0.499885
C217	C	-0.200251	0.565825	-0.000086
C218	C	0.299749	1.065825	0.499914
N219	N	-0.218982	0.522506	-0.000066
N220	N	0.281018	1.022506	0.499934
C221	C	-0.746706	0.559283	-0.000050
C222	C	-0.246706	1.059283	0.499950
N223	N	-0.765433	0.515961	-0.000038
N224	N	-0.265433	1.015961	0.499962
C225	C	-0.014728	0.761094	-0.200844
C226	C	0.485272	1.261094	0.299156
N227	N	-0.045680	0.792048	-0.163222
N228	N	0.454320	1.292048	0.336778
H229	H	0.137212	0.609093	-0.213833
H230	H	0.637212	1.109093	0.286167
C231	C	0.142159	0.604154	-0.391538
C232	C	0.642159	1.104154	0.108462
N233	N	0.173107	0.573188	-0.429148
N234	N	0.673107	1.073188	0.070852
C235	C	0.169364	0.576951	-0.608650
C236	C	0.669364	1.076951	-0.108650
N237	N	0.202925	0.543368	-0.571032
N238	N	0.702925	1.043368	-0.071032
C239	C	-0.510311	0.832569	-0.000115
C240	C	-0.010311	1.332569	0.499885
N241	N	-0.540777	0.875304	-0.000138
N242	N	-0.040777	1.375304	0.499862
C243	C	0.070812	0.388961	-0.165238
C244	C	0.570812	0.888961	0.334762
N245	N	0.068258	0.366630	-0.230407
N246	N	0.568258	0.866630	0.269593
H247	H	-0.111736	0.770468	-0.000145
H248	H	0.388264	1.270468	0.499855
H249	H	0.065105	-0.149812	-0.142790
H250	H	0.565105	0.350188	0.357210
H251	H	0.152063	0.594274	-0.786367
H252	H	0.652063	1.094274	-0.286367
H253	H	-0.392057	0.819121	-0.000116
H254	H	0.107943	1.319121	0.499884
C255	C	-0.776479	0.777368	-0.000075
C256	C	-0.276479	1.277368	0.499925
N257	N	-0.806964	0.820089	-0.000074
N258	N	-0.306964	1.320089	0.499926
H259	H	0.066963	0.233914	-0.221410
H260	H	0.566963	0.733914	0.278590
H261	H	0.082317	0.218544	0.221223
H262	H	0.582317	0.718544	0.721223
H263	H	0.075025	-0.159718	0.142562
H264	H	0.575025	0.340282	0.642562
C265	C	0.064787	0.118466	-0.243892
C266	C	0.564787	0.618466	0.256108
N267	N	0.062240	0.096135	-0.309062
N268	N	0.562240	0.596135	0.190938
H269	H	0.081022	0.110795	0.221222
H270	H	0.581022	0.610795	0.721222
C271	C	-0.651740	0.778869	-0.000088
C272	C	-0.151740	1.278869	0.499912
N273	N	-0.633012	0.822190	-0.000093
N274	N	-0.133012	1.322190	0.499907
C275	C	-0.466373	0.510628	-0.000014
C276	C	0.033627	1.010628	0.499986
N277	N	-0.485095	0.467304	0.000008
N278	N	0.014905	0.967304	0.500008
C279	C	0.083786	0.502208	0.165074
C280	C	0.583786	1.002208	0.665074
N281	N	0.086338	0.524561	0.230225
N282	N	0.586338	1.024561	0.730225
