data_functionalizedCrystal
_audit_creation_method	'MofGen! by Chris Wilmer'
_symmetry_space_group_name_H-M	'P1'
_symmetry_Int_Tables_number	1
_symmetry_cell_setting	triclinic
loop_
_symmetry_equiv_pos_as_xyz
  x,y,z
_cell_length_a	12.594517
_cell_length_b	13.897448
_cell_length_c	13.897441
_cell_angle_alpha	90.030599
_cell_angle_beta	89.984820
_cell_angle_gamma	89.982350
loop_
_atom_site_label
_atom_site_type_symbol
_atom_site_fract_x
_atom_site_fract_y
_atom_site_fract_z
Zn1	Zn	1.627264	0.383985	-0.545238
Zn2	Zn	1.627147	0.545307	-0.383940
Zn3	Zn	1.449265	0.384028	-0.383972
Zn4	Zn	1.449245	0.545240	-0.545208
O5	O	1.538230	0.464640	-0.464589
O6	O	1.776194	0.405395	-0.523841
O7	O	1.603510	0.523959	-0.248962
O8	O	1.472934	0.249040	-0.405391
O9	O	1.776108	0.523918	-0.405335
O10	O	1.603709	0.249009	-0.523872
O11	O	1.472821	0.405467	-0.248986
O12	O	1.300317	0.405402	-0.405361
O13	O	1.472900	0.523803	-0.680194
O14	O	1.300302	0.523844	-0.523821
O15	O	1.603690	0.405330	-0.680216
O16	O	1.603490	0.680280	-0.405306
O17	O	1.472787	0.680230	-0.523789
C18	C	1.261689	0.464621	-0.464592
C19	C	1.143384	0.464637	-0.464616
C20	C	1.003390	0.529174	-0.528926
C21	C	1.074158	0.552653	-0.440891
C22	C	1.074187	0.441200	-0.552641
C23	C	1.003367	0.488192	-0.376505
C24	C	1.003389	0.376699	-0.488315
C25	C	1.074126	0.400144	-0.400219
C26	C	1.538153	0.715254	-0.464562
C27	C	1.538217	0.822468	-0.464582
C28	C	1.538306	0.464555	-0.716183
C29	C	1.538338	0.464518	-0.823397
C30	C	1.815851	0.464659	-0.464588
C31	C	1.934156	0.464668	-0.464587
C32	C	1.538337	0.213047	-0.464639
C33	C	1.538383	0.105833	-0.464660
C34	C	1.538328	1.018763	-0.464642
C35	C	1.538263	0.909531	-0.464612
C36	C	1.538367	0.464453	-1.019692
C37	C	1.538347	0.464492	-0.910459
C38	C	1.538216	0.464655	-0.213975
C39	C	1.538390	0.464420	-0.106762
H40	H	0.972389	0.508118	-0.302031
H41	H	1.104988	0.345580	-0.345759
Cl42	Cl	1.122218	0.410574	-0.667590
Cl43	Cl	0.955432	0.613476	-0.612806
Cl44	Cl	1.122159	0.667487	-0.409915
H45	H	0.972280	0.302340	-0.508404
