data_functionalizedCrystal
_audit_creation_method	'MofGen! by Chris Wilmer'
_symmetry_space_group_name_H-M	'P1'
_symmetry_Int_Tables_number	1
_symmetry_cell_setting	triclinic
loop_
_symmetry_equiv_pos_as_xyz
  x,y,z
_cell_length_a	33.510554
_cell_length_b	33.509711
_cell_length_c	33.506470
_cell_angle_alpha	60.004186
_cell_angle_beta	60.008358
_cell_angle_gamma	59.994760
loop_
_atom_site_label
_atom_site_type_symbol
_atom_site_fract_x
_atom_site_fract_y
_atom_site_fract_z
O1	O	0.055430	-0.583081	0.487524
O2	O	0.555430	-0.083081	0.987524
O3	O	0.020931	-0.453975	0.392819
O4	O	0.520931	0.046025	0.892819
O5	O	0.102693	-0.535652	0.392731
O6	O	0.602693	-0.035652	0.892731
O7	O	-0.026332	-0.501404	0.487613
O8	O	0.473668	-0.001404	0.987613
O9	O	0.129823	-0.508526	0.419767
O10	O	0.629823	-0.008526	0.919767
O11	O	0.048062	-0.426850	0.419856
O12	O	0.548062	0.073150	0.919856
O13	O	0.082561	-0.555956	0.514561
O14	O	0.582561	-0.055956	1.014561
Cu15	Cu	0.067789	-0.488926	0.469677
Cu16	Cu	0.567789	0.011074	0.969677
Cu17	Cu	0.035703	-0.521005	0.437703
Cu18	Cu	0.535703	-0.021005	0.937703
O19	O	0.000799	-0.474279	0.514649
O20	O	0.500799	0.025721	1.014649
N21	N	0.090357	-0.466366	0.492168
N22	N	0.590357	0.033634	0.992168
N23	N	0.013139	-0.543569	0.415212
N24	N	0.513139	-0.043569	0.915212
C25	C	0.143028	-0.279707	0.544737
C26	C	0.643028	0.220293	1.044737
C27	C	0.143165	-0.413746	0.678712
C28	C	0.643165	0.086254	1.178712
C29	C	0.143043	-0.413725	0.544739
C30	C	0.643043	0.086275	1.044739
C31	C	0.277090	-0.413694	0.544637
C32	C	0.777090	0.086306	1.044637
C33	C	0.157791	-0.323929	0.559462
C34	C	0.657791	0.176071	1.059462
C35	C	0.157869	-0.398994	0.634489
C36	C	0.657869	0.101006	1.134489
C37	C	0.232865	-0.398963	0.559407
C38	C	0.732865	0.101037	1.059407
C39	C	0.157801	-0.398982	0.559463
C40	C	0.657801	0.101018	1.059463
C41	C	0.124237	-0.223419	0.525994
C42	C	0.624237	0.276581	1.025994
C43	C	0.124262	-0.432490	0.525997
C44	C	0.624262	0.067510	1.025997
C45	C	0.176583	-0.380217	0.578205
C46	C	0.676583	0.119783	1.078205
C47	C	0.358938	-0.399566	0.501510
C48	C	0.858938	0.100434	1.001510
C49	C	0.410104	-0.416609	0.484423
C50	C	0.910104	0.083391	0.984423
C51	C	0.410135	-0.499402	0.515995
C52	C	0.910135	0.000598	1.015995
C53	C	0.358969	-0.482358	0.533084
C54	C	0.858969	0.017642	1.033084
C55	C	0.136554	-0.197822	0.475693
C56	C	0.636554	0.302178	0.975693
C57	C	0.119469	-0.146653	0.458657
C58	C	0.619469	0.353347	0.958657
C59	C	0.077755	-0.146680	0.542223
C60	C	0.577755	0.353320	1.042223
C61	C	0.094840	-0.197850	0.559260
C62	C	0.594840	0.302150	1.059260
C63	C	0.073954	-0.420144	0.538396
C64	C	0.573954	0.079856	1.038396
C65	C	0.056884	-0.437203	0.521352
C66	C	0.556884	0.062797	1.021352
C67	C	0.140427	-0.478952	0.479524
C68	C	0.640427	0.021048	0.979524
C69	C	0.157498	-0.461894	0.496561
C70	C	0.657498	0.038106	0.996561
C71	C	0.074158	-0.420182	0.760618
C72	C	0.574158	0.079818	1.260618
C73	C	0.057149	-0.437256	0.811786
C74	C	0.557149	0.062744	1.311786
C75	C	0.140732	-0.479014	0.811717
C76	C	0.640732	0.020986	1.311717
C77	C	0.157740	-0.461942	0.760547
C78	C	0.657740	0.038058	1.260547
C79	C	0.124452	-0.432525	0.734999
C80	C	0.624452	0.067475	1.234999
C81	C	0.333372	-0.432439	0.525839
C82	C	0.833372	0.067561	1.025839
C83	C	-0.020612	-0.577650	0.170305
C84	C	0.479388	-0.077650	0.670305
C85	C	-0.020943	-0.788098	0.380897
C86	C	0.479057	-0.288098	0.880897
C87	C	-0.020912	-0.577638	0.380991
C88	C	0.479088	-0.077638	0.880991
C89	C	-0.231336	-0.577418	0.380585
C90	C	0.268664	-0.077418	0.880585
C91	C	-0.129735	-0.611383	0.346870
C92	C	0.370265	-0.111383	0.846870
C93	C	-0.054722	-0.611464	0.347017
C94	C	0.445278	-0.111464	0.847017
C95	C	-0.073450	-0.630202	0.328195
C96	C	0.426550	-0.130202	0.828195
C97	C	-0.087616	-0.712029	0.371239
C98	C	0.412384	-0.212029	0.871239
C99	C	-0.070599	-0.763199	0.388315
C100	C	0.429401	-0.263199	0.888315
C101	C	0.012191	-0.763282	0.356872
C102	C	0.512191	-0.263282	0.856872
C103	C	-0.004828	-0.712113	0.339795
C104	C	0.495172	-0.212113	0.839795
C105	C	-0.155381	-0.623711	0.397158
C106	C	0.344619	-0.123711	0.897158
C107	C	-0.206547	-0.606601	0.414133
C108	C	0.293453	-0.106601	0.914133
C109	C	-0.206417	-0.564839	0.330529
C110	C	0.293583	-0.064839	0.830529
C111	C	-0.155251	-0.581949	0.313554
C112	C	0.344749	-0.081949	0.813554
C113	C	-0.067051	-0.561160	0.334643
C114	C	0.432949	-0.061160	0.834643
C115	C	-0.050026	-0.544131	0.351759
C116	C	0.449974	-0.044131	0.851759
C117	C	-0.008343	-0.627704	0.393612
C118	C	0.491657	-0.127704	0.893612
C119	C	-0.025368	-0.644736	0.376502
C120	C	0.474632	-0.144736	0.876502
C121	C	-0.066922	-0.561168	0.246303
C122	C	0.433078	-0.061168	0.746303
C123	C	-0.049794	-0.544141	0.195134
C124	C	0.450206	-0.044141	0.695134
C125	C	-0.008048	-0.627719	0.195183
C126	C	0.491952	-0.127719	0.695183
C127	C	-0.025175	-0.644745	0.246352
C128	C	0.474825	-0.144745	0.746352
C129	C	-0.054614	-0.611468	0.271911
C130	C	0.445386	-0.111468	0.771911
C131	C	-0.054732	-0.686488	0.346980
C132	C	0.445268	-0.186488	0.846980
C133	C	-0.002117	-0.558258	0.114025
C134	C	0.497883	-0.058258	0.614025
C135	C	-0.002879	-0.844379	0.399940
C136	C	0.497121	-0.344379	0.899940
C137	C	-0.002504	-0.558243	0.399473
C138	C	0.497496	-0.058243	0.899473
C139	C	-0.287615	-0.558285	0.398601
C140	C	0.212385	-0.058285	0.898601
N141	N	0.434975	-0.466279	0.491900
N142	N	0.934975	0.033721	0.991900
O143	O	0.591199	-0.470749	0.375150
O144	O	1.091199	0.029251	0.875150
O145	O	0.591395	-0.565767	0.504116
O146	O	1.091395	-0.065767	1.004116
O147	O	0.591311	-0.565550	0.422329
O148	O	1.091311	-0.065550	0.922329
O149	O	0.591283	-0.470966	0.456937
O150	O	1.091283	0.029034	0.956937
O151	O	0.510024	-0.538522	0.449509
O152	O	1.010024	-0.038522	0.949509
O153	O	0.510108	-0.538739	0.531297
O154	O	1.010108	-0.038739	1.031297
O155	O	0.509913	-0.443721	0.402330
O156	O	1.009913	0.056279	0.902330
Cu157	Cu	0.502588	-0.488762	0.469295
Cu158	Cu	1.002588	0.011238	0.969295
Cu159	Cu	0.598719	-0.520726	0.437151
Cu160	Cu	1.098719	-0.020726	0.937151
O161	O	0.509997	-0.443938	0.484117
O162	O	1.009997	0.056062	0.984117
N163	N	0.666332	-0.543209	0.414541
N164	N	1.166332	-0.043209	0.914541
N165	N	0.090323	-0.121809	0.492157
N166	N	0.590323	0.378191	0.992157
O167	O	-0.026342	0.034503	0.487582
O168	O	0.473658	0.534503	0.987582
O169	O	0.102626	0.034543	0.392540
O170	O	0.602626	0.534543	0.892540
O171	O	0.020797	0.034507	0.392812
O172	O	0.520797	0.534507	0.892812
O173	O	0.055487	0.034539	0.487310
O174	O	0.555487	0.534539	0.987310
O175	O	0.047933	-0.046785	0.419900
O176	O	0.547933	0.453215	0.919900
O177	O	0.129763	-0.046749	0.419628
O178	O	0.629763	0.453251	0.919628
O179	O	0.000794	-0.046789	0.514670
O180	O	0.500794	0.453211	1.014670
Cu181	Cu	0.067756	-0.054192	0.469623
Cu182	Cu	0.567756	0.445808	0.969623
Cu183	Cu	0.035664	0.041946	0.437588
Cu184	Cu	0.535664	0.541946	0.937588
O185	O	0.082623	-0.046753	0.514399
O186	O	0.582623	0.453247	1.014399
N187	N	0.013091	0.109564	0.415054
N188	N	0.513091	0.609564	0.915054
N189	N	0.090671	-0.466416	0.836606
N190	N	0.590671	0.033584	1.336606
O191	O	0.086120	-0.583065	0.992910
O192	O	0.586120	-0.083065	1.492910
O193	O	-0.008880	-0.454051	0.992954
O194	O	0.491120	0.045949	1.492954
O195	O	-0.008658	-0.535864	0.992931
O196	O	0.491342	-0.035864	1.492931
O197	O	0.085897	-0.501252	0.992933
O198	O	0.585897	-0.001252	1.492933
O199	O	0.018407	-0.508749	0.911642
O200	O	0.518407	-0.008749	1.411642
O201	O	0.018185	-0.426936	0.911665
O202	O	0.518185	0.073064	1.411665
O203	O	0.113185	-0.555949	0.911621
O204	O	0.613185	-0.055949	1.411621
Cu205	Cu	0.068156	-0.488967	0.904221
Cu206	Cu	0.568156	0.011033	1.404221
Cu207	Cu	0.036148	-0.521034	1.000355
Cu208	Cu	0.536148	-0.021034	1.500355
O209	O	0.112963	-0.474136	0.911644
O210	O	0.612963	0.025864	1.411644
N211	N	0.013633	-0.543590	1.067970
N212	N	0.513633	-0.043590	1.567970
C213	C	0.031262	-0.424144	0.393290
C214	C	0.531262	0.075856	0.893290
C215	C	0.132513	-0.525291	0.393180
C216	C	0.632513	-0.025291	0.893180
C217	C	0.072229	-0.585787	0.514090
C218	C	0.572229	-0.085787	1.014090
C219	C	-0.029022	-0.484640	0.514200
C220	C	0.470978	0.015360	1.014200
C221	C	0.550775	-0.565338	0.533954
C222	C	1.050775	-0.065338	1.033954
C223	C	0.550672	-0.565070	0.432670
C224	C	1.050672	-0.065070	0.932670
C225	C	0.550530	-0.444149	0.372492
C226	C	1.050530	0.055851	0.872492
C227	C	0.550635	-0.444418	0.473776
C228	C	1.050635	0.055582	0.973776
C229	C	0.132408	-0.005998	0.392963
C230	C	0.632408	0.494002	0.892963
C231	C	0.031106	-0.006142	0.393333
C232	C	0.531106	0.493858	0.893333
C233	C	-0.029021	-0.006147	0.514213
C234	C	0.470979	0.493853	1.014213
C235	C	0.072314	-0.006104	0.513878
C236	C	0.572314	0.493896	1.013878
C237	C	-0.008430	-0.424240	0.952316
C238	C	0.491570	0.075760	1.452316
C239	C	-0.008150	-0.525550	0.952271
C240	C	0.491850	-0.025550	1.452271
C241	C	0.112735	-0.585760	0.952260
C242	C	0.612735	-0.085760	1.452260
C243	C	0.112461	-0.484444	0.952286
C244	C	0.612461	0.015556	1.452286
H245	H	0.047048	-0.396226	0.739820
H246	H	0.547048	0.103774	1.239820
H247	H	0.023675	-0.006147	0.363643
H248	H	0.523675	0.493853	0.863643
H249	H	0.079744	-0.006095	0.543566
H250	H	0.579744	0.493905	1.043566
H251	H	-0.038255	-0.387188	0.952329
H252	H	0.461745	0.112812	1.452329
O253	O	0.550772	-0.600563	0.423834
O254	O	1.050772	-0.100563	0.923834
C255	C	0.592919	-0.681952	0.419241
C256	C	1.092919	-0.181952	0.919241
C257	C	0.592874	-0.641794	0.429248
C258	C	1.092874	-0.141794	0.929248
H259	H	0.626950	-0.715301	0.423625
H260	H	1.126950	-0.215301	0.923625
H261	H	0.592901	-0.667653	0.380408
H262	H	1.092901	-0.167653	0.880408
H263	H	0.558915	-0.692643	0.446317
H264	H	1.058915	-0.192643	0.946317
H265	H	0.626872	-0.631086	0.402203
H266	H	1.126872	-0.131086	0.902203
H267	H	0.592867	-0.656116	0.468094
H268	H	1.092867	-0.156116	0.968094
H269	H	0.142166	-0.477036	0.952281
H270	H	0.642166	0.022964	1.452281
H271	H	0.169570	-0.532590	0.363385
H272	H	0.669570	-0.032590	0.863385
H273	H	0.550467	-0.414317	0.335455
H274	H	1.050467	0.085683	0.835455
H275	H	0.169370	-0.005761	0.363053
H276	H	0.669370	0.494239	0.863053
O277	O	0.081093	-0.630066	0.549516
O278	O	0.581093	-0.130066	1.049516
C279	C	0.139112	-0.710516	0.571992
C280	C	0.639112	-0.210516	1.071992
C281	C	0.129136	-0.660397	0.531825
C282	C	0.629136	-0.160397	1.031825
H283	H	0.177957	-0.735049	0.557708
H284	H	0.677957	-0.235049	1.057708
H285	H	0.112060	-0.728170	0.582691
H286	H	0.612060	-0.228170	1.082691
H287	H	0.134711	-0.705419	0.605331
H288	H	0.634711	-0.205419	1.105331
H289	H	0.133543	-0.665451	0.498461
H290	H	0.633543	-0.165451	0.998461
H291	H	0.156186	-0.642760	0.521168
H292	H	0.656186	-0.142760	1.021168
O293	O	0.550602	-0.409016	0.482694
O294	O	1.050602	0.090984	0.982694
C295	C	0.550682	-0.386667	0.540736
C296	C	1.050682	0.113333	1.040736
C297	C	0.550708	-0.426799	0.530705
C298	C	1.050708	0.073201	1.030705
H299	H	0.550778	-0.401032	0.579548
H300	H	1.050778	0.098968	1.079548
H301	H	0.516626	-0.353323	0.536438
H302	H	1.016626	0.146677	1.036438
H303	H	0.584662	-0.375942	0.513629
H304	H	1.084662	0.124058	1.013629
H305	H	0.516751	-0.437565	0.557803
H306	H	1.016751	0.062435	1.057803
H307	H	0.584787	-0.460116	0.534987
H308	H	1.084787	0.039884	1.034987
O309	O	-0.073243	-0.006129	0.549746
O310	O	0.426757	0.493871	1.049746
C311	C	-0.153758	-0.006171	0.572517
C312	C	0.346242	0.493829	1.072517
C313	C	-0.103702	-0.006185	0.532232
C314	C	0.396298	0.493815	1.032232
H315	H	-0.178395	-0.006226	0.558375
H316	H	0.321605	0.493774	1.058375
H317	H	-0.171336	0.027863	0.583163
H318	H	0.328664	0.527863	1.083163
H319	H	-0.148587	-0.040178	0.605855
H320	H	0.351413	0.459822	1.105855
H321	H	-0.108830	0.027799	0.498868
H322	H	0.391170	0.527799	0.998868
H323	H	-0.086142	-0.040241	0.521627
H324	H	0.413858	0.459759	1.021627
O325	O	-0.043514	-0.534441	0.952208
O326	O	0.456486	-0.034441	1.452208
C327	C	-0.065855	-0.592500	0.952162
C328	C	0.434145	-0.092500	1.452162
C329	C	-0.025758	-0.582493	0.952222
C330	C	0.474242	-0.082493	1.452222
H331	H	-0.051518	-0.631352	0.952184
H332	H	0.448482	-0.131352	1.452184
H333	H	-0.076524	-0.565458	0.918128
H334	H	0.423476	-0.065458	1.418128
H335	H	-0.099225	-0.588106	0.986167
H336	H	0.400775	-0.088106	1.486167
H337	H	0.007638	-0.586894	0.918240
H338	H	0.507638	-0.086894	1.418240
H339	H	-0.015131	-0.609533	0.986278
H340	H	0.484869	-0.109533	1.486278
O341	O	0.148303	-0.629959	0.952178
O342	O	0.648303	-0.129959	1.452178
C343	C	0.199996	-0.688803	0.910021
C344	C	0.699996	-0.188803	1.410021
C345	C	0.159705	-0.638745	0.910060
C346	C	0.659705	-0.138745	1.410060
H347	H	0.209233	-0.695918	0.875968
H348	H	0.709233	-0.195918	1.375968
H349	H	0.186577	-0.718677	0.944011
H350	H	0.686577	-0.218677	1.444011
H351	H	0.234031	-0.688856	0.910041
H352	H	0.734031	-0.188856	1.410041
H353	H	0.125655	-0.638644	0.910023
H354	H	0.625655	-0.138644	1.410023
H355	H	0.173164	-0.608893	0.876073
H356	H	0.673164	-0.108893	1.376073
O357	O	0.008275	-0.425194	0.836592
O358	O	0.508275	0.074806	1.336592
C359	C	-0.072830	-0.381987	0.831254
C360	C	0.427170	0.118013	1.331254
C361	C	-0.017494	-0.395598	0.803101
C362	C	0.482506	0.104402	1.303101
H363	H	-0.093681	-0.358065	0.804188
H364	H	0.406319	0.141935	1.304188
H365	H	-0.082911	-0.361132	0.855197
H366	H	0.417089	0.138868	1.355197
H367	H	-0.082864	-0.416722	0.855224
H368	H	0.417136	0.083278	1.355224
H369	H	-0.007420	-0.360888	0.779104
H370	H	0.492580	0.139112	1.279104
H371	H	-0.007443	-0.416472	0.779188
H372	H	0.492557	0.083528	1.279188
H373	H	0.198696	-0.471996	0.739692
H374	H	0.698696	0.028004	1.239692
O375	O	0.173134	-0.507600	0.836459
O376	O	0.673134	-0.007600	1.336459
C377	C	0.257832	-0.547199	0.830990
C378	C	0.757832	-0.047199	1.330990
C379	C	0.221191	-0.514824	0.802909
C380	C	0.721191	-0.014824	1.302909
H381	H	0.296695	-0.553041	0.803878
H382	H	0.796695	-0.053041	1.303878
H383	H	0.251996	-0.584031	0.854927
H384	H	0.751996	-0.084031	1.354927
H385	H	0.251927	-0.528460	0.854961
H386	H	0.751927	-0.028460	1.354961
H387	H	0.227074	-0.533520	0.778912
H388	H	0.727074	-0.033520	1.278912
H389	H	0.227037	-0.477993	0.779004
H390	H	0.727037	0.022007	1.279004
H391	H	0.046887	-0.396202	0.562361
H392	H	0.546887	0.103798	1.062361
H393	H	-0.090949	-0.534065	0.310634
H394	H	0.409051	-0.034065	0.810634
H395	H	0.015920	-0.427139	0.531437
H396	H	0.515920	0.072861	1.031437
H397	H	0.167497	-0.502899	0.455559
H398	H	0.667497	-0.002899	0.955559
H399	H	0.198463	-0.471942	0.486461
H400	H	0.698463	0.028058	0.986461
H401	H	0.338156	-0.509129	0.552896
H402	H	0.838156	-0.009129	1.052896
H403	H	0.430973	-0.540048	0.521891
H404	H	0.930973	-0.040048	1.021891
H405	H	0.430920	-0.389838	0.464614
H406	H	0.930920	0.110162	0.964614
H407	H	-0.066081	-0.477343	0.543993
H408	H	0.433919	0.022657	1.043993
O409	O	-0.013276	-0.693614	0.271206
O410	O	0.486724	-0.193614	0.771206
C411	C	-0.017184	-0.770225	0.286813
C412	C	0.482816	-0.270225	0.786813
C413	C	-0.030700	-0.714887	0.258646
C414	C	0.469300	-0.214887	0.758646
H415	H	-0.031257	-0.787441	0.276661
H416	H	0.468743	-0.287441	0.776661
H417	H	-0.034495	-0.776708	0.327780
H418	H	0.465505	-0.276708	0.827780
H419	H	0.024240	-0.787498	0.276825
H420	H	0.524240	-0.287498	0.776825
H421	H	-0.072118	-0.697577	0.268593
H422	H	0.427882	-0.197577	0.768593
H423	H	-0.013355	-0.708438	0.217686
H424	H	0.486645	-0.208438	0.717686
O425	O	0.550861	-0.600880	0.578162
O426	O	1.050861	-0.100880	1.078162
C427	C	0.550920	-0.623596	0.658667
C428	C	1.050920	-0.123596	1.158667
C429	C	0.550835	-0.583306	0.608622
C430	C	1.050835	-0.083306	1.108622
H431	H	0.550889	-0.609399	0.683312
H432	H	1.050889	-0.109399	1.183312
H433	H	0.584967	-0.656915	0.653530
H434	H	1.084967	-0.156915	1.153530
H435	H	0.516930	-0.634294	0.676221
H436	H	1.016930	-0.134294	1.176221
H437	H	0.584802	-0.572566	0.591040
H438	H	1.084802	-0.072566	1.091040
H439	H	0.516766	-0.550013	0.613791
H440	H	1.016766	-0.050013	1.113791
H441	H	0.160490	-0.218637	0.448603
H442	H	0.660490	0.281363	0.948603
O443	O	0.334147	-0.351061	0.494452
O444	O	0.834147	0.148939	0.994452
C445	C	0.339521	-0.270737	0.461305
C446	C	0.839521	0.229263	0.961305
C447	C	0.367653	-0.325656	0.469278
C448	C	0.867653	0.174344	0.969278
H449	H	0.366598	-0.250180	0.440942
H450	H	0.866598	0.249820	0.940942
H451	H	0.315603	-0.265014	0.498193
H452	H	0.815603	0.234986	0.998193
H453	H	0.315527	-0.256354	0.438847
H454	H	0.815527	0.243646	0.938847
H455	H	0.391673	-0.340076	0.491719
H456	H	0.891673	0.159924	0.991719
H457	H	0.391540	-0.331347	0.432373
H458	H	0.891540	0.168653	0.932373
H459	H	0.129496	-0.125810	0.417697
H460	H	0.629496	0.374190	0.917697
H461	H	0.084809	-0.218687	0.600218
H462	H	0.584809	0.281313	1.100218
O463	O	0.049191	-0.121915	0.574603
O464	O	0.549191	0.378085	1.074603
C465	C	0.009655	-0.127343	0.659289
C466	C	0.509655	0.372657	1.159289
C467	C	0.042000	-0.155448	0.622672
C468	C	0.542000	0.344552	1.122672
H469	H	0.003840	-0.154442	0.698161
H470	H	0.503840	0.345558	1.198161
H471	H	-0.027188	-0.103411	0.653465
H472	H	0.472812	0.396589	1.153465
H473	H	0.028400	-0.103364	0.653345
H474	H	0.528400	0.396636	1.153345
H475	H	0.023298	-0.179453	0.628594
H476	H	0.523298	0.320547	1.128594
H477	H	0.078842	-0.179349	0.628506
H478	H	0.578842	0.320651	1.128506
H479	H	-0.090896	-0.534066	0.267110
H480	H	0.409104	-0.034066	0.767110
O481	O	-0.061845	-0.495270	0.170286
O482	O	0.438155	0.004730	0.670286
C483	C	-0.126666	-0.418594	0.154554
C484	C	0.373334	0.081406	0.654554
C485	C	-0.113087	-0.473933	0.182716
C486	C	0.386913	0.026067	0.682716
H487	H	-0.168096	-0.401324	0.164601
H488	H	0.331904	0.098676	0.664601
H489	H	-0.109410	-0.412106	0.113586
H490	H	0.390590	0.087894	0.613586
H491	H	-0.112543	-0.401377	0.164651
H492	H	0.387457	0.098623	0.664651
H493	H	-0.127207	-0.491186	0.172660
H494	H	0.372793	0.008814	0.672660
H495	H	-0.130337	-0.480386	0.223677
H496	H	0.369663	0.019614	0.723677
O497	O	0.020469	-0.660026	0.170337
O498	O	0.520469	-0.160026	0.670337
C499	C	0.029667	-0.689254	0.112513
C500	C	0.529667	-0.189254	0.612513
C501	C	-0.002682	-0.652645	0.140628
C502	C	0.497318	-0.152645	0.640628
H503	H	0.010966	-0.683293	0.088479
H504	H	0.510966	-0.183293	0.588479
H505	H	0.035508	-0.728140	0.139587
H506	H	0.535508	-0.228140	0.639587
H507	H	0.066497	-0.683409	0.088634
H508	H	0.566497	-0.183409	0.588634
H509	H	-0.039531	-0.658445	0.164507
H510	H	0.460469	-0.158445	0.664507
H511	H	-0.008483	-0.613772	0.113528
H512	H	0.491517	-0.113772	0.613528
H513	H	-0.060067	-0.503170	0.341685
H514	H	0.439933	-0.003170	0.841685
H515	H	-0.015331	-0.685697	0.386578
H516	H	0.484669	-0.185697	0.886578
O517	O	0.020150	-0.660092	0.422262
O518	O	0.520150	-0.160092	0.922262
C519	C	0.059723	-0.744787	0.461941
C520	C	0.559723	-0.244787	0.961941
C521	C	0.027442	-0.708160	0.429498
C522	C	0.527442	-0.208160	0.929498
H523	H	0.065637	-0.783657	0.467793
H524	H	0.565637	-0.283657	0.967793
H525	H	0.040938	-0.738910	0.498762
H526	H	0.540938	-0.238910	0.998762
H527	H	0.096526	-0.738903	0.443253
H528	H	0.596526	-0.238903	0.943253
H529	H	-0.009367	-0.714021	0.448143
H530	H	0.490633	-0.214021	0.948143
H531	H	0.046266	-0.714045	0.392678
H532	H	0.546266	-0.214045	0.892678
H533	H	0.052828	-0.784146	0.351024
H534	H	0.552828	-0.284146	0.851024
O535	O	0.027181	-0.687377	0.316259
O536	O	0.527181	-0.187377	0.816259
C537	C	0.111098	-0.692861	0.286849
C538	C	0.611098	-0.192861	0.786849
C539	C	0.074900	-0.720935	0.313523
C540	C	0.574900	-0.220935	0.813523
H541	H	0.149688	-0.719980	0.284620
H542	H	0.649688	-0.219980	0.784620
H543	H	0.100843	-0.668914	0.307777
H544	H	0.600843	-0.168914	0.807777
H545	H	0.109561	-0.668900	0.248369
H546	H	0.609561	-0.168900	0.748369
H547	H	0.076418	-0.744922	0.352004
H548	H	0.576418	-0.244922	0.852004
H549	H	0.085166	-0.744851	0.292558
H550	H	0.585166	-0.244851	0.792558
H551	H	-0.097376	-0.783993	0.408060
H552	H	0.402624	-0.283993	0.908060
H553	H	-0.134607	-0.647683	0.424287
H554	H	0.365393	-0.147683	0.924287
O555	O	-0.136104	-0.687215	0.378225
O556	O	0.363896	-0.187215	0.878225
C557	C	-0.216421	-0.692537	0.411207
C558	C	0.283579	-0.192537	0.911207
C559	C	-0.161522	-0.720700	0.403328
C560	C	0.338478	-0.220700	0.903328
H561	H	-0.236989	-0.719598	0.431512
H562	H	0.263011	-0.219598	0.931512
H563	H	-0.222075	-0.668607	0.374288
H564	H	0.277925	-0.168607	0.874288
H565	H	-0.230846	-0.668550	0.433684
H566	H	0.269154	-0.168550	0.933684
H567	H	-0.147060	-0.744714	0.380868
H568	H	0.352940	-0.244714	0.880868
H569	H	-0.155900	-0.744599	0.440264
H570	H	0.344100	-0.244599	0.940264
H571	H	-0.227194	-0.540877	0.303400
H572	H	0.272806	-0.040877	0.803400
O573	O	-0.231388	-0.618642	0.463002
O574	O	0.268612	-0.118642	0.963002
C575	C	-0.226120	-0.661855	0.544137
C576	C	0.273880	-0.161855	1.044137
C577	C	-0.197929	-0.648261	0.488808
C578	C	0.302071	-0.148261	0.988808
H579	H	-0.199080	-0.685795	0.565017
H580	H	0.300920	-0.185795	1.065017
H581	H	-0.250066	-0.682685	0.554182
H582	H	0.249934	-0.182685	1.054182
H583	H	-0.250090	-0.627114	0.554172
H584	H	0.249910	-0.127114	1.054172
H585	H	-0.173932	-0.682976	0.478733
H586	H	0.326068	-0.182976	0.978733
H587	H	-0.174014	-0.627412	0.478792
H588	H	0.325986	-0.127412	0.978792
H589	H	0.023891	-0.387055	0.363546
H590	H	0.523891	0.112945	0.863546
O591	O	-0.130355	-0.570035	0.264697
O592	O	0.369645	-0.070035	0.764697
C593	C	-0.114613	-0.573930	0.188025
C594	C	0.385387	-0.073930	0.688025
C595	C	-0.142828	-0.587462	0.243349
C596	C	0.357172	-0.087462	0.743349
H597	H	-0.124694	-0.588004	0.170747
H598	H	0.375306	-0.088004	0.670747
H599	H	-0.073654	-0.591229	0.181588
H600	H	0.426346	-0.091229	0.681588
H601	H	-0.124627	-0.532500	0.170777
H602	H	0.375373	-0.032500	0.670777
H603	H	-0.132855	-0.628884	0.260634
H604	H	0.367145	-0.128884	0.760634
H605	H	-0.183780	-0.570128	0.249751
H606	H	0.316220	-0.070128	0.749751
