data_functionalizedCrystal
_audit_creation_method	'MofGen! by Chris Wilmer'
_symmetry_space_group_name_H-M	'P1'
_symmetry_Int_Tables_number	1
_symmetry_cell_setting	triclinic
loop_
_symmetry_equiv_pos_as_xyz
  x,y,z
_cell_length_a	14.044191
_cell_length_b	23.532357
_cell_length_c	22.010155
_cell_angle_alpha	90.010083
_cell_angle_beta	90.013322
_cell_angle_gamma	88.010034
loop_
_atom_site_label
_atom_site_type_symbol
_atom_site_fract_x
_atom_site_fract_y
_atom_site_fract_z
O1	O	1.256391	0.137254	0.050510
O2	O	1.756391	0.637254	0.550510
O3	O	0.980469	0.132297	0.050517
O4	O	1.480469	0.632297	0.550517
O5	O	1.126775	0.052294	0.050501
O6	O	1.626775	0.552294	0.550501
O7	O	1.110085	0.217257	0.050526
O8	O	1.610085	0.717257	0.550526
O9	O	1.126731	0.052292	-0.050550
O10	O	1.626731	0.552292	0.449450
O11	O	0.980426	0.132295	-0.050533
O12	O	1.480426	0.632295	0.449467
O13	O	1.256347	0.137251	-0.050541
O14	O	1.756347	0.637251	0.449459
Cu15	Cu	1.118382	0.134773	-0.059764
Cu16	Cu	1.618382	0.634773	0.440236
Cu17	Cu	1.118434	0.134776	0.059740
Cu18	Cu	1.618434	0.634776	0.559740
O19	O	1.110041	0.217254	-0.050524
O20	O	1.610041	0.717254	0.449476
C21	C	0.945154	0.130128	-0.000007
C22	C	1.445154	0.630128	0.499993
C23	C	0.839991	0.123660	-0.000005
C24	C	1.339991	0.623660	0.499995
C25	C	1.126336	0.031054	-0.000026
C26	C	1.626336	0.531054	0.499974
C27	C	1.125081	-0.032233	-0.000032
C28	C	1.625081	0.467767	0.499968
C29	C	0.589374	0.157706	-0.000006
C30	C	1.089374	0.657706	0.499994
C31	C	0.647448	0.111845	-0.000012
C32	C	1.147448	0.611845	0.499988
C33	C	0.754589	0.118421	-0.000008
C34	C	1.254589	0.618421	0.499992
C35	C	0.482223	0.151131	-0.000010
C36	C	0.982223	0.651131	0.499990
C37	C	1.117225	-0.424670	0.055083
C38	C	1.617225	0.075330	0.555083
C39	C	1.116032	-0.484134	0.055087
C40	C	1.616032	0.015866	0.555087
O41	O	1.115403	-0.514885	0.101933
O42	O	1.615403	-0.014885	0.601933
N43	N	1.115416	-0.513879	0.000005
N44	N	1.615416	-0.013879	0.500005
C45	C	1.115984	-0.484156	-0.055084
C46	C	1.615984	0.015844	0.444916
O47	O	1.115350	-0.514916	-0.101935
O48	O	1.615350	-0.014916	0.398065
C49	C	1.117170	-0.424692	-0.055087
C50	C	1.617170	0.075308	0.444913
C51	C	1.117796	-0.394951	-0.000001
C52	C	1.617796	0.105049	0.499999
C53	C	1.117849	-0.394929	0.110164
C54	C	1.617849	0.105071	0.610164
C55	C	1.119044	-0.335469	0.110161
C56	C	1.619044	0.164531	0.610161
C57	C	1.119615	-0.305750	0.055076
C58	C	1.619615	0.194250	0.555076
C59	C	1.118990	-0.335491	-0.000005
C60	C	1.618990	0.164509	0.499995
C61	C	1.117732	-0.394970	-0.110175
C62	C	1.617732	0.105030	0.389825
C63	C	1.118917	-0.335503	-0.110173
C64	C	1.618917	0.164497	0.389827
C65	C	1.119542	-0.305762	-0.055087
C66	C	1.619542	0.194238	0.444913
C67	C	1.120756	-0.246313	-0.055093
C68	C	1.620756	0.253687	0.444907
N69	N	1.121372	-0.216568	-0.000011
N70	N	1.621372	0.283432	0.499989
C71	C	1.120801	-0.246287	0.055073
C72	C	1.620801	0.253713	0.555073
C73	C	1.113491	-0.609032	-0.055073
C74	C	1.613491	-0.109032	0.444927
C75	C	1.112312	-0.668495	-0.055071
C76	C	1.612312	-0.168495	0.444929
C77	C	1.112357	-0.668469	0.055100
C78	C	1.612357	-0.168469	0.555100
C79	C	1.113544	-0.609006	0.055097
C80	C	1.613544	-0.109006	0.555097
C81	C	1.114107	-0.579288	0.000008
C82	C	1.614107	-0.079288	0.500008
C83	C	1.123311	-0.121417	0.055061
C84	C	1.623311	0.378583	0.555061
C85	C	1.124510	-0.061951	0.055053
C86	C	1.624510	0.438049	0.555053
C87	C	1.124459	-0.061982	-0.055118
C88	C	1.624459	0.438018	0.444882
C89	C	1.123265	-0.121442	-0.055110
C90	C	1.623265	0.378558	0.444890
C91	C	1.122688	-0.151158	-0.000015
C92	C	1.622688	0.348842	0.499985
O93	O	1.121382	-0.215524	-0.101915
O94	O	1.621382	0.284476	0.398085
O95	O	1.121422	-0.215519	0.101916
O96	O	1.621422	0.284481	0.601916
C97	C	1.291662	0.139421	-0.000015
C98	C	1.791662	0.639421	0.499985
C99	C	1.396825	0.145888	-0.000013
C100	C	1.896825	0.645888	0.499987
C101	C	1.110481	0.238495	0.000004
C102	C	1.610481	0.738495	0.500004
C103	C	1.111736	0.301781	0.000014
C104	C	1.611736	0.801781	0.500014
N105	N	1.118353	0.134771	-0.143816
N106	N	1.618353	0.634771	0.356184
C107	C	1.175559	0.172234	-0.563592
C108	C	1.675559	0.672234	-0.063592
C109	C	1.175570	0.172233	-0.627199
C110	C	1.675570	0.672233	-0.127199
O111	O	1.224174	0.204080	-0.660087
O112	O	1.724174	0.704080	-0.160087
N113	N	1.118453	0.134770	-0.659023
N114	N	1.618453	0.634770	-0.159023
C115	C	1.061328	0.097301	-0.627236
C116	C	1.561328	0.597301	-0.127236
O117	O	1.012747	0.065436	-0.660146
O118	O	1.512747	0.565436	-0.160146
C119	C	1.061322	0.097300	-0.563630
C120	C	1.561322	0.597300	-0.063630
C121	C	1.118436	0.134770	-0.531809
C122	C	1.618436	0.634770	-0.031809
C123	C	1.232668	0.209700	-0.531771
C124	C	1.732668	0.709700	-0.031771
C125	C	1.232656	0.209702	-0.468168
C126	C	1.732656	0.709702	0.031832
C127	C	1.175533	0.172237	-0.436385
C128	C	1.675533	0.672237	0.063615
C129	C	1.118423	0.134771	-0.468206
C130	C	1.618423	0.634771	0.031794
C131	C	1.004203	0.059829	-0.531844
C132	C	1.504203	0.559829	-0.031844
C133	C	1.004204	0.059830	-0.468233
C134	C	1.504204	0.559830	0.031767
C135	C	1.061317	0.097300	-0.436413
C136	C	1.561317	0.597300	0.063587
C137	C	1.061288	0.097308	-0.372820
C138	C	1.561288	0.597308	0.127180
N139	N	1.118405	0.134771	-0.340996
N140	N	1.618405	0.634771	0.159004
C141	C	1.175528	0.172236	-0.372779
C142	C	1.675528	0.672236	0.127221
C143	C	1.061345	0.097307	-0.760814
C144	C	1.561345	0.597307	-0.260814
C145	C	1.061344	0.097311	-0.824419
C146	C	1.561344	0.597311	-0.324419
C147	C	1.175588	0.172242	-0.824378
C148	C	1.675588	0.672242	-0.324378
C149	C	1.175583	0.172241	-0.760771
C150	C	1.675583	0.672241	-0.260771
C151	C	1.118462	0.134770	-0.728990
C152	C	1.618462	0.634770	-0.228990
C153	C	1.175496	0.172236	-0.239207
C154	C	1.675496	0.672236	0.260793
C155	C	1.175475	0.172236	-0.175599
C156	C	1.675475	0.672236	0.324401
C157	C	1.061236	0.097303	-0.175646
C158	C	1.561236	0.597303	0.324354
C159	C	1.061253	0.097305	-0.239249
C160	C	1.561253	0.597305	0.260751
C161	C	1.118390	0.134773	-0.271028
C162	C	1.618390	0.634773	0.228972
O163	O	1.012711	0.065475	-0.339892
O164	O	1.512711	0.565475	0.160108
O165	O	1.224110	0.204091	-0.339861
O166	O	1.724110	0.704091	0.160139
N167	N	1.118471	0.134774	0.143793
N168	N	1.618471	0.634774	0.643793
H169	H	0.616702	0.067645	0.000024
H170	H	1.116702	0.567645	0.500024
H171	H	0.620118	0.201903	0.000003
H172	H	1.120118	0.701903	0.500003
H173	H	1.113952	-0.584840	-0.099936
H174	H	1.613952	-0.084840	0.400064
H175	H	1.279168	0.240211	-0.442265
H176	H	1.779168	0.740211	0.057735
H177	H	1.122836	-0.145604	0.099924
H178	H	1.622836	0.354396	0.599924
H179	H	1.125021	-0.037739	0.099912
H180	H	1.625021	0.462261	0.599912
H181	H	0.957689	0.029316	-0.442360
H182	H	1.457689	0.529316	0.057640
H183	H	1.119549	-0.311259	0.155017
H184	H	1.619549	0.188741	0.655017
H185	H	1.014726	0.066801	-0.149757
H186	H	1.514726	0.566801	0.350243
H187	H	1.117381	-0.419119	0.155023
H188	H	1.617381	0.080881	0.655023
H189	H	1.114051	-0.584794	0.099952
H190	H	1.614051	-0.084794	0.599952
F191	F	1.000535	0.057428	-0.726996
F192	F	1.500535	0.557428	-0.226996
F193	F	1.111744	-0.700108	0.113726
F194	F	1.611744	-0.200108	0.613726
H195	H	0.957697	0.029316	-0.557742
H196	H	1.457697	0.529316	-0.057742
H197	H	1.014734	0.066800	-0.265159
H198	H	1.514734	0.566800	0.234841
F199	F	1.111663	-0.700142	-0.113701
F200	F	1.611663	-0.200142	0.386299
H201	H	1.279189	0.240209	-0.557641
H202	H	1.779189	0.740209	-0.057641
H203	H	1.222099	0.202749	-0.850267
H204	H	1.722099	0.702749	-0.350267
F205	F	1.236373	0.212119	-0.726911
F206	F	1.736373	0.712119	-0.226911
F207	F	1.117062	-0.426610	-0.168805
F208	F	1.617062	0.073390	0.331195
H209	H	1.119361	-0.311310	-0.155034
H210	H	1.619361	0.188690	0.344966
F211	F	1.122617	-0.153097	-0.113737
F212	F	1.622617	0.346903	0.386263
H213	H	1.124928	-0.037775	-0.099966
H214	H	1.624928	0.462225	0.400034
F215	F	1.000543	0.057438	-0.858279
F216	F	1.500543	0.557438	-0.358279
H217	H	1.221984	0.202751	-0.149693
H218	H	1.721984	0.702751	0.350307
F219	F	1.236308	0.212114	-0.273020
F220	F	1.736308	0.712114	0.226980
