data_functionalizedCrystal
_audit_creation_method	'MofGen! by Chris Wilmer'
_symmetry_space_group_name_H-M	'P1'
_symmetry_Int_Tables_number	1
_symmetry_cell_setting	triclinic
loop_
_symmetry_equiv_pos_as_xyz
  x,y,z
_cell_length_a	15.298068
_cell_length_b	19.077068
_cell_length_c	15.296720
_cell_angle_alpha	101.502244
_cell_angle_beta	88.354818
_cell_angle_gamma	102.339823
loop_
_atom_site_label
_atom_site_type_symbol
_atom_site_fract_x
_atom_site_fract_y
_atom_site_fract_z
Zn1	Zn	1.240909	-0.212238	-0.736107
Zn2	Zn	1.260542	-0.308055	-0.593585
Zn3	Zn	1.120196	-0.205305	-0.563988
Zn4	Zn	1.086421	-0.348051	-0.716256
O5	O	1.177017	-0.268412	-0.652484
O6	O	1.366902	-0.211111	-0.737895
O7	O	1.264276	-0.274786	-0.466289
O8	O	1.142128	-0.106385	-0.582741
O9	O	1.381326	-0.281508	-0.633185
O10	O	1.230815	-0.111478	-0.709196
O11	O	1.161165	-0.199296	-0.444544
O12	O	0.992327	-0.238078	-0.563493
O13	O	1.084563	-0.349675	-0.842260
O14	O	0.967513	-0.342953	-0.675364
O15	O	1.198065	-0.249893	-0.856845
O16	O	1.231525	-0.413201	-0.613937
O17	O	1.103600	-0.442586	-0.704063
C18	C	1.166048	-0.453781	-0.660081
C19	C	1.161431	-0.533078	-0.663373
C20	C	0.947926	-0.294104	-0.614063
C21	C	0.849916	-0.305116	-0.597648
C22	C	1.225901	-0.555012	-0.618051
C23	C	1.221563	-0.629521	-0.621154
C24	C	1.152750	-0.682095	-0.669575
C25	C	1.088277	-0.660157	-0.714903
C26	C	1.092619	-0.585649	-0.711805
C27	C	1.132619	-0.906574	-0.683872
C28	C	1.128280	-0.981085	-0.686965
C29	C	1.261568	-0.950444	-0.593216
C30	C	1.265901	-0.875936	-0.590118
C31	C	1.201431	-0.854005	-0.635450
N32	N	1.148312	-0.758256	-0.672745
N33	N	1.205873	-0.777846	-0.632284
C34	C	0.543521	-0.189891	-0.769815
C35	C	0.635606	-0.179548	-0.785243
C36	C	0.689188	-0.210938	-0.738345
C37	C	0.650676	-0.252675	-0.676018
C38	C	0.558581	-0.263023	-0.660593
C39	C	0.704248	-0.284071	-0.629124
C40	C	0.665735	-0.325807	-0.566796
C41	C	0.573649	-0.336154	-0.551374
C42	C	0.520068	-0.304763	-0.598271
C43	C	0.796343	-0.273722	-0.644548
C44	C	0.811402	-0.346855	-0.535326
C45	C	0.719317	-0.357198	-0.519898
C46	C	1.407002	-0.242621	-0.691056
C47	C	1.505008	-0.231630	-0.707493
C48	C	1.135356	-0.305019	-0.882436
C49	C	1.117603	-0.320619	-0.980427
C50	C	1.188049	-0.082321	-0.644882
C51	C	1.192750	-0.003019	-0.641642
C52	C	1.303943	-0.156791	-1.287023
C53	C	1.320629	-0.142136	-1.194956
C54	C	1.269874	-0.186755	-1.141320
C55	C	1.202430	-0.246033	-1.179759
C56	C	1.185748	-0.260694	-1.271836
C57	C	1.151678	-0.290657	-1.126132
C58	C	1.084235	-0.349935	-1.164571
C59	C	1.067555	-0.364593	-1.256639
C60	C	1.118310	-0.319974	-1.310276
C61	C	1.168361	-0.275996	-1.034055
C62	C	1.050165	-0.379899	-1.018867
C63	C	1.033479	-0.394555	-1.110934
C64	C	1.218570	-0.231891	-0.423434
C65	C	1.236505	-0.216071	-0.325463
H66	H	1.281933	-0.512209	-0.578616
H67	H	1.283463	-0.174818	-1.066355
C68	C	1.242542	-0.210787	-0.991782
N69	N	1.298417	-0.161666	-0.959942
H70	H	1.274061	-0.647375	-0.584246
C71	C	1.052582	-1.038917	-0.740241
N72	N	0.995569	-1.082476	-0.780367
H73	H	0.542294	-0.370145	-0.500629
H74	H	1.008837	-0.416232	-0.975196
C75	C	1.061736	-0.882461	-0.733792
N76	N	1.008356	-0.864299	-0.771413
H77	H	0.687947	-0.391181	-0.469151
C78	C	0.418767	-0.316137	-0.581302
N79	N	0.342467	-0.324703	-0.568524
C80	C	1.359762	-0.107715	-1.346028
N81	N	1.401806	-0.070745	-1.390472
H82	H	1.321934	-0.833131	-0.550690
C83	C	0.677964	-0.133632	-0.853794
N84	N	0.709869	-0.099043	-0.905428
H85	H	0.499886	-0.164342	-0.807997
C86	C	1.332483	-0.974576	-0.543358
N87	N	1.385901	-0.992751	-0.505804
H88	H	0.855028	-0.372420	-0.497142
H89	H	1.375543	-0.093873	-1.163667
H90	H	1.032251	-0.702969	-0.754333
C91	C	1.021697	-0.561523	-0.761664
N92	N	0.968278	-0.543354	-0.799222
C93	C	0.790486	-0.199552	-0.755311
N94	N	0.866788	-0.190969	-0.768087
C95	C	1.099971	-0.336101	-1.411559
N96	N	1.086165	-0.348250	-1.487848
H97	H	0.827690	-0.239739	-0.695295
H98	H	1.012644	-0.412866	-1.287934
C99	C	0.959292	-0.459758	-1.153229
N100	N	0.903412	-0.508869	-1.185086
