data_functionalizedCrystal
_audit_creation_method	'MofGen! by Chris Wilmer'
_symmetry_space_group_name_H-M	'P1'
_symmetry_Int_Tables_number	1
_symmetry_cell_setting	triclinic
loop_
_symmetry_equiv_pos_as_xyz
  x,y,z
_cell_length_a	23.532407
_cell_length_b	15.538191
_cell_length_c	14.750522
_cell_angle_alpha	72.469982
_cell_angle_beta	104.276273
_cell_angle_gamma	114.939614
loop_
_atom_site_label
_atom_site_type_symbol
_atom_site_fract_x
_atom_site_fract_y
_atom_site_fract_z
O1	O	-0.178055	-1.269818	0.079816
O2	O	-0.112169	-0.994945	0.079824
O3	O	-0.229731	-1.140666	0.079802
O4	O	-0.060494	-1.124097	0.079838
O5	O	-0.244273	-1.104303	-0.079859
O6	O	-0.126712	-0.958581	-0.079837
O7	O	-0.192598	-1.233455	-0.079846
Zn8	Zn	-0.161964	-1.090245	-0.105191
Zn9	Zn	-0.142803	-1.138155	0.105170
O10	O	-0.075037	-1.087733	-0.079824
C11	C	-0.258132	-1.122062	-0.000031
C12	C	-0.321092	-1.120791	-0.000038
C13	C	-0.112547	-0.941603	-0.000006
C14	C	-0.092014	-0.836838	-0.000003
C15	C	-0.192220	-1.286797	-0.000014
C16	C	-0.212753	-1.391563	-0.000010
C17	C	-0.736104	-1.199080	0.000012
C18	C	-0.795264	-1.197902	0.000019
O19	O	-0.846758	-1.270473	0.000052
N20	N	-0.800277	-1.111268	0.000021
C21	C	-0.746125	-1.025808	0.000026
O22	O	-0.755821	-0.952011	0.000029
C23	C	-0.686966	-1.026988	0.000025
C24	C	-0.681958	-1.113626	0.000013
C25	C	-0.731095	-1.285710	0.000001
C26	C	-0.671939	-1.286887	-0.000008
C27	C	-0.617793	-1.201433	-0.000006
C28	C	-0.622803	-1.114802	0.000004
C29	C	-0.632815	-0.941531	0.000037
C30	C	-0.573653	-0.942719	0.000037
C31	C	-0.568646	-1.029356	0.000025
C32	C	-0.509501	-1.030525	-0.000003
N33	N	-0.504488	-1.117159	-0.000005
C34	C	-0.558634	-1.202613	-0.000007
C35	C	-0.870365	-1.023337	0.000028
C36	C	-0.929523	-1.022155	0.000022
C37	C	-0.978658	-1.194249	0.000017
C38	C	-0.919499	-1.195429	0.000017
C39	C	-0.865352	-1.109971	0.000026
C40	C	-0.434401	-1.205077	-0.000027
C41	C	-0.375238	-1.206245	-0.000040
C42	C	-0.326108	-1.034152	-0.000030
C43	C	-0.385266	-1.032982	-0.000022
C44	C	-0.439413	-1.118453	-0.000017
O45	O	-0.457980	-0.957992	-0.000032
O46	O	-0.548926	-1.276400	0.000002
C47	C	-0.046634	-1.106338	0.000012
C48	C	0.016326	-1.107610	0.000025
N49	N	-0.175043	-1.057554	-0.248757
C50	C	-0.296007	-0.550950	-0.000031
C51	C	-0.276698	-0.452504	-0.000026
C52	C	-0.168091	-0.429050	-0.000004
C53	C	-0.187391	-0.527495	-0.000013
C54	C	-0.251350	-0.588437	-0.000026
C55	C	-0.142734	-0.564982	-0.000008
C56	C	-0.162033	-0.663419	-0.000012
C57	C	-0.225988	-0.724369	-0.000022
C58	C	-0.270648	-0.686874	-0.000030
C59	C	-0.078775	-0.504039	0.000012
C60	C	-0.034118	-0.541527	0.000017
C61	C	-0.053417	-0.639964	0.000006
C62	C	-0.117372	-0.700913	-0.000004
C63	C	-0.008757	-0.677458	0.000014
C64	C	-0.028055	-0.775895	0.000010
C65	C	-0.136671	-0.799350	-0.000008
C66	C	-0.093172	-1.262075	-0.600512
C67	C	-0.102350	-1.239190	-0.701018
C68	C	-0.147941	-1.125370	-0.701016
C69	C	-0.138764	-1.148242	-0.600508
C70	C	-0.111380	-1.216596	-0.550264
C71	C	-0.156971	-1.102764	-0.550260
C72	C	-0.147798	-1.125638	-0.449760
C73	C	-0.120417	-1.193991	-0.399509
C74	C	-0.102206	-1.239470	-0.449765
C75	C	-0.184359	-1.034415	-0.600505
C76	C	-0.202567	-0.988937	-0.550257
C77	C	-0.193390	-1.011805	-0.449756
C78	C	-0.166008	-1.080159	-0.399505
C79	C	-0.211600	-0.966326	-0.399500
C80	C	-0.202427	-0.989200	-0.299001
C81	C	-0.156835	-1.103033	-0.299005
N82	N	-0.129730	-1.170853	0.248735
H83	H	-0.371168	-1.276798	-0.000052
H84	H	-0.079899	-1.295120	-0.408853
H85	H	-0.070865	-1.317725	-0.559601
H86	H	-0.775178	-1.355302	0.000003
C87	C	-0.082313	-1.289214	-0.756289
H88	H	-0.064687	-1.333191	-0.711968
H89	H	-0.118236	-1.323947	-0.795488
H90	H	-0.051645	-1.241357	-0.795499
C91	C	-1.038224	-1.288252	0.000023
H92	H	-1.026773	-1.340022	0.000012
H93	H	-1.057244	-1.304044	0.055702
H94	H	-1.067399	-1.278683	-0.055660
H95	H	-0.170239	-1.069719	-0.741938
C96	C	-0.207024	-0.866395	-0.000032
H97	H	-0.212120	-0.930387	-0.000041
H98	H	-0.221111	-0.867767	0.055637
H99	H	-0.231244	-0.842398	-0.055725
H100	H	-0.116016	-0.379419	0.000011
C101	C	-0.493954	-1.299091	-0.000030
H102	H	-0.482490	-1.350844	-0.000046
H103	H	-0.512981	-1.314902	0.055648
H104	H	-0.523130	-1.289526	-0.055714
H105	H	-0.933595	-0.951602	0.000015
H106	H	-0.313068	-0.421988	-0.000029
C107	C	-0.666434	-1.382187	-0.000015
H108	H	-0.623449	-1.370662	-0.000026
H109	H	-0.681151	-1.430027	0.055661
H110	H	-0.691305	-1.404661	-0.055701
C111	C	-0.232674	-0.913735	-0.605526
H112	H	-0.242203	-0.889925	-0.561203
H113	H	-0.203899	-0.861163	-0.644735
H114	H	-0.270500	-0.943727	-0.644725
H115	H	-0.826278	-0.953741	0.000028
C116	C	0.036230	-0.474485	0.000025
H117	H	0.041328	-0.410488	0.000020
H118	H	0.060457	-0.498479	0.055701
H119	H	0.050303	-0.473116	-0.055661
C120	C	-0.366360	-0.617994	-0.000055
H121	H	-0.371455	-0.681986	-0.000063
H122	H	-0.380446	-0.619366	0.055615
H123	H	-0.390580	-0.593997	-0.055747
C124	C	0.061592	-0.610417	0.000032
H125	H	0.066689	-0.546422	0.000031
H126	H	0.085816	-0.634415	0.055710
H127	H	0.075670	-0.609041	-0.055652
H128	H	-0.233902	-0.910679	-0.440424
C129	C	-0.222451	-0.939171	-0.243724
H130	H	-0.240067	-0.895179	-0.288041
H131	H	-0.253113	-0.987018	-0.204508
H132	H	-0.186519	-0.904436	-0.204530
C133	C	-0.638309	-0.846230	0.000058
H134	H	-0.597582	-0.795518	0.000071
H135	H	-0.665439	-0.829496	-0.055614
H136	H	-0.655284	-0.854878	0.055747
C137	C	-0.194456	-1.009256	-0.711053
H138	H	-0.213381	-0.962045	-0.733780
H139	H	-0.154820	-0.983806	-0.733806
H140	H	-0.221409	-1.066400	-0.733773
H141	H	-0.915428	-1.265977	0.000008
H142	H	-0.063065	-0.423887	0.000018
C143	C	-0.514092	-0.848714	0.000046
H144	H	-0.478139	-0.861819	0.000049
H145	H	-0.518770	-0.800482	-0.055625
H146	H	-0.508618	-0.825858	0.055737
C147	C	-0.390776	-0.937685	-0.000007
H148	H	-0.350053	-0.886963	-0.000001
H149	H	-0.417913	-0.920960	-0.055673
H150	H	-0.407748	-0.946340	0.055689
C151	C	-0.341002	-0.753919	-0.000054
H152	H	-0.346097	-0.817911	-0.000062
H153	H	-0.355088	-0.755291	0.055615
H154	H	-0.365221	-0.729922	-0.055746
C155	C	-0.266543	-0.940159	-0.000022
H156	H	-0.277995	-0.888388	-0.000020
H157	H	-0.237371	-0.949735	0.055655
H158	H	-0.247521	-0.924358	-0.055707
C159	C	0.021065	-0.817136	0.000016
H160	H	0.061919	-0.766741	0.000015
H161	H	0.020865	-0.867730	0.055692
H162	H	0.010721	-0.842366	-0.055670
H163	H	-0.112950	-1.212616	-0.317676
H164	H	-0.241698	-0.804525	-0.000013
C165	C	-0.126707	-1.178213	-0.243726
H166	H	-0.123849	-1.185315	-0.176676
H167	H	-0.152132	-1.239144	-0.260184
H168	H	-0.085545	-1.156546	-0.260204
