data_functionalizedCrystal
_audit_creation_method	'MofGen! by Chris Wilmer'
_symmetry_space_group_name_H-M	'P1'
_symmetry_Int_Tables_number	1
_symmetry_cell_setting	triclinic
loop_
_symmetry_equiv_pos_as_xyz
  x,y,z
_cell_length_a	19.805407
_cell_length_b	19.077432
_cell_length_c	19.805399
_cell_angle_alpha	92.324821
_cell_angle_beta	90.019573
_cell_angle_gamma	87.726944
loop_
_atom_site_label
_atom_site_type_symbol
_atom_site_fract_x
_atom_site_fract_y
_atom_site_fract_z
Zn1	Zn	1.045561	-0.280213	0.371904
Zn2	Zn	1.050023	-0.397910	0.254173
Zn3	Zn	0.932377	-0.280232	0.258728
Zn4	Zn	0.936885	-0.397873	0.367321
O5	O	0.991212	-0.339057	0.313032
O6	O	1.140870	-0.295833	0.356299
O7	O	1.034398	-0.382324	0.160060
O8	O	0.943637	-0.181740	0.277565
O9	O	1.144148	-0.382305	0.269802
O10	O	1.026793	-0.181726	0.360715
O11	O	0.947963	-0.295866	0.163406
O12	O	0.838258	-0.295830	0.273121
O13	O	0.951321	-0.382241	0.462647
O14	O	0.841570	-0.382260	0.352904
O15	O	1.031165	-0.295797	0.466014
O16	O	1.038770	-0.496394	0.265358
O17	O	0.955647	-0.496367	0.348488
C18	C	0.815355	-0.339043	0.313010
C19	C	0.740124	-0.339055	0.313016
C20	C	0.998200	-0.521918	0.305946
C21	C	1.001252	-0.600146	0.302938
C22	C	0.706525	-0.384126	0.354487
C23	C	0.635836	-0.384128	0.354496
C24	C	0.598748	-0.339060	0.313031
C25	C	0.632352	-0.293983	0.271559
C26	C	0.703039	-0.293979	0.271554
C27	C	0.347279	-0.293999	0.271581
C28	C	0.276588	-0.294008	0.271588
C29	C	0.280077	-0.384147	0.354524
C30	C	0.350763	-0.384143	0.354518
C31	C	0.384361	-0.339064	0.313049
C32	C	0.461009	-0.339062	0.313040
C33	C	0.522101	-0.339065	0.313036
C34	C	0.959379	-0.636910	0.344769
C35	C	0.962249	-0.710414	0.341940
C36	C	1.006996	-0.747153	0.297281
C37	C	1.048871	-0.710385	0.255445
C38	C	1.045997	-0.636882	0.258272
C39	C	1.020233	-0.966982	0.284187
C40	C	1.023106	-1.040490	0.281365
C41	C	0.936482	-1.040514	0.367860
C42	C	0.933615	-0.967010	0.370685
C43	C	0.975487	-0.930248	0.328846
N44	N	1.009933	-0.822286	0.294389
N45	N	0.972547	-0.855116	0.331735
C46	C	1.167755	-0.339071	0.313053
C47	C	1.242987	-0.339077	0.313063
C48	C	0.991248	-0.339013	0.489576
C49	C	0.991263	-0.338994	0.564809
C50	C	0.984214	-0.155482	0.320160
C51	C	0.981233	-0.077253	0.323197
C52	C	0.991213	-0.339050	0.137176
C53	C	0.991321	-0.338871	0.061951
C54	C	1.032839	-0.293980	0.601907
C55	C	1.032845	-0.293960	0.672597
C56	C	0.991279	-0.338957	0.706186
C57	C	0.949699	-0.383973	0.669082
C58	C	0.949689	-0.383989	0.598395
C59	C	0.949734	-0.383907	0.954158
C60	C	0.949748	-0.383889	1.024851
C61	C	1.032890	-0.293878	1.028360
C62	C	1.032881	-0.293894	0.957673
C63	C	0.991298	-0.338907	0.920575
C64	C	0.991291	-0.338927	0.843926
C65	C	0.991289	-0.338940	0.782834
H66	H	0.608483	-0.420830	0.388265
H67	H	0.736717	-0.420828	0.388250
H68	H	0.902391	-1.070453	0.401922
N69	N	0.592352	-0.245380	0.226832
H70	H	0.624365	-0.216825	0.200560
H71	H	0.561788	-0.212848	0.255695
H72	H	1.059548	-1.070401	0.244999
N73	N	1.097139	-0.750010	0.207282
H74	H	1.123229	-0.715565	0.181210
H75	H	1.070803	-0.780557	0.174758
N76	N	1.077680	-0.245452	0.565685
H77	H	1.110134	-0.274069	0.535257
H78	H	1.103972	-0.216946	0.599962
H79	H	0.922944	-0.607001	0.381138
H80	H	0.380957	-0.420844	0.388281
H81	H	0.252713	-0.420850	0.388292
H82	H	0.730394	-0.257273	0.237788
H83	H	1.066746	-0.257224	1.058574
N84	N	0.904914	-0.432423	1.061082
H85	H	0.878568	-0.460941	1.026856
H86	H	0.872508	-0.403761	1.091520
H87	H	0.897178	-0.937098	0.407050
H88	H	1.054329	-0.937056	0.250122
H89	H	1.066702	-0.257307	0.702799
N90	N	0.904846	-0.432544	0.558386
H91	H	0.933589	-0.465170	0.527794
H92	H	0.872391	-0.403896	0.530205
N93	N	0.917080	-0.750067	0.387052
H94	H	0.888298	-0.715639	0.415773
H95	H	0.945799	-0.780521	0.417230
H96	H	0.246392	-0.257305	0.237823
N97	N	0.904864	-0.432446	0.914170
H98	H	0.917282	-0.482734	0.924519
H99	H	0.911162	-0.425576	0.864303
N100	N	0.383511	-0.245370	0.226867
H101	H	0.349288	-0.216820	0.200603
H102	H	0.413928	-0.273959	0.194384
N103	N	1.091158	-0.597227	0.213152
H104	H	1.119943	-0.631653	0.184433
H105	H	1.121270	-0.566680	0.241907
H106	H	0.915852	-0.420608	0.696436
H107	H	1.066731	-0.257255	0.930328
