data_functionalizedCrystal
_audit_creation_method	'MofGen! by Chris Wilmer'
_symmetry_space_group_name_H-M	'P1'
_symmetry_Int_Tables_number	1
_symmetry_cell_setting	triclinic
loop_
_symmetry_equiv_pos_as_xyz
  x,y,z
_cell_length_a	16.992695
_cell_length_b	16.992694
_cell_length_c	15.455313
_cell_angle_alpha	92.857794
_cell_angle_beta	87.152573
_cell_angle_gamma	90.668223
loop_
_atom_site_label
_atom_site_type_symbol
_atom_site_fract_x
_atom_site_fract_y
_atom_site_fract_z
O1	O	-0.163694	-1.054080	-0.072023
O2	O	0.336306	-0.554080	0.427977
O3	O	-0.161862	-0.825681	-0.072048
O4	O	0.338138	-0.325681	0.427952
O5	O	-0.048579	-0.938965	-0.072029
O6	O	0.451421	-0.438965	0.427971
O7	O	-0.276978	-0.940797	-0.072042
O8	O	0.223022	-0.440797	0.427958
O9	O	-0.055028	-0.932485	0.072232
O10	O	0.444972	-0.432485	0.572232
O11	O	-0.168312	-0.819202	0.072213
O12	O	0.331688	-0.319202	0.572213
O13	O	-0.170144	-1.047601	0.072238
O14	O	0.329856	-0.547601	0.572238
Cu15	Cu	-0.169817	-0.932809	0.085398
Cu16	Cu	0.330183	-0.432809	0.585398
Cu17	Cu	-0.162189	-0.940473	-0.085207
Cu18	Cu	0.337811	-0.440473	0.414793
O19	O	-0.283428	-0.934317	0.072219
O20	O	0.216572	-0.434317	0.572219
C21	C	-0.022443	-0.933369	0.000102
C22	C	0.477557	-0.433369	0.500102
C23	C	0.065041	-0.926341	0.000101
C24	C	0.565041	-0.426341	0.500101
C25	C	-0.162731	-0.793081	0.000079
C26	C	0.337269	-0.293081	0.500079
C27	C	-0.155702	-0.705597	0.000070
C28	C	0.344298	-0.205597	0.500070
C29	C	-0.169275	-1.080201	0.000109
C30	C	0.330725	-0.580201	0.500109
C31	C	-0.176304	-1.167685	0.000113
C32	C	0.323696	-0.667685	0.500113
C33	C	-0.309563	-0.939913	0.000087
C34	C	0.190437	-0.439913	0.500087
C35	C	-0.397047	-0.946942	0.000082
C36	C	0.102953	-0.446942	0.500082
C37	C	0.111032	-0.994158	0.000109
C38	C	0.611032	-0.494158	0.500109
C39	C	0.193233	-0.987550	0.000100
C40	C	0.693233	-0.487550	0.500100
C41	C	0.229442	-0.913123	0.000089
C42	C	0.729442	-0.413123	0.500089
C43	C	0.183445	-0.845300	0.000078
C44	C	0.683445	-0.345300	0.500078
C45	C	0.101246	-0.851910	0.000081
C46	C	0.601246	-0.351910	0.500081
C47	C	0.474757	-0.885729	0.000074
C48	C	0.974757	-0.385729	0.500074
C49	C	0.556962	-0.879124	0.000074
C50	C	1.056962	-0.379124	0.500074
C51	C	0.566744	-1.021375	0.000094
C52	C	1.066744	-0.521375	0.500094
C53	C	0.484543	-1.027977	0.000102
C54	C	0.984543	-0.527977	0.500102
C55	C	0.438554	-0.960155	0.000087
C56	C	0.938554	-0.460155	0.500087
N57	N	0.313464	-0.906366	0.000082
N58	N	0.813464	-0.406366	0.500082
N59	N	0.354533	-0.966913	0.000087
N60	N	0.854533	-0.466913	0.500087
C61	C	-0.223520	-0.659607	0.000066
C62	C	0.276480	-0.159607	0.500066
C63	C	-0.216911	-0.577405	0.000079
C64	C	0.283089	-0.077405	0.500079
C65	C	-0.142484	-0.541197	0.000088
C66	C	0.357516	-0.041197	0.500088
C67	C	-0.074661	-0.587193	0.000094
C68	C	0.425339	-0.087193	0.500094
C69	C	-0.081271	-0.669393	0.000088
C70	C	0.418729	-0.169393	0.500088
C71	C	-0.115091	-0.295881	0.000113
C72	C	0.384909	0.204119	0.500113
C73	C	-0.108486	-0.213676	0.000116
C74	C	0.391514	0.286324	0.500116
C75	C	-0.250737	-0.203893	0.000103
C76	C	0.249263	0.296107	0.500103
C77	C	-0.257340	-0.286095	0.000091
C78	C	0.242660	0.213905	0.500091
C79	C	-0.189517	-0.332084	0.000102
C80	C	0.310483	0.167916	0.500102
N81	N	-0.135727	-0.457174	0.000098
N82	N	0.364273	0.042826	0.500098
N83	N	-0.196275	-0.416105	0.000098
N84	N	0.303725	0.083895	0.500098
N85	N	-0.175181	-0.927425	0.205392
N86	N	0.324819	-0.427425	0.705392
N87	N	-0.156819	-0.945863	-0.205202
N88	N	0.343181	-0.445863	0.294798
C89	C	-0.127074	-0.975571	0.250795
C90	C	0.372926	-0.475571	0.750795
C91	C	-0.131139	-0.971507	0.341602
C92	C	0.368861	-0.471507	0.841602
C93	C	-0.183315	-0.919301	0.387005
C94	C	0.316685	-0.419301	0.887005
C95	C	-0.231424	-0.871149	0.341596
C96	C	0.268576	-0.371149	0.841596
C97	C	-0.227355	-0.875210	0.250791
C98	C	0.272645	-0.375210	0.750791
C99	C	-0.200858	-0.901772	0.658584
C100	C	0.299142	-0.401772	1.158584
C101	C	-0.204926	-0.897717	0.749395
C102	C	0.295074	-0.397717	1.249395
C103	C	-0.104639	-0.998074	0.749395
C104	C	0.395361	-0.498074	1.249395
C105	C	-0.100578	-1.002133	0.658588
C106	C	0.399422	-0.502133	1.158588
C107	C	-0.148684	-0.953979	0.613187
C108	C	0.351316	-0.453979	1.113187
N109	N	-0.187473	-0.915147	0.479825
N110	N	0.312527	-0.415147	0.979825
N111	N	-0.144522	-0.958129	0.520369
N112	N	0.355478	-0.458129	1.020369
H113	H	0.081557	-1.054764	0.000124
H114	H	0.581557	-0.554764	0.500124
Cl115	Cl	-0.335994	-0.146074	0.000093
Cl116	Cl	0.164006	0.353926	0.500093
H117	H	0.604197	-1.076591	0.000106
H118	H	1.104197	-0.576591	0.500106
Cl119	Cl	0.251047	-1.072811	0.000113
Cl120	Cl	0.751047	-0.572811	0.500113
Cl121	Cl	0.439031	-1.121548	0.000088
Cl122	Cl	0.939031	-0.621548	0.500088
Cl123	Cl	0.043429	-0.766649	0.000067
Cl124	Cl	0.543429	-0.266649	0.500067
H125	H	0.586440	-0.818513	0.000079
H126	H	1.086440	-0.318513	0.500079
Cl127	Cl	0.416953	-0.800465	0.000052
Cl128	Cl	0.916953	-0.300465	0.500052
H129	H	-0.240030	-0.862564	0.621625
H130	H	0.259970	-0.362564	1.121625
Cl131	Cl	0.228966	-0.751734	0.000053
Cl132	Cl	0.728966	-0.251734	0.500053
Cl133	Cl	0.018905	-0.541673	0.000111
Cl134	Cl	0.518905	-0.041673	0.500111
H135	H	-0.273904	-0.828638	0.378569
H136	H	0.226096	-0.328638	0.878569
Cl137	Cl	-0.317090	-0.705118	0.000049
Cl138	Cl	0.182910	-0.205118	0.500049
Cl139	Cl	-0.061482	-1.041210	0.193726
Cl140	Cl	0.438518	-0.541210	0.693726
H141	H	-0.091966	-1.010711	0.378568
H142	H	0.408034	-0.510711	0.878568
Cl143	Cl	-0.287832	-0.814678	0.193714
Cl144	Cl	0.212168	-0.314678	0.693714
H145	H	-0.047876	-0.184198	0.000123
H146	H	0.452124	0.315802	0.500123
Cl147	Cl	-0.034986	-1.067766	0.601509
Cl148	Cl	0.465014	-0.567766	1.101509
H149	H	-0.026046	-0.706838	0.000090
H150	H	0.473954	-0.206838	0.500090
H151	H	-0.247417	-0.855202	0.786359
H152	H	0.252583	-0.355202	1.286359
Cl153	Cl	-0.302172	-0.519592	0.000069
Cl154	Cl	0.197828	-0.019592	0.500069
H155	H	-0.317946	-0.315570	0.000074
H156	H	0.182054	0.184430	0.500074
Cl157	Cl	-0.029827	-0.353686	0.000125
Cl158	Cl	0.470173	0.146314	0.500125
H159	H	-0.065473	-1.037278	0.786369
H160	H	0.434527	-0.537278	1.286369
