data_functionalizedCrystal
_audit_creation_method	'MofGen! by Chris Wilmer'
_symmetry_space_group_name_H-M	'P1'
_symmetry_Int_Tables_number	1
_symmetry_cell_setting	triclinic
loop_
_symmetry_equiv_pos_as_xyz
  x,y,z
_cell_length_a	11.792241
_cell_length_b	11.792241
_cell_length_c	9.130307
_cell_angle_alpha	90.003455
_cell_angle_beta	89.997319
_cell_angle_gamma	84.193416
loop_
_atom_site_label
_atom_site_type_symbol
_atom_site_fract_x
_atom_site_fract_y
_atom_site_fract_z
O1	O	1.506904	0.155566	0.121658
O2	O	1.176563	0.171599	0.121692
O3	O	1.349750	-0.001588	0.121664
O4	O	1.333717	0.328753	0.121686
O5	O	1.349744	-0.001590	-0.121935
O6	O	1.176557	0.171597	-0.121907
O7	O	1.506898	0.155564	-0.121941
Cu8	Cu	1.341727	0.163581	-0.144167
Cu9	Cu	1.341734	0.163583	0.143917
O10	O	1.333711	0.328751	-0.121913
C11	C	1.134269	0.170591	-0.000103
C12	C	1.008255	0.167576	-0.000090
C13	C	0.777543	0.162034	-0.000133
C14	C	0.905928	0.165113	-0.000110
C15	C	1.348740	-0.043880	-0.000135
C16	C	1.345726	-0.169894	-0.000133
C17	C	1.340183	-0.400606	-0.000108
C18	C	1.343262	-0.272221	-0.000122
C19	C	1.549192	0.156572	-0.000143
C20	C	1.675206	0.159587	-0.000146
C21	C	1.334721	0.371043	-0.000111
C22	C	1.337736	0.497057	-0.000103
N23	N	1.341731	0.163578	-0.346789
C24	C	1.495151	0.010266	-0.346804
C25	C	1.571868	-0.066387	-0.423479
C26	C	1.571880	-0.066387	-0.576812
C27	C	1.495163	0.010271	-0.653475
C28	C	1.418446	0.086924	-0.576801
C29	C	1.418445	0.086918	-0.423464
C30	C	1.265022	0.240229	-0.576786
C31	C	1.265014	0.240237	-0.423452
C32	C	1.188305	0.316887	-0.653448
C33	C	1.111591	0.393547	-0.576774
C34	C	1.111584	0.393545	-0.423431
C35	C	1.188297	0.316889	-0.346778
N36	N	1.341739	0.163576	0.346540
H37	H	1.495159	0.010268	-0.221952
H38	H	1.188313	0.316878	-0.778301
H39	H	1.634346	-0.128809	-0.639240
H40	H	1.049129	0.455951	-0.639202
O41	O	1.646397	-0.140689	-0.348781
C42	C	1.714456	-0.208568	-0.112569
C43	C	1.629982	-0.124374	-0.196973
H44	H	1.701198	-0.195423	0.010183
H45	H	1.805445	-0.193080	-0.142657
H46	H	1.699210	-0.299598	-0.142764
H47	H	1.645123	-0.033311	-0.166823
H48	H	1.539022	-0.139961	-0.166878
O49	O	1.495352	0.010147	-0.802422
C50	C	1.579488	-0.074031	-1.022471
C51	C	1.579416	-0.073996	-0.853789
H52	H	1.647430	-0.142069	-1.064053
H53	H	1.598720	0.013114	-1.064180
H54	H	1.492294	-0.093213	-1.064059
H55	H	1.666585	-0.054861	-0.812076
H56	H	1.560120	-0.161148	-0.812180
O57	O	1.037017	0.468117	-0.349182
C58	C	0.884788	0.620129	-0.365369
C59	C	0.969192	0.535755	-0.449631
H60	H	0.829914	0.674820	-0.446545
H61	H	0.934063	0.677251	-0.293620
H62	H	0.827845	0.570716	-0.293544
H63	H	1.026156	0.585075	-0.521535
H64	H	0.919846	0.478634	-0.521287
O65	O	1.188173	0.317073	-0.197831
C66	C	1.103933	0.401131	0.022226
C67	C	1.103967	0.401070	-0.146455
H68	H	1.035843	0.469020	0.063815
H69	H	1.191055	0.420436	0.063939
H70	H	1.084826	0.313912	0.063804
H71	H	1.123026	0.488265	-0.188158
H72	H	1.016839	0.381702	-0.188068
