data_functionalizedCrystal
_audit_creation_method	'MofGen! by Chris Wilmer'
_symmetry_space_group_name_H-M	'P1'
_symmetry_Int_Tables_number	1
_symmetry_cell_setting	triclinic
loop_
_symmetry_equiv_pos_as_xyz
  x,y,z
_cell_length_a	11.169417
_cell_length_b	19.805405
_cell_length_c	11.169409
_cell_angle_alpha	89.962829
_cell_angle_beta	89.980176
_cell_angle_gamma	90.027605
loop_
_atom_site_label
_atom_site_type_symbol
_atom_site_fract_x
_atom_site_fract_y
_atom_site_fract_z
Zn1	Zn	1.834826	-0.269393	-0.678502
Zn2	Zn	2.168159	0.063941	-0.345169
Zn3	Zn	2.501492	0.397274	-0.011836
Zn4	Zn	1.834658	-0.382602	-0.477802
Zn5	Zn	2.167991	-0.049268	-0.144469
Zn6	Zn	2.501324	0.284065	0.188864
Zn7	Zn	1.634112	-0.269434	-0.477837
Zn8	Zn	1.967445	0.063900	-0.144503
Zn9	Zn	2.300778	0.397233	0.188830
Zn10	Zn	1.634062	-0.382547	-0.678447
Zn11	Zn	1.967395	-0.049213	-0.345114
Zn12	Zn	2.300728	0.284120	-0.011781
O13	O	1.734414	-0.325994	-0.578147
O14	O	2.067747	0.007340	-0.244814
O15	O	2.401081	0.340673	0.088519
O16	O	2.002753	-0.284416	-0.651888
O17	O	2.336086	0.048918	-0.318554
O18	O	2.669420	0.382251	0.014779
O19	O	1.808005	-0.367630	-0.309857
O20	O	2.141339	-0.034297	0.023476
O21	O	2.474672	0.299037	0.356810
O22	O	1.660828	-0.174712	-0.504493
O23	O	1.994161	0.158622	-0.171160
O24	O	2.327495	0.491955	0.162174
O25	O	2.002630	-0.367590	-0.504434
O26	O	2.335963	-0.034257	-0.171101
O27	O	2.669296	0.299077	0.162232
O28	O	1.808292	-0.174681	-0.651921
O29	O	2.141625	0.158652	-0.318588
O30	O	2.474958	0.491985	0.014746
O31	O	1.660665	-0.284486	-0.309882
O32	O	1.993998	0.048847	0.023451
O33	O	2.327332	0.382181	0.356784
O34	O	1.466155	-0.284433	-0.504439
O35	O	1.799489	0.048901	-0.171106
O36	O	2.132822	0.382234	0.162227
O37	O	1.660743	-0.367496	-0.846404
O38	O	1.994076	-0.034163	-0.513071
O39	O	2.327410	0.299170	-0.179738
O40	O	1.466119	-0.367536	-0.651827
O41	O	1.799452	-0.034203	-0.318494
O42	O	2.132785	0.299130	0.014840
O43	O	1.808243	-0.284362	-0.846445
O44	O	2.141577	0.048971	-0.513112
O45	O	2.474910	0.382304	-0.179778
O46	O	1.807957	-0.477311	-0.504381
O47	O	2.141290	-0.143978	-0.171048
O48	O	2.474624	0.189356	0.162286
O49	O	1.660580	-0.477271	-0.651794
O50	O	1.993913	-0.143937	-0.318460
O51	O	2.327247	0.189396	0.014873
C52	C	1.422589	-0.325983	-0.578132
C53	C	1.755923	0.007350	-0.244798
C54	C	2.089256	0.340683	0.088535
C55	C	1.289189	-0.325995	-0.578154
C56	C	1.622523	0.007338	-0.244820
C57	C	1.955856	0.340671	0.088513
C58	C	1.734277	-0.501850	-0.578104
C59	C	2.067611	-0.168516	-0.244770
C60	C	2.400944	0.164817	0.088563
C61	C	1.734329	-0.577082	-0.578125
C62	C	2.067662	-0.243748	-0.244792
C63	C	2.400995	0.089585	0.088541
C64	C	1.811068	-0.612352	-0.654951
C65	C	2.144401	-0.279018	-0.321618
C66	C	2.477734	0.054315	0.011715
C67	C	1.811111	-0.683040	-0.654974
C68	C	2.144444	-0.349707	-0.321640
C69	C	2.477778	-0.016374	0.011693
C70	C	1.734420	-0.718457	-0.578163
C71	C	2.067754	-0.385124	-0.244830
C72	C	2.401087	-0.051791	0.088504
C73	C	1.657673	-0.683182	-0.501334
C74	C	1.991006	-0.349849	-0.168000
C75	C	2.324340	-0.016515	0.165333
C76	C	1.657625	-0.612495	-0.501318
C77	C	1.990958	-0.279162	-0.167985
C78	C	2.324291	0.054172	0.165348
C79	C	1.657866	-0.968255	-0.501395
C80	C	1.991199	-0.634922	-0.168062
C81	C	2.324532	-0.301589	0.165272
C82	C	1.657923	-1.038947	-0.501414
C83	C	1.991256	-0.705614	-0.168081
C84	C	2.324589	-0.372281	0.165253
C85	C	1.811352	-1.038801	-0.655051
C86	C	2.144686	-0.705467	-0.321717
C87	C	2.478019	-0.372134	0.011616
C88	C	1.811304	-0.968113	-0.655035
C89	C	2.144637	-0.634780	-0.321702
C90	C	2.477970	-0.301447	0.011632
C91	C	1.734552	-0.932845	-0.578211
C92	C	2.067886	-0.599511	-0.244877
C93	C	2.401219	-0.266178	0.088456
C94	C	1.734505	-0.856196	-0.578189
C95	C	2.067838	-0.522863	-0.244856
C96	C	2.401171	-0.189530	0.088478
C97	C	1.734473	-0.795104	-0.578178
C98	C	2.067807	-0.461771	-0.244844
C99	C	2.401140	-0.128438	0.088489
C100	C	2.047456	-0.326004	-0.578163
C101	C	2.380790	0.007329	-0.244830
C102	C	2.714123	0.340662	0.088503
C103	C	2.180856	-0.326009	-0.578170
C104	C	2.514190	0.007324	-0.244837
C105	C	2.847523	0.340658	0.088496
C106	C	1.734506	-0.325919	-0.891190
C107	C	2.067840	0.007415	-0.557856
C108	C	2.401173	0.340748	-0.224523
C109	C	1.734546	-0.325886	-1.024590
C110	C	2.067879	0.007447	-0.691257
C111	C	2.401212	0.340780	-0.357923
C112	C	1.734584	-0.149451	-0.578217
C113	C	2.067917	0.183882	-0.244884
C114	C	2.401251	0.517216	0.088450
C115	C	1.734657	-0.074219	-0.578247
C116	C	2.067990	0.259114	-0.244914
C117	C	2.401323	0.592448	0.088420
C118	C	1.734391	-0.326020	-0.266322
C119	C	2.067725	0.007314	0.067011
C120	C	2.401058	0.340647	0.400344
C121	C	1.734585	-0.325861	-0.132923
C122	C	2.067918	0.007472	0.200410
C123	C	2.401251	0.340806	0.533744
H124	H	1.873523	-0.583520	-0.717494
H125	H	2.206856	-0.250187	-0.384161
H126	H	2.540190	0.083147	-0.050827
H127	H	1.873756	-0.939279	-0.717577
H128	H	2.207090	-0.605946	-0.384244
H129	H	2.540423	-0.272612	-0.050911
H130	H	1.595374	-0.939545	-0.438840
H131	H	1.928708	-0.606212	-0.105506
H132	H	2.262041	-0.272878	0.227827
C133	C	1.573214	-0.573695	-0.416812
C134	C	1.906547	-0.240361	-0.083479
C135	C	2.239881	0.092972	0.249855
H136	H	1.584159	-0.526524	-0.427812
H137	H	1.917492	-0.193191	-0.094479
H138	H	2.250826	0.140143	0.238854
H139	H	1.590822	-0.585304	-0.336189
H140	H	1.924155	-0.251970	-0.002855
H141	H	2.257488	0.081363	0.330478
H142	H	1.492571	-0.585313	-0.434323
H143	H	1.825904	-0.251980	-0.100989
H144	H	2.159238	0.081354	0.232344
H145	H	1.873609	-0.711754	-0.717524
H146	H	2.206942	-0.378421	-0.384191
H147	H	2.540276	-0.045087	-0.050857
H148	H	1.595466	-1.067782	-0.438863
H149	H	1.928800	-0.734449	-0.105530
H150	H	2.262133	-0.401115	0.227803
C151	C	1.895768	-1.077598	-0.739568
C152	C	2.229101	-0.744265	-0.406235
C153	C	2.562434	-0.410931	-0.072902
H154	H	1.884808	-1.124769	-0.728591
H155	H	2.218141	-0.791436	-0.395257
H156	H	2.551474	-0.458103	-0.061924
H157	H	1.976407	-1.065982	-0.722069
H158	H	2.309740	-0.732649	-0.388736
H159	H	2.643074	-0.399315	-0.055403
H160	H	1.878147	-1.065984	-0.820193
H161	H	2.211480	-0.732651	-0.486860
H162	H	2.544814	-0.399317	-0.153527
H163	H	1.595225	-0.712024	-0.438798
H164	H	1.928559	-0.378691	-0.105465
H165	H	2.261892	-0.045358	0.227869
