data_functionalizedCrystal
_audit_creation_method	'MofGen! by Chris Wilmer'
_symmetry_space_group_name_H-M	'P1'
_symmetry_Int_Tables_number	1
_symmetry_cell_setting	triclinic
loop_
_symmetry_equiv_pos_as_xyz
  x,y,z
_cell_length_a	11.026607
_cell_length_b	11.026607
_cell_length_c	9.482944
_cell_angle_alpha	81.873049
_cell_angle_beta	81.814568
_cell_angle_gamma	108.586017
loop_
_atom_site_label
_atom_site_type_symbol
_atom_site_fract_x
_atom_site_fract_y
_atom_site_fract_z
O1	O	-1.748415	-0.555227	0.120893
O2	O	-1.381836	-0.494464	0.120895
O3	O	-1.534743	-0.341555	0.120889
O4	O	-1.595508	-0.708137	0.120899
O5	O	-1.491359	-0.298336	-0.120904
O6	O	-1.338452	-0.451246	-0.120898
O7	O	-1.705032	-0.512009	-0.120900
Cu8	Cu	-1.517781	-0.477681	-0.142977
Cu9	Cu	-1.569087	-0.528792	0.142972
O10	O	-1.552125	-0.664918	-0.120894
C11	C	-1.312484	-0.461645	-0.000001
C12	C	-1.170471	-0.428228	-0.000000
C13	C	-1.501842	-0.272286	-0.000006
C14	C	-1.468426	-0.130273	-0.000000
C15	C	-1.774384	-0.544828	-0.000001
C16	C	-1.916399	-0.578247	0.000008
C17	C	-1.116822	-0.520499	0.000003
C18	C	-0.970044	-0.485963	0.000004
C19	C	-1.585027	-0.734187	0.000004
C20	C	-1.618444	-0.876202	0.000008
N21	N	-1.481704	-0.441733	-0.344097
C22	C	-1.560696	-0.076624	0.000001
C23	C	-1.526161	0.070153	0.000007
C24	C	-1.558436	-0.518186	-0.416296
C25	C	-1.528428	-0.488267	-0.583713
N26	N	-1.605171	-0.564732	0.344092
H27	H	-1.179554	-0.625061	-0.000002
H28	H	-1.107744	-0.323672	0.000034
H29	H	-1.440516	-0.400655	-0.645840
H30	H	-1.393798	-0.354127	-0.406229
H31	H	-0.907321	-0.381400	0.000039
H32	H	-0.979125	-0.682816	0.000001
H33	H	-1.665257	-0.139356	-0.000009
H34	H	-1.421593	0.132881	0.000017
N35	N	-1.756956	0.040713	-0.000001
H36	H	-1.784754	0.075446	-0.089634
H37	H	-1.816830	0.043419	0.089690
H38	H	-1.363865	-0.067542	0.000010
H39	H	-1.646350	-0.605786	-0.354163
N40	N	-1.721634	-0.680777	-0.573635
H41	H	-1.726568	-0.685702	-0.465700
H42	H	-1.712226	-0.763322	-0.600164
