data_functionalizedCrystal
_audit_creation_method	'MofGen! by Chris Wilmer'
_symmetry_space_group_name_H-M	'P1'
_symmetry_Int_Tables_number	1
_symmetry_cell_setting	triclinic
loop_
_symmetry_equiv_pos_as_xyz
  x,y,z
_cell_length_a	23.532355
_cell_length_b	27.732025
_cell_length_c	22.010155
_cell_angle_alpha	89.996301
_cell_angle_beta	89.986752
_cell_angle_gamma	82.730483
loop_
_atom_site_label
_atom_site_type_symbol
_atom_site_fract_x
_atom_site_fract_y
_atom_site_fract_z
O1	O	0.755137	0.058565	0.050424
O2	O	0.589251	0.067082	0.050441
O3	O	0.677353	-0.007567	0.050450
O4	O	0.667035	0.133214	0.050414
O5	O	0.677367	-0.007580	-0.050600
O6	O	0.589265	0.067069	-0.050610
O7	O	0.755151	0.058552	-0.050626
Cu8	Cu	0.672209	0.062809	-0.059845
Cu9	Cu	0.672193	0.062825	0.059659
O10	O	0.667049	0.133201	-0.050636
C11	C	0.568042	0.066862	-0.000082
C12	C	0.504824	0.066222	-0.000075
C13	C	0.112827	0.062194	-0.055182
C14	C	0.053429	0.061585	-0.055184
O15	O	0.022718	0.061247	-0.102029
N16	N	0.023714	0.061290	-0.000101
C17	C	0.053400	0.061599	0.054987
O18	O	0.022671	0.061292	0.101839
C19	C	0.112798	0.062205	0.054988
C20	C	0.142509	0.062504	-0.000098
C21	C	0.142539	0.062493	-0.110263
C22	C	0.201932	0.063103	-0.110261
C23	C	0.231615	0.063413	-0.055177
C24	C	0.201903	0.063114	-0.000095
C25	C	0.142484	0.062510	0.110076
C26	C	0.201886	0.063116	0.110073
C27	C	0.231597	0.063415	0.054987
C28	C	0.290979	0.064035	0.054991
N29	N	0.320694	0.064329	-0.000091
C30	C	0.291012	0.064019	-0.055175
C31	C	-0.071338	0.060327	0.054979
C32	C	-0.130735	0.059725	0.054978
C33	C	-0.130702	0.059710	-0.055192
C34	C	-0.071305	0.060315	-0.055191
C35	C	-0.041623	0.060622	-0.000103
C36	C	0.415743	0.065300	-0.055166
C37	C	0.475142	0.065912	-0.055159
C38	C	0.475104	0.065924	0.055012
C39	C	0.415711	0.065315	0.055005
C40	C	0.386032	0.065001	-0.000089
O41	O	0.321729	0.064370	0.101812
O42	O	0.321750	0.064320	-0.102019
C43	C	0.677145	-0.025581	-0.000069
C44	C	0.676499	-0.079237	-0.000051
C45	C	0.671900	-0.462402	0.054997
C46	C	0.674319	-0.260739	0.055016
O47	O	0.674648	-0.234665	0.101863
N48	N	0.674628	-0.235525	-0.000065
C49	C	0.674337	-0.260729	-0.055155
O50	O	0.674662	-0.234656	-0.102004
C51	C	0.671923	-0.462392	-0.055173
C52	C	0.671608	-0.487603	-0.000089
C53	C	0.671585	-0.487613	0.110077
C54	C	0.670978	-0.538026	0.110071
C55	C	0.670685	-0.563226	0.054986
C56	C	0.671000	-0.538015	-0.000094
C57	C	0.671636	-0.487596	-0.110262
C58	C	0.671034	-0.538015	-0.110262
C59	C	0.670719	-0.563226	-0.055178
C60	C	0.670100	-0.613628	-0.055185
N61	N	0.669790	-0.638843	-0.000104
C62	C	0.670082	-0.613642	0.054981
C63	C	0.675604	-0.154854	-0.055141
C64	C	0.676206	-0.104438	-0.055136
C65	C	0.676189	-0.104452	0.055035
C66	C	0.675582	-0.154867	0.055029
C67	C	0.675294	-0.180068	-0.000060
C68	C	0.668806	-0.719511	0.054966
C69	C	0.668196	-0.769928	0.054956
C70	C	0.668217	-0.769910	-0.055215
C71	C	0.668824	-0.719498	-0.055205
C72	C	0.669120	-0.694300	-0.000110
O73	O	0.669777	-0.639734	-0.102007
O74	O	0.669770	-0.639725	0.101824
C75	C	0.672508	-0.411990	0.055002
C76	C	0.672823	-0.386778	-0.000078
C77	C	0.672530	-0.411979	-0.055163
C78	C	0.673425	-0.336363	-0.000073
C79	C	0.673718	-0.311162	0.055012
C80	C	0.673408	-0.336376	0.110093
C81	C	0.672801	-0.386789	0.110088
C82	C	0.672840	-0.386765	-0.110244
C83	C	0.673447	-0.336352	-0.110234
C84	C	0.673740	-0.311151	-0.055149
C85	C	0.776360	0.058772	-0.000102
C86	C	0.839578	0.059412	-0.000106
C87	C	0.667257	0.151215	-0.000116
C88	C	0.667903	0.204871	-0.000130
N89	N	0.672182	0.062832	0.143711
N90	N	0.672225	0.062798	-0.143897
C91	C	0.711301	0.029826	0.563495
C92	C	0.711306	0.029824	0.627103
O93	O	0.744558	0.001781	0.659998
N94	N	0.672221	0.062810	0.658919
C95	C	0.633134	0.095802	0.627123
O96	O	0.599890	0.123859	0.660026
C97	C	0.633133	0.095806	0.563517
C98	C	0.672216	0.062816	0.531704
C99	C	0.750382	-0.003161	0.531682
C100	C	0.750377	-0.003160	0.468079
C101	C	0.711292	0.029830	0.436289
C102	C	0.672211	0.062817	0.468101
C103	C	0.594049	0.128801	0.531723
C104	C	0.594052	0.128803	0.468112
C105	C	0.633135	0.095812	0.436300
C106	C	0.633121	0.095808	0.372707
N107	N	0.672205	0.062823	0.340892
C108	C	0.711291	0.029834	0.372682
C109	C	0.633139	0.095792	0.760701
C110	C	0.633137	0.095786	0.824307
C111	C	0.711310	0.029808	0.824281
C112	C	0.711309	0.029812	0.760675
C113	C	0.672224	0.062807	0.728885
C114	C	0.711277	0.029840	0.239111
C115	C	0.711267	0.029843	0.175502
C116	C	0.633097	0.095822	0.175533
C117	C	0.633105	0.095817	0.239136
C118	C	0.672199	0.062824	0.270924
O119	O	0.599887	0.123839	0.339772
O120	O	0.744534	0.001786	0.339772
H121	H	0.499282	0.066179	0.099860
H122	H	0.226119	0.063344	-0.155117
H123	H	0.671899	-0.467078	-0.155118
C124	C	0.753686	-0.006129	0.858709
C125	C	0.744920	-0.053588	0.843182
C126	C	0.783938	-0.086723	0.874864
H127	H	0.791652	-0.001064	0.848282
H128	H	0.748124	-0.001482	0.901164
H129	H	0.750487	-0.058232	0.800737
H130	H	0.706962	-0.058668	0.853611
H131	H	0.778376	-0.082076	0.917319
H132	H	0.821902	-0.081654	0.864435
H133	H	0.777992	-0.118928	0.864338
H134	H	0.601274	0.122676	0.265038
H135	H	0.676423	-0.083924	0.099887
C136	C	0.675258	-0.182119	-0.115020
C137	C	0.675641	-0.149239	-0.163250
C138	C	0.675312	-0.174334	-0.218420
H139	H	0.708238	-0.205636	-0.117407
H140	H	0.641784	-0.197924	-0.117345
H141	H	0.709111	-0.133442	-0.160926
H142	H	0.642664	-0.125722	-0.160883
H143	H	0.641839	-0.190140	-0.220744
H144	H	0.708292	-0.197850	-0.220800
H145	H	0.675567	-0.152029	-0.251150
C146	C	0.753759	-0.005917	0.273664
C147	C	0.788347	0.019714	0.310176
C148	C	0.827478	-0.013216	0.342015
H149	H	0.733545	-0.025988	0.298522
H150	H	0.777064	-0.025566	0.245632
H151	H	0.765045	0.039354	0.338204
H152	H	0.808574	0.039783	0.285333
H153	H	0.850783	-0.032864	0.313983
H154	H	0.807259	-0.033285	0.366869
H155	H	0.850954	0.004170	0.366788
H156	H	0.670800	-0.558531	-0.155123
C157	C	-0.162930	0.059482	0.114832
C158	C	-0.155259	0.101221	0.148059
C159	C	-0.184899	0.101008	0.203205
H160	H	-0.202570	0.059100	0.107034
H161	H	-0.148591	0.031407	0.137504
H162	H	-0.169601	0.129289	0.125392
H163	H	-0.115626	0.101613	0.155873
H164	H	-0.170560	0.072933	0.225877
H165	H	-0.224537	0.100625	0.195401
H166	H	-0.179694	0.129325	0.225759
C167	C	0.590673	0.131656	0.858732
C168	C	0.556455	0.160552	0.817269
C169	C	0.517337	0.193607	0.848957
H170	H	0.567111	0.114388	0.883556
H171	H	0.610915	0.151752	0.883524
H172	H	0.536215	0.140457	0.792488
H173	H	0.580002	0.177829	0.792444
H174	H	0.537579	0.213704	0.873748
H175	H	0.493779	0.176336	0.873779
H176	H	0.494119	0.213220	0.820829
H177	H	0.669058	-0.698967	-0.100059
C178	C	0.507485	0.066159	-0.114925
C179	C	0.548379	0.024922	-0.118126
C180	C	0.578186	0.025135	-0.173168
H181	H	0.481366	0.065861	-0.147781
H182	H	0.526093	0.094575	-0.117230
H183	H	0.529772	-0.003486	-0.115828
H184	H	0.574510	0.025212	-0.085283
H185	H	0.596795	0.053551	-0.175473
H186	H	0.552064	0.024838	-0.206019
H187	H	0.605940	-0.002841	-0.175345
H188	H	0.601272	0.122680	0.149639
H189	H	0.601307	0.122659	0.734821
C190	C	0.383625	0.064988	-0.115045
C191	C	0.422365	0.065394	-0.163276
C192	C	0.392797	0.065117	-0.218444
H193	H	0.365049	0.036566	-0.117423
H194	H	0.355868	0.092955	-0.117377
H195	H	0.450112	0.037430	-0.160945
H196	H	0.440943	0.093814	-0.160919
H197	H	0.365040	0.093083	-0.220777
H198	H	0.374223	0.036694	-0.220816
H199	H	0.419077	0.065396	-0.251176
H200	H	0.743093	0.002976	0.149602
H201	H	0.671826	-0.467100	0.154937
H202	H	0.118378	0.062239	-0.155122
H203	H	0.676452	-0.083914	-0.099992
C204	C	-0.039147	0.060610	-0.115062
C205	C	-0.077861	0.060197	-0.163298
C206	C	-0.048260	0.060460	-0.218463
H207	H	-0.020566	0.089029	-0.117449
H208	H	-0.011392	0.032640	-0.117379
H209	H	-0.105606	0.088163	-0.160982
H210	H	-0.096443	0.031779	-0.160932
H211	H	-0.020505	0.032490	-0.220780
H212	H	-0.029680	0.088879	-0.220843
H213	H	-0.074522	0.060175	-0.251198
H214	H	0.782203	-0.030022	0.442181
C215	C	0.551591	0.164678	0.566142
C216	C	0.517380	0.193575	0.524674
C217	C	0.478266	0.226637	0.556357
H218	H	0.528024	0.147415	0.590965
H219	H	0.571836	0.184773	0.590933
H220	H	0.497137	0.173483	0.499893
H221	H	0.540932	0.210848	0.499849
H222	H	0.498510	0.246732	0.581148
H223	H	0.454702	0.209371	0.581179
H224	H	0.455052	0.246251	0.528226
C225	C	0.667873	-0.797187	-0.115083
C226	C	0.668265	-0.764320	-0.163326
C227	C	0.667946	-0.789431	-0.218485
H228	H	0.700854	-0.820704	-0.117455
H229	H	0.634401	-0.812994	-0.117407
H230	H	0.701734	-0.748522	-0.161003
H231	H	0.635287	-0.740803	-0.160974
H232	H	0.634474	-0.805237	-0.220809
H233	H	0.700927	-0.812947	-0.220851
H234	H	0.668207	-0.767134	-0.251224
H235	H	0.782212	-0.030025	0.557561
C236	C	0.670688	-0.565313	0.169942
C237	C	0.671099	-0.532446	0.218178
C238	C	0.670850	-0.557563	0.273343
H239	H	0.637243	-0.581140	0.172337
H240	H	0.703696	-0.588814	0.172252
H241	H	0.638094	-0.508953	0.215869
H242	H	0.704542	-0.516617	0.215804
H243	H	0.703858	-0.581065	0.275653
H244	H	0.637404	-0.573390	0.275731
H245	H	0.671133	-0.535268	0.306077
H246	H	0.672544	-0.407311	0.154943
H247	H	-0.047176	0.060581	0.099841
H248	H	0.562224	0.155672	0.442232
H249	H	-0.154880	0.059456	-0.100045
H250	H	0.673643	-0.315848	0.154946
H251	H	0.743134	0.002949	0.734777
C252	C	0.667881	-0.797215	0.114829
C253	C	0.668283	-0.764352	0.163069
C254	C	0.668000	-0.789471	0.218230
H255	H	0.634427	-0.813033	0.117204
H256	H	0.700881	-0.820725	0.117152
H257	H	0.635287	-0.740851	0.160747
H258	H	0.701734	-0.748533	0.160714
H259	H	0.700999	-0.812981	0.220554
H260	H	0.634545	-0.805288	0.220599
H261	H	0.668278	-0.767178	0.250968
H262	H	0.669048	-0.699001	0.099830
C263	C	0.110344	0.062155	0.169949
C264	C	0.149066	0.062539	0.218182
C265	C	0.119482	0.062202	0.273349
H266	H	0.082572	0.090100	0.172331
H267	H	0.091788	0.033712	0.172276
H268	H	0.167613	0.090978	0.215856
H269	H	0.176839	0.034595	0.215820
H270	H	0.100926	0.033760	0.275675
H271	H	0.091711	0.090148	0.275725
H272	H	0.145751	0.062458	0.306081
H273	H	0.673699	-0.315829	-0.155094
C274	C	0.675123	-0.182253	0.114814
C275	C	0.625753	-0.205509	0.118036
C276	C	0.625307	-0.230735	0.173105
H277	H	0.708073	-0.205804	0.117162
H278	H	0.675350	-0.160034	0.147640
H279	H	0.625530	-0.227727	0.085219
H280	H	0.592795	-0.181970	0.115699
H281	H	0.625534	-0.208516	0.205931
H282	H	0.658258	-0.254283	0.175448
H283	H	0.591807	-0.246514	0.175301
C284	C	0.234172	0.063528	0.169840
C285	C	0.261498	0.105465	0.173046
C286	C	0.291250	0.105859	0.228089
H287	H	0.208028	0.063288	0.202694
H288	H	0.261971	0.035588	0.172142
H289	H	0.233701	0.133397	0.170749
H290	H	0.287650	0.105713	0.140204
H291	H	0.319049	0.077920	0.230391
H292	H	0.265102	0.105618	0.260939
H293	H	0.309798	0.134310	0.230269
C294	C	0.383554	0.064976	0.114875
C295	C	0.422266	0.065371	0.163115
C296	C	0.392670	0.065050	0.218277
H297	H	0.355782	0.092923	0.117241
H298	H	0.364996	0.036534	0.117209
H299	H	0.440814	0.093810	0.160783
H300	H	0.450038	0.037427	0.160769
H301	H	0.374113	0.036609	0.220610
H302	H	0.364899	0.092997	0.220636
H303	H	0.418932	0.065314	0.251014
H304	H	0.672603	-0.407278	-0.155102
