data_functionalizedCrystal
_audit_creation_method	'MofGen! by Chris Wilmer'
_symmetry_space_group_name_H-M	'P1'
_symmetry_Int_Tables_number	1
_symmetry_cell_setting	triclinic
loop_
_symmetry_equiv_pos_as_xyz
  x,y,z
_cell_length_a	14.395555
_cell_length_b	14.395555
_cell_length_c	14.395555
_cell_angle_alpha	59.997581
_cell_angle_beta	89.997643
_cell_angle_gamma	59.998876
loop_
_atom_site_label
_atom_site_type_symbol
_atom_site_fract_x
_atom_site_fract_y
_atom_site_fract_z
Zr1	Zr	0.894819	1.016879	-0.121940
O2	O	0.746488	1.210683	-0.270269
O3	O	0.940299	0.823075	-0.076468
O4	O	0.940291	1.016888	-0.270271
O5	O	0.746492	1.016863	0.076409
O6	O	1.093158	1.016895	-0.270275
O7	O	0.746495	1.016870	-0.076465
O8	O	1.093172	0.670200	0.076404
O9	O	0.746479	1.363558	-0.270270
O10	O	1.073769	0.902795	-0.057079
O11	O	0.959684	0.902784	0.057012
O12	O	0.959675	1.130974	-0.171167
O13	O	0.845590	1.130963	-0.057076
Zr14	Zr	1.138621	1.016879	0.121871
Zr15	Zr	1.138625	1.016890	-0.121946
Zr16	Zr	0.894815	1.016868	0.121877
Zr17	Zr	0.894806	1.260698	-0.121942
Zr18	Zr	1.138634	0.773060	0.121873
O19	O	1.093142	1.210683	0.076399
O20	O	1.093148	1.210698	-0.270277
O21	O	0.746481	1.210667	0.076407
O22	O	1.286953	0.823075	0.270200
O23	O	1.286959	0.823091	-0.076476
O24	O	0.940292	0.823060	0.270208
O25	O	1.286948	1.016895	-0.076478
O26	O	1.093149	1.016870	0.270202
O27	O	0.940282	1.016863	0.270206
O28	O	1.286945	1.016888	0.076396
O29	O	0.940272	1.363567	-0.270275
O30	O	1.093168	0.670191	0.270206
O31	O	1.286961	0.670200	0.270201
O32	O	1.286964	0.670208	0.076400
O33	O	0.746476	1.363550	-0.076469
O34	O	0.940269	1.363558	-0.076473
O35	O	1.073765	0.902784	0.171098
O36	O	1.187850	0.902795	0.057007
O37	O	1.073756	1.130974	-0.057081
O38	O	0.959671	1.130963	0.057010
C39	C	1.016737	0.711898	-0.000031
C40	C	1.016743	0.608391	-0.000030
C41	C	1.078936	0.547818	-0.062248
C42	C	1.124014	0.409706	0.045023
C43	C	0.971671	0.562068	-0.107290
C44	C	1.061884	0.471579	0.107304
C45	C	0.909481	0.624015	-0.045086
C46	C	0.954532	0.485912	0.062249
C47	C	0.711757	1.016865	-0.000027
C48	C	0.608255	1.016861	-0.000025
C49	C	0.609875	0.892447	0.062179
C50	C	0.516855	0.954639	0.107266
C51	C	0.516846	0.954675	-0.045079
C52	C	0.516598	1.079052	0.045124
C53	C	0.516604	1.079070	-0.107280
C54	C	0.423566	1.141352	-0.062220
C55	C	1.321684	1.016893	-0.000042
C56	C	1.425185	1.016897	-0.000044
C57	C	1.016725	1.016893	-0.305012
C58	C	1.016727	1.016897	-0.408518
C59	C	1.016703	1.321859	-0.000038
C60	C	1.016697	1.425367	-0.000039
C61	C	0.954506	1.141311	-0.531313
C62	C	1.061774	1.079119	-0.562154
C63	C	0.909465	1.079083	-0.562100
C64	C	1.124058	0.954706	-0.437996
C65	C	0.971673	0.954687	-0.437946
C66	C	1.079004	0.892405	-0.468713
C67	C	1.016715	1.016865	0.304943
C68	C	1.016713	1.016861	0.408449
C69	C	1.321701	0.711912	-0.000039
C70	C	1.425208	0.608409	-0.000040
C71	C	1.016732	0.711885	0.304946
C72	C	1.016736	0.608372	0.408454
C73	C	1.321695	0.711898	0.304939
C74	C	1.425201	0.608391	0.408444
C75	C	0.711745	1.321859	-0.305008
C76	C	0.608239	1.425367	-0.408513
C77	C	0.711740	1.321846	-0.000031
C78	C	0.608232	1.425349	-0.000029
C79	C	1.016708	1.321873	-0.305015
C80	C	1.016705	1.425385	-0.408523
C81	C	1.548000	0.547853	0.062130
C82	C	1.578866	0.409739	0.107185
C83	C	1.578767	0.562157	-0.045161
C84	C	1.454711	0.471595	0.045078
C85	C	1.454615	0.624086	-0.107327
C86	C	1.485408	0.485982	-0.062299
C87	C	0.954534	0.547782	0.406841
C88	C	1.061815	0.409676	0.499862
C89	C	0.909498	0.562008	0.499871
C90	C	1.124080	0.471567	0.500111
C91	C	0.971686	0.623972	0.500106
C92	C	1.079031	0.485876	0.593144
C93	C	1.423588	0.547774	0.531239
C94	C	1.516582	0.409675	0.562033
C95	C	1.516642	0.561953	0.562071
C96	C	1.516832	0.471594	0.437874
C97	C	1.516878	0.623945	0.437915
C98	C	1.609889	0.485856	0.468636
H99	H	1.131613	0.574904	-0.114772
H100	H	0.818761	1.131686	-0.615600
H101	H	1.214706	0.318078	0.083134
H102	H	1.632237	0.599403	-0.083278
H103	H	1.517631	0.598981	0.615702
H104	H	0.818808	0.715665	-0.083222
H105	H	0.901930	0.458881	0.114934
H106	H	0.515939	0.902072	-0.083175
H107	H	1.131690	0.787117	-0.443056
H108	H	0.933572	0.599269	-0.197994
H109	H	0.689635	0.787244	0.114853
H110	H	0.515929	0.902054	0.197963
H111	H	1.573437	0.574924	0.114818
H112	H	1.401377	0.434171	0.083292
H113	H	1.632407	0.318095	0.197867
H114	H	0.933541	0.902147	-0.384426
H115	H	0.517421	1.131593	0.083324
H116	H	1.459755	0.458965	-0.114912
H117	H	1.401077	0.715754	-0.197990
H118	H	0.902011	0.574869	0.327081
H119	H	1.099936	0.318054	0.500789
H120	H	1.214822	0.434194	0.499285
H121	H	0.343933	1.246641	-0.114819
H122	H	0.517572	1.131610	-0.197957
H123	H	1.131717	0.458844	0.672775
H124	H	0.933537	0.715629	0.499120
H125	H	1.214806	0.902157	-0.384639
H126	H	0.901981	1.246513	-0.556755
H127	H	1.689519	0.458820	0.442977
H128	H	1.100086	0.434187	0.198052
H129	H	0.818802	0.599179	0.500789
H130	H	1.099878	1.131706	-0.615681
H131	H	1.343829	0.574865	0.556682
H132	H	1.517490	0.318062	0.615518
H133	H	1.515987	0.434258	0.384479
H134	H	1.515927	0.715582	0.384434
