data_functionalizedCrystal
_audit_creation_method	'MofGen! by Chris Wilmer'
_symmetry_space_group_name_H-M	'P1'
_symmetry_Int_Tables_number	1
_symmetry_cell_setting	triclinic
loop_
_symmetry_equiv_pos_as_xyz
  x,y,z
_cell_length_a	17.077404
_cell_length_b	10.686285
_cell_length_c	17.077396
_cell_angle_alpha	85.608118
_cell_angle_beta	89.981638
_cell_angle_gamma	85.629649
loop_
_atom_site_label
_atom_site_type_symbol
_atom_site_fract_x
_atom_site_fract_y
_atom_site_fract_z
Zn1	Zn	1.224118	-0.502416	-0.419907
Zn2	Zn	1.234132	-0.713437	-0.278597
Zn3	Zn	1.092852	-0.502452	-0.288655
Zn4	Zn	1.102921	-0.713354	-0.409827
O5	O	1.163506	-0.607915	-0.349247
O6	O	1.335294	-0.530428	-0.401170
O7	O	1.215368	-0.685499	-0.170082
O8	O	1.101860	-0.325872	-0.314494
O9	O	1.342652	-0.685464	-0.297351
O10	O	1.198300	-0.325845	-0.410923
O11	O	1.111570	-0.530490	-0.177472
O12	O	0.984340	-0.530409	-0.304720
O13	O	1.119021	-0.685323	-0.521014
O14	O	0.991737	-0.685358	-0.393745
O15	O	1.208064	-0.530348	-0.528419
O16	O	1.225132	-0.890002	-0.287578
O17	O	1.128731	-0.889941	-0.383992
C18	C	0.959556	-0.607879	-0.349231
C19	C	0.872307	-0.607894	-0.349241
C20	C	0.827494	-0.527311	-0.403370
C21	C	0.745514	-0.527319	-0.403373
C22	C	0.708349	-0.607918	-0.349251
C23	C	0.753168	-0.688505	-0.295116
C24	C	0.835146	-0.688490	-0.295110
C25	C	0.582300	-0.688534	-0.295134
C26	C	0.500316	-0.688551	-0.295141
C27	C	0.492667	-0.527363	-0.403397
C28	C	0.574645	-0.527347	-0.403391
C29	C	0.619459	-0.607937	-0.349258
C30	C	1.179132	-0.935755	-0.333617
C31	C	1.185889	-1.076007	-0.326956
C32	C	1.368252	-0.607952	-0.349263
C33	C	1.455502	-0.607967	-0.349270
C34	C	1.163549	-0.607822	-0.553995
C35	C	1.163567	-0.607782	-0.641247
C36	C	1.147840	-0.278794	-0.364955
C37	C	1.141164	-0.138543	-0.371649
C38	C	1.209933	-0.527080	-0.686095
C39	C	1.209941	-0.527038	-0.768077
C40	C	1.163586	-0.607706	-0.805210
C41	C	1.117214	-0.688411	-0.760357
C42	C	1.117203	-0.688446	-0.678376
C43	C	1.117242	-0.688335	-0.931231
C44	C	1.117254	-0.688303	-1.013217
C45	C	1.209980	-0.526928	-1.020932
C46	C	1.209969	-0.526962	-0.938951
C47	C	1.163598	-0.607670	-0.894103
C48	C	1.163504	-0.607916	-0.145299
C49	C	1.163620	-0.607601	-0.058064
H50	H	0.722902	-0.754124	-0.251045
H51	H	0.470059	-0.754183	-0.251071
Br52	Br	1.258319	-1.165605	-0.254669
Br53	Br	1.068724	-1.048949	-0.443919
Br54	Br	1.272854	-0.417606	-0.635708
H55	H	0.871633	-0.754108	-0.251033
Br56	Br	0.431849	-0.417991	-0.476864
H57	H	1.247699	-0.461325	-0.804589
Br58	Br	1.272887	-0.417495	-0.888556
H59	H	1.079469	-0.754036	-0.894718
H60	H	1.247735	-0.461210	-1.057451
Br61	Br	0.877924	-0.417929	-0.476831
H62	H	0.709030	-0.461702	-0.447451
H63	H	0.604902	-0.461724	-0.447466
H64	H	0.618785	-0.754155	-0.251051
H65	H	1.079506	-0.753986	-1.043448
Br66	Br	1.054298	-0.797882	-0.810751
H67	H	1.079438	-0.754149	-0.641862
