data_functionalizedCrystal
_audit_creation_method	'MofGen! by Chris Wilmer'
_symmetry_space_group_name_H-M	'P1'
_symmetry_Int_Tables_number	1
_symmetry_cell_setting	triclinic
loop_
_symmetry_equiv_pos_as_xyz
  x,y,z
_cell_length_a	17.637015
_cell_length_b	17.639155
_cell_length_c	12.759393
_cell_angle_alpha	101.201018
_cell_angle_beta	101.251492
_cell_angle_gamma	87.796343
loop_
_atom_site_label
_atom_site_type_symbol
_atom_site_fract_x
_atom_site_fract_y
_atom_site_fract_z
Zn1	Zn	-0.536985	-1.099714	0.153546
Zn2	Zn	-0.664024	-1.073941	-0.049378
Zn3	Zn	-0.511363	-0.972726	0.018955
Zn4	Zn	-0.638317	-0.947041	0.167331
O5	O	-0.587672	-1.023355	0.072613
O6	O	-0.575318	-1.202549	0.092261
O7	O	-0.643808	-1.060478	-0.187335
O8	O	-0.408464	-1.011107	0.059637
O9	O	-0.668653	-1.183613	-0.056826
O10	O	-0.427289	-1.104405	0.158521
O11	O	-0.531649	-0.986115	-0.137131
O12	O	-0.506722	-0.863065	0.073004
O13	O	-0.624840	-0.967330	0.312523
O14	O	-0.599995	-0.844195	0.182015
O15	O	-0.550391	-1.079499	0.302396
O16	O	-0.766911	-1.035572	-0.043460
O17	O	-0.748024	-0.942339	0.115755
C18	C	-0.547789	-0.826080	0.136421
C19	C	-0.530746	-0.741680	0.163739
C20	C	-0.785033	-0.983392	0.030245
C21	C	-0.869479	-0.966365	0.012132
C22	C	-0.587606	-1.023424	0.346646
C23	C	-0.587578	-1.023453	0.463423
C24	C	-0.978775	-0.893823	-0.064959
C25	C	-0.899426	-0.909828	-0.047933
C26	C	-0.918876	-1.006923	0.055189
C27	C	-0.998229	-0.990929	0.038167
C28	C	-1.028172	-0.934377	-0.021907
C29	C	-1.047625	-1.031483	0.081219
C30	C	-1.126970	-1.015487	0.064203
C31	C	-1.156919	-0.958937	0.004135
C32	C	-1.107517	-0.918381	-0.038923
C33	C	-1.017680	-1.088030	0.141299
C34	C	-1.067077	-1.128585	0.184351
C35	C	-1.146424	-1.112593	0.167329
C36	C	-1.176373	-1.056043	0.107260
C37	C	-1.195827	-1.153148	0.210386
C38	C	-1.275172	-1.137152	0.193370
C39	C	-1.255718	-1.040047	0.090244
C40	C	-0.389544	-1.063496	0.115164
C41	C	-0.305114	-1.080601	0.133296
C42	C	-0.717297	-0.414912	-0.134981
C43	C	-0.701272	-0.335608	-0.109300
C44	C	-0.604239	-0.355293	0.046111
C45	C	-0.620253	-0.434600	0.020440
C46	C	-0.676784	-0.464403	-0.070106
C47	C	-0.579740	-0.484092	0.085315
C48	C	-0.595757	-0.563392	0.059649
C49	C	-0.652286	-0.593200	-0.030892
C50	C	-0.692800	-0.543703	-0.095772
C51	C	-0.523214	-0.454287	0.175866
C52	C	-0.482701	-0.503778	0.240740
C53	C	-0.498713	-0.583080	0.215070
C54	C	-0.555243	-0.612889	0.124530
C55	C	-0.458199	-0.632578	0.279951
C56	C	-0.474215	-0.711878	0.254285
C57	C	-0.571259	-0.692189	0.098864
C58	C	-0.627706	-0.221402	0.008550
C59	C	-0.644755	-0.305801	-0.018771
C60	C	-0.587692	-1.023342	-0.200356
C61	C	-0.587535	-1.023503	-0.317133
C62	C	-0.548809	-1.081867	0.513012
C63	C	-0.548786	-1.081891	0.622736
C64	C	-0.626305	-0.965083	0.633271
C65	C	-0.626324	-0.965057	0.523551
C66	C	-0.504057	-1.149307	0.506929
C67	C	-0.504033	-1.149331	0.616653
H68	H	-1.280099	-0.994001	0.041319
H69	H	-0.734268	-0.295313	-0.162134
Br70	Br	-0.381495	-0.592119	0.402846
Br71	Br	-0.558017	-1.235276	0.412534
Br72	Br	-1.264627	-0.937346	-0.019166
H73	H	-0.558214	-0.331016	0.119837
Br74	Br	-0.550089	-1.242038	0.628955
H75	H	-0.657849	-0.917538	0.682242
H76	H	-1.131898	-0.872336	-0.087848
H77	H	-0.738828	-0.567971	-0.169510
Br78	Br	-0.909937	-1.109441	0.164902
H79	H	-0.657890	-0.917489	0.483182
Br80	Br	-0.403804	-1.132971	0.704784
Br81	Br	-1.019422	-0.817085	-0.146509
Br82	Br	-0.405989	-0.463323	0.363628
H83	H	-0.859210	-0.876798	-0.082995
H84	H	-0.442047	-1.145473	0.494889
H85	H	-0.894487	-1.052965	0.104105
Br86	Br	-1.026431	-1.205323	0.265890
H87	H	-0.763325	-0.439179	-0.208719
Br88	Br	-0.647982	-0.732643	-0.024020
Br89	Br	-0.501476	-0.346664	0.210698
H90	H	-1.171436	-1.199187	0.259307
Br91	Br	-1.342215	-1.192191	0.251796
H92	H	-0.665319	-0.657773	-0.051794
Br93	Br	-0.419236	-0.779049	0.342333
