data_functionalizedCrystal
_audit_creation_method	'MofGen! by Chris Wilmer'
_symmetry_space_group_name_H-M	'P1'
_symmetry_Int_Tables_number	1
_symmetry_cell_setting	triclinic
loop_
_symmetry_equiv_pos_as_xyz
  x,y,z
_cell_length_a	14.908571
_cell_length_b	15.297510
_cell_length_c	14.908308
_cell_angle_alpha	77.689833
_cell_angle_beta	90.175053
_cell_angle_gamma	83.006667
loop_
_atom_site_label
_atom_site_type_symbol
_atom_site_fract_x
_atom_site_fract_y
_atom_site_fract_z
Zn1	Zn	1.259438	0.470251	-0.663978
Zn2	Zn	1.759438	0.970251	-0.163978
Zn3	Zn	1.241996	0.612780	-0.536773
Zn4	Zn	1.741996	1.112780	-0.036773
Zn5	Zn	1.120913	0.452943	-0.502164
Zn6	Zn	1.620913	0.952943	-0.002164
Zn7	Zn	1.083219	0.611710	-0.678251
Zn8	Zn	1.583219	1.111710	-0.178251
O9	O	1.176392	0.536921	-0.595291
O10	O	1.676392	1.036921	-0.095291
O11	O	1.381546	0.496849	-0.655614
O12	O	1.881546	0.996849	-0.155614
O13	O	1.234410	0.584782	-0.405253
O14	O	1.734410	1.084782	0.094747
O15	O	1.162364	0.329146	-0.503171
O16	O	1.662364	0.829146	-0.003171
O17	O	1.368731	0.601565	-0.562158
O18	O	1.868731	1.101565	-0.062158
O19	O	1.264137	0.341862	-0.622055
O20	O	1.764137	0.841862	-0.122055
O21	O	1.145451	0.467350	-0.379826
O22	O	1.645451	0.967350	0.120174
O23	O	0.991491	0.466312	-0.517011
O24	O	1.491491	0.966312	-0.017011
O25	O	1.098119	0.599740	-0.803286
O26	O	1.598119	1.099740	-0.303286
O27	O	0.963798	0.582958	-0.646382
O28	O	1.463798	1.082958	-0.146382
O29	O	1.227587	0.495811	-0.792800
O30	O	1.727587	0.995811	-0.292800
O31	O	1.197859	0.738732	-0.575998
O32	O	1.697859	1.238732	-0.075998
O33	O	1.081206	0.737945	-0.679941
O34	O	1.581206	1.237945	-0.179941
C35	C	0.945383	0.522641	-0.579490
C36	C	1.445383	1.022641	-0.079490
C37	C	0.846551	0.516555	-0.572756
C38	C	1.346551	1.016555	-0.072756
C39	C	0.632024	0.626752	-0.694687
C40	C	1.132024	1.126752	-0.194687
C41	C	0.539162	0.621037	-0.688363
C42	C	1.039162	1.121037	-0.188363
C43	C	0.567964	0.499405	-0.553788
C44	C	1.067964	0.999405	-0.053788
C45	C	0.660826	0.505121	-0.560112
C46	C	1.160826	1.005121	-0.060112
C47	C	0.692852	0.568797	-0.630563
C48	C	1.192852	1.068797	-0.130563
C49	C	0.785716	0.574516	-0.636883
C50	C	1.285716	1.074516	-0.136883
C51	C	0.814516	0.452881	-0.502312
C52	C	1.314516	0.952881	-0.002312
C53	C	0.721654	0.447166	-0.495988
C54	C	1.221654	0.947166	0.004012
C55	C	1.133572	0.771036	-0.633295
C56	C	1.633572	1.271036	-0.133295
C57	C	1.115333	0.871198	-0.649589
C58	C	1.615333	1.371198	-0.149589
C59	C	1.307046	1.155071	-0.479219
C60	C	1.807046	1.655071	0.020781
C61	C	1.324183	1.060963	-0.463905
C62	C	1.824183	1.560963	0.036095
C63	C	1.271972	1.013517	-0.510325
C64	C	1.771972	1.513517	-0.010325
C65	C	1.202622	1.060188	-0.572061
C66	C	1.702622	1.560188	-0.072061
C67	C	1.185479	1.154304	-0.587371
C68	C	1.685479	1.654304	-0.087371
C69	C	1.150405	1.012750	-0.618477
C70	C	1.650405	1.512750	-0.118477
C71	C	1.081054	1.059421	-0.680213
C72	C	1.581054	1.559421	-0.180213
C73	C	1.063915	1.153528	-0.695520
C74	C	1.563915	1.653528	-0.195520
C75	C	1.116126	1.200974	-0.649100
C76	C	1.616126	1.700974	-0.149100
C77	C	1.167547	0.918634	-0.603167
C78	C	1.667547	1.418634	-0.103167
C79	C	1.045980	0.917868	-0.711319
C80	C	1.545980	1.417868	-0.211319
C81	C	1.028844	1.011975	-0.726632
C82	C	1.528844	1.511975	-0.226632
C83	C	1.408302	0.551257	-0.611155
C84	C	1.908302	1.051257	-0.111155
C85	C	1.507128	0.557366	-0.617915
C86	C	2.007128	1.057366	-0.117915
C87	C	1.160594	0.549587	-0.831874
C88	C	1.660594	1.049587	-0.331874
C89	C	1.153862	0.554984	-0.932692
C90	C	1.653862	1.054984	-0.432692
C91	C	1.219392	1.301895	-0.557170
C92	C	1.719392	1.801895	-0.057170
C93	C	1.237693	1.201741	-0.540949
C94	C	1.737693	1.701741	-0.040949
C95	C	1.276027	0.456884	-1.111217
C96	C	1.776027	0.956884	-0.611217
C97	C	1.269706	0.461953	-1.205944
C98	C	1.769706	0.961953	-0.705944
C99	C	1.134893	0.570184	-1.216873
C100	C	1.634893	1.070184	-0.716873
C101	C	1.141215	0.565116	-1.122146
C102	C	1.641215	1.065116	-0.622146
C103	C	1.211785	0.508465	-1.069322
C104	C	1.711785	1.008465	-0.569322
C105	C	1.218110	0.503402	-0.974594
C106	C	1.718110	1.003402	-0.474594
C107	C	1.083295	0.611628	-0.985523
C108	C	1.583295	1.111628	-0.485523
C109	C	1.076973	0.616697	-1.080250
C110	C	1.576973	1.116697	-0.580250
C111	C	1.192191	0.524243	-0.359622
C112	C	1.692191	1.024243	0.140378
C113	C	1.199141	0.518602	-0.258775
C114	C	1.699141	1.018602	0.241225
H115	H	0.864053	0.405692	-0.450096
H116	H	1.364053	0.905692	0.049904
H117	H	0.811789	0.626366	-0.694246
H118	H	1.311789	1.126366	-0.194246
H119	H	1.333492	0.410762	-1.068208
H120	H	1.833492	0.910762	-0.568208
N121	N	1.338995	0.406328	-1.251141
N122	N	1.838995	0.906328	-0.751141
H123	H	1.307875	0.364444	-1.281197
H124	H	1.807875	0.864444	-0.781197
H125	H	1.384641	0.369728	-1.203257
H126	H	1.884641	0.869728	-0.703257
H127	H	1.102179	1.277604	-0.661568
H128	H	1.602179	1.777604	-0.161568
H129	H	1.077438	0.616306	-1.259898
H130	H	1.577438	1.116306	-0.759898
N131	N	0.989104	1.203866	-0.762089
N132	N	1.489104	1.703866	-0.262089
H133	H	0.958628	1.159533	-0.789172
H134	H	1.458628	1.659533	-0.289172
H135	H	1.015350	1.247353	-0.812912
H136	H	1.515350	1.747353	-0.312912
N137	N	0.666576	0.695430	-0.770664
N138	N	1.166576	1.195430	-0.270664
H139	H	0.699938	0.737523	-0.743121
H140	H	1.199938	1.237523	-0.243121
H141	H	0.613905	0.731218	-0.810298
H142	H	1.113905	1.231218	-0.310298
H143	H	0.489639	0.668228	-0.740581
H144	H	0.989639	1.168228	-0.240581
H145	H	0.695565	0.395320	-0.438631
H146	H	1.195565	0.895320	0.061369
N147	N	0.954041	1.062311	-0.793212
N148	N	1.454041	1.562311	-0.293212
H149	H	0.980231	1.105793	-0.844087
H150	H	1.480231	1.605793	-0.344087
H151	H	0.908235	1.096833	-0.759788
H152	H	1.408235	1.596833	-0.259788
H153	H	1.380646	1.022967	-0.413640
H154	H	1.880646	1.522967	0.086360
H155	H	0.541872	0.447558	-0.496434
H156	H	1.041872	0.947558	0.003566
H157	H	1.224013	0.880644	-0.552901
H158	H	1.724013	1.380644	-0.052901
H159	H	1.285928	0.936891	-0.497852
H160	H	1.785928	1.436891	0.002148
H161	H	1.349544	1.193709	-0.441425
H162	H	1.849544	1.693709	0.058575
H163	H	1.003464	0.879237	-0.749116
H164	H	1.503464	1.379237	-0.249116
N165	N	1.294228	0.442308	-0.917622
N166	N	1.794228	0.942308	-0.417622
H167	H	1.331357	0.479375	-0.887088
H168	H	1.831357	0.979375	-0.387088
H169	H	1.333896	0.410418	-0.958601
H170	H	1.833896	0.910418	-0.458601
H171	H	1.019515	0.662818	-1.123272
H172	H	1.519515	1.162818	-0.623272
N173	N	1.014004	0.667273	-0.940339
N174	N	1.514004	1.167273	-0.440339
H175	H	1.028716	0.655471	-0.872314
H176	H	1.528716	1.155471	-0.372314
H177	H	0.951961	0.650216	-0.950276
H178	H	1.451961	1.150216	-0.450276
