data_functionalizedCrystal
_audit_creation_method	'MofGen! by Chris Wilmer'
_symmetry_space_group_name_H-M	'P1'
_symmetry_Int_Tables_number	1
_symmetry_cell_setting	triclinic
loop_
_symmetry_equiv_pos_as_xyz
  x,y,z
_cell_length_a	17.639617
_cell_length_b	25.639239
_cell_length_c	17.639309
_cell_angle_alpha	78.749243
_cell_angle_beta	92.134390
_cell_angle_gamma	101.222911
loop_
_atom_site_label
_atom_site_type_symbol
_atom_site_fract_x
_atom_site_fract_y
_atom_site_fract_z
Zn1	Zn	1.074197	0.024180	-0.664499
Zn2	Zn	1.099739	-0.076839	-0.537481
Zn3	Zn	0.972858	-0.009797	-0.511803
Zn4	Zn	0.947137	-0.083641	-0.638717
O5	O	1.023483	-0.036524	-0.588125
O6	O	1.183861	0.027846	-0.669187
O7	O	1.104362	-0.079319	-0.427804
O8	O	0.986375	0.067891	-0.532103
O9	O	1.202626	-0.046373	-0.575867
O10	O	1.060828	0.092854	-0.644288
O11	O	1.011142	-0.030063	-0.408938
O12	O	0.863170	-0.036659	-0.507102
O13	O	0.942539	-0.057966	-0.748408
O14	O	0.844274	-0.090912	-0.600345
O15	O	1.035889	0.021250	-0.767351
O16	O	1.079422	-0.150923	-0.550867
O17	O	0.967306	-0.155920	-0.625244
C18	C	0.826166	-0.068211	-0.548140
C19	C	0.741749	-0.081777	-0.531052
C20	C	0.415163	0.066568	-0.718128
C21	C	0.335844	0.053806	-0.702056
C22	C	0.355435	-0.023381	-0.604743
C23	C	0.434757	-0.010627	-0.620809
C24	C	0.464615	0.034349	-0.677502
C25	C	0.484209	-0.042847	-0.580183
C26	C	0.563524	-0.030092	-0.596246
C27	C	0.593388	0.014883	-0.652935
C28	C	0.543930	0.047104	-0.693565
C29	C	0.454351	-0.087820	-0.523486
C30	C	0.503802	-0.120040	-0.482860
C31	C	0.583118	-0.107287	-0.498927
C32	C	0.612982	-0.062313	-0.555615
C33	C	0.632576	-0.139508	-0.458296
C34	C	0.711892	-0.126753	-0.474359
C35	C	0.692298	-0.049557	-0.571678
C36	C	1.023362	-0.172391	-0.588065
C37	C	1.023375	-0.230502	-0.588078
C38	C	1.081972	-0.588200	-0.549505
C39	C	1.081999	-0.642799	-0.549522
O40	O	1.131695	-0.668795	-0.516661
N41	N	1.023606	-0.672737	-0.588203
C42	C	0.965186	-0.648072	-0.626877
O43	O	0.915522	-0.678550	-0.659780
C44	C	0.965163	-0.593473	-0.626865
C45	C	1.023555	-0.563540	-0.588175
C46	C	1.140360	-0.558266	-0.510819
C47	C	1.140331	-0.503672	-0.510802
C48	C	1.081915	-0.479011	-0.549471
C49	C	1.023527	-0.508945	-0.588157
C50	C	0.906747	-0.568809	-0.665543
C51	C	0.906729	-0.514206	-0.665528
C52	C	0.965121	-0.484272	-0.626838
C53	C	0.965082	-0.429690	-0.626809
N54	N	1.023475	-0.399752	-0.588128
C55	C	1.081891	-0.424413	-0.549459
C56	C	0.965241	-0.762732	-0.626900
C57	C	0.965261	-0.817331	-0.626908
C58	C	1.082075	-0.812053	-0.549554
C59	C	1.082051	-0.757455	-0.549542
C60	C	1.023634	-0.732794	-0.588219
C61	C	1.081827	-0.309761	-0.549426
C62	C	1.081791	-0.255162	-0.549409
C63	C	0.964980	-0.260444	-0.626766
C64	C	0.965013	-0.315038	-0.626779
C65	C	1.023443	-0.339695	-0.588108
O66	O	0.915413	-0.403657	-0.659656
O67	O	1.131553	-0.393926	-0.516570
C68	C	1.221570	-0.004715	-0.628267
C69	C	1.305983	0.008841	-0.645373
C70	C	0.983495	-0.015327	-0.786205
C71	C	0.966455	-0.006293	-0.870614
C72	C	1.023621	0.099878	-0.588207
C73	C	1.023680	0.158005	-0.588242
C74	C	0.893907	0.032081	-0.979766
C75	C	0.909925	0.023590	-0.900451
C76	C	1.006987	-0.027700	-0.920087
C77	C	0.990975	-0.019215	-0.999404
C78	C	0.934435	0.010676	-1.029237
C79	C	1.031503	-0.040620	-1.048875
C80	C	1.015494	-0.032134	-1.128186
C81	C	0.958958	-0.002243	-1.158026
C82	C	0.918426	0.019162	-1.108548
C83	C	1.088047	-0.070508	-1.019041
C84	C	1.128575	-0.091913	-1.068512
C85	C	1.112563	-0.083430	-1.147824
C86	C	1.056026	-0.053539	-1.177664
C87	C	1.153095	-0.104835	-1.197302
C88	C	1.137086	-0.096348	-1.276613
C89	C	1.040018	-0.045052	-1.256975
C90	C	1.063358	-0.057595	-0.390825
C91	C	1.080546	-0.066457	-0.306446
H92	H	0.295583	0.080049	-0.735139
H93	H	1.187934	-0.578338	-0.479331
C94	C	0.600001	-0.188328	-0.396798
C95	C	0.519953	-0.192608	-0.391435
C96	C	0.489919	-0.237578	-0.334798
H97	H	0.623212	-0.184042	-0.348377
H98	H	0.610705	-0.220222	-0.410446
H99	H	0.509255	-0.160722	-0.377783
H100	H	0.496722	-0.196903	-0.439842
H101	H	0.500623	-0.269472	-0.348446
H102	H	0.513135	-0.233288	-0.286381
H103	H	0.435603	-0.240491	-0.331157
C104	C	1.203753	-0.471086	-0.468935
C105	C	1.243681	-0.427270	-0.521821
C106	C	1.302109	-0.397240	-0.483280
H107	H	1.238622	-0.493528	-0.445909
H108	H	1.181429	-0.457986	-0.429949
H109	H	1.266006	-0.440371	-0.560794
H110	H	1.208835	-0.404816	-0.544850
H111	H	1.279784	-0.384139	-0.444294
H112	H	1.336971	-0.419685	-0.460256
H113	H	1.329202	-0.367505	-0.519156
H114	H	1.129643	-0.832141	-0.518070
H115	H	0.993975	-0.020714	-1.281266
C116	C	1.190073	-0.124280	-1.036186
C117	C	1.261338	-0.098764	-1.070697
C118	C	1.318008	-0.128564	-1.040932
H119	H	1.176396	-0.159817	-1.046897
H120	H	1.193858	-0.126259	-0.981868
H121	H	1.257552	-0.096791	-1.125001
H122	H	1.275039	-0.063229	-1.059988
H123	H	1.321793	-0.130543	-0.986615
H124	H	1.304323	-0.164100	-1.051645
H125	H	1.366369	-0.111253	-1.064338
C126	C	0.901672	-0.233601	-0.668872
C127	C	0.934801	-0.190109	-0.726284
C128	C	0.876509	-0.165369	-0.765099
H129	H	0.874433	-0.220704	-0.633175
H130	H	0.866899	-0.259220	-0.691967
H131	H	0.969560	-0.164494	-0.703189
H132	H	0.962035	-0.202991	-0.761996
H133	H	0.841737	-0.190988	-0.788195
H134	H	0.849274	-0.152476	-0.729397
H135	H	0.898979	-0.135860	-0.804062
H136	H	1.170089	-0.113777	-1.316894
C137	C	1.214415	-0.137367	-1.164991
C138	C	1.193937	-0.189699	-1.180909
C139	C	1.250411	-0.219682	-1.151165
H140	H	1.218195	-0.139418	-1.110670
H141	H	1.262837	-0.120160	-1.188353
H142	H	1.145529	-0.206902	-1.157545
H143	H	1.190163	-0.187665	-1.235224
H144	H	1.298833	-0.202474	-1.174527
H145	H	1.254187	-0.221728	-1.096845
H146	H	1.236529	-0.255190	-1.161967
C147	C	0.941738	0.007006	-1.244168
C148	C	1.008764	0.034754	-1.285068
C149	C	0.992933	0.043278	-1.364424
H150	H	0.902300	0.027891	-1.254957
H151	H	0.924981	-0.026925	-1.259469
H152	H	1.025510	0.068678	-1.269774
H153	H	1.048210	0.013877	-1.274303
H154	H	0.976176	0.009348	-1.379725
H155	H	0.953494	0.064163	-1.375204
H156	H	1.038409	0.062101	-1.392185
H157	H	0.917707	-0.841701	-0.658404
C158	C	0.857033	0.051650	-1.140802
C159	C	0.824972	0.068588	-1.080506
C160	C	0.768425	0.098521	-1.110191
H161	H	0.817613	0.029688	-1.165015
H162	H	0.879850	0.082435	-1.177623
H163	H	0.802154	0.037808	-1.043699
H164	H	0.864372	0.090558	-1.056288
H165	H	0.791242	0.129307	-1.147012
H166	H	0.729010	0.076556	-1.134403
H167	H	0.746669	0.110022	-1.069286
H168	H	0.331115	-0.060000	-0.558581
H169	H	0.716609	-0.012935	-0.617846
H170	H	0.657973	0.025269	-0.666009
H171	H	0.847864	0.056419	-1.004057
H172	H	1.101081	-0.077415	-0.954461
C173	C	0.765719	-0.161652	-0.430310
C174	C	0.841573	-0.140845	-0.456498
C175	C	0.891181	-0.172974	-0.415928
H176	H	0.750581	-0.197719	-0.438667
H177	H	0.763063	-0.161485	-0.376665
H178	H	0.844226	-0.141017	-0.510131
H179	H	0.856735	-0.104782	-0.448140
H180	H	0.888525	-0.172807	-0.362282
H181	H	0.876036	-0.209039	-0.424287
H182	H	0.942655	-0.158859	-0.433685
C183	C	1.145282	-0.222747	-0.507390
C184	C	1.196457	-0.256029	-0.473550
C185	C	1.254959	-0.226187	-0.434847
H186	H	1.123032	-0.209676	-0.468338
H187	H	1.172514	-0.192999	-0.543153
H188	H	1.169230	-0.285767	-0.437791
H189	H	1.218727	-0.269101	-0.512585
H190	H	1.282190	-0.196440	-0.470610
H191	H	1.232701	-0.213118	-0.395799
H192	H	1.289692	-0.248764	-0.411888
H193	H	0.859159	-0.494130	-0.697026
H194	H	1.053025	-0.052035	-0.895786
C195	C	0.576211	0.095969	-0.755128
C196	C	0.515930	0.121463	-0.787266
C197	C	0.545639	0.166479	-0.843971
H198	H	0.600464	0.084503	-0.794491
H199	H	0.612995	0.120685	-0.732424
H200	H	0.479159	0.096752	-0.809971
H201	H	0.491671	0.132942	-0.747923
H202	H	0.582423	0.191195	-0.821267
H203	H	0.569892	0.155008	-0.883329
H204	H	0.504744	0.183785	-0.865779
H205	H	0.917665	-0.742658	-0.658392
C206	C	1.145152	-0.336620	-0.507382
C207	C	1.112050	-0.380134	-0.449987
C208	C	1.170358	-0.404896	-0.411250
H209	H	1.179956	-0.311036	-0.484273
H210	H	1.172348	-0.349494	-0.543150
H211	H	1.084866	-0.367260	-0.414224
H212	H	1.077252	-0.405731	-0.473075
H213	H	1.197555	-0.417770	-0.447019
H214	H	1.205159	-0.379308	-0.388147
H215	H	1.147907	-0.434426	-0.372309
C216	C	0.368207	-0.101712	-0.506188
C217	C	0.327380	-0.111632	-0.573134
C218	C	0.248024	-0.124439	-0.557227
H219	H	0.352804	-0.072265	-0.489546
H220	H	0.357472	-0.133127	-0.466633
H221	H	0.338109	-0.080221	-0.612676
H222	H	0.342758	-0.141081	-0.589786
H223	H	0.237289	-0.155853	-0.517671
H224	H	0.232630	-0.094990	-0.540583
H225	H	0.220314	-0.131176	-0.602644
C226	C	1.145540	-0.725041	-0.507527
C227	C	1.196708	-0.758328	-0.473681
C228	C	1.255212	-0.728488	-0.434979
H229	H	1.123292	-0.711966	-0.468478
H230	H	1.172776	-0.695296	-0.543290
H231	H	1.169475	-0.788062	-0.437921
H232	H	1.218976	-0.771403	-0.512714
H233	H	1.282448	-0.698743	-0.470742
H234	H	1.232956	-0.715414	-0.395933
H235	H	1.289940	-0.751067	-0.412016
C236	C	0.865781	0.046745	-0.846748
C237	C	0.786736	0.025345	-0.850794
C238	C	0.746050	0.046657	-0.801325
H239	H	0.874213	0.085057	-0.861964
H240	H	0.883362	0.037395	-0.795223
H241	H	0.769160	0.034699	-0.902308
H242	H	0.778280	-0.012965	-0.835571
H243	H	0.763631	0.037307	-0.749800
H244	H	0.754488	0.084968	-0.816545
H245	H	0.692415	0.032137	-0.804058
C246	C	0.843304	-0.601200	-0.707632
C247	C	0.792163	-0.567901	-0.741510
C248	C	0.733714	-0.597718	-0.780301
H249	H	0.816024	-0.630957	-0.671939
H250	H	0.865630	-0.614248	-0.746671
H251	H	0.769839	-0.554861	-0.702475
H252	H	0.819421	-0.538144	-0.777214
H253	H	0.756039	-0.610766	-0.819340
H254	H	0.706439	-0.627474	-0.744603
H255	H	0.699012	-0.575128	-0.803297
H256	H	0.917467	-0.339411	-0.658287
H257	H	0.439474	0.103191	-0.764296
H258	H	0.479481	-0.156658	-0.436699
