data_functionalizedCrystal
_audit_creation_method	'MofGen! by Chris Wilmer'
_symmetry_space_group_name_H-M	'P1'
_symmetry_Int_Tables_number	1
_symmetry_cell_setting	triclinic
loop_
_symmetry_equiv_pos_as_xyz
  x,y,z
_cell_length_a	14.519709
_cell_length_b	13.596369
_cell_length_c	6.394984
_cell_angle_alpha	90.004414
_cell_angle_beta	94.912251
_cell_angle_gamma	90.000816
loop_
_atom_site_label
_atom_site_type_symbol
_atom_site_fract_x
_atom_site_fract_y
_atom_site_fract_z
O1	O	-1.226849	0.081648	0.273823
O2	O	-0.958723	0.081680	0.306069
O3	O	-1.096595	0.081661	-0.014105
O4	O	-1.088978	0.081667	0.593996
O5	O	-1.096580	-0.081922	-0.014122
O6	O	-0.958709	-0.081903	0.306052
O7	O	-1.226835	-0.081935	0.273806
Zn8	Zn	-1.092770	-0.107891	0.289926
Zn9	Zn	-1.092788	0.107636	0.289948
O10	O	-1.088963	-0.081916	0.593980
C11	C	-0.924340	-0.000107	0.304557
C12	C	-0.821910	-0.000095	0.300054
N13	N	-1.092763	-0.254983	0.289909
C14	C	-0.446833	-0.000136	0.283475
C15	C	-0.551191	-0.000124	0.288079
C16	C	-0.634368	-0.000115	0.291764
C17	C	-0.738733	-0.000105	0.296369
C18	C	-1.092787	-0.656274	0.289951
C19	C	-1.092778	-0.544623	0.289946
C20	C	-1.092776	-0.455632	0.289932
C21	C	-1.092766	-0.343974	0.289924
C22	C	-0.261218	-0.000143	0.275317
C23	C	-0.363648	-0.000142	0.279820
C24	C	-1.095073	-0.000134	0.908062
C25	C	-1.090483	-0.000131	0.671807
N26	N	-1.092802	0.254728	0.289948
