data_functionalizedCrystal
_audit_creation_method	'MofGen! by Chris Wilmer'
_symmetry_space_group_name_H-M	'P1'
_symmetry_Int_Tables_number	1
_symmetry_cell_setting	triclinic
loop_
_symmetry_equiv_pos_as_xyz
  x,y,z
_cell_length_a	14.519709
_cell_length_b	23.532407
_cell_length_c	12.996460
_cell_angle_alpha	90.004951
_cell_angle_beta	90.000602
_cell_angle_gamma	83.264412
loop_
_atom_site_label
_atom_site_type_symbol
_atom_site_fract_x
_atom_site_fract_y
_atom_site_fract_z
O1	O	1.222987	0.074649	0.085444
O2	O	1.722987	0.574649	0.585444
O3	O	0.954406	0.083440	0.085477
O4	O	1.454406	0.583440	0.585477
O5	O	1.096796	-0.003850	0.085440
O6	O	1.596796	0.496150	0.585440
O7	O	1.080598	0.161940	0.085480
O8	O	1.580598	0.661940	0.585480
O9	O	1.096778	-0.003845	-0.085693
O10	O	1.596778	0.496155	0.414307
O11	O	0.954388	0.083445	-0.085657
O12	O	1.454388	0.583445	0.414343
O13	O	1.222969	0.074654	-0.085690
O14	O	1.722969	0.574654	0.414310
Cu15	Cu	1.088677	0.079050	-0.101299
Cu16	Cu	1.588677	0.579050	0.398701
Cu17	Cu	1.088698	0.079044	0.101086
Cu18	Cu	1.588698	0.579044	0.601086
O19	O	1.080579	0.161945	-0.085654
O20	O	1.580579	0.661945	0.414346
C21	C	0.920042	0.083033	-0.000086
C22	C	1.420042	0.583033	0.499914
C23	C	0.817676	0.081805	-0.000075
C24	C	1.317676	0.581805	0.499925
C25	C	0.442833	0.077286	-0.000123
C26	C	0.942833	0.577286	0.499877
C27	C	0.547126	0.078541	-0.000109
C28	C	1.047126	0.578541	0.499891
C29	C	0.630251	0.079545	-0.000098
C30	C	1.130251	0.579545	0.499902
C31	C	0.734551	0.080801	-0.000086
C32	C	1.234551	0.580801	0.499914
C33	C	1.096374	-0.025066	-0.000129
C34	C	1.596374	0.474934	0.499871
C35	C	1.095134	-0.088288	-0.000137
C36	C	1.595134	0.411712	0.499863
C37	C	1.171619	-0.487046	-0.000090
C38	C	1.671619	0.012954	0.499910
C39	C	1.170467	-0.546452	-0.000082
C40	C	1.670467	-0.046452	0.499918
O41	O	1.241369	-0.582876	-0.000052
O42	O	1.741369	-0.082876	0.499948
N43	N	1.085816	-0.569460	-0.000072
N44	N	1.585816	-0.069460	0.499928
C45	C	1.002312	-0.533059	-0.000060
C46	C	1.502312	-0.033059	0.499940
O47	O	0.930205	-0.558084	-0.000050
O48	O	1.430205	-0.058084	0.499950
C49	C	1.003465	-0.473655	-0.000061
C50	C	1.503465	0.026345	0.499939
C51	C	1.088121	-0.450650	-0.000081
C52	C	1.588121	0.049350	0.499919
C53	C	1.256268	-0.464041	-0.000109
C54	C	1.756268	0.035959	0.499891
C55	C	1.257420	-0.404640	-0.000119
C56	C	1.757420	0.095360	0.499881
C57	C	1.173922	-0.368244	-0.000110
C58	C	1.673922	0.131756	0.499890
C59	C	1.089273	-0.391249	-0.000091
C60	C	1.589273	0.108751	0.499909
C61	C	0.919962	-0.437255	-0.000041
C62	C	1.419962	0.062745	0.499959
C63	C	0.921123	-0.377847	-0.000041
C64	C	1.421123	0.122153	0.499959
C65	C	1.005779	-0.354843	-0.000061
C66	C	1.505779	0.145157	0.499939
C67	C	1.006927	-0.295451	-0.000091
C68	C	1.506927	0.204549	0.499909
N69	N	1.091578	-0.272443	-0.000101
N70	N	1.591578	0.227557	0.499899
C71	C	1.175075	-0.308839	-0.000110
C72	C	1.675075	0.191161	0.499890
C73	C	0.999897	-0.657813	-0.000057
C74	C	1.499897	-0.157813	0.499943
C75	C	0.998743	-0.717216	-0.000064
C76	C	1.498743	-0.217216	0.499936
C77	C	1.166898	-0.730604	-0.000084
C78	C	1.666898	-0.230604	0.499916
C79	C	1.168051	-0.671200	-0.000084
C80	C	1.668051	-0.171200	0.499916
C81	C	1.084548	-0.634804	-0.000067
C82	C	1.584548	-0.134804	0.499933
C83	C	1.177487	-0.184092	-0.000132
C84	C	1.677487	0.315908	0.499868
C85	C	1.178632	-0.124685	-0.000146
C86	C	1.678632	0.375315	0.499854
C87	C	1.010477	-0.111301	-0.000121
C88	C	1.510477	0.388699	0.499879
C89	C	1.009332	-0.170703	-0.000112
C90	C	1.509332	0.329297	0.499888
C91	C	1.092845	-0.207098	-0.000114
C92	C	1.592845	0.292902	0.499886
O93	O	0.936062	-0.258992	-0.000117
O94	O	1.436062	0.241008	0.499883
O95	O	1.247171	-0.283806	-0.000106
O96	O	1.747171	0.216194	0.499894
C97	C	1.257333	0.075061	-0.000125
C98	C	1.757333	0.575061	0.499875
C99	C	1.359700	0.076289	-0.000130
C100	C	1.859700	0.576289	0.499870
C101	C	1.081001	0.183160	-0.000082
C102	C	1.581001	0.683160	0.499918
C103	C	1.082241	0.246383	-0.000067
C104	C	1.582241	0.746383	0.499933
N105	N	1.088668	0.079054	-0.243647
N106	N	1.588668	0.579054	0.256353
C107	C	1.088673	0.079056	-0.336752
C108	C	1.588673	0.579056	0.163248
C109	C	1.088681	0.079052	-0.453558
C110	C	1.588681	0.579052	0.046442
C111	C	1.088693	0.079045	-0.546656
C112	C	1.588693	0.579045	-0.046656
C113	C	1.088703	0.079042	-0.663468
C114	C	1.588703	0.579042	-0.163468
N115	N	1.088714	0.079036	0.243433
N116	N	1.588714	0.579036	0.743433
H117	H	1.247572	-0.105958	-0.000165
H118	H	1.747572	0.394042	0.499835
H119	H	0.929808	-0.735940	-0.000065
H120	H	1.429808	-0.235940	0.499935
H121	H	1.326355	-0.385915	-0.000131
H122	H	1.826355	0.114085	0.499869
O123	O	0.840089	-0.342412	0.000018
O124	O	1.340089	0.157588	0.500018
C125	C	0.767328	-0.244964	-0.000045
C126	C	1.267328	0.255036	0.499955
C127	C	0.859163	-0.285027	-0.000084
C128	C	1.359163	0.214973	0.499916
H129	H	0.782717	-0.198560	-0.000149
H130	H	1.282717	0.301440	0.499851
H131	H	0.725641	-0.253295	0.071601
H132	H	1.225641	0.246705	0.571601
H133	H	0.725631	-0.253384	-0.071638
H134	H	1.225631	0.246616	0.428362
H135	H	0.900934	-0.276630	0.071461
H136	H	1.400934	0.223370	0.571461
H137	H	0.900780	-0.276688	-0.071776
H138	H	1.400780	0.223312	0.428224
O139	O	0.929346	-0.075965	-0.000288
O140	O	1.429346	0.424035	0.499712
C141	C	0.785934	-0.046360	-0.088870
C142	C	1.285934	0.453640	0.411130
C143	C	0.877790	-0.086402	-0.088833
C144	C	1.377790	0.413598	0.411167
H145	H	0.744216	-0.054793	-0.160440
H146	H	1.244216	0.445207	0.339560
H147	H	0.801250	0.000060	-0.088939
H148	H	1.301250	0.500060	0.411061
H149	H	0.744302	-0.054730	-0.017205
H150	H	1.244302	0.445270	0.482795
H151	H	0.919467	-0.078084	-0.160486
H152	H	1.419467	0.421916	0.339514
H153	H	0.862408	-0.132808	-0.088711
H154	H	1.362408	0.367192	0.411289
O155	O	0.837783	-0.459658	0.000126
O156	O	1.337783	0.040342	0.500126
C157	C	0.738865	-0.518900	0.088866
C158	C	1.238865	-0.018900	0.588866
C159	C	0.831981	-0.493581	0.088787
C160	C	1.331981	0.006419	0.588787
H161	H	0.734135	-0.546323	0.160551
H162	H	1.234135	-0.046323	0.660551
H163	H	0.734074	-0.546419	0.017303
H164	H	1.234074	-0.046419	0.517303
H165	H	0.679413	-0.482663	0.088831
H166	H	1.179413	0.017337	0.588831
H167	H	0.891486	-0.529782	0.088858
H168	H	1.391486	-0.029782	0.588858
H169	H	0.836691	-0.466047	0.160344
H170	H	1.336691	0.033953	0.660344
O171	O	1.258695	-0.219358	-0.000183
O172	O	1.758695	0.280642	0.499817
C173	C	1.425601	-0.226353	-0.000155
C174	C	1.925601	0.273647	0.499845
C175	C	1.333704	-0.186349	-0.000113
C176	C	1.833704	0.313651	0.499887
H177	H	1.486270	-0.199680	-0.000077
H178	H	1.986270	0.300320	0.499923
H179	H	1.429326	-0.254493	-0.071789
H180	H	1.929326	0.245507	0.428211
H181	H	1.429234	-0.254506	0.071449
H182	H	1.929234	0.245494	0.571449
H183	H	1.330010	-0.158160	-0.071669
H184	H	1.830010	0.341840	0.428331
H185	H	1.330018	-0.158247	0.071568
H186	H	1.830018	0.341753	0.571568
H187	H	0.940399	-0.189434	-0.000124
H188	H	1.440399	0.310566	0.499876
O189	O	1.250227	-0.648788	0.000043
O190	O	1.750227	-0.148788	0.500043
C191	C	1.349162	-0.589526	0.088728
C192	C	1.849162	-0.089526	0.588728
C193	C	1.256053	-0.614854	0.088696
C194	C	1.756053	-0.114854	0.588696
H195	H	1.353911	-0.562094	0.160408
H196	H	1.853911	-0.062094	0.660408
H197	H	1.353918	-0.562013	0.017159
H198	H	1.853918	-0.062013	0.517159
H199	H	1.408621	-0.625758	0.088669
H200	H	1.908621	-0.125758	0.588669
H201	H	1.196540	-0.578659	0.088791
H202	H	1.696540	-0.078659	0.588791
H203	H	1.251378	-0.642381	0.160259
H204	H	1.751378	-0.142381	0.660259
H205	H	0.931894	-0.628182	-0.000052
H206	H	1.431894	-0.128182	0.499948
H207	H	1.324266	-0.493670	-0.000112
H208	H	1.824266	0.006330	0.499888
H209	H	1.234886	-0.760249	-0.000087
H210	H	1.734886	-0.260249	0.499913
