data_functionalizedCrystal
_audit_creation_method	'MofGen! by Chris Wilmer'
_symmetry_space_group_name_H-M	'P1'
_symmetry_Int_Tables_number	1
_symmetry_cell_setting	triclinic
loop_
_symmetry_equiv_pos_as_xyz
  x,y,z
_cell_length_a	17.699083
_cell_length_b	10.065918
_cell_length_c	17.699104
_cell_angle_alpha	99.852191
_cell_angle_beta	96.712734
_cell_angle_gamma	80.148594
loop_
_atom_site_label
_atom_site_type_symbol
_atom_site_fract_x
_atom_site_fract_y
_atom_site_fract_z
O1	O	-1.013957	0.113305	0.105576
O2	O	-0.513957	0.613305	0.605576
O3	O	-0.793583	0.113350	0.118032
O4	O	-0.293583	0.613350	0.618032
O5	O	-0.909987	0.113314	0.001615
O6	O	-0.409987	0.613314	0.501615
O7	O	-0.897553	0.113341	0.221993
O8	O	-0.397553	0.613341	0.721993
O9	O	-0.890197	-0.113673	-0.018153
O10	O	-0.390197	0.386327	0.481847
O11	O	-0.773793	-0.113637	0.098264
O12	O	-0.273793	0.386363	0.598264
O13	O	-0.994166	-0.113682	0.085808
O14	O	-0.494166	0.386318	0.585808
Zn15	Zn	-0.880838	-0.149698	0.088898
Zn16	Zn	-0.380838	0.350302	0.588898
Zn17	Zn	-0.906912	0.149366	0.114943
Zn18	Zn	-0.406912	0.649366	0.614943
O19	O	-0.877763	-0.113646	0.202226
O20	O	-0.377763	0.386354	0.702226
C21	C	-0.755491	-0.000138	0.107703
C22	C	-0.255491	0.499862	0.607703
C23	C	-0.671475	-0.000121	0.106365
C24	C	-0.171475	0.499879	0.606365
N25	N	-0.863048	-0.353802	0.071122
N26	N	-0.363048	0.146198	0.571122
C27	C	-1.032258	-0.000191	0.096138
C28	C	-0.532258	0.499809	0.596138
C29	C	-1.116276	-0.000199	0.097476
C30	C	-0.616276	0.499801	0.597476
C31	C	-0.899643	-0.000180	-0.036466
C32	C	-0.399643	0.499820	0.463534
C33	C	-0.898298	-0.000180	-0.120483
C34	C	-0.398298	0.499820	0.379517
C35	C	-0.622860	-0.000113	0.174699
C36	C	-0.122860	0.499887	0.674699
C37	C	-0.543915	-0.000131	0.173435
C38	C	-0.043915	0.499869	0.673435
C39	C	-0.513587	-0.000147	0.103838
C40	C	-0.013587	0.499853	0.603838
C41	C	-0.562208	-0.000159	0.035499
C42	C	-0.062208	0.499841	0.535499
C43	C	-0.641151	-0.000151	0.036763
C44	C	-0.141151	0.499849	0.536763
C45	C	-0.243842	-0.000193	0.030401
C46	C	0.256158	0.499807	0.530401
C47	C	-0.164893	-0.000197	0.029143
C48	C	0.335107	0.499803	0.529143
C49	C	-0.146606	-0.000173	0.167073
C50	C	0.353394	0.499827	0.667073
C51	C	-0.225548	-0.000165	0.168337
C52	C	0.274452	0.499835	0.668337
C53	C	-0.274162	-0.000184	0.099998
C54	C	0.225838	0.499816	0.599998
C55	C	-0.359762	-0.000168	0.101369
C56	C	0.140238	0.499832	0.601369
C57	C	-0.427989	-0.000154	0.102467
C58	C	0.072011	0.499846	0.602467
C59	C	-0.887038	-0.578747	0.095076
C60	C	-0.387038	-0.078747	0.595076
C61	C	-0.900723	-0.421581	0.108764
C62	C	-0.400723	0.078419	0.608764
N63	N	-0.924707	0.353470	0.132712
N64	N	-0.424707	0.853470	0.632712
C65	C	-0.959044	-0.000154	-0.645352
C66	C	-0.459044	0.499846	-0.145352
C67	C	-0.960303	-0.000166	-0.566409
C68	C	-0.460303	0.499834	-0.066409
C69	C	-0.891968	-0.000155	-0.517791
C70	C	-0.391968	0.499845	-0.017791
C71	C	-0.822370	-0.000146	-0.548120
C72	C	-0.322370	0.499854	-0.048120
C73	C	-0.821112	-0.000143	-0.627062
C74	C	-0.321112	0.499857	-0.127062
C75	C	-0.827442	-0.000158	-0.229755
C76	C	-0.327442	0.499842	0.270245
C77	C	-0.828706	-0.000157	-0.150807
C78	C	-0.328706	0.499843	0.349193
C79	C	-0.966633	-0.000181	-0.169102
C80	C	-0.466633	0.499819	0.330898
C81	C	-0.965375	-0.000178	-0.248044
C82	C	-0.465375	0.499822	0.251956
C83	C	-0.895776	-0.000176	-0.278367
C84	C	-0.395776	0.499824	0.221633
C85	C	-0.894413	-0.000165	-0.363966
C86	C	-0.394413	0.499835	0.136034
C87	C	-0.893332	-0.000156	-0.432192
C88	C	-0.393332	0.499844	0.067808
C89	C	-0.888106	-0.000149	0.240306
C90	C	-0.388106	0.499851	0.740306
C91	C	-0.889452	-0.000140	0.324325
C92	C	-0.389452	0.499860	0.824325
H93	H	-0.504335	-0.000123	0.229079
H94	H	-0.004335	0.499877	0.729079
O95	O	-0.762287	0.000026	-0.103639
O96	O	-0.262287	0.500026	0.396361
C97	C	-0.730275	0.117602	-0.107107
C98	C	-0.230275	0.617602	0.392893
H99	H	-0.752381	0.156792	-0.163611
H100	H	-0.252381	0.656792	0.336389
H101	H	-0.664837	0.091164	-0.103741
H102	H	-0.164837	0.591164	0.396259
H103	H	-0.747720	0.199923	-0.056775
H104	H	-0.247720	0.699923	0.443225
H105	H	-0.967091	-0.588207	0.175064
H106	H	-0.467091	-0.088207	0.675064
O107	O	-0.759901	0.000044	-0.259273
O108	O	-0.259901	0.500044	0.240727
C109	C	-0.765287	0.117622	-0.294128
C110	C	-0.265287	0.617622	0.205872
H111	H	-0.828392	0.156795	-0.310489
H112	H	-0.328392	0.656795	0.189511
H113	H	-0.732900	0.091195	-0.348068
H114	H	-0.232900	0.591195	0.151932
H115	H	-0.738924	0.199952	-0.252014
H116	H	-0.238924	0.699952	0.247986
H117	H	-0.844660	-0.637070	0.052718
H118	H	-0.344660	-0.137070	0.552718
H119	H	-0.820665	-0.412118	0.028764
H120	H	-0.320665	0.087882	0.528764
H121	H	-0.680733	-0.000157	-0.018881
H122	H	-0.180733	0.499843	0.481119
H123	H	-1.014691	-0.000151	-0.684931
H124	H	-0.514691	0.499849	-0.184931
H125	H	-0.943109	-0.363264	0.151119
H126	H	-0.443109	0.136736	0.651119
H127	H	-0.647545	-0.000099	0.231373
H128	H	-0.147545	0.499901	0.731373
O129	O	-1.027976	-0.000121	-0.537074
O130	O	-0.527976	0.499879	-0.037074
C131	C	-1.088016	-0.000158	-0.596916
C132	C	-0.588016	0.499842	-0.096916
H133	H	-1.070648	0.042830	-0.646760
H134	H	-0.570648	0.542830	-0.146760
H135	H	-1.142359	0.065727	-0.574760
H136	H	-0.642359	0.565727	-0.074760
H137	H	-1.099593	-0.109059	-0.617617
H138	H	-0.599593	0.390941	-0.117617
H139	H	-0.764442	-0.000143	-0.651750
H140	H	-0.264442	0.499857	-0.151750
H141	H	-1.021020	-0.000180	-0.287626
H142	H	-0.521020	0.499820	0.212374
O143	O	-1.034170	-0.000258	-0.139526
O144	O	-0.534170	0.499742	0.360474
C145	C	-1.020636	-0.000229	-0.059422
C146	C	-0.520636	0.499771	0.440578
H147	H	-0.957793	-0.043197	-0.044524
H148	H	-0.457793	0.456803	0.455476
H149	H	-1.059417	-0.066136	-0.041006
H150	H	-0.559417	0.433864	0.458994
H151	H	-1.033754	0.108666	-0.027964
H152	H	-0.533754	0.608666	0.472036
O153	O	-0.755957	0.000050	-0.500954
O154	O	-0.255957	0.500050	-0.000954
C155	C	-0.723955	0.117635	-0.504425
C156	C	-0.223955	0.617635	-0.004425
H157	H	-0.746067	0.156819	-0.560930
H158	H	-0.246067	0.656819	-0.060930
H159	H	-0.658516	0.091212	-0.501061
H160	H	-0.158516	0.591212	-0.001061
H161	H	-0.741403	0.199954	-0.454093
H162	H	-0.241403	0.699954	0.045907
O163	O	-0.254876	-0.000211	0.236004
O164	O	0.245124	0.499789	0.736004
C165	C	-0.195040	-0.000176	0.296051
C166	C	0.304960	0.499824	0.796051
H167	H	-0.137705	-0.043155	0.271191
H168	H	0.362295	0.456845	0.771191
H169	H	-0.205713	-0.066071	0.338910
H170	H	0.294287	0.433929	0.838910
H171	H	-0.193318	0.108722	0.326608
H172	H	0.306682	0.608722	0.826608
O173	O	-0.291162	-0.000251	-0.035915
O174	O	0.208838	0.499749	0.464085
C175	C	-0.367347	-0.000207	-0.019880
C176	C	0.132653	0.499793	0.480120
H177	H	-0.366530	-0.043182	0.035816
H178	H	0.133470	0.456818	0.535816
H179	H	-0.397450	-0.066100	-0.069190
H180	H	0.102550	0.433900	0.430810
H181	H	-0.399665	0.108694	-0.013302
H182	H	0.100335	0.608694	0.486698
O183	O	-0.099267	-0.000228	0.233384
O184	O	0.400733	0.499772	0.733384
C185	C	-0.023088	-0.000210	0.217353
C186	C	0.476912	0.499790	0.717353
H187	H	-0.016421	-0.043200	0.154169
H188	H	0.483579	0.456800	0.654169
H189	H	0.018492	-0.066103	0.255184
H190	H	0.518492	0.433897	0.755184
H191	H	-0.009736	0.108685	0.229744
H192	H	0.490264	0.608685	0.729744
H193	H	-0.140204	-0.000212	-0.027535
H194	H	0.359796	0.499788	0.472465
O195	O	-0.532630	-0.000116	-0.032037
O196	O	-0.032630	0.499884	0.467963
C197	C	-0.452525	-0.000152	-0.018504
C198	C	0.047475	0.499848	0.481496
H199	H	-0.437626	0.042831	0.044336
H200	H	0.062374	0.542831	0.544336
H201	H	-0.434106	0.065739	-0.057292
H202	H	0.065894	0.565739	0.442708
H203	H	-0.421071	-0.109051	-0.031614
H204	H	0.078929	0.390949	0.468386
