data_functionalizedCrystal
_audit_creation_method	'MofGen! by Chris Wilmer'
_symmetry_space_group_name_H-M	'P1'
_symmetry_Int_Tables_number	1
_symmetry_cell_setting	triclinic
loop_
_symmetry_equiv_pos_as_xyz
  x,y,z
_cell_length_a	10.723022
_cell_length_b	10.489741
_cell_length_c	9.798715
_cell_angle_alpha	89.998999
_cell_angle_beta	89.998022
_cell_angle_gamma	84.503200
loop_
_atom_site_label
_atom_site_type_symbol
_atom_site_fract_x
_atom_site_fract_y
_atom_site_fract_z
O1	O	0.176061	1.693939	-0.113403
O2	O	0.192587	1.322733	-0.113424
O3	O	0.002753	1.516899	-0.113408
O4	O	0.365895	1.499772	-0.113419
O5	O	0.002752	1.516885	0.113574
O6	O	0.192586	1.322718	0.113558
O7	O	0.176060	1.693924	0.113579
Zn8	Zn	0.184323	1.508319	0.149607
Zn9	Zn	0.184324	1.508338	-0.149452
O10	O	0.365894	1.499758	0.113563
C11	C	-0.043748	1.515646	0.000082
C12	C	-0.182305	1.511918	0.000077
C13	C	0.191338	1.275194	0.000065
C14	C	0.187604	1.133567	0.000057
C15	C	-0.400419	1.616708	0.000076
C16	C	-0.257214	1.620563	0.000081
C17	C	0.066818	1.065505	0.000073
C18	C	0.123876	0.973349	-0.111840
C19	C	0.123905	0.973368	0.111947
C20	C	0.244712	1.043276	-0.111949
C21	C	0.244724	1.043306	0.111939
C22	C	0.301870	0.951177	-0.000002
C23	C	0.412395	1.501011	0.000071
C24	C	0.550952	1.504739	0.000067
C25	C	0.177308	1.741463	0.000088
C26	C	0.181043	1.883090	0.000087
N27	N	0.184322	1.508315	0.353707
N28	N	0.184315	1.508352	-0.353551
C29	C	0.104264	1.589840	0.421490
C30	C	0.104260	1.589861	0.578653
H31	H	-0.464804	1.709715	0.000087
C32	C	-0.362072	1.379086	0.000061
N33	N	-0.296562	1.284440	0.000053
H34	H	-0.215343	1.716431	0.000039
H35	H	0.072769	0.942373	-0.206453
C36	C	-0.067342	1.132672	-0.000074
N37	N	-0.168389	1.183265	-0.000191
C38	C	0.011661	1.684156	0.657399
N39	N	-0.058089	1.755181	0.716715
H40	H	0.035722	1.659619	0.363174
H41	H	0.401268	0.901688	-0.000066
C42	C	0.276917	1.414052	0.567711
N43	N	0.346663	1.343023	0.508396
C44	C	0.313691	1.084884	-0.239920
N45	N	0.365640	1.116227	-0.336310
H46	H	-0.224167	1.416046	0.000062
H47	H	0.295789	1.074313	0.206556
H48	H	0.072775	0.942417	0.206561
H49	H	0.252855	1.438528	0.412026
