data_functionalizedCrystal
_audit_creation_method	'MofGen! by Chris Wilmer'
_symmetry_space_group_name_H-M	'P1'
_symmetry_Int_Tables_number	1
_symmetry_cell_setting	triclinic
loop_
_symmetry_equiv_pos_as_xyz
  x,y,z
_cell_length_a	17.077402
_cell_length_b	17.077404
_cell_length_c	17.077396
_cell_angle_alpha	90.021444
_cell_angle_beta	90.029784
_cell_angle_gamma	90.021130
loop_
_atom_site_label
_atom_site_type_symbol
_atom_site_fract_x
_atom_site_fract_y
_atom_site_fract_z
Zn1	Zn	-0.312545	1.200055	0.443876
Zn2	Zn	-0.443820	1.199962	0.312607
Zn3	Zn	-0.312568	1.068786	0.312620
Zn4	Zn	-0.443769	1.068754	0.443826
O5	O	-0.378175	1.134389	0.378232
O6	O	-0.329970	1.309889	0.426479
O7	O	-0.426440	1.182536	0.202762
O8	O	-0.202718	1.086252	0.330057
O9	O	-0.426418	1.309821	0.330036
O10	O	-0.202701	1.182694	0.426491
O11	O	-0.330010	1.086162	0.202771
O12	O	-0.329960	0.958935	0.330009
O13	O	-0.426330	1.086197	0.553680
O14	O	-0.426353	0.958912	0.426406
O15	O	-0.329921	1.182663	0.553717
O16	O	-0.553660	1.182505	0.329988
O17	O	-0.553622	1.086107	0.426394
C18	C	-0.378154	0.930441	0.378204
C19	C	-0.378164	0.843192	0.378210
C20	C	-0.582123	1.134314	0.378201
C21	C	-0.669373	1.134353	0.378214
C22	C	-0.328067	0.467410	0.428559
C23	C	-0.328061	0.549390	0.428550
C24	C	-0.378192	0.590343	0.378252
C25	C	-0.428337	0.549310	0.327965
C26	C	-0.428346	0.467332	0.327978
C27	C	-0.428313	0.720181	0.327940
C28	C	-0.428303	0.802165	0.327925
C29	C	-0.328029	0.802239	0.428512
C30	C	-0.328038	0.720260	0.428525
C31	C	-0.378182	0.679234	0.378237
C32	C	-0.710357	1.184598	0.328069
C33	C	-0.792337	1.184637	0.328089
C34	C	-0.833332	1.134425	0.378251
C35	C	-0.792343	1.084178	0.428401
C36	C	-0.710364	1.084144	0.428384
C37	C	-0.963213	1.084250	0.428431
C38	C	-1.045197	1.084283	0.428447
C39	C	-1.045186	1.184743	0.328136
C40	C	-0.963207	1.184709	0.328119
C41	C	-0.922223	1.134461	0.378269
C42	C	-0.173431	1.134487	0.378281
C43	C	-0.086181	1.134528	0.378302
C44	C	-0.378117	1.134437	0.582977
C45	C	-0.378093	1.134457	0.670227
C46	C	-0.378197	1.339134	0.378262
C47	C	-0.378206	1.426383	0.378274
C48	C	-0.378176	1.134387	0.174285
C49	C	-0.377980	1.134519	0.087035
C50	C	-0.327888	1.184689	0.711237
C51	C	-0.327862	1.184698	0.793218
C52	C	-0.378045	1.134479	0.834186
C53	C	-0.428252	1.084242	0.793170
C54	C	-0.428273	1.084229	0.711191
C55	C	-0.428205	1.084274	0.964040
C56	C	-0.428184	1.084288	1.046025
C57	C	-0.327793	1.184742	1.046067
C58	C	-0.327815	1.184730	0.964088
C59	C	-0.378023	1.134493	0.923077
H60	H	-0.287240	0.434072	0.469513
Cl61	Cl	-0.265030	0.600963	0.491773
Cl62	Cl	-0.491264	1.021146	1.097527
Cl63	Cl	-0.491362	0.668605	0.264728
Cl64	Cl	-0.491387	0.415755	0.264767
H65	H	-0.286982	1.225603	0.826605
H66	H	-0.469147	1.043318	0.677801
H67	H	-0.469077	1.043354	0.930652
Cl68	Cl	-0.264986	0.853815	0.491727
H69	H	-0.825702	1.225551	0.287256
H70	H	-0.287214	0.686919	0.469479
H71	H	-0.469126	0.835506	0.286970
Cl72	Cl	-0.491362	0.600794	0.264736
H73	H	-0.469109	1.043350	0.826533
Cl74	Cl	-0.264675	1.247897	1.097622
H75	H	-0.676984	1.225483	0.287219
H76	H	-0.929829	1.225591	0.287270
H77	H	-1.078559	1.225660	0.287305
H78	H	-0.676996	1.043230	0.469218
Cl79	Cl	-0.264731	1.247867	0.912585
H80	H	-0.287026	1.225585	0.677886
Cl81	Cl	-1.096734	1.021150	0.491499
Cl82	Cl	-0.911692	1.021081	0.491478
Cl83	Cl	-0.843880	1.021058	0.491466
