data_functionalizedCrystal
_audit_creation_method	'MofGen! by Chris Wilmer'
_symmetry_space_group_name_H-M	'P1'
_symmetry_Int_Tables_number	1
_symmetry_cell_setting	triclinic
loop_
_symmetry_equiv_pos_as_xyz
  x,y,z
_cell_length_a	23.532407
_cell_length_b	16.109301
_cell_length_c	15.186229
_cell_angle_alpha	89.994299
_cell_angle_beta	90.001378
_cell_angle_gamma	83.155079
loop_
_atom_site_label
_atom_site_type_symbol
_atom_site_fract_x
_atom_site_fract_y
_atom_site_fract_z
O1	O	-0.755631	-0.100925	0.073122
O2	O	-0.255631	0.399075	0.573122
O3	O	-0.589822	-0.115528	0.073148
O4	O	-0.089822	0.384472	0.573148
O5	O	-0.677282	0.012840	0.073125
O6	O	-0.177282	0.512840	0.573125
O7	O	-0.668172	-0.229293	0.073144
O8	O	-0.168172	0.270707	0.573144
O9	O	-0.677275	0.012843	-0.073332
O10	O	-0.177275	0.512843	0.426668
O11	O	-0.589815	-0.115525	-0.073310
O12	O	-0.089815	0.384475	0.426690
O13	O	-0.755625	-0.100922	-0.073336
O14	O	-0.255625	0.399078	0.426664
Zn15	Zn	-0.672719	-0.108223	-0.096576
Zn16	Zn	-0.172719	0.391777	0.403424
Zn17	Zn	-0.672728	-0.108227	0.096388
Zn18	Zn	-0.172728	0.391773	0.596388
O19	O	-0.668165	-0.229291	-0.073313
O20	O	-0.168165	0.270709	0.426687
C21	C	-0.568601	-0.115155	-0.000078
C22	C	-0.068601	0.384845	0.499922
C23	C	-0.505380	-0.114037	-0.000068
C24	C	-0.005380	0.385963	0.499932
C25	C	-0.676909	0.043814	-0.000104
C26	C	-0.176909	0.543814	0.499896
C27	C	-0.675803	0.136100	-0.000105
C28	C	-0.175803	0.636100	0.499895
C29	C	-0.776846	-0.101295	-0.000108
C30	C	-0.276846	0.398705	0.499892
C31	C	-0.840067	-0.102414	-0.000112
C32	C	-0.340067	0.397586	0.499888
C33	C	-0.106531	-0.182990	-0.000102
C34	C	0.393469	0.317010	0.499898
C35	C	-0.047127	-0.181951	-0.000108
C36	C	0.452873	0.318049	0.499892
O37	O	-0.010619	-0.245872	-0.000135
O38	O	0.489381	0.254128	0.499865
N39	N	-0.024220	-0.105636	-0.000112
N40	N	0.475780	0.394364	0.499888
C41	C	-0.060719	-0.030355	-0.000121
C42	C	0.439281	0.469645	0.499879
O43	O	-0.035780	0.034652	-0.000126
O44	O	0.464220	0.534652	0.499874
C45	C	-0.120122	-0.031395	-0.000121
C46	C	0.379878	0.468605	0.499879
C47	C	-0.143027	-0.107715	-0.000108
C48	C	0.356973	0.392285	0.499892
C49	C	-0.129436	-0.259304	-0.000090
C50	C	0.370564	0.240696	0.499910
C51	C	-0.188836	-0.260342	-0.000083
C52	C	0.311164	0.239658	0.499917
C53	C	-0.225331	-0.185066	-0.000088
C54	C	0.274669	0.314934	0.499912
C55	C	-0.202427	-0.108753	-0.000101
C56	C	0.297573	0.391247	0.499899
C57	C	-0.156621	0.043886	-0.000136
C58	C	0.343379	0.543886	0.499864
C59	C	-0.216027	0.042840	-0.000137
C60	C	0.283973	0.542840	0.499863
C61	C	-0.238932	-0.033480	-0.000124
C62	C	0.261068	0.466520	0.499876
C63	C	-0.298322	-0.034516	-0.000099
C64	C	0.201678	0.465484	0.499901
N65	N	-0.321229	-0.110831	-0.000094
N66	N	0.178771	0.389169	0.499906
C67	C	-0.284734	-0.186106	-0.000089
C68	C	0.215266	0.313894	0.499911
C69	C	0.064031	-0.028178	-0.000120
C70	C	0.564031	0.471822	0.499880
C71	C	0.123433	-0.027138	-0.000113
C72	C	0.623433	0.472862	0.499887
C73	C	0.137021	-0.178734	-0.000102
C74	C	0.637021	0.321266	0.499898
C75	C	0.077618	-0.179774	-0.000103
C76	C	0.577618	0.320226	0.499897
C77	C	0.041123	-0.104493	-0.000116
C78	C	0.541123	0.395507	0.499884
C79	C	-0.409479	-0.188281	-0.000073
C80	C	0.090521	0.311719	0.499927
C81	C	-0.468885	-0.189312	-0.000062
C82	C	0.031115	0.310688	0.499938
C83	C	-0.482468	-0.037716	-0.000078
C84	C	0.017532	0.462284	0.499922
C85	C	-0.423067	-0.036684	-0.000084
C86	C	0.076933	0.463316	0.499916
C87	C	-0.386574	-0.111973	-0.000085
C88	C	0.113426	0.388027	0.499915
O89	O	-0.334865	0.029371	-0.000076
O90	O	0.165135	0.529371	0.499924
O91	O	-0.309682	-0.251102	-0.000095
O92	O	0.190318	0.248898	0.499905
C93	C	-0.668537	-0.260264	-0.000082
C94	C	-0.168537	0.239736	0.499918
C95	C	-0.669644	-0.352551	-0.000075
C96	C	-0.169644	0.147449	0.499925
N97	N	-0.672717	-0.108220	-0.228269
N98	N	-0.172717	0.391780	0.271731
C99	C	-0.725127	0.358760	-0.000099
C100	C	-0.225127	0.858760	0.499901
C101	C	-0.724083	0.445473	-0.000092
C102	C	-0.224083	0.945473	0.499908
C103	C	-0.620315	0.424782	-0.000079
C104	C	-0.120315	0.924782	0.499921
C105	C	-0.621360	0.338072	-0.000080
C106	C	-0.121360	0.838072	0.499920
C107	C	-0.673768	0.305063	-0.000094
C108	C	-0.173768	0.805063	0.499906
C109	C	-0.671679	0.478486	-0.000086
C110	C	-0.171679	0.978486	0.499914
C111	C	-0.670547	0.572503	-0.000078
C112	C	-0.170547	1.072503	0.499922
C113	C	-0.674900	0.211040	-0.000101
C114	C	-0.174900	0.711040	0.499899
C115	C	-0.711460	-0.051397	-0.546197
C116	C	-0.211460	0.448603	-0.046197
C117	C	-0.711458	-0.051398	-0.454007
C118	C	-0.211458	0.448602	0.045993
C119	C	-0.633990	-0.165052	-0.453997
C120	C	-0.133990	0.334948	0.046003
C121	C	-0.633994	-0.165055	-0.546185
C122	C	-0.133994	0.334945	-0.046185
C123	C	-0.672729	-0.108223	-0.592283
C124	C	-0.172729	0.391777	-0.092283
C125	C	-0.672722	-0.108221	-0.407905
C126	C	-0.172722	0.391779	0.092095
C127	C	-0.672720	-0.108221	-0.307949
C128	C	-0.172720	0.391779	0.192051
C129	C	-0.672732	-0.108223	-0.692245
C130	C	-0.172732	0.391777	-0.192245
N131	N	-0.672734	-0.108224	0.228081
N132	N	-0.172734	0.391776	0.728081
H133	H	-0.487530	-0.251464	-0.000051
H134	H	0.012470	0.248536	0.499949
Cl135	Cl	-0.760157	0.020046	-0.604144
Cl136	Cl	-0.260157	0.520046	-0.104144
H137	H	-0.577647	0.451669	-0.000068
H138	H	-0.077647	0.951669	0.499932
H139	H	-0.579534	0.294349	-0.000073
H140	H	-0.079534	0.794349	0.499927
Cl141	Cl	0.182912	-0.273367	-0.000100
Cl142	Cl	0.682912	0.226633	0.499900
Cl143	Cl	-0.788653	0.512974	-0.000096
Cl144	Cl	-0.288653	1.012974	0.499904
Cl145	Cl	-0.585303	-0.236503	-0.604128
Cl146	Cl	-0.085303	0.263497	-0.104128
H147	H	-0.379772	-0.249588	-0.000076
H148	H	0.120228	0.250412	0.499924
H149	H	-0.742997	-0.005126	-0.416487
H150	H	-0.242997	0.494874	0.083513
H151	H	-0.602452	-0.211323	-0.416456
H152	H	-0.102452	0.288677	0.083544
H153	H	-0.207479	-0.322489	-0.000071
H154	H	0.292521	0.177511	0.499929
H155	H	-0.767801	0.331888	-0.000109
H156	H	-0.267801	0.831888	0.499891
Cl157	Cl	-0.083566	-0.353949	-0.000080
Cl158	Cl	0.416434	0.146051	0.499920
H159	H	0.058974	-0.241920	-0.000097
H160	H	0.558974	0.258080	0.499903
H161	H	-0.137983	0.106033	-0.000148
H162	H	0.362017	0.606033	0.499852
H163	H	0.142076	0.035010	-0.000110
H164	H	0.642076	0.535010	0.499890
H165	H	-0.245739	0.104144	-0.000148
H166	H	0.254261	0.604144	0.499852
Cl167	Cl	-0.394272	0.059262	-0.000106
Cl168	Cl	0.105728	0.559262	0.499894
Cl169	Cl	0.018157	0.066471	-0.000126
Cl170	Cl	0.518157	0.566471	0.499874
H171	H	-0.512193	0.023571	-0.000079
H172	H	-0.012193	0.523571	0.499921
