data_functionalizedCrystal
_audit_creation_method	'MofGen! by Chris Wilmer'
_symmetry_space_group_name_H-M	'P1'
_symmetry_Int_Tables_number	1
_symmetry_cell_setting	triclinic
loop_
_symmetry_equiv_pos_as_xyz
  x,y,z
_cell_length_a	18.050591
_cell_length_b	19.805405
_cell_length_c	19.805399
_cell_angle_alpha	90.030709
_cell_angle_beta	89.978048
_cell_angle_gamma	89.977584
loop_
_atom_site_label
_atom_site_type_symbol
_atom_site_fract_x
_atom_site_fract_y
_atom_site_fract_z
Zn1	Zn	1.135309	0.269542	-0.382803
Zn2	Zn	1.135222	0.382733	-0.269611
Zn3	Zn	1.011126	0.269555	-0.269618
Zn4	Zn	1.011081	0.382686	-0.382748
O5	O	1.073185	0.326129	-0.326195
O6	O	1.239222	0.284570	-0.367808
O7	O	1.118743	0.367745	-0.174896
O8	O	1.027655	0.174837	-0.284657
O9	O	1.239158	0.367731	-0.284647
O10	O	1.118892	0.174827	-0.367814
O11	O	1.027570	0.284594	-0.174900
O12	O	0.907196	0.284548	-0.284604
O13	O	1.027577	0.367652	-0.477472
O14	O	0.907162	0.367665	-0.367721
O15	O	1.118848	0.284525	-0.477512
O16	O	1.118698	0.477443	-0.284594
O17	O	1.027492	0.477409	-0.367715
C18	C	1.073101	0.501985	-0.326162
C19	C	1.073133	0.577217	-0.326171
C20	C	0.880232	0.326104	-0.326158
C21	C	0.797687	0.326109	-0.326158
C22	C	1.073217	0.326082	-0.502738
C23	C	1.073231	0.326062	-0.577970
C24	C	0.598233	0.280858	-0.281063
C25	C	0.548815	0.342594	-0.264403
C26	C	0.646556	0.326130	-0.326188
C27	C	0.548892	0.264415	-0.342846
C28	C	0.500571	0.326144	-0.326216
C29	C	0.598226	0.387898	-0.309496
C30	C	0.598308	0.309678	-0.387968
C31	C	0.548912	0.371456	-0.371332
C32	C	0.730655	0.326121	-0.326170
C33	C	0.416475	0.326160	-0.326235
C34	C	1.266890	0.326155	-0.326233
C35	C	1.349436	0.326166	-0.326249
C36	C	1.073289	0.149586	-0.326243
C37	C	1.073333	0.074354	-0.326263
C38	C	1.120670	0.612556	-0.282935
C39	C	1.120702	0.683245	-0.282950
C40	C	1.073192	0.718592	-0.326198
C41	C	1.025653	0.683248	-0.369438
C42	C	1.025626	0.612561	-0.369426
C43	C	1.025762	0.968321	-0.369489
C44	C	1.025792	1.039013	-0.369496
C45	C	1.120839	1.039005	-0.283012
C46	C	1.120811	0.968318	-0.283000
C47	C	1.073275	0.932980	-0.326243
C48	C	1.073243	0.856331	-0.326227
C49	C	1.073220	0.795240	-0.326211
C50	C	1.025771	0.282761	-0.613316
C51	C	1.025781	0.282748	-0.684004
C52	C	1.073256	0.326033	-0.719345
C53	C	1.120718	0.369338	-0.683995
C54	C	1.120703	0.369354	-0.613307
C55	C	1.120777	0.369275	-0.969068
C56	C	1.120789	0.369254	-1.039760
C57	C	1.025855	0.282668	-1.039765
C58	C	1.025840	0.282685	-0.969078
C59	C	1.073299	0.325992	-0.933733
C60	C	1.073286	0.326007	-0.857085
C61	C	1.073273	0.326015	-0.795993
C62	C	1.073195	0.326127	-0.150339
C63	C	1.073325	0.325956	-0.075107
H64	H	0.619888	0.242614	-0.242861
Cl65	Cl	0.965930	0.727685	-0.423812
Cl66	Cl	0.515250	0.364095	-0.183760
Cl67	Cl	0.631539	0.468510	-0.287667
H68	H	1.159355	0.583781	-0.247715
Cl69	Cl	0.515429	0.183829	-0.364580
H70	H	1.159356	0.404609	-0.584529
H71	H	0.527393	0.409792	-0.409505
H72	H	0.620064	0.295733	-0.440186
H73	H	0.987104	1.067791	-0.404719
Cl74	Cl	0.966188	0.228226	-1.084203
Cl75	Cl	1.180468	0.727669	-0.228596
Cl76	Cl	1.180475	0.423675	-1.084188
H77	H	1.159496	0.939540	-0.247781
H78	H	1.159548	1.067786	-0.247804
Cl79	Cl	0.966001	0.923905	-0.423850
H80	H	0.987116	0.247510	-0.584546
Cl81	Cl	0.965864	0.568134	-0.423785
H82	H	1.159368	0.404585	-0.712775
H83	H	1.159413	0.404546	-0.940299
H84	H	0.987132	0.247491	-0.712780
H85	H	0.987184	0.247435	-0.940307
