data_functionalizedCrystal
_audit_creation_method	'MofGen! by Chris Wilmer'
_symmetry_space_group_name_H-M	'P1'
_symmetry_Int_Tables_number	1
_symmetry_cell_setting	triclinic
loop_
_symmetry_equiv_pos_as_xyz
  x,y,z
_cell_length_a	14.044220
_cell_length_b	10.540539
_cell_length_c	13.101039
_cell_angle_alpha	93.398267
_cell_angle_beta	86.340132
_cell_angle_gamma	88.857185
loop_
_atom_site_label
_atom_site_type_symbol
_atom_site_fract_x
_atom_site_fract_y
_atom_site_fract_z
O1	O	1.264944	0.299850	-0.085096
O2	O	1.598277	0.633183	0.248237
O3	O	1.931610	0.966516	0.581570
O4	O	0.988901	0.288796	-0.085123
O5	O	1.322235	0.622130	0.248211
O6	O	1.655568	0.955463	0.581544
O7	O	1.133220	0.110253	-0.085108
O8	O	1.466553	0.443587	0.248226
O9	O	1.799887	0.776920	0.581559
O10	O	1.120625	0.478393	-0.085111
O11	O	1.453958	0.811726	0.248222
O12	O	1.787291	1.145059	0.581555
O13	O	1.122866	0.123087	0.085321
O14	O	1.456199	0.456420	0.418655
O15	O	1.789532	0.789753	0.751988
O16	O	0.978547	0.301630	0.085306
O17	O	1.311880	0.634963	0.418640
O18	O	1.645213	0.968296	0.751973
O19	O	1.254589	0.312683	0.085332
O20	O	1.587922	0.646017	0.418666
O21	O	1.921256	0.979350	0.751999
Zn22	Zn	1.114924	0.309194	0.112379
Zn23	Zn	1.448257	0.642527	0.445712
Zn24	Zn	1.781591	0.975861	0.779045
Zn25	Zn	1.128566	0.292285	-0.112169
Zn26	Zn	1.461900	0.625619	0.221165
Zn27	Zn	1.795233	0.958952	0.554498
O28	O	1.110270	0.491226	0.085317
O29	O	1.443604	0.824559	0.418651
O30	O	1.776937	1.157893	0.751984
C31	C	0.948377	0.290375	0.000088
C32	C	1.281710	0.623708	0.333422
C33	C	1.615044	0.957042	0.666755
C34	C	0.843054	0.275945	0.000078
C35	C	1.176387	0.609278	0.333412
C36	C	1.509721	0.942611	0.666745
C37	C	1.127098	0.069271	0.000105
C38	C	1.460432	0.402605	0.333438
C39	C	1.793765	0.735938	0.666772
C40	C	1.124273	-0.071963	0.000099
C41	C	1.457606	0.261371	0.333432
C42	C	1.790939	0.594704	0.666766
C43	C	0.650213	0.249565	0.000099
C44	C	0.983546	0.582899	0.333432
C45	C	1.316880	0.916232	0.666765
C46	C	0.593272	0.351908	0.000102
C47	C	0.926606	0.685241	0.333435
C48	C	1.259939	1.018575	0.666769
C49	C	0.485969	0.337230	0.000114
C50	C	0.819302	0.670563	0.333447
C51	C	1.152636	1.003897	0.666780
C52	C	0.757526	0.264241	0.000087
C53	C	1.090860	0.597574	0.333421
C54	C	1.424193	0.930908	0.666754
C55	C	1.016007	-0.266367	-0.000294
C56	C	1.349341	0.066966	0.333040
C57	C	1.682674	0.400300	0.666373
C58	C	1.018849	-0.119430	0.000090
C59	C	1.352182	0.213903	0.333423
C60	C	1.685515	0.547236	0.666757
C61	C	1.169094	-0.121162	0.097427
C62	C	1.502428	0.212171	0.430760
C63	C	1.835761	0.545504	0.764094
C64	C	1.165492	-0.268064	0.097509
C65	C	1.498825	0.065269	0.430842
C66	C	1.832158	0.398602	0.764175
C67	C	1.179411	-0.282960	-0.096300
C68	C	1.512744	0.050373	0.237033
C69	C	1.846077	0.383707	0.570366
C70	C	1.180460	-0.135977	-0.097587
C71	C	1.513793	0.197357	0.235746
C72	C	1.847127	0.530690	0.569080
C73	C	1.295114	0.311104	0.000119
C74	C	1.628447	0.644438	0.333453
C75	C	1.961780	0.977771	0.666786
C76	C	1.400437	0.325534	0.000123
C77	C	1.733770	0.658868	0.333456
C78	C	2.067103	0.992201	0.666789
C79	C	1.116392	0.532208	0.000103
C80	C	1.449725	0.865541	0.333436
C81	C	1.783059	1.198875	0.666769
C82	C	1.119218	0.673442	0.000102
C83	C	1.452552	1.006775	0.333435
C84	C	1.785885	1.340108	0.666768
N85	N	1.105620	0.320734	0.265626
N86	N	1.438953	0.654067	0.598959
N87	N	1.772287	0.987400	0.932293
N88	N	1.137878	0.280737	-0.265416
N89	N	1.471211	0.614070	0.067917
N90	N	1.804544	0.947403	0.401250
C91	C	1.092962	0.336445	0.474667
C92	C	1.426295	0.669779	0.808001
C93	C	1.759629	1.003112	1.141334
C94	C	1.150533	0.265029	0.525549
C95	C	1.483866	0.598362	0.858882
C96	C	1.817199	0.931695	1.192216
C97	C	1.143490	0.273771	0.641867
C98	C	1.476823	0.607104	0.975200
C99	C	1.810156	0.940438	1.308533
C100	C	1.100004	0.327705	0.358339
C101	C	1.433337	0.661038	0.691672
C102	C	1.766671	0.994371	1.025006
H103	H	0.625112	0.450550	0.000096
H104	H	0.958445	0.783883	0.333429
H105	H	1.291778	1.117216	0.666763
H106	H	1.205111	0.197322	0.481752
H107	H	1.538444	0.530656	0.815086
H108	H	1.871777	0.863989	1.148419
H109	H	0.618376	0.150932	0.000105
H110	H	0.951709	0.484265	0.333439
H111	H	1.285042	0.817598	0.666772
Br112	Br	1.002001	0.449293	0.547658
Br113	Br	1.335335	0.782626	0.880991
Br114	Br	1.668668	1.115959	1.214324
Br115	Br	0.959377	-0.063898	-0.116197
Br116	Br	1.292710	0.269436	0.217137
Br117	Br	1.626044	0.602769	0.550470
H118	H	1.149772	-0.323517	-0.170068
H119	H	1.483105	0.009816	0.163265
H120	H	1.816439	0.343150	0.496598
Br121	Br	0.953657	-0.329806	-0.116628
Br122	Br	1.286990	0.003527	0.216705
Br123	Br	1.620324	0.336861	0.550039
H124	H	1.255598	-0.322536	-0.096948
H125	H	1.588931	0.010797	0.236386
H126	H	1.922264	0.344130	0.569719
H127	H	0.970315	-0.295542	0.069103
H128	H	1.303648	0.037791	0.402437
H129	H	1.636982	0.371125	0.735770
H130	H	1.123576	-0.294577	0.170256
H131	H	1.456910	0.038757	0.503590
H132	H	1.790243	0.372090	0.836923
Br133	Br	0.944763	-0.047826	0.116554
Br134	Br	1.278096	0.285507	0.449887
Br135	Br	1.611429	0.618841	0.783220
Br136	Br	1.291409	-0.334691	0.104893
Br137	Br	1.624743	-0.001358	0.438226
Br138	Br	1.958076	0.331975	0.771559
H139	H	1.246295	-0.090708	0.101053
H140	H	1.579628	0.242625	0.434386
H141	H	1.912962	0.575958	0.767720
H142	H	1.129451	-0.076672	0.169848
H143	H	1.462785	0.256661	0.503182
H144	H	1.796118	0.589994	0.836515
H145	H	1.147712	-0.104293	-0.169588
H146	H	1.481045	0.229040	0.163746
H147	H	1.814379	0.562374	0.497079
Br148	Br	1.309165	-0.083385	-0.107381
Br149	Br	1.642498	0.249949	0.225952
Br150	Br	1.975831	0.583282	0.559285
