data_functionalizedCrystal
_audit_creation_method	'MofGen! by Chris Wilmer'
_symmetry_space_group_name_H-M	'P1'
_symmetry_Int_Tables_number	1
_symmetry_cell_setting	triclinic
loop_
_symmetry_equiv_pos_as_xyz
  x,y,z
_cell_length_a	19.288864
_cell_length_b	15.995350
_cell_length_c	17.766277
_cell_angle_alpha	89.995869
_cell_angle_beta	89.976791
_cell_angle_gamma	83.314311
loop_
_atom_site_label
_atom_site_type_symbol
_atom_site_fract_x
_atom_site_fract_y
_atom_site_fract_z
O1	O	0.921624	0.104452	-0.062832
O2	O	1.421624	0.604452	0.437168
O3	O	0.719400	0.118542	-0.062780
O4	O	1.219400	0.618542	0.437220
O5	O	0.826040	-0.010412	-0.062807
O6	O	1.326040	0.489588	0.437193
O7	O	0.814984	0.233405	-0.062805
O8	O	1.314984	0.733405	0.437195
O9	O	0.826021	-0.010418	0.062382
O10	O	1.326021	0.489582	0.562382
O11	O	0.719381	0.118535	0.062408
O12	O	1.219381	0.618535	0.562408
O13	O	0.921605	0.104445	0.062357
O14	O	1.421605	0.604445	0.562357
Cu15	Cu	0.820492	0.111490	0.073813
Cu16	Cu	1.320492	0.611490	0.573813
Cu17	Cu	0.820514	0.111497	-0.074237
Cu18	Cu	1.320514	0.611497	0.425763
O19	O	0.814965	0.233399	0.062383
O20	O	1.314965	0.733399	0.562383
C21	C	0.693513	0.118085	-0.000179
C22	C	1.193513	0.618085	0.499821
C23	C	0.616406	0.116724	-0.000159
C24	C	1.116406	0.616724	0.499841
C25	C	0.571906	0.192388	-0.000171
C26	C	1.071906	0.692388	0.499829
C27	C	0.499456	0.191110	-0.000179
C28	C	0.999456	0.691110	0.499821
C29	C	0.471508	0.114163	-0.000191
C30	C	0.971508	0.614163	0.499809
C31	C	0.516018	0.038489	-0.000176
C32	C	1.016018	0.538489	0.499824
C33	C	0.588467	0.039769	-0.000160
C34	C	1.088467	0.539769	0.499840
C35	C	0.363096	0.053676	-0.044076
C36	C	0.863096	0.553676	0.455924
C37	C	0.290648	0.052398	-0.044097
C38	C	0.790648	0.552398	0.455903
C39	C	0.248053	0.110209	-0.000237
C40	C	0.748053	0.610209	0.499763
C41	C	0.277912	0.169312	0.043634
C42	C	0.777912	0.669312	0.543634
C43	C	0.350361	0.170593	0.043650
C44	C	0.850361	0.670593	0.543650
C45	C	0.392951	0.112765	-0.000208
C46	C	0.892951	0.612765	0.499792
C47	C	0.124993	0.184492	-0.000256
C48	C	0.624993	0.684492	0.499744
C49	C	0.052542	0.183210	-0.000260
C50	C	0.552542	0.683210	0.499740
C51	C	0.069106	0.030587	-0.000264
C52	C	0.569106	0.530587	0.499736
C53	C	0.141556	0.031871	-0.000253
C54	C	0.641556	0.531871	0.499747
C55	C	0.169495	0.108826	-0.000252
C56	C	0.669495	0.608826	0.499748
C57	C	0.825574	-0.041608	-0.000214
C58	C	1.325574	0.458392	0.499786
C59	C	0.824203	-0.134553	-0.000218
C60	C	1.324203	0.365447	0.499782
C61	C	0.819282	-0.472282	-0.000214
C62	C	1.319282	0.027718	0.499786
C63	C	0.743335	-0.424562	-0.000475
C64	C	1.243335	0.075438	0.499525
C65	C	0.744706	-0.327877	-0.000193
C66	C	1.244706	0.172123	0.499807
C67	C	0.821723	-0.304731	-0.000216
C68	C	1.321723	0.195269	0.499784
C69	C	0.859172	-0.345953	0.071262
C70	C	1.359172	0.154047	0.571262
C71	C	0.857264	-0.442582	0.071322
C72	C	1.357264	0.057418	0.571322
C73	C	0.858855	-0.442939	-0.071041
C74	C	1.358855	0.057061	0.428959
C75	C	0.858837	-0.345993	-0.071986
C76	C	1.358837	0.154007	0.428014
C77	C	0.823107	-0.210039	-0.000215
C78	C	1.323107	0.289961	0.499785
C79	C	0.817901	-0.566975	-0.000210
C80	C	1.317901	-0.066975	0.499790
C81	C	0.947492	0.104902	-0.000246
C82	C	1.447492	0.604902	0.499754
C83	C	1.024600	0.106263	-0.000271
C84	C	1.524600	0.606263	0.499729
C85	C	0.815432	0.264595	-0.000211
C86	C	1.315432	0.764595	0.499789
C87	C	0.816802	0.357540	-0.000212
C88	C	1.316802	0.857540	0.499788
N89	N	0.820481	0.111484	0.177944
N90	N	1.320481	0.611484	0.677944
N91	N	0.820530	0.111497	-0.178367
N92	N	1.320530	0.611497	0.321633
C93	C	0.867717	0.054411	0.217319
C94	C	1.367717	0.554411	0.717319
C95	C	0.867721	0.054407	0.296120
C96	C	1.367721	0.554407	0.796120
C97	C	0.820496	0.111490	0.335544
C98	C	1.320496	0.611490	0.835544
C99	C	0.773251	0.168567	0.296160
C100	C	1.273251	0.668567	0.796160
C101	C	0.773244	0.168564	0.217359
C102	C	1.273244	0.668564	0.717359
C103	C	0.811395	0.187781	0.460384
C104	C	1.311395	0.687781	0.960384
C105	C	0.811407	0.187785	0.539183
C106	C	1.311407	0.687785	1.039183
C107	C	0.820514	0.111500	0.578590
C108	C	1.320514	0.611500	1.078590
C109	C	0.829624	0.035208	0.539190
C110	C	1.329624	0.535208	1.039190
C111	C	0.829617	0.035204	0.460389
C112	C	1.329617	0.535204	0.960389
C113	C	0.820498	0.111500	0.420990
C114	C	1.320498	0.611500	0.920990
C115	C	0.867757	0.054419	0.703411
C116	C	1.367757	0.554419	1.203411
C117	C	0.867756	0.054414	0.782215
C118	C	1.367756	0.554414	1.282215
C119	C	0.773290	0.168581	0.782252
C120	C	1.273290	0.668581	1.282252
C121	C	0.773288	0.168579	0.703451
C122	C	1.273288	0.668579	1.203451
C123	C	0.820525	0.111499	0.664035
C124	C	1.320525	0.611499	1.164035
H125	H	0.594649	0.255051	-0.000172
H126	H	1.094649	0.755051	0.499828
H127	H	0.712988	-0.442976	-0.051732
H128	H	1.212988	0.057024	0.448268
H129	H	0.734836	0.215056	0.814350
H130	H	1.234836	0.715056	1.314350
H131	H	0.374670	0.218713	0.079373
H132	H	0.874670	0.718713	0.579373
O133	O	0.934121	-0.327523	0.074767
O134	O	1.434121	0.172477	0.574767
H135	H	0.959388	-0.357342	0.125761
H136	H	1.459388	0.142658	0.625761
H137	H	0.831457	-0.318638	-0.124863
H138	H	1.331457	0.181362	0.375137
H139	H	0.837040	-0.026911	0.571273
H140	H	1.337040	0.473089	1.071273
H141	H	0.016310	0.244828	-0.000265
H142	H	0.516310	0.744828	0.499735
O143	O	0.231983	0.231668	0.090950
O144	O	0.731983	0.731668	0.590950
H145	H	0.176589	0.220844	0.083579
H146	H	0.676589	0.720844	0.583579
O147	O	0.189559	-0.049738	-0.000247
O148	O	0.689559	0.450262	0.499753
H149	H	0.157957	-0.103461	-0.000261
H150	H	0.657957	0.396539	0.499739
H151	H	0.906218	0.007938	0.671318
H152	H	1.406218	0.507938	1.171318
O153	O	0.824706	-0.308238	0.141747
O154	O	1.324706	0.191762	0.641747
H155	H	0.780910	-0.260147	0.126051
H156	H	1.280910	0.239853	0.626051
H157	H	0.834032	-0.463382	-0.125218
H158	H	1.334032	0.036618	0.374782
O159	O	0.258451	-0.011355	-0.091405
O160	O	0.758451	0.488645	0.408595
H161	H	0.271460	-0.002482	-0.151524
H162	H	0.771460	0.497518	0.348476
H163	H	0.906219	0.007934	0.814274
H164	H	1.406219	0.507934	1.314274
H165	H	0.734778	0.215040	0.185299
H166	H	1.234778	0.715040	0.685299
H167	H	0.734799	0.215044	0.328262
H168	H	1.234799	0.715044	0.828262
O169	O	0.821066	-0.466693	0.142115
O170	O	1.321066	0.033307	0.642115
H171	H	0.857360	-0.511188	0.175465
H172	H	1.357360	-0.011188	0.675465
O173	O	0.451445	0.272721	-0.000200
O174	O	0.951445	0.772721	0.499800
H175	H	0.483045	0.326446	-0.000202
H176	H	0.983045	0.826446	0.499798
O177	O	0.636465	-0.041847	-0.000148
O178	O	1.136465	0.458153	0.499852
H179	H	0.691538	-0.028028	-0.000131
H180	H	1.191538	0.471972	0.499869
H181	H	0.046352	-0.032065	-0.000320
H182	H	0.546352	0.467935	0.499680
O183	O	0.155137	0.267487	-0.000241
O184	O	0.655137	0.767487	0.499759
H185	H	0.112018	0.319889	-0.000235
H186	H	0.612018	0.819889	0.499765
H187	H	0.734827	0.215056	0.671389
H188	H	1.234827	0.715056	1.171389
H189	H	0.913023	-0.475041	0.074549
H190	H	1.413023	0.024959	0.574549
H191	H	0.803994	0.249907	0.571257
H192	H	1.303994	0.749907	1.071257
H193	H	0.915002	-0.330843	-0.076319
H194	H	1.415002	0.169157	0.423681
H195	H	0.914850	-0.474911	-0.071538
H196	H	1.414850	0.025089	0.428462
O197	O	0.918654	-0.007162	0.174804
O198	O	1.418654	0.492838	0.674804
H199	H	0.951495	-0.046856	0.215428
H200	H	1.451495	0.453144	0.715428
O201	O	0.918676	-0.007143	0.338604
O202	O	1.418676	0.492857	0.838604
H203	H	0.951525	-0.046830	0.297957
H204	H	1.451525	0.453170	0.797957
O205	O	0.705710	-0.290074	-0.068061
O206	O	1.205710	0.209926	0.431939
H207	H	0.706653	-0.220824	-0.067930
H208	H	1.206653	0.279176	0.432070
H209	H	0.397772	0.006598	-0.079796
H210	H	0.897772	0.506598	0.420204
O211	O	0.801577	0.270065	0.417881
O212	O	1.301577	0.770065	0.917881
H213	H	0.795257	0.323114	0.458515
H214	H	1.295257	0.823114	0.958515
H215	H	0.493259	-0.024162	-0.000196
H216	H	0.993259	0.475838	0.499804
O217	O	0.703290	-0.450350	0.067067
O218	O	1.203290	0.049650	0.567067
H219	H	0.737244	-0.497005	0.100823
H220	H	1.237244	0.002995	0.600823
O221	O	0.839429	-0.047075	0.417889
O222	O	1.339429	0.452925	0.917889
H223	H	0.845758	-0.100124	0.458524
H224	H	1.345758	0.399876	0.958524
H225	H	0.715054	-0.299903	0.051147
H226	H	1.215054	0.200097	0.551147
