data_functionalizedCrystal
_audit_creation_method	'MofGen! by Chris Wilmer'
_symmetry_space_group_name_H-M	'P1'
_symmetry_Int_Tables_number	1
_symmetry_cell_setting	triclinic
loop_
_symmetry_equiv_pos_as_xyz
  x,y,z
_cell_length_a	25.639243
_cell_length_b	25.639240
_cell_length_c	25.639234
_cell_angle_alpha	89.967912
_cell_angle_beta	89.976852
_cell_angle_gamma	90.035481
loop_
_atom_site_label
_atom_site_type_symbol
_atom_site_fract_x
_atom_site_fract_y
_atom_site_fract_z
Zn1	Zn	0.799284	-0.208145	-0.295630
Zn2	Zn	1.299284	0.291855	0.204370
Zn3	Zn	0.799205	-0.295573	-0.208183
Zn4	Zn	1.299205	0.204427	0.291817
Zn5	Zn	0.711849	-0.208157	-0.208203
Zn6	Zn	1.211849	0.291843	0.291797
Zn7	Zn	0.711814	-0.295555	-0.295582
Zn8	Zn	1.211814	0.204445	0.204418
O9	O	0.755538	-0.251857	-0.251900
O10	O	1.255538	0.248143	0.248100
O11	O	0.872438	-0.219744	-0.284041
O12	O	1.372438	0.280256	0.215959
O13	O	0.787599	-0.283990	-0.135020
O14	O	1.287599	0.216010	0.364980
O15	O	0.723495	-0.134990	-0.219829
O16	O	1.223495	0.365010	0.280171
O17	O	0.872381	-0.283977	-0.219794
O18	O	1.372381	0.216023	0.280206
O19	O	0.787733	-0.134981	-0.284061
O20	O	1.287733	0.365019	0.215939
O21	O	0.723419	-0.219766	-0.135035
O22	O	1.223419	0.280234	0.364965
O23	O	0.638679	-0.219749	-0.219783
O24	O	1.138679	0.280251	0.280217
O25	O	0.723435	-0.283947	-0.368754
O26	O	1.223435	0.216053	0.131246
O27	O	0.638654	-0.283959	-0.283980
O28	O	1.138654	0.216041	0.216020
O29	O	0.787699	-0.219727	-0.368789
O30	O	1.287699	0.280273	0.131211
O31	O	0.787565	-0.368736	-0.219749
O32	O	1.287565	0.131264	0.280251
O33	O	0.723359	-0.368723	-0.283960
O34	O	1.223359	0.131277	0.216040
C35	C	0.619695	-0.251854	-0.251879
C36	C	1.119695	0.248146	0.248121
C37	C	0.561581	-0.251865	-0.251882
C38	C	1.061581	0.248135	0.248118
C39	C	0.201243	-0.218464	-0.285409
C40	C	0.701243	0.281536	0.214591
C41	C	0.146638	-0.218463	-0.285412
C42	C	0.646638	0.281537	0.214588
O43	O	0.118423	-0.190055	-0.313891
O44	O	0.618423	0.309945	0.186109
N45	N	0.119299	-0.251856	-0.251914
N46	N	0.619299	0.248144	0.248086
C47	C	0.146567	-0.285247	-0.218407
C48	C	0.646567	0.214753	0.281593
O49	O	0.118298	-0.313650	-0.189914
O50	O	0.618298	0.186350	0.310086
C51	C	0.201170	-0.285245	-0.218401
C52	C	0.701170	0.214755	0.281599
C53	C	0.228507	-0.251854	-0.251905
C54	C	0.728507	0.248146	0.248095
C55	C	0.228580	-0.185075	-0.318909
C56	C	0.728580	0.314925	0.181091
C57	C	0.283180	-0.185076	-0.318907
C58	C	0.783180	0.314924	0.181093
C59	C	0.310444	-0.218466	-0.285403
C60	C	0.810444	0.281534	0.214597
C61	C	0.283107	-0.251855	-0.251903
C62	C	0.783107	0.248145	0.248097
C63	C	0.228437	-0.318633	-0.184892
C64	C	0.728437	0.181367	0.315108
C65	C	0.283044	-0.318627	-0.184889
C66	C	0.783044	0.181373	0.315111
C67	C	0.310380	-0.285236	-0.218393
C68	C	0.810380	0.214764	0.281607
C69	C	0.364971	-0.285246	-0.218396
C70	C	0.864971	0.214754	0.281604
N71	N	0.392311	-0.251854	-0.251894
N72	N	0.892311	0.248146	0.248106
C73	C	0.365047	-0.218464	-0.285398
C74	C	0.865047	0.281536	0.214602
C75	C	0.031896	-0.285250	-0.218420
C76	C	0.531896	0.214750	0.281580
C77	C	-0.022706	-0.285255	-0.218428
C78	C	0.477294	0.214745	0.281572
C79	C	-0.022631	-0.218470	-0.285432
C80	C	0.477369	0.281530	0.214568
C81	C	0.031973	-0.218468	-0.285427
C82	C	0.531973	0.281532	0.214573
C83	C	0.059235	-0.251857	-0.251918
C84	C	0.559235	0.248143	0.248082
C85	C	0.479712	-0.218469	-0.285390
C86	C	0.979712	0.281531	0.214610
C87	C	0.534318	-0.218475	-0.285386
C88	C	1.034318	0.281525	0.214614
C89	C	0.534237	-0.285258	-0.218380
C90	C	1.034237	0.214742	0.281620
C91	C	0.479637	-0.285254	-0.218386
C92	C	0.979637	0.214746	0.281614
C93	C	0.452375	-0.251856	-0.251892
C94	C	0.952375	0.248144	0.248108
O95	O	0.393222	-0.313639	-0.189930
O96	O	0.893222	0.186361	0.310070
O97	O	0.393322	-0.190061	-0.313881
O98	O	0.893322	0.309939	0.186119
C99	C	0.755464	-0.387700	-0.251859
C100	C	1.255464	0.112300	0.248141
C101	C	0.755480	-0.445814	-0.251859
C102	C	1.255480	0.054186	0.248141
C103	C	0.789003	-0.806134	-0.285405
C104	C	1.289003	-0.306134	0.214595
C105	C	0.789019	-0.860738	-0.285416
C106	C	1.289019	-0.360738	0.214584
O107	O	0.817433	-0.888938	-0.313897
O108	O	1.317433	-0.388938	0.186103
N109	N	0.755611	-0.888096	-0.251950
N110	N	1.255611	-0.388096	0.248050
C111	C	0.722181	-0.860848	-0.218475
C112	C	1.222181	-0.360848	0.281525
O113	O	0.693766	-0.889132	-0.190011
O114	O	1.193766	-0.389132	0.309989
C115	C	0.722163	-0.806244	-0.218468
C116	C	1.222163	-0.306244	0.281532
C117	C	0.755578	-0.778889	-0.251932
C118	C	1.255578	-0.278889	0.248068
C119	C	0.822414	-0.778778	-0.318868
C120	C	1.322414	-0.278778	0.181132
C121	C	0.822399	-0.724178	-0.318856
C122	C	1.322399	-0.224178	0.181144
C123	C	0.788974	-0.696933	-0.285383
C124	C	1.288974	-0.196933	0.214617
C125	C	0.755563	-0.724288	-0.251920
C126	C	1.255563	-0.224288	0.248080
C127	C	0.688732	-0.778997	-0.184996
C128	C	1.188732	-0.278997	0.315004
C129	C	0.688717	-0.724390	-0.184991
C130	C	1.188717	-0.224390	0.315009
C131	C	0.722131	-0.697034	-0.218455
C132	C	1.222131	-0.197034	0.281545
C133	C	0.722122	-0.642443	-0.218435
C134	C	1.222122	-0.142443	0.281565
N135	N	0.755530	-0.615084	-0.251901
N136	N	1.255530	-0.115084	0.248099
C137	C	0.788956	-0.642329	-0.285375
C138	C	1.288956	-0.142329	0.214625
C139	C	0.722220	-0.975518	-0.218494
C140	C	1.222220	-0.475518	0.281506
C141	C	0.722240	-1.030121	-0.218499
C142	C	1.222240	-0.530121	0.281501
C143	C	0.789077	-1.030007	-0.285441
C144	C	1.289077	-0.530007	0.214559
C145	C	0.789059	-0.975404	-0.285433
C146	C	1.289059	-0.475404	0.214567
C147	C	0.755628	-0.948160	-0.251960
C148	C	1.255628	-0.448160	0.248040
C149	C	0.788922	-0.527664	-0.285348
C150	C	1.288922	-0.027664	0.214652
C151	C	0.788906	-0.473059	-0.285332
C152	C	1.288906	0.026941	0.214668
C153	C	0.722067	-0.473177	-0.218393
C154	C	1.222067	0.026823	0.281607
C155	C	0.722085	-0.527778	-0.218406
C156	C	1.222085	-0.027778	0.281594
C157	C	0.755515	-0.555020	-0.251888
C158	C	1.255515	-0.055020	0.248112
O159	O	0.693720	-0.614208	-0.189971
O160	O	1.193720	-0.114208	0.310029
O161	O	0.817361	-0.614038	-0.313839
O162	O	1.317361	-0.114038	0.186161
C163	C	0.891911	-0.251861	-0.251921
C164	C	1.391911	0.248139	0.248079
C165	C	0.950025	-0.251863	-0.251930
C166	C	1.450025	0.248137	0.248070
C167	C	0.755572	-0.251834	-0.388273
C168	C	1.255572	0.248166	0.111727
C169	C	0.755587	-0.251823	-0.446387
C170	C	1.255587	0.248177	0.053613
C171	C	0.755626	-0.115484	-0.251952
C172	C	1.255626	0.384516	0.248048
C173	C	0.755664	-0.057370	-0.251975
C174	C	1.255664	0.442630	0.248025
C175	C	0.722183	-0.218320	-0.806763
C176	C	1.222183	0.281680	-0.306763
C177	C	0.722185	-0.218310	-0.861367
C178	C	1.222185	0.281690	-0.361367
O179	O	0.693758	-0.189882	-0.889615
O180	O	1.193758	0.310118	-0.389615
N181	N	0.755604	-0.251741	-0.888669
N182	N	1.255604	0.248259	-0.388669
C183	C	0.789018	-0.285188	-0.861364
C184	C	1.289018	0.214812	-0.361364
O185	O	0.817443	-0.313623	-0.889601
O186	O	1.317443	0.186377	-0.389601
C187	C	0.789012	-0.285200	-0.806761
C188	C	1.289012	0.214800	-0.306761
C189	C	0.755595	-0.251763	-0.779462
C190	C	1.255595	0.248237	-0.279462
C191	C	0.688768	-0.184886	-0.779464
C192	C	1.188768	0.315114	-0.279464
C193	C	0.688766	-0.184895	-0.724863
C194	C	1.188766	0.315105	-0.224863
C195	C	0.722179	-0.218338	-0.697562
C196	C	1.222179	0.281662	-0.197562
C197	C	0.755593	-0.251772	-0.724861
C198	C	1.255593	0.248228	-0.224861
C199	C	0.822423	-0.318648	-0.779457
C200	C	1.322423	0.181352	-0.279457
C201	C	0.822414	-0.318657	-0.724849
C202	C	1.322414	0.181343	-0.224849
C203	C	0.788997	-0.285220	-0.697550
C204	C	1.288997	0.214780	-0.197550
C205	C	0.789004	-0.285223	-0.642959
C206	C	1.289004	0.214777	-0.142959
N207	N	0.755585	-0.251792	-0.615657
N208	N	1.255585	0.248208	-0.115657
C209	C	0.722173	-0.218349	-0.642959
C210	C	1.222173	0.281651	-0.142959
C211	C	0.789027	-0.285161	-0.976035
C212	C	1.289027	0.214839	-0.476035
C213	C	0.789036	-0.285147	-1.030637
C214	C	1.289036	0.214853	-0.530637
C215	C	0.722202	-0.218270	-1.030637
C216	C	1.222202	0.281730	-0.530637
C217	C	0.722197	-0.218282	-0.976033
C218	C	1.222197	0.281718	-0.476033
C219	C	0.755609	-0.251730	-0.948733
C220	C	1.255609	0.248270	-0.448733
C221	C	0.722171	-0.218370	-0.528294
C222	C	1.222171	0.281630	-0.028294
C223	C	0.722174	-0.218381	-0.473688
C224	C	1.222174	0.281619	0.026312
C225	C	0.789005	-0.285259	-0.473693
C226	C	1.289005	0.214741	0.026307
C227	C	0.789005	-0.285247	-0.528294
C228	C	1.289005	0.214753	-0.028294
C229	C	0.755584	-0.251801	-0.555593
C230	C	1.255584	0.248199	-0.055593
O231	O	0.817415	-0.313639	-0.614676
O232	O	1.317415	0.186361	-0.114676
O233	O	0.693748	-0.189924	-0.614716
O234	O	1.193748	0.310076	-0.114716
C235	C	0.755534	-0.251843	-0.116057
C236	C	1.255534	0.248157	0.383943
C237	C	0.755621	-0.251706	-0.057943
C238	C	1.255621	0.248294	0.442057
H239	H	0.816118	-0.450788	-0.312583
H240	H	1.316118	0.049212	0.187417
C241	C	0.825245	-0.321656	-0.444110
C242	C	1.325245	0.178344	0.055890
C243	C	0.813829	-0.373382	-0.457377
C244	C	1.313829	0.126618	0.042623
C245	C	0.847202	-0.406928	-0.430138
C246	C	1.347202	0.093072	0.069862
H247	H	0.820484	-0.316942	-0.407674
H248	H	1.320484	0.183058	0.092326
H249	H	0.860392	-0.314042	-0.453078
H250	H	1.360392	0.185958	0.046922
H251	H	0.778690	-0.380992	-0.448405
H252	H	1.278690	0.119008	0.051595
H253	H	0.818593	-0.378112	-0.493809
H254	H	1.318593	0.121888	0.006191
H255	H	0.882349	-0.399314	-0.439107
H256	H	1.382349	0.100686	0.060893
H257	H	0.842438	-0.402209	-0.393703
H258	H	1.342438	0.097791	0.106297
H259	H	0.839464	-0.442027	-0.439140
H260	H	1.339464	0.057973	0.060860
C261	C	0.564064	-0.182189	-0.321678
C262	C	1.064064	0.317811	0.178322
C263	C	0.595430	-0.148645	-0.292139
C264	C	1.095430	0.351355	0.207861
C265	C	0.622842	-0.115216	-0.325552
C266	C	1.122842	0.384784	0.174448
H267	H	0.540063	-0.162252	-0.341642
H268	H	1.040063	0.337748	0.158358
H269	H	0.585392	-0.202206	-0.344412
H270	H	1.085392	0.297794	0.155588
H271	H	0.574104	-0.128629	-0.269414
H272	H	1.074104	0.371371	0.230586
H273	H	0.619440	-0.168566	-0.272176
H274	H	1.119440	0.331434	0.227824
H275	H	0.644170	-0.135233	-0.348286
H276	H	1.144170	0.364767	0.151714
H277	H	0.598838	-0.095284	-0.345514
H278	H	1.098838	0.404716	0.154486
H279	H	0.644131	-0.092456	-0.305515
H280	H	1.144131	0.407544	0.194485
C281	C	0.825399	-0.945679	-0.321683
C282	C	1.325399	-0.445679	0.178317
C283	C	0.858929	-0.914329	-0.292112
C284	C	1.358929	-0.414329	0.207888
C285	C	0.892416	-0.886948	-0.325490
C286	C	1.392416	-0.386948	0.174510
H287	H	0.805440	-0.924341	-0.344455
H288	H	1.305440	-0.424341	0.155545
H289	H	0.845338	-0.969715	-0.341608
H290	H	1.345338	-0.469715	0.158392
H291	H	0.838992	-0.890296	-0.272196
H292	H	1.338992	-0.390296	0.227804
H293	H	0.878899	-0.935655	-0.269342
H294	H	1.378899	-0.435655	0.230658
H295	H	0.912355	-0.910983	-0.345415
H296	H	1.412355	-0.410983	0.154585
H297	H	0.872454	-0.865612	-0.348260
H298	H	1.372454	-0.365612	0.151740
H299	H	0.915173	-0.865677	-0.305430
H300	H	1.415173	-0.365677	0.194570
H301	H	0.694854	-0.450986	-0.191137
H302	H	1.194854	0.049014	0.308863
H303	H	0.816140	-0.549838	-0.312616
H304	H	1.316140	-0.049838	0.187384
C305	C	0.825309	-1.059688	-0.321769
C306	C	1.325309	-0.559688	0.178231
C307	C	0.818157	-1.113361	-0.314620
C308	C	1.318157	-0.613361	0.185380
C309	C	0.851517	-1.140721	-0.348079
C310	C	1.351517	-0.640721	0.151921
H311	H	0.860463	-1.050780	-0.314186
H312	H	1.360463	-0.550780	0.185814
H313	H	0.817627	-1.050753	-0.356901
H314	H	1.317627	-0.550753	0.143099
H315	H	0.825843	-1.122293	-0.279496
H316	H	1.325843	-0.622293	0.220504
H317	H	0.783010	-1.122285	-0.322206
H318	H	1.283010	-0.622285	0.177794
H319	H	0.843836	-1.131785	-0.383211
H320	H	1.343836	-0.631785	0.116789
H321	H	0.886669	-1.131808	-0.340494
H322	H	1.386669	-0.631808	0.159506
H323	H	0.846666	-1.177141	-0.343237
H324	H	1.346666	-0.677141	0.156763
H325	H	0.054090	-0.312444	-0.191135
H326	H	0.554090	0.187556	0.308865
C327	C	0.312548	-0.354940	-0.148490
C328	C	0.812548	0.145060	0.351510
C329	C	0.276916	-0.384189	-0.119163
C330	C	0.776916	0.115811	0.380837
C331	C	0.304075	-0.417652	-0.085634
C332	C	0.804075	0.082348	0.414366
H333	H	0.333854	-0.334969	-0.125699
H334	H	0.833854	0.165031	0.374301
H335	H	0.333831	-0.377779	-0.168433
H336	H	0.833831	0.122221	0.331567
H337	H	0.255642	-0.361354	-0.099221
H338	H	0.755642	0.138646	0.400779
H339	H	0.255609	-0.404171	-0.141940
H340	H	0.755609	0.095829	0.358060
H341	H	0.325358	-0.440490	-0.105577
H342	H	0.825358	0.059510	0.394423
H343	H	0.325380	-0.397676	-0.062847
H344	H	0.825380	0.102324	0.437153
H345	H	0.279903	-0.437504	-0.065735
H346	H	0.779903	0.062496	0.434265
C347	C	0.198741	-0.354952	-0.148600
C348	C	0.698741	0.145048	0.351400
C349	C	0.167397	-0.388522	-0.178132
C350	C	0.667397	0.111478	0.321868
C351	C	0.140041	-0.421992	-0.144715
C352	C	0.640041	0.078008	0.355285
H353	H	0.177399	-0.334982	-0.125847
H354	H	0.677399	0.165018	0.374153
H355	H	0.222791	-0.374862	-0.128658
H356	H	0.722791	0.125138	0.371342
H357	H	0.143349	-0.368614	-0.198066
H358	H	0.643349	0.131386	0.301934
H359	H	0.188725	-0.408503	-0.200884
H360	H	0.688725	0.091497	0.299116
H361	H	0.164091	-0.441902	-0.124773
H362	H	0.664091	0.058098	0.375227
H363	H	0.118703	-0.402019	-0.121963
H364	H	0.618703	0.097981	0.378037
H365	H	0.118774	-0.444777	-0.164748
H366	H	0.618774	0.055223	0.335252
H367	H	0.206387	-0.157882	-0.346192
H368	H	0.706387	0.342118	0.153808
C369	C	0.450048	-0.321531	-0.181958
C370	C	0.950048	0.178469	0.318042
C371	C	0.485614	-0.350766	-0.152611
C372	C	0.985614	0.149234	0.347389
C373	C	0.458380	-0.384182	-0.119041
C374	C	0.958380	0.115818	0.380959
H375	H	0.428737	-0.344384	-0.201856
H376	H	0.928737	0.155616	0.298144
H377	H	0.428763	-0.301511	-0.159187
H378	H	0.928763	0.198489	0.340813
H379	H	0.506890	-0.370785	-0.175380
H380	H	1.006890	0.129215	0.324620
H381	H	0.506926	-0.327927	-0.132702
H382	H	1.006926	0.172073	0.367298
H383	H	0.437095	-0.364162	-0.096269
H384	H	0.937095	0.135838	0.403731
H385	H	0.437071	-0.407032	-0.138943
H386	H	0.937071	0.092968	0.361057
H387	H	0.482508	-0.404019	-0.099121
H388	H	0.982508	0.095981	0.400879
H389	H	0.556445	-0.312444	-0.191103
H390	H	1.056445	0.187556	0.308897
C391	C	0.858695	-0.694576	-0.355250
C392	C	1.358695	-0.194576	0.144750
C393	C	0.887957	-0.730132	-0.384573
C394	C	1.387957	-0.230132	0.115427
C395	C	0.921393	-0.702886	-0.418112
C396	C	1.421393	-0.202886	0.081888
H397	H	0.881530	-0.673266	-0.335331
H398	H	1.381530	-0.173266	0.164669
H399	H	0.838688	-0.673289	-0.378039
H400	H	1.338688	-0.173289	0.121961
H401	H	0.907962	-0.751410	-0.361788
H402	H	1.407962	-0.251410	0.138212
H403	H	0.865135	-0.751443	-0.404503
H404	H	1.365135	-0.251443	0.095497
H405	H	0.901386	-0.681600	-0.440901
H406	H	1.401386	-0.181600	0.059099
H407	H	0.944225	-0.681578	-0.398189
H408	H	1.444225	-0.181578	0.101811
H409	H	0.941248	-0.727007	-0.438015
H410	H	1.441248	-0.227007	0.061985
C411	C	0.825342	-0.321389	-0.946330
C412	C	1.325342	0.178611	-0.446330
C413	C	0.858863	-0.291794	-0.914994
C414	C	1.358863	0.208206	-0.414994
C415	C	0.892318	-0.325150	-0.887621
C416	C	1.392318	0.174850	-0.387621
H417	H	0.845294	-0.341307	-0.970354
H418	H	1.345294	0.158693	-0.470354
H419	H	0.805343	-0.344169	-0.924985
H420	H	1.305343	0.155831	-0.424985
H421	H	0.878861	-0.269024	-0.936337
H422	H	1.378861	0.230976	-0.436337
H423	H	0.838926	-0.271878	-0.890960
H424	H	1.338926	0.228122	-0.390960
H425	H	0.872318	-0.347929	-0.866276
H426	H	1.372318	0.152071	-0.366276
H427	H	0.912266	-0.345066	-0.911649
H428	H	1.412266	0.154934	-0.411649
H429	H	0.915062	-0.305075	-0.866353
H430	H	1.415062	0.194925	-0.366353
H431	H	0.694962	-0.191150	-0.451464
H432	H	1.194962	0.308850	0.048536
C433	C	0.825409	-0.321416	-1.060204
C434	C	1.325409	0.178584	-0.560204
C435	C	0.877143	-0.310041	-1.046928
C436	C	1.377143	0.189959	-0.546928
C437	C	0.910663	-0.343449	-1.074146
C438	C	1.410663	0.156551	-0.574146
H439	H	0.820702	-0.316660	-1.096643
H440	H	1.320702	0.183340	-0.596643
H441	H	0.817765	-0.356555	-1.051224
H442	H	1.317765	0.143445	-0.551224
H443	H	0.884785	-0.274911	-1.055912
H444	H	1.384785	0.225089	-0.555912
H445	H	0.881867	-0.314801	-1.010494
H446	H	1.381867	0.185199	-0.510494
H447	H	0.903019	-0.378588	-1.065166
H448	H	1.403019	0.121412	-0.565166
H449	H	0.905952	-0.338690	-1.110584
H450	H	1.405952	0.161310	-0.610584
H451	H	0.945768	-0.335739	-1.065139
H452	H	1.445768	0.164261	-0.565139
C453	C	0.685908	-1.059723	-0.182141
C454	C	1.185908	-0.559723	0.317859
C455	C	0.656626	-1.024169	-0.152836
C456	C	1.156626	-0.524169	0.347164
C457	C	0.623144	-1.051418	-0.119344
C458	C	1.123144	-0.551418	0.380656
H459	H	0.705867	-1.081026	-0.159336
H460	H	1.205867	-0.581026	0.340664
H461	H	0.663092	-1.081017	-0.202111
H462	H	1.163092	-0.581017	0.297889
H463	H	0.679440	-1.002884	-0.132868
H464	H	1.179440	-0.502884	0.367132
H465	H	0.636657	-1.002866	-0.175627
H466	H	1.136657	-0.502866	0.324373
H467	H	0.600327	-1.072712	-0.139314
H468	H	1.100327	-0.572712	0.360686
H469	H	0.643107	-1.072719	-0.096542
H470	H	1.143107	-0.572719	0.403458
H471	H	0.603269	-1.027299	-0.099460
H472	H	1.103269	-0.527299	0.400540
C473	C	0.685869	-0.181998	-0.557833
C474	C	1.185869	0.318002	-0.057833
C475	C	0.656619	-0.152714	-0.522229
C476	C	1.156619	0.347286	-0.022229
C477	C	0.623180	-0.119195	-0.549421
C478	C	1.123180	0.380805	-0.049421
H479	H	0.663026	-0.201931	-0.579120
H480	H	1.163026	0.298069	-0.079120
H481	H	0.705873	-0.159184	-0.579137
H482	H	1.205873	0.340816	-0.079137
H483	H	0.636616	-0.175525	-0.500934
H484	H	1.136616	0.324475	-0.000934
H485	H	0.679448	-0.132770	-0.500940
H486	H	1.179448	0.367230	-0.000940
H487	H	0.643184	-0.096382	-0.570725
H488	H	1.143184	0.403618	-0.070725
H489	H	0.600340	-0.139132	-0.570707
H490	H	1.100340	0.360868	-0.070707
H491	H	0.603333	-0.099318	-0.525268
H492	H	1.103333	0.400682	-0.025268
C493	C	0.685862	-0.945914	-0.182231
C494	C	1.185862	-0.445914	0.317769
C495	C	0.652310	-0.914586	-0.211792
C496	C	1.152310	-0.414586	0.288208
C497	C	0.618805	-0.887316	-0.178406
C498	C	1.118805	-0.387316	0.321594
H499	H	0.705807	-0.924569	-0.159454
H500	H	1.205807	-0.424569	0.340546
H501	H	0.665940	-0.970015	-0.162311
H502	H	1.165940	-0.470015	0.337689
H503	H	0.672230	-0.890488	-0.231702
H504	H	1.172230	-0.390488	0.268298
H505	H	0.632353	-0.935919	-0.234567
H506	H	1.132353	-0.435919	0.265433
H507	H	0.598883	-0.911417	-0.158487
H508	H	1.098883	-0.411417	0.341513
H509	H	0.638754	-0.865974	-0.155631
H510	H	1.138754	-0.365974	0.344369
H511	H	0.596033	-0.866061	-0.198459
H512	H	1.096033	-0.366061	0.301541
C513	C	0.825349	-0.321461	-0.557966
C514	C	1.325349	0.178539	-0.057966
C515	C	0.858890	-0.291859	-0.589335
C516	C	1.358890	0.208141	-0.089335
C517	C	0.892376	-0.325206	-0.616668
C518	C	1.392376	0.174794	-0.116668
H519	H	0.805390	-0.344248	-0.579289
H520	H	1.305390	0.155752	-0.079289
H521	H	0.845280	-0.341371	-0.533903
H522	H	1.345280	0.158629	-0.033903
H523	H	0.838961	-0.271958	-0.613396
H524	H	1.338961	0.228042	-0.113396
H525	H	0.878860	-0.269074	-0.568025
H526	H	1.378860	0.230926	-0.068025
H527	H	0.912307	-0.345116	-0.592604
H528	H	1.412307	0.154884	-0.092604
H529	H	0.872413	-0.347991	-0.637988
H530	H	1.372413	0.152009	-0.137988
H531	H	0.915140	-0.305126	-0.637951
H532	H	1.415140	0.194874	-0.137951
H533	H	0.661522	-0.801260	-0.157745
H534	H	1.161522	-0.301260	0.342255
C535	C	0.450214	-0.182192	-0.321829
C536	C	0.950214	0.317808	0.178171
C537	C	0.485851	-0.152967	-0.351174
C538	C	0.985851	0.347033	0.148826
C539	C	0.458696	-0.119552	-0.384754
C540	C	0.958696	0.380448	0.115246
H541	H	0.428915	-0.159333	-0.301939
H542	H	0.928915	0.340667	0.198061
H543	H	0.428924	-0.202213	-0.344602
H544	H	0.928924	0.297787	0.155398
H545	H	0.507131	-0.132947	-0.328404
H546	H	1.007131	0.367053	0.171596
H547	H	0.507150	-0.175812	-0.371075
H548	H	1.007150	0.324188	0.128925
H549	H	0.437407	-0.139573	-0.407527
H550	H	0.937407	0.360427	0.092473
H551	H	0.437399	-0.096696	-0.364860
H552	H	0.937399	0.403304	0.135140
H553	H	0.482871	-0.099722	-0.404672
H554	H	0.982871	0.400278	0.095328
C555	C	0.685753	-0.557387	-0.182052
C556	C	1.185753	-0.057387	0.317948
C557	C	0.656470	-0.521837	-0.152743
C558	C	1.156470	-0.021837	0.347257
C559	C	0.622986	-0.549090	-0.119256
C560	C	1.122986	-0.049090	0.380744
H561	H	0.705711	-0.578693	-0.159249
H562	H	1.205711	-0.078693	0.340751
H563	H	0.662937	-0.578678	-0.202025
H564	H	1.162937	-0.078678	0.297975
H565	H	0.679283	-0.500555	-0.132771
H566	H	1.179283	-0.000555	0.367229
H567	H	0.636502	-0.500530	-0.175532
H568	H	1.136502	-0.000530	0.324468
H569	H	0.600170	-0.570381	-0.139230
H570	H	1.100170	-0.070381	0.360770
H571	H	0.642948	-0.570395	-0.096457
H572	H	1.142948	-0.070395	0.403543
H573	H	0.603110	-0.524974	-0.099370
H574	H	1.103110	-0.024974	0.400630
H575	H	0.661552	-0.157669	-0.702641
H576	H	1.161552	0.342331	-0.202641
H577	H	0.661491	-0.702210	-0.157734
H578	H	1.161491	-0.202210	0.342266
H579	H	0.849635	-0.345877	-0.801674
H580	H	1.349635	0.154123	-0.301674
C581	C	0.858624	-0.808380	-0.355277
C582	C	1.358624	-0.308380	0.144723
C583	C	0.829020	-0.839723	-0.388780
C584	C	1.329020	-0.339723	0.111220
C585	C	0.862364	-0.866990	-0.422331
C586	C	1.362364	-0.366990	0.077669
H587	H	0.881436	-0.829714	-0.335363
H588	H	1.381436	-0.329714	0.164637
H589	H	0.878507	-0.784276	-0.375232
H590	H	1.378507	-0.284276	0.124768
H591	H	0.809146	-0.863824	-0.368827
H592	H	1.309146	-0.363824	0.131173
H593	H	0.806210	-0.818402	-0.408705
H594	H	1.306210	-0.318402	0.091295
H595	H	0.882247	-0.842887	-0.442286
H596	H	1.382247	-0.342887	0.057714
H597	H	0.885174	-0.888321	-0.402413
H598	H	1.385174	-0.388321	0.097587
H599	H	0.842282	-0.888256	-0.445070
H600	H	1.342282	-0.388256	0.054930
H601	H	0.305433	-0.157885	-0.346188
H602	H	0.805433	0.342115	0.153812
C603	C	0.652470	-0.148514	-0.809005
C604	C	1.152470	0.351486	-0.309005
C605	C	0.623219	-0.119232	-0.773400
C606	C	1.123219	0.380768	-0.273400
C607	C	0.589782	-0.085710	-0.800590
C608	C	1.089782	0.414290	-0.300590
H609	H	0.629627	-0.168444	-0.830296
H610	H	1.129627	0.331556	-0.330296
H611	H	0.672476	-0.125698	-0.830306
H612	H	1.172476	0.374302	-0.330306
H613	H	0.603215	-0.142045	-0.752108
H614	H	1.103215	0.357955	-0.252108
H615	H	0.646048	-0.099292	-0.752109
H616	H	1.146048	0.400708	-0.252109
H617	H	0.609788	-0.062895	-0.821891
H618	H	1.109788	0.437105	-0.321891
H619	H	0.566943	-0.105644	-0.821880
H620	H	1.066943	0.394356	-0.321880
H621	H	0.569935	-0.065835	-0.776436
H622	H	1.069935	0.434165	-0.276436
H623	H	0.694996	-0.191040	-1.052875
H624	H	1.194996	0.308960	-0.552875
C625	C	0.685881	-0.182068	-0.946330
C626	C	1.185881	0.317932	-0.446330
C627	C	0.652353	-0.211676	-0.914954
C628	C	1.152353	0.288324	-0.414954
C629	C	0.618895	-0.178333	-0.887581
C630	C	1.118895	0.321667	-0.387581
H631	H	0.665935	-0.162138	-0.970354
H632	H	1.165935	0.337862	-0.470354
H633	H	0.705878	-0.159299	-0.925011
H634	H	1.205878	0.340701	-0.425011
H635	H	0.632359	-0.234436	-0.936271
H636	H	1.132359	0.265564	-0.436271
H637	H	0.672285	-0.231605	-0.890920
H638	H	1.172285	0.268395	-0.390920
H639	H	0.638891	-0.155564	-0.866263
H640	H	1.138891	0.344436	-0.366263
H641	H	0.598952	-0.158405	-0.911610
H642	H	1.098952	0.341595	-0.411610
H643	H	0.596145	-0.198417	-0.866286
H644	H	1.096145	0.301583	-0.366286
C645	C	0.858748	-0.354995	-0.695304
C646	C	1.358748	0.145005	-0.195304
C647	C	0.888019	-0.384263	-0.730903
C648	C	1.388019	0.115737	-0.230903
C649	C	0.921499	-0.417737	-0.703707
C650	C	1.421499	0.082263	-0.203707
H651	H	0.838788	-0.377824	-0.673986
H652	H	1.338788	0.122176	-0.173986
H653	H	0.881572	-0.335014	-0.674030
H654	H	1.381572	0.164986	-0.174030
H655	H	0.865198	-0.404242	-0.752169
H656	H	1.365198	0.095758	-0.252169
H657	H	0.907989	-0.361447	-0.752222
H658	H	1.407989	0.138553	-0.252222
H659	H	0.944323	-0.397756	-0.682432
H660	H	1.444323	0.102244	-0.182432
H661	H	0.901535	-0.440563	-0.682390
H662	H	1.401535	0.059437	-0.182390
H663	H	0.941367	-0.437596	-0.727856
H664	H	1.441367	0.062404	-0.227856
H665	H	0.054227	-0.191277	-0.312708
H666	H	0.554227	0.308723	0.187292
H667	H	-0.044839	-0.191281	-0.312711
H668	H	0.455161	0.308719	0.187289
H669	H	-0.044959	-0.312451	-0.191152
H670	H	0.455041	0.187549	0.308848
