data_functionalizedCrystal
_audit_creation_method	'MofGen! by Chris Wilmer'
_symmetry_space_group_name_H-M	'P1'
_symmetry_Int_Tables_number	1
_symmetry_cell_setting	triclinic
loop_
_symmetry_equiv_pos_as_xyz
  x,y,z
_cell_length_a	14.971506
_cell_length_b	14.971486
_cell_length_c	14.048226
_cell_angle_alpha	89.996728
_cell_angle_beta	90.005503
_cell_angle_gamma	83.618258
loop_
_atom_site_label
_atom_site_type_symbol
_atom_site_fract_x
_atom_site_fract_y
_atom_site_fract_z
O1	O	1.186939	0.116645	0.079090
O2	O	1.686939	0.616645	0.579090
O3	O	0.926541	0.130585	0.079104
O4	O	1.426541	0.630585	0.579104
O5	O	1.063719	-0.006585	0.079104
O6	O	1.563719	0.493415	0.579104
O7	O	1.049760	0.253814	0.079090
O8	O	1.549760	0.753814	0.579090
O9	O	1.063697	-0.006581	-0.079218
O10	O	1.563697	0.493419	0.420782
O11	O	0.926519	0.130588	-0.079218
O12	O	1.426519	0.630588	0.420782
O13	O	1.186916	0.116648	-0.079231
O14	O	1.686916	0.616648	0.420769
Zn15	Zn	1.056714	0.123619	-0.104361
Zn16	Zn	1.556714	0.623619	0.395639
Zn17	Zn	1.056743	0.123614	0.104234
Zn18	Zn	1.556743	0.623614	0.604234
O19	O	1.049738	0.253818	-0.079231
O20	O	1.549738	0.753818	0.420769
C21	C	0.893205	0.129960	-0.000055
C22	C	1.393205	0.629960	0.499945
C23	C	0.793909	0.128082	-0.000049
C24	C	1.293909	0.628082	0.499951
C25	C	1.063084	-0.039908	-0.000053
C26	C	1.563084	0.460092	0.499947
C27	C	1.061213	-0.139205	-0.000041
C28	C	1.561213	0.360795	0.499959
C29	C	1.220252	0.117273	-0.000070
C30	C	1.720252	0.617273	0.499930
C31	C	1.319548	0.119151	-0.000069
C32	C	1.819548	0.619151	0.499931
C33	C	1.050374	0.287141	-0.000072
C34	C	1.550374	0.787141	0.499928
C35	C	1.052244	0.386438	-0.000077
C36	C	1.552244	0.886438	0.499923
C37	C	1.757831	0.045733	-0.000045
C38	C	2.257831	0.545733	0.499955
C39	C	1.664530	0.043976	-0.000043
C40	C	2.164530	0.543976	0.499957
C41	C	1.607311	0.124568	-0.000053
C42	C	2.107311	0.624568	0.499947
C43	C	1.643395	0.206923	-0.000054
C44	C	2.143395	0.706923	0.499946
C45	C	1.736694	0.208680	-0.000049
C46	C	2.236694	0.708680	0.499951
C47	C	1.448932	0.203256	-0.000067
C48	C	1.948932	0.703256	0.499933
C49	C	1.355627	0.201500	-0.000074
C50	C	1.855627	0.701500	0.499926
C51	C	1.376769	0.038552	-0.000061
C52	C	1.876769	0.538552	0.499939
C53	C	1.470067	0.040309	-0.000056
C54	C	1.970067	0.540309	0.499944
C55	C	1.506145	0.122664	-0.000059
C56	C	2.006145	0.622664	0.499941
N57	N	1.056701	0.123621	-0.246722
N58	N	1.556701	0.623621	0.253278
C59	C	0.971656	0.443658	-0.000072
C60	C	1.471656	0.943658	0.499928
C61	C	0.973419	0.536957	-0.000059
C62	C	1.473419	1.036957	0.499941
C63	C	1.055771	0.573035	-0.000059
C64	C	1.555771	1.073035	0.499941
C65	C	1.136366	0.515809	-0.000061
C66	C	1.636366	1.015809	0.499939
C67	C	1.134602	0.422511	-0.000067
C68	C	1.634602	0.922511	0.499933
C69	C	1.140037	0.710271	-0.000051
C70	C	1.640037	1.210271	0.499949
C71	C	1.141802	0.803576	-0.000047
C72	C	1.641802	1.303576	0.499953
C73	C	0.978854	0.824718	-0.000043
C74	C	1.478854	1.324718	0.499957
C75	C	0.977090	0.731420	-0.000049
C76	C	1.477090	1.231420	0.499951
C77	C	1.057685	0.674200	-0.000053
C78	C	1.557685	1.174200	0.499947
C79	C	1.117515	0.062891	-0.703561
C80	C	1.617515	0.562891	-0.203561
C81	C	1.117507	0.062897	-0.603904
C82	C	1.617507	0.562897	-0.103904
C83	C	1.056743	0.123614	-0.554092
C84	C	1.556743	0.623614	-0.054092
C85	C	0.995989	0.184334	-0.603943
C86	C	1.495989	0.684334	-0.103943
C87	C	0.996002	0.184331	-0.703599
C88	C	1.496002	0.684331	-0.203599
C89	C	0.995964	0.184333	-0.396229
C90	C	1.495964	0.684333	0.103771
C91	C	0.995950	0.184335	-0.296566
C92	C	1.495950	0.684335	0.203434
C93	C	1.117469	0.062899	-0.296533
C94	C	1.617469	0.562899	0.203467
C95	C	1.117482	0.062897	-0.396189
C96	C	1.617482	0.562897	0.103811
C97	C	1.056727	0.123616	-0.446033
C98	C	1.556727	0.623616	0.053967
N99	N	1.056764	0.123605	0.246595
N100	N	1.556764	0.623605	0.746595
H101	H	1.804414	-0.019895	-0.000042
H102	H	2.304414	0.480105	0.499958
Br103	Br	0.913556	0.266738	-0.771244
Br104	Br	1.413556	0.766738	-0.271244
H105	H	0.907796	0.583542	-0.000052
H106	H	1.407796	1.083542	0.499948
H107	H	1.309040	0.267126	-0.000084
H108	H	1.809040	0.767126	0.499916
Br109	Br	1.243976	0.344854	-0.000063
Br110	Br	1.743976	0.844854	0.499937
Br111	Br	1.615570	-0.067788	-0.000004
Br112	Br	2.115570	0.432212	0.499996
H113	H	1.516654	-0.025317	-0.000056
H114	H	2.016654	0.474683	0.499944
H115	H	0.946494	0.233781	-0.436808
H116	H	1.446494	0.733781	0.063192
Br117	Br	0.913527	0.266743	-0.536345
Br118	Br	1.413527	0.766743	-0.036345
Br119	Br	1.497894	0.315026	-0.000066
Br120	Br	1.997894	0.815026	0.499934
H121	H	1.203419	0.545191	-0.000062
H122	H	1.703419	1.045191	0.499938
H123	H	1.347390	-0.028505	0.000030
H124	H	1.847390	0.471495	0.500030
H125	H	1.596799	0.272543	-0.000055
H126	H	2.096799	0.772543	0.499945
H127	H	0.904595	0.414291	-0.000084
H128	H	1.404595	0.914291	0.499916
Br129	Br	1.785658	0.320443	-0.000046
Br130	Br	2.285658	0.820443	0.499954
Br131	Br	1.249417	0.632615	-0.000047
Br132	Br	1.749417	1.132615	0.499953
H133	H	0.913231	0.871311	-0.000044
H134	H	1.413231	1.371311	0.499956
H135	H	0.910031	0.702048	-0.000055
H136	H	1.410031	1.202048	0.499945
Br137	Br	1.199917	-0.019508	-0.228885
Br138	Br	1.699917	0.480492	0.271115
Br139	Br	1.253567	0.852539	-0.000077
Br140	Br	1.753567	1.352539	0.499923
Br141	Br	1.199979	-0.019521	-0.771153
Br142	Br	1.699979	0.480479	-0.271153
Br143	Br	1.199959	-0.019498	-0.536255
Br144	Br	1.699959	0.480502	-0.036255
Br145	Br	1.199939	-0.019511	-0.463795
Br146	Br	1.699939	0.480489	0.036205
Br147	Br	0.913481	0.266740	-0.228971
Br148	Br	1.413481	0.766740	0.271029
