data_functionalizedCrystal
_audit_creation_method	'MofGen! by Chris Wilmer'
_symmetry_space_group_name_H-M	'P1'
_symmetry_Int_Tables_number	1
_symmetry_cell_setting	triclinic
loop_
_symmetry_equiv_pos_as_xyz
  x,y,z
_cell_length_a	15.995350
_cell_length_b	16.992695
_cell_length_c	15.455301
_cell_angle_alpha	87.173129
_cell_angle_beta	87.003404
_cell_angle_gamma	87.080299
loop_
_atom_site_label
_atom_site_type_symbol
_atom_site_fract_x
_atom_site_fract_y
_atom_site_fract_z
O1	O	-1.121222	-0.104129	0.072058
O2	O	-0.878282	-0.116610	0.072076
O3	O	-0.998778	0.003773	0.072060
O4	O	-1.000726	-0.224512	0.072074
O5	O	-0.991813	0.009903	-0.072202
O6	O	-0.871318	-0.110480	-0.072186
O7	O	-1.114257	-0.097999	-0.072204
Cu8	Cu	-0.992151	-0.103680	-0.085368
Cu9	Cu	-1.000388	-0.110929	0.085240
O10	O	-0.993761	-0.218382	-0.072188
C11	C	-0.843571	-0.113029	-0.000053
C12	C	-0.750517	-0.111483	-0.000046
C13	C	-0.992790	0.036051	-0.000071
C14	C	-0.985313	0.123095	-0.000070
C15	C	-1.148968	-0.101580	-0.000073
C16	C	-1.242022	-0.103127	-0.000074
C17	C	-0.412397	-0.105927	-0.000065
C18	C	-0.454079	-0.020178	-0.000391
C19	C	-0.550888	-0.021740	-0.000060
C20	C	-0.580142	-0.108683	-0.000056
C21	C	-0.545862	-0.154470	0.082324
C22	C	-0.449085	-0.152319	0.082387
C23	C	-0.440945	-0.147120	-0.081666
C24	C	-0.537836	-0.147053	-0.082749
C25	C	-0.674945	-0.110245	-0.000048
C26	C	-0.317595	-0.104367	-0.000066
C27	C	-0.999750	-0.250660	-0.000056
C28	C	-1.007226	-0.337704	-0.000051
N29	N	-0.986364	-0.098580	-0.205363
C30	C	-1.057448	0.173336	-0.000076
C31	C	-1.050419	0.255122	-0.000067
C32	C	-0.971254	0.286666	-0.000058
C33	C	-0.899114	0.236419	-0.000050
C34	C	-0.906144	0.154634	-0.000052
C35	C	-0.942116	0.530263	-0.000044
C36	C	-0.935091	0.612055	-0.000044
C37	C	-1.086397	0.630752	-0.000060
C38	C	-1.093421	0.548965	-0.000068
C39	C	-1.021281	0.498725	-0.000055
N40	N	-0.964067	0.370265	-0.000052
N41	N	-1.028469	0.415128	-0.000055
C42	C	-1.038139	-0.144238	-0.250755
C43	C	-1.033773	-0.140376	-0.341563
C44	C	-0.977628	-0.090861	-0.386978
C45	C	-0.925851	-0.045199	-0.341580
C46	C	-0.930221	-0.049057	-0.250774
C47	C	-0.958775	-0.074218	-0.658560
C48	C	-0.954406	-0.070365	-0.749373
C49	C	-1.062330	-0.165542	-0.749350
C50	C	-1.066692	-0.169399	-0.658541
C51	C	-1.014918	-0.123733	-0.613152
N52	N	-0.973162	-0.086915	-0.479798
N53	N	-1.019389	-0.127676	-0.520333
N54	N	-1.006181	-0.116022	0.205235
H55	H	-0.574242	0.014010	-0.059114
H56	H	-0.564409	-0.218475	0.085390
Cl57	Cl	-1.098864	-0.197779	-0.398623
H58	H	-0.431686	-0.124098	0.143965
Cl59	Cl	-1.156975	0.133689	-0.000096
Cl60	Cl	-1.137244	-0.231682	-0.601455
Cl61	Cl	-0.799591	0.276074	-0.000028
H62	H	-1.104482	-0.202719	-0.786316
H63	H	-0.413386	-0.210307	-0.082220
H64	H	-0.870621	0.637735	-0.000051
Cl65	Cl	-0.815456	0.091473	-0.000041
Cl66	Cl	-1.177082	0.693915	-0.000075
Cl67	Cl	-0.406074	-0.249744	0.088166
H68	H	-1.109159	0.296025	-0.000074
H69	H	-0.430411	0.016602	-0.059470
Cl70	Cl	-0.424678	0.028641	0.090306
Cl71	Cl	-0.883819	-0.008112	-0.806465
H72	H	-0.880140	-0.004879	-0.378564
H73	H	-0.888061	-0.011878	-0.213817
H74	H	-1.083854	-0.184563	-0.213784
H75	H	-0.883374	0.489367	-0.000034
Cl76	Cl	-0.893656	-0.016840	-0.601511
H77	H	-0.579363	0.009212	0.059092
H78	H	-0.575231	-0.127704	0.143630
H79	H	-1.157885	0.523288	-0.000075
H80	H	-0.415519	-0.116438	-0.144108
H81	H	-0.560145	-0.113594	-0.143694
H82	H	-0.557204	-0.210243	-0.087722
