data_functionalizedCrystal
_audit_creation_method	'MofGen! by Chris Wilmer'
_symmetry_space_group_name_H-M	'P1'
_symmetry_Int_Tables_number	1
_symmetry_cell_setting	triclinic
loop_
_symmetry_equiv_pos_as_xyz
  x,y,z
_cell_length_a	6.817900
_cell_length_b	12.840946
_cell_length_c	17.982959
_cell_angle_alpha	81.772463
_cell_angle_beta	76.724534
_cell_angle_gamma	88.344365
loop_
_atom_site_label
_atom_site_type_symbol
_atom_site_fract_x
_atom_site_fract_y
_atom_site_fract_z
V1	V	-3.894555	0.281457	0.107221
O2	O	-3.888434	0.320370	-0.003294
O3	O	-3.843275	0.236955	0.210814
O4	O	-3.790184	0.423635	0.106387
O5	O	-3.941893	0.132397	0.101856
V6	V	-4.385809	0.268801	0.093906
O7	O	-4.138856	0.309220	0.136429
O8	O	-4.591706	0.241037	0.064698
O9	O	-4.213883	0.313303	-0.009687
O10	O	-4.509327	0.229888	0.204421
O11	O	-4.455869	0.417861	0.099271
O12	O	-4.266974	0.126622	0.094740
C13	C	-3.689386	0.221528	0.236042
C14	C	-3.728372	0.186090	0.320736
C15	C	-3.926616	0.173062	0.364423
C16	C	-3.963276	0.139779	0.444005
C17	C	-3.801689	0.119518	0.479897
C18	C	-3.603428	0.132551	0.436204
C19	C	-3.566771	0.165840	0.356625
C20	C	-3.621675	0.459658	0.102832
C21	C	-3.617527	0.577789	0.102835
C22	C	-4.081852	-0.027541	0.098324
C23	C	-4.098853	0.090594	0.098308
V24	V	-3.877525	0.767616	0.107243
O25	O	-3.914258	0.921009	0.101887
O26	O	-3.783288	0.620775	0.106400
O27	O	-3.824708	0.766742	0.210836
O28	O	-3.872551	0.774031	-0.003272
V29	V	-4.366836	0.810493	0.093934
O30	O	-4.123761	0.740169	0.136452
O31	O	-4.570004	0.860624	0.064731
O32	O	-4.238259	0.946087	0.094775
O33	O	-4.447293	0.663015	0.099292
O34	O	-4.489000	0.809992	0.204451
O35	O	-4.196839	0.800120	-0.009661
C36	C	-4.031115	0.328725	-0.034911
C37	C	-3.971365	0.364170	-0.119604
C38	C	-3.670371	0.763982	0.236059
C39	C	-3.708023	0.766409	0.320753
C40	C	-4.015111	0.785914	-0.034892
C41	C	-3.956734	0.782451	-0.119588
C42	C	-3.905619	0.771397	0.364454
C43	C	-3.940985	0.773683	0.444032
C44	C	-3.778753	0.770974	0.479908
C45	C	-3.581140	0.765989	0.436201
C46	C	-3.545776	0.763711	0.356624
C47	C	-3.723755	0.775180	0.757127
C48	C	-3.759136	0.777456	0.836711
C49	C	-4.118964	0.785153	0.844536
C50	C	-4.083600	0.782874	0.764958
C51	C	-3.885991	0.777895	0.721257
C52	C	-3.847645	0.775418	0.634970
C53	C	-3.817097	0.773444	0.566195
C54	C	-4.118107	0.377200	-0.163291
C55	C	-4.061989	0.410488	-0.242872
C56	C	-3.859129	0.430752	-0.278763
C57	C	-3.712377	0.417716	-0.235071
C58	C	-3.768494	0.384422	-0.155493
H59	H	-4.124721	0.129170	0.479568
H60	H	-3.813462	0.457861	-0.343562
O61	O	-3.837667	0.087137	0.557201
C62	C	-4.047304	0.080009	0.588059
H63	H	-4.127306	0.069691	0.540439
H64	H	-4.102476	0.155012	0.613235
C65	C	-3.995440	-0.002484	0.710572
C66	C	-4.093699	-0.015166	0.652086
H67	H	-4.024062	-0.061188	0.750070
H68	H	-3.854204	0.002322	0.689784
H69	H	-4.041428	0.060022	0.731543
H70	H	-4.047693	-0.077663	0.631110
H71	H	-4.234930	-0.019984	0.672872
H72	H	-4.283296	0.360706	-0.134079
H73	H	-3.547205	0.434219	-0.264307
H74	H	-3.471875	0.116049	0.465439
O75	O	-3.531786	0.770145	0.714744
C76	C	-3.439204	0.677824	0.742668
H77	H	-3.559961	0.617420	0.774403
H78	H	-3.345711	0.697213	0.783976
C79	C	-3.152929	0.706570	0.635523
C80	C	-3.301244	0.632377	0.674495
H81	H	-3.067821	0.678537	0.593472
H82	H	-3.215298	0.768770	0.616711
H83	H	-3.075040	0.722721	0.669954
H84	H	-3.379146	0.616237	0.640066
H85	H	-3.238885	0.570173	0.693300
O86	O	-3.374064	0.178384	0.314298
C87	C	-3.239326	0.153381	0.363053
H88	H	-3.317494	0.099161	0.416962
H89	H	-3.189758	0.228699	0.380354
C90	C	-2.957507	0.164162	0.253904
C91	C	-3.053509	0.097561	0.320114
H92	H	-2.842880	0.129734	0.227417
H93	H	-3.048279	0.181011	0.221057
H94	H	-2.916218	0.226923	0.268332
H95	H	-3.094818	0.034808	0.305685
H96	H	-2.962738	0.080700	0.352957
H97	H	-4.058213	0.189549	0.335210
H98	H	-4.037733	0.773595	0.335251
H99	H	-4.101885	0.777747	0.479610
H100	H	-3.449050	0.763790	0.465417
O101	O	-4.310981	0.789815	0.886976
C102	C	-4.420021	0.701064	0.880737
H103	H	-4.310767	0.634900	0.864150
H104	H	-4.509813	0.722608	0.834534
C105	C	-4.699607	0.745654	0.979113
C106	C	-4.565420	0.664388	0.958747
H107	H	-4.789303	0.723032	1.027231
H108	H	-4.626149	0.805450	0.983315
H109	H	-4.774413	0.763600	0.940604
H110	H	-4.490599	0.646453	0.997250
H111	H	-4.638869	0.604588	0.954553
O112	O	-4.204445	0.422994	-0.285358
C113	C	-4.161952	0.355722	-0.342474
H114	H	-4.065341	0.287392	-0.323861
H115	H	-4.077105	0.401440	-0.399290
C116	C	-4.479315	0.396705	-0.376120
C117	C	-4.360670	0.312777	-0.353256
H118	H	-4.601892	0.370218	-0.382774
H119	H	-4.507942	0.442031	-0.337642
H120	H	-4.408586	0.434797	-0.423464
H121	H	-4.431388	0.274695	-0.305908
H122	H	-4.332060	0.267444	-0.391726
O123	O	-3.353811	0.758675	0.314225
C124	C	-3.261201	0.666358	0.342139
H125	H	-3.381940	0.605949	0.373882
H126	H	-3.167684	0.685751	0.383439
C127	C	-2.974972	0.695117	0.234976
C128	C	-3.123266	0.620918	0.273958
H129	H	-2.889880	0.667089	0.192920
H130	H	-3.037360	0.757315	0.216171
H131	H	-2.897063	0.711271	0.269400
H132	H	-3.201188	0.604775	0.239536
H133	H	-3.060887	0.558716	0.292755
O134	O	-3.625693	0.371875	-0.113167
C135	C	-3.434619	0.396881	-0.161921
H136	H	-3.453386	0.451104	-0.215828
H137	H	-3.355895	0.321565	-0.179225
C138	C	-3.283842	0.386093	-0.052773
C139	C	-3.306891	0.452698	-0.118980
H140	H	-3.205048	0.420518	-0.026285
H141	H	-3.412570	0.369242	-0.019926
H142	H	-3.218245	0.323333	-0.067203
H143	H	-3.372509	0.515449	-0.104549
H144	H	-3.178170	0.469560	-0.151824
H145	H	-3.627014	0.775255	0.865918
H146	H	-4.215711	0.785075	0.735753
