data_functionalizedCrystal
_audit_creation_method	'MofGen! by Chris Wilmer'
_symmetry_space_group_name_H-M	'P1'
_symmetry_Int_Tables_number	1
_symmetry_cell_setting	triclinic
loop_
_symmetry_equiv_pos_as_xyz
  x,y,z
_cell_length_a	16.120484
_cell_length_b	17.639617
_cell_length_c	17.639306
_cell_angle_alpha	65.670249
_cell_angle_beta	104.591192
_cell_angle_gamma	104.619344
loop_
_atom_site_label
_atom_site_type_symbol
_atom_site_fract_x
_atom_site_fract_y
_atom_site_fract_z
Zn1	Zn	-0.200766	1.346193	-0.729154
Zn2	Zn	-0.318759	1.313523	-0.596034
Zn3	Zn	-0.200734	1.180517	-0.563446
Zn4	Zn	-0.366355	1.201683	-0.707800
O5	O	-0.271653	1.260479	-0.649109
O6	O	-0.196512	1.458001	-0.734071
O7	O	-0.283170	1.273350	-0.475587
O8	O	-0.082045	1.207309	-0.580726
O9	O	-0.283201	1.433998	-0.636268
O10	O	-0.082068	1.329030	-0.702471
O11	O	-0.196458	1.175631	-0.451645
O12	O	-0.242609	1.067184	-0.560019
O13	O	-0.364322	1.243383	-0.826757
O14	O	-0.364290	1.082734	-0.666076
O15	O	-0.242664	1.349554	-0.842446
O16	O	-0.443766	1.293873	-0.615561
O17	O	-0.478735	1.211704	-0.697675
C18	C	-0.308612	1.044844	-0.607195
C19	C	-0.324447	0.952598	-0.589284
C20	C	-0.151375	0.711721	-0.785377
C21	C	-0.166272	0.625037	-0.768531
C22	C	-0.256335	0.600043	-0.666529
C23	C	-0.241449	0.686726	-0.683369
C24	C	-0.188967	0.742559	-0.742793
C25	C	-0.279041	0.717565	-0.640785
C26	C	-0.264152	0.804241	-0.657621
C27	C	-0.211670	0.860078	-0.717040
C28	C	-0.174078	0.829235	-0.759629
C29	C	-0.331517	0.661730	-0.581357
C30	C	-0.369110	0.692569	-0.538773
C31	C	-0.354226	0.779246	-0.555613
C32	C	-0.301744	0.835084	-0.615032
C33	C	-0.391818	0.810090	-0.513025
C34	C	-0.376929	0.896765	-0.529860
C35	C	-0.286855	0.921760	-0.631868
C36	C	-0.492025	1.251566	-0.657860
C37	C	-0.586293	1.247834	-0.661646
C38	C	-0.758882	1.241029	-0.668577
C39	C	-0.783561	1.280080	-0.629682
C40	C	-0.879595	1.276294	-0.633539
C41	C	-0.662840	1.244815	-0.664722
C42	C	-0.050420	1.269453	-0.640345
C43	C	0.043857	1.273277	-0.636611
C44	C	-0.308806	1.302473	-0.865553
C45	C	-0.324638	1.320369	-0.957788
C46	C	-0.234551	1.476956	-0.691186
C47	C	-0.218740	1.569205	-0.709118
C48	C	-0.151007	1.124865	-1.198842
C49	C	-0.165899	1.141698	-1.285516
C50	C	-0.256183	1.243442	-1.310425
C51	C	-0.241296	1.226620	-1.223752
C52	C	-0.188708	1.167330	-1.167967
C53	C	-0.278997	1.269086	-1.192877
C54	C	-0.264114	1.252261	-1.106211
C55	C	-0.211531	1.192972	-1.050420
C56	C	-0.173826	1.150506	-1.081301
C57	C	-0.331589	1.328371	-1.248662
C58	C	-0.369290	1.370836	-1.217787
C59	C	-0.354403	1.354017	-1.131120
C60	C	-0.301819	1.294728	-1.075330
C61	C	-0.392108	1.396483	-1.100239
C62	C	-0.377225	1.379659	-1.013574
C63	C	-0.286937	1.277904	-0.988664
C64	C	-0.234576	1.218698	-0.433513
C65	C	-0.218478	1.200974	-0.341300
H66	H	-0.434541	0.764618	-0.464636
O67	O	-0.819823	1.197754	-0.711683
C68	C	-0.903525	1.203572	-0.705989
H69	H	-0.899851	1.217931	-0.647740
H70	H	-0.929480	1.256312	-0.764819
C71	C	-0.969367	1.101650	-0.770526
C72	C	-0.964856	1.119279	-0.698980
H73	H	-1.007201	1.049656	-0.766206
H74	H	-0.912976	1.097732	-0.774365
H75	H	-0.990994	1.145607	-0.819544
H76	H	-0.943219	1.075328	-0.649965
H77	H	-1.021245	1.123187	-0.695132
H78	H	-0.244105	1.229632	-0.943241
O79	O	-0.722843	1.323422	-0.586488
C80	C	-0.764702	1.358966	-0.551059
H81	H	-0.833179	1.365973	-0.588093
H82	H	-0.768524	1.316020	-0.482487
C83	C	-0.628661	1.437734	-0.509476
C84	C	-0.712762	1.446346	-0.554966
H85	H	-0.596620	1.491632	-0.511881
H86	H	-0.600458	1.413785	-0.533342
H87	H	-0.631857	1.401942	-0.452336
H88	H	-0.709565	1.482128	-0.612105
H89	H	-0.740963	1.470303	-0.531109
H90	H	-0.434932	1.444751	-1.145671
H91	H	-0.199422	1.179269	-0.979851
H92	H	-0.130993	1.102235	-1.035878
H93	H	-0.244122	0.967223	-0.680260
O94	O	-0.099932	1.067217	-1.144758
C95	C	-0.069822	1.033358	-1.190593
H96	H	-0.115658	1.041068	-1.253189
H97	H	-0.001775	1.068150	-1.203162
C98	C	-0.010639	0.929488	-1.062242
C99	C	-0.066940	0.938951	-1.139121
H100	H	-0.008857	0.871254	-1.030491
H101	H	-0.030921	0.952301	-1.031361
H102	H	0.046061	0.958487	-1.072727
H103	H	-0.123641	0.909961	-1.128635
H104	H	-0.046667	0.916131	-1.169999
H105	H	-0.135190	1.107117	-1.310650
O106	O	-0.307134	1.301135	-1.364668
C107	C	-0.258269	1.366415	-1.423318
H108	H	-0.186103	1.369180	-1.395557
H109	H	-0.271028	1.353621	-1.483899
C110	C	-0.373775	1.447877	-1.477147
C111	C	-0.285140	1.451277	-1.443048
H112	H	-0.390353	1.500224	-1.489321
H113	H	-0.406699	1.403896	-1.437636
H114	H	-0.384397	1.437212	-1.527627
H115	H	-0.274522	1.461932	-1.392564
H116	H	-0.252216	1.495263	-1.482552
O117	O	-0.197234	0.944306	-0.733553
C118	C	-0.227830	0.987809	-0.819544
H119	H	-0.230204	0.947718	-0.857086
H120	H	-0.295847	1.000682	-0.826979
C121	C	-0.163247	1.121340	-0.806611
C122	C	-0.166156	1.072101	-0.852722
H123	H	-0.125207	1.173337	-0.827077
H124	H	-0.142636	1.092031	-0.748677
H125	H	-0.219931	1.132058	-0.812811
H126	H	-0.109474	1.061375	-0.846513
H127	H	-0.186755	1.101410	-0.910657
O128	O	-0.420207	0.638312	-0.481168
C129	C	-0.491752	0.595110	-0.520769
H130	H	-0.503818	0.633703	-0.591406
H131	H	-0.477312	0.531037	-0.509865
C132	C	-0.558291	0.534937	-0.396581
C133	C	-0.573115	0.582341	-0.483337
H134	H	-0.608479	0.527057	-0.373489
H135	H	-0.510088	0.564040	-0.369899
H136	H	-0.546256	0.481548	-0.387505
H137	H	-0.585139	0.635732	-0.492411
H138	H	-0.621322	0.553246	-0.510019
O139	O	-0.413886	1.421006	-0.983719
C140	C	-0.463511	1.476928	-1.051538
H141	H	-0.438884	1.493214	-1.112503
H142	H	-0.534719	1.445707	-1.057399
C143	C	-0.485042	1.538186	-0.960468
C144	C	-0.454790	1.558195	-1.035346
H145	H	-0.479667	1.588314	-0.950480
H146	H	-0.451612	1.500509	-0.914777
H147	H	-0.544380	1.512167	-0.965362
H148	H	-0.395450	1.584203	-1.030447
H149	H	-0.488210	1.595878	-1.081036
H150	H	-0.343702	1.342069	-1.319231
H151	H	-0.131345	0.874698	-0.808021
O152	O	-0.100321	0.766032	-0.843008
C153	C	-0.028746	0.809204	-0.803405
H154	H	-0.045523	0.808770	-0.744173
H155	H	0.029932	0.776579	-0.785405
C156	C	0.013443	0.901555	-0.937222
C157	C	-0.007166	0.901028	-0.864476
H158	H	0.026758	0.958195	-0.974894
H159	H	-0.034776	0.872468	-0.963904
H160	H	0.062339	0.874363	-0.922212
H161	H	-0.056067	0.928210	-0.879487
H162	H	0.041046	0.930122	-0.837799
H163	H	-0.343617	0.591151	-0.567633
H164	H	-0.412110	1.419108	-1.263218
H165	H	-0.135651	0.599933	-0.803208
H166	H	-0.407540	0.921874	-0.495184
H167	H	-0.299063	0.554572	-0.618143
