data_functionalizedCrystal
_audit_creation_method	'MofGen! by Chris Wilmer'
_symmetry_space_group_name_H-M	'P1'
_symmetry_Int_Tables_number	1
_symmetry_cell_setting	triclinic
loop_
_symmetry_equiv_pos_as_xyz
  x,y,z
_cell_length_a	18.215407
_cell_length_b	18.215405
_cell_length_c	18.215399
_cell_angle_alpha	89.969030
_cell_angle_beta	89.980650
_cell_angle_gamma	90.025333
loop_
_atom_site_label
_atom_site_type_symbol
_atom_site_fract_x
_atom_site_fract_y
_atom_site_fract_z
Zn1	Zn	1.125068	-0.292980	-0.416103
Zn2	Zn	1.625068	0.207020	0.083897
Zn3	Zn	1.124978	-0.416052	-0.293031
Zn4	Zn	1.624978	0.083948	0.206969
Zn5	Zn	1.002002	-0.293005	-0.293050
Zn6	Zn	1.502002	0.206995	0.206950
Zn7	Zn	1.001967	-0.416010	-0.416056
Zn8	Zn	1.501967	0.083990	0.083944
O9	O	1.063504	-0.354512	-0.354560
O10	O	1.563504	0.145488	0.145440
O11	O	1.228041	-0.309313	-0.399788
O12	O	1.728041	0.190687	0.100212
O13	O	1.108642	-0.399758	-0.190049
O14	O	1.608642	0.100242	0.309951
O15	O	1.018380	-0.190017	-0.309401
O16	O	1.518380	0.309983	0.190599
O17	O	1.227974	-0.399733	-0.309368
O18	O	1.727974	0.100267	0.190632
O19	O	1.108796	-0.189999	-0.399807
O20	O	1.608796	0.310001	0.100193
O21	O	1.018292	-0.309355	-0.190063
O22	O	1.518292	0.190645	0.309937
O23	O	0.899013	-0.309315	-0.309355
O24	O	1.399013	0.190685	0.190645
O25	O	1.018320	-0.399662	-0.519046
O26	O	1.518320	0.100338	-0.019046
O27	O	0.898987	-0.399686	-0.399727
O28	O	1.398987	0.100314	0.100273
O29	O	1.108762	-0.309272	-0.519081
O30	O	1.608762	0.190728	-0.019081
O31	O	1.108608	-0.519031	-0.309322
O32	O	1.608608	-0.019031	0.190678
O33	O	1.018232	-0.519000	-0.399708
O34	O	1.518232	-0.019000	0.100292
C35	C	0.872298	-0.354499	-0.354539
C36	C	1.372298	0.145501	0.145461
C37	C	0.790499	-0.354512	-0.354547
C38	C	1.290499	0.145488	0.145453
C39	C	0.602311	-0.401642	-0.401544
C40	C	1.102311	0.098358	0.098456
C41	C	0.525452	-0.401644	-0.401554
C42	C	1.025452	0.098356	0.098446
C43	C	0.525449	-0.307395	-0.307591
C44	C	1.025449	0.192605	0.192409
C45	C	0.602306	-0.307390	-0.307586
C46	C	1.102306	0.192610	0.192414
C47	C	0.640735	-0.354517	-0.354562
C48	C	1.140735	0.145483	0.145438
C49	C	0.487019	-0.354525	-0.354576
C50	C	0.987019	0.145475	0.145424
C51	C	0.403685	-0.354527	-0.354585
C52	C	0.903685	0.145473	0.145415
C53	C	0.724074	-0.354514	-0.354553
C54	C	1.224074	0.145486	0.145447
C55	C	1.063426	-0.545718	-0.354524
C56	C	1.563426	-0.045718	0.145476
C57	C	1.063460	-0.627517	-0.354534
C58	C	1.563460	-0.127517	0.145466
C59	C	1.110629	-0.815702	-0.307556
C60	C	1.610629	-0.315702	0.192444
C61	C	1.110662	-0.892561	-0.307574
C62	C	1.610662	-0.392561	0.192426
C63	C	1.016473	-0.892569	-0.401616
C64	C	1.516473	-0.392569	0.098384
C65	C	1.016444	-0.815712	-0.401601
C66	C	1.516444	-0.315712	0.098399
C67	C	1.063521	-0.777280	-0.354567
C68	C	1.563521	-0.277280	0.145433
C69	C	1.063583	-0.930997	-0.354600
C70	C	1.563583	-0.430997	0.145400
C71	C	1.063618	-1.014330	-0.354619
C72	C	1.563618	-0.514330	0.145381
C73	C	1.063487	-0.693942	-0.354548
C74	C	1.563487	-0.193942	0.145452
C75	C	1.255457	-0.354525	-0.354581
C76	C	1.755457	0.145475	0.145419
C77	C	1.337256	-0.354531	-0.354591
C78	C	1.837256	0.145469	0.145409
C79	C	1.063547	-0.354460	-0.546513
C80	C	1.563547	0.145540	-0.046513
C81	C	1.063565	-0.354437	-0.628312
C82	C	1.563565	0.145563	-0.128312
C83	C	1.063602	-0.162559	-0.354611
C84	C	1.563602	0.337441	0.145389
C85	C	1.063644	-0.080760	-0.354633
C86	C	1.563644	0.419240	0.145367
C87	C	1.110686	-0.307308	-0.893389
C88	C	1.610686	0.192692	-0.393389
C89	C	1.110677	-0.307328	-0.816530
C90	C	1.610677	0.192672	-0.316530
C91	C	1.016505	-0.401460	-0.816483
C92	C	1.516505	0.098540	-0.316483
C93	C	1.016518	-0.401444	-0.893341
C94	C	1.516518	0.098556	-0.393341
C95	C	1.063607	-0.354363	-0.931791
C96	C	1.563607	0.145637	-0.431791
C97	C	1.063586	-0.354400	-0.778075
C98	C	1.563586	0.145600	-0.278075
C99	C	1.063576	-0.354422	-0.694742
C100	C	1.563576	0.145578	-0.194742
C101	C	1.063618	-0.354342	-1.015130
C102	C	1.563618	0.145658	-0.515130
C103	C	1.063503	-0.354511	-0.163353
C104	C	1.563503	0.145489	0.336647
C105	C	1.063627	-0.354326	-0.081555
C106	C	1.563627	0.145674	0.418445
H107	H	1.148964	-0.784414	-0.269260
H108	H	1.648964	-0.284414	0.230740
C109	C	0.965480	-0.452698	-0.774767
C110	C	1.465480	0.047302	-0.274767
C111	C	0.981500	-0.525507	-0.793427
C112	C	1.481500	-0.025507	-0.293427
C113	C	0.934520	-0.572730	-0.755003
C114	C	1.434520	-0.072730	-0.255003
H115	H	0.916009	-0.442033	-0.787318
H116	H	1.416009	0.057967	-0.287318
H117	H	0.972227	-0.446016	-0.723487
H118	H	1.472227	0.053984	-0.223487
H119	H	0.974746	-0.532186	-0.844695
H120	H	1.474746	-0.032186	-0.344695
H121	H	1.030962	-0.536195	-0.780874
H122	H	1.530962	-0.036195	-0.280874
H123	H	0.941268	-0.566047	-0.703723
H124	H	1.441268	-0.066047	-0.203723
H125	H	0.885052	-0.562058	-0.767557
H126	H	1.385052	-0.062058	-0.267557
H127	H	0.945388	-0.622136	-0.767653
H128	H	1.445388	-0.122136	-0.267653
H129	H	1.149023	-0.923841	-0.269294
H130	H	1.649023	-0.423841	0.230706
C131	C	0.483683	-0.256356	-0.256498
C132	C	0.983683	0.243644	0.243502
C133	C	0.439539	-0.297970	-0.209244
C134	C	0.939539	0.202030	0.290756
C135	C	0.401063	-0.250978	-0.162160
C136	C	0.901063	0.249022	0.337840
H137	H	0.453664	-0.224315	-0.284625
H138	H	0.953664	0.275685	0.215375
H139	H	0.517553	-0.228299	-0.228473
H140	H	1.017553	0.271701	0.271527
H141	H	0.405674	-0.326014	-0.237266
H142	H	0.905674	0.173986	0.262734
H143	H	0.469540	-0.330009	-0.181100
H144	H	0.969540	0.169991	0.318900
H145	H	0.434932	-0.222922	-0.134135
H146	H	0.934932	0.277078	0.365865
H147	H	0.371048	-0.218940	-0.190293
H148	H	0.871048	0.281060	0.309707
H149	H	0.371112	-0.279207	-0.130088
H150	H	0.871112	0.220793	0.369912
H151	H	0.978143	-0.923869	-0.439908
H152	H	1.478143	-0.423869	0.060092
C153	C	0.644069	-0.256132	-0.256694
C154	C	1.144069	0.243868	0.243306
C155	C	0.688212	-0.209000	-0.298448
C156	C	1.188212	0.291000	0.201552
C157	C	0.726687	-0.161767	-0.251598
C158	C	1.226687	0.338233	0.248402
H159	H	0.674089	-0.284157	-0.224564
H160	H	1.174089	0.215843	0.275436
H161	H	0.610200	-0.228026	-0.228727
H162	H	1.110200	0.271974	0.271273
H163	H	0.722078	-0.237104	-0.326403
H164	H	1.222078	0.262896	0.173597
H165	H	0.658211	-0.180959	-0.330577
H166	H	1.158211	0.319041	0.169423
H167	H	0.692818	-0.133661	-0.223631
H168	H	1.192818	0.366339	0.276369
H169	H	0.756703	-0.189798	-0.219470
H170	H	1.256703	0.310202	0.280530
H171	H	0.756638	-0.129778	-0.279921
H172	H	1.256638	0.370222	0.220079
C173	C	0.965525	-0.452632	-0.935077
C174	C	1.465525	0.047368	-0.435077
C175	C	1.007190	-0.499802	-0.979173
C176	C	1.507190	0.000198	-0.479173
C177	C	0.960248	-0.546975	-1.017622
C178	C	1.460248	-0.046975	-0.517622
H179	H	0.933461	-0.424564	-0.965126
H180	H	1.433461	0.075436	-0.465126
H181	H	0.937491	-0.480713	-0.901191
H182	H	1.437491	0.019287	-0.401191
H183	H	1.035212	-0.471724	-1.013055
H184	H	1.535212	0.028276	-0.513055
H185	H	1.039252	-0.527886	-0.949142
H186	H	1.539252	-0.027886	-0.449142
H187	H	0.932213	-0.575056	-0.983737
H188	H	1.432213	-0.075056	-0.483737
H189	H	0.928186	-0.518901	-1.047667
H190	H	1.428186	-0.018901	-0.547667
H191	H	0.988510	-0.578990	-1.047541
H192	H	1.488510	-0.078990	-0.547541
H193	H	0.978083	-0.784427	-0.439887
H194	H	1.478083	-0.284427	0.060113
H195	H	1.149014	-0.269012	-0.785265
H196	H	1.649014	0.230988	-0.285265
H197	H	0.633597	-0.440015	-0.439797
H198	H	1.133597	0.059985	0.060203
H199	H	0.494170	-0.440017	-0.439813
H200	H	0.994170	0.059983	0.060187
C201	C	1.161896	-0.256171	-0.935003
C202	C	1.661896	0.243829	-0.435003
C203	C	1.203137	-0.214982	-0.884917
C204	C	1.703137	0.285018	-0.384917
C205	C	1.250329	-0.167874	-0.923222
C206	C	1.750329	0.332126	-0.423222
H207	H	1.133847	-0.224032	-0.964993
H208	H	1.633847	0.275968	-0.464993
H209	H	1.193993	-0.284301	-0.964966
H210	H	1.693993	0.215699	-0.464966
H211	H	1.171044	-0.186854	-0.854967
H212	H	1.671044	0.313146	-0.354967
H213	H	1.231201	-0.247101	-0.854925
H214	H	1.731201	0.252899	-0.354925
H215	H	1.282426	-0.196004	-0.953185
H216	H	1.782426	0.303996	-0.453185
H217	H	1.222274	-0.135740	-0.953211
H218	H	1.722274	0.364260	-0.453211
H219	H	1.278321	-0.139926	-0.889245
H220	H	1.778321	0.360074	-0.389245
