data_functionalizedCrystal
_audit_creation_method	'MofGen! by Chris Wilmer'
_symmetry_space_group_name_H-M	'P1'
_symmetry_Int_Tables_number	1
_symmetry_cell_setting	triclinic
loop_
_symmetry_equiv_pos_as_xyz
  x,y,z
_cell_length_a	16.992694
_cell_length_b	16.992695
_cell_length_c	16.053802
_cell_angle_alpha	92.741074
_cell_angle_beta	87.249047
_cell_angle_gamma	90.668223
loop_
_atom_site_label
_atom_site_type_symbol
_atom_site_fract_x
_atom_site_fract_y
_atom_site_fract_z
O1	O	1.053959	0.163815	-0.069325
O2	O	0.825560	0.161983	-0.069350
O3	O	0.938844	0.048699	-0.069331
O4	O	0.940676	0.277099	-0.069344
O5	O	0.932607	0.054907	0.069527
O6	O	0.819323	0.168191	0.069508
O7	O	1.047722	0.170023	0.069533
Zn8	Zn	0.932532	0.170093	0.091567
Zn9	Zn	0.940750	0.161913	-0.091384
O10	O	0.934438	0.283307	0.069514
C11	C	0.793082	0.162731	0.000076
C12	C	0.705597	0.155702	0.000067
C13	C	0.659607	0.223520	0.000064
C14	C	0.577405	0.216911	0.000076
C15	C	0.541197	0.142484	0.000085
C16	C	0.587193	0.074661	0.000091
C17	C	0.669393	0.081270	0.000085
C18	C	0.295881	0.115090	0.000109
C19	C	0.213676	0.108486	0.000112
C20	C	0.203893	0.250737	0.000099
C21	C	0.286095	0.257339	0.000088
C22	C	0.332084	0.189517	0.000098
N23	N	0.457174	0.135727	0.000094
N24	N	0.416105	0.196275	0.000094
C25	C	0.933370	0.022443	0.000098
C26	C	0.926341	-0.065042	0.000097
C27	C	0.994158	-0.111032	0.000105
C28	C	0.987550	-0.193233	0.000096
C29	C	0.913123	-0.229442	0.000086
C30	C	0.845300	-0.183446	0.000075
C31	C	0.851910	-0.101246	0.000078
C32	C	0.885729	-0.474757	0.000071
C33	C	0.879124	-0.556962	0.000071
C34	C	1.021375	-0.566745	0.000091
C35	C	1.027978	-0.484543	0.000099
C36	C	0.960155	-0.438554	0.000083
N37	N	0.906366	-0.313465	0.000079
N38	N	0.966913	-0.354533	0.000084
C39	C	1.080201	0.169275	0.000105
C40	C	1.167685	0.176304	0.000109
C41	C	0.939913	0.309563	0.000084
C42	C	0.946942	0.397047	0.000079
N43	N	0.926930	0.175675	0.216427
N44	N	0.946358	0.156325	-0.216243
C45	C	0.975152	0.127492	0.260129
C46	C	0.971241	0.131404	0.347535
C47	C	0.919110	0.183504	0.391237
C48	C	0.870883	0.231689	0.347529
C49	C	0.874791	0.227772	0.260125
C50	C	0.902039	0.200593	0.652644
C51	C	0.898136	0.204508	0.740055
C52	C	0.998493	0.104222	0.740054
C53	C	1.002400	0.100313	0.652648
C54	C	0.954169	0.148494	0.608948
N55	N	0.915113	0.187507	0.480580
N56	N	0.958163	0.144487	0.519606
H57	H	1.054765	-0.081557	0.000119
H58	H	0.818513	-0.586440	0.000076
H59	H	1.010506	0.092170	0.383116
C60	C	0.813538	0.289001	0.395597
C61	C	0.809275	0.293356	0.491739
C62	C	0.751931	0.350672	0.539804
C63	C	0.698849	0.403633	0.491728
C64	C	0.703110	0.399280	0.395581
C65	C	0.760454	0.341964	0.347516
H66	H	0.848571	0.254150	0.527333
H67	H	0.748777	0.353894	0.610979
H68	H	0.656399	0.446062	0.527309
H69	H	0.663814	0.438486	0.359987
H70	H	0.763608	0.338742	0.276341
C71	C	1.032497	0.070180	0.212060
C72	C	1.085536	0.017176	0.260137
C73	C	1.142880	-0.040139	0.212071
C74	C	1.147186	-0.044452	0.115930
C75	C	1.094144	0.008553	0.067848
C76	C	1.036800	0.065869	0.115913
H77	H	1.082351	0.020367	0.331311
H78	H	1.182145	-0.079377	0.247665
H79	H	1.189635	-0.086881	0.080349
H80	H	1.097330	0.005362	-0.003327
H81	H	0.997536	0.105107	0.080320
H82	H	0.539963	0.272136	0.000072
C83	C	0.811122	-0.424179	0.000070
C84	C	0.754768	-0.434670	-0.072035
C85	C	0.680157	-0.384090	-0.072032
C86	C	0.661899	-0.323019	0.000076
C87	C	0.718254	-0.312525	0.072186
C88	C	0.792866	-0.363105	0.072183
H89	H	0.768283	-0.479882	-0.125418
H90	H	0.638439	-0.391859	-0.125413
H91	H	0.606666	-0.285576	0.000078
H92	H	0.704739	-0.267314	0.125569
H93	H	0.834583	-0.355337	0.125563
C94	C	1.059739	0.043000	0.604572
C95	C	1.112786	-0.010007	0.652635
C96	C	1.170127	-0.067317	0.604556
C97	C	1.174422	-0.071620	0.508415
C98	C	1.121373	-0.018611	0.460347
C99	C	1.064032	0.038699	0.508425
H100	H	1.109609	-0.006824	0.723810
H101	H	1.209397	-0.106558	0.640140
H102	H	1.216869	-0.114044	0.472824
H103	H	1.124550	-0.021795	0.389172
H104	H	1.024761	0.077940	0.472841
H105	H	1.042774	-0.230676	0.000105
H106	H	0.855683	0.246937	0.775633
H107	H	1.037759	0.064994	0.775643
C108	C	0.325922	0.339211	0.000081
C109	C	0.275333	0.413812	0.000080
C110	C	0.315161	0.495684	0.000069
C111	C	0.405577	0.502956	0.000059
C112	C	0.456171	0.428352	0.000060
C113	C	0.416344	0.346480	0.000071
H114	H	0.208397	0.408432	0.000087
H115	H	0.277707	0.550911	0.000068
H116	H	0.435060	0.563563	0.000051
H117	H	0.523107	0.433733	0.000053
H118	H	0.453797	0.291254	0.000072
H119	H	0.689081	0.284126	0.000056
H120	H	0.166440	0.305954	0.000092
H121	H	0.184198	0.047875	0.000119
C122	C	1.109847	-0.444711	0.000105
C123	C	1.137184	-0.392760	-0.071995
C124	C	1.219052	-0.352925	-0.071985
C125	C	1.273584	-0.365040	0.000125
C126	C	1.246248	-0.416992	0.072231
C127	C	1.164379	-0.456828	0.072221
H128	H	1.096815	-0.383790	-0.125380
H129	H	1.239287	-0.314466	-0.125362
H130	H	1.334188	-0.335551	0.000133
H131	H	1.286616	-0.425962	0.125616
H132	H	1.144144	-0.495286	0.125599
H133	H	0.835522	0.267007	0.224543
H134	H	0.333316	0.059864	0.000118
H135	H	0.557705	0.014061	0.000110
H136	H	0.706838	0.026046	0.000087
H137	H	1.076592	-0.604198	0.000102
H138	H	0.784700	-0.212933	0.000061
H139	H	0.796685	-0.063801	0.000071
H140	H	0.862769	0.239826	0.617070
