data_functionalizedCrystal
_audit_creation_method	'MofGen! by Chris Wilmer'
_symmetry_space_group_name_H-M	'P1'
_symmetry_Int_Tables_number	1
_symmetry_cell_setting	triclinic
loop_
_symmetry_equiv_pos_as_xyz
  x,y,z
_cell_length_a	14.044191
_cell_length_b	16.974813
_cell_length_c	15.455320
_cell_angle_alpha	90.974815
_cell_angle_beta	92.909799
_cell_angle_gamma	88.283629
loop_
_atom_site_label
_atom_site_type_symbol
_atom_site_fract_x
_atom_site_fract_y
_atom_site_fract_z
O1	O	1.262353	0.186881	0.085204
O2	O	1.595686	0.520214	0.418537
O3	O	1.929019	0.853547	0.751870
O4	O	0.986365	0.180017	0.084733
O5	O	1.319698	0.513351	0.418066
O6	O	1.653032	0.846684	0.751400
O7	O	1.131591	0.069242	0.076947
O8	O	1.464925	0.402575	0.410281
O9	O	1.798258	0.735909	0.743614
O10	O	1.117127	0.297656	0.092989
O11	O	1.450460	0.630990	0.426323
O12	O	1.783793	0.964323	0.759656
O13	O	1.123321	0.075577	-0.066869
O14	O	1.456654	0.408910	0.266464
O15	O	1.789987	0.742243	0.599797
O16	O	0.978094	0.186352	-0.059084
O17	O	1.311428	0.519686	0.274250
O18	O	1.644761	0.853019	0.607583
O19	O	1.254082	0.193216	-0.058613
O20	O	1.587415	0.526549	0.274720
O21	O	1.920749	0.859882	0.608054
Cu22	Cu	1.115333	0.190362	-0.071980
Cu23	Cu	1.448666	0.523696	0.261353
Cu24	Cu	1.782000	0.857029	0.594687
Cu25	Cu	1.125114	0.182871	0.098100
Cu26	Cu	1.458447	0.516204	0.431433
Cu27	Cu	1.791781	0.849537	0.764767
O28	O	1.108856	0.303991	-0.050827
O29	O	1.442189	0.637324	0.282506
O30	O	1.775523	0.970658	0.615839
C31	C	0.946907	0.180183	0.012615
C32	C	1.280241	0.513516	0.345949
C33	C	1.613574	0.846849	0.679282
C34	C	0.841657	0.171227	0.011991
C35	C	1.174990	0.504560	0.345324
C36	C	1.508324	0.837894	0.678658
C37	C	1.126752	0.043001	0.002976
C38	C	1.460085	0.376334	0.336309
C39	C	1.793419	0.709667	0.669642
C40	C	1.124644	-0.044629	-0.003173
C41	C	1.457977	0.288704	0.330160
C42	C	1.791310	0.622038	0.663494
C43	C	1.128163	-0.089246	0.072332
C44	C	1.461497	0.244087	0.405666
C45	C	1.794830	0.577420	0.738999
C46	C	1.126176	-0.171583	0.066552
C47	C	1.459509	0.161750	0.399886
C48	C	1.792843	0.495083	0.733219
C49	C	1.120675	-0.209302	-0.014734
C50	C	1.454009	0.124031	0.318599
C51	C	1.787342	0.457365	0.651933
C52	C	1.117152	-0.164679	-0.090245
C53	C	1.450486	0.168655	0.243089
C54	C	1.783819	0.501988	0.576422
C55	C	1.119133	-0.082343	-0.084464
C56	C	1.452466	0.250990	0.248869
C57	C	1.785800	0.584324	0.582203
C58	C	1.114262	-0.455179	-0.040429
C59	C	1.447595	-0.121846	0.292904
C60	C	1.780928	0.211487	0.626237
C61	C	1.112284	-0.537521	-0.046204
C62	C	1.445617	-0.204188	0.287129
C63	C	1.778951	0.129146	0.620462
C64	C	1.121306	-0.544420	0.110593
C65	C	1.454639	-0.211087	0.443927
C66	C	1.787973	0.122247	0.777260
C67	C	1.123292	-0.462082	0.116367
C68	C	1.456625	-0.128749	0.449700
C69	C	1.789959	0.204584	0.783034
C70	C	1.119764	-0.417466	0.040856
C71	C	1.453097	-0.084133	0.374189
C72	C	1.786431	0.249200	0.707523
N73	N	1.118647	-0.293464	-0.020644
N74	N	1.451980	0.039870	0.312689
N75	N	1.785313	0.373203	0.646023
N76	N	1.121786	-0.333306	0.046767
N77	N	1.455119	0.000028	0.380100
N78	N	1.788452	0.333361	0.713434
C79	C	0.591499	0.218368	0.015293
C80	C	0.924832	0.551702	0.348626
C81	C	1.258165	0.885035	0.681960
C82	C	0.648955	0.154868	0.010835
C83	C	0.982288	0.488201	0.344168
C84	C	1.315621	0.821535	0.677501
C85	C	0.756184	0.163972	0.011478
C86	C	1.089517	0.497306	0.344812
C87	C	1.422851	0.830639	0.678145
C88	C	0.484259	0.209265	0.014650
C89	C	0.817593	0.542598	0.347983
C90	C	1.150926	0.875932	0.681316
C91	C	1.293540	0.193050	0.013507
C92	C	1.626873	0.526384	0.346840
C93	C	1.960207	0.859717	0.680173
C94	C	1.398791	0.202006	0.014137
C95	C	1.732124	0.535339	0.347470
C96	C	2.065457	0.868672	0.680803
C97	C	1.113695	0.330232	0.023147
C98	C	1.447028	0.663566	0.356480
C99	C	1.780362	0.996899	0.689813
C100	C	1.115804	0.417862	0.029301
C101	C	1.449137	0.751195	0.362634
C102	C	1.782471	1.084528	0.695967
N103	N	1.108461	0.195632	-0.191605
N104	N	1.441794	0.528965	0.141728
N105	N	1.775127	0.862298	0.475062
C106	C	1.070283	0.224643	-0.733573
C107	C	1.403616	0.557976	-0.400240
C108	C	1.736949	0.891309	-0.066907
C109	C	1.075501	0.220674	-0.643044
C110	C	1.408834	0.554008	-0.309711
C111	C	1.742168	0.887341	0.023622
C112	C	1.142436	0.169663	-0.601219
C113	C	1.475769	0.502996	-0.267886
C114	C	1.809103	0.836329	0.065448
C115	C	1.204150	0.122611	-0.649928
C116	C	1.537483	0.455944	-0.316594
C117	C	1.870817	0.789277	0.016739
C118	C	1.198927	0.126575	-0.740455
C119	C	1.532260	0.459909	-0.407122
C120	C	1.865593	0.793242	-0.073789
C121	C	1.164951	0.152544	-0.330841
C122	C	1.498285	0.485877	0.002492
C123	C	1.831618	0.819211	0.335825
C124	C	1.170172	0.148585	-0.240307
C125	C	1.503505	0.481918	0.093026
C126	C	1.836839	0.815251	0.426360
C127	C	1.041521	0.246648	-0.233430
C128	C	1.374854	0.579981	0.099903
C129	C	1.708188	0.913315	0.433237
C130	C	1.036307	0.250612	-0.323959
C131	C	1.369641	0.583945	0.009374
C132	C	1.702974	0.917278	0.342707
C133	C	1.098018	0.203556	-0.372660
C134	C	1.431351	0.536890	-0.039327
C135	C	1.764685	0.870223	0.294006
N136	N	1.147773	0.165607	-0.508684
N137	N	1.481107	0.498940	-0.175351
N138	N	1.814440	0.832274	0.157983
N139	N	1.092675	0.207608	-0.465194
N140	N	1.426009	0.540942	-0.131861
N141	N	1.759342	0.874275	0.201473
N142	N	1.131994	0.177596	0.217725
N143	N	1.465328	0.510929	0.551058
N144	N	1.798661	0.844262	0.884391
H145	H	1.132648	-0.058542	0.138524
H146	H	1.465981	0.274791	0.471858
H147	H	1.799314	0.608125	0.805191
N148	N	1.008933	0.271410	-0.590515
N149	N	1.342266	0.604744	-0.257182
N150	N	1.675600	0.938077	0.076151
H151	H	0.965740	0.304329	-0.630748
H152	H	1.299073	0.637662	-0.297415
H153	H	1.632406	0.970995	0.035919
H154	H	1.047477	0.307182	-0.550340
H155	H	1.380810	0.640515	-0.217007
H156	H	1.714143	0.973849	0.116327
H157	H	0.622839	0.279566	0.019594
H158	H	0.956173	0.612899	0.352927
H159	H	1.289506	0.946232	0.686260
H160	H	1.112668	-0.195396	-0.156430
H161	H	1.446001	0.137938	0.176904
H162	H	1.779335	0.471271	0.510237
H163	H	0.981804	0.292149	-0.358011
H164	H	1.315137	0.625483	-0.024678
H165	H	1.648470	0.958816	0.308655
N166	N	0.974962	0.297395	-0.180904
N167	N	1.308295	0.630728	0.152429
N168	N	1.641629	0.964062	0.485763
H169	H	0.988423	0.287144	-0.117208
H170	H	1.321757	0.620478	0.216125
H171	H	1.655090	0.953811	0.549458
H172	H	0.906776	0.284214	-0.197686
H173	H	1.240109	0.617547	0.135647
H174	H	1.573443	0.950881	0.468980
N175	N	0.998090	0.279665	-0.778682
N176	N	1.331423	0.612998	-0.445348
N177	N	1.664757	0.946331	-0.112015
H178	H	0.959786	0.308864	-0.734089
H179	H	1.293120	0.642197	-0.400756
H180	H	1.626453	0.975531	-0.067422
H181	H	0.953937	0.248162	-0.818550
H182	H	1.287271	0.581495	-0.485217
H183	H	1.620604	0.914828	-0.151884
N184	N	1.242372	0.093565	-0.195192
N185	N	1.575705	0.426898	0.138141
N186	N	1.909039	0.760232	0.471475
H187	H	1.280673	0.064356	-0.239780
H188	H	1.614006	0.397690	0.093554
H189	H	1.947340	0.731023	0.426887
H190	H	1.208155	0.054508	-0.160235
H191	H	1.541488	0.387841	0.173098
H192	H	1.874821	0.721174	0.506432
H193	H	1.215200	0.114231	-0.370486
H194	H	1.548534	0.447565	-0.037153
H195	H	1.881867	0.780898	0.296180
H196	H	1.129046	-0.207907	0.128037
H197	H	1.462380	0.125426	0.461370
H198	H	1.795713	0.458759	0.794703
N199	N	1.276322	0.067569	-0.604823
N200	N	1.609656	0.400902	-0.271489
N201	N	1.942989	0.734236	0.061844
H202	H	1.270264	0.072191	-0.540084
H203	H	1.603598	0.405525	-0.206750
H204	H	1.936931	0.738858	0.126583
H205	H	1.342692	0.082115	-0.619683
H206	H	1.676026	0.415449	-0.286350
H207	H	2.009359	0.748782	0.046983
N208	N	1.265489	0.075837	-0.792991
N209	N	1.598822	0.409170	-0.459657
N210	N	1.932155	0.742504	-0.126324
H211	H	1.255339	0.018431	-0.781199
H212	H	1.588673	0.351765	-0.447865
H213	H	1.922006	0.685098	-0.114532
H214	H	1.333673	0.089061	-0.776258
H215	H	1.667007	0.422394	-0.442925
H216	H	2.000340	0.755727	-0.109592
N217	N	1.129228	-0.421402	0.204040
N218	N	1.462561	-0.088068	0.537373
N219	N	1.795894	0.245265	0.870706
H220	H	1.131156	-0.462161	0.250997
H221	H	1.464489	-0.128828	0.584330
H222	H	1.797822	0.204506	0.917663
H223	H	1.071529	-0.385130	0.210015
H224	H	1.404863	-0.051797	0.543348
H225	H	1.738196	0.281536	0.876681
H226	H	1.124177	-0.580755	0.172070
H227	H	1.457510	-0.247422	0.505403
H228	H	1.790843	0.085912	0.838736
H229	H	1.107800	-0.568229	-0.112401
H230	H	1.441133	-0.234895	0.220933
H231	H	1.774467	0.098438	0.554266
H232	H	1.111408	-0.418863	-0.101916
H233	H	1.444741	-0.085530	0.231417
H234	H	1.778075	0.247804	0.564751
H235	H	1.116253	-0.046016	-0.145949
H236	H	1.449587	0.287317	0.187385
H237	H	1.782920	0.620651	0.520718
H238	H	0.617616	0.093663	0.006597
H239	H	0.950949	0.426996	0.339931
H240	H	1.284282	0.760330	0.673264
