data_functionalizedCrystal
_audit_creation_method	'MofGen! by Chris Wilmer'
_symmetry_space_group_name_H-M	'P1'
_symmetry_Int_Tables_number	1
_symmetry_cell_setting	triclinic
loop_
_symmetry_equiv_pos_as_xyz
  x,y,z
_cell_length_a	16.109302
_cell_length_b	16.109304
_cell_length_c	13.448316
_cell_angle_alpha	89.996206
_cell_angle_beta	89.991297
_cell_angle_gamma	83.462209
loop_
_atom_site_label
_atom_site_type_symbol
_atom_site_fract_x
_atom_site_fract_y
_atom_site_fract_z
O1	O	1.103135	0.106872	-0.082730
O2	O	1.603135	0.606872	0.417270
O3	O	0.861073	0.120171	-0.082722
O4	O	1.361073	0.620171	0.417278
O5	O	0.988753	-0.007510	-0.082727
O6	O	1.488753	0.492490	0.417273
O7	O	0.975456	0.234552	-0.082725
O8	O	1.475456	0.734552	0.417275
O9	O	0.988737	-0.007517	0.082657
O10	O	1.488737	0.492483	0.582657
O11	O	0.861057	0.120163	0.082662
O12	O	1.361057	0.620163	0.582662
O13	O	1.103119	0.106864	0.082654
O14	O	1.603119	0.606864	0.582654
Cu15	Cu	0.982087	0.113513	0.097759
Cu16	Cu	1.482087	0.613513	0.597759
Cu17	Cu	0.982106	0.113522	-0.097827
Cu18	Cu	1.482106	0.613522	0.402173
O19	O	0.975440	0.234544	0.082659
O20	O	1.475440	0.734544	0.582659
C21	C	0.830090	0.119628	-0.000029
C22	C	1.330090	0.619628	0.499971
C23	C	0.737795	0.118012	-0.000026
C24	C	1.237795	0.618012	0.499974
C25	C	0.988206	-0.038488	-0.000037
C26	C	1.488206	0.461512	0.499963
C27	C	0.986590	-0.130784	-0.000044
C28	C	1.486590	0.369216	0.499956
C29	C	0.525445	0.114273	0.090115
C30	C	1.025445	0.614273	0.590115
C31	C	0.438725	0.112746	0.090112
C32	C	0.938725	0.612746	0.590112
C33	C	0.438753	0.112759	-0.090199
C34	C	0.938753	0.612759	0.409801
C35	C	0.525473	0.114280	-0.090194
C36	C	1.025473	0.614280	0.409806
C37	C	0.568816	0.115041	-0.000034
C38	C	1.068816	0.615041	0.499966
C39	C	0.395377	0.111994	-0.000042
C40	C	0.895377	0.611994	0.499958
C41	C	0.301351	0.110338	-0.000047
C42	C	0.801351	0.610338	0.499953
C43	C	0.662848	0.116695	-0.000030
C44	C	1.162848	0.616695	0.499970
C45	C	0.982865	-0.343117	-0.090191
C46	C	1.482865	0.156883	0.409809
C47	C	0.981339	-0.429837	-0.090190
C48	C	1.481339	0.070163	0.409810
C49	C	0.981325	-0.429842	0.090121
C50	C	1.481325	0.070158	0.590121
C51	C	0.982845	-0.343123	0.090119
C52	C	1.482845	0.156877	0.590119
C53	C	0.983619	-0.299763	-0.000040
C54	C	1.483619	0.200237	0.499960
C55	C	0.980573	-0.473202	-0.000037
C56	C	1.480573	0.026798	0.499963
C57	C	0.978918	-0.567228	-0.000035
C58	C	1.478918	-0.067228	0.499965
C59	C	0.985272	-0.205731	-0.000042
C60	C	1.485272	0.294269	0.499958
C61	C	1.134102	0.107407	-0.000041
C62	C	1.634102	0.607407	0.499959
C63	C	1.226397	0.109022	-0.000051
C64	C	1.726397	0.609022	0.499949
C65	C	0.975987	0.265523	-0.000033
C66	C	1.475987	0.765523	0.499967
C67	C	0.977603	0.357818	-0.000033
C68	C	1.477603	0.857818	0.499967
N69	N	0.982079	0.113506	0.235323
N70	N	1.482079	0.613506	0.735323
N71	N	0.982120	0.113522	-0.235391
N72	N	1.482120	0.613522	0.264609
C73	C	1.038633	0.056992	0.287361
C74	C	1.538633	0.556992	0.787361
C75	C	1.038639	0.056991	0.391464
C76	C	1.538639	0.556991	0.891464
C77	C	0.982093	0.113509	0.443528
C78	C	1.482093	0.613509	0.943528
C79	C	0.925533	0.170025	0.391482
C80	C	1.425533	0.670025	0.891482
C81	C	0.925525	0.170021	0.287381
C82	C	1.425525	0.670021	0.787381
C83	C	0.925556	0.170031	0.608462
C84	C	1.425556	0.670031	1.108462
C85	C	0.925566	0.170036	0.712571
C86	C	1.425566	0.670036	1.212571
C87	C	1.038670	0.057001	0.712546
C88	C	1.538670	0.557001	1.212546
C89	C	1.038662	0.056997	0.608444
C90	C	1.538662	0.556997	1.108444
C91	C	0.982103	0.113514	0.556406
C92	C	1.482103	0.613514	1.056406
H93	H	0.560733	0.114893	0.163529
H94	H	1.060733	0.614893	0.663529
F95	F	0.983641	-0.296979	0.186075
F96	F	1.483641	0.203021	0.686075
H97	H	1.084722	0.010982	0.754921
H98	H	1.584722	0.510982	1.254921
F99	F	0.392571	0.111930	0.186061
F100	F	0.892571	0.611930	0.686061
F101	F	0.392619	0.111932	-0.186148
F102	F	0.892619	0.611932	0.313852
H103	H	1.084683	0.010972	0.244978
H104	H	1.584683	0.510972	0.744978
F105	F	0.571634	0.115092	-0.186149
F106	F	1.071634	0.615092	0.313851
H107	H	0.983492	-0.307815	-0.163604
H108	H	1.483492	0.192185	0.336396
H109	H	0.980722	-0.465131	-0.163599
H110	H	1.480722	0.034869	0.336401
F111	F	0.980501	-0.475996	0.186069
F112	F	1.480501	0.024004	0.686069
F113	F	1.098828	-0.003157	0.446848
F114	F	1.598828	0.496843	0.946848
H115	H	1.084709	0.010980	0.566055
H116	H	1.584709	0.510980	1.066055
F117	F	0.865348	0.230172	0.446893
F118	F	1.365348	0.730172	0.946893
H119	H	0.879520	0.216057	0.754955
H120	H	1.379520	0.716057	1.254955
H121	H	0.879497	0.216051	0.566096
H122	H	1.379497	0.716051	1.066096
H123	H	0.879472	0.216039	0.245012
H124	H	1.379472	0.716039	0.745012
