data_functionalizedCrystal
_audit_creation_method	'MofGen! by Chris Wilmer'
_symmetry_space_group_name_H-M	'P1'
_symmetry_Int_Tables_number	1
_symmetry_cell_setting	triclinic
loop_
_symmetry_equiv_pos_as_xyz
  x,y,z
_cell_length_a	19.188938
_cell_length_b	14.853567
_cell_length_c	13.330367
_cell_angle_alpha	90.000844
_cell_angle_beta	89.993222
_cell_angle_gamma	96.608653
loop_
_atom_site_label
_atom_site_type_symbol
_atom_site_fract_x
_atom_site_fract_y
_atom_site_fract_z
O1	O	0.926520	-0.112583	-0.083397
O2	O	1.426520	0.387417	0.416603
O3	O	0.723260	-0.127728	-0.083402
O4	O	1.223260	0.372272	0.416598
O5	O	0.830319	0.011104	-0.083402
O6	O	1.330319	0.511104	0.416598
O7	O	0.819461	-0.251416	-0.083396
O8	O	1.319461	0.248584	0.416604
O9	O	0.830304	0.011107	0.083445
O10	O	1.330304	0.511107	0.583445
O11	O	0.723244	-0.127725	0.083445
O12	O	1.223244	0.372275	0.583445
O13	O	0.926505	-0.112580	0.083450
O14	O	1.426505	0.387420	0.583450
Cu15	Cu	0.824873	-0.120152	0.098682
Cu16	Cu	1.324873	0.379848	0.598682
Cu17	Cu	0.824891	-0.120156	-0.098634
Cu18	Cu	1.324891	0.379844	0.401366
O19	O	0.819445	-0.251412	0.083451
O20	O	1.319445	0.248588	0.583451
C21	C	0.697240	-0.127235	0.000021
C22	C	1.197240	0.372765	0.500021
C23	C	0.619731	-0.125760	0.000019
C24	C	1.119731	0.374240	0.500019
C25	C	0.829820	0.044692	0.000018
C26	C	1.329820	0.544692	0.500018
C27	C	0.828345	0.144767	0.000010
C28	C	1.328345	0.644767	0.500010
C29	C	0.952525	-0.113073	0.000025
C30	C	1.452525	0.386927	0.500025
C31	C	1.030034	-0.114549	0.000021
C32	C	1.530034	0.385451	0.500021
C33	C	1.583330	-0.125058	-0.090927
C34	C	2.083330	0.374942	0.409073
C35	C	1.510501	-0.123680	-0.090930
C36	C	2.010501	0.376320	0.409070
C37	C	1.474077	-0.122986	0.000019
C38	C	1.974077	0.377014	0.500019
C39	C	1.510486	-0.123692	0.090977
C40	C	2.010486	0.376308	0.590977
C41	C	1.583313	-0.125079	0.090977
C42	C	2.083313	0.374921	0.590977
N43	N	1.364874	-0.069506	0.067717
N44	N	1.864874	0.430494	0.567717
N45	N	1.295692	-0.068187	0.067711
N46	N	1.795692	0.431813	0.567711
C47	C	1.254654	-0.118809	0.000025
C48	C	1.754654	0.381191	0.500025
N49	N	1.285413	-0.170789	-0.067670
N50	N	1.785413	0.329211	0.432330
N51	N	1.354602	-0.172104	-0.067667
N52	N	1.854602	0.327896	0.432333
C53	C	1.395109	-0.121482	0.000029
C54	C	1.895109	0.378518	0.500029
C55	C	1.139284	-0.116615	-0.090930
C56	C	1.639284	0.383385	0.409070
C57	C	1.066453	-0.115242	-0.090929
C58	C	1.566453	0.384758	0.409071
C59	C	1.066440	-0.115245	0.090981
C60	C	1.566440	0.384755	0.590981
C61	C	1.139269	-0.116626	0.090977
C62	C	1.639269	0.383374	0.590977
C63	C	1.175687	-0.117307	0.000019
C64	C	1.675687	0.382693	0.500019
C65	C	0.819945	-0.285000	0.000028
C66	C	1.319945	0.215000	0.500028
C67	C	0.821419	-0.385076	0.000030
C68	C	1.321419	0.114924	0.500030
N69	N	0.824865	-0.120149	0.237464
N70	N	1.324865	0.379851	0.737464
C71	C	0.758517	0.556915	0.000027
C72	C	1.258517	1.056915	0.500027
C73	C	0.885706	0.578899	0.000030
C74	C	1.385706	1.078899	0.500030
C75	C	0.887092	0.484873	0.000024
C76	C	1.387092	0.984873	0.500024
C77	C	0.824190	0.426863	0.000021
C78	C	1.324190	0.926863	0.500021
C79	C	0.759901	0.462880	0.000024
C80	C	1.259901	0.962880	0.500024
C81	C	0.951380	0.448849	0.000032
C82	C	1.451380	0.948849	0.500032
C83	C	0.952769	0.354818	0.000027
C84	C	1.452769	0.854818	0.500027
C85	C	0.889866	0.296806	0.000017
C86	C	1.389866	0.796806	0.500017
C87	C	0.825575	0.332828	0.000019
C88	C	1.325575	0.832828	0.500019
C89	C	0.762672	0.274819	0.000016
C90	C	1.262672	0.774819	0.500016
C91	C	0.698380	0.310839	0.000010
C92	C	1.198380	0.810839	0.500010
C93	C	0.696998	0.404869	0.000014
C94	C	1.196998	0.904869	0.500014
C95	C	0.891248	0.202777	0.000013
C96	C	1.391248	0.702777	0.500013
C97	C	0.764057	0.180784	0.000013
C98	C	1.264057	0.680784	0.500013
N99	N	0.824905	-0.120152	-0.237415
N100	N	1.324905	0.379848	0.262585
C101	C	0.777484	-0.181607	0.710087
C102	C	1.277484	0.318393	1.210087
C103	C	0.872318	-0.058698	0.710055
C104	C	1.372318	0.441302	1.210055
C105	C	0.872310	-0.058695	0.605036
C106	C	1.372310	0.441305	1.105036
C107	C	0.824889	-0.120150	0.552538
C108	C	1.324889	0.379850	1.052538
C109	C	0.777476	-0.181608	0.605059
C110	C	1.277476	0.318392	1.105059
C111	C	0.919728	0.002755	0.552508
C112	C	1.419728	0.502755	1.052508
C113	C	0.919722	0.002760	0.447483
C114	C	1.419722	0.502760	0.947483
C115	C	0.872297	-0.058692	0.394983
C116	C	1.372297	0.441308	0.894983
C117	C	0.824881	-0.120151	0.447510
C118	C	1.324881	0.379849	0.947510
C119	C	0.777460	-0.181606	0.395012
C120	C	1.277460	0.318394	0.895012
C121	C	0.730040	-0.243062	0.447538
C122	C	1.230040	0.256938	0.947538
C123	C	0.730050	-0.243059	0.552559
C124	C	1.230050	0.256941	1.052559
C125	C	0.872287	-0.058695	0.289962
C126	C	1.372287	0.441305	0.789962
C127	C	0.777452	-0.181607	0.289984
C128	C	1.277452	0.318393	0.789984
H129	H	1.480858	-0.123111	-0.164991
H130	H	1.980858	0.376889	0.335009
O131	O	1.178576	-0.117356	-0.189024
O132	O	1.678576	0.382644	0.310976
H133	H	1.158450	-0.178527	-0.232636
H134	H	1.658450	0.321473	0.267364
H135	H	1.005119	0.325499	0.000030
H136	H	1.505119	0.825499	0.500030
H137	H	0.943593	0.173453	0.000024
H138	H	1.443593	0.673453	0.500024
H139	H	0.738833	-0.231648	0.247247
H140	H	1.238833	0.268352	0.747247
O141	O	0.678881	-0.309331	0.390913
O142	O	1.178881	0.190669	0.890913
H143	H	0.686841	-0.298996	0.309062
H144	H	1.186841	0.201004	0.809062
H145	H	0.910931	-0.008668	0.752802
H146	H	1.410931	0.491332	1.252802
H147	H	1.480825	-0.123129	0.165028
H148	H	1.980825	0.376871	0.665028
O149	O	0.678915	-0.309350	0.609207
O150	O	1.178915	0.190650	1.109207
H151	H	0.686896	-0.299032	0.691054
H152	H	1.186896	0.200968	1.191054
H153	H	0.738873	-0.231641	0.752855
H154	H	1.238873	0.268359	1.252855
H155	H	1.168907	-0.117191	0.165035
H156	H	1.668907	0.382809	0.665035
H157	H	0.644655	0.434205	0.000011
H158	H	1.144655	0.934205	0.500011
O159	O	0.689174	0.595755	0.000033
O160	O	1.189174	1.095755	0.500033
H161	H	0.698775	0.670886	0.000043
H162	H	1.198775	1.170886	0.500043
O163	O	1.622579	-0.125847	0.189072
O164	O	2.122579	0.374153	0.689072
H165	H	1.585019	-0.125136	0.252317
H166	H	2.085019	0.374864	0.752317
H167	H	1.036817	-0.114677	-0.164991
H168	H	1.536817	0.385323	0.335009
H169	H	0.958333	0.052800	0.404724
H170	H	1.458333	0.552800	0.904724
O171	O	0.970875	0.069034	0.609125
O172	O	1.470875	0.569034	1.109125
H173	H	0.962907	0.058716	0.690977
H174	H	1.462907	0.558716	1.190977
O175	O	0.696211	0.118216	0.000019
O176	O	1.196211	0.618216	0.500019
H177	H	0.651277	0.159062	0.000025
H178	H	1.151277	0.659062	0.500025
H179	H	0.910898	-0.008662	0.247201
H180	H	1.410898	0.491338	0.747201
H181	H	1.612977	-0.125612	-0.164993
H182	H	2.112977	0.374388	0.335007
O183	O	0.630535	0.248270	0.000016
O184	O	1.130535	0.748270	0.500016
H185	H	0.628129	0.204905	-0.067989
H186	H	1.128129	0.704905	0.432011
O187	O	1.027150	-0.114664	0.189080
O188	O	1.527150	0.385336	0.689080
H189	H	0.970387	-0.113639	0.173803
H190	H	1.470387	0.386361	0.673803
H191	H	0.936918	0.626135	0.000041
H192	H	1.436918	1.126135	0.500041
H193	H	1.002591	0.496087	0.000043
H194	H	1.502591	0.996087	0.500043
