data_functionalizedCrystal
_audit_creation_method	'MofGen! by Chris Wilmer'
_symmetry_space_group_name_H-M	'P1'
_symmetry_Int_Tables_number	1
_symmetry_cell_setting	triclinic
loop_
_symmetry_equiv_pos_as_xyz
  x,y,z
_cell_length_a	19.121241
_cell_length_b	19.121063
_cell_length_c	19.120904
_cell_angle_alpha	94.741613
_cell_angle_beta	90.124528
_cell_angle_gamma	84.996879
loop_
_atom_site_label
_atom_site_type_symbol
_atom_site_fract_x
_atom_site_fract_y
_atom_site_fract_z
Zn1	Zn	1.043557	0.254510	0.452551
Zn2	Zn	1.376890	0.587844	0.785884
Zn3	Zn	1.710224	0.921177	1.119218
Zn4	Zn	1.043470	0.367161	0.339898
Zn5	Zn	1.376803	0.700494	0.673231
Zn6	Zn	1.710137	1.033828	1.006565
Zn7	Zn	0.931342	0.254092	0.330304
Zn8	Zn	1.264675	0.587425	0.663637
Zn9	Zn	1.598009	0.920759	0.996970
Zn10	Zn	0.920835	0.377147	0.452491
Zn11	Zn	1.254168	0.710481	0.785824
Zn12	Zn	1.587502	1.043814	1.119158
O13	O	0.984801	0.313228	0.393811
O14	O	1.318134	0.646561	0.727144
O15	O	1.651468	0.979894	1.060478
O16	O	1.141831	0.265449	0.441648
O17	O	1.475164	0.598783	0.774981
O18	O	1.808498	0.932116	1.108314
O19	O	1.032957	0.347808	0.240344
O20	O	1.366290	0.681141	0.573677
O21	O	1.699624	1.014474	0.907010
O22	O	0.950661	0.155504	0.342530
O23	O	1.283995	0.488837	0.675863
O24	O	1.617328	0.822170	1.009196
O25	O	1.141767	0.348213	0.358882
O26	O	1.475100	0.681547	0.692215
O27	O	1.808434	1.014880	1.025549
O28	O	1.033105	0.155811	0.432344
O29	O	1.366438	0.489144	0.765677
O30	O	1.699772	0.822478	1.099011
O31	O	0.950577	0.264736	0.233295
O32	O	1.283910	0.598070	0.566628
O33	O	1.617244	0.931403	0.899961
O34	O	0.831663	0.274420	0.342472
O35	O	1.164996	0.607753	0.675805
O36	O	1.498330	0.941086	1.009138
O37	O	0.932754	0.365234	0.550781
O38	O	1.266087	0.698567	0.884114
O39	O	1.599420	1.031900	1.217447
O40	O	0.823943	0.364828	0.432242
O41	O	1.157277	0.698161	0.765576
O42	O	1.490610	1.031495	1.098909
O43	O	1.022917	0.275133	0.550825
O44	O	1.356250	0.608466	0.884158
O45	O	1.689584	0.941799	1.217491
O46	O	1.022769	0.467129	0.358824
O47	O	1.356102	0.800463	0.692157
O48	O	1.689435	1.133796	1.025491
O49	O	0.932669	0.474466	0.441546
O50	O	1.266003	0.807800	0.774879
O51	O	1.599336	1.141133	1.108212
C52	C	0.802319	0.320663	0.386310
C53	C	1.135652	0.653996	0.719643
C54	C	1.468985	0.987329	1.052976
C55	C	0.724250	0.323861	0.383118
C56	C	1.057584	0.657194	0.716451
C57	C	1.390917	0.990528	1.049785
C58	C	0.687602	0.282348	0.424782
C59	C	1.020935	0.615681	0.758115
C60	C	1.354268	0.949014	1.091448
C61	C	0.614249	0.285349	0.421777
C62	C	0.947582	0.618683	0.755110
C63	C	1.280915	0.952016	1.088443
C64	C	0.577546	0.329869	0.377111
C65	C	0.910879	0.663202	0.710444
C66	C	1.244212	0.996535	1.043778
C67	C	0.614200	0.371384	0.335443
C68	C	0.947533	0.704717	0.668776
C69	C	1.280866	1.038050	1.002110
C70	C	0.687552	0.368378	0.338445
C71	C	1.020885	0.701711	0.671778
C72	C	1.354218	1.035044	1.005111
C73	C	0.356069	0.341093	0.365885
C74	C	0.689402	0.674426	0.699218
C75	C	1.022736	1.007759	1.032551
C76	C	0.282712	0.344097	0.362887
C77	C	0.616045	0.677430	0.696221
C78	C	0.949378	1.010764	1.029554
C79	C	0.282766	0.258061	0.449221
C80	C	0.616099	0.591395	0.782554
C81	C	0.949432	0.924728	1.115887
C82	C	0.356119	0.255063	0.452222
C83	C	0.689452	0.588396	0.785555
C84	C	1.022785	0.921729	1.118888
C85	C	0.392767	0.296575	0.410551
C86	C	0.726100	0.629908	0.743884
C87	C	1.059433	0.963242	1.077217
C88	C	0.502567	0.332939	0.374040
C89	C	0.835900	0.666273	0.707373
C90	C	1.169234	0.999606	1.040707
C91	C	0.467744	0.293500	0.413619
C92	C	0.801078	0.626833	0.746952
C93	C	1.134411	0.960167	1.080285
C94	C	0.976588	0.496375	0.401236
C95	C	1.309921	0.829708	0.734569
C96	C	1.643254	1.163042	1.067902
C97	C	0.973137	0.574724	0.404438
C98	C	1.306471	0.908058	0.737772
C99	C	1.639804	1.241391	1.071105
C100	C	0.976673	0.321344	0.576998
C101	C	1.310006	0.654677	0.910332
C102	C	1.643340	0.988011	1.243665
C103	C	0.973209	0.324803	0.655062
C104	C	1.306542	0.658136	0.988395
C105	C	1.639876	0.991469	1.321729
C106	C	1.167996	0.305764	0.401342
C107	C	1.501329	0.639097	0.734675
C108	C	1.834663	0.972431	1.068008
C109	C	1.246063	0.302584	0.404551
C110	C	1.579396	0.635917	0.737884
C111	C	1.912729	0.969250	1.071218
C112	C	0.993065	0.129365	0.386373
C113	C	1.326398	0.462698	0.719707
C114	C	1.659732	0.796032	1.053040
C115	C	0.996587	0.051014	0.383204
C116	C	1.329920	0.384347	0.716537
C117	C	1.663253	0.717680	1.049870
C118	C	1.018459	0.607690	0.362913
C119	C	1.351793	0.941024	0.696246
C120	C	1.685126	1.274357	1.029579
C121	C	1.015218	0.681308	0.365929
C122	C	1.348552	1.014642	0.699262
C123	C	1.681885	1.347975	1.032596
C124	C	0.966651	0.721959	0.410467
C125	C	1.299984	1.055293	0.743801
C126	C	1.633318	1.388626	1.077134
C127	C	0.921327	0.688989	0.451998
C128	C	1.254660	1.022322	0.785331
C129	C	1.587994	1.355655	1.118664
C130	C	0.924572	0.615372	0.448985
C131	C	1.257905	0.948705	0.782318
C132	C	1.591239	1.282039	1.115651
C133	C	0.954507	0.944426	0.421721
C134	C	1.287841	1.277760	0.755054
C135	C	1.621174	1.611093	1.088388
C136	C	0.951264	1.018048	0.424729
C137	C	1.284598	1.351381	0.758063
C138	C	1.617931	1.684715	1.091396
C139	C	1.045157	1.010363	0.338661
C140	C	1.378490	1.343696	0.671994
C141	C	1.711824	1.677029	1.005328
C142	C	1.048395	0.936745	0.335649
C143	C	1.381728	1.270078	0.668982
C144	C	1.715062	1.603412	1.002316
C145	C	1.003073	0.903781	0.377182
C146	C	1.336407	1.237114	0.710515
C147	C	1.669740	1.570447	1.043849
C148	C	0.963335	0.797209	0.413550
C149	C	1.296669	1.130542	0.746883
C150	C	1.630002	1.463875	1.080217
C151	C	1.006393	0.828532	0.374103
C152	C	1.339726	1.161866	0.707436
C153	C	1.673060	1.495199	1.040769
C154	C	0.992940	0.305090	0.211336
C155	C	1.326274	0.638424	0.544669
C156	C	1.659607	0.971757	0.878002
C157	C	0.996549	0.301428	0.133270
C158	C	1.329882	0.634761	0.466603
C159	C	1.663216	0.968094	0.799937
C160	C	1.018523	0.279519	0.691760
C161	C	1.351856	0.612852	1.025094
C162	C	1.685189	0.946186	1.358427
C163	C	1.015260	0.282766	0.765109
C164	C	1.348593	0.616100	1.098442
C165	C	1.681926	0.949433	1.431776
C166	C	0.966686	0.331301	0.801758
C167	C	1.300019	0.664635	1.135091
C168	C	1.633353	0.997968	1.468425
C169	C	0.921368	0.376587	0.765054
C170	C	1.254701	0.709920	1.098388
C171	C	1.588034	1.043254	1.431721
C172	C	0.924628	0.373336	0.691707
C173	C	1.257961	0.706669	1.025040
C174	C	1.591294	1.040002	1.358374
C175	C	0.954491	0.343462	1.023219
C176	C	1.287824	0.676795	1.356552
C177	C	1.621158	1.010129	1.689885
C178	C	0.951236	0.346711	1.096572
C179	C	1.284569	0.680045	1.429905
C180	C	1.617902	1.013378	1.763238
C181	C	1.045127	0.252889	1.096621
C182	C	1.378460	0.586223	1.429954
C183	C	1.711794	0.919556	1.763288
C184	C	1.048386	0.249645	1.023272
C185	C	1.381719	0.582979	1.356606
C186	C	1.715052	0.916312	1.689939
C187	C	1.003065	0.294928	0.986575
C188	C	1.336398	0.628262	1.319908
C189	C	1.669732	0.961595	1.653241
C190	C	0.963351	0.334623	0.876732
C191	C	1.296684	0.667957	1.210066
C192	C	1.630018	1.001290	1.543399
C193	C	1.006397	0.291602	0.911602
C194	C	1.339730	0.624936	1.244935
C195	C	1.673064	0.958269	1.578268
H196	H	0.717390	0.402182	0.304517
H197	H	1.050724	0.735515	0.637851
H198	H	1.384057	1.068849	0.971184
H199	H	0.497631	0.257250	0.449982
H200	H	0.830965	0.590583	0.783315
H201	H	1.164298	0.923916	1.116649
H202	H	1.045943	0.252083	0.881759
H203	H	1.379276	0.585416	1.215092
H204	H	1.712609	0.918749	1.548425
H205	H	0.917597	0.380345	0.993349
H206	H	1.250931	0.713678	1.326683
H207	H	1.584264	1.047011	1.660016
C208	C	1.059814	0.783814	0.325110
C209	C	1.393147	1.117148	0.658443
C210	C	1.726481	1.450481	0.991777
N211	N	1.100048	0.750126	0.288206
N212	N	1.433382	1.083459	0.621539
N213	N	1.766715	1.416793	0.954872
C214	C	1.101805	0.892034	0.286634
C215	C	1.435139	1.225367	0.619968
C216	C	1.768472	1.558701	0.953301
N217	N	1.142027	0.858358	0.249707
N218	N	1.475361	1.191691	0.583040
N219	N	1.808694	1.525024	0.916374
C220	C	0.909917	0.388006	0.917053
C221	C	1.243250	0.721340	1.250387
C222	C	1.576583	1.054673	1.583720
N223	N	0.869667	0.428211	0.947425
N224	N	1.203000	0.761544	1.280759
N225	N	1.536333	1.094878	1.614092
C226	C	1.101814	0.196246	0.982963
C227	C	1.435147	0.529580	1.316296
C228	C	1.768480	0.862913	1.649630
N229	N	1.142056	0.156024	0.952602
N230	N	1.475389	0.489358	1.285936
N231	N	1.808723	0.822691	1.619269
C232	C	0.867900	0.733707	0.500988
C233	C	1.201233	1.067041	0.834322
C234	C	1.534567	1.400374	1.167655
N235	N	0.827655	0.767389	0.537886
N236	N	1.160988	1.100722	0.871219
N237	N	1.494321	1.434056	1.204553
C238	C	0.904686	0.908176	0.467446
C239	C	1.238019	1.241509	0.800779
C240	C	1.571353	1.574842	1.134113
N241	N	0.867171	0.880869	0.501903
N242	N	1.200504	1.214203	0.835236
N243	N	1.533838	1.547536	1.168569
H244	H	1.082056	1.037210	0.304849
H245	H	1.415390	1.370544	0.638182
H246	H	1.748723	1.703877	0.971515
C247	C	0.396372	0.386761	0.320048
C248	C	0.729705	0.720094	0.653381
C249	C	1.063039	1.053428	0.986715
N250	N	0.426731	0.421161	0.285522
N251	N	0.760064	0.754495	0.618856
N252	N	1.093397	1.087828	0.952189
H253	H	0.252919	0.224264	0.483146
H254	H	0.586252	0.557597	0.816479
H255	H	0.919586	0.890930	1.149812
H256	H	0.584412	0.251546	0.455705
H257	H	0.917745	0.584879	0.789038
H258	H	1.251079	0.918213	1.122372
H259	H	0.584311	0.407629	0.299072
H260	H	0.917644	0.740962	0.632405
H261	H	1.250977	1.074295	0.965738
H262	H	1.052160	0.245893	0.794986
H263	H	1.385494	0.579226	1.128319
H264	H	1.718827	0.912560	1.461652
C265	C	0.867929	0.429969	0.805371
C266	C	1.201263	0.763303	1.138704
C267	C	1.534596	1.096636	1.472037
N268	N	0.827678	0.470178	0.835736
N269	N	1.161012	0.803511	1.169069
N270	N	1.494345	1.136845	1.502403
H271	H	1.058005	0.574597	0.326641
H272	H	1.391338	0.907930	0.659975
H273	H	1.724672	1.241263	0.993308
H274	H	1.082024	0.216022	1.126508
H275	H	1.415357	0.549355	1.459841
H276	H	1.748690	0.882688	1.793175
H277	H	0.911723	1.051145	0.461011
H278	H	1.245056	1.384478	0.794344
H279	H	1.578390	1.717811	1.127677
H280	H	0.911679	0.386236	1.126409
H281	H	1.245012	0.719569	1.459743
H282	H	1.578345	1.052903	1.793076
C283	C	1.071957	0.226125	0.651453
C284	C	1.405291	0.559459	0.984786
C285	C	1.738624	0.892792	1.318120
N286	N	1.112204	0.185906	0.621095
N287	N	1.445537	0.519239	0.954429
N288	N	1.778870	0.852572	1.287762
C289	C	0.874714	0.579110	0.494667
C290	C	1.208048	0.912444	0.828000
C291	C	1.541381	1.245777	1.161333
N292	N	0.837161	0.551799	0.529078
N293	N	1.170495	0.885132	0.862411
N294	N	1.503828	1.218466	1.195744
C295	C	0.874780	0.423152	0.651339
C296	C	1.208114	0.756486	0.984673
C297	C	1.541447	1.089819	1.318006
N298	N	0.837232	0.460675	0.620935
N299	N	1.170566	0.794008	0.954268
N300	N	1.503899	1.127342	1.287602
H301	H	0.923790	0.830315	0.449812
H302	H	1.257124	1.163648	0.783145
H303	H	1.590457	1.496982	1.116479
H304	H	0.385997	0.218813	0.488596
H305	H	0.719330	0.552146	0.821929
H306	H	1.052664	0.885480	1.155262
C307	C	0.242340	0.393074	0.313750
C308	C	0.575673	0.726407	0.647083
C309	C	0.909006	1.059741	0.980417
N310	N	0.211932	0.429963	0.276743
N311	N	0.545265	0.763296	0.610076
N312	N	0.878598	1.096629	0.943409
H313	H	0.717480	0.246097	0.461155
H314	H	1.050813	0.579430	0.794489
H315	H	1.384146	0.912764	1.127822
H316	H	0.472675	0.369187	0.337673
H317	H	0.806008	0.702521	0.671007
H318	H	1.139342	1.035854	1.004340
H319	H	1.052124	0.708145	0.332114
H320	H	1.385457	1.041479	0.665447
H321	H	1.718791	1.374812	0.998780
