data_functionalizedCrystal
_audit_creation_method	'MofGen! by Chris Wilmer'
_symmetry_space_group_name_H-M	'P1'
_symmetry_Int_Tables_number	1
_symmetry_cell_setting	triclinic
loop_
_symmetry_equiv_pos_as_xyz
  x,y,z
_cell_length_a	15.297475
_cell_length_b	17.637651
_cell_length_c	17.639081
_cell_angle_alpha	114.332394
_cell_angle_beta	90.308788
_cell_angle_gamma	89.678268
loop_
_atom_site_label
_atom_site_type_symbol
_atom_site_fract_x
_atom_site_fract_y
_atom_site_fract_z
Zn1	Zn	1.165150	-0.381422	0.546125
Zn2	Zn	1.665150	0.118578	1.046125
Zn3	Zn	1.165116	-0.547117	0.380403
Zn4	Zn	1.665116	-0.047117	0.880403
Zn5	Zn	1.046589	-0.394292	0.393404
Zn6	Zn	1.546589	0.105708	0.893404
Zn7	Zn	0.998617	-0.498175	0.497246
Zn8	Zn	1.498617	0.001825	0.997246
O9	O	1.093868	-0.455251	0.454295
O10	O	1.593868	0.044749	0.954295
O11	O	1.284444	-0.418498	0.539157
O12	O	1.784444	0.081502	1.039157
O13	O	1.169455	-0.552713	0.269314
O14	O	1.669455	-0.052713	0.769314
O15	O	1.082407	-0.279765	0.439560
O16	O	1.582407	0.220235	0.939560
O17	O	1.284419	-0.540234	0.417402
O18	O	1.784419	-0.040234	0.917402
O19	O	1.169513	-0.270310	0.551763
O20	O	1.669513	0.229690	1.051763
O21	O	1.082373	-0.440433	0.278866
O22	O	1.582373	0.059567	0.778866
O23	O	0.920926	-0.392976	0.392164
O24	O	1.420926	0.107024	0.892164
O25	O	1.000646	-0.456819	0.616544
O26	O	1.500646	0.043181	1.116544
O27	O	0.885682	-0.469298	0.468456
O28	O	1.385682	0.030702	0.968456
O29	O	1.122997	-0.371041	0.652455
O30	O	1.622997	0.128959	1.152455
O31	O	1.122939	-0.653444	0.370006
O32	O	1.622939	-0.153444	0.870006
O33	O	1.000613	-0.617486	0.455850
O34	O	1.500613	-0.117486	0.955850
C35	C	0.872371	-0.427223	0.426417
C36	C	1.372371	0.072777	0.926417
C37	C	0.777607	-0.415248	0.414505
C38	C	1.277607	0.084752	0.914505
C39	C	0.437177	-0.540848	0.539429
C40	C	0.937177	-0.040848	1.039429
C41	C	0.526212	-0.552106	0.550616
C42	C	1.026212	-0.052106	1.050616
C43	C	0.589065	-0.517892	0.516590
C44	C	1.089065	-0.017892	1.016590
C45	C	0.562875	-0.472419	0.471373
C46	C	1.062875	0.027581	0.971373
C47	C	0.473831	-0.461165	0.460179
C48	C	0.973831	0.038835	0.960179
C49	C	0.625719	-0.438209	0.437340
C50	C	1.125719	0.061791	0.937340
C51	C	0.599528	-0.392736	0.392123
C52	C	1.099528	0.107264	0.892123
C53	C	0.510493	-0.381483	0.380931
C54	C	1.010493	0.118517	0.880931
C55	C	0.447640	-0.415697	0.414958
C56	C	0.947640	0.084303	0.914958
C57	C	0.714762	-0.449463	0.448534
C58	C	1.214762	0.050537	0.948534
C59	C	0.751416	-0.369780	0.369284
C60	C	1.251416	0.130220	0.869284
C61	C	0.662381	-0.358522	0.358097
C62	C	1.162381	0.141478	0.858097
C63	C	1.056586	-0.664717	0.406233
C64	C	1.556586	-0.164717	0.906233
C65	C	1.040710	-0.754331	0.385709
C66	C	1.540710	-0.254331	0.885709
C67	C	1.214985	-1.024062	0.610537
C68	C	1.714985	-0.524062	1.110537
C69	C	1.200042	-1.108267	0.591234
C70	C	1.700042	-0.608267	1.091234
C71	C	1.109428	-1.118253	0.474306
C72	C	1.609428	-0.618253	0.974306
C73	C	1.124367	-1.034047	0.493597
C74	C	1.624367	-0.534047	0.993597
C75	C	1.177145	-0.986958	0.561714
C76	C	1.677145	-0.486958	1.061714
C77	C	1.086527	-0.996943	0.444774
C78	C	1.586527	-0.496943	0.944774
C79	C	1.101461	-0.912744	0.464066
C80	C	1.601461	-0.412744	0.964066
C81	C	1.154234	-0.865649	0.532181
C82	C	1.654234	-0.365649	1.032181
C83	C	1.192079	-0.902759	0.581006
C84	C	1.692079	-0.402759	1.081006
C85	C	1.033744	-1.044032	0.376660
C86	C	1.533744	-0.544032	0.876660
C87	C	0.995904	-1.006928	0.327837
C88	C	1.495904	-0.506928	0.827837
C89	C	1.010843	-0.922729	0.347125
C90	C	1.510843	-0.422729	0.847125
C91	C	1.063616	-0.875634	0.415241
C92	C	1.563616	-0.375634	0.915241
C93	C	0.972999	-0.885619	0.298300
C94	C	1.472999	-0.385619	0.798300
C95	C	0.987932	-0.801420	0.317592
C96	C	1.487932	-0.301420	0.817592
C97	C	1.078550	-0.791435	0.434533
C98	C	1.578550	-0.291435	0.934533
C99	C	1.316229	-0.483390	0.482281
C100	C	1.816229	0.016610	0.982281
C101	C	1.410986	-0.495381	0.494208
C102	C	1.910986	0.004619	0.994208
C103	C	1.056474	-0.407035	0.664568
C104	C	1.556474	0.092965	1.164568
C105	C	1.040539	-0.386488	0.754175
C106	C	1.540539	0.113512	1.254175
C107	C	1.131315	-0.244967	0.502564
C108	C	1.631315	0.255033	1.002564
C109	C	1.147273	-0.155356	0.523134
C110	C	1.647273	0.344644	1.023134
C111	C	0.972744	-0.299076	0.885444
C112	C	1.472744	0.200924	1.385444
C113	C	0.987723	-0.318390	0.801245
C114	C	1.487723	0.181610	1.301245
C115	C	1.078394	-0.435303	0.791290
C116	C	1.578394	0.064697	1.291290
C117	C	1.063419	-0.416002	0.875489
C118	C	1.563419	0.083998	1.375489
C119	C	1.010594	-0.347887	0.922560
C120	C	1.510594	0.152113	1.422560
C121	C	1.101269	-0.464813	0.912605
C122	C	1.601269	0.035187	1.412605
C123	C	1.086299	-0.445510	0.996798
C124	C	1.586299	0.054490	1.496798
C125	C	1.033479	-0.377397	1.043875
C126	C	1.533479	0.122603	1.543875
C127	C	0.995624	-0.328585	1.006753
C128	C	1.495624	0.171415	1.506753
C129	C	1.154098	-0.532924	0.865535
C130	C	1.654098	-0.032924	1.365535
C131	C	1.191948	-0.581735	0.902651
C132	C	1.691948	-0.081735	1.402651
C133	C	1.176974	-0.562436	0.986844
C134	C	1.676974	-0.062436	1.486844
C135	C	1.124153	-0.494323	1.033920
C136	C	1.624153	0.005677	1.533920
C137	C	1.214828	-0.611248	1.023966
C138	C	1.714828	-0.111248	1.523966
C139	C	1.199858	-0.591946	1.108158
C140	C	1.699858	-0.091946	1.608158
C141	C	1.109183	-0.475020	1.118113
C142	C	1.609183	0.024980	1.618113
C143	C	1.131104	-0.503294	1.244834
C144	C	1.631104	-0.003294	1.744834
C145	C	1.147033	-0.523831	1.155229
C146	C	1.647033	-0.023831	1.655229
H147	H	0.375139	-0.406531	0.405853
H148	H	0.875139	0.093469	0.905853
O149	O	0.946896	-0.265735	0.761216
O150	O	1.446896	0.234265	1.261216
H151	H	0.966186	-0.290593	0.694766
H152	H	1.466186	0.209407	1.194766
H153	H	0.957118	-0.771210	0.277836
H154	H	1.457118	-0.271210	0.777836
O155	O	0.482247	-0.332448	0.332150
O156	O	0.982247	0.167552	0.832150
H157	H	0.409774	-0.330379	0.330075
H158	H	0.909774	0.169621	0.830075
O159	O	1.170253	-0.553750	0.774726
O160	O	1.670253	-0.053750	1.274726
H161	H	1.107000	-0.567008	0.740690
H162	H	1.607000	-0.067008	1.240690
H163	H	1.257845	-0.666702	0.985630
H164	H	1.757845	-0.166702	1.485630
H165	H	1.230846	-1.138469	0.631007
H166	H	1.730846	-0.638469	1.131007
O167	O	1.249007	-0.851959	0.654473
O168	O	1.749007	-0.351959	1.154473
H169	H	1.272812	-0.891903	0.685187
H170	H	1.772812	-0.391903	1.185187
H171	H	0.952606	-0.273121	1.045080
H172	H	1.452606	0.226879	1.545080
O173	O	1.271913	-0.973262	0.684004
O174	O	1.771913	-0.473262	1.184004
H175	H	1.295718	-1.013206	0.714718
H176	H	1.795718	-0.513206	1.214718
H177	H	1.230681	-0.631691	1.138379
H178	H	1.730681	-0.131691	1.638379
O179	O	0.634138	-0.309480	0.309321
O180	O	1.134138	0.190520	0.809321
H181	H	0.660038	-0.339880	0.245027
H182	H	1.160038	0.160120	0.745027
H183	H	0.661560	-0.527061	0.525702
H184	H	1.161560	-0.027061	1.025702
H185	H	0.736077	-0.486488	0.485351
H186	H	1.236077	0.013512	0.985351
H187	H	0.802592	-0.341922	0.341576
H188	H	1.302592	0.158078	0.841576
H189	H	1.021578	-1.112590	0.360962
H190	H	1.521578	-0.612590	0.860962
O191	O	0.938996	-1.057722	0.254359
O192	O	1.438996	-0.557722	0.754359
H193	H	0.934977	-1.122508	0.249139
H194	H	1.434977	-0.622508	0.749139
H195	H	0.930020	-0.923970	0.242844
H196	H	1.430020	-0.423970	0.742844
H197	H	1.066454	-1.156603	0.418847
H198	H	1.566454	-0.656603	0.918847
H199	H	0.547530	-0.589133	0.587430
H200	H	1.047530	-0.089133	1.087430
H201	H	1.121535	-0.753095	0.489995
H202	H	1.621535	-0.253095	0.989995
H203	H	1.121406	-0.490761	0.752955
H204	H	1.621406	0.009239	1.252955
H205	H	0.929726	-0.243612	0.923771
H206	H	1.429726	0.256388	1.423771
H207	H	0.385996	-0.568706	0.567122
H208	H	0.885996	-0.068706	1.067122
O209	O	1.052218	-0.401549	1.168904
O210	O	1.552218	0.098451	1.668904
H211	H	0.985714	-0.410597	1.141164
H212	H	1.485714	0.089403	1.641164
O213	O	1.170353	-0.774835	0.552988
O214	O	1.670353	-0.274835	1.052988
H215	H	1.107084	-0.740804	0.566208
H216	H	1.607084	-0.240804	1.066208
O217	O	1.017373	-0.356586	1.134688
O218	O	1.517373	0.143414	1.634688
H219	H	0.946230	-0.359639	1.145095
H220	H	1.446230	0.140361	1.645095
O221	O	1.248919	-0.655202	0.851881
O222	O	1.748919	-0.155202	1.351881
H223	H	1.252966	-0.660429	0.787099
H224	H	1.752966	-0.160429	1.287099
