data_functionalizedCrystal
_audit_creation_method	'MofGen! by Chris Wilmer'
_symmetry_space_group_name_H-M	'P1'
_symmetry_Int_Tables_number	1
_symmetry_cell_setting	triclinic
loop_
_symmetry_equiv_pos_as_xyz
  x,y,z
_cell_length_a	11.792254
_cell_length_b	16.974800
_cell_length_c	16.053802
_cell_angle_alpha	91.074188
_cell_angle_beta	87.412233
_cell_angle_gamma	96.206824
loop_
_atom_site_label
_atom_site_type_symbol
_atom_site_fract_x
_atom_site_fract_y
_atom_site_fract_z
O1	O	-0.144679	1.049700	0.001532
O2	O	0.188654	1.383033	0.334865
O3	O	0.521988	1.716366	0.668198
O4	O	-0.162053	0.820313	-0.013974
O5	O	0.171280	1.153646	0.319359
O6	O	0.504613	1.486980	0.652693
O7	O	0.011836	0.940568	-0.005849
O8	O	0.345169	1.273901	0.327484
O9	O	0.678503	1.607234	0.660817
O10	O	-0.318569	0.929445	-0.006593
O11	O	0.014765	1.262778	0.326740
O12	O	0.348098	1.596111	0.660073
O13	O	0.002304	0.933948	0.132562
O14	O	0.335638	1.267282	0.465896
O15	O	0.668971	1.600615	0.799229
O16	O	-0.171585	0.813694	0.124438
O17	O	0.161748	1.147027	0.457771
O18	O	0.495081	1.480360	0.791104
O19	O	-0.154211	1.043080	0.139943
O20	O	0.179122	1.376414	0.473277
O21	O	0.512456	1.709747	0.806610
Zn22	Zn	-0.164412	0.927336	0.154166
Zn23	Zn	0.168922	1.260669	0.487500
Zn24	Zn	0.502255	1.594003	0.820833
Zn25	Zn	-0.151853	0.936057	-0.028197
Zn26	Zn	0.181480	1.269391	0.305136
Zn27	Zn	0.514814	1.602724	0.638470
O28	O	-0.328101	0.922825	0.131818
O29	O	0.005233	1.256159	0.465152
O30	O	0.338566	1.589492	0.798485
C31	C	-0.165984	0.787637	0.053246
C32	C	0.167349	1.120970	0.386580
C33	C	0.500683	1.454303	0.719913
C34	C	-0.163481	0.700133	0.047331
C35	C	0.169852	1.033466	0.380665
C36	C	0.503185	1.366800	0.713998
C37	C	-0.167499	0.655420	0.120002
C38	C	0.165835	0.988754	0.453336
C39	C	0.499168	1.322087	0.786669
C40	C	-0.165129	0.573203	0.114447
C41	C	0.168204	0.906536	0.447780
C42	C	0.501538	1.239870	0.781113
C43	C	-0.158750	0.535699	0.036219
C44	C	0.174583	0.869033	0.369552
C45	C	0.507916	1.202366	0.702886
C46	C	-0.154729	0.580418	-0.036457
C47	C	0.178604	0.913752	0.296876
C48	C	0.511937	1.247085	0.630209
C49	C	-0.157091	0.662635	-0.030901
C50	C	0.176243	0.995968	0.302432
C51	C	0.509576	1.329302	0.635766
C52	C	-0.151123	0.290196	0.011511
C53	C	0.182210	0.623529	0.344844
C54	C	0.515544	0.956863	0.678177
C55	C	-0.148765	0.207973	0.005959
C56	C	0.184568	0.541307	0.339293
C57	C	0.517901	0.874640	0.672626
C58	C	-0.159163	0.200764	0.156864
C59	C	0.174170	0.534097	0.490198
C60	C	0.507504	0.867430	0.823531
C61	C	-0.161531	0.282981	0.162414
C62	C	0.171802	0.616315	0.495747
C63	C	0.505136	0.949648	0.829080
C64	C	-0.157504	0.327694	0.089737
C65	C	0.175830	0.661027	0.423071
C66	C	0.509163	0.994361	0.756404
N67	N	-0.156332	0.451660	0.030538
N68	N	0.177002	0.784993	0.363872
N69	N	0.510335	1.118326	0.697205
N70	N	-0.159914	0.411733	0.095419
N71	N	0.173419	0.745066	0.428752
N72	N	0.506752	1.078399	0.762086
C73	C	-0.365621	0.926836	0.062661
C74	C	-0.032288	1.260169	0.395994
C75	C	0.301045	1.593502	0.729327
C76	C	-0.491622	0.928933	0.062805
C77	C	-0.158289	1.262266	0.396139
C78	C	0.175044	1.595599	0.729472
C79	C	-0.593948	0.930637	0.062916
C80	C	-0.260615	1.263970	0.396249
C81	C	0.072718	1.597304	0.729583
C82	C	-0.722322	0.932768	0.063050
C83	C	-0.388989	1.266101	0.396384
C84	C	-0.055655	1.599435	0.729717
C85	C	0.049357	0.936558	0.063307
C86	C	0.382690	1.269891	0.396640
C87	C	0.716024	1.603224	0.729973
C88	C	0.175358	0.934461	0.063157
C89	C	0.508692	1.267794	0.396490
C90	C	0.842025	1.601127	0.729823
C91	C	-0.150280	1.075757	0.072721
C92	C	0.183053	1.409090	0.406054
C93	C	0.516386	1.742423	0.739387
C94	C	-0.152783	1.163260	0.078631
C95	C	0.180551	1.496594	0.411964
C96	C	0.513884	1.829927	0.745297
N97	N	-0.172982	0.921390	0.278625
N98	N	0.160352	1.254723	0.611958
N99	N	0.493685	1.588056	0.945291
N100	N	-0.143274	0.942010	-0.152655
N101	N	0.190060	1.275343	0.180678
N102	N	0.523393	1.608676	0.514011
C103	C	-0.099018	0.972577	0.325777
C104	C	0.234315	1.305911	0.659110
C105	C	0.567649	1.639244	0.992444
C106	C	-0.105024	0.968425	0.412903
C107	C	0.228310	1.301758	0.746237
C108	C	0.561643	1.635092	1.079570
C109	C	-0.185000	0.913089	0.452876
C110	C	0.148334	1.246422	0.786209
C111	C	0.481667	1.579755	1.119543
C112	C	-0.258967	0.861896	0.405717
C113	C	0.074367	1.195229	0.739050
C114	C	0.407700	1.528562	1.072384
C115	C	-0.252955	0.866045	0.318592
C116	C	0.080379	1.199378	0.651925
C117	C	0.413712	1.532711	0.985259
C118	C	-0.211229	0.894966	0.713061
C119	C	0.122105	1.228299	1.046394
C120	C	0.455438	1.561632	1.379728
C121	C	-0.217238	0.890822	0.800192
C122	C	0.116096	1.224155	1.133526
C123	C	0.449429	1.557489	1.466859
C124	C	-0.063292	0.997351	0.807373
C125	C	0.270041	1.330684	1.140706
C126	C	0.603374	1.664018	1.474039
C127	C	-0.057292	1.001498	0.720246
C128	C	0.276041	1.334832	1.053579
C129	C	0.609375	1.668165	1.386913
C130	C	-0.131255	0.950303	0.673095
C131	C	0.202078	1.283636	1.006428
C132	C	0.535412	1.616969	1.339761
N133	N	-0.191143	0.908845	0.541933
N134	N	0.142191	1.242178	0.875266
N135	N	0.475524	1.575512	1.208600
N136	N	-0.125106	0.954543	0.584039
N137	N	0.208228	1.287876	0.917372
N138	N	0.541561	1.621210	1.250706
H139	H	-0.153822	0.699039	-0.090078
H140	H	0.179512	1.032373	0.243256
H141	H	0.512845	1.365706	0.576589
H142	H	-0.313182	0.824361	0.280201
H143	H	0.020151	1.157695	0.613534
H144	H	0.353484	1.491028	0.946868
F145	F	-0.289948	0.840482	0.662886
F146	F	0.043385	1.173815	0.996219
F147	F	0.376719	1.507149	1.329553
H148	H	-0.033898	1.017641	0.293238
H149	H	0.299435	1.350975	0.626571
H150	H	0.632769	1.684308	0.959905
H151	H	0.007831	1.046558	0.687703
H152	H	0.341164	1.379891	1.021036
H153	H	0.674497	1.713224	1.354369
F154	F	-0.344079	0.802998	0.448259
F155	F	-0.010746	1.136331	0.781592
F156	F	0.322588	1.469664	1.114926
F157	F	-0.141979	0.168061	-0.077305
F158	F	0.191354	0.501394	0.256028
F159	F	0.524688	0.834727	0.589362
F160	F	-0.174295	0.695326	0.203264
F161	F	0.159038	1.028660	0.536597
F162	F	0.492371	1.361993	0.869930
H163	H	-0.168382	0.536803	0.173623
H164	H	0.164952	0.870136	0.506957
H165	H	0.498285	1.203469	0.840290
F166	F	-0.147906	0.540505	-0.119713
F167	F	0.185428	0.873838	0.213620
F168	F	0.518761	1.207172	0.546953
H169	H	-0.044796	1.010106	0.451295
H170	H	0.288537	1.343439	0.784628
H171	H	0.621871	1.676772	1.117961
F172	F	0.015422	1.051832	0.857559
F173	F	0.348755	1.385165	1.190893
F174	F	0.682088	1.718499	1.524226
H175	H	-0.147840	0.326592	-0.047668
H176	H	0.185493	0.659925	0.285665
H177	H	0.518827	0.993258	0.618999
H178	H	-0.166720	0.313511	0.226115
H179	H	0.166614	0.646845	0.559448
H180	H	0.499947	0.980178	0.892782
F181	F	-0.163445	0.153172	0.234206
F182	F	0.169888	0.486506	0.567540
F183	F	0.503221	0.819839	0.900873
F184	F	-0.302366	0.831923	0.842728
F185	F	0.030967	1.165256	1.176062
F186	F	0.364300	1.498589	1.509395
