data_functionalizedCrystal
_audit_creation_method	'MofGen! by Chris Wilmer'
_symmetry_space_group_name_H-M	'P1'
_symmetry_Int_Tables_number	1
_symmetry_cell_setting	triclinic
loop_
_symmetry_equiv_pos_as_xyz
  x,y,z
_cell_length_a	17.699083
_cell_length_b	17.699083
_cell_length_c	16.176319
_cell_angle_alpha	89.992304
_cell_angle_beta	89.998611
_cell_angle_gamma	83.283015
loop_
_atom_site_label
_atom_site_type_symbol
_atom_site_fract_x
_atom_site_fract_y
_atom_site_fract_z
O1	O	1.004079	0.095713	-0.068632
O2	O	0.783700	0.108166	-0.068660
O3	O	0.900116	-0.008250	-0.068638
O4	O	0.887663	0.212129	-0.068654
O5	O	0.900100	-0.008257	0.068855
O6	O	0.783684	0.108158	0.068834
O7	O	1.004063	0.095706	0.068861
Cu8	Cu	0.893872	0.101931	0.081401
Cu9	Cu	0.893891	0.101940	-0.081200
O10	O	0.887647	0.212121	0.068839
C11	C	0.755495	0.107716	0.000084
C12	C	0.671477	0.106377	0.000073
C13	C	0.622856	0.174710	0.000069
C14	C	0.543913	0.173448	0.000079
C15	C	0.513592	0.103852	0.000089
C16	C	0.562219	0.035513	0.000096
C17	C	0.641161	0.036776	0.000091
C18	C	0.243856	0.030418	0.000117
C19	C	0.164908	0.029160	0.000120
C20	C	0.146608	0.167090	0.000105
C21	C	0.225550	0.168353	0.000100
C22	C	0.274170	0.100015	0.000112
C23	C	0.359769	0.101384	0.000102
C24	C	0.427995	0.102481	0.000093
C25	C	0.899662	-0.036451	0.000109
C26	C	0.898323	-0.120469	0.000109
C27	C	0.966656	-0.169090	0.000119
C28	C	0.965394	-0.248033	0.000111
C29	C	0.895798	-0.278354	0.000100
C30	C	0.827459	-0.229727	0.000088
C31	C	0.828722	-0.150785	0.000089
C32	C	0.822364	-0.548090	0.000080
C33	C	0.821106	-0.627038	0.000081
C34	C	0.959036	-0.645338	0.000102
C35	C	0.960299	-0.566396	0.000104
C36	C	0.891961	-0.517776	0.000087
C37	C	0.893330	-0.432177	0.000094
C38	C	0.894427	-0.363951	0.000099
C39	C	1.032268	0.096156	0.000116
C40	C	1.116286	0.097494	0.000121
C41	C	0.888102	0.240322	0.000091
C42	C	0.889440	0.324340	0.000085
N43	N	0.893864	0.101925	0.195767
N44	N	0.893905	0.101941	-0.195565
C45	C	0.945429	0.050397	0.239040
C46	C	0.945432	0.050396	0.325588
C47	C	0.893875	0.101927	0.368859
C48	C	0.842305	0.153457	0.325579
C49	C	0.842299	0.153454	0.239034
C50	C	0.842331	0.153472	0.674608
C51	C	0.842344	0.153473	0.761159
C52	C	0.945465	0.050414	0.761161
C53	C	0.945458	0.050410	0.674616
C54	C	0.893886	0.101937	0.631344
C55	C	0.893882	0.101937	0.537499
C56	C	0.893883	0.101932	0.462702
H57	H	0.537526	-0.021154	0.000116
O58	O	1.034282	-0.139675	-0.000019
C59	C	1.075943	-0.164541	-0.071214
H60	H	1.035246	-0.180880	-0.120988
H61	H	1.108059	-0.116775	-0.095114
H62	H	1.118211	-0.216072	-0.055112
O63	O	1.031755	-0.295291	-0.000026
C64	C	1.035157	-0.341502	-0.071229
H65	H	0.996406	-0.312512	-0.121003
H66	H	1.096143	-0.350482	-0.095122
H67	H	1.015676	-0.398877	-0.055138
H68	H	0.800357	0.195437	0.796390
O69	O	0.688286	-0.029673	0.000055
C70	C	0.644599	-0.091372	0.000083
H71	H	0.585642	-0.072053	-0.025946
H72	H	0.673808	-0.139240	-0.039832
H73	H	0.639020	-0.112716	0.066048
O74	O	0.652181	0.242384	0.000095
C75	C	0.592334	0.302425	0.000074
H76	H	0.538747	0.281304	0.026109
H77	H	0.608742	0.351023	0.039986
H78	H	0.581121	0.323500	-0.065890
O79	O	1.027858	-0.536854	0.000002
C80	C	1.032728	-0.491747	-0.071217
H81	H	0.973040	-0.471972	-0.094962
H82	H	1.062803	-0.440109	-0.055200
H83	H	1.066280	-0.526681	-0.121077
H84	H	0.770792	-0.254420	0.000073
H85	H	0.504328	0.229092	0.000075
H86	H	0.773078	-0.111198	0.000081
H87	H	1.014680	-0.684934	0.000111
H88	H	0.250232	0.225025	0.000089
H89	H	0.107012	0.222734	0.000100
O90	O	0.135328	-0.038384	0.000098
C91	C	0.055226	-0.024841	0.000116
H92	H	0.036583	0.034258	-0.025925
H93	H	0.031066	-0.069365	-0.039793
H94	H	0.033256	-0.028464	0.066080
H95	H	0.764429	-0.651721	0.000074
H96	H	0.800309	0.195412	0.203801
H97	H	0.800323	0.195413	0.360816
O98	O	0.755913	-0.500975	0.000112
C99	C	0.694218	-0.544668	0.000088
H100	H	0.713539	-0.603627	0.026117
H101	H	0.646345	-0.515467	0.040004
H102	H	0.672881	-0.550242	-0.065876
O103	O	0.995541	0.000266	0.197138
C104	C	1.041065	-0.045202	0.253896
H105	H	1.010041	-0.046014	0.315592
H106	H	1.052724	-0.105662	0.228902
H107	H	1.097241	-0.020696	0.263089
O108	O	0.995423	0.000269	0.367656
C109	C	0.954994	-0.046370	0.417746
H110	H	0.895308	-0.047579	0.391677
H111	H	0.985993	-0.106566	0.418728
H112	H	0.950990	-0.022681	0.483336
H113	H	0.987444	0.008451	0.639387
O114	O	0.290971	-0.036033	0.000088
C115	C	0.247278	-0.097728	0.000116
H116	H	0.188324	-0.078405	-0.025917
H117	H	0.276486	-0.145599	-0.039795
H118	H	0.241693	-0.119068	0.066081
O119	O	0.995524	0.000247	0.803108
C120	C	0.983348	-0.074661	0.781987
H121	H	0.954173	-0.074530	0.719152
H122	H	1.040307	-0.112007	0.779027
H123	H	0.945722	-0.098020	0.830702
H124	H	0.800341	0.195428	0.639382
