data_functionalizedCrystal
_audit_creation_method	'MofGen! by Chris Wilmer'
_symmetry_space_group_name_H-M	'P1'
_symmetry_Int_Tables_number	1
_symmetry_cell_setting	triclinic
loop_
_symmetry_equiv_pos_as_xyz
  x,y,z
_cell_length_a	17.077404
_cell_length_b	13.032721
_cell_length_c	17.077396
_cell_angle_alpha	97.153695
_cell_angle_beta	89.981638
_cell_angle_gamma	97.202376
loop_
_atom_site_label
_atom_site_type_symbol
_atom_site_fract_x
_atom_site_fract_y
_atom_site_fract_z
Zn1	Zn	1.160369	-0.416096	-0.483506
Zn2	Zn	1.660369	0.083904	0.016494
Zn3	Zn	1.143608	-0.590861	-0.368909
Zn4	Zn	1.643608	-0.090861	0.131091
Zn5	Zn	1.029098	-0.416126	-0.352259
Zn6	Zn	1.529098	0.083874	0.147741
Zn7	Zn	1.012407	-0.590792	-0.500129
Zn8	Zn	1.512407	-0.090792	-0.000129
O9	O	1.086370	-0.503469	-0.426201
O10	O	1.586370	-0.003469	0.073799
O11	O	1.267991	-0.439296	-0.468316
O12	O	1.767991	0.060704	0.031684
O13	O	1.128388	-0.567724	-0.256857
O14	O	1.628388	-0.067724	0.243143
O15	O	1.060511	-0.269884	-0.355745
O16	O	1.560511	0.230116	0.144255
O17	O	1.255676	-0.567695	-0.384122
O18	O	1.755676	-0.067695	0.115878
O19	O	1.156955	-0.269862	-0.452171
O20	O	1.656955	0.230138	0.047829
O21	O	1.044258	-0.439346	-0.244625
O22	O	1.544258	0.060654	0.255375
O23	O	0.917038	-0.439280	-0.371863
O24	O	1.417038	0.060720	0.128137
O25	O	1.032064	-0.567577	-0.607767
O26	O	1.532064	-0.067577	-0.107767
O27	O	0.904776	-0.567606	-0.480502
O28	O	1.404776	-0.067606	0.019498
O29	O	1.140771	-0.439229	-0.595554
O30	O	1.640771	0.060771	-0.095554
O31	O	1.112204	-0.737091	-0.400240
O32	O	1.612204	-0.237091	0.099760
O33	O	1.015811	-0.737040	-0.496647
O34	O	1.515811	-0.237040	0.003353
C35	C	0.882425	-0.503439	-0.426180
C36	C	1.382425	-0.003439	0.073820
C37	C	0.795174	-0.503452	-0.426193
C38	C	1.295174	-0.003452	0.073807
C39	C	0.760586	-0.436713	-0.470120
C40	C	1.260586	0.063287	0.029880
C41	C	0.678605	-0.436720	-0.470125
C42	C	1.178605	0.063280	0.029875
C43	C	0.631213	-0.503471	-0.426205
C44	C	1.131213	-0.003471	0.073795
C45	C	0.665807	-0.570213	-0.382272
C46	C	1.165807	-0.070213	0.117728
C47	C	0.747787	-0.570200	-0.382264
C48	C	1.247787	-0.070200	0.117736
C49	C	0.494935	-0.570237	-0.382294
C50	C	0.994935	-0.070237	0.117706
C51	C	0.412949	-0.570251	-0.382303
C52	C	0.912949	-0.070251	0.117697
C53	C	0.425752	-0.436756	-0.470155
C54	C	0.925752	0.063244	0.029845
C55	C	0.507732	-0.436744	-0.470146
C56	C	1.007732	0.063256	0.029854
C57	C	0.542321	-0.503487	-0.426214
C58	C	1.042321	-0.003487	0.073786
C59	C	1.060399	-0.774983	-0.452071
C60	C	1.560399	-0.274983	0.047929
C61	C	1.049360	-0.891138	-0.463165
C62	C	1.549360	-0.391138	0.036835
C63	C	1.092173	-0.942914	-0.420446
C64	C	1.592173	-0.442914	0.079554
C65	C	1.080765	-1.062966	-0.431911
C66	C	1.580765	-0.562966	0.068089
C67	C	1.291112	-0.503499	-0.426222
C68	C	1.791112	-0.003499	0.073778
C69	C	1.378360	-0.503512	-0.426231
C70	C	1.878360	-0.003512	0.073769
C71	C	1.086425	-0.503392	-0.630938
C72	C	1.586425	-0.003392	-0.130938
C73	C	1.086449	-0.503359	-0.718184
C74	C	1.586449	-0.003359	-0.218184
C75	C	1.112465	-0.230895	-0.400247
C76	C	1.612465	0.269105	0.099753
C77	C	1.123585	-0.114740	-0.389187
C78	C	1.623585	0.385260	0.110813
C79	C	1.143055	-0.436523	-0.752816
C80	C	1.643055	0.063477	-0.252816
C81	C	1.143067	-0.436488	-0.834793
C82	C	1.643067	0.063512	-0.334793
C83	C	1.086477	-0.503296	-0.882138
C84	C	1.586477	-0.003296	-0.382138
C85	C	1.029865	-0.570135	-0.847501
C86	C	1.529865	-0.070135	-0.347501
C87	C	1.029849	-0.570164	-0.765524
C88	C	1.529849	-0.070164	-0.265524
C89	C	1.029902	-0.570072	-1.018365
C90	C	1.529902	-0.070072	-0.518365
C91	C	1.029919	-0.570045	-1.100347
C92	C	1.529919	-0.070045	-0.600347
C93	C	1.143121	-0.436396	-1.087634
C94	C	1.643121	0.063604	-0.587634
C95	C	1.143105	-0.436425	-1.005658
C96	C	1.643105	0.063575	-0.505658
C97	C	1.086494	-0.503266	-0.971026
C98	C	1.586494	-0.003266	-0.471026
C99	C	1.086368	-0.503470	-0.222253
C100	C	1.586368	-0.003470	0.277747
C101	C	1.086525	-0.503209	-0.134979
C102	C	1.586525	-0.003209	0.365021
H103	H	0.799167	-0.382359	-0.505887
H104	H	1.299167	0.117641	-0.005887
H105	H	0.650447	-0.382377	-0.505897
H106	H	1.150447	0.117623	-0.005897
Cl107	Cl	0.567309	-0.352835	-0.525368
Cl108	Cl	1.067309	0.147165	-0.025368
H109	H	0.983836	-0.624444	-1.138893
H110	H	1.483836	-0.124444	-0.638893
Cl111	Cl	0.791270	-0.654105	-0.327039
Cl112	Cl	1.291270	-0.154105	0.172961
Cl113	Cl	0.979730	-0.959912	-0.532742
Cl114	Cl	1.479730	-0.459912	-0.032742
Cl115	Cl	0.958732	-0.654102	-0.974829
Cl116	Cl	1.458732	-0.154102	-0.474829
Cl117	Cl	1.193226	-1.045972	-0.319614
Cl118	Cl	1.693226	-0.545972	0.180386
Cl119	Cl	0.382271	-0.352848	-0.525381
Cl120	Cl	0.882271	0.147152	-0.025381
H121	H	0.627215	-0.624558	-0.346508
H122	H	1.127215	-0.124558	0.153492
Cl123	Cl	0.958682	-0.654188	-0.721987
Cl124	Cl	1.458682	-0.154188	-0.221987
Cl125	Cl	0.353369	-0.654193	-0.327110
Cl126	Cl	0.853369	-0.154193	0.172890
Cl127	Cl	1.011132	-1.131736	-0.501491
Cl128	Cl	1.511132	-0.631736	-0.001491
Cl129	Cl	1.214263	-0.352507	-0.878331
Cl130	Cl	1.714263	0.147493	-0.378331
H131	H	0.523094	-0.624583	-0.346517
H132	H	1.023094	-0.124583	0.153483
H133	H	1.137277	-0.898366	-0.375388
H134	H	1.637277	-0.398366	0.124612
H135	H	1.189190	-0.382030	-0.967112
H136	H	1.689190	0.117970	-0.467112
Cl137	Cl	1.214205	-0.352535	-0.693306
Cl138	Cl	1.714205	0.147465	-0.193306
H139	H	1.189214	-0.381970	-1.115834
H140	H	1.689214	0.118030	-0.615834
H141	H	0.983785	-0.624528	-0.886055
H142	H	1.483785	-0.124528	-0.386055
