data_functionalizedCrystal
_audit_creation_method	'MofGen! by Chris Wilmer'
_symmetry_space_group_name_H-M	'P1'
_symmetry_Int_Tables_number	1
_symmetry_cell_setting	triclinic
loop_
_symmetry_equiv_pos_as_xyz
  x,y,z
_cell_length_a	13.897449
_cell_length_b	12.645330
_cell_length_c	13.897441
_cell_angle_alpha	89.973671
_cell_angle_beta	89.978743
_cell_angle_gamma	90.018519
loop_
_atom_site_label
_atom_site_type_symbol
_atom_site_fract_x
_atom_site_fract_y
_atom_site_fract_z
Zn1	Zn	1.474682	-0.421992	-0.545472
Zn2	Zn	1.474582	-0.599285	-0.384182
Zn3	Zn	1.313377	-0.422038	-0.384183
Zn4	Zn	1.313353	-0.599217	-0.545428
O5	O	1.393999	-0.510633	-0.464816
O6	O	1.609651	-0.445520	-0.524095
O7	O	1.453166	-0.575820	-0.249201
O8	O	1.334827	-0.273685	-0.405597
O9	O	1.609577	-0.575776	-0.405596
O10	O	1.453337	-0.273651	-0.524095
O11	O	1.334730	-0.445598	-0.249201
O12	O	1.178393	-0.445532	-0.405554
O13	O	1.334785	-0.575660	-0.680415
O14	O	1.178375	-0.575704	-0.524020
O15	O	1.453313	-0.445454	-0.680448
O16	O	1.453143	-0.747623	-0.405553
O17	O	1.334689	-0.747573	-0.524019
C18	C	1.143384	-0.510617	-0.464782
C19	C	1.036171	-0.510635	-0.464791
C20	C	0.949101	-0.510639	-0.464807
C21	C	0.839868	-0.510646	-0.464836
C22	C	1.393928	-0.786063	-0.464803
C23	C	1.393987	-0.903893	-0.464829
C24	C	1.319774	-1.071469	-0.539586
C25	C	1.319395	-0.948910	-0.539346
C26	C	1.366471	-0.948490	-0.363172
C27	C	1.366018	-1.071089	-0.363626
C28	C	1.496168	-1.070980	-0.490905
C29	C	1.495542	-0.948373	-0.493127
C30	C	1.645592	-0.510650	-0.464850
C31	C	1.752806	-0.510658	-0.464865
C32	C	1.394058	-0.510544	-0.716409
C33	C	1.394083	-0.510506	-0.823623
C34	C	1.394096	-0.234128	-0.464851
C35	C	1.394137	-0.116298	-0.464866
C36	C	1.394103	-0.510476	-0.910693
C37	C	1.394130	-0.510428	-1.019926
C38	C	1.393996	-0.510645	-0.214202
C39	C	1.394157	-0.510385	-0.106988
H40	H	1.336610	-0.918754	-0.614723
C41	C	1.530077	-1.112634	-0.589344
H42	H	1.482319	-1.158057	-0.615487
H43	H	1.588441	-1.150760	-0.581539
H44	H	1.540367	-1.054776	-0.631749
H45	H	1.553864	-0.917723	-0.442668
H46	H	1.551570	-1.099968	-0.436483
H47	H	1.516293	-0.919220	-0.567942
H48	H	1.243753	-0.919677	-0.522094
H49	H	1.291433	-1.099782	-0.341568
H50	H	1.336831	-1.100879	-0.615211
H51	H	1.244605	-1.102372	-0.522555
H52	H	1.417831	-1.100747	-0.306055
C53	C	1.437310	-0.909098	-0.285903
H54	H	1.484406	-0.864993	-0.315022
H55	H	1.467989	-0.967947	-0.256520
H56	H	1.403235	-0.870028	-0.238502
C57	C	1.266758	-0.907160	-0.332837
H58	H	1.241762	-0.862738	-0.381979
H59	H	1.272517	-0.868035	-0.274789
H60	H	1.224467	-0.965218	-0.323050
