data_functionalizedCrystal
_audit_creation_method	'MofGen! by Chris Wilmer'
_symmetry_space_group_name_H-M	'P1'
_symmetry_Int_Tables_number	1
_symmetry_cell_setting	triclinic
loop_
_symmetry_equiv_pos_as_xyz
  x,y,z
_cell_length_a	19.188930
_cell_length_b	10.654550
_cell_length_c	9.130313
_cell_angle_alpha	90.000110
_cell_angle_beta	90.014104
_cell_angle_gamma	83.814842
loop_
_atom_site_label
_atom_site_type_symbol
_atom_site_fract_x
_atom_site_fract_y
_atom_site_fract_z
O1	O	-0.927166	-0.156774	-0.122267
O2	O	-0.723993	-0.177880	-0.122166
O3	O	-0.830251	0.015511	-0.122214
O4	O	-0.820908	-0.350165	-0.122220
O5	O	-0.830250	0.015506	0.121385
O6	O	-0.723992	-0.177885	0.121433
O7	O	-0.927165	-0.156779	0.121332
Cu8	Cu	-0.825578	-0.167333	0.143625
Cu9	Cu	-0.825580	-0.167326	-0.144459
O10	O	-0.820907	-0.350170	0.121379
C11	C	-0.697977	-0.177199	-0.000354
C12	C	-0.620459	-0.175147	-0.000315
C13	C	-0.829564	0.062292	-0.000416
C14	C	-0.827512	0.201692	-0.000420
C15	C	-0.953181	-0.157460	-0.000484
C16	C	-1.030699	-0.159512	-0.000532
C17	C	-0.576277	-0.288622	-0.000340
C18	C	-0.503441	-0.286695	-0.000356
C19	C	-0.474789	-0.171286	-0.000377
C20	C	-0.518981	-0.057795	-0.000344
C21	C	-0.591816	-0.059726	-0.000313
N22	N	-0.366233	-0.083068	-0.083342
N23	N	-0.297042	-0.081241	-0.083374
C24	C	-0.255343	-0.165461	-0.000466
N25	N	-0.285446	-0.251596	0.082456
N26	N	-0.354643	-0.253426	0.082482
C27	C	-0.395813	-0.169179	-0.000409
C28	C	-0.132183	-0.276855	-0.000507
C29	C	-0.059345	-0.274922	-0.000514
C30	C	-0.074887	-0.046020	-0.000516
C31	C	-0.147723	-0.047955	-0.000494
C32	C	-0.176366	-0.163376	-0.000497
C33	C	-0.821594	-0.396951	-0.000422
C34	C	-0.823646	-0.536351	-0.000428
N35	N	-0.825582	-0.167336	0.346247
C36	C	-0.890075	0.282501	-0.000446
C37	C	-0.888142	0.413481	-0.000456
C38	C	-0.761078	0.382829	-0.000405
C39	C	-0.763011	0.251852	-0.000407
C40	C	-0.963434	0.300199	-0.000469
C41	C	-0.961502	0.431179	-0.000478
N42	N	-0.825581	-0.167313	-0.347082
C43	C	-0.872645	-0.081731	0.422878
C44	C	-0.872643	-0.081716	0.576215
C45	C	-0.778513	-0.252922	0.576276
C46	C	-0.778512	-0.252930	0.422942
C47	C	-0.926993	0.017109	0.422844
C48	C	-0.926991	0.017124	0.576181
H49	H	-0.467461	-0.379103	-0.000373
H50	H	-0.915073	0.113389	0.381233
O51	O	-0.732696	-0.335941	0.650718
C52	C	-0.611655	-0.410097	0.697630
C53	C	-0.663465	-0.315987	0.613265
H54	H	-0.555670	-0.394015	0.667358
H55	H	-0.619676	-0.395384	0.820403
H56	H	-0.621269	-0.510634	0.667509
H57	H	-0.653883	-0.215413	0.643263
H58	H	-0.655431	-0.330810	0.490513
H59	H	-0.051560	0.047949	-0.000623
O60	O	-0.702173	0.173532	-0.000328
C61	C	-0.575938	0.156956	-0.000387
C62	C	-0.644788	0.245797	-0.000441
H63	H	-0.529525	0.215347	-0.000510
H64	H	-0.573611	0.094891	0.101583
H65	H	-0.573712	0.094846	-0.102309
H66	H	-0.647060	0.307987	0.101412
H67	H	-0.647087	0.307777	-0.102478
H68	H	-0.989142	0.473522	0.101452
O69	O	-0.988006	0.486011	-0.126021
C70	C	-1.039697	0.454852	-0.362011
C71	C	-1.009715	0.392594	-0.219900
H72	H	-1.057244	0.379350	-0.437964
H73	H	-1.086448	0.526326	-0.334723
H74	H	-0.997544	0.504973	-0.418596
H75	H	-1.051818	0.342404	-0.163246
H76	H	-0.962948	0.321187	-0.247283
O77	O	-0.991019	-0.006969	0.625887
C78	C	-1.092914	0.067852	0.767961
C79	C	-1.020425	0.095310	0.711737
H80	H	-1.116704	0.150515	0.837407
H81	H	-1.128733	0.054310	0.670898
H82	H	-1.086944	-0.021655	0.837286
H83	H	-1.026328	0.184827	0.642436
H84	H	-0.984633	0.108773	0.808865
H85	H	-0.495648	0.036172	-0.000381
O86	O	-0.987520	-0.018068	0.366305
C87	C	-1.101219	-0.084344	0.417136
C88	C	-1.032715	-0.044495	0.481363
H89	H	-1.137771	-0.105747	0.510130
H90	H	-1.127731	-0.004543	0.346893
H91	H	-1.088842	-0.172338	0.346819
H92	H	-1.045031	0.043469	0.551746
H93	H	-1.006222	-0.124370	0.551522
H94	H	-0.183697	0.044449	-0.000482
H95	H	-0.627789	0.032682	-0.000294
O96	O	-0.906674	0.125526	0.632740
C97	C	-0.815235	0.263168	0.649287
C98	C	-0.838153	0.140383	0.585119
H99	H	-0.759829	0.275206	0.610836
H100	H	-0.852687	0.346966	0.610647
H101	H	-0.816210	0.258188	0.773985
H102	H	-0.837174	0.145239	0.460420
H103	H	-0.800696	0.056636	0.623875
H104	H	-0.599593	-0.382607	-0.000345
O105	O	-0.991307	0.258465	0.125085
C106	C	-1.091877	0.268888	0.284358
C107	C	-1.060482	0.316167	0.141997
H108	H	-1.147805	0.315540	0.298093
H109	H	-1.092240	0.162065	0.278851
H110	H	-1.058802	0.294124	0.381586
H111	H	-1.093531	0.291021	0.044694
H112	H	-1.060106	0.422982	0.147631
O113	O	-0.159932	-0.389045	-0.000685
C114	C	-0.168999	-0.585243	-0.126911
C115	C	-0.137516	-0.458248	-0.126876
H116	H	-0.150900	-0.641218	-0.228940
H117	H	-0.150810	-0.641386	-0.025035
H118	H	-0.228644	-0.567096	-0.126823
H119	H	-0.077869	-0.476280	-0.127015
H120	H	-0.155760	-0.402145	-0.228743
H121	H	-0.023372	-0.367332	-0.000526
H122	H	-0.708564	0.423686	-0.000396
H123	H	-0.992129	0.271450	-0.102422
O124	O	-0.732860	-0.336254	0.348573
C125	C	-0.692956	-0.554795	0.301778
C126	C	-0.744711	-0.460565	0.386061
H127	H	-0.702510	-0.655320	0.332079
H128	H	-0.701035	-0.540215	0.178992
H129	H	-0.636969	-0.538596	0.331943
H130	H	-0.800718	-0.476706	0.356019
H131	H	-0.736571	-0.475168	0.508827
