data_functionalizedCrystal
_audit_creation_method	'MofGen! by Chris Wilmer'
_symmetry_space_group_name_H-M	'P1'
_symmetry_Int_Tables_number	1
_symmetry_cell_setting	triclinic
loop_
_symmetry_equiv_pos_as_xyz
  x,y,z
_cell_length_a	28.938199
_cell_length_b	28.937346
_cell_length_c	28.934044
_cell_angle_alpha	60.005004
_cell_angle_beta	60.009897
_cell_angle_gamma	59.994060
loop_
_atom_site_label
_atom_site_type_symbol
_atom_site_fract_x
_atom_site_fract_y
_atom_site_fract_z
O1	O	0.064043	-0.675186	0.564597
O2	O	0.564043	-0.175186	1.064597
O3	O	0.024124	-0.525682	0.454913
O4	O	0.524124	-0.025682	0.954913
O5	O	0.118795	-0.620275	0.454833
O6	O	0.618795	-0.120275	0.954833
O7	O	-0.030629	-0.580593	0.564678
O8	O	0.469371	-0.080593	1.064678
O9	O	0.150204	-0.588870	0.486157
O10	O	0.650204	-0.088870	0.986157
O11	O	0.055533	-0.494276	0.486238
O12	O	0.555533	0.005724	0.986238
O13	O	0.095452	-0.643780	0.595921
O14	O	0.595452	-0.143780	1.095921
Cu15	Cu	0.078360	-0.566161	0.543940
Cu16	Cu	0.578360	-0.066161	1.043940
Cu17	Cu	0.041215	-0.603301	0.506895
Cu18	Cu	0.541215	-0.103301	1.006895
O19	O	0.000780	-0.549187	0.596002
O20	O	0.500780	-0.049187	1.096002
N21	N	0.104487	-0.540042	0.569998
N22	N	0.604487	-0.040042	1.069998
N23	N	0.015094	-0.629425	0.480837
N24	N	0.515094	-0.129425	0.980837
C25	C	0.165467	-0.323909	0.630915
C26	C	0.665467	0.176091	1.130915
C27	C	0.165587	-0.479117	0.786068
C28	C	0.665587	0.020883	1.286068
C29	C	0.165481	-0.479095	0.630906
C30	C	0.665481	0.020905	1.130906
C31	C	0.320696	-0.479083	0.630835
C32	C	0.820696	0.020917	1.130835
C33	C	0.182557	-0.375118	0.647971
C34	C	0.682557	0.124882	1.147971
C35	C	0.182626	-0.462038	0.734858
C36	C	0.682626	0.037962	1.234858
C37	C	0.269485	-0.462018	0.647928
C38	C	0.769485	0.037982	1.147928
C39	C	0.182566	-0.462025	0.647966
C40	C	0.682566	0.037975	1.147966
C41	C	0.143714	-0.258726	0.609206
C42	C	0.643714	0.241274	1.109206
C43	C	0.143738	-0.500820	0.609192
C44	C	0.643738	-0.000820	1.109192
C45	C	0.204309	-0.440300	0.669680
C46	C	0.704309	0.059700	1.169680
C47	C	0.415481	-0.462740	0.580919
C48	C	0.915481	0.037260	1.080919
C49	C	0.474732	-0.482485	0.561145
C50	C	0.974732	0.017515	1.061145
C51	C	0.474757	-0.578356	0.597704
C52	C	0.974757	-0.078356	1.097704
C53	C	0.415508	-0.558609	0.617479
C54	C	0.915508	-0.058609	1.117479
C55	C	0.157989	-0.229089	0.550957
C56	C	0.657989	0.270911	1.050957
C57	C	0.138212	-0.169834	0.531225
C58	C	0.638212	0.330166	1.031225
C59	C	0.089890	-0.169857	0.627992
C60	C	0.589890	0.330143	1.127992
C61	C	0.109667	-0.229112	0.647725
C62	C	0.609667	0.270888	1.147725
C63	C	0.085482	-0.486515	0.623535
C64	C	0.585482	0.013485	1.123535
C65	C	0.065722	-0.506265	0.603789
C66	C	0.565722	-0.006265	1.103789
C67	C	0.162467	-0.554625	0.555370
C68	C	0.662467	-0.054625	1.055370
C69	C	0.182230	-0.534875	0.575110
C70	C	0.682230	-0.034875	1.075110
C71	C	0.085661	-0.486557	0.880902
C72	C	0.585661	0.013443	1.380902
C73	C	0.065952	-0.506323	0.940155
C74	C	0.565952	-0.006323	1.440155
C75	C	0.162734	-0.554693	0.940102
C76	C	0.662734	-0.054693	1.440102
C77	C	0.182441	-0.534928	0.880847
C78	C	0.682441	-0.034928	1.380847
C79	C	0.143904	-0.500859	0.851249
C80	C	0.643904	-0.000859	1.351249
C81	C	0.385871	-0.500801	0.609083
C82	C	0.885871	-0.000801	1.109083
C83	C	-0.110907	-0.668480	0.441278
C84	C	0.389093	-0.168480	0.941278
C85	C	-0.024049	-0.668588	0.441475
C86	C	0.475951	-0.168588	0.941475
C87	C	-0.045729	-0.690282	0.419668
C88	C	0.454271	-0.190282	0.919668
C89	C	-0.062146	-0.785032	0.469507
C90	C	0.437854	-0.285032	0.969507
C91	C	-0.042446	-0.844287	0.489286
C92	C	0.457554	-0.344287	0.989286
C93	C	0.053426	-0.844399	0.452899
C94	C	0.553426	-0.344399	0.952899
C95	C	0.033725	-0.785144	0.433120
C96	C	0.533725	-0.285144	0.933120
C97	C	-0.140617	-0.682751	0.499509
C98	C	0.359383	-0.182751	0.999509
C99	C	-0.199867	-0.662928	0.519152
C100	C	0.300133	-0.162928	1.019152
C101	C	-0.199694	-0.614571	0.422330
C102	C	0.300306	-0.114571	0.922330
C103	C	-0.140443	-0.634393	0.402687
C104	C	0.359557	-0.134393	0.902687
C105	C	-0.038320	-0.610337	0.427144
C106	C	0.461680	-0.110337	0.927144
C107	C	-0.018610	-0.590621	0.446974
C108	C	0.481390	-0.090621	0.946974
C109	C	0.029642	-0.687402	0.495454
C110	C	0.529642	-0.187402	0.995454
C111	C	0.009933	-0.707121	0.475630
C112	C	0.509933	-0.207121	0.975630
C113	C	-0.038148	-0.610347	0.324832
C114	C	0.461852	-0.110347	0.824832
C115	C	-0.018301	-0.590634	0.265579
C116	C	0.481699	-0.090634	0.765579
C117	C	0.030035	-0.687421	0.265643
C118	C	0.530035	-0.187421	0.765643
C119	C	0.010190	-0.707133	0.324897
C120	C	0.510190	-0.207133	0.824897
C121	C	-0.023903	-0.668595	0.354491
C122	C	0.476097	-0.168595	0.854491
C123	C	-0.024062	-0.755463	0.441426
C124	C	0.475938	-0.255463	0.941426
N125	N	0.503527	-0.540005	0.569810
N126	N	1.003527	-0.040005	1.069810
O127	O	0.684453	-0.545211	0.434650
O128	O	1.184453	-0.045211	0.934650
O129	O	0.684643	-0.655237	0.584005
O130	O	1.184643	-0.155237	1.084005
O131	O	0.684567	-0.654986	0.489282
O132	O	1.184567	-0.154986	0.989282
O133	O	0.684529	-0.545462	0.529373
O134	O	1.184529	-0.045462	1.029373
O135	O	0.590438	-0.623674	0.520735
O136	O	1.090438	-0.123674	1.020735
O137	O	0.590513	-0.623924	0.615457
O138	O	1.090513	-0.123924	1.115457
O139	O	0.590323	-0.513899	0.466102
O140	O	1.090323	-0.013899	0.966102
Cu141	Cu	0.581823	-0.566053	0.543652
Cu142	Cu	1.081823	-0.066053	1.043652
Cu143	Cu	0.693143	-0.603083	0.506456
Cu144	Cu	1.193143	-0.103083	1.006456
O145	O	0.590399	-0.514149	0.560825
O146	O	1.090399	-0.014149	1.060825
N147	N	0.771439	-0.629131	0.480292
N148	N	1.271439	-0.129131	0.980292
N149	N	0.104456	-0.141061	0.570015
N150	N	0.604456	0.358939	1.070015
O151	O	-0.030629	0.039964	0.564688
O152	O	0.469371	0.539964	1.064688
O153	O	0.118732	0.039984	0.454661
O154	O	0.618732	0.539984	0.954661
O155	O	0.023980	0.039958	0.454946
O156	O	0.523980	0.539958	0.954946
O157	O	0.064123	0.039990	0.564403
O158	O	0.564123	0.539990	1.064403
O159	O	0.055392	-0.054179	0.486321
O160	O	0.555392	0.445821	0.986321
O161	O	0.150144	-0.054153	0.486036
O162	O	0.650144	0.445847	0.986036
O163	O	0.000784	-0.054173	0.596063
O164	O	0.500784	0.445827	1.096063
Cu165	Cu	0.078332	-0.062759	0.543914
Cu166	Cu	0.578332	0.437241	1.043914
Cu167	Cu	0.041183	0.048570	0.506810
Cu168	Cu	0.541183	0.548570	1.006810
O169	O	0.095535	-0.054147	0.595778
O170	O	0.595535	0.445853	1.095778
N171	N	0.015053	0.126872	0.480710
N172	N	0.515053	0.626872	0.980710
N173	N	0.104760	-0.540096	0.968910
N174	N	0.604760	-0.040096	1.468910
O175	O	0.099447	-0.675167	1.149923
O176	O	0.599447	-0.175167	1.649923
O177	O	-0.010552	-0.525757	1.149951
O178	O	0.489448	-0.025757	1.649951
O179	O	-0.010297	-0.620493	1.149918
O180	O	0.489703	-0.120493	1.649918
O181	O	0.099192	-0.580431	1.149956
O182	O	0.599192	-0.080431	1.649956
O183	O	0.021064	-0.589100	1.055785
O184	O	0.521064	-0.089100	1.555785
O185	O	0.020809	-0.494365	1.055818
O186	O	0.520809	0.005635	1.555818
O187	O	0.130808	-0.643774	1.055790
O188	O	0.630808	-0.143774	1.555790
Cu189	Cu	0.078672	-0.566203	1.047209
Cu190	Cu	0.578672	-0.066203	1.547209
Cu191	Cu	0.041584	-0.603328	1.158532
Cu192	Cu	0.541584	-0.103328	1.658532
O193	O	0.130553	-0.549038	1.055823
O194	O	0.630553	-0.049038	1.555823
N195	N	0.015495	-0.629442	1.236831
N196	N	0.515495	-0.129442	1.736831
C197	C	0.036087	-0.491140	0.455465
C198	C	0.536087	0.008860	0.955465
C199	C	0.153325	-0.608283	0.455364
C200	C	0.653325	-0.108283	0.955364
C201	C	0.083488	-0.678322	0.595370
C202	C	0.583488	-0.178322	1.095370
C203	C	-0.033750	-0.561180	0.595470
C204	C	0.466250	-0.061180	1.095470
C205	C	0.637601	-0.654732	0.618548
C206	C	1.137601	-0.154732	1.118548
C207	C	0.637509	-0.654422	0.501245
C208	C	1.137509	-0.154422	1.001245
C209	C	0.637362	-0.514403	0.431560
C210	C	1.137362	-0.014403	0.931560
C211	C	0.637458	-0.514713	0.548862
C212	C	1.137458	-0.014713	1.048862
C213	C	0.153215	-0.006966	0.455158
C214	C	0.653215	0.493034	0.955158
C215	C	0.035916	-0.007114	0.455550
C216	C	0.535916	0.492886	0.955550
C217	C	-0.033739	-0.007106	0.595527
C218	C	0.466261	0.492894	1.095527
C219	C	0.083600	-0.007076	0.595174
C220	C	0.583600	0.492924	1.095174
C221	C	-0.010020	-0.491238	1.102888
C222	C	0.489980	0.008762	1.602888
C223	C	-0.009698	-0.608550	1.102828
C224	C	0.490302	-0.108550	1.602828
C225	C	0.130276	-0.678293	1.102853
C226	C	0.630276	-0.178293	1.602853
C227	C	0.129961	-0.560974	1.102892
C228	C	0.629961	-0.060974	1.602892
H229	H	0.018524	-0.494668	0.964293
H230	H	0.518524	0.005332	1.464293
H231	H	0.027560	-0.448192	0.421017
H232	H	0.527560	0.051808	0.921017
C233	C	0.072524	-0.007118	0.360566
C234	C	0.572524	0.492882	0.860566
C235	C	0.024318	-0.007123	0.409125
C236	C	0.524318	0.492877	0.909125
H237	H	0.065361	-0.007120	0.331904
H238	H	0.565361	0.492880	0.831904
H239	H	0.103401	-0.039939	0.369367
H240	H	0.603401	0.460061	0.869367
H241	H	0.081495	0.025716	0.347489
H242	H	0.581495	0.525716	0.847489
H243	H	0.015348	-0.039960	0.422204
H244	H	0.515348	0.460040	0.922204
H245	H	-0.006569	0.025702	0.400323
H246	H	0.493431	0.525702	0.900323
C247	C	0.192060	-0.761180	1.151234
C248	C	0.692060	-0.261180	1.651234
C249	C	0.176900	-0.736219	1.102841
C250	C	0.676900	-0.236219	1.602841
H251	H	0.220846	-0.796939	1.151223
H252	H	0.720846	-0.296939	1.651223
H253	H	0.159902	-0.766137	1.184051
H254	H	0.659902	-0.266137	1.684051
H255	H	0.205722	-0.737395	1.151240
H256	H	0.705722	-0.237395	1.651240
H257	H	0.163234	-0.760002	1.102836
H258	H	0.663234	-0.260002	1.602836
H259	H	0.209065	-0.731265	1.070015
H260	H	0.709065	-0.231265	1.570015
H261	H	0.164358	-0.552401	1.102897
H262	H	0.664358	-0.052401	1.602897
H263	H	0.054276	-0.458811	0.856808
H264	H	0.554276	0.041189	1.356808
C265	C	0.589110	-0.681619	0.476470
C266	C	1.089110	-0.181619	0.976470
C267	C	0.637526	-0.700873	0.489670
C268	C	1.137526	-0.200873	0.989670
H269	H	0.589120	-0.710298	0.469329
H270	H	1.089120	-0.210298	0.969329
H271	H	0.589069	-0.648676	0.443770
H272	H	1.089069	-0.148676	0.943770
H273	H	0.556307	-0.672835	0.507367
H274	H	1.056307	-0.172835	1.007367
H275	H	0.670329	-0.709653	0.458772
H276	H	1.170329	-0.209653	0.958772
H277	H	0.637572	-0.733827	0.522374
H278	H	1.137572	-0.233827	1.022374
H279	H	0.637450	-0.480310	0.557440
H280	H	1.137450	0.019690	1.057440
H281	H	-0.076633	-0.007113	0.630069
H282	H	0.423367	0.492887	1.130069
H283	H	0.637649	-0.689271	0.661445
H284	H	1.137649	-0.189271	1.161445
H285	H	0.194117	-0.582425	0.964198
H286	H	0.694117	-0.082425	1.464198
H287	H	0.196022	-0.006699	0.420530
H288	H	0.696022	0.493301	0.920530
C289	C	-0.154926	-0.790879	0.507429
C290	C	0.345074	-0.290879	1.007429
C291	C	-0.125662	-0.752408	0.478614
C292	C	0.374338	-0.252408	0.978614
H293	H	-0.194137	-0.770737	0.513041
H294	H	0.305863	-0.270737	1.013041
H295	H	-0.149510	-0.813976	0.543065
H296	H	0.350490	-0.313976	1.043065
H297	H	-0.140982	-0.814010	0.485716
H298	H	0.359018	-0.314010	0.985716
H299	H	-0.139604	-0.729280	0.500328
H300	H	0.360396	-0.229280	1.000328
H301	H	-0.131082	-0.729302	0.442972
H302	H	0.368918	-0.229302	0.942972
C303	C	0.276127	-0.584719	0.886748
C304	C	0.776127	-0.084719	1.386748
C305	C	0.246467	-0.550648	0.848253
C306	C	0.746467	-0.050648	1.348253
H307	H	0.315653	-0.594419	0.866626
H308	H	0.815653	-0.094419	1.366626
H309	H	0.266433	-0.618224	0.909855
H310	H	0.766433	-0.118224	1.409855
H311	H	0.266417	-0.564614	0.909864
H312	H	0.766417	-0.064614	1.409864
H313	H	0.256174	-0.570754	0.825140
H314	H	0.756174	-0.070754	1.325140
H315	H	0.256166	-0.517137	0.825136
H316	H	0.756166	-0.017137	1.325136
C317	C	0.246260	-0.674915	0.429032
C318	C	0.746260	-0.174915	0.929032
C319	C	0.211260	-0.619696	0.408795
C320	C	0.711260	-0.119696	0.908795
H321	H	0.282027	-0.681958	0.400283
H322	H	0.782027	-0.181958	0.900283
H323	H	0.229296	-0.701067	0.439342
H324	H	0.729296	-0.201067	0.939342
H325	H	0.251201	-0.679165	0.461191
H326	H	0.751201	-0.179165	0.961191
H327	H	0.206316	-0.615447	0.376638
H328	H	0.706316	-0.115447	0.876638
H329	H	0.228228	-0.593536	0.398478
H330	H	0.728228	-0.093536	0.898478
C331	C	0.150444	-0.007074	0.621198
C332	C	0.650444	0.492926	1.121198
C333	C	0.095203	-0.007079	0.641603
C334	C	0.595203	0.492921	1.141603
H335	H	0.157608	-0.007082	0.649865
H336	H	0.657608	0.492918	1.149865
H337	H	0.154642	0.025756	0.589019
H338	H	0.654642	0.525756	1.089019
H339	H	0.176547	-0.039899	0.610882
H340	H	0.676547	0.460101	1.110882
H341	H	0.069100	0.025749	0.651916
H342	H	0.569100	0.525749	1.151916
H343	H	0.091001	-0.039912	0.673793
H344	H	0.591001	0.460088	1.173793
C345	C	0.150220	-0.771233	0.621561
C346	C	0.650220	-0.271233	1.121561
C347	C	0.094993	-0.736299	0.641876
C348	C	0.594993	-0.236299	1.141876
H349	H	0.157320	-0.807027	0.650272
H350	H	0.657320	-0.307027	1.150272
H351	H	0.176348	-0.754240	0.611248
H352	H	0.676348	-0.254240	1.111248
H353	H	0.154441	-0.776133	0.589391
H354	H	0.654441	-0.276133	1.089391
H355	H	0.090773	-0.731396	0.674044
H356	H	0.590773	-0.231396	1.174044
H357	H	0.068858	-0.753296	0.652197
H358	H	0.568858	-0.253296	1.152197
C359	C	-0.036494	-0.398267	1.102918
C360	C	0.463506	0.101733	1.602918
C361	C	-0.056643	-0.433312	1.102900
C362	C	0.443357	0.066688	1.602900
H363	H	-0.065280	-0.362508	1.102929
H364	H	0.434720	0.137492	1.602929
H365	H	-0.004340	-0.393312	1.070096
H366	H	0.495660	0.106688	1.570096
H367	H	-0.026206	-0.415212	1.135749
H368	H	0.473794	0.084788	1.635749
H369	H	-0.066927	-0.416369	1.070067
H370	H	0.433073	0.083631	1.570067
H371	H	-0.088808	-0.438266	1.135726
H372	H	0.411192	0.061734	1.635726
H373	H	0.637300	-0.479859	0.388668
H374	H	1.137300	0.020141	0.888668
C375	C	-0.012135	-0.440687	0.669401
C376	C	0.487865	0.059313	1.169401
C377	C	0.043170	-0.449077	0.660991
C378	C	0.543170	0.050923	1.160991
H379	H	-0.038256	-0.417570	0.692523
H380	H	0.461744	0.082430	1.192523
H381	H	-0.017813	-0.476200	0.687491
H382	H	0.482187	0.023800	1.187491
H383	H	-0.017845	-0.422590	0.633891
H384	H	0.482155	0.077410	1.133891
H385	H	0.048882	-0.467177	0.696501
H386	H	0.548882	0.032823	1.196501
H387	H	0.048851	-0.413557	0.642902
H388	H	0.548851	0.086443	1.142902
H389	H	-0.076669	-0.552723	0.629962
H390	H	0.423331	-0.052723	1.129962
C391	C	-0.069101	-0.665613	1.151121
C392	C	0.430899	-0.165613	1.651121
C393	C	-0.056114	-0.620098	1.102758
C394	C	0.443886	-0.120098	1.602758
H395	H	-0.097754	-0.672743	1.151074
H396	H	0.402246	-0.172743	1.651074
H397	H	-0.082198	-0.656636	1.183958
H398	H	0.417802	-0.156636	1.683958
H399	H	-0.036159	-0.698330	1.151122
H400	H	0.463841	-0.198330	1.651122
H401	H	-0.089055	-0.587380	1.102758
H402	H	0.410945	-0.087380	1.602758
H403	H	-0.043019	-0.629072	1.069911
H404	H	0.456981	-0.129072	1.569911
C405	C	0.260088	-0.600446	0.509493
C406	C	0.760088	-0.100446	1.009493
C407	C	0.204783	-0.592062	0.517908
C408	C	0.704783	-0.092062	1.017908
H409	H	0.286209	-0.623554	0.486362
H410	H	0.786209	-0.123554	0.986362
H411	H	0.265804	-0.618544	0.544995
H412	H	0.765804	-0.118544	1.044995
H413	H	0.265761	-0.564925	0.491404
H414	H	0.765761	-0.064925	0.991404
H415	H	0.199109	-0.627583	0.536001
H416	H	0.699109	-0.127583	1.036001
H417	H	0.199065	-0.573965	0.482399
H418	H	0.699065	-0.073965	0.982399
C419	C	0.260545	-0.501191	0.529719
C420	C	0.760545	-0.001191	1.029719
C421	C	0.246266	-0.550593	0.559347
C422	C	0.746266	-0.050593	1.059347
H423	H	0.300078	-0.510895	0.519986
H424	H	0.800078	-0.010895	1.019986
H425	H	0.240449	-0.478090	0.552844
H426	H	0.740449	0.021910	1.052844
H427	H	0.250802	-0.481089	0.496228
H428	H	0.750802	0.018911	0.996228
H429	H	0.256006	-0.570693	0.592840
H430	H	0.756006	-0.070693	1.092840
H431	H	0.266370	-0.573703	0.536221
H432	H	0.766370	-0.073703	1.036221
C433	C	0.421493	-0.655358	0.651622
C434	C	0.921493	-0.155358	1.151622
C435	C	0.382963	-0.600450	0.648437
C436	C	0.882963	-0.100450	1.148437
H437	H	0.401400	-0.681188	0.670731
H438	H	0.901400	-0.181188	1.170731
H439	H	0.444619	-0.665266	0.671798
H440	H	0.944619	-0.165266	1.171798
H441	H	0.444585	-0.656857	0.614494
H442	H	0.944585	-0.156857	1.114494
H443	H	0.359874	-0.598950	0.685564
H444	H	0.859874	-0.098950	1.185564
H445	H	0.359827	-0.590539	0.628261
H446	H	0.859827	-0.090539	1.128261
C447	C	-0.012667	-0.460895	0.570179
C448	C	0.487333	0.039105	1.070179
C449	C	0.001685	-0.490541	0.619552
C450	C	0.501685	0.009459	1.119552
H451	H	-0.052201	-0.451185	0.579913
H452	H	0.447799	0.048815	1.079913
H453	H	0.007425	-0.484001	0.547059
H454	H	0.507425	0.015999	1.047059
H455	H	-0.002966	-0.427389	0.550086
H456	H	0.497034	0.072611	1.050086
H457	H	-0.008012	-0.524051	0.639644
H458	H	0.491988	-0.024051	1.139644
H459	H	-0.018413	-0.467435	0.642682
H460	H	0.481587	0.032565	1.142682
H461	H	0.498884	-0.625426	0.604536
H462	H	0.998884	-0.125426	1.104536
H463	H	0.498841	-0.451490	0.538213
H464	H	0.998841	0.048510	1.038213
H465	H	0.391352	-0.415667	0.574082
H466	H	0.891352	0.084333	1.074082
H467	H	0.185713	-0.253197	0.519589
H468	H	0.685713	0.246803	1.019589
H469	H	0.149834	-0.145702	0.483792
H470	H	0.649834	0.354298	0.983792
H471	H	0.062174	-0.145744	0.659359
H472	H	0.562174	0.354256	1.159359
H473	H	0.098041	-0.253238	0.695156
H474	H	0.598041	0.246762	1.195156
H475	H	-0.029909	-0.543201	0.241439
H476	H	0.470091	-0.043201	0.741439
H477	H	-0.065911	-0.578960	0.348925
H478	H	0.434089	-0.078960	0.848925
H479	H	0.021795	-0.754566	0.349042
H480	H	0.521795	-0.254566	0.849042
C481	C	0.075811	-0.785074	0.271667
C482	C	0.575811	-0.285074	0.771667
C483	C	0.067502	-0.729785	0.233118
C484	C	0.567502	-0.229785	0.733118
H485	H	0.098945	-0.811228	0.251586
H486	H	0.598945	-0.311228	0.751586
H487	H	0.040277	-0.790712	0.294713
H488	H	0.540277	-0.290712	0.794713
H489	H	0.093853	-0.790779	0.294838
H490	H	0.593853	-0.290779	0.794838
H491	H	0.049456	-0.724079	0.209950
H492	H	0.549456	-0.224079	0.709950
H493	H	0.103042	-0.724145	0.210062
H494	H	0.603042	-0.224145	0.710062
H495	H	-0.065985	-0.578958	0.399332
H496	H	0.434015	-0.078958	0.899332
C497	C	-0.068253	-0.496930	0.397030
C498	C	0.431747	0.003070	0.897030
C499	C	-0.034276	-0.526590	0.431207
C500	C	0.465724	-0.026590	0.931207
H501	H	-0.077916	-0.457401	0.387289
H502	H	0.422084	0.042599	0.887289
H503	H	-0.101780	-0.506580	0.417069
H504	H	0.398220	-0.006580	0.917069
H505	H	-0.048101	-0.506689	0.363547
H506	H	0.451899	-0.006689	0.863547
H507	H	-0.054430	-0.516834	0.464692
H508	H	0.445570	-0.016834	0.964692
H509	H	-0.000744	-0.516935	0.411167
H510	H	0.499256	-0.016935	0.911167
H511	H	0.057315	-0.718782	0.523258
H512	H	0.557315	-0.218782	1.023258
H513	H	0.021552	-0.754553	0.487300
H514	H	0.521552	-0.254553	0.987300
H515	H	0.064741	-0.761071	0.410254
H516	H	0.564741	-0.261071	0.910254
C517	C	0.147465	-0.862756	0.385711
C518	C	0.647465	-0.362756	0.885711
C519	C	0.116947	-0.877032	0.443773
C520	C	0.616947	-0.377032	0.943773
H521	H	0.186679	-0.882906	0.380077
H522	H	0.686679	-0.382906	0.880077
H523	H	0.141186	-0.823239	0.369918
H524	H	0.641186	-0.323239	0.869918
H525	H	0.135233	-0.872450	0.367764
H526	H	0.635233	-0.372450	0.867764
H527	H	0.129176	-0.867334	0.461720
H528	H	0.629176	-0.367334	0.961720
H529	H	0.123230	-0.916558	0.459573
H530	H	0.623230	-0.416558	0.959573
C531	C	-0.069735	-0.910841	0.490419
C532	C	0.430265	-0.410841	0.990419
C533	C	-0.084341	-0.876758	0.520171
C534	C	0.415659	-0.376758	1.020171
H535	H	-0.095613	-0.930875	0.509490
H536	H	0.404387	-0.430875	1.009490
H537	H	-0.032517	-0.937023	0.488317
H538	H	0.467483	-0.437023	0.988317
H539	H	-0.071180	-0.887737	0.453273
H540	H	0.428820	-0.387737	0.953273
H541	H	-0.082892	-0.899862	0.557315
H542	H	0.417108	-0.399862	1.057315
H543	H	-0.121569	-0.850572	0.522278
H544	H	0.378431	-0.350572	1.022278
H545	H	-0.116569	-0.710512	0.530934
H546	H	0.383431	-0.210512	1.030934
H547	H	-0.223743	-0.586821	0.390905
H548	H	0.276257	-0.086821	0.890905
C549	C	-0.218272	-0.737542	0.607703
C550	C	0.281728	-0.237542	1.107703
C551	C	-0.232533	-0.678615	0.583164
C552	C	0.267467	-0.178615	1.083164
H553	H	-0.238442	-0.747227	0.647220
H554	H	0.261558	-0.247227	1.147220
H555	H	-0.178764	-0.754218	0.601532
H556	H	0.321236	-0.254218	1.101532
H557	H	-0.227950	-0.751143	0.591004
H558	H	0.272050	-0.251143	1.091004
H559	H	-0.222851	-0.665015	0.599860
H560	H	0.277149	-0.165015	1.099860
H561	H	-0.272050	-0.661932	0.589340
H562	H	0.227950	-0.161932	1.089340
C563	C	-0.146219	-0.584610	0.308950
C564	C	0.353781	-0.084610	0.808950
C565	C	-0.107782	-0.618714	0.338674
C566	C	0.392218	-0.118714	0.838674
H567	H	-0.126055	-0.574935	0.269432
H568	H	0.373945	-0.074935	0.769432
H569	H	-0.169323	-0.551092	0.318635
H570	H	0.330677	-0.051092	0.818635
H571	H	-0.169342	-0.604680	0.318617
H572	H	0.330658	-0.104680	0.818617
H573	H	-0.084662	-0.598643	0.329009
H574	H	0.415338	-0.098643	0.829009
H575	H	-0.084668	-0.652238	0.328984
H576	H	0.415332	-0.152238	0.828984
