data_functionalizedCrystal
_audit_creation_method	'MofGen! by Chris Wilmer'
_symmetry_space_group_name_H-M	'P1'
_symmetry_Int_Tables_number	1
_symmetry_cell_setting	triclinic
loop_
_symmetry_equiv_pos_as_xyz
  x,y,z
_cell_length_a	25.639242
_cell_length_b	29.839131
_cell_length_c	25.639233
_cell_angle_alpha	89.980415
_cell_angle_beta	89.977834
_cell_angle_gamma	90.036947
loop_
_atom_site_label
_atom_site_type_symbol
_atom_site_fract_x
_atom_site_fract_y
_atom_site_fract_z
Zn1	Zn	0.799215	-0.178962	-0.295739
Zn2	Zn	1.049215	0.071038	-0.045739
Zn3	Zn	1.299215	0.321038	0.204261
Zn4	Zn	1.549215	0.571038	0.454261
Zn5	Zn	0.799134	-0.254076	-0.208302
Zn6	Zn	1.049134	-0.004076	0.041698
Zn7	Zn	1.299134	0.245924	0.291698
Zn8	Zn	1.549134	0.495924	0.541698
Zn9	Zn	0.711791	-0.178955	-0.208303
Zn10	Zn	0.961791	0.071045	0.041697
Zn11	Zn	1.211791	0.321045	0.291697
Zn12	Zn	1.461791	0.571045	0.541697
Zn13	Zn	0.711732	-0.254059	-0.295692
Zn14	Zn	0.961732	-0.004059	-0.045692
Zn15	Zn	1.211732	0.245941	0.204308
Zn16	Zn	1.461732	0.495941	0.454308
O17	O	0.755468	-0.216513	-0.252009
O18	O	1.005468	0.033487	-0.002009
O19	O	1.255468	0.283487	0.247991
O20	O	1.505468	0.533487	0.497991
O21	O	0.872370	-0.188935	-0.284160
O22	O	1.122370	0.061065	-0.034160
O23	O	1.372370	0.311065	0.215840
O24	O	1.622370	0.561065	0.465840
O25	O	0.787539	-0.244115	-0.135137
O26	O	1.037539	0.005885	0.114863
O27	O	1.287539	0.255885	0.364863
O28	O	1.537539	0.505885	0.614863
O29	O	0.723447	-0.116089	-0.219922
O30	O	0.973447	0.133911	0.030078
O31	O	1.223447	0.383911	0.280078
O32	O	1.473447	0.633911	0.530078
O33	O	0.872310	-0.244122	-0.219920
O34	O	1.122310	0.005878	0.030080
O35	O	1.372310	0.255878	0.280080
O36	O	1.622310	0.505878	0.530080
O37	O	0.787677	-0.116094	-0.284161
O38	O	1.037677	0.133906	-0.034161
O39	O	1.287677	0.383906	0.215839
O40	O	1.537677	0.633906	0.465839
O41	O	0.723369	-0.188924	-0.135138
O42	O	0.973369	0.061076	0.114862
O43	O	1.223369	0.311076	0.364862
O44	O	1.473369	0.561076	0.614862
O45	O	0.638618	-0.188908	-0.219876
O46	O	0.888618	0.061092	0.030124
O47	O	1.138618	0.311092	0.280124
O48	O	1.388618	0.561092	0.530124
O49	O	0.723346	-0.244093	-0.368864
O50	O	0.973346	0.005907	-0.118864
O51	O	1.223346	0.255907	0.131136
O52	O	1.473346	0.505907	0.381136
O53	O	0.638575	-0.244087	-0.284081
O54	O	0.888575	0.005913	-0.034081
O55	O	1.138575	0.255913	0.215919
O56	O	1.388575	0.505913	0.465919
O57	O	0.787619	-0.188919	-0.368898
O58	O	1.037619	0.061081	-0.118898
O59	O	1.287619	0.311081	0.131102
O60	O	1.537619	0.561081	0.381102
O61	O	0.787482	-0.316941	-0.219875
O62	O	1.037482	-0.066941	0.030125
O63	O	1.287482	0.183059	0.280125
O64	O	1.537482	0.433059	0.530125
O65	O	0.723268	-0.316929	-0.284080
O66	O	0.973268	-0.066929	-0.034080
O67	O	1.223268	0.183071	0.215920
O68	O	1.473268	0.433071	0.465920
C69	C	0.619626	-0.216495	-0.251974
C70	C	0.869626	0.033505	-0.001974
C71	C	1.119626	0.283505	0.248026
C72	C	1.369626	0.533505	0.498026
C73	C	0.561512	-0.216499	-0.251971
C74	C	0.811512	0.033501	-0.001971
C75	C	1.061512	0.283501	0.248029
C76	C	1.311512	0.533501	0.498029
C77	C	0.201135	-0.245293	-0.285409
C78	C	0.451135	0.004707	-0.035409
C79	C	0.701135	0.254707	0.214591
C80	C	0.951135	0.504707	0.464591
C81	C	0.146531	-0.245295	-0.285417
C82	C	0.396531	0.004705	-0.035417
C83	C	0.646531	0.254705	0.214583
C84	C	0.896531	0.504705	0.464583
O85	O	0.118282	-0.269755	-0.313817
O86	O	0.368282	-0.019755	-0.063817
O87	O	0.618282	0.230245	0.186183
O88	O	0.868282	0.480245	0.436183
N89	N	0.119229	-0.216525	-0.252043
N90	N	0.369229	0.033475	-0.002043
N91	N	0.619229	0.283475	0.247957
N92	N	0.869229	0.533475	0.497957
C93	C	0.146535	-0.187748	-0.218663
C94	C	0.396535	0.062252	0.031337
C95	C	0.646535	0.312252	0.281337
C96	C	0.896535	0.562252	0.531337
O97	O	0.118299	-0.163276	-0.190277
O98	O	0.368299	0.086724	0.059723
O99	O	0.618299	0.336724	0.309723
O100	O	0.868299	0.586724	0.559723
C101	C	0.201138	-0.187743	-0.218658
C102	C	0.451138	0.062257	0.031342
C103	C	0.701138	0.312257	0.281342
C104	C	0.951138	0.562257	0.531342
C105	C	0.228437	-0.216518	-0.252030
C106	C	0.478437	0.033482	-0.002030
C107	C	0.728437	0.283482	0.247970
C108	C	0.978437	0.533482	0.497970
C109	C	0.228434	-0.274065	-0.318778
C110	C	0.478434	-0.024065	-0.068778
C111	C	0.728434	0.225935	0.181222
C112	C	0.978434	0.475935	0.431222
C113	C	0.283034	-0.274063	-0.318769
C114	C	0.533034	-0.024063	-0.068769
C115	C	0.783034	0.225937	0.181231
C116	C	1.033034	0.475937	0.431231
C117	C	0.310336	-0.245288	-0.285390
C118	C	0.560336	0.004712	-0.035390
C119	C	0.810336	0.254712	0.214610
C120	C	1.060336	0.504712	0.464610
C121	C	0.283037	-0.216516	-0.252021
C122	C	0.533037	0.033484	-0.002021
C123	C	0.783037	0.283484	0.247979
C124	C	1.033037	0.533484	0.497979
C125	C	0.228443	-0.158963	-0.185281
C126	C	0.478443	0.091037	0.064719
C127	C	0.728443	0.341037	0.314719
C128	C	0.978443	0.591037	0.564719
C129	C	0.283050	-0.158961	-0.185279
C130	C	0.533050	0.091039	0.064721
C131	C	0.783050	0.341039	0.314721
C132	C	1.033050	0.591039	0.564721
C133	C	0.310349	-0.187736	-0.218651
C134	C	0.560349	0.062264	0.031349
C135	C	0.810349	0.312264	0.281349
C136	C	1.060349	0.562264	0.531349
C137	C	0.364940	-0.187739	-0.218633
C138	C	0.614940	0.062261	0.031367
C139	C	0.864940	0.312261	0.281367
C140	C	1.114940	0.562261	0.531367
N141	N	0.392241	-0.216509	-0.252006
N142	N	0.642241	0.033491	-0.002006
N143	N	0.892241	0.283491	0.247994
N144	N	1.142241	0.533491	0.497994
C145	C	0.364939	-0.245283	-0.285385
C146	C	0.614939	0.004717	-0.035385
C147	C	0.864939	0.254717	0.214615
C148	C	1.114939	0.504717	0.464615
C149	C	0.031864	-0.187759	-0.218677
C150	C	0.281864	0.062241	0.031323
C151	C	0.531864	0.312241	0.281323
C152	C	0.781864	0.562241	0.531323
C153	C	-0.022738	-0.187766	-0.218679
C154	C	0.227262	0.062234	0.031321
C155	C	0.477262	0.312234	0.281321
C156	C	0.727262	0.562234	0.531321
C157	C	-0.022739	-0.245313	-0.285434
C158	C	0.227261	0.004687	-0.035434
C159	C	0.477261	0.254687	0.214566
C160	C	0.727261	0.504687	0.464566
C161	C	0.031865	-0.245308	-0.285429
C162	C	0.281865	0.004692	-0.035429
C163	C	0.531865	0.254692	0.214571
C164	C	0.781865	0.504692	0.464571
C165	C	0.059166	-0.216529	-0.252051
C166	C	0.309166	0.033471	-0.002051
C167	C	0.559166	0.283471	0.247949
C168	C	0.809166	0.533471	0.497949
C169	C	0.479604	-0.245277	-0.285363
C170	C	0.729604	0.004723	-0.035363
C171	C	0.979604	0.254723	0.214637
C172	C	1.229604	0.504723	0.464637
C173	C	0.534210	-0.245273	-0.285350
C174	C	0.784210	0.004727	-0.035350
C175	C	1.034210	0.254727	0.214650
C176	C	1.284210	0.504727	0.464650
C177	C	0.534206	-0.187724	-0.218597
C178	C	0.784206	0.062276	0.031403
C179	C	1.034206	0.312276	0.281403
C180	C	1.284206	0.562276	0.531403
C181	C	0.479605	-0.187729	-0.218609
C182	C	0.729605	0.062271	0.031391
C183	C	0.979605	0.312271	0.281391
C184	C	1.229605	0.562271	0.531391
C185	C	0.452306	-0.216507	-0.251996
C186	C	0.702306	0.033493	-0.001996
C187	C	0.952306	0.283493	0.248004
C188	C	1.202306	0.533493	0.498004
O189	O	0.393223	-0.163290	-0.190249
O190	O	0.643223	0.086710	0.059751
O191	O	0.893223	0.336710	0.309751
O192	O	1.143223	0.586710	0.559751
O193	O	0.393182	-0.269746	-0.313771
O194	O	0.643182	-0.019746	-0.063771
O195	O	0.893182	0.230254	0.186229
O196	O	1.143182	0.480254	0.436229
C197	C	0.755374	-0.333236	-0.251983
C198	C	1.005374	-0.083236	-0.001983
C199	C	1.255374	0.166764	0.248017
C200	C	1.505374	0.416764	0.498017
C201	C	0.755381	-0.383170	-0.251990
C202	C	1.005381	-0.133170	-0.001990
C203	C	1.255381	0.116830	0.248010
C204	C	1.505381	0.366830	0.498010
C205	C	0.788965	-0.692807	-0.218627
C206	C	1.038965	-0.442807	0.031373
C207	C	1.288965	-0.192807	0.281373
C208	C	1.538965	0.057193	0.531373
C209	C	0.789030	-0.880480	-0.218647
C210	C	1.039030	-0.630480	0.031353
C211	C	1.289030	-0.380480	0.281353
C212	C	1.539030	-0.130480	0.531353
O213	O	0.817509	-0.904740	-0.190260
O214	O	1.067509	-0.654740	0.059740
O215	O	1.317509	-0.404740	0.309740
O216	O	1.567509	-0.154740	0.559740
N217	N	0.755577	-0.903955	-0.252049
N218	N	1.005577	-0.653955	-0.002049
N219	N	1.255577	-0.403955	0.247951
N220	N	1.505577	-0.153955	0.497951
C221	C	0.722108	-0.880509	-0.285450
C222	C	0.972108	-0.630509	-0.035450
C223	C	1.222108	-0.380509	0.214550
C224	C	1.472108	-0.130509	0.464550
O225	O	0.693659	-0.904782	-0.313865
O226	O	0.943659	-0.654782	-0.063865
O227	O	1.193659	-0.404782	0.186135
O228	O	1.443659	-0.154782	0.436135
C229	C	0.722046	-0.692837	-0.285432
C230	C	0.972046	-0.442837	-0.035432
C231	C	1.222046	-0.192837	0.214568
C232	C	1.472046	0.057163	0.464568
C233	C	0.755498	-0.669364	-0.252024
C234	C	1.005498	-0.419364	-0.002024
C235	C	1.255498	-0.169364	0.247976
C236	C	1.505498	0.080636	0.497976
C237	C	0.822415	-0.669335	-0.185222
C238	C	1.072415	-0.419335	0.064778
C239	C	1.322415	-0.169335	0.314778
C240	C	1.572415	0.080665	0.564778
C241	C	0.822396	-0.622419	-0.185215
C242	C	1.072396	-0.372419	0.064785
C243	C	1.322396	-0.122419	0.314785
C244	C	1.572396	0.127581	0.564785
C245	C	0.788928	-0.598976	-0.218613
C246	C	1.038928	-0.348976	0.031387
C247	C	1.288928	-0.098976	0.281387
C248	C	1.538928	0.151024	0.531387
C249	C	0.755479	-0.622449	-0.252018
C250	C	1.005479	-0.372449	-0.002018
C251	C	1.255479	-0.122449	0.247982
C252	C	1.505479	0.127551	0.497982
C253	C	0.688580	-0.669391	-0.318836
C254	C	0.938580	-0.419391	-0.068836
C255	C	1.188580	-0.169391	0.181164
C256	C	1.438580	0.080609	0.431164
C257	C	0.688568	-0.622470	-0.318829
C258	C	0.938568	-0.372470	-0.068829
C259	C	1.188568	-0.122470	0.181171
C260	C	1.438568	0.127530	0.431171
C261	C	0.722020	-0.598998	-0.285422
C262	C	0.972020	-0.348998	-0.035422
C263	C	1.222020	-0.098998	0.214578
C264	C	1.472020	0.151002	0.464578
C265	C	0.721993	-0.552090	-0.285409
C266	C	0.971993	-0.302090	-0.035409
C267	C	1.221993	-0.052090	0.214591
C268	C	1.471993	0.197910	0.464591
N269	N	0.755446	-0.528615	-0.252007
N270	N	1.005446	-0.278615	-0.002007
N271	N	1.255446	-0.028615	0.247993
N272	N	1.505446	0.221385	0.497993
C273	C	0.788914	-0.552058	-0.218609
C274	C	1.038914	-0.302058	0.031391
C275	C	1.288914	-0.052058	0.281391
C276	C	1.538914	0.197942	0.531391
C277	C	0.722141	-0.979039	-0.285457
C278	C	0.972141	-0.729039	-0.035457
C279	C	1.222141	-0.479039	0.214543
C280	C	1.472141	-0.229039	0.464543
C281	C	0.722156	-1.025957	-0.285461
C282	C	0.972156	-0.775957	-0.035461
C283	C	1.222156	-0.525957	0.214539
C284	C	1.472156	-0.275957	0.464539
C285	C	0.789079	-1.025925	-0.218658
C286	C	1.039079	-0.775925	0.031342
C287	C	1.289079	-0.525925	0.281342
C288	C	1.539079	-0.275925	0.531342
C289	C	0.789062	-0.979007	-0.218652
C290	C	1.039062	-0.729007	0.031348
C291	C	1.289062	-0.479007	0.281348
C292	C	1.539062	-0.229007	0.531348
C293	C	0.755595	-0.955565	-0.252055
C294	C	1.005595	-0.705565	-0.002055
C295	C	1.255595	-0.455565	0.247945
C296	C	1.505595	-0.205565	0.497945
C297	C	0.788872	-0.453533	-0.218597
C298	C	1.038872	-0.203533	0.031403
C299	C	1.288872	0.046467	0.281403
C300	C	1.538872	0.296467	0.531403
C301	C	0.788849	-0.406613	-0.218592
C302	C	1.038849	-0.156613	0.031408
C303	C	1.288849	0.093387	0.281408
C304	C	1.538849	0.343387	0.531408
C305	C	0.721928	-0.406649	-0.285396
C306	C	0.971928	-0.156649	-0.035396
C307	C	1.221928	0.093351	0.214604
C308	C	1.471928	0.343351	0.464604
C309	C	0.721949	-0.453564	-0.285400
C310	C	0.971949	-0.203564	-0.035400
C311	C	1.221949	0.046436	0.214600
C312	C	1.471949	0.296436	0.464600
C313	C	0.755425	-0.477005	-0.251999
C314	C	1.005425	-0.227005	-0.001999
C315	C	1.255425	0.022995	0.248001
C316	C	1.505425	0.272995	0.498001
O317	O	0.693533	-0.527802	-0.313784
O318	O	0.943533	-0.277802	-0.063784
O319	O	1.193533	-0.027802	0.186216
O320	O	1.443533	0.222198	0.436216
O321	O	0.817366	-0.527777	-0.190207
O322	O	1.067366	-0.277777	0.059793
O323	O	1.317366	-0.027777	0.309793
O324	O	1.567366	0.222223	0.559793
C325	C	0.788984	-0.739723	-0.218633
C326	C	1.038984	-0.489723	0.031367
C327	C	1.288984	-0.239723	0.281367
C328	C	1.538984	0.010277	0.531367
C329	C	0.755535	-0.763195	-0.252038
C330	C	1.005535	-0.513195	-0.002038
C331	C	1.255535	-0.263195	0.247962
C332	C	1.505535	-0.013195	0.497962
C333	C	0.722067	-0.739752	-0.285436
C334	C	0.972067	-0.489752	-0.035436
C335	C	1.222067	-0.239752	0.214564
C336	C	1.472067	0.010248	0.464564
C337	C	0.755549	-0.810113	-0.252042
C338	C	1.005549	-0.560113	-0.002042
C339	C	1.255549	-0.310113	0.247958
C340	C	1.505549	-0.060113	0.497958
C341	C	0.789017	-0.833556	-0.218644
C342	C	1.039017	-0.583556	0.031356
C343	C	1.289017	-0.333556	0.281356
C344	C	1.539017	-0.083556	0.531356
C345	C	0.822470	-0.810081	-0.185242
C346	C	1.072470	-0.560081	0.064758
C347	C	1.322470	-0.310081	0.314758
C348	C	1.572470	-0.060081	0.564758
C349	C	0.822451	-0.763166	-0.185235
C350	C	1.072451	-0.513166	0.064765
C351	C	1.322451	-0.263166	0.314765
C352	C	1.572451	-0.013166	0.564765
C353	C	0.688614	-0.763227	-0.318838
C354	C	0.938614	-0.513227	-0.068838
C355	C	1.188614	-0.263227	0.181162
C356	C	1.438614	-0.013227	0.431162
C357	C	0.688635	-0.810143	-0.318841
C358	C	0.938635	-0.560143	-0.068841
C359	C	1.188635	-0.310143	0.181159
C360	C	1.438635	-0.060143	0.431159
C361	C	0.722102	-0.833585	-0.285443
C362	C	0.972102	-0.583585	-0.035443
C363	C	1.222102	-0.333585	0.214557
C364	C	1.472102	-0.083585	0.464557
C365	C	0.891841	-0.216531	-0.252045
C366	C	1.141841	0.033469	-0.002045
C367	C	1.391841	0.283469	0.247955
C368	C	1.641841	0.533469	0.497955
C369	C	0.949955	-0.216539	-0.252060
C370	C	1.199955	0.033461	-0.002060
C371	C	1.449955	0.283461	0.247940
C372	C	1.699955	0.533461	0.497940
C373	C	0.755485	-0.216505	-0.388382
C374	C	1.005485	0.033495	-0.138382
C375	C	1.255485	0.283495	0.111618
C376	C	1.505485	0.533495	0.361618
C377	C	0.755492	-0.216502	-0.446496
C378	C	1.005492	0.033498	-0.196496
C379	C	1.255492	0.283498	0.053504
C380	C	1.505492	0.533498	0.303504
C381	C	0.755577	-0.099335	-0.252047
C382	C	1.005577	0.150665	-0.002047
C383	C	1.255577	0.400665	0.247953
C384	C	1.505577	0.650665	0.497953
C385	C	0.755624	-0.049400	-0.252063
C386	C	1.005624	0.200600	-0.002063
C387	C	1.255624	0.450600	0.247937
C388	C	1.505624	0.700600	0.497937
C389	C	0.789002	-0.187687	-0.806883
C390	C	1.039002	0.062313	-0.556883
C391	C	1.289002	0.312313	-0.306883
C392	C	1.539002	0.562313	-0.056883
C393	C	0.789008	-0.187675	-0.861488
C394	C	1.039008	0.062325	-0.611488
C395	C	1.289008	0.312325	-0.361488
C396	C	1.539008	0.562325	-0.111488
O397	O	0.817457	-0.163229	-0.889744
O398	O	1.067457	0.086771	-0.639744
O399	O	1.317457	0.336771	-0.389744
O400	O	1.567457	0.586771	-0.139744
N401	N	0.755550	-0.216396	-0.888779
N402	N	1.005550	0.033604	-0.638779
N403	N	1.255550	0.283604	-0.388779
N404	N	1.505550	0.533604	-0.138779
C405	C	0.722079	-0.245129	-0.861463
C406	C	0.972079	0.004871	-0.611463
C407	C	1.222079	0.254871	-0.361463
C408	C	1.472079	0.504871	-0.111463
O409	O	0.693621	-0.269558	-0.889691
O410	O	0.943621	-0.019558	-0.639691
O411	O	1.193621	0.230442	-0.389691
O412	O	1.443621	0.480442	-0.139691
C413	C	0.722071	-0.245139	-0.806860
C414	C	0.972071	0.004861	-0.556860
C415	C	1.222071	0.254861	-0.306860
C416	C	1.472071	0.504861	-0.056860
C417	C	0.755535	-0.216419	-0.779571
C418	C	1.005535	0.033581	-0.529571
C419	C	1.255535	0.283581	-0.279571
C420	C	1.505535	0.533581	-0.029571
C421	C	0.822463	-0.158969	-0.779594
C422	C	1.072463	0.091031	-0.529594
C423	C	1.322463	0.341031	-0.279594
C424	C	1.572463	0.591031	-0.029594
C425	C	0.822457	-0.158982	-0.724994
C426	C	1.072457	0.091018	-0.474994
C427	C	1.322457	0.341018	-0.224994
C428	C	1.572457	0.591018	0.025006
C429	C	0.788990	-0.187714	-0.697682
C430	C	1.038990	0.062286	-0.447682
C431	C	1.288990	0.312286	-0.197682
C432	C	1.538990	0.562286	0.052318
C433	C	0.755529	-0.216432	-0.724971
C434	C	1.005529	0.033568	-0.474971
C435	C	1.255529	0.283568	-0.224971
C436	C	1.505529	0.533568	0.025029
C437	C	0.688598	-0.273869	-0.779545
C438	C	0.938598	-0.023869	-0.529545
C439	C	1.188598	0.226131	-0.279545
C440	C	1.438598	0.476131	-0.029545
C441	C	0.688592	-0.273876	-0.724938
C442	C	0.938592	-0.023876	-0.474938
C443	C	1.188592	0.226124	-0.224938
C444	C	1.438592	0.476124	0.025062
C445	C	0.722056	-0.245156	-0.697650
C446	C	0.972056	0.004844	-0.447650
C447	C	1.222056	0.254844	-0.197650
C448	C	1.472056	0.504844	0.052350
C449	C	0.722056	-0.245176	-0.643058
C450	C	0.972056	0.004824	-0.393058
C451	C	1.222056	0.254824	-0.143058
C452	C	1.472056	0.504824	0.106942
N453	N	0.755514	-0.216455	-0.615767
N454	N	1.005514	0.033545	-0.365767
N455	N	1.255514	0.283545	-0.115767
N456	N	1.505514	0.533545	0.134233
C457	C	0.788981	-0.187723	-0.643079
C458	C	1.038981	0.062277	-0.393079
C459	C	1.288981	0.312277	-0.143079
C460	C	1.538981	0.562277	0.106921
C461	C	0.722100	-0.245106	-0.976134
C462	C	0.972100	0.004894	-0.726134
C463	C	1.222100	0.254894	-0.476134
C464	C	1.472100	0.504894	-0.226134
C465	C	0.722110	-0.245099	-1.030736
C466	C	0.972110	0.004901	-0.780736
C467	C	1.222110	0.254901	-0.530736
C468	C	1.472110	0.504901	-0.280736
C469	C	0.789039	-0.187644	-1.030757
C470	C	1.039039	0.062356	-0.780757
C471	C	1.289039	0.312356	-0.530757
C472	C	1.539039	0.562356	-0.280757
C473	C	0.789030	-0.187653	-0.976153
C474	C	1.039030	0.062347	-0.726153
C475	C	1.289030	0.312347	-0.476153
C476	C	1.539030	0.562347	-0.226153
C477	C	0.755558	-0.216384	-0.948843
C478	C	1.005558	0.033616	-0.698843
C479	C	1.255558	0.283616	-0.448843
C480	C	1.505558	0.533616	-0.198843
C481	C	0.788967	-0.187753	-0.528414
C482	C	1.038967	0.062247	-0.278414
C483	C	1.288967	0.312247	-0.028414
C484	C	1.538967	0.562247	0.221586
C485	C	0.788959	-0.187770	-0.473808
C486	C	1.038959	0.062230	-0.223808
C487	C	1.288959	0.312230	0.026192
C488	C	1.538959	0.562230	0.276192
C489	C	0.722029	-0.245223	-0.473793
C490	C	0.972029	0.004777	-0.223793
C491	C	1.222029	0.254777	0.026207
C492	C	1.472029	0.504777	0.276207
C493	C	0.722038	-0.245208	-0.528393
C494	C	0.972038	0.004792	-0.278393
C495	C	1.222038	0.254792	-0.028393
C496	C	1.472038	0.504792	0.221607
C497	C	0.755509	-0.216470	-0.555702
C498	C	1.005509	0.033530	-0.305702
C499	C	1.255509	0.283530	-0.055702
C500	C	1.505509	0.533530	0.194298
O501	O	0.693620	-0.269609	-0.614767
O502	O	0.943620	-0.019609	-0.364767
O503	O	1.193620	0.230391	-0.114767
O504	O	1.443620	0.480391	0.135233
O505	O	0.817430	-0.163295	-0.614845
O506	O	1.067430	0.086705	-0.364845
O507	O	1.317430	0.336705	-0.114845
O508	O	1.567430	0.586705	0.135155
C509	C	0.755482	-0.216488	-0.116167
C510	C	1.005482	0.033512	0.133833
C511	C	1.255482	0.283512	0.383833
C512	C	1.505482	0.533512	0.633833
C513	C	0.755576	-0.216365	-0.058053
C514	C	1.005576	0.033635	0.191947
C515	C	1.255576	0.283635	0.441947
C516	C	1.505576	0.533635	0.691947
H517	H	0.305276	-0.135522	-0.158101
H518	H	0.555276	0.114478	0.091899
H519	H	0.805276	0.364478	0.341899
H520	H	1.055276	0.614478	0.591899
H521	H	0.206210	-0.297497	-0.345962
H522	H	0.456210	-0.047497	-0.095962
H523	H	0.706210	0.202503	0.154038
H524	H	0.956210	0.452503	0.404038
H525	H	0.661390	-0.829250	-0.346045
H526	H	0.911390	-0.579250	-0.096045
H527	H	1.161390	-0.329250	0.153955
H528	H	1.411390	-0.079250	0.403955
H529	H	0.206226	-0.135532	-0.158104
H530	H	0.456226	0.114468	0.091896
H531	H	0.706226	0.364468	0.341896
H532	H	0.956226	0.614468	0.591896
H533	H	0.556434	-0.268707	-0.312526
H534	H	0.806434	-0.018707	-0.062526
H535	H	1.056434	0.231293	0.187474
H536	H	1.306434	0.481293	0.437474
H537	H	0.694677	-0.387554	-0.312587
H538	H	0.944677	-0.137554	-0.062587
H539	H	1.194677	0.112446	0.187413
H540	H	1.444677	0.362446	0.437413
H541	H	-0.044978	-0.268742	-0.312615
H542	H	0.205022	-0.018742	-0.062615
H543	H	0.455022	0.231258	0.187385
H544	H	0.705022	0.481258	0.437385
H545	H	0.694866	-0.268490	-1.052950
H546	H	0.944866	-0.018490	-0.802950
H547	H	1.194866	0.231510	-0.552950
H548	H	1.444866	0.481510	-0.302950
H549	H	0.661361	-0.744143	-0.346035
H550	H	0.911361	-0.494143	-0.096035
H551	H	1.161361	-0.244143	0.153965
H552	H	1.411361	0.005857	0.403965
H553	H	0.305256	-0.297494	-0.345945
H554	H	0.555256	-0.047494	-0.095945
H555	H	0.805256	0.202506	0.154055
H556	H	1.055256	0.452506	0.404055
H557	H	0.694783	-0.268617	-0.451545
H558	H	0.944783	-0.018617	-0.201545
H559	H	1.194783	0.231383	0.048455
H560	H	1.444783	0.481383	0.298455
H561	H	0.816133	-0.472612	-0.191400
H562	H	1.066133	-0.222612	0.058600
H563	H	1.316133	0.027388	0.308600
H564	H	1.566133	0.277388	0.558600
H565	H	0.694842	-0.268504	-0.953901
H566	H	0.944842	-0.018504	-0.703901
H567	H	1.194842	0.231496	-0.453901
H568	H	1.444842	0.481496	-0.203901
H569	H	0.457384	-0.268709	-0.312552
H570	H	0.707384	-0.018709	-0.062552
H571	H	0.957384	0.231291	0.187448
H572	H	1.207384	0.481291	0.437448
H573	H	0.054089	-0.164324	-0.191493
H574	H	0.304089	0.085676	0.058507
H575	H	0.554089	0.335676	0.308507
H576	H	0.804089	0.585676	0.558507
H577	H	0.849671	-0.688417	-0.158025
H578	H	1.099671	-0.438417	0.091975
H579	H	1.349671	-0.188417	0.341975
H580	H	1.599671	0.061583	0.591975
H581	H	0.849637	-0.603311	-0.158013
H582	H	1.099637	-0.353311	0.091987
H583	H	1.349637	-0.103311	0.341987
H584	H	1.599637	0.146689	0.591987
H585	H	0.661347	-0.297256	-0.801754
H586	H	0.911347	-0.047256	-0.551754
H587	H	1.161347	0.202744	-0.301754
H588	H	1.411347	0.452744	-0.051754
H589	H	0.694887	-0.959956	-0.312658
H590	H	0.944887	-0.709956	-0.062658
H591	H	1.194887	-0.459956	0.187342
H592	H	1.444887	-0.209956	0.437342
H593	H	0.054088	-0.268739	-0.312604
H594	H	0.304088	-0.018739	-0.062604
H595	H	0.554088	0.231261	0.187396
H596	H	0.804088	0.481261	0.437396
H597	H	-0.044960	-0.164338	-0.191499
H598	H	0.205040	0.085662	0.058501
H599	H	0.455040	0.335662	0.308501
H600	H	0.705040	0.585662	0.558501
H601	H	0.661337	-0.688495	-0.346038
H602	H	0.911337	-0.438495	-0.096038
H603	H	1.161337	-0.188495	0.153962
H604	H	1.411337	0.061505	0.403962
H605	H	0.694794	-0.268599	-0.550613
H606	H	0.944794	-0.018599	-0.300613
H607	H	1.194794	0.231401	-0.050613
H608	H	1.444794	0.481401	0.199387
H609	H	0.661328	-0.297268	-0.702705
H610	H	0.911328	-0.047268	-0.452705
H611	H	1.161328	0.202732	-0.202705
H612	H	1.411328	0.452732	0.047295
H613	H	0.849691	-0.744058	-0.158032
H614	H	1.099691	-0.494058	0.091968
H615	H	1.349691	-0.244058	0.341968
H616	H	1.599691	0.005942	0.591968
H617	H	0.457377	-0.164299	-0.191433
H618	H	0.707377	0.085701	0.058567
H619	H	0.957377	0.335701	0.308567
H620	H	1.207377	0.585701	0.558567
H621	H	0.694912	-1.045065	-0.312660
H622	H	0.944912	-0.795065	-0.062660
H623	H	1.194912	-0.545065	0.187340
H624	H	1.444912	-0.295065	0.437340
H625	H	0.816279	-0.164266	-0.953939
H626	H	1.066279	0.085734	-0.703939
H627	H	1.316279	0.335734	-0.453939
H628	H	1.566279	0.585734	-0.203939
H629	H	0.556445	-0.164298	-0.191419
H630	H	0.806445	0.085702	0.058581
H631	H	1.056445	0.335702	0.308581
H632	H	1.306445	0.585702	0.558581
H633	H	0.816212	-0.164382	-0.451592
H634	H	1.066212	0.085618	-0.201592
H635	H	1.316212	0.335618	0.048408
H636	H	1.566212	0.585618	0.298408
H637	H	0.816089	-0.387503	-0.191385
H638	H	1.066089	-0.137503	0.058615
H639	H	1.316089	0.112497	0.308615
H640	H	1.566089	0.362497	0.558615
H641	H	0.849716	-0.135570	-0.801826
H642	H	1.099716	0.114430	-0.551826
H643	H	1.349716	0.364430	-0.301826
H644	H	1.599716	0.614430	-0.051826
H645	H	0.849719	-0.829176	-0.158047
H646	H	1.099719	-0.579176	0.091953
H647	H	1.349719	-0.329176	0.341953
H648	H	1.599719	-0.079176	0.591953
H649	H	0.816301	-0.959898	-0.191448
H650	H	1.066301	-0.709898	0.058552
H651	H	1.316301	-0.459898	0.308552
H652	H	1.566301	-0.209898	0.558552
H653	H	0.816330	-1.045021	-0.191464
H654	H	1.066330	-0.795021	0.058536
H655	H	1.316330	-0.545021	0.308536
H656	H	1.566330	-0.295021	0.558536
H657	H	0.816220	-0.164350	-0.550642
H658	H	1.066220	0.085650	-0.300642
H659	H	1.316220	0.335650	-0.050642
H660	H	1.566220	0.585650	0.199358
H661	H	0.849706	-0.135594	-0.702780
H662	H	1.099706	0.114406	-0.452780
H663	H	1.349706	0.364406	-0.202780
H664	H	1.599706	0.614406	0.047220
H665	H	0.816288	-0.164248	-1.053004
H666	H	1.066288	0.085752	-0.803004
H667	H	1.316288	0.335752	-0.553004
H668	H	1.566288	0.585752	-0.303004
H669	H	0.661316	-0.603386	-0.346032
H670	H	0.911316	-0.353386	-0.096032
H671	H	1.161316	-0.103386	0.153968
H672	H	1.411316	0.146614	0.403968
H673	H	0.694712	-0.472677	-0.312605
H674	H	0.944712	-0.222677	-0.062605
H675	H	1.194712	0.027323	0.187395
H676	H	1.444712	0.277323	0.437395
