data_functionalizedCrystal
_audit_creation_method	'MofGen! by Chris Wilmer'
_symmetry_space_group_name_H-M	'P1'
_symmetry_Int_Tables_number	1
_symmetry_cell_setting	triclinic
loop_
_symmetry_equiv_pos_as_xyz
  x,y,z
_cell_length_a	19.188900
_cell_length_b	9.065215
_cell_length_c	8.140239
_cell_angle_alpha	90.004411
_cell_angle_beta	89.991205
_cell_angle_gamma	95.926406
loop_
_atom_site_label
_atom_site_type_symbol
_atom_site_fract_x
_atom_site_fract_y
_atom_site_fract_z
O1	O	-0.927582	0.183967	0.136929
O2	O	-0.427582	0.683967	0.636929
O3	O	-0.724461	0.208807	0.136862
O4	O	-0.224461	0.708807	0.636862
O5	O	-0.830221	-0.018402	0.136890
O6	O	-0.330221	0.481598	0.636890
O7	O	-0.821822	0.411176	0.136901
O8	O	-0.321822	0.911176	0.636901
O9	O	-0.830220	-0.018414	-0.136337
O10	O	-0.330220	0.481586	0.363663
O11	O	-0.724460	0.208795	-0.136365
O12	O	-0.224460	0.708795	0.363635
O13	O	-0.927581	0.183956	-0.136298
O14	O	-0.427581	0.683956	0.363702
Zn15	Zn	-0.826021	0.196374	-0.179712
Zn16	Zn	-0.326021	0.696374	0.320288
Zn17	Zn	-0.826022	0.196389	0.180277
Zn18	Zn	-0.326022	0.696389	0.680277
O19	O	-0.821821	0.411165	-0.136326
O20	O	-0.321821	0.911165	0.363674
C21	C	-0.698443	0.208004	0.000240
C22	C	-0.198443	0.708004	0.500240
C23	C	-0.620919	0.205612	0.000215
C24	C	-0.120919	0.705612	0.500215
C25	C	-0.829414	-0.073367	0.000278
C26	C	-0.329414	0.426633	0.500278
C27	C	-0.827002	-0.237125	0.000282
C28	C	-0.327002	0.262875	0.500282
C29	C	-0.584518	0.204469	0.149153
C30	C	-0.084518	0.704469	0.649153
C31	C	-0.511677	0.202204	0.149170
C32	C	-0.011677	0.702204	0.649170
C33	C	-0.475240	0.201053	0.000239
C34	C	0.024760	0.701053	0.500239
C35	C	-0.511649	0.202205	-0.148719
C36	C	-0.011649	0.702205	0.351281
C37	C	-0.584488	0.204484	-0.148731
C38	C	-0.084488	0.704484	0.351269
N39	N	-0.365540	0.113518	-0.110602
N40	N	0.134460	0.613518	0.389398
N41	N	-0.296346	0.111350	-0.110580
N42	N	0.203654	0.611350	0.389420
C43	C	-0.255780	0.194189	0.000267
C44	C	0.244220	0.694189	0.500267
N45	N	-0.287023	0.279260	0.111117
N46	N	0.212977	0.779260	0.611117
N47	N	-0.356224	0.281422	0.111100
N48	N	0.143776	0.781422	0.611100
C49	C	-0.396258	0.198583	0.000236
C50	C	0.103742	0.698583	0.500236
C51	C	-0.140396	0.190593	0.149234
C52	C	0.359604	0.690593	0.649234
C53	C	-0.067553	0.188338	0.149245
C54	C	0.432447	0.688338	0.649245
C55	C	-0.067528	0.188323	-0.148648
C56	C	0.432472	0.688323	0.351352
C57	C	-0.140369	0.190593	-0.148654
C58	C	0.359631	0.690593	0.351346
C59	C	-0.176799	0.191721	0.000291
C60	C	0.323201	0.691721	0.500291
C61	C	0.046401	0.184768	0.000315
C62	C	0.546401	0.684768	0.500315
C63	C	-0.031122	0.187189	0.000313
C64	C	0.468878	0.687189	0.500313
C65	C	-0.822628	0.466129	0.000290
C66	C	-0.322628	0.966129	0.500290
C67	C	-0.825041	0.629888	0.000297
C68	C	-0.325041	1.129888	0.500297
N69	N	-0.826023	0.196388	0.425959
N70	N	-0.326023	0.696388	0.925959
N71	N	-0.826025	0.196362	-0.425395
N72	N	-0.326025	0.696362	0.074605
H73	H	-0.614176	0.205387	0.270437
H74	H	-0.114176	0.705387	0.770437
H75	H	-0.481978	0.201271	-0.269979
H76	H	0.018022	0.701271	0.230021
H77	H	-0.037861	0.187395	-0.269910
H78	H	0.462139	0.687395	0.230090
H79	H	-0.170059	0.191527	0.270515
H80	H	0.329941	0.691527	0.770515
Cl81	Cl	-0.465907	0.200766	0.336421
Cl82	Cl	0.034093	0.700766	0.836421
Cl83	Cl	-0.630251	0.205919	-0.335984
Cl84	Cl	-0.130251	0.705919	0.164016
Cl85	Cl	-0.021791	0.186914	0.336500
Cl86	Cl	0.478209	0.686914	0.836500
Cl87	Cl	-0.186132	0.192021	-0.335903
Cl88	Cl	0.313868	0.692021	0.164097
