data_functionalizedCrystal
_audit_creation_method	'MofGen! by Chris Wilmer'
_symmetry_space_group_name_H-M	'P1'
_symmetry_Int_Tables_number	1
_symmetry_cell_setting	triclinic
loop_
_symmetry_equiv_pos_as_xyz
  x,y,z
_cell_length_a	21.295419
_cell_length_b	12.594517
_cell_length_c	12.594509
_cell_angle_alpha	90.021327
_cell_angle_beta	89.980178
_cell_angle_gamma	89.998484
loop_
_atom_site_label
_atom_site_type_symbol
_atom_site_fract_x
_atom_site_fract_y
_atom_site_fract_z
Zn1	Zn	0.250594	1.627373	0.601922
Zn2	Zn	0.750594	2.127373	1.101922
Zn3	Zn	0.355872	1.627308	0.423970
Zn4	Zn	0.855872	2.127308	0.923970
Zn5	Zn	0.250620	1.449377	0.423951
Zn6	Zn	0.750620	1.949377	0.923951
Zn7	Zn	0.355828	1.449404	0.601900
Zn8	Zn	0.855828	1.949404	1.101900
O9	O	0.303229	1.538365	0.512936
O10	O	0.803229	2.038365	1.012936
O11	O	0.264566	1.776310	0.578334
O12	O	0.764566	2.276310	1.078334
O13	O	0.341940	1.603667	0.275022
O14	O	0.841940	2.103667	0.775022
O15	O	0.162527	1.473004	0.447561
O16	O	0.662527	1.973004	0.947561
O17	O	0.341914	1.776263	0.447593
O18	O	0.841914	2.276263	0.947593
O19	O	0.162508	1.603777	0.578316
O20	O	0.662508	2.103777	1.078316
O21	O	0.264612	1.472942	0.275008
O22	O	0.764612	1.972942	0.775008
O23	O	0.264569	1.300435	0.447539
O24	O	0.764569	1.800435	0.947539
O25	O	0.341839	1.473050	0.750849
O26	O	0.841839	1.973050	1.250849
O27	O	0.341865	1.300454	0.578277
O28	O	0.841865	1.800454	1.078277
O29	O	0.264524	1.603803	0.750865
O30	O	0.764524	2.103803	1.250865
O31	O	0.443956	1.603693	0.447571
O32	O	0.943956	2.103693	0.947571
O33	O	0.443924	1.472987	0.578296
O34	O	0.943924	1.972987	1.078296
C35	C	0.303216	1.261824	0.512904
C36	C	0.803216	1.761824	1.012904
C37	C	0.303226	1.143519	0.512916
C38	C	0.803226	1.643519	1.012916
C39	C	0.139038	1.538395	0.512939
C40	C	0.639038	2.038395	1.012939
C41	C	0.069070	1.538408	0.512940
C42	C	0.569070	2.038408	1.012940
C43	C	0.261127	1.074224	0.441943
C44	C	0.761127	1.574224	0.941943
C45	C	0.318547	1.003438	0.415778
C46	C	0.818547	1.503438	0.915778
C47	C	0.245834	1.003507	0.539100
C48	C	0.745834	1.503507	1.039100
C49	C	0.360676	1.074291	0.486700
C50	C	0.860676	1.574291	0.986700
C51	C	0.287924	1.074366	0.610068
C52	C	0.787924	1.574366	1.110068
C53	C	0.345384	1.003611	0.583939
C54	C	0.845384	1.503611	1.083939
C55	C	0.036191	1.470356	0.580996
C56	C	0.536191	1.970356	1.080996
C57	C	-0.029551	1.470366	0.581011
C58	C	0.470449	1.970366	1.081011
C59	C	-0.062412	1.538417	0.512951
C60	C	0.437588	2.038417	1.012951
C61	C	-0.029525	1.606481	0.444890
C62	C	0.470475	2.106481	0.944890
C63	C	0.036216	1.606477	0.444885
C64	C	0.536216	2.106477	0.944885
N65	N	-0.165616	1.546562	0.419791
N66	N	0.334384	2.046562	0.919791
N67	N	-0.228067	1.546560	0.419799
N68	N	0.271933	2.046560	0.919799
C69	C	-0.260487	1.538436	0.512965
C70	C	0.239513	2.038436	1.012965
N71	N	-0.228096	1.530294	0.606124
N72	N	0.271904	2.030294	1.106124
N73	N	-0.165639	1.530290	0.606115
N74	N	0.334361	2.030290	1.106115
C75	C	-0.133698	1.538430	0.512950
C76	C	0.366302	2.038430	1.012950
C77	C	-0.364651	1.470392	0.581043
C78	C	0.135349	1.970392	1.081043
C79	C	-0.430395	1.470410	0.581060
C80	C	0.069605	1.970410	1.081060
C81	C	-0.430368	1.606519	0.444930
C82	C	0.069632	2.106519	0.944930
C83	C	-0.364626	1.606507	0.444923
C84	C	0.135374	2.106507	0.944923
C85	C	-0.331771	1.538438	0.512978
C86	C	0.168229	2.038438	1.012978
C87	C	0.466780	1.538365	0.512956
C88	C	0.966780	2.038365	1.012956
C89	C	0.536748	1.538462	0.513000
C90	C	1.036748	2.038462	1.013000
C91	C	0.303173	1.538437	0.790557
C92	C	0.803173	2.038437	1.290557
C93	C	0.303150	1.538467	0.908862
C94	C	0.803150	2.038467	1.408862
C95	C	0.303242	1.815986	0.512968
C96	C	0.803242	2.315986	1.012968
C97	C	0.303247	1.934292	0.512982
C98	C	0.803247	2.434292	1.012982
C99	C	0.303238	1.538356	0.236395
C100	C	0.803238	2.038356	0.736395
C101	C	0.303084	1.538531	0.118090
C102	C	0.803084	2.038531	0.618090
C103	C	0.345178	1.467373	0.978107
C104	C	0.845178	1.967373	1.478107
C105	C	0.360559	1.564500	1.048901
C106	C	0.860559	2.064500	1.548901
C107	C	0.287731	1.441416	1.048867
C108	C	0.787731	1.941416	1.548867
C109	C	0.318561	1.635645	0.978098
C110	C	0.818561	2.135645	1.478098
C111	C	0.245707	1.512495	0.978059
C112	C	0.745707	2.012495	1.478059
C113	C	0.261066	1.609690	1.048821
C114	C	0.761066	2.109690	1.548821
H115	H	0.331503	0.972284	0.333647
H116	H	0.831503	1.472284	0.833647
H117	H	0.197295	0.972359	0.561183
H118	H	0.697295	1.472359	1.061183
H119	H	0.409235	1.105253	0.464490
H120	H	0.909235	1.605253	0.964490
O121	O	0.270743	1.115683	0.718824
O122	O	0.770743	1.615683	1.218824
H123	H	0.223049	1.087388	0.740354
H124	H	0.723049	1.587388	1.240354
O125	O	0.335810	1.744546	0.937329
O126	O	0.835810	2.244546	1.437329
H127	H	0.301032	1.803379	0.966482
H128	H	0.801032	2.303379	1.466482
O129	O	-0.329154	1.679897	0.371515
O130	O	0.170846	2.179897	0.871515
H131	H	-0.341751	1.661617	0.287975
H132	H	0.158249	2.161617	0.787975
H133	H	-0.457123	1.661931	0.389519
H134	H	0.042877	2.161931	0.889519
O135	O	-0.064963	1.679883	0.371483
O136	O	0.435037	2.179883	0.871483
H137	H	-0.052348	1.763420	0.389764
H138	H	0.447652	2.263420	0.889764
O139	O	0.392325	1.387805	0.936948
O140	O	0.892325	1.887805	1.436948
H141	H	0.439946	1.409655	0.965316
H142	H	0.939946	1.909655	1.465316
O143	O	0.270489	1.332664	1.090041
O144	O	0.770489	1.832664	1.590041
H145	H	0.227077	1.338376	1.138506
H146	H	0.727077	1.838376	1.638506
H147	H	0.381035	0.972801	0.643986
H148	H	0.881035	1.472801	1.143986
O149	O	0.214015	1.115308	0.362352
O150	O	0.714015	1.615308	0.862352
H151	H	0.214110	1.203429	0.363564
H152	H	0.714110	1.703429	0.863564
H153	H	0.062937	1.414926	0.636408
H154	H	0.562937	1.914926	1.136408
H155	H	0.409109	1.586502	1.080018
H156	H	0.909109	2.086502	1.580018
O157	O	-0.465852	1.396997	0.654469
O158	O	0.034148	1.896997	1.154469
H159	H	-0.495807	1.444640	0.708649
H160	H	0.004193	1.944640	1.208649
O161	O	-0.065026	1.396954	0.654403
O162	O	0.434974	1.896954	1.154403
H163	H	-0.031135	1.349614	0.701717
H164	H	0.468865	1.849614	1.201717
H165	H	0.062985	1.661895	0.389465
H166	H	0.562985	2.161895	0.889465
H167	H	0.225496	1.669909	1.079674
H168	H	0.725496	2.169909	1.579674
O169	O	-0.329208	1.396994	0.654453
O170	O	0.170792	1.896994	1.154453
H171	H	-0.363118	1.349687	0.701794
H172	H	0.136882	1.849687	1.201794
H173	H	0.197170	1.490465	0.946918
H174	H	0.697170	1.990465	1.446918
