data_functionalizedCrystal
_audit_creation_method	'MofGen! by Chris Wilmer'
_symmetry_space_group_name_H-M	'P1'
_symmetry_Int_Tables_number	1
_symmetry_cell_setting	triclinic
loop_
_symmetry_equiv_pos_as_xyz
  x,y,z
_cell_length_a	14.519709
_cell_length_b	10.654550
_cell_length_c	9.130313
_cell_angle_alpha	89.999890
_cell_angle_beta	90.005376
_cell_angle_gamma	84.082524
loop_
_atom_site_label
_atom_site_type_symbol
_atom_site_fract_x
_atom_site_fract_y
_atom_site_fract_z
O1	O	1.224716	0.164617	-0.121605
O2	O	1.724716	0.664617	0.378395
O3	O	0.956339	0.184004	-0.121649
O4	O	1.456339	0.684004	0.378351
O5	O	1.096698	-0.008488	-0.121620
O6	O	1.596698	0.491512	0.378380
O7	O	1.084357	0.357109	-0.121633
O8	O	1.584357	0.857109	0.378367
O9	O	1.096696	-0.008483	0.121978
O10	O	1.596696	0.491517	0.621978
O11	O	0.956338	0.184009	0.121950
O12	O	1.456338	0.684009	0.621950
O13	O	1.224714	0.164623	0.121994
O14	O	1.724714	0.664623	0.621994
Cu15	Cu	1.090526	0.174316	0.144215
Cu16	Cu	1.590526	0.674316	0.644215
Cu17	Cu	1.090528	0.174310	-0.143869
Cu18	Cu	1.590528	0.674310	0.356131
O19	O	1.084355	0.357114	0.121966
O20	O	1.584355	0.857114	0.621966
C21	C	0.921974	0.183103	0.000145
C22	C	1.421974	0.683103	0.500145
C23	C	0.819579	0.180396	0.000128
C24	C	1.319579	0.680396	0.500128
C25	C	1.095791	-0.055275	0.000177
C26	C	1.595791	0.444725	0.500177
C27	C	1.093080	-0.194692	0.000172
C28	C	1.593080	0.305308	0.500172
C29	C	1.175721	-0.274972	0.000190
C30	C	1.675721	0.225028	0.500190
C31	C	1.173168	-0.405968	0.000179
C32	C	1.673168	0.094032	0.500179
C33	C	1.005326	-0.376391	0.000138
C34	C	1.505326	0.123609	0.500138
C35	C	1.007880	-0.245397	0.000138
C36	C	1.507880	0.254603	0.500138
C37	C	1.260921	-0.224266	0.000223
C38	C	1.760921	0.275734	0.500223
C39	C	1.343569	-0.304548	0.000242
C40	C	1.843569	0.195452	0.500242
C41	C	1.341016	-0.435544	0.000232
C42	C	1.841016	0.064456	0.500232
C43	C	1.255815	-0.486259	0.000201
C44	C	1.755815	0.013741	0.500201
C45	C	0.444631	0.170428	0.000195
C46	C	0.944631	0.670428	0.500195
C47	C	0.548954	0.173196	0.000176
C48	C	1.048954	0.673196	0.500176
C49	C	0.632102	0.175412	0.000160
C50	C	1.132102	0.675412	0.500160
C51	C	0.736431	0.178180	0.000144
C52	C	1.236431	0.678180	0.500144
C53	C	1.259079	0.165524	0.000197
C54	C	1.759079	0.665524	0.500197
C55	C	1.361475	0.168231	0.000205
C56	C	1.861475	0.668231	0.500205
C57	C	1.085262	0.403901	0.000165
C58	C	1.585262	0.903901	0.500165
C59	C	1.087973	0.543318	0.000161
C60	C	1.587973	1.043318	0.500161
N61	N	1.090531	0.174320	0.346837
N62	N	1.590531	0.674320	0.846837
N63	N	1.090530	0.174297	-0.346492
N64	N	1.590530	0.674297	0.153508
C65	C	1.152698	0.089113	0.423502
C66	C	1.652698	0.589113	0.923502
C67	C	1.152695	0.089098	0.576839
C68	C	1.652695	0.589098	1.076839
C69	C	1.028356	0.259507	0.576833
C70	C	1.528356	0.759507	1.076833
C71	C	1.028355	0.259515	0.423499
C72	C	1.528355	0.759515	0.923499
C73	C	1.214874	0.003918	0.346840
C74	C	1.714874	0.503918	0.846840
C75	C	1.277047	-0.081295	0.423505
C76	C	1.777047	0.418705	0.923505
C77	C	1.277044	-0.081310	0.576842
C78	C	1.777044	0.418690	1.076842
C79	C	1.214869	0.003888	0.653514
C80	C	1.714869	0.503888	1.153514
H81	H	1.263009	-0.117604	0.000236
H82	H	1.763009	0.382396	0.500236
C83	C	1.214880	0.003924	0.178167
C84	C	1.714880	0.503924	0.678167
N85	N	1.214885	0.003930	0.051122
N86	N	1.714885	0.503930	0.551122
C87	C	0.959948	0.353220	0.339163
C88	C	1.459948	0.853220	0.839163
N89	N	0.908412	0.423787	0.275641
N90	N	1.408412	0.923787	0.775641
C91	C	1.431929	-0.523850	0.000254
C92	C	1.931929	-0.023850	0.500254
N93	N	1.500408	-0.590361	0.000282
N94	N	2.000408	-0.090361	0.500282
H95	H	1.327663	-0.150667	0.361071
H96	H	1.827663	0.349333	0.861071
C97	C	1.253012	-0.630360	0.000181
C98	C	1.753012	-0.130360	0.500181
N99	N	1.250902	-0.738896	0.000173
N100	N	1.750902	-0.238896	0.500173
H101	H	1.327661	-0.150701	0.639261
H102	H	1.827661	0.349299	1.139261
H103	H	1.412936	-0.263247	0.000231
H104	H	1.912936	0.236753	0.500231
H105	H	0.940586	-0.180030	0.000126
H106	H	1.440586	0.319970	0.500126
C107	C	0.959969	0.353219	0.661178
C108	C	1.459969	0.853219	1.161178
N109	N	0.908461	0.423807	0.724707
N110	N	1.408461	0.923807	1.224707
C111	C	0.911612	-0.432184	0.000128
C112	C	1.411612	0.067816	0.500128
N113	N	0.841025	-0.474206	0.000131
N114	N	1.341025	0.025794	0.500131
H115	H	1.214866	0.003860	0.778371
H116	H	1.714866	0.503860	1.278371
