data_functionalizedCrystal
_audit_creation_method	'MofGen! by Chris Wilmer'
_symmetry_space_group_name_H-M	'P1'
_symmetry_Int_Tables_number	1
_symmetry_cell_setting	triclinic
loop_
_symmetry_equiv_pos_as_xyz
  x,y,z
_cell_length_a	18.050591
_cell_length_b	18.050590
_cell_length_c	18.050582
_cell_angle_alpha	90.023337
_cell_angle_beta	90.019760
_cell_angle_gamma	90.015000
loop_
_atom_site_label
_atom_site_type_symbol
_atom_site_fract_x
_atom_site_fract_y
_atom_site_fract_z
Zn1	Zn	1.135342	-0.295777	0.420004
Zn2	Zn	1.385342	-0.045777	0.670004
Zn3	Zn	1.635342	0.204223	0.920004
Zn4	Zn	1.885342	0.454223	1.170004
Zn5	Zn	1.135274	-0.419960	0.295813
Zn6	Zn	1.385274	-0.169960	0.545813
Zn7	Zn	1.635274	0.080040	0.795813
Zn8	Zn	1.885274	0.330040	1.045813
Zn9	Zn	1.011162	-0.295781	0.295818
Zn10	Zn	1.261162	-0.045781	0.545818
Zn11	Zn	1.511162	0.204219	0.795818
Zn12	Zn	1.761162	0.454219	1.045818
Zn13	Zn	1.011131	-0.419922	0.419951
Zn14	Zn	1.261131	-0.169922	0.669951
Zn15	Zn	1.511131	0.080078	0.919951
Zn16	Zn	1.761131	0.330078	1.169951
O17	O	1.073227	-0.357860	0.357897
O18	O	1.323227	-0.107860	0.607897
O19	O	1.573227	0.142140	0.857897
O20	O	1.823227	0.392140	1.107897
O21	O	1.239258	-0.312265	0.403550
O22	O	1.489258	-0.062265	0.653550
O23	O	1.739258	0.187735	0.903550
O24	O	1.989258	0.437735	1.153550
O25	O	1.118795	-0.403505	0.191889
O26	O	1.368795	-0.153505	0.441889
O27	O	1.618795	0.096495	0.691889
O28	O	1.868795	0.346495	0.941889
O29	O	1.027676	-0.191856	0.312316
O30	O	1.277676	0.058144	0.562316
O31	O	1.527676	0.308144	0.812316
O32	O	1.777676	0.558144	1.062316
O33	O	1.239208	-0.403501	0.312307
O34	O	1.489208	-0.153501	0.562307
O35	O	1.739208	0.096499	0.812307
O36	O	1.989208	0.346499	1.062307
O37	O	1.118911	-0.191853	0.403556
O38	O	1.368911	0.058147	0.653556
O39	O	1.618911	0.308147	0.903556
O40	O	1.868911	0.558147	1.153556
O41	O	1.027610	-0.312271	0.191893
O42	O	1.277610	-0.062271	0.441893
O43	O	1.527610	0.187729	0.691893
O44	O	1.777610	0.437729	0.941893
O45	O	0.907233	-0.312234	0.312264
O46	O	1.157233	-0.062234	0.562264
O47	O	1.407233	0.187766	0.812264
O48	O	1.657233	0.437766	1.062264
O49	O	1.027623	-0.403436	0.523883
O50	O	1.277623	-0.153436	0.773883
O51	O	1.527623	0.096564	1.023883
O52	O	1.777623	0.346564	1.273883
O53	O	0.907210	-0.403440	0.403464
O54	O	1.157210	-0.153440	0.653464
O55	O	1.407210	0.096560	0.903464
O56	O	1.657210	0.346560	1.153464
O57	O	1.118881	-0.312227	0.523922
O58	O	1.368881	-0.062227	0.773922
O59	O	1.618881	0.187773	1.023922
O60	O	1.868881	0.437773	1.273922
O61	O	1.118765	-0.523880	0.312255
O62	O	1.368765	-0.273880	0.562255
O63	O	1.618765	-0.023880	0.812255
O64	O	1.868765	0.226120	1.062255
O65	O	1.027557	-0.523852	0.403459
O66	O	1.277557	-0.273852	0.653459
O67	O	1.527557	-0.023852	0.903459
O68	O	1.777557	0.226148	1.153459
C69	C	0.880275	-0.357834	0.357859
C70	C	1.130275	-0.107834	0.607859
C71	C	1.380275	0.142166	0.857859
C72	C	1.630275	0.392166	1.107859
C73	C	0.797729	-0.357841	0.357861
C74	C	1.047729	-0.107841	0.607861
C75	C	1.297729	0.142159	0.857861
C76	C	1.547729	0.392159	1.107861
C77	C	0.548895	-0.308191	0.308384
C78	C	0.798895	-0.058191	0.558384
C79	C	1.048895	0.191809	0.808384
C80	C	1.298895	0.441809	1.058384
C81	C	0.598323	-0.290110	0.376160
C82	C	0.848323	-0.040110	0.626160
C83	C	1.098323	0.209890	0.876160
C84	C	1.348323	0.459890	1.126160
C85	C	0.500609	-0.357879	0.357922
C86	C	0.750609	-0.107879	0.607922
C87	C	1.000609	0.142121	0.857922
C88	C	1.250609	0.392121	1.107922
C89	C	0.598262	-0.375906	0.290119
C90	C	0.848262	-0.125906	0.540119
C91	C	1.098262	0.124094	0.790119
C92	C	1.348262	0.374094	1.040119
C93	C	0.646594	-0.357858	0.357888
C94	C	0.896594	-0.107858	0.607888
C95	C	1.146594	0.142142	0.857888
C96	C	1.396594	0.392142	1.107888
C97	C	0.548951	-0.339762	0.425734
C98	C	0.798951	-0.089762	0.675734
C99	C	1.048951	0.160238	0.925734
C100	C	1.298951	0.410238	1.175734
C101	C	0.548884	-0.425589	0.339648
C102	C	0.798884	-0.175589	0.589648
C103	C	1.048884	0.074411	0.839648
C104	C	1.298884	0.324411	1.089648
C105	C	0.598291	-0.407534	0.407471
C106	C	0.848291	-0.157534	0.657471
C107	C	1.098291	0.092466	0.907471
C108	C	1.348291	0.342466	1.157471
C109	C	0.416511	-0.357888	0.357940
C110	C	0.666511	-0.107888	0.607940
C111	C	0.916511	0.142112	0.857940
C112	C	1.166511	0.392112	1.107940
C113	C	0.730690	-0.357848	0.357878
C114	C	0.980690	-0.107848	0.607878
C115	C	1.230690	0.142152	0.857878
C116	C	1.480690	0.392152	1.107878
C117	C	1.073170	-0.550812	0.357867
C118	C	1.323170	-0.300812	0.607867
C119	C	1.573170	-0.050812	0.857867
C120	C	1.823170	0.199188	1.107867
C121	C	1.073214	-0.633358	0.357879
C122	C	1.323214	-0.383358	0.607879
C123	C	1.573214	-0.133358	0.857879
C124	C	1.823214	0.116642	1.107879
C125	C	1.122916	-0.832797	0.308352
C126	C	1.372916	-0.582797	0.558352
C127	C	1.622916	-0.332797	0.808352
C128	C	1.872916	-0.082797	1.058352
C129	C	1.141051	-0.882137	0.376133
C130	C	1.391051	-0.632137	0.626133
C131	C	1.641051	-0.382137	0.876133
C132	C	1.891051	-0.132137	1.126133
C133	C	1.073256	-0.784488	0.357909
C134	C	1.323256	-0.534488	0.607909
C135	C	1.573256	-0.284488	0.857909
C136	C	1.823256	-0.034488	1.107909
C137	C	1.055196	-0.882230	0.290158
C138	C	1.305196	-0.632230	0.540158
C139	C	1.555196	-0.382230	0.790158
C140	C	1.805196	-0.132230	1.040158
C141	C	1.073298	-0.930473	0.357931
C142	C	1.323298	-0.680473	0.607931
C143	C	1.573298	-0.430473	0.857931
C144	C	1.823298	-0.180473	1.107931
C145	C	1.091426	-0.832741	0.425726
C146	C	1.341426	-0.582741	0.675726
C147	C	1.591426	-0.332741	0.925726
C148	C	1.841426	-0.082741	1.175726
C149	C	1.005539	-0.832830	0.339704
C150	C	1.255539	-0.582830	0.589704
C151	C	1.505539	-0.332830	0.839704
C152	C	1.755539	-0.082830	1.089704
C153	C	1.023649	-0.882147	0.407533
C154	C	1.273649	-0.632147	0.657533
C155	C	1.523649	-0.382147	0.907533
C156	C	1.773649	-0.132147	1.157533
C157	C	1.073233	-0.700390	0.357895
C158	C	1.323233	-0.450390	0.607895
C159	C	1.573233	-0.200390	0.857895
C160	C	1.823233	0.049610	1.107895
C161	C	1.073320	-1.014570	0.357953
C162	C	1.323320	-0.764570	0.607953
C163	C	1.573320	-0.514570	0.857953
C164	C	1.823320	-0.264570	1.107953
C165	C	1.266933	-0.357887	0.357934
C166	C	1.516933	-0.107887	0.607934
C167	C	1.766933	0.142113	0.857934
C168	C	2.016933	0.392113	1.107934
C169	C	1.349479	-0.357898	0.357950
C170	C	1.599479	-0.107898	0.607950
C171	C	1.849479	0.142102	0.857950
C172	C	2.099479	0.392102	1.107950
C173	C	1.073256	-0.357827	0.551602
C174	C	1.323256	-0.107827	0.801602
C175	C	1.573256	0.142173	1.051602
C176	C	1.823256	0.392173	1.301602
C177	C	1.073269	-0.357813	0.634148
C178	C	1.323269	-0.107813	0.884148
C179	C	1.573269	0.142187	1.134148
C180	C	1.823269	0.392187	1.384148
C181	C	1.073305	-0.164154	0.357943
C182	C	1.323305	0.085846	0.607943
C183	C	1.573305	0.335846	0.857943
C184	C	1.823305	0.585846	1.107943
C185	C	1.073338	-0.081609	0.357962
C186	C	1.323338	0.168391	0.607962
C187	C	1.573338	0.418391	0.857962
C188	C	1.823338	0.668391	1.107962
C189	C	1.073241	-0.357839	0.164944
C190	C	1.323241	-0.107839	0.414944
C191	C	1.573241	0.142161	0.664944
C192	C	1.823241	0.392161	0.914944
C193	C	1.073372	-0.357644	0.082399
C194	C	1.323372	-0.107644	0.332399
C195	C	1.573372	0.142356	0.582399
C196	C	1.823372	0.392356	0.832399
C197	C	1.023681	-0.407345	0.833577
C198	C	1.273681	-0.157345	1.083577
C199	C	1.523681	0.092655	1.333577
C200	C	1.773681	0.342655	1.583577
C201	C	1.091439	-0.425502	0.882974
C202	C	1.341439	-0.175502	1.132974
C203	C	1.591439	0.074498	1.382974
C204	C	1.841439	0.324498	1.632974
C205	C	1.073305	-0.357756	0.785278
C206	C	1.323305	-0.107756	1.035278
C207	C	1.573305	0.142244	1.285278
C208	C	1.823305	0.392244	1.535278
C209	C	1.005584	-0.339578	0.882963
C210	C	1.255584	-0.089578	1.132963
C211	C	1.505584	0.160422	1.382963
C212	C	1.755584	0.410422	1.632963
C213	C	1.073335	-0.357703	0.931264
C214	C	1.323335	-0.107703	1.181264
C215	C	1.573335	0.142297	1.431264
C216	C	1.823335	0.392297	1.681264
C217	C	1.141099	-0.375950	0.833588
C218	C	1.391099	-0.125950	1.083588
C219	C	1.641099	0.124050	1.333588
C220	C	1.891099	0.374050	1.583588
C221	C	1.055199	-0.289994	0.833573
C222	C	1.305199	-0.039994	1.083573
C223	C	1.555199	0.210006	1.333573
C224	C	1.805199	0.460006	1.583573
C225	C	1.123004	-0.308126	0.882948
C226	C	1.373004	-0.058126	1.132948
C227	C	1.623004	0.191874	1.382948
C228	C	1.873004	0.441874	1.632948
C229	C	1.073287	-0.357789	0.701180
C230	C	1.323287	-0.107789	0.951180
C231	C	1.573287	0.142211	1.201180
C232	C	1.823287	0.392211	1.451180
C233	C	1.073360	-0.357670	1.015360
C234	C	1.323360	-0.107670	1.265360
C235	C	1.573360	0.142330	1.515360
C236	C	1.823360	0.392330	1.765360
H237	H	0.527153	-0.482843	0.324181
H238	H	0.777153	-0.232843	0.574181
H239	H	1.027153	0.017157	0.824181
H240	H	1.277153	0.267157	1.074181
H241	H	0.948301	-0.324225	0.904653
H242	H	1.198301	-0.074225	1.154653
H243	H	1.448301	0.175775	1.404653
H244	H	1.698301	0.425775	1.654653
O245	O	1.111743	-0.804072	0.501664
O246	O	1.361743	-0.554072	0.751664
O247	O	1.611743	-0.304072	1.001664
O248	O	1.861743	-0.054072	1.251664
H249	H	1.121832	-0.851543	0.539406
H250	H	1.371832	-0.601543	0.789406
H251	H	1.621832	-0.351543	1.039406
H252	H	1.871832	-0.101543	1.289406
O253	O	0.626955	-0.396125	0.214189
O254	O	0.876955	-0.146125	0.464189
O255	O	1.126955	0.103875	0.714189
O256	O	1.376955	0.353875	0.964189
H257	H	0.607162	-0.354807	0.173189
H258	H	0.857162	-0.104807	0.423189
H259	H	1.107162	0.145193	0.673189
H260	H	1.357162	0.395193	0.923189
H261	H	1.164925	-0.811127	0.266486
H262	H	1.414925	-0.561127	0.516486
H263	H	1.664925	-0.311127	0.766486
H264	H	1.914925	-0.061127	1.016486
H265	H	0.981672	-0.903680	0.449500
H266	H	1.231672	-0.653680	0.699500
H267	H	1.481672	-0.403680	0.949500
H268	H	1.731672	-0.153680	1.199500
H269	H	1.039903	-0.903968	0.232852
H270	H	1.289903	-0.653968	0.482852
H271	H	1.539903	-0.403968	0.732852
H272	H	1.789903	-0.153968	0.982852
H273	H	0.527380	-0.324440	0.483076
H274	H	0.777380	-0.074440	0.733076
H275	H	1.027380	0.175560	0.983076
H276	H	1.277380	0.425560	1.233076
H277	H	0.619842	-0.449544	0.449397
H278	H	0.869842	-0.199544	0.699397
H279	H	1.119842	0.050456	0.949397
H280	H	1.369842	0.300456	1.199397
H281	H	0.948271	-0.811154	0.324272
H282	H	1.198271	-0.561154	0.574272
H283	H	1.448271	-0.311154	0.824272
H284	H	1.698271	-0.061154	1.074272
H285	H	1.198335	-0.903797	0.391545
H286	H	1.448335	-0.653797	0.641545
H287	H	1.698335	-0.403797	0.891545
H288	H	1.948335	-0.153797	1.141545
H289	H	1.106771	-0.482785	0.904674
H290	H	1.356771	-0.232785	1.154674
H291	H	1.606771	0.017215	1.404674
H292	H	1.856771	0.267215	1.654674
H293	H	1.165031	-0.266168	0.904488
H294	H	1.415031	-0.016168	1.154488
H295	H	1.665031	0.233832	1.404488
H296	H	1.915031	0.483832	1.654488
H297	H	0.527208	-0.266150	0.266557
H298	H	0.777208	-0.016150	0.516557
H299	H	1.027208	0.233850	0.766557
H300	H	1.277208	0.483850	1.016557
O301	O	1.034859	-0.214149	0.804779
O302	O	1.284859	0.035851	1.054779
O303	O	1.534859	0.285851	1.304779
O304	O	1.784859	0.535851	1.554779
H305	H	0.978578	-0.199209	0.824510
H306	H	1.228578	0.050791	1.074510
H307	H	1.478578	0.300791	1.324510
H308	H	1.728578	0.550791	1.574510
H309	H	0.981754	-0.449335	0.811901
H310	H	1.231754	-0.199335	1.061901
H311	H	1.481754	0.050665	1.311901
H312	H	1.731754	0.300665	1.561901
H313	H	0.620026	-0.232837	0.391616
H314	H	0.870026	0.017163	0.641616
H315	H	1.120026	0.267163	0.891616
H316	H	1.370026	0.517163	1.141616
O317	O	1.217102	-0.396000	0.804990
O318	O	1.467102	-0.146000	1.054990
O319	O	1.717102	0.104000	1.304990
O320	O	1.967102	0.354000	1.554990
H321	H	1.216522	-0.395752	0.743503
H322	H	1.466522	-0.145752	0.993503
H323	H	1.716522	0.104248	1.243503
H324	H	1.966522	0.354248	1.493503
