data_functionalizedCrystal
_audit_creation_method	'MofGen! by Chris Wilmer'
_symmetry_space_group_name_H-M	'P1'
_symmetry_Int_Tables_number	1
_symmetry_cell_setting	triclinic
loop_
_symmetry_equiv_pos_as_xyz
  x,y,z
_cell_length_a	27.732048
_cell_length_b	13.339070
_cell_length_c	12.376457
_cell_angle_alpha	75.601917
_cell_angle_beta	78.807411
_cell_angle_gamma	80.864025
loop_
_atom_site_label
_atom_site_type_symbol
_atom_site_fract_x
_atom_site_fract_y
_atom_site_fract_z
O1	O	0.664111	-0.100655	-0.093852
O2	O	0.525834	-0.118912	-0.093885
O3	O	0.579103	0.037232	-0.093868
O4	O	0.610842	-0.256799	-0.093868
O5	O	0.565785	-0.001751	0.094140
O6	O	0.512517	-0.157896	0.094124
O7	O	0.650793	-0.139638	0.094157
Zn8	Zn	0.579540	-0.154956	0.123990
Zn9	Zn	0.597087	-0.103594	-0.123718
O10	O	0.597525	-0.295783	0.094140
C11	C	0.501116	-0.138020	0.000115
C12	C	0.447303	-0.136863	0.000102
C13	C	0.567083	0.055346	0.000133
C14	C	0.551102	0.167400	0.000124
N15	N	0.567569	-0.190009	0.293045
C16	C	0.120189	-0.221878	0.000151
C17	C	-0.082061	-0.217597	0.000161
O18	O	-0.102617	-0.295338	0.000211
N19	N	-0.113933	-0.125007	0.000159
C20	C	-0.095241	-0.033483	0.000162
O21	O	-0.126992	0.045366	0.000172
C22	C	0.107008	-0.037767	0.000160
C23	C	0.138879	-0.130360	0.000151
C24	C	0.152059	-0.314464	0.000143
C25	C	0.202619	-0.315532	0.000135
C26	C	0.221309	-0.224014	0.000134
C27	C	0.189439	-0.131428	0.000142
C28	C	0.125699	0.053754	0.000171
C29	C	0.176265	0.052674	0.000173
C30	C	0.208135	-0.039919	0.000164
C31	C	0.258688	-0.040978	0.000133
N32	N	0.290560	-0.133568	0.000135
C33	C	0.271871	-0.225086	0.000136
C34	C	-0.201424	-0.031240	0.000161
C35	C	-0.251986	-0.030168	0.000159
C36	C	-0.238802	-0.214283	0.000161
C37	C	-0.188239	-0.215352	0.000154
C38	C	-0.169551	-0.123830	0.000163
C39	C	0.378050	-0.227321	0.000116
C40	C	0.428614	-0.228380	0.000103
C41	C	0.415426	-0.044268	0.000107
C42	C	0.364866	-0.043207	0.000115
C43	C	0.346180	-0.134743	0.000123
O44	O	0.279277	0.036719	0.000096
O45	O	0.303628	-0.303928	0.000151
C46	C	0.069629	-0.220810	0.000160
C47	C	0.037759	-0.128224	0.000168
C48	C	0.056449	-0.036706	0.000167
C49	C	-0.012803	-0.127152	0.000166
C50	C	-0.031492	-0.218670	0.000167
C51	C	0.000380	-0.311260	0.000170
C52	C	0.050940	-0.312328	0.000161
C53	C	0.024576	0.055883	0.000165
C54	C	-0.025983	0.056944	0.000172
C55	C	-0.044673	-0.034574	0.000173
C56	C	0.675511	-0.120531	0.000154
C57	C	0.729325	-0.121686	0.000160
C58	C	0.609545	-0.313896	0.000137
C59	C	0.625526	-0.425949	0.000138
C60	C	0.675362	0.534129	0.000155
C61	C	0.690378	0.428848	0.000169
C62	C	0.655560	0.363481	0.000157
C63	C	0.605724	0.403405	0.000132
C64	C	0.590706	0.508694	0.000127
C65	C	0.570904	0.338046	0.000130
C66	C	0.521068	0.377970	0.000105
C67	C	0.506053	0.483250	0.000099
C68	C	0.540871	0.548617	0.000110
C69	C	0.585922	0.232757	0.000135
C70	C	0.501266	0.207322	0.000107
C71	C	0.486251	0.312603	0.000093
N72	N	0.609061	-0.068534	-0.292773
C73	C	0.636848	0.012854	0.648051
C74	C	0.645225	0.037387	0.529714
C75	C	0.625811	-0.019459	0.470541
C76	C	0.598021	-0.100844	0.529717
C77	C	0.589647	-0.125385	0.648066
C78	C	0.578610	-0.157699	0.470555
C79	C	0.550819	-0.239083	0.529731
C80	C	0.542446	-0.263620	0.648069
C81	C	0.561860	-0.206773	0.707242
C82	C	0.586983	-0.133157	0.352206
C83	C	0.539782	-0.271397	0.352221
C84	C	0.531406	-0.295930	0.470558
H85	H	0.362841	-0.301860	0.000127
H86	H	0.609611	-0.066894	0.304036
O87	O	0.634835	0.007009	0.342905
H88	H	0.657415	0.073159	0.311697
O89	O	0.712911	0.604623	0.000180
H90	H	0.694095	0.684539	0.000171
O91	O	0.330490	0.056662	0.000117
H92	H	0.301718	0.045658	0.076753
O93	O	0.675195	0.125166	0.465900
H94	H	0.708157	0.094184	0.411989
H95	H	0.445673	0.345124	0.000073
O96	O	0.639670	0.189702	0.000157
H97	H	0.653965	0.158224	-0.076466
O98	O	0.657787	0.074161	0.711868
H99	H	0.647293	0.043424	0.804099
O100	O	0.552829	-0.233247	0.834882
H101	H	0.570999	-0.180046	0.866080
O102	O	0.512500	-0.351441	0.711901
H103	H	0.500412	-0.386857	0.650877
H104	H	0.465473	0.515750	0.000087
O105	O	0.518834	-0.332701	0.288406
H106	H	0.549533	-0.370284	0.234468
H107	H	0.508778	-0.362196	0.518754
O108	O	0.462989	-0.328255	0.000111
H109	H	0.441493	-0.391715	0.000130
O110	O	0.236985	-0.415412	0.000158
H111	H	0.235860	-0.443475	-0.076458
O112	O	0.131906	-0.413179	0.000139
H113	H	0.162569	-0.477728	0.000127
O114	O	-0.153869	-0.315226	0.000168
H115	H	-0.154992	-0.343281	-0.076455
O116	O	-0.258967	-0.312997	0.000182
H117	H	-0.276270	-0.301031	-0.076437
O118	O	0.671752	0.249929	0.000162
H119	H	0.712256	0.233150	0.000170
O120	O	0.463706	0.136835	0.000099
H121	H	0.473947	0.104153	-0.076533
H122	H	-0.277930	0.045234	0.000149
O123	O	0.196419	0.151390	0.000190
H124	H	0.224566	0.171201	-0.076435
H125	H	0.099757	0.129153	0.000179
O126	O	-0.181270	0.067480	0.000165
H127	H	-0.211930	0.132036	0.000154
O128	O	0.744126	0.385790	0.000171
H129	H	0.765816	0.448932	0.000161
O130	O	0.435587	0.054436	0.000122
H131	H	0.476099	0.038125	0.000134
O132	O	0.044730	0.154597	0.000167
H133	H	0.037289	0.214826	-0.076466
O134	O	0.524679	0.662174	0.000100
H135	H	0.507880	0.700333	-0.076541
H136	H	0.076885	-0.387727	0.000155
H137	H	-0.014846	-0.385776	0.000166
O138	O	-0.060358	0.156816	0.000193
H139	H	-0.038863	0.220265	0.000206
