data_functionalizedCrystal
_audit_creation_method	'MofGen! by Chris Wilmer'
_symmetry_space_group_name_H-M	'P1'
_symmetry_Int_Tables_number	1
_symmetry_cell_setting	triclinic
loop_
_symmetry_equiv_pos_as_xyz
  x,y,z
_cell_length_a	18.215407
_cell_length_b	18.215405
_cell_length_c	18.215399
_cell_angle_alpha	89.969449
_cell_angle_beta	89.980167
_cell_angle_gamma	90.025333
loop_
_atom_site_label
_atom_site_type_symbol
_atom_site_fract_x
_atom_site_fract_y
_atom_site_fract_z
Zn1	Zn	1.125072	-0.292983	-0.416103
Zn2	Zn	1.458405	0.040350	-0.082769
Zn3	Zn	1.791739	0.373684	0.250564
Zn4	Zn	1.124980	-0.416054	-0.293031
Zn5	Zn	1.458314	-0.082721	0.040303
Zn6	Zn	1.791647	0.250612	0.373636
Zn7	Zn	1.002005	-0.293007	-0.293050
Zn8	Zn	1.335338	0.040326	0.040283
Zn9	Zn	1.668671	0.373660	0.373617
Zn10	Zn	1.001970	-0.416013	-0.416056
Zn11	Zn	1.335304	-0.082680	-0.082722
Zn12	Zn	1.668637	0.250653	0.250611
O13	O	1.063507	-0.354514	-0.354560
O14	O	1.396840	-0.021181	-0.021226
O15	O	1.730173	0.312152	0.312107
O16	O	1.228044	-0.309316	-0.399788
O17	O	1.561377	0.024018	-0.066455
O18	O	1.894711	0.357351	0.266878
O19	O	1.108643	-0.399759	-0.190049
O20	O	1.441977	-0.066426	0.143284
O21	O	1.775310	0.266908	0.476618
O22	O	1.018382	-0.190020	-0.309401
O23	O	1.351716	0.143314	0.023933
O24	O	1.685049	0.476647	0.357266
O25	O	1.227977	-0.399736	-0.309368
O26	O	1.561310	-0.066402	0.023965
O27	O	1.894643	0.266931	0.357299
O28	O	1.108799	-0.190002	-0.399807
O29	O	1.442133	0.143331	-0.066474
O30	O	1.775466	0.476665	0.266860
O31	O	1.018293	-0.309357	-0.190063
O32	O	1.351627	0.023977	0.143270
O33	O	1.684960	0.357310	0.476604
O34	O	0.899016	-0.309317	-0.309355
O35	O	1.232349	0.024016	0.023978
O36	O	1.565682	0.357350	0.357311
O37	O	1.018324	-0.399666	-0.519046
O38	O	1.351657	-0.066333	-0.185713
O39	O	1.684991	0.267001	0.147621
O40	O	0.898991	-0.399689	-0.399727
O41	O	1.232324	-0.066356	-0.066394
O42	O	1.565657	0.266977	0.266940
O43	O	1.108766	-0.309276	-0.519081
O44	O	1.442100	0.024057	-0.185747
O45	O	1.775433	0.357391	0.147586
O46	O	1.108610	-0.519033	-0.309322
O47	O	1.441944	-0.185700	0.024011
O48	O	1.775277	0.147634	0.357344
O49	O	1.018235	-0.519003	-0.399708
O50	O	1.351569	-0.185670	-0.066375
O51	O	1.684902	0.147664	0.266958
C52	C	0.872301	-0.354502	-0.354539
C53	C	1.205634	-0.021169	-0.021205
C54	C	1.538967	0.312165	0.312128
C55	C	0.790502	-0.354514	-0.354547
C56	C	1.123835	-0.021181	-0.021214
C57	C	1.457168	0.312152	0.312120
C58	C	0.602314	-0.401645	-0.401544
C59	C	0.935647	-0.068312	-0.068211
C60	C	1.268981	0.265022	0.265122
C61	C	0.525455	-0.401647	-0.401554
C62	C	0.858789	-0.068314	-0.068220
C63	C	1.192122	0.265019	0.265113
C64	C	0.525452	-0.307397	-0.307591
C65	C	0.858785	0.025936	0.025742
C66	C	1.192118	0.359269	0.359076
C67	C	0.602309	-0.307392	-0.307586
C68	C	0.935642	0.025942	0.025747
C69	C	1.268976	0.359275	0.359081
C70	C	0.640738	-0.354520	-0.354562
C71	C	0.974071	-0.021186	-0.021228
C72	C	1.307405	0.312147	0.312105
C73	C	0.487022	-0.354528	-0.354576
C74	C	0.820355	-0.021194	-0.021242
C75	C	1.153689	0.312139	0.312091
C76	C	0.403688	-0.354530	-0.354585
C77	C	0.737022	-0.021196	-0.021252
C78	C	1.070355	0.312137	0.312081
C79	C	0.724077	-0.354517	-0.354553
C80	C	1.057410	-0.021184	-0.021220
C81	C	1.390744	0.312150	0.312113
C82	C	1.063429	-0.545721	-0.354524
C83	C	1.396762	-0.212387	-0.021191
C84	C	1.730096	0.120946	0.312142
C85	C	1.063463	-0.627520	-0.354534
C86	C	1.396797	-0.294186	-0.021200
C87	C	1.730130	0.039147	0.312133
C88	C	1.110632	-0.815705	-0.307556
C89	C	1.443965	-0.482371	0.025777
C90	C	1.777299	-0.149038	0.359110
C91	C	1.110665	-0.892563	-0.307574
C92	C	1.443998	-0.559230	0.025759
C93	C	1.777331	-0.225897	0.359092
C94	C	1.016476	-0.892572	-0.401616
C95	C	1.349809	-0.559239	-0.068283
C96	C	1.683143	-0.225905	0.265051
C97	C	1.016447	-0.815715	-0.401601
C98	C	1.349781	-0.482381	-0.068268
C99	C	1.683114	-0.149048	0.265065
C100	C	1.063524	-0.777283	-0.354567
C101	C	1.396857	-0.443950	-0.021234
C102	C	1.730191	-0.110616	0.312099
C103	C	1.063586	-0.930999	-0.354600
C104	C	1.396919	-0.597666	-0.021266
C105	C	1.730252	-0.264332	0.312067
C106	C	1.063621	-1.014333	-0.354619
C107	C	1.396954	-0.680999	-0.021286
C108	C	1.730288	-0.347666	0.312047
C109	C	1.063490	-0.693944	-0.354548
C110	C	1.396823	-0.360611	-0.021215
C111	C	1.730157	-0.027277	0.312118
C112	C	1.255460	-0.354528	-0.354581
C113	C	1.588793	-0.021194	-0.021248
C114	C	1.922126	0.312139	0.312085
C115	C	1.337259	-0.354533	-0.354591
C116	C	1.670592	-0.021200	-0.021257
C117	C	2.003925	0.312133	0.312076
C118	C	1.063552	-0.354464	-0.546513
C119	C	1.396885	-0.021130	-0.213179
C120	C	1.730218	0.312203	0.120154
C121	C	1.063571	-0.354442	-0.628312
C122	C	1.396904	-0.021109	-0.294978
C123	C	1.730237	0.312225	0.038355
C124	C	1.063605	-0.162561	-0.354611
C125	C	1.396938	0.170772	-0.021278
C126	C	1.730272	0.504105	0.312055
C127	C	1.063647	-0.080763	-0.354633
C128	C	1.396980	0.252571	-0.021300
C129	C	1.730313	0.585904	0.312033
C130	C	1.110681	-0.307332	-0.816525
C131	C	1.444014	0.026001	-0.483191
C132	C	1.777348	0.359335	-0.149858
C133	C	1.110690	-0.307311	-0.893384
C134	C	1.444023	0.026023	-0.560050
C135	C	1.777356	0.359356	-0.226717
C136	C	1.016513	-0.401438	-0.893336
C137	C	1.349846	-0.068105	-0.560003
C138	C	1.683179	0.265228	-0.226670
C139	C	1.016501	-0.401455	-0.816479
C140	C	1.349834	-0.068122	-0.483146
C141	C	1.683167	0.265211	-0.149812
C142	C	1.063589	-0.354403	-0.778075
C143	C	1.396922	-0.021070	-0.444742
C144	C	1.730256	0.312263	-0.111409
C145	C	1.063610	-0.354365	-0.931791
C146	C	1.396943	-0.021031	-0.598458
C147	C	1.730276	0.312302	-0.265125
C148	C	1.063619	-0.354342	-1.015125
C149	C	1.396952	-0.021009	-0.681792
C150	C	1.730286	0.312325	-0.348458
C151	C	1.063579	-0.354425	-0.694736
C152	C	1.396912	-0.021092	-0.361403
C153	C	1.730246	0.312241	-0.028070
C154	C	1.063504	-0.354512	-0.163353
C155	C	1.396838	-0.021179	0.169980
C156	C	1.730171	0.312155	0.503313
C157	C	1.063628	-0.354326	-0.081555
C158	C	1.396961	-0.020993	0.251778
C159	C	1.730295	0.312340	0.585112
H160	H	0.494153	-0.269028	-0.269344
H161	H	0.827487	0.064305	0.063989
H162	H	1.160820	0.397638	0.397323
C163	C	0.688773	-0.208378	-0.297531
C164	C	1.022106	0.124955	0.035802
C165	C	1.355440	0.458288	0.369135
C166	C	0.644550	-0.255587	-0.255938
C167	C	0.977884	0.077746	0.077395
C168	C	1.311217	0.411079	0.410729
H169	H	0.714847	-0.176395	-0.265648
H170	H	1.048180	0.156939	0.067686
H171	H	1.381514	0.490272	0.401019
H172	H	0.722655	-0.236442	-0.325503
H173	H	1.055988	0.096891	0.007831
H174	H	1.389322	0.430225	0.341164
H175	H	0.658805	-0.180272	-0.329644
H176	H	0.992138	0.153061	0.003690
H177	H	1.325471	0.486394	0.337023
H178	H	0.674519	-0.283697	-0.223829
H179	H	1.007853	0.049636	0.109504
H180	H	1.341186	0.382969	0.442837
H181	H	0.610664	-0.227521	-0.227954
H182	H	0.943998	0.105813	0.105379
H183	H	1.277331	0.439146	0.438712
H184	H	1.148966	-0.784415	-0.269260
H185	H	1.482299	-0.451082	0.064074
H186	H	1.815632	-0.117749	0.397407
H187	H	0.494174	-0.440020	-0.439813
H188	H	0.827507	-0.106687	-0.106480
H189	H	1.160840	0.226646	0.226854
C190	C	1.203754	-0.884830	-0.214610
C191	C	1.537087	-0.551496	0.118723
C192	C	1.870421	-0.218163	0.452056
C193	C	1.162444	-0.934796	-0.255895
C194	C	1.495777	-0.601463	0.077439
C195	C	1.829110	-0.268130	0.410772
H196	H	1.235718	-0.910904	-0.182702
H197	H	1.569051	-0.577571	0.150631
H198	H	1.902385	-0.244237	0.483965
H199	H	1.231873	-0.854807	-0.246694
H200	H	1.565206	-0.521474	0.086639
H201	H	1.898539	-0.188141	0.419973
H202	H	1.171685	-0.854899	-0.186427
H203	H	1.505018	-0.521566	0.146906
H204	H	1.838352	-0.188232	0.480240
H205	H	1.194512	-0.964724	-0.284082
H206	H	1.527846	-0.631390	0.049251
H207	H	1.861179	-0.298057	0.382584
H208	H	1.134323	-0.964832	-0.223807
H209	H	1.467656	-0.631498	0.109526
H210	H	1.800989	-0.298165	0.442860
H211	H	0.978146	-0.923873	-0.439908
H212	H	1.311480	-0.590539	-0.106575
H213	H	1.644813	-0.257206	0.226759
H214	H	0.978177	-0.439748	-0.924614
H215	H	1.311510	-0.106415	-0.591281
H216	H	1.644843	0.226919	-0.257947
H217	H	0.978086	-0.784430	-0.439887
H218	H	1.311420	-0.451096	-0.106553
H219	H	1.644753	-0.117763	0.226780
H220	H	1.149021	-0.269017	-0.785259
H221	H	1.482355	0.064316	-0.451925
H222	H	1.815688	0.397649	-0.118592
C223	C	1.146607	-0.182692	-0.917077
C224	C	1.479941	0.150642	-0.583744
C225	C	1.813274	0.483975	-0.250410
C226	C	1.162458	-0.255568	-0.935644
C227	C	1.495791	0.077765	-0.602310
C228	C	1.829124	0.411099	-0.268977
H229	H	1.178571	-0.150747	-0.943163
H230	H	1.511905	0.182586	-0.609830
H231	H	1.845238	0.515920	-0.276496
H232	H	1.097175	-0.171920	-0.929671
H233	H	1.430508	0.161413	-0.596338
H234	H	1.763841	0.494747	-0.263004
H235	H	1.153339	-0.175983	-0.865805
H236	H	1.486672	0.157350	-0.532472
H237	H	1.820005	0.490684	-0.199138
H238	H	1.155721	-0.262278	-0.986915
H239	H	1.489054	0.071055	-0.653582
H240	H	1.822388	0.404389	-0.320248
H241	H	1.211902	-0.266344	-0.923055
H242	H	1.545235	0.066990	-0.589721
H243	H	1.878569	0.400323	-0.256388
C244	C	0.594595	-0.494798	-0.494431
C245	C	0.927928	-0.161465	-0.161097
C246	C	1.261261	0.171868	0.172236
C247	C	0.644556	-0.453439	-0.453188
C248	C	0.977889	-0.120106	-0.119854
C249	C	1.311223	0.213228	0.213479
H250	H	0.620673	-0.526769	-0.526318
H251	H	0.954007	-0.193436	-0.192985
H252	H	1.287340	0.139897	0.140349
H253	H	0.564597	-0.522912	-0.462320
H254	H	0.897930	-0.189579	-0.128987
H255	H	1.231264	0.143755	0.204347
H256	H	0.564639	-0.462761	-0.522635
H257	H	0.897972	-0.129428	-0.189301
H258	H	1.231305	0.203906	0.144032
H259	H	0.674509	-0.485476	-0.424979
H260	H	1.007842	-0.152143	-0.091646
H261	H	1.341175	0.181190	0.241687
H262	H	0.674566	-0.425323	-0.485302
H263	H	1.007900	-0.091990	-0.151969
H264	H	1.341233	0.241344	0.181364
C265	C	0.923415	-0.494506	-0.824146
C266	C	1.256748	-0.161173	-0.490813
C267	C	1.590082	0.172160	-0.157480
C268	C	0.964736	-0.453204	-0.774209
C269	C	1.298069	-0.119870	-0.440876
C270	C	1.631403	0.213463	-0.107543
H271	H	0.891462	-0.526453	-0.798049
H272	H	1.224796	-0.193120	-0.464715
H273	H	1.558129	0.140214	-0.131382
H274	H	0.895284	-0.462437	-0.854126
H275	H	1.228617	-0.129103	-0.520793
H276	H	1.561950	0.204230	-0.187459
H277	H	0.955478	-0.522650	-0.854123
H278	H	1.288811	-0.189316	-0.520789
H279	H	1.622144	0.144017	-0.187456
H280	H	0.932673	-0.425056	-0.744236
H281	H	1.266007	-0.091723	-0.410903
H282	H	1.599340	0.241611	-0.077570
H283	H	0.992870	-0.485277	-0.744217
H284	H	1.326203	-0.151944	-0.410884
H285	H	1.659536	0.181389	-0.077550
