data_functionalizedCrystal
_audit_creation_method	'MofGen! by Chris Wilmer'
_symmetry_space_group_name_H-M	'P1'
_symmetry_Int_Tables_number	1
_symmetry_cell_setting	triclinic
loop_
_symmetry_equiv_pos_as_xyz
  x,y,z
_cell_length_a	14.971486
_cell_length_b	12.837942
_cell_length_c	13.448316
_cell_angle_alpha	89.994234
_cell_angle_beta	89.998199
_cell_angle_gamma	89.221535
loop_
_atom_site_label
_atom_site_type_symbol
_atom_site_fract_x
_atom_site_fract_y
_atom_site_fract_z
O1	O	1.198338	0.135106	-0.082576
O2	O	0.939302	0.151285	-0.082603
O3	O	1.063076	-0.007715	-0.082584
O4	O	1.074564	0.294105	-0.082595
O5	O	1.063058	-0.007724	0.082800
O6	O	0.939284	0.151275	0.082781
O7	O	1.198320	0.135096	0.082808
Cu8	Cu	1.068800	0.143185	0.097895
Cu9	Cu	1.068822	0.143196	-0.097690
O10	O	1.074546	0.294095	0.082789
C11	C	0.905907	0.150556	0.000086
C12	C	0.806427	0.148388	0.000075
C13	C	0.757077	0.241796	0.000073
C14	C	0.663606	0.239752	0.000088
C15	C	0.619486	0.144300	0.000098
C16	C	0.668842	0.050885	0.000103
C17	C	0.762313	0.052930	0.000095
C18	C	0.474021	0.046630	0.000117
C19	C	0.380545	0.044585	0.000123
C20	C	0.375314	0.233453	0.000110
C21	C	0.468784	0.235497	0.000102
C22	C	0.518135	0.142082	0.000105
C23	C	1.059187	-0.046345	0.000107
C24	C	1.047612	-0.161436	0.000104
C25	C	1.186755	-0.402222	0.000098
C26	C	1.175884	-0.510362	0.000095
C27	C	1.015001	-0.485856	0.000089
C28	C	1.025872	-0.377717	0.000092
C29	C	1.111751	-0.335904	0.000098
C30	C	1.122621	-0.227763	0.000108
C31	C	0.961739	-0.203260	0.000094
C32	C	0.950868	-0.311399	0.000091
C33	C	1.231715	0.135824	0.000117
C34	C	1.331195	0.137993	0.000121
C35	C	1.078436	0.332726	0.000096
C36	C	1.090010	0.447817	0.000092
N37	N	1.068792	0.143176	0.235460
N38	N	1.068837	0.143197	-0.235255
C39	C	1.123620	0.072800	0.287508
C40	C	1.123626	0.072799	0.391612
C41	C	1.068807	0.143180	0.443664
C42	C	1.013972	0.213559	0.391608
C43	C	1.013963	0.213554	0.287507
C44	C	1.013998	0.213566	0.608588
C45	C	1.014008	0.213573	0.712697
C46	C	1.123661	0.072811	0.712693
C47	C	1.123651	0.072806	0.608592
C48	C	1.068818	0.143187	0.556543
H49	H	0.504704	0.313223	0.000085
H50	H	0.623429	0.315815	0.000086
H51	H	1.168271	0.015493	0.433989
H52	H	0.969368	0.270883	0.755073
H53	H	0.802492	-0.023133	0.000096
C54	C	0.856403	-0.357395	0.000086
C55	C	0.791539	-0.332401	-0.085792
C56	C	0.697071	-0.378392	-0.085795
C57	C	0.667468	-0.449376	0.000082
C58	C	0.732333	-0.474372	0.085967
C59	C	0.826801	-0.428382	0.085969
H60	H	0.813452	-0.279852	-0.149369
H61	H	0.649054	-0.359887	-0.149373
H62	H	0.597537	-0.483421	0.000081
H63	H	0.710420	-0.526922	0.149544
H64	H	0.874818	-0.446887	0.149548
H65	H	0.945081	-0.519920	0.000073
H66	H	0.969314	0.270860	0.245130
H67	H	1.168294	0.015502	0.566211
H68	H	1.192549	-0.193721	0.000116
C69	C	1.183923	-0.004622	0.230256
C70	C	1.244229	-0.082039	0.287515
C71	C	1.304531	-0.159466	0.230266
C72	C	1.304528	-0.159477	0.115758
C73	C	1.244220	-0.082058	0.058493
C74	C	1.183918	-0.004630	0.115742
H75	H	1.244233	-0.082033	0.372285
H76	H	1.349175	-0.216777	0.272658
H77	H	1.349168	-0.216793	0.073379
H78	H	1.244216	-0.082063	-0.026278
H79	H	1.139274	0.052680	0.073350
H80	H	1.256681	-0.368178	0.000113
H81	H	0.792993	0.319524	0.000065
H82	H	0.335129	0.309515	0.000112
C83	C	0.528310	-0.056126	0.000119
C84	C	0.517624	-0.134322	0.085999
C85	C	0.571914	-0.237074	0.085995
C86	C	0.636891	-0.261629	0.000111
C87	C	0.647580	-0.183431	-0.085776
C88	C	0.593290	-0.080679	-0.085772
H89	H	0.469522	-0.116147	0.149581
H90	H	0.564001	-0.294962	0.149574
H91	H	0.677080	-0.337692	0.000108
H92	H	0.695682	-0.201606	-0.149358
H93	H	0.601203	-0.022791	-0.149351
H94	H	0.344625	-0.033141	0.000132
H95	H	0.632913	-0.026834	0.000125
H96	H	1.236960	-0.564355	0.000092
H97	H	0.900666	-0.149251	0.000102
H98	H	1.168308	0.015504	0.755077
H99	H	0.969343	0.270875	0.566213
H100	H	0.969333	0.270861	0.433995
