data_functionalizedCrystal
_audit_creation_method	'MofGen! by Chris Wilmer'
_symmetry_space_group_name_H-M	'P1'
_symmetry_Int_Tables_number	1
_symmetry_cell_setting	triclinic
loop_
_symmetry_equiv_pos_as_xyz
  x,y,z
_cell_length_a	12.759395
_cell_length_b	14.908579
_cell_length_c	14.908308
_cell_angle_alpha	96.363296
_cell_angle_beta	86.719697
_cell_angle_gamma	86.676545
loop_
_atom_site_label
_atom_site_type_symbol
_atom_site_fract_x
_atom_site_fract_y
_atom_site_fract_z
Zn1	Zn	1.544164	0.389838	0.532534
Zn2	Zn	1.544040	0.532484	0.389911
Zn3	Zn	1.379232	0.381145	0.381197
Zn4	Zn	1.357673	0.541161	0.541227
O5	O	1.456277	0.461157	0.461217
O6	O	1.691167	0.408767	0.513624
O7	O	1.531149	0.505139	0.262094
O8	O	1.410185	0.255633	0.393988
O9	O	1.691076	0.513568	0.408839
O10	O	1.531360	0.262020	0.505174
O11	O	1.410065	0.393950	0.255692
O12	O	1.229352	0.402364	0.402416
O13	O	1.373440	0.528358	0.666735
O14	O	1.213513	0.519928	0.519989
O15	O	1.510455	0.417182	0.660349
O16	O	1.510244	0.660300	0.417268
O17	O	1.373320	0.666676	0.528439
C18	C	1.183311	0.461145	0.461201
C19	C	1.066533	0.461163	0.461217
C20	C	1.439456	0.696332	0.474762
C21	C	1.432354	0.796942	0.480587
C22	C	1.439556	0.474707	0.697302
C23	C	1.432431	0.480482	0.797907
C24	C	1.050078	0.583758	0.583469
C25	C	0.986989	0.645063	0.644598
C26	C	0.877265	0.645075	0.644610
C27	C	0.830630	0.583773	0.583488
C28	C	0.893719	0.522468	0.522359
C29	C	1.003443	0.522465	0.522352
C30	C	0.910173	0.399870	0.400112
C31	C	1.019897	0.399861	0.400095
C32	C	0.863537	0.338568	0.338990
C33	C	0.926627	0.277266	0.277855
C34	C	1.036356	0.277258	0.277845
C35	C	1.082986	0.338556	0.338965
C36	C	1.730308	0.461170	0.461234
C37	C	1.847084	0.461175	0.461241
C38	C	1.561719	0.979306	0.375864
C39	C	1.555049	1.073838	0.381334
C40	C	1.412352	1.080542	0.497001
C41	C	1.419021	0.986009	0.491531
C42	C	1.493706	0.935395	0.430959
C43	C	1.500370	0.840860	0.425485
C44	C	1.357678	0.847565	0.541157
C45	C	1.351009	0.942098	0.546627
C46	C	1.473183	1.225066	0.447651
C47	C	1.480368	1.124459	0.441899
C48	C	1.472998	0.447594	0.226048
C49	C	1.480345	0.441565	0.125428
C50	C	1.561713	0.375543	0.980305
C51	C	1.555022	0.380966	1.074832
C52	C	1.412353	0.496744	1.081490
C53	C	1.419044	0.491321	0.986963
C54	C	1.493728	0.430720	0.936374
C55	C	1.500423	0.425303	0.841845
C56	C	1.357750	0.541076	0.848504
C57	C	1.351059	0.546498	0.943031
H58	H	1.139419	0.583761	0.583460
C59	C	0.742839	0.338575	0.339013
N60	N	0.651927	0.338578	0.339029
H61	H	1.622523	0.938094	0.326537
H62	H	1.610380	0.336033	1.110597
C63	C	1.582524	0.785185	0.358856
N64	N	1.644407	0.743254	0.308670
C65	C	1.038296	0.712496	0.711826
N66	N	1.076939	0.763286	0.762462
C67	C	1.629865	1.122137	0.320721
N68	N	1.686219	1.158516	0.275063
H69	H	1.351548	0.546082	1.122696
C70	C	1.330204	1.136233	0.563623
N71	N	1.268327	1.178182	0.613801
C72	C	1.268904	0.613149	0.998690
N73	N	1.207022	0.663352	1.040611
H74	H	1.302394	0.586007	0.812726
C75	C	0.807866	0.712514	0.711854
N76	N	0.755594	0.763310	0.762501
C77	C	1.268855	0.997784	0.613247
N78	N	1.206970	1.039726	0.663423
H79	H	1.087718	0.227330	0.228072
H80	H	1.172327	0.338558	0.338961
H81	H	1.302295	0.811802	0.586017
C82	C	0.875320	0.209840	0.210630
N83	N	0.836671	0.159054	0.159994
C84	C	1.582573	0.358638	0.786198
N85	N	1.644447	0.308420	0.744287
C86	C	0.709931	0.583776	0.583518
N87	N	0.619019	0.583776	0.583542
H88	H	1.622528	0.326204	0.939115
