data_functionalizedCrystal
_audit_creation_method	'MofGen! by Chris Wilmer'
_symmetry_space_group_name_H-M	'P1'
_symmetry_Int_Tables_number	1
_symmetry_cell_setting	triclinic
loop_
_symmetry_equiv_pos_as_xyz
  x,y,z
_cell_length_a	9.065218
_cell_length_b	10.654550
_cell_length_c	9.130313
_cell_angle_alpha	90.004369
_cell_angle_beta	90.003591
_cell_angle_gamma	84.750408
loop_
_atom_site_label
_atom_site_type_symbol
_atom_site_fract_x
_atom_site_fract_y
_atom_site_fract_z
O1	O	-1.959393	-0.184159	-0.121803
O2	O	-1.459393	0.315841	0.378197
O3	O	-1.530025	-0.199265	-0.121805
O4	O	-1.030025	0.300735	0.378195
O5	O	-1.754581	-0.009012	-0.121795
O6	O	-1.254581	0.490988	0.378205
O7	O	-1.734837	-0.374412	-0.121813
O8	O	-1.234837	0.125588	0.378187
O9	O	-1.754566	-0.009006	0.121804
O10	O	-1.254566	0.490994	0.621804
O11	O	-1.530010	-0.199259	0.121794
O12	O	-1.030010	0.300741	0.621794
O13	O	-1.959377	-0.184153	0.121796
O14	O	-1.459377	0.315847	0.621796
Cu15	Cu	-1.744692	-0.191706	0.144037
Cu16	Cu	-1.244692	0.308294	0.644037
Cu17	Cu	-1.744710	-0.191712	-0.144046
Cu18	Cu	-1.244710	0.308288	0.355954
O19	O	-1.734822	-0.374406	0.121786
O20	O	-1.234822	0.125594	0.621786
C21	C	-1.753124	0.037795	0.000004
C22	C	-1.253124	0.537795	0.500004
C23	C	-1.748786	0.177255	0.000002
C24	C	-1.248786	0.677255	0.500002
C25	C	-1.475039	-0.197810	-0.000006
C26	C	-0.975039	0.302190	0.499994
C27	C	-1.311220	-0.193469	-0.000006
C28	C	-0.811220	0.306531	0.499994
C29	C	-2.014364	-0.185608	-0.000006
C30	C	-1.514364	0.314392	0.499994
C31	C	-2.178183	-0.189949	-0.000015
C32	C	-1.678183	0.310051	0.499985
C33	C	-1.736279	-0.421213	-0.000016
C34	C	-1.236279	0.078787	0.499984
C35	C	-1.740616	-0.560673	-0.000024
C36	C	-1.240616	-0.060673	0.499976
N37	N	-1.744690	-0.191700	0.346660
N38	N	-1.244690	0.308300	0.846660
C39	C	-1.881001	0.256217	0.000002
C40	C	-1.381001	0.756217	0.500002
C41	C	-1.876917	0.387254	-0.000016
C42	C	-1.376917	0.887254	0.499984
C43	C	-1.608391	0.360354	-0.000028
C44	C	-1.108391	0.860354	0.499972
C45	C	-1.612477	0.229320	-0.000021
C46	C	-1.112477	0.729320	0.499979
N47	N	-1.744724	-0.191708	-0.346669
N48	N	-1.244724	0.308292	0.153331
C49	C	-1.844157	-0.107492	0.423316
C50	C	-1.344157	0.392508	0.923316
C51	C	-1.844171	-0.107493	0.576653
C52	C	-1.344171	0.392507	1.076653
C53	C	-1.645246	-0.275920	0.576664
C54	C	-1.145246	0.224080	1.076664
C55	C	-1.645226	-0.275913	0.423330
C56	C	-1.145226	0.224087	0.923330
H57	H	-1.991993	0.213831	0.000017
H58	H	-1.491993	0.713831	0.500017
H59	H	-1.984580	0.451541	-0.000019
H60	H	-1.484580	0.951541	0.499981
H61	H	-1.504805	0.165025	-0.000025
H62	H	-1.004805	0.665025	0.499975
H63	H	-1.925165	-0.038922	0.639063
H64	H	-1.425165	0.461078	1.139063
H65	H	-1.564267	-0.344485	0.639104
H66	H	-1.064267	0.155515	1.139104
H67	H	-1.564221	-0.344485	0.360912
H68	H	-1.064221	0.155515	0.860912
H69	H	-1.497413	0.402762	-0.000043
H70	H	-0.997413	0.902762	0.499957
H71	H	-1.925144	-0.038920	0.360896
H72	H	-1.425144	0.461080	0.860896
