data_functionalizedCrystal
_audit_creation_method	'MofGen! by Chris Wilmer'
_symmetry_space_group_name_H-M	'P1'
_symmetry_Int_Tables_number	1
_symmetry_cell_setting	triclinic
loop_
_symmetry_equiv_pos_as_xyz
  x,y,z
_cell_length_a	6.817900
_cell_length_b	10.943632
_cell_length_c	16.256277
_cell_angle_alpha	93.778603
_cell_angle_beta	103.500353
_cell_angle_gamma	108.838880
loop_
_atom_site_label
_atom_site_type_symbol
_atom_site_fract_x
_atom_site_fract_y
_atom_site_fract_z
V1	V	-4.054293	-0.179673	-0.263853
O2	O	-4.013162	0.007560	-0.258852
O3	O	-4.032666	-0.355229	-0.262029
O4	O	-4.005561	-0.177380	-0.378938
O5	O	-4.040455	-0.171519	-0.141133
V6	V	-4.534495	-0.157222	-0.249177
O7	O	-4.322837	-0.228921	-0.296046
O8	O	-4.716148	-0.107974	-0.216985
O9	O	-4.332914	0.018334	-0.251002
O10	O	-4.693022	-0.344456	-0.254179
O11	O	-4.665729	-0.165376	-0.371898
O12	O	-4.360020	-0.159515	-0.134093
C13	C	-3.884191	-0.398011	-0.257861
C14	C	-3.947793	-0.541533	-0.257136
C15	C	-3.793758	-0.618667	-0.252316
C16	C	-3.888441	-0.691043	-0.183996
C17	C	-3.966464	-0.724890	-0.324174
C18	C	-4.041607	-0.612006	-0.188768
C19	C	-4.119634	-0.645859	-0.329008
C20	C	-4.214430	-0.718198	-0.260674
C21	C	-3.849614	-0.171146	-0.406990
C22	C	-3.891231	-0.170433	-0.501072
C23	C	-4.182936	-0.175415	-0.732892
C24	C	-4.059474	-0.064612	-0.775995
C25	C	-3.967323	-0.169091	-0.673318
C26	C	-4.164879	-0.278545	-0.797844
C27	C	-4.040841	-0.167801	-0.839702
C28	C	-3.843269	-0.058210	-0.715173
C29	C	-3.948747	-0.272239	-0.737028
C30	C	-3.825122	-0.161406	-0.780100
C31	C	-3.924976	-0.169833	-0.577469
C32	C	-4.083168	-0.167049	-0.935547
C33	C	-4.144733	0.061109	-0.255167
C34	C	-4.060369	0.204630	-0.255898
C35	C	-4.179309	-0.165754	-0.106037
C36	C	-4.116930	-0.166460	-0.011954
H37	H	-4.216638	-0.625311	-0.390325
O38	O	-4.327329	-0.389750	-0.840608
C39	C	-4.270526	-0.499112	-0.819837
H40	H	-4.087862	-0.468375	-0.796754
H41	H	-4.344270	-0.540257	-0.767000
C42	C	-4.579959	-0.642262	-0.928051
C43	C	-4.355607	-0.604513	-0.899708
H44	H	-4.632448	-0.707282	-0.977318
H45	H	-4.618235	-0.568584	-0.942044
H46	H	-4.641384	-0.676542	-0.884014
H47	H	-4.294184	-0.570220	-0.943741
H48	H	-4.317323	-0.678188	-0.885724
H49	H	-3.615283	-0.575169	-0.248703
O50	O	-3.680846	0.053123	-0.672590
C51	C	-3.738818	0.162290	-0.692843
H52	H	-3.866490	0.134677	-0.756928
H53	H	-3.805936	0.194980	-0.640801
C54	C	-3.382207	0.308593	-0.619986
C55	C	-3.539003	0.274682	-0.698701
H56	H	-3.258952	0.377924	-0.623596
H57	H	-3.343151	0.235046	-0.606338
H58	H	-3.438166	0.335827	-0.576626
H59	H	-3.483053	0.247433	-0.742057
H60	H	-3.578045	0.348227	-0.712356
H61	H	-4.072728	-0.563011	-0.131486
H62	H	-3.935275	-0.774037	-0.381380
H63	H	-4.106663	0.023179	-0.793397
H64	H	-4.392872	-0.761436	-0.264183
O65	O	-3.645168	-0.154365	-0.804977
C66	C	-3.687139	-0.154780	-0.894150
H67	H	-3.867621	-0.201562	-0.925105
H68	H	-3.628331	-0.050085	-0.907690
C69	C	-3.346953	-0.176005	-0.893434
C70	C	-3.568622	-0.233474	-0.931454
H71	H	-3.273840	-0.224541	-0.916446
H72	H	-3.318671	-0.175720	-0.833356
H73	H	-3.297976	-0.088761	-0.904720
H74	H	-3.617600	-0.320710	-0.920159
H75	H	-3.596909	-0.233774	-0.991532
O76	O	-3.772320	-0.715477	-0.110904
C77	C	-3.551448	-0.664562	-0.106705
H78	H	-3.531398	-0.655237	-0.173950
H79	H	-3.475493	-0.564217	-0.065301
C80	C	-3.464492	-0.768543	0.015380
C81	C	-3.439866	-0.757101	-0.067213
H82	H	-3.395659	-0.825620	0.039744
H83	H	-3.613297	-0.802842	0.012554
H84	H	-3.401197	-0.684916	0.049873
H85	H	-3.503184	-0.840724	-0.101707
H86	H	-3.291069	-0.722817	-0.064392
H87	H	-4.333694	-0.181208	-0.712001
H88	H	-3.901625	-0.360039	-0.719612
