data_functionalizedCrystal
_audit_creation_method	'MofGen! by Chris Wilmer'
_symmetry_space_group_name_H-M	'P1'
_symmetry_Int_Tables_number	1
_symmetry_cell_setting	triclinic
loop_
_symmetry_equiv_pos_as_xyz
  x,y,z
_cell_length_a	12.759401
_cell_length_b	12.759400
_cell_length_c	12.759401
_cell_angle_alpha	90.007440
_cell_angle_beta	90.002448
_cell_angle_gamma	90.014845
loop_
_atom_site_label
_atom_site_type_symbol
_atom_site_fract_x
_atom_site_fract_y
_atom_site_fract_z
Zn1	Zn	1.606089	-0.418450	0.593981
Zn2	Zn	1.606033	-0.594095	0.418301
Zn3	Zn	1.430440	-0.418431	0.418320
Zn4	Zn	1.430380	-0.594088	0.593942
O5	O	1.518235	-0.506266	0.506136
O6	O	1.753103	-0.441760	0.570685
O7	O	1.582742	-0.570788	0.271283
O8	O	1.453789	-0.271412	0.441646
O9	O	1.753061	-0.570806	0.441613
O10	O	1.582838	-0.271426	0.570703
O11	O	1.453735	-0.441728	0.271297
O12	O	1.283411	-0.441721	0.441609
O13	O	1.453686	-0.570794	0.740969
O14	O	1.283367	-0.570776	0.570638
O15	O	1.582779	-0.441754	0.740997
O16	O	1.582683	-0.741115	0.441576
O17	O	1.453632	-0.741110	0.570619
C18	C	1.245268	-0.506247	0.506122
C19	C	1.128491	-0.506264	0.506141
C20	C	1.073634	-0.573570	0.573215
C21	C	0.963910	-0.573583	0.573226
C22	C	0.963911	-0.438981	0.439080
C23	C	1.073633	-0.438963	0.439075
C24	C	1.128493	-0.640870	0.640281
C25	C	1.073635	-0.708182	0.707359
C26	C	0.963911	-0.708196	0.707371
C27	C	0.909044	-0.640897	0.640303
C28	C	1.518173	-0.779233	0.506114
C29	C	1.518243	-0.896010	0.506140
C30	C	1.585514	-0.950840	0.439022
C31	C	1.585579	-1.060564	0.439054
C32	C	1.451091	-1.060619	0.573326
C33	C	1.451032	-0.950896	0.573298
C34	C	1.652724	-0.895953	0.371863
C35	C	1.720000	-0.950783	0.304739
C36	C	1.720065	-1.060507	0.304771
C37	C	1.652853	-1.115401	0.371928
C38	C	1.792269	-0.506286	0.506151
C39	C	1.909045	-0.506295	0.506158
C40	C	1.518232	-0.506275	0.780169
C41	C	1.518231	-0.506279	0.896946
C42	C	1.518327	-0.232233	0.506181
C43	C	1.518365	-0.115456	0.506200
C44	C	1.451021	-0.573471	1.061520
C45	C	1.451019	-0.573465	0.951796
C46	C	1.585442	-0.439088	0.951826
C47	C	1.585438	-0.439090	1.061548
C48	C	1.383812	-0.640669	1.116364
C49	C	1.316599	-0.707859	1.061492
C50	C	1.316597	-0.707853	0.951768
C51	C	1.383807	-0.640656	0.896916
C52	C	1.518230	-0.506283	1.233169
C53	C	1.518229	-0.506288	1.116392
H54	H	1.118299	-0.384149	0.384465
H55	H	1.383808	-0.640684	1.205707
O56	O	1.251196	-0.772964	0.898417
C57	C	1.183370	-0.713149	0.834936
H58	H	1.176902	-0.630403	0.868014
H59	H	1.215854	-0.709529	0.751781
C60	C	1.082082	-0.866108	0.792613
C61	C	1.074131	-0.764480	0.833245
H62	H	1.014700	-0.897772	0.791565
H63	H	1.127780	-0.906408	0.835378
H64	H	1.109156	-0.863077	0.723321
H65	H	1.047070	-0.767513	0.902540
H66	H	1.028426	-0.724182	0.790492
H67	H	1.396255	-0.906254	0.627953
O68	O	1.385834	-1.114102	0.638453
C69	C	1.400329	-1.222703	0.624102
H70	H	1.434813	-1.237689	0.543055
H71	H	1.456243	-1.253773	0.686475
C72	C	1.251696	-1.260710	0.733192
C73	C	1.294041	-1.279118	0.633646
H74	H	1.186134	-1.295512	0.739084
H75	H	1.241932	-1.187544	0.742865
H76	H	1.298300	-1.286603	0.785159
H77	H	1.247443	-1.253214	0.581682
H78	H	1.303795	-1.352281	0.623965
H79	H	1.652676	-0.806610	0.371827
O80	O	0.910574	-0.773425	0.772643
C81	C	0.847102	-0.713733	0.840596
H82	H	0.880178	-0.630992	0.847231
H83	H	0.763942	-0.710073	0.808127
C84	C	0.804803	-0.866867	0.941574
C85	C	0.845432	-0.765245	0.949730
H86	H	0.803768	-0.898643	1.008892
H87	H	0.847561	-0.907084	0.895791
H88	H	0.735506	-0.863803	0.914512
H89	H	0.914732	-0.768312	0.976778
H90	H	0.802685	-0.725030	0.995521
H91	H	1.261871	-0.762560	1.106159
O92	O	1.650585	-0.373770	0.898432
C93	C	1.590793	-0.305891	0.834989
H94	H	1.511162	-0.342940	0.818540
H95	H	1.579273	-0.228032	0.877285
C96	C	1.746412	-0.241367	0.750974
C97	C	1.648611	-0.286875	0.730764
H98	H	1.782079	-0.229632	0.686685
H99	H	1.786697	-0.287095	0.793719
H100	H	1.736799	-0.176489	0.786223
H101	H	1.658227	-0.351756	0.695527
H102	H	1.608330	-0.241157	0.688010
H103	H	1.774728	-0.906083	0.250068
H104	H	1.640160	-0.384378	1.106226
H105	H	1.383797	-0.640654	0.807571
O106	O	0.910454	-0.373721	0.373958
C107	C	0.801847	-0.388156	0.388361
H108	H	0.786862	-0.469291	0.422639
H109	H	0.770715	-0.325929	0.444411
C110	C	0.763914	-0.278732	0.239976
C111	C	0.745508	-0.378387	0.282068
H112	H	0.729159	-0.272701	0.174411
H113	H	0.837084	-0.269003	0.230274
H114	H	0.737970	-0.226887	0.286694
H115	H	0.771463	-0.430229	0.235356
H116	H	0.672340	-0.388124	0.291759
H117	H	1.774852	-1.105147	0.250123
H118	H	1.217835	-0.640869	0.640277
H119	H	1.118314	-0.762968	0.761970
H120	H	1.652919	-1.204746	0.371958
H121	H	0.819700	-0.640904	0.640327
