data_functionalizedCrystal
_audit_creation_method	'MofGen! by Chris Wilmer'
_symmetry_space_group_name_H-M	'P1'
_symmetry_Int_Tables_number	1
_symmetry_cell_setting	triclinic
loop_
_symmetry_equiv_pos_as_xyz
  x,y,z
_cell_length_a	8.559649
_cell_length_b	8.140239
_cell_length_c	9.065218
_cell_angle_alpha	89.998314
_cell_angle_beta	77.397275
_cell_angle_gamma	89.997621
loop_
_atom_site_label
_atom_site_type_symbol
_atom_site_fract_x
_atom_site_fract_y
_atom_site_fract_z
O1	O	2.119401	-0.136587	-0.049968
O2	O	1.655298	-0.136594	0.026097
O3	O	1.896942	-0.136587	-0.227784
O4	O	1.877757	-0.136594	0.203912
O5	O	1.896929	0.136640	-0.227785
O6	O	1.655284	0.136633	0.026096
O7	O	2.119387	0.136640	-0.049969
Zn8	Zn	1.887334	0.180017	-0.011937
Zn9	Zn	1.887352	-0.179971	-0.011936
O10	O	1.877743	0.136633	0.203911
C11	C	1.595845	0.000018	0.031861
C12	C	1.418713	0.000016	0.049020
N13	N	1.887333	0.425700	-0.011940
N14	N	1.887365	-0.425654	-0.011946
C15	C	2.178841	0.000023	-0.055733
C16	C	2.355972	0.000015	-0.072892
C17	C	1.895092	0.000024	-0.282539
C18	C	1.889578	0.000016	-0.445689
C19	C	1.879594	0.000018	0.258667
C20	C	1.885107	0.000015	0.421817
H21	H	1.437769	0.000009	-0.190393
C22	C	1.308203	0.000012	0.207771
N23	N	1.224967	0.000012	0.327340
