data_functionalizedCrystal
_audit_creation_method	'MofGen! by Chris Wilmer'
_symmetry_space_group_name_H-M	'P1'
_symmetry_Int_Tables_number	1
_symmetry_cell_setting	triclinic
loop_
_symmetry_equiv_pos_as_xyz
  x,y,z
_cell_length_a	19.121102
_cell_length_b	25.639239
_cell_length_c	19.120904
_cell_angle_alpha	87.589896
_cell_angle_beta	89.911827
_cell_angle_gamma	87.592882
loop_
_atom_site_label
_atom_site_type_symbol
_atom_site_fract_x
_atom_site_fract_y
_atom_site_fract_z
Zn1	Zn	1.054765	-0.255751	0.442042
Zn2	Zn	1.059658	-0.339618	0.324799
Zn3	Zn	0.942536	-0.248315	0.319827
Zn4	Zn	0.937469	-0.339266	0.437001
O5	O	0.998607	-0.295738	0.380917
O6	O	1.153518	-0.270136	0.430680
O7	O	1.048290	-0.324541	0.226035
O8	O	0.957496	-0.176139	0.336067
O9	O	1.157113	-0.331752	0.344542
O10	O	1.039950	-0.181603	0.425859
O11	O	0.962241	-0.257461	0.222382
O12	O	0.843760	-0.257121	0.331180
O13	O	0.948861	-0.331153	0.535775
O14	O	0.840037	-0.323942	0.417267
O15	O	1.035037	-0.269795	0.539478
O16	O	1.043377	-0.412733	0.339654
O17	O	0.953605	-0.412475	0.422089
C18	C	0.816461	-0.289687	0.373137
C19	C	0.738537	-0.287111	0.369826
C20	C	0.700012	-0.320740	0.413021
C21	C	0.626794	-0.318313	0.409912
C22	C	0.592104	-0.282260	0.363605
C23	C	0.630634	-0.248627	0.320408
C24	C	0.703850	-0.251052	0.323520
C25	C	0.371134	-0.273194	0.351972
C26	C	0.297913	-0.270773	0.348862
C27	C	0.294078	-0.340458	0.438367
C28	C	0.367296	-0.342882	0.441472
C29	C	0.405820	-0.309247	0.398278
C30	C	0.517264	-0.279779	0.360425
C31	C	0.480658	-0.311726	0.401462
C32	C	0.998491	-0.431575	0.380880
C33	C	0.998504	-0.489690	0.380890
C34	C	1.045465	-0.850185	0.338075
C35	C	1.045491	-0.904791	0.338085
O36	O	1.085298	-0.933135	0.301642
N37	N	0.998728	-0.931982	0.380969
C38	C	0.951940	-0.904565	0.423850
O39	O	0.912167	-0.932708	0.460327
C40	C	0.951917	-0.849961	0.423843
C41	C	0.998679	-0.822772	0.380951
C42	C	1.092223	-0.822997	0.295188
C43	C	1.092195	-0.768395	0.295176
C44	C	1.045409	-0.740982	0.338052
C45	C	0.998651	-0.768171	0.380940
C46	C	0.905133	-0.822546	0.466727
C47	C	0.905115	-0.767938	0.466716
C48	C	0.951876	-0.740749	0.423825
C49	C	0.951837	-0.686156	0.423805
N50	N	0.998600	-0.658965	0.380921
C51	C	1.045386	-0.686378	0.338045
C52	C	0.951992	-1.019238	0.423863
C53	C	0.952011	-1.073841	0.423867
C54	C	1.045564	-1.074063	0.338103
C55	C	1.045541	-1.019459	0.338096
C56	C	0.998756	-0.992047	0.380980
C57	C	1.045324	-0.571710	0.338024
C58	C	1.045290	-0.517103	0.338014
C59	C	0.951740	-0.516886	0.423780
C60	C	0.951771	-0.571488	0.423788
C61	C	0.998569	-0.598899	0.380907
O62	O	0.912052	-0.657777	0.460232
O63	O	1.085159	-0.658229	0.301581
C64	C	1.181464	-0.301813	0.388728
C65	C	1.259387	-0.304401	0.392057
C66	C	0.990838	-0.301264	0.563775
C67	C	0.987527	-0.303619	0.641698
C68	C	0.998742	-0.159371	0.380971
C69	C	0.998800	-0.101259	0.380993
C70	C	1.006386	-0.290196	0.198772
C71	C	1.009833	-0.287698	0.120856
C72	C	1.030837	-0.272781	0.680236
C73	C	1.027718	-0.274992	0.753453
C74	C	0.981292	-0.308044	0.788130
C75	C	0.937977	-0.338883	0.749587
C76	C	0.941093	-0.336669	0.676372
C77	C	0.969635	-0.316324	1.009097
C78	C	0.966523	-0.318536	1.082318
C79	C	1.056263	-0.254644	1.086178
C80	C	1.059378	-0.252436	1.012961
C81	C	1.016061	-0.283273	0.974424
C82	C	0.978104	-0.310306	0.862970
C83	C	1.019246	-0.281008	0.899586
H84	H	0.262704	-0.367840	0.473534
H85	H	1.083618	-0.997325	0.303171
O86	O	0.906321	-0.597823	0.465514
C87	C	0.865007	-0.561914	0.503339
H88	H	0.893594	-0.523991	0.507000
H89	H	0.855150	-0.579096	0.558254
H90	H	0.812871	-0.553619	0.475351
O91	O	0.899105	-0.366708	0.638965
C92	C	0.913607	-0.419864	0.657502
H93	H	0.968752	-0.424969	0.680031
H94	H	0.909602	-0.444037	0.609082
H95	H	0.874196	-0.433571	0.698381
O96	O	0.483530	-0.244829	0.315372
C97	C	0.443048	-0.271766	0.268235
H98	H	0.465270	-0.313534	0.264727
H99	H	0.444495	-0.251132	0.214296
H100	H	0.386647	-0.272416	0.287564
H101	H	0.867052	-0.844673	0.501650
H102	H	0.900174	-0.365793	0.777828
O103	O	1.064248	-0.248870	0.865824
C104	C	1.026168	-0.212487	0.821794
H105	H	0.973485	-0.228828	0.808550
H106	H	1.056918	-0.204875	0.771531
H107	H	1.017308	-0.174339	0.849696
H108	H	1.083369	-0.494968	0.303084
O109	O	1.090805	-0.598249	0.296303
C110	C	1.132075	-0.562534	0.258464
H111	H	1.103440	-0.522609	0.254789
H112	H	1.141950	-0.576895	0.203555
H113	H	1.184204	-0.559219	0.286450
O114	O	1.137654	-0.741933	0.253616
C115	C	1.181204	-0.713023	0.295496
H116	H	1.154172	-0.705625	0.347543
H117	H	1.191826	-0.674078	0.267341
H118	H	1.232827	-0.735987	0.305469
O119	O	0.859762	-0.741292	0.508452
C120	C	0.897700	-0.712344	0.555449
H121	H	0.952735	-0.730718	0.562182
H122	H	0.870012	-0.712518	0.608297
H123	H	0.901030	-0.670390	0.533872
O124	O	0.400881	-0.377919	0.486518
C125	C	0.351177	-0.407091	0.523964
H126	H	0.298898	-0.384026	0.524230
H127	H	0.369994	-0.415105	0.580085
H128	H	0.344445	-0.445731	0.497859
O129	O	1.137698	-0.849538	0.253467
C130	C	1.178969	-0.813822	0.215632
H131	H	1.150336	-0.773896	0.211962
H132	H	1.188843	-0.828178	0.160721
H133	H	1.231099	-0.810510	0.243618
H134	H	0.934373	-0.341441	0.977730
H135	H	0.913645	-0.494558	0.458687
O136	O	0.733596	-0.355778	0.458066
C137	C	0.683889	-0.384946	0.495513
H138	H	0.631611	-0.361880	0.495772
H139	H	0.702702	-0.392956	0.551635
H140	H	0.677159	-0.423588	0.469412
O141	O	0.589340	-0.350911	0.451944
C142	C	0.545085	-0.321171	0.495494
H143	H	0.566992	-0.280862	0.500868
H144	H	0.541966	-0.341750	0.549362
H145	H	0.490511	-0.316854	0.471469
O146	O	1.069813	-0.245111	0.790971
C147	C	1.113270	-0.277658	0.835243
H148	H	1.088041	-0.316791	0.845134
H149	H	1.120483	-0.258229	0.887140
H150	H	1.166423	-0.284272	0.809256
O151	O	0.933049	-0.342485	0.896584
C152	C	0.949092	-0.394564	0.879349
H153	H	0.978298	-0.394941	0.827340
H154	H	0.898581	-0.416253	0.874680
H155	H	0.983370	-0.414611	0.922091
H156	H	0.269669	-0.241408	0.311157
H157	H	0.602383	-0.219270	0.282707
O158	O	0.906505	-0.992551	0.465417
C159	C	0.862926	-0.958312	0.423529
H160	H	0.889949	-0.949337	0.371480
H161	H	0.852270	-0.920467	0.451674
H162	H	0.811321	-0.977445	0.413563
O163	O	1.091037	-1.100782	0.296570
C164	C	1.081039	-1.154808	0.305794
H165	H	1.055673	-1.163119	0.358870
H166	H	1.133779	-1.177109	0.303418
H167	H	1.045581	-1.167881	0.262556
O168	O	0.921359	-0.350655	1.115894
C169	C	0.883806	-0.377408	1.066182
H170	H	0.883617	-0.354335	1.013896
H171	H	0.827667	-0.381787	1.084977
H172	H	0.909768	-0.417733	1.059475
O173	O	1.076009	-0.240750	0.646523
C174	C	1.123053	-0.270735	0.606082
H175	H	1.126409	-0.312723	0.628313
H176	H	1.177057	-0.253589	0.607567
H177	H	1.103736	-0.270138	0.549666
O178	O	0.408444	-0.240500	0.309945
C179	C	0.362122	-0.208151	0.268420
H180	H	0.310022	-0.227765	0.263717
H181	H	0.385616	-0.201535	0.214097
H182	H	0.353271	-0.168997	0.293865
H183	H	0.735217	-0.223665	0.288350
H184	H	0.913927	-1.095973	0.458787
O185	O	1.104492	-0.220282	0.979387
C186	C	1.142064	-0.193547	1.029103
H187	H	1.111130	-0.192359	1.080066
H188	H	1.150484	-0.151963	1.008284
H189	H	1.194957	-0.214697	1.039159
H190	H	1.091528	-0.229538	1.117562
O191	O	0.514277	-0.346816	0.446406
C192	C	0.497016	-0.397848	0.430181
H193	H	0.444993	-0.396328	0.400972
H194	H	0.492362	-0.422798	0.480612
H195	H	0.539735	-0.415685	0.395841
