data_functionalizedCrystal
_audit_creation_method	'MofGen! by Chris Wilmer'
_symmetry_space_group_name_H-M	'P1'
_symmetry_Int_Tables_number	1
_symmetry_cell_setting	triclinic
loop_
_symmetry_equiv_pos_as_xyz
  x,y,z
_cell_length_a	15.297475
_cell_length_b	13.897448
_cell_length_c	15.296720
_cell_angle_alpha	80.353909
_cell_angle_beta	88.382886
_cell_angle_gamma	80.320483
loop_
_atom_site_label
_atom_site_type_symbol
_atom_site_fract_x
_atom_site_fract_y
_atom_site_fract_z
Zn1	Zn	1.253455	-0.750725	0.726608
Zn2	Zn	1.753455	-0.250725	1.226608
Zn3	Zn	1.278728	-0.889621	0.580126
Zn4	Zn	1.778728	-0.389621	1.080126
Zn5	Zn	1.132329	-0.696535	0.554848
Zn6	Zn	1.632329	-0.196535	1.054848
Zn7	Zn	1.106953	-0.880140	0.701254
Zn8	Zn	1.606953	-0.380140	1.201254
O9	O	1.192866	-0.804255	0.640709
O10	O	1.692866	-0.304255	1.140709
O11	O	1.379388	-0.795796	0.728367
O12	O	1.879388	-0.295796	1.228367
O13	O	1.280504	-0.845298	0.454198
O14	O	1.780504	-0.345298	0.954198
O15	O	1.148440	-0.568756	0.577665
O16	O	1.648440	-0.068756	1.077665
O17	O	1.397955	-0.897843	0.620747
O18	O	1.897955	-0.397843	1.120747
O19	O	1.237431	-0.608569	0.703856
O20	O	1.737431	-0.108569	1.203856
O21	O	1.172946	-0.703438	0.435627
O22	O	1.672946	-0.203438	0.935627
O23	O	1.006383	-0.694244	0.553080
O24	O	1.506383	-0.194244	1.053080
O25	O	1.105191	-0.881683	0.827192
O26	O	1.605191	-0.381683	1.327192
O27	O	0.987740	-0.829138	0.660644
O28	O	1.487740	-0.329138	1.160644
O29	O	1.212825	-0.786602	0.845820
O30	O	1.712825	-0.286602	1.345820
O31	O	1.255899	-1.023331	0.596162
O32	O	1.755899	-0.523331	1.096162
O33	O	1.129697	-1.016365	0.685154
O34	O	1.629697	-0.516365	1.185154
C35	C	0.965278	-0.754783	0.601368
C36	C	1.465278	-0.254783	1.101368
C37	C	0.867911	-0.733644	0.584559
C38	C	1.367911	-0.233644	1.084559
C39	C	0.554781	-0.955341	0.760852
C40	C	1.054781	-0.455341	1.260852
C41	C	0.646262	-0.975208	0.776642
C42	C	1.146262	-0.475208	1.276642
C43	C	0.701679	-0.914818	0.728623
C44	C	1.201679	-0.414818	1.228623
C45	C	0.665605	-0.834559	0.664810
C46	C	1.165605	-0.334559	1.164810
C47	C	0.574115	-0.814694	0.649012
C48	C	1.074115	-0.314694	1.149012
C49	C	0.721013	-0.774172	0.616784
C50	C	1.221013	-0.274172	1.116784
C51	C	0.684939	-0.693913	0.552970
C52	C	1.184939	-0.193913	1.052970
C53	C	0.593458	-0.674051	0.537176
C54	C	1.093458	-0.174051	1.037176
C55	C	0.538042	-0.734441	0.585196
C56	C	1.038042	-0.234441	1.085196
C57	C	0.812503	-0.794037	0.632581
C58	C	1.312503	-0.294037	1.132581
C59	C	0.831837	-0.653391	0.520742
C60	C	1.331837	-0.153391	1.020742
C61	C	0.740356	-0.633523	0.504951
C62	C	1.240356	-0.133523	1.004951
C63	C	1.192807	-1.054852	0.640673
C64	C	1.692807	-0.554852	1.140673
C65	C	1.192856	-1.162080	0.640700
C66	C	1.692856	-0.662080	1.140700
C67	C	1.192939	-1.358403	0.640771
C68	C	1.692939	-0.858403	1.140771
C69	C	1.192890	-1.249155	0.640734
C70	C	1.692890	-0.749155	1.140734
C71	C	1.421344	-0.853922	0.680204
C72	C	1.921344	-0.353922	1.180204
C73	C	1.518707	-0.875087	0.697035
C74	C	2.018707	-0.375087	1.197035
C75	C	1.153358	-0.839129	0.869177
C76	C	1.653358	-0.339129	1.369177
C77	C	1.136522	-0.853991	0.966536
C78	C	1.636522	-0.353991	1.466536
C79	C	1.192947	-0.552688	0.640769
C80	C	1.692947	-0.052688	1.140769
C81	C	1.192981	-0.445485	0.640795
C82	C	1.692981	0.054515	1.140795
C83	C	1.232271	-0.769458	0.413139
C84	C	1.732271	-0.269458	0.913139
C85	C	1.249277	-0.754362	0.315809
C86	C	1.749277	-0.254362	0.815809
C87	C	1.313229	-0.697877	1.279771
C88	C	1.813229	-0.197877	1.779771
C89	C	1.329053	-0.683917	1.188298
C90	C	1.829053	-0.183917	1.688298
C91	C	1.280921	-0.726434	1.132853
C92	C	1.780921	-0.226434	1.632853
C93	C	1.216964	-0.782914	1.168890
C94	C	1.716964	-0.282914	1.668890
C95	C	1.201143	-0.796882	1.260373
C96	C	1.701143	-0.296882	1.760373
C97	C	1.168836	-0.825439	1.113455
C98	C	1.668836	-0.325439	1.613455
C99	C	1.104878	-0.881919	1.149492
C100	C	1.604878	-0.381919	1.649492
C101	C	1.089060	-0.895883	1.240966
C102	C	1.589060	-0.395883	1.740966
C103	C	1.137191	-0.853367	1.296411
C104	C	1.637191	-0.353367	1.796411
C105	C	1.184656	-0.811471	1.021973
C106	C	1.684656	-0.311471	1.521973
C107	C	1.072570	-0.910475	1.002574
C108	C	1.572570	-0.410475	1.502574
C109	C	1.056746	-0.924435	1.094047
C110	C	1.556746	-0.424435	1.594047
H111	H	0.463549	-0.718267	0.572344
H112	H	0.963549	-0.218267	1.072344
Br113	Br	0.479575	-1.037309	0.825990
Br114	Br	0.979575	-0.537309	1.325990
H115	H	1.352416	-0.663273	1.324923
H116	H	1.852416	-0.163273	1.824923
Br117	Br	1.002278	-0.972559	1.289876
Br118	Br	1.502278	-0.472559	1.789876
Br119	Br	0.861449	-0.902958	0.719181
Br120	Br	1.361449	-0.402958	1.219181
H121	H	1.033379	-0.945098	0.957431
H122	H	1.533379	-0.445098	1.457431
H123	H	0.776167	-0.930999	0.741484
H124	H	1.276167	-0.430999	1.241484
H125	H	1.004671	-0.970421	1.123402
H126	H	1.504671	-0.470421	1.623402
Br127	Br	0.544504	-0.565137	0.450563
Br128	Br	1.044504	-0.065137	0.950563
Br129	Br	0.695215	-1.084129	0.863239
Br130	Br	1.195215	-0.584129	1.363239
Br131	Br	0.691387	-0.524601	0.418352
Br132	Br	1.191387	-0.024601	0.918352
Br133	Br	0.907039	-0.571435	0.455562
Br134	Br	1.407039	-0.071435	0.955562
H135	H	1.236730	-0.765483	0.992640
H136	H	1.736730	-0.265483	1.492640
H137	H	1.293809	-0.715064	1.058373
H138	H	1.793809	-0.215064	1.558373
Br139	Br	1.115721	-0.872315	1.420560
Br140	Br	1.615721	-0.372315	1.920560
Br141	Br	1.415850	-0.607272	1.139397
Br142	Br	1.915850	-0.107272	1.639397
