data_functionalizedCrystal
_audit_creation_method	'MofGen! by Chris Wilmer'
_symmetry_space_group_name_H-M	'P1'
_symmetry_Int_Tables_number	1
_symmetry_cell_setting	triclinic
loop_
_symmetry_equiv_pos_as_xyz
  x,y,z
_cell_length_a	16.109295
_cell_length_b	10.065875
_cell_length_c	16.109301
_cell_angle_alpha	81.214708
_cell_angle_beta	96.539666
_cell_angle_gamma	81.258551
loop_
_atom_site_label
_atom_site_type_symbol
_atom_site_fract_x
_atom_site_fract_y
_atom_site_fract_z
O1	O	-1.115293	0.113403	0.094630
O2	O	-0.873233	0.113427	0.107932
O3	O	-1.000911	0.113400	-0.019749
O4	O	-0.987615	0.113430	0.222311
O5	O	-0.976565	-0.113583	0.004696
O6	O	-0.848886	-0.113557	0.132376
O7	O	-1.090947	-0.113581	0.119075
Zn8	Zn	-0.966051	-0.149607	0.129607
Zn9	Zn	-0.998129	0.149454	0.097400
O10	O	-0.963268	-0.113554	0.246755
C11	C	-0.830085	-0.000062	0.119616
C12	C	-0.737790	-0.000054	0.118002
N13	N	-0.944165	-0.353708	0.151586
C14	C	-0.515517	-0.000059	0.190014
C15	C	-0.428795	-0.000068	0.188493
C16	C	-0.448668	-0.000080	0.037005
C17	C	-0.535387	-0.000082	0.038528
C18	C	-0.568810	-0.000064	0.115035
C19	C	-0.395369	-0.000071	0.111990
C20	C	-0.301342	-0.000080	0.110340
C21	C	-0.662842	-0.000058	0.116686
C22	C	-0.990508	-0.421497	0.105042
C23	C	-0.973671	-0.578660	0.121965
C24	C	-0.134094	-0.000087	0.107395
C25	C	-0.226388	-0.000082	0.109023
C26	C	-0.988199	-0.000092	-0.038501
C27	C	-0.986584	-0.000094	-0.130796
N28	N	-1.020021	0.353555	0.075414
C29	C	-1.058593	-0.000079	-0.353072
C30	C	-1.057070	-0.000068	-0.439793
C31	C	-0.905582	-0.000058	-0.419917
C32	C	-0.907107	-0.000060	-0.333198
C33	C	-0.983614	-0.000077	-0.299777
C34	C	-0.980567	-0.000064	-0.473218
C35	C	-0.978915	-0.000052	-0.567245
C36	C	-0.985267	-0.000087	-0.205744
C37	C	-0.975981	-0.000059	0.265507
C38	C	-0.977597	-0.000048	0.357801
H39	H	-0.385407	-0.000067	0.249549
H40	H	-0.542725	-0.000055	0.252312
H41	H	-0.421444	-0.000103	-0.025283
H42	H	-1.118126	-0.000066	-0.483183
H43	H	-1.120891	-0.000090	-0.325864
H44	H	-0.846047	-0.000054	-0.289803
N45	N	-0.592874	-0.000103	-0.042344
H46	H	-0.558544	-0.000106	-0.091043
H47	H	-0.638313	0.084038	-0.054074
N48	N	-1.059558	-0.344268	0.035640
H49	H	-1.061790	-0.242942	0.033380
H50	H	-1.115935	-0.369138	0.047739
H51	H	-0.843292	-0.000047	-0.447139
H52	H	-0.921522	-0.636971	0.174342
H53	H	-1.072164	-0.588135	0.023030
H54	H	-0.892020	-0.412024	0.203960
