data_functionalizedCrystal
_audit_creation_method	'MofGen! by Chris Wilmer'
_symmetry_space_group_name_H-M	'P1'
_symmetry_Int_Tables_number	1
_symmetry_cell_setting	triclinic
loop_
_symmetry_equiv_pos_as_xyz
  x,y,z
_cell_length_a	15.538191
_cell_length_b	10.489741
_cell_length_c	14.750779
_cell_angle_alpha	77.226586
_cell_angle_beta	97.572172
_cell_angle_gamma	65.905634
loop_
_atom_site_label
_atom_site_type_symbol
_atom_site_fract_x
_atom_site_fract_y
_atom_site_fract_z
O1	O	1.226910	-0.375937	-0.079837
O2	O	0.953648	-0.229122	-0.079837
O3	O	1.096498	-0.491086	-0.079831
O4	O	1.084059	-0.113973	-0.079843
O5	O	1.136881	-0.565134	0.079820
O6	O	0.994030	-0.303170	0.079815
O7	O	1.267292	-0.449985	0.079814
Zn8	Zn	1.137073	-0.388334	0.105163
Zn9	Zn	1.083867	-0.290773	-0.105185
O10	O	1.124442	-0.188021	0.079809
C11	C	0.938847	-0.250786	-0.000011
C12	C	0.834584	-0.205032	-0.000010
C13	C	0.543710	-0.659589	-0.000011
C14	C	0.445735	-0.616562	-0.000013
C15	C	0.424932	-0.374552	-0.000021
C16	C	0.522908	-0.417560	-0.000014
C17	C	0.582289	-0.560080	-0.000010
C18	C	0.561488	-0.318051	-0.000013
C19	C	0.659454	-0.361054	-0.000011
C20	C	0.718840	-0.503566	-0.000011
C21	C	0.680255	-0.603083	-0.000009
C22	C	0.502103	-0.175529	-0.000023
C23	C	0.540683	-0.076020	-0.000022
C24	C	0.638652	-0.119026	-0.000013
C25	C	0.698039	-0.261538	-0.000013
C26	C	0.677237	-0.019509	-0.000015
C27	C	0.775203	-0.062512	-0.000014
C28	C	0.796005	-0.304540	-0.000011
C29	C	1.115750	-0.575195	-0.000006
C30	C	1.112940	-0.715488	-0.000008
C31	C	1.022047	-0.740411	-0.000014
C32	C	1.084893	-0.889457	0.078702
C33	C	1.045101	-0.816436	-0.078702
C34	C	1.175840	-0.862716	0.078774
C35	C	1.136017	-0.789647	-0.078701
C36	C	1.198935	-0.938706	0.000035
C37	C	1.282092	-0.428320	-0.000014
C38	C	1.386354	-0.474071	-0.000020
C39	C	1.105189	-0.103911	-0.000018
C40	C	1.107998	0.036385	-0.000023
N41	N	1.173391	-0.454921	0.248720
N42	N	1.047557	-0.224199	-0.248742
C43	C	0.946125	-0.038287	0.600530
C44	C	0.971581	-0.084942	0.701030
C45	C	1.098102	-0.316860	0.700997
C46	C	1.072654	-0.270227	0.600495
C47	C	0.996665	-0.130939	0.550269
C48	C	1.123193	-0.362879	0.550235
C49	C	1.097750	-0.316246	0.449741
C50	C	1.021766	-0.176962	0.399508
C51	C	0.971221	-0.084307	0.449776
C52	C	1.199186	-0.502162	0.600462
C53	C	1.249726	-0.594814	0.550202
C54	C	1.224278	-0.548186	0.449707
C55	C	1.148295	-0.408902	0.399474
C56	C	1.274823	-0.640842	0.399439
C57	C	1.249379	-0.594209	0.298946
C58	C	1.122851	-0.362270	0.298980
H59	H	0.592063	-0.775645	-0.000003
H60	H	0.989797	-0.798241	-0.145257
Cl61	Cl	0.823707	0.062587	-0.000014
H62	H	0.947337	-0.655267	0.000065
H63	H	1.060966	-0.248853	0.258085
H64	H	1.001054	-0.138994	0.317680
H65	H	1.273743	-1.023712	0.000078
Cl66	Cl	1.370358	-0.815932	0.462590
H67	H	1.063268	-0.933050	0.145251
H68	H	0.414329	-0.697605	-0.000016
Cl69	Cl	0.378944	-0.121469	-0.000025
H70	H	0.376570	-0.258511	-0.000027
H71	H	0.930420	-0.009480	0.741947
H72	H	1.159976	-0.430268	0.741903
H73	H	1.311600	-0.708222	0.591107
H74	H	1.219903	-0.540122	0.682290
H75	H	1.231116	-0.881053	0.145397
Cl76	Cl	1.169354	-0.722259	-0.181454
Cl77	Cl	0.875680	0.090795	0.386631
Cl78	Cl	1.312920	-0.710688	0.235760
Cl79	Cl	0.466023	0.103143	-0.000032
Cl80	Cl	0.754917	-0.782259	0.000008
Cl81	Cl	0.870666	-0.483717	0.000005
Cl82	Cl	0.850584	0.136814	0.537385
H83	H	0.798607	-0.538570	-0.000022
H84	H	0.628872	0.096534	-0.000028
