data_functionalizedCrystal
_audit_creation_method	'MofGen! by Chris Wilmer'
_symmetry_space_group_name_H-M	'P1'
_symmetry_Int_Tables_number	1
_symmetry_cell_setting	triclinic
loop_
_symmetry_equiv_pos_as_xyz
  x,y,z
_cell_length_a	12.827893
_cell_length_b	17.077384
_cell_length_c	17.077402
_cell_angle_alpha	89.913243
_cell_angle_beta	90.023463
_cell_angle_gamma	89.941526
loop_
_atom_site_label
_atom_site_type_symbol
_atom_site_fract_x
_atom_site_fract_y
_atom_site_fract_z
Zn1	Zn	1.598015	-0.443809	-0.312050
Zn2	Zn	1.597765	-0.312545	-0.443460
Zn3	Zn	1.423137	-0.312561	-0.312213
Zn4	Zn	1.423217	-0.443773	-0.443278
O5	O	1.510534	-0.378172	-0.377750
O6	O	1.744218	-0.426405	-0.329490
O7	O	1.574462	-0.202700	-0.426195
O8	O	1.446406	-0.329993	-0.202344
O9	O	1.744034	-0.329966	-0.426037
O10	O	1.574888	-0.426421	-0.202224
O11	O	1.446164	-0.202712	-0.329767
O12	O	1.276912	-0.329959	-0.329590
O13	O	1.446543	-0.553625	-0.425725
O14	O	1.276971	-0.426360	-0.425883
O15	O	1.574966	-0.553652	-0.329313
O16	O	1.574540	-0.329931	-0.553283
O17	O	1.446300	-0.426344	-0.553149
C18	C	1.239024	-0.378157	-0.377735
C19	C	1.122871	-0.378170	-0.377747
C20	C	1.510337	-0.174224	-0.377962
C21	C	1.510430	-0.086974	-0.377856
C22	C	1.510430	-0.378149	-0.581698
C23	C	1.510481	-0.378165	-0.668948
C24	C	1.071143	-0.425798	-0.425471
C25	C	0.951092	-0.425812	-0.425485
C26	C	1.783104	-0.378188	-0.377766
C27	C	1.899257	-0.378194	-0.377773
C28	C	1.510791	-0.582917	-0.377481
C29	C	1.510901	-0.670167	-0.377366
C30	C	1.443193	-0.046027	-0.327971
C31	C	1.443289	0.035953	-0.327870
C32	C	1.510618	0.076984	-0.377660
C33	C	1.577862	0.036032	-0.427547
C34	C	1.577770	-0.045947	-0.427643
C35	C	1.578047	0.206901	-0.427345
C36	C	1.578138	0.288886	-0.427251
C37	C	1.443566	0.288801	-0.327573
C38	C	1.443474	0.206822	-0.327669
C39	C	1.510717	0.165875	-0.377557
C40	C	1.577345	-0.428415	-0.709808
C41	C	1.577389	-0.428432	-0.791789
C42	C	1.510573	-0.378194	-0.832907
C43	C	1.443702	-0.327942	-0.792041
C44	C	1.443653	-0.327930	-0.710062
C45	C	1.443809	-0.327969	-0.962911
C46	C	1.443859	-0.327980	-1.044896
C47	C	1.577545	-0.428472	-1.044637
C48	C	1.577497	-0.428460	-0.962658
C49	C	1.510626	-0.378206	-0.921798
C50	C	1.510666	-0.378213	-0.173006
C51	C	1.510723	-0.378230	-0.085756
H52	H	1.115733	-0.466568	-0.466315
C53	C	0.891005	-0.480903	-0.480685
C54	C	0.815869	-0.446739	-0.542263
C55	C	0.755780	-0.501831	-0.597465
C56	C	0.770827	-0.591088	-0.591089
C57	C	0.845967	-0.625256	-0.529508
C58	C	0.906056	-0.570164	-0.474306
H59	H	0.804728	-0.380661	-0.546985
H60	H	0.700157	-0.476537	-0.643051
H61	H	0.726346	-0.631871	-0.631953
H62	H	0.857108	-0.691334	-0.524786
H63	H	0.961679	-0.595458	-0.428720
C64	C	1.062643	-0.323093	-0.322561
C65	C	1.077407	-0.233833	-0.328934
C66	C	1.017183	-0.178754	-0.273746
C67	C	0.942195	-0.212935	-0.212185
C68	C	0.927428	-0.302200	-0.205810
C69	C	0.987652	-0.357279	-0.260998
H70	H	1.132920	-0.208526	-0.374507
H71	H	1.028115	-0.112674	-0.278466
H72	H	0.897614	-0.172163	-0.171332
H73	H	0.871915	-0.327507	-0.160237
H74	H	0.976720	-0.423359	-0.256279
H75	H	1.631993	-0.469391	-1.077910
C76	C	1.370204	-0.272679	-0.837271
C77	C	1.415513	-0.211088	-0.893699
C78	C	1.342017	-0.155822	-0.938928
C79	C	1.223212	-0.162146	-0.927728
C80	C	1.177897	-0.223740	-0.871297
C81	C	1.251393	-0.279006	-0.826069
H82	H	1.503465	-0.206404	-0.901992
H83	H	1.375563	-0.110226	-0.980702
H84	H	1.168806	-0.121235	-0.961209
H85	H	1.089945	-0.228424	-0.863004
H86	H	1.217847	-0.324602	-0.784295
H87	H	1.631759	-0.469322	-0.676335
H88	H	0.943735	-0.337413	-0.336915
C89	C	1.369330	0.080998	-0.272997
C90	C	1.287667	0.137571	-0.307387
C91	C	1.213708	0.182618	-0.252509
C92	C	1.221412	0.171093	-0.163242
C93	C	1.303079	0.114518	-0.128848
C94	C	1.377038	0.069471	-0.183725
H95	H	1.281960	0.146105	-0.373472
H96	H	1.153253	0.224498	-0.277971
H97	H	1.166663	0.204439	-0.122619
H98	H	1.308785	0.105984	-0.062763
H99	H	1.437493	0.027590	-0.158263
C100	C	1.369129	-0.091159	-0.273201
C101	C	1.250404	-0.079700	-0.280232
C102	C	1.176340	-0.124829	-0.225458
C103	C	1.221002	-0.181417	-0.163654
C104	C	1.339733	-0.192879	-0.156621
C105	C	1.413797	-0.147750	-0.211394
H106	H	1.217337	-0.037807	-0.325985
H107	H	1.088447	-0.116344	-0.230665
H108	H	1.166175	-0.214825	-0.123108
H109	H	1.372799	-0.234772	-0.110867
H110	H	1.501689	-0.156235	-0.206187
H111	H	1.632808	0.173565	-0.467967
H112	H	1.389447	-0.287075	-1.078372
C113	C	1.650949	-0.483706	-0.836730
C114	C	1.769738	-0.477367	-0.825389
C115	C	1.843303	-0.532645	-0.870328
C116	C	1.798079	-0.594262	-0.926608
C117	C	1.679284	-0.600604	-0.937951
C118	C	1.605719	-0.545326	-0.893013
H119	H	1.803221	-0.431752	-0.783725
H120	H	1.931243	-0.527950	-0.861930
H121	H	1.852536	-0.635182	-0.959874
H122	H	1.645801	-0.646218	-0.979615
H123	H	1.517779	-0.550021	-0.901410
C124	C	1.369606	0.333839	-0.272687
C125	C	1.369710	0.424012	-0.272571
C126	C	1.295750	0.469054	-0.217689
C127	C	1.221687	0.423922	-0.162924
C128	C	1.221580	0.333743	-0.163039
C129	C	1.295540	0.288702	-0.217921
H130	H	1.424538	0.457426	-0.313112
H131	H	1.295829	0.535810	-0.217604
H132	H	1.166937	0.457264	-0.122298
H133	H	1.166751	0.300329	-0.122497
H134	H	1.295460	0.221946	-0.218005
C135	C	1.651910	0.081171	-0.482323
C136	C	1.733701	0.137335	-0.447814
C137	C	1.807741	0.182475	-0.502597
C138	C	1.799989	0.171450	-0.591889
C139	C	1.718194	0.115283	-0.626403
C140	C	1.644154	0.070143	-0.571620
H141	H	1.739443	0.145499	-0.381710
H142	H	1.868291	0.224054	-0.477047
H143	H	1.854797	0.204865	-0.632443
H144	H	1.712452	0.107119	-0.692507
H145	H	1.583604	0.028564	-0.597171
H146	H	1.388643	0.173417	-0.287130
C147	C	1.651722	-0.090995	-0.482522
C148	C	1.644005	-0.079477	-0.571789
C149	C	1.717960	-0.124526	-0.626669
C150	C	1.799632	-0.181092	-0.592280
C151	C	1.807352	-0.192613	-0.503008
C152	C	1.733397	-0.147564	-0.448129
H153	H	1.583544	-0.037601	-0.597250
H154	H	1.712245	-0.115997	-0.692754
H155	H	1.854378	-0.214440	-0.632905
H156	H	1.867813	-0.234489	-0.477548
H157	H	1.739113	-0.156093	-0.382044
H158	H	1.389352	-0.287050	-0.929645
H159	H	1.632988	0.322292	-0.467774
C160	C	1.370104	-0.272652	-0.665112
C161	C	1.296609	-0.217388	-0.710337
C162	C	1.223053	-0.162112	-0.665389
C163	C	1.222993	-0.162099	-0.575215
C164	C	1.296491	-0.217364	-0.529985
C165	C	1.370046	-0.272641	-0.574934
H166	H	1.296651	-0.217396	-0.777094
H167	H	1.168645	-0.121200	-0.698871
H168	H	1.168542	-0.121179	-0.541941
H169	H	1.296448	-0.217356	-0.463229
H170	H	1.424454	-0.313552	-0.541451
H171	H	1.631908	-0.469363	-0.929180
