data_functionalizedCrystal
_audit_creation_method	'MofGen! by Chris Wilmer'
_symmetry_space_group_name_H-M	'P1'
_symmetry_Int_Tables_number	1
_symmetry_cell_setting	triclinic
loop_
_symmetry_equiv_pos_as_xyz
  x,y,z
_cell_length_a	16.109302
_cell_length_b	17.019294
_cell_length_c	15.186229
_cell_angle_alpha	93.883247
_cell_angle_beta	90.005906
_cell_angle_gamma	83.427801
loop_
_atom_site_label
_atom_site_type_symbol
_atom_site_fract_x
_atom_site_fract_y
_atom_site_fract_z
O1	O	1.103040	0.101398	0.080956
O2	O	1.603040	0.601398	0.580956
O3	O	0.860966	0.114016	0.081905
O4	O	1.360966	0.614016	0.581905
O5	O	0.988756	-0.007127	0.072719
O6	O	1.488756	0.492873	0.572719
O7	O	0.975250	0.222541	0.090142
O8	O	1.475250	0.722541	0.590142
O9	O	0.988746	-0.007130	-0.073739
O10	O	1.488746	0.492870	0.426261
O11	O	0.860957	0.114013	-0.064552
O12	O	1.360957	0.614013	0.435448
O13	O	1.103030	0.101395	-0.065502
O14	O	1.603030	0.601395	0.434498
Zn15	Zn	0.981992	0.107704	-0.088280
Zn16	Zn	1.481992	0.607704	0.411720
Zn17	Zn	0.982005	0.107707	0.104684
Zn18	Zn	1.482005	0.607707	0.604684
O19	O	0.975240	0.222539	-0.056315
O20	O	1.475240	0.722539	0.443685
C21	C	0.829987	0.113503	0.008637
C22	C	1.329987	0.613503	0.508637
C23	C	0.737693	0.111971	0.008518
C24	C	1.237693	0.611971	0.508518
C25	C	0.525350	0.108425	-0.071576
C26	C	1.025350	0.608425	0.428424
C27	C	0.438631	0.106977	-0.071683
C28	C	0.938631	0.606977	0.428317
C29	C	0.438652	0.106984	0.087993
C30	C	0.938652	0.606984	0.587993
C31	C	0.525370	0.108427	0.088099
C32	C	1.025370	0.608427	0.588099
C33	C	0.568716	0.109151	0.008312
C34	C	1.068716	0.609151	0.508312
C35	C	0.395280	0.106260	0.008099
C36	C	0.895280	0.606260	0.508099
C37	C	0.301255	0.104689	0.007984
C38	C	0.801255	0.604689	0.507984
C39	C	0.662747	0.110721	0.008426
C40	C	1.162747	0.610721	0.508426
C41	C	0.988239	-0.036518	-0.002738
C42	C	1.488239	0.463482	0.497262
C43	C	0.986703	-0.124088	-0.009376
C44	C	1.486703	0.375912	0.490624
C45	C	0.985988	-0.165223	0.067339
C46	C	1.485988	0.334777	0.567339
C47	C	0.984539	-0.247503	0.061099
C48	C	1.484539	0.252497	0.561099
C49	C	0.983811	-0.288649	-0.021856
C50	C	1.483811	0.211351	0.478144
C51	C	0.984523	-0.247508	-0.098577
C52	C	1.484523	0.252492	0.401423
C53	C	0.985966	-0.165228	-0.092336
C54	C	1.485966	0.334772	0.407664
C55	C	0.979449	-0.537080	-0.044693
C56	C	1.479449	-0.037080	0.455307
C57	C	0.978008	-0.619366	-0.050928
C58	C	1.478008	-0.119366	0.449072
C59	C	0.978023	-0.619356	0.108749
C60	C	1.478023	-0.119356	0.608749
C61	C	0.979471	-0.537075	0.114982
C62	C	1.479471	-0.037075	0.614982
C63	C	0.980178	-0.495941	0.038262
C64	C	1.480178	0.004059	0.538262
C65	C	0.982332	-0.372753	-0.028236
C66	C	1.482332	0.127247	0.471764
C67	C	0.981651	-0.411837	0.044643
C68	C	1.481651	0.088163	0.544643
C69	C	1.134009	0.101908	0.007768
C70	C	1.634009	0.601908	0.507768
C71	C	1.226303	0.103441	0.007893
C72	C	1.726303	0.603441	0.507893
C73	C	0.975757	0.251929	0.019143
C74	C	1.475757	0.751929	0.519143
C75	C	0.977294	0.339499	0.025787
C76	C	1.477294	0.839499	0.525787
N77	N	0.981989	0.107701	-0.219973
N78	N	1.481989	0.607701	0.280027
C79	C	1.038597	0.054076	-0.541958
C80	C	1.538597	0.554076	-0.041958
C81	C	1.038595	0.054077	-0.449768
C82	C	1.538595	0.554077	0.050232
C83	C	0.925403	0.161334	-0.441645
C84	C	1.425403	0.661334	0.058355
C85	C	0.925410	0.161337	-0.533833
C86	C	1.425410	0.661337	-0.033833
C87	C	0.982006	0.107704	-0.583987
C88	C	1.482006	0.607704	-0.083987
C89	C	0.981997	0.107701	-0.399610
C90	C	1.481997	0.607701	0.100390
C91	C	0.981994	0.107702	-0.299654
C92	C	1.481994	0.607702	0.200346
C93	C	0.982010	0.107704	-0.683950
C94	C	1.482010	0.607704	-0.183950
N95	N	0.982014	0.107704	0.236376
N96	N	1.482014	0.607704	0.736376
H97	H	0.403326	0.106386	-0.136736
H98	H	0.903326	0.606386	0.363264
F99	F	1.098834	-0.003003	-0.595333
F100	F	1.598834	0.496997	-0.095333
F101	F	0.977269	-0.663139	0.190394
F102	F	1.477269	-0.163139	0.690394
H103	H	0.560640	0.109015	-0.136544
H104	H	1.060640	0.609015	0.363456
F105	F	0.392516	0.106197	0.172902
F106	F	0.892516	0.606197	0.672902
H107	H	0.879326	0.205011	-0.568055
H108	H	1.379326	0.705011	-0.068055
F109	F	0.571528	0.109194	0.173131
F110	F	1.071528	0.609194	0.673131
F111	F	0.865170	0.218410	-0.388261
F112	F	1.365170	0.718410	0.111739
H113	H	0.986536	-0.131736	-0.154806
H114	H	1.486536	0.368264	0.345194
F115	F	0.986769	-0.121441	0.155632
F116	F	1.486769	0.378559	0.655632
F117	F	0.983780	-0.291278	0.142750
F118	F	1.483780	0.208722	0.642750
H119	H	1.084677	0.010409	-0.415551
H120	H	1.584677	0.510409	0.084449
H121	H	0.980041	-0.503601	-0.107165
H122	H	1.480041	-0.003601	0.392835
F123	F	0.980248	-0.493291	0.203275
F124	F	1.480248	0.006709	0.703275
H125	H	0.977411	-0.652864	-0.118484
H126	H	1.477411	-0.152864	0.381516
H127	H	0.983925	-0.281014	-0.166121
H128	H	1.483925	0.218986	0.333879
H129	H	0.982238	-0.378332	0.112185
H130	H	1.482238	0.121668	0.612185
F131	F	0.981554	-0.416550	-0.116522
F132	F	1.481554	0.083450	0.383478
