data_functionalizedCrystal
_audit_creation_method	'MofGen! by Chris Wilmer'
_symmetry_space_group_name_H-M	'P1'
_symmetry_Int_Tables_number	1
_symmetry_cell_setting	triclinic
loop_
_symmetry_equiv_pos_as_xyz
  x,y,z
_cell_length_a	8.597340
_cell_length_b	12.811415
_cell_length_c	7.681481
_cell_angle_alpha	78.833607
_cell_angle_beta	103.474906
_cell_angle_gamma	85.418474
loop_
_atom_site_label
_atom_site_type_symbol
_atom_site_fract_x
_atom_site_fract_y
_atom_site_fract_z
O1	O	2.098409	0.146743	0.148508
O2	O	1.634182	0.163650	0.075374
O3	O	1.880495	0.000729	0.138769
O4	O	1.852096	0.309664	0.085113
O5	O	1.910813	-0.019370	0.439437
O6	O	1.664500	0.143552	0.376042
O7	O	2.128726	0.126645	0.449176
Zn8	Zn	1.901427	0.131907	0.460347
Zn9	Zn	1.861482	0.158387	0.064204
O10	O	1.882413	0.289566	0.385781
C11	C	1.589964	0.152905	0.216810
C12	C	1.413041	0.150818	0.190300
C13	C	1.894992	-0.048853	0.295314
C14	C	1.893002	-0.166647	0.313816
C15	C	1.856176	-0.366070	0.020754
C16	C	1.854304	-0.476748	0.038130
C17	C	1.887375	-0.498681	0.365941
C18	C	1.889247	-0.388004	0.348565
C19	C	1.873649	-0.321702	0.175966
C20	C	1.875532	-0.211023	0.158594
C21	C	1.908591	-0.232957	0.486401
C22	C	1.906720	-0.343635	0.503777
C23	C	2.172944	0.137390	0.307736
C24	C	2.349867	0.139477	0.334235
C25	C	1.867916	0.339148	0.229233
C26	C	1.869906	0.456943	0.210718
N27	N	1.928699	0.113834	0.730706
N28	N	1.834222	0.176452	-0.206152
H29	H	1.431135	0.131357	0.477754
H30	H	1.843489	-0.312087	-0.119780
H31	H	1.840070	-0.512867	-0.088261
H32	H	1.900061	-0.552682	0.506460
H33	H	2.025160	0.049924	0.830755
H34	H	1.331765	0.158931	0.046773
F35	F	1.858937	-0.140462	-0.025097
H36	H	1.919413	-0.397632	0.644301
H37	H	1.922825	-0.196822	0.612787
F38	F	1.708163	0.259993	0.663091
