data_functionalizedCrystal
_audit_creation_method	'MofGen! by Chris Wilmer'
_symmetry_space_group_name_H-M	'P1'
_symmetry_Int_Tables_number	1
_symmetry_cell_setting	triclinic
loop_
_symmetry_equiv_pos_as_xyz
  x,y,z
_cell_length_a	14.044220
_cell_length_b	14.044191
_cell_length_c	12.503552
_cell_angle_alpha	86.157523
_cell_angle_beta	86.157908
_cell_angle_gamma	86.809673
loop_
_atom_site_label
_atom_site_type_symbol
_atom_site_fract_x
_atom_site_fract_y
_atom_site_fract_z
O1	O	-0.225150	1.282214	-0.089264
O2	O	0.024850	1.532214	0.160736
O3	O	0.274850	1.782214	0.410736
O4	O	0.524850	2.032214	0.660736
O5	O	-0.216837	1.005543	-0.089278
O6	O	0.033163	1.255543	0.160722
O7	O	0.283163	1.505543	0.410722
O8	O	0.533163	1.755543	0.660722
O9	O	-0.082658	1.139725	-0.089266
O10	O	0.167342	1.389725	0.160734
O11	O	0.417342	1.639725	0.410734
O12	O	0.667342	1.889725	0.660734
O13	O	-0.359329	1.148032	-0.089275
O14	O	-0.109329	1.398032	0.160725
O15	O	0.140671	1.648032	0.410725
O16	O	0.390671	1.898032	0.660725
O17	O	-0.092758	1.129622	0.089375
O18	O	0.157242	1.379622	0.339375
O19	O	0.407242	1.629622	0.589375
O20	O	0.657242	1.879622	0.839375
O21	O	-0.226937	0.995439	0.089364
O22	O	0.023063	1.245439	0.339364
O23	O	0.273063	1.495439	0.589364
O24	O	0.523063	1.745439	0.839364
O25	O	-0.235250	1.272111	0.089378
O26	O	0.014750	1.522111	0.339378
O27	O	0.264750	1.772111	0.589378
O28	O	0.514750	2.022111	0.839378
Cu29	Cu	-0.232016	1.132853	0.105682
Cu30	Cu	0.017984	1.382853	0.355682
Cu31	Cu	0.267984	1.632853	0.605682
Cu32	Cu	0.517984	1.882853	0.855682
Cu33	Cu	-0.220072	1.144801	-0.105582
Cu34	Cu	0.029928	1.394801	0.144418
Cu35	Cu	0.279928	1.644801	0.394418
Cu36	Cu	0.529928	1.894801	0.644418
O37	O	-0.369429	1.137928	0.089366
O38	O	-0.119429	1.387928	0.339366
O39	O	0.130571	1.637928	0.589366
O40	O	0.380571	1.887928	0.839366
C41	C	-0.218250	0.964869	0.000041
C42	C	0.031750	1.214869	0.250041
C43	C	0.281750	1.464869	0.500041
C44	C	0.531750	1.714869	0.750041
C45	C	-0.207403	0.858726	0.000036
C46	C	0.042597	1.108726	0.250036
C47	C	0.292597	1.358726	0.500036
C48	C	0.542597	1.608726	0.750036
C49	C	-0.264504	0.613267	0.000045
C50	C	-0.014504	0.863267	0.250045
C51	C	0.235496	1.113267	0.500045
C52	C	0.485496	1.363267	0.750045
C53	C	-0.187587	0.664393	0.000046
C54	C	0.062413	0.914393	0.250046
C55	C	0.312413	1.164393	0.500046
C56	C	0.562413	1.414393	0.750046
C57	C	-0.198615	0.772530	0.000040
C58	C	0.051385	1.022530	0.250040
C59	C	0.301385	1.272530	0.500040
C60	C	0.551385	1.522530	0.750040
C61	C	-0.253477	0.505120	0.000050
C62	C	-0.003477	0.755120	0.250050
C63	C	0.246523	1.005120	0.500050
C64	C	0.496523	1.255120	0.750050
C65	C	-0.400001	1.146616	0.000044
C66	C	-0.150001	1.396616	0.250044
C67	C	0.099999	1.646616	0.500044
C68	C	0.349999	1.896616	0.750044
C69	C	-0.506144	1.157461	0.000041
C70	C	-0.256144	1.407461	0.250041
C71	C	-0.006144	1.657461	0.500041
C72	C	0.243856	1.907461	0.750041
C73	C	-0.700482	1.177287	0.000047
C74	C	-0.450482	1.427287	0.250047
C75	C	-0.200482	1.677287	0.500047
C76	C	0.049518	1.927287	0.750047
C77	C	-0.751610	1.100372	0.000044
C78	C	-0.501610	1.350372	0.250044
C79	C	-0.251610	1.600372	0.500044
C80	C	-0.001610	1.850372	0.750044
C81	C	-0.859747	1.111404	0.000047
C82	C	-0.609747	1.361404	0.250047
C83	C	-0.359747	1.611404	0.500047
C84	C	-0.109747	1.861404	0.750047
C85	C	-0.592336	1.166257	0.000044
C86	C	-0.342336	1.416257	0.250044
C87	C	-0.092336	1.666257	0.500044
C88	C	0.157664	1.916257	0.750044
C89	C	-0.052086	1.131038	0.000053
C90	C	0.197914	1.381038	0.250053
C91	C	0.447914	1.631038	0.500053
C92	C	0.697914	1.881038	0.750053
C93	C	0.054057	1.120194	0.000050
C94	C	0.304057	1.370194	0.250050
C95	C	0.554057	1.620194	0.500050
C96	C	0.804057	1.870194	0.750050
C97	C	-0.233837	1.312785	0.000056
C98	C	0.016163	1.562785	0.250056
C99	C	0.266163	1.812785	0.500056
C100	C	0.516163	2.062785	0.750056
C101	C	-0.244684	1.418928	0.000055
C102	C	0.005316	1.668928	0.250055
C103	C	0.255316	1.918928	0.500055
C104	C	0.505316	2.168928	0.750055
N105	N	-0.240416	1.124456	0.254274
N106	N	0.009584	1.374456	0.504274
N107	N	0.259584	1.624456	0.754274
N108	N	0.509584	1.874456	1.004274
N109	N	-0.211664	1.153205	-0.254174
N110	N	0.038336	1.403205	-0.004174
N111	N	0.288336	1.653205	0.245826
N112	N	0.538336	1.903205	0.495826
C113	C	-0.199303	1.165552	0.526711
C114	C	0.050697	1.415552	0.776711
C115	C	0.300697	1.665552	1.026711
C116	C	0.550697	1.915552	1.276711
C117	C	-0.252775	1.112112	0.473382
C118	C	-0.002775	1.362112	0.723382
C119	C	0.247225	1.612112	0.973382
C120	C	0.497225	1.862112	1.223382
C121	C	-0.245897	1.118982	0.351459
C122	C	0.004103	1.368982	0.601459
C123	C	0.254103	1.618982	0.851459
C124	C	0.504103	1.868982	1.101459
C125	C	-0.206179	1.158683	0.648645
C126	C	0.043821	1.408683	0.898645
C127	C	0.293821	1.658683	1.148645
C128	C	0.543821	1.908683	1.398645
H129	H	-0.113451	0.626954	-0.000027
H130	H	0.136549	0.876954	0.249973
H131	H	0.386549	1.126954	0.499973
H132	H	0.636549	1.376954	0.749973
H133	H	-0.737922	1.251414	0.000055
H134	H	-0.487922	1.501414	0.250055
H135	H	-0.237922	1.751414	0.500055
H136	H	0.012078	2.001414	0.750055
N137	N	-0.702023	1.002171	0.000068
N138	N	-0.452023	1.252171	0.250068
N139	N	-0.202023	1.502171	0.500068
N140	N	0.047977	1.752171	0.750068
H141	H	-0.751214	0.952375	0.000075
H142	H	-0.501214	1.202375	0.250075
H143	H	-0.251214	1.452375	0.500075
H144	H	-0.001214	1.702375	0.750075
H145	H	-0.657063	0.997989	-0.066151
H146	H	-0.407063	1.247989	0.183849
H147	H	-0.157063	1.497989	0.433849
H148	H	0.092937	1.747989	0.683849
H149	H	-0.303720	1.061202	0.519294
H150	H	-0.053720	1.311202	0.769294
H151	H	0.196280	1.561202	1.019294
H152	H	0.446280	1.811202	1.269294
N153	N	-0.131818	1.232970	0.465890
N154	N	0.118182	1.482970	0.715890
N155	N	0.368182	1.732970	0.965890
N156	N	0.618182	1.982970	1.215890
H157	H	-0.169282	1.280932	0.419219
H158	H	0.080718	1.530932	0.669219
H159	H	0.330718	1.780932	0.919219
H160	H	0.580718	2.030932	1.169219
H161	H	-0.097092	1.267618	0.518520
H162	H	0.152908	1.517618	0.768520
H163	H	0.402908	1.767618	1.018520
H164	H	0.652908	2.017618	1.268520
N165	N	-0.362696	0.662856	0.000035
N166	N	-0.112696	0.912856	0.250035
N167	N	0.137304	1.162856	0.500035
N168	N	0.387304	1.412856	0.750035
H169	H	-0.356753	0.734196	0.000029
H170	H	-0.106753	0.984196	0.250029
H171	H	0.143247	1.234196	0.500029
H172	H	0.393247	1.484196	0.750029
H173	H	-0.394758	0.647466	-0.066194
H174	H	-0.144758	0.897466	0.183806
H175	H	0.105242	1.147466	0.433806
H176	H	0.355242	1.397466	0.683806
