data_functionalizedCrystal
_audit_creation_method	'MofGen! by Chris Wilmer'
_symmetry_space_group_name_H-M	'P1'
_symmetry_Int_Tables_number	1
_symmetry_cell_setting	triclinic
loop_
_symmetry_equiv_pos_as_xyz
  x,y,z
_cell_length_a	10.654549
_cell_length_b	23.532357
_cell_length_c	9.730217
_cell_angle_alpha	89.991241
_cell_angle_beta	89.997559
_cell_angle_gamma	83.657605
loop_
_atom_site_label
_atom_site_type_symbol
_atom_site_fract_x
_atom_site_fract_y
_atom_site_fract_z
O1	O	1.665267	0.079999	-0.114342
O2	O	1.299545	0.087617	-0.114339
O3	O	1.493467	0.000946	-0.114313
O4	O	1.471345	0.166669	-0.114369
O5	O	1.493461	0.000945	0.114268
O6	O	1.299539	0.087616	0.114241
O7	O	1.665261	0.079998	0.114238
Zn8	Zn	1.482399	0.083807	0.150531
Zn9	Zn	1.482407	0.083808	-0.150633
O10	O	1.471339	0.166669	0.114211
C11	C	1.252762	0.087056	-0.000048
C12	C	1.113373	0.085381	-0.000046
C13	C	0.820164	0.185874	-0.000119
C14	C	0.870014	0.238482	-0.000131
C15	C	1.000981	0.240058	-0.000114
C16	C	1.082104	0.189021	-0.000088
C17	C	1.032255	0.136413	-0.000076
C18	C	0.901282	0.134843	-0.000089
C19	C	1.063523	0.032773	-0.000034
C20	C	0.932556	0.031196	-0.000042
C21	C	1.144646	-0.018264	-0.000008
C22	C	1.094797	-0.070873	0.000014
C23	C	0.963821	-0.072447	-0.000002
C24	C	0.882706	-0.021411	-0.000029
C25	C	1.492911	-0.020274	-0.000018
C26	C	1.491247	-0.083504	-0.000005
C27	C	1.480806	-0.475583	-0.124678
C28	C	1.479225	-0.534993	-0.124686
O29	O	1.478367	-0.565714	-0.230653
N30	N	1.478437	-0.564709	-0.000089
C31	C	1.479218	-0.535013	0.124524
O32	O	1.478402	-0.565744	0.230503
C33	C	1.480791	-0.475603	0.124531
C34	C	1.481591	-0.445890	-0.000075
C35	C	1.481605	-0.445870	-0.249274
C36	C	1.483188	-0.386464	-0.249265
C37	C	1.483973	-0.356772	-0.124662
C38	C	1.483175	-0.386485	-0.000066
C39	C	1.481563	-0.445907	0.249143
C40	C	1.483135	-0.386494	0.249138
C41	C	1.483935	-0.356781	0.124533
C42	C	1.485543	-0.297387	0.124546
N43	N	1.486331	-0.267670	-0.000052
C44	C	1.485546	-0.297363	-0.124655
C45	C	1.475914	-0.659776	0.124501
C46	C	1.474351	-0.719184	0.124497
C47	C	1.474354	-0.719160	-0.124715
C48	C	1.475927	-0.659751	-0.124708
C49	C	1.476701	-0.630059	-0.000096
C50	C	1.488873	-0.172607	-0.124628
C51	C	1.490462	-0.113196	-0.124609
C52	C	1.490451	-0.113225	0.124601
C53	C	1.488869	-0.172631	0.124583
C54	C	1.488076	-0.202320	-0.000043
O55	O	1.486397	-0.266627	0.230458
O56	O	1.486346	-0.266623	-0.230616
C57	C	1.712044	0.080558	-0.000056
C58	C	1.851433	0.082234	-0.000067
C59	C	1.471895	0.187889	-0.000086
C60	C	1.473559	0.251119	-0.000108
N61	N	1.482403	0.083806	0.356068
N62	N	1.482413	0.083804	-0.356169
C63	C	1.654190	0.007082	0.356082
C64	C	1.740092	-0.031279	0.428029
C65	C	1.740105	-0.031279	0.571909
C66	C	1.654204	0.007084	0.643845
C67	C	1.568302	0.045444	0.571898
C68	C	1.568301	0.045442	0.428015
C69	C	1.396511	0.122165	0.571884
C70	C	1.396502	0.122169	0.428004
C71	C	1.310610	0.160528	0.643820
C72	C	1.224712	0.198892	0.571873
C73	C	1.224704	0.198891	0.427984
C74	C	1.310600	0.160529	0.356057
H75	H	0.776064	-0.022688	-0.000030
H76	H	1.041567	0.282896	-0.000122
C77	C	1.654200	0.007071	0.802117
N78	N	1.654192	0.007059	0.921329
C79	C	1.654192	0.007082	0.197811
N80	N	1.654194	0.007081	0.078598
C81	C	1.310611	0.160519	0.802092
N82	N	1.310608	0.160512	0.921304
C83	C	1.130223	0.241101	0.348854
N84	N	1.059067	0.272898	0.289258
C85	C	0.780770	0.294620	-0.000153
N86	N	0.713555	0.336904	-0.000169
H87	H	1.810030	-0.062515	0.369446
C88	C	1.834600	-0.073477	0.651053
N89	N	1.905775	-0.105261	0.710664
H90	H	1.310605	0.160527	0.238902
C91	C	0.676095	0.184146	-0.000126
N92	N	0.567580	0.182845	-0.000133
C93	C	1.226171	0.190757	-0.000075
N94	N	1.334684	0.192065	-0.000062
C95	C	1.480667	-0.478577	0.386221
N96	N	1.479985	-0.503183	0.489477
C97	C	1.288713	-0.016529	0.000019
N98	N	1.397227	-0.015223	0.000048
C99	C	1.184037	-0.127007	0.000047
N100	N	1.251259	-0.169289	0.000078
H101	H	1.488229	-0.196825	0.226047
C102	C	1.476786	-0.627121	0.261594
N103	N	1.477443	-0.602528	0.364852
H104	H	1.488221	-0.196772	-0.226111
C105	C	0.908998	-0.130320	0.000014
N106	N	0.867711	-0.173912	0.000029
H107	H	1.483835	-0.362277	-0.350732
C108	C	1.491338	-0.080515	-0.261690
N109	N	1.491994	-0.055902	-0.364937
C110	C	1.476796	-0.627072	-0.261782
N111	N	1.477445	-0.602460	-0.365033
H112	H	1.480961	-0.470039	-0.350747
C113	C	1.473478	-0.751832	-0.261782
N114	N	1.472815	-0.776443	-0.365015
H115	H	1.473718	-0.743373	0.225963
C116	C	1.483992	-0.353837	0.386226
N117	N	1.484642	-0.329241	0.489480
H118	H	1.491096	-0.089039	0.226050
H119	H	1.154772	0.230122	0.630452
