data_functionalizedCrystal
_audit_creation_method	'MofGen! by Chris Wilmer'
_symmetry_space_group_name_H-M	'P1'
_symmetry_Int_Tables_number	1
_symmetry_cell_setting	triclinic
loop_
_symmetry_equiv_pos_as_xyz
  x,y,z
_cell_length_a	6.817900
_cell_length_b	15.866870
_cell_length_c	16.015572
_cell_angle_alpha	95.305972
_cell_angle_beta	104.485554
_cell_angle_gamma	102.655915
loop_
_atom_site_label
_atom_site_type_symbol
_atom_site_fract_x
_atom_site_fract_y
_atom_site_fract_z
V1	V	-3.996844	-0.034800	-0.280476
O2	O	-3.966447	0.088700	-0.236015
O3	O	-3.966340	-0.152703	-0.316185
O4	O	-3.927287	0.003921	-0.385636
O5	O	-4.005770	-0.069009	-0.166083
V6	V	-4.480895	-0.024540	-0.262223
O7	O	-4.256945	-0.057306	-0.320516
O8	O	-4.670991	-0.002034	-0.222183
O9	O	-4.288193	0.093362	-0.226515
O10	O	-4.628689	-0.148040	-0.306685
O11	O	-4.589366	0.009668	-0.376616
O12	O	-4.327246	-0.063262	-0.157064
C13	C	-3.816378	-0.182638	-0.321469
C14	C	-3.872583	-0.278779	-0.351366
C15	C	-3.917279	-0.657597	-0.074048
C16	C	-3.970096	-0.747931	-0.102166
C17	C	-4.026156	-0.722870	-0.252428
C18	C	-3.973333	-0.632531	-0.224321
C19	C	-3.918899	-0.599902	-0.135131
C20	C	-3.974953	-0.574837	-0.285404
C21	C	-3.922145	-0.484506	-0.257300
C22	C	-3.867716	-0.451870	-0.168113
C23	C	-3.866091	-0.509571	-0.107027
C24	C	-4.029402	-0.607468	-0.374595
C25	C	-4.031022	-0.549773	-0.435678
C26	C	-3.978199	-0.459441	-0.407574
C27	C	-3.923770	-0.426804	-0.318387
C28	C	-3.979824	-0.401739	-0.468660
C29	C	-3.927016	-0.311408	-0.440556
C30	C	-3.870962	-0.336474	-0.290283
C31	C	-3.766562	0.017152	-0.410059
C32	C	-3.791093	0.048031	-0.496274
C33	C	-4.121327	-0.226050	-0.961199
C34	C	-4.144378	-0.197007	-1.042199
C35	C	-4.044584	-0.046745	-0.969635
C36	C	-4.021514	-0.075776	-0.888628
C37	C	-4.059892	-0.165429	-0.884418
C38	C	-3.960078	-0.015155	-0.811846
C39	C	-3.937021	-0.044184	-0.730846
C40	C	-3.975400	-0.133834	-0.726628
C41	C	-4.036835	-0.194459	-0.803418
C42	C	-3.921715	0.074498	-0.816058
C43	C	-3.860280	0.135118	-0.739276
C44	C	-3.837207	0.106090	-0.658274
C45	C	-3.875586	0.016440	-0.654056
C46	C	-3.775772	0.166714	-0.581484
C47	C	-3.752715	0.137685	-0.500484
C48	C	-3.852529	-0.012589	-0.573056
C49	C	-4.101498	0.123292	-0.221230
C50	C	-4.024530	0.219434	-0.191339
C51	C	-4.151314	-0.076497	-0.132637
C52	C	-4.106021	-0.107372	-0.046420
H53	H	-3.883753	-0.085593	-0.569629
H54	H	-4.075357	-0.576353	-0.508298
C55	C	-3.526217	0.306507	-0.539547
C56	C	-3.733617	0.265259	-0.586115
H57	H	-3.500205	0.367346	-0.542400
H58	H	-3.434101	0.282275	-0.564333
H59	H	-3.503703	0.297885	-0.480320
H60	H	-3.756127	0.273876	-0.645344
H61	H	-3.825760	0.289500	-0.561331
C62	C	-4.215539	-0.411060	-0.610374
C63	C	-4.039685	-0.437616	-0.566696
H64	H	-4.252501	-0.433214	-0.670897
H65	H	-4.184295	-0.349012	-0.602382
H66	H	-4.329092	-0.432957	-0.587472
H67	H	-3.926126	-0.415713	-0.589594
H68	H	-4.070919	-0.499676	-0.574694
H69	H	-3.940461	0.098131	-0.882015
H70	H	-3.928368	-0.264432	-0.490297
H71	H	-3.956629	-0.157468	-0.660671
C72	C	-3.981236	-0.342905	-0.906993
C73	C	-4.163248	-0.324571	-0.956428
H74	H	-4.007042	-0.403717	-0.904011
H75	H	-3.941406	-0.310855	-0.849726
H76	H	-3.871829	-0.326590	-0.933727
H77	H	-4.272651	-0.340880	-0.929690
H78	H	-4.203105	-0.356632	-1.013705
H79	H	-3.826605	-0.309905	-0.217654
C80	C	-3.896743	-0.311314	-0.749211
C81	C	-4.078755	-0.292979	-0.798646
H82	H	-3.922550	-0.372125	-0.746229
H83	H	-3.856913	-0.279264	-0.691945
H84	H	-3.787336	-0.294998	-0.775945
H85	H	-4.188158	-0.309289	-0.771909
H86	H	-4.118613	-0.325040	-0.855923
H87	H	-4.194399	-0.246378	-1.104718
C88	C	-4.035597	0.064481	-1.061579
C89	C	-4.002389	0.051800	-0.974269
H90	H	-4.009528	0.125320	-1.064435
H91	H	-4.176290	0.036504	-1.093159
H92	H	-3.943464	0.040229	-1.086351
H93	H	-4.094534	0.076046	-0.949498
H94	H	-3.861674	0.079788	-0.942677
H95	H	-3.702689	0.187049	-0.437965
C96	C	-3.761556	-0.336124	-0.046032
C97	C	-3.809669	-0.352577	-0.137215
H98	H	-3.725733	-0.274825	-0.026959
H99	H	-3.646721	-0.359238	-0.021271
H100	H	-3.879604	-0.363139	-0.028030
H101	H	-3.691615	-0.325567	-0.155216
H102	H	-3.924515	-0.329452	-0.161985
C103	C	-3.851293	0.246344	-0.831220
C104	C	-3.818085	0.233663	-0.743910
H105	H	-3.825224	0.307183	-0.834076
H106	H	-3.991986	0.218367	-0.862800
H107	H	-3.759160	0.222093	-0.855992
H108	H	-3.910229	0.257909	-0.719140
H109	H	-3.677370	0.261652	-0.712318
H110	H	-3.872921	-0.631028	-0.001419
C111	C	-3.816015	-0.543412	0.038700
C112	C	-3.806282	-0.473697	-0.008986
H113	H	-3.779117	-0.521262	0.099221
H114	H	-3.721325	-0.576169	0.028005
H115	H	-3.954222	-0.580076	0.021220
H116	H	-3.668072	-0.437036	0.008489
H117	H	-3.900976	-0.440925	0.001714
H118	H	-3.968765	-0.794905	-0.052418
H119	H	-4.072401	-0.681022	-0.397475
C120	C	-4.131984	-0.850212	-0.362235
C121	C	-4.085977	-0.758741	-0.350464
H122	H	-4.168896	-0.872353	-0.422759
H123	H	-4.245562	-0.872104	-0.339357
H124	H	-4.012676	-0.868211	-0.332581
H125	H	-4.205290	-0.740742	-0.380112
H126	H	-3.972388	-0.736841	-0.373352
