data_functionalizedCrystal
_audit_creation_method	'MofGen! by Chris Wilmer'
_symmetry_space_group_name_H-M	'P1'
_symmetry_Int_Tables_number	1
_symmetry_cell_setting	triclinic
loop_
_symmetry_equiv_pos_as_xyz
  x,y,z
_cell_length_a	10.654556
_cell_length_b	10.654551
_cell_length_c	9.130313
_cell_angle_alpha	89.997246
_cell_angle_beta	89.998135
_cell_angle_gamma	84.486483
loop_
_atom_site_label
_atom_site_type_symbol
_atom_site_fract_x
_atom_site_fract_y
_atom_site_fract_z
O1	O	1.667836	0.176437	-0.121738
O2	O	1.302358	0.193235	-0.121752
O3	O	1.493499	0.002097	-0.121741
O4	O	1.476695	0.367575	-0.121749
O5	O	1.493486	0.002091	0.121857
O6	O	1.302345	0.193229	0.121847
O7	O	1.667822	0.176431	0.121861
Cu8	Cu	1.485082	0.184830	0.144096
Cu9	Cu	1.485098	0.184836	-0.143988
O10	O	1.476681	0.367569	0.121850
C11	C	1.492258	-0.044704	0.000056
C12	C	1.488566	-0.184147	0.000049
C13	C	1.255554	0.191997	0.000045
C14	C	1.116111	0.188302	0.000040
C15	C	1.486840	-0.249648	-0.132739
C16	C	1.483360	-0.380669	-0.132740
C17	C	1.483337	-0.380677	0.132845
C18	C	1.486808	-0.249657	0.132845
C19	C	0.919573	0.183102	-0.132735
C20	C	1.050595	0.186566	-0.132744
C21	C	1.050599	0.186560	0.132841
C22	C	0.919580	0.183087	0.132849
C23	C	1.714627	0.177669	0.000060
C24	C	1.854070	0.181364	0.000056
C25	C	1.477922	0.414370	0.000050
C26	C	1.481615	0.553813	0.000047
N27	N	1.485081	0.184824	0.346719
N28	N	1.485110	0.184832	-0.346610
C29	C	1.569747	0.100224	0.423376
C30	C	1.569759	0.100224	0.576712
C31	C	1.400435	0.269436	0.576722
C32	C	1.400418	0.269428	0.423388
H33	H	1.488268	-0.196313	-0.240870
H34	H	1.638683	0.031333	0.360955
H35	H	1.103954	0.187965	0.240956
O36	O	1.114307	0.188039	-0.261699
C37	C	1.275555	0.083395	-0.415812
C38	C	1.203479	0.081557	-0.269727
H39	H	1.347685	-0.002672	-0.422336
H40	H	1.206289	0.081487	-0.510772
H41	H	1.326109	0.172795	-0.422432
H42	H	1.152922	-0.007828	-0.262963
H43	H	1.272805	0.083532	-0.174836
H44	H	1.481908	-0.434031	0.240963
H45	H	0.866247	0.181670	0.240990
O46	O	1.481746	-0.444109	-0.261861
C47	C	1.482061	-0.430256	-0.525284
C48	C	1.483926	-0.358260	-0.379155
H49	H	1.483795	-0.360876	-0.620154
H50	H	1.568191	-0.502295	-0.532019
H51	H	1.392715	-0.480900	-0.531852
H52	H	1.573214	-0.307541	-0.372488
H53	H	1.397736	-0.286293	-0.372481
O54	O	1.488314	-0.186139	0.261935
C55	C	1.380703	-0.132705	0.488875
C56	C	1.378860	-0.204723	0.342759
H57	H	1.292207	-0.147683	0.554249
H58	H	1.467691	-0.169205	0.554471
H59	H	1.383541	-0.027823	0.466023
H60	H	1.375977	-0.309616	0.365478
H61	H	1.291882	-0.168120	0.277208
O62	O	0.856136	0.181371	-0.261854
C63	C	0.869958	0.181819	-0.525278
C64	C	0.941953	0.183756	-0.379153
H65	H	0.939306	0.183773	-0.620152
H66	H	0.819380	0.092439	-0.532015
H67	H	0.797860	0.267911	-0.531837
H68	H	1.014111	0.097725	-0.372496
H69	H	0.992444	0.273192	-0.372478
O70	O	1.652127	0.018000	0.650949
C71	C	1.820023	-0.149882	0.634747
C72	C	1.726827	-0.056805	0.550494
H73	H	1.880425	-0.210404	0.553566
H74	H	1.883321	-0.095133	0.706479
H75	H	1.765247	-0.213076	0.706588
H76	H	1.781501	0.006412	0.478573
H77	H	1.663530	-0.111632	0.478854
H78	H	1.331505	0.338320	0.639162
H79	H	1.331466	0.338320	0.360970
