data_functionalizedCrystal
_audit_creation_method	'MofGen! by Chris Wilmer'
_symmetry_space_group_name_H-M	'P1'
_symmetry_Int_Tables_number	1
_symmetry_cell_setting	triclinic
loop_
_symmetry_equiv_pos_as_xyz
  x,y,z
_cell_length_a	18.215407
_cell_length_b	15.299816
_cell_length_c	18.215399
_cell_angle_alpha	80.342622
_cell_angle_beta	90.019833
_cell_angle_gamma	80.351325
loop_
_atom_site_label
_atom_site_type_symbol
_atom_site_fract_x
_atom_site_fract_y
_atom_site_fract_z
Zn1	Zn	1.175767	-0.359060	0.466870
Zn2	Zn	1.675767	0.140940	0.966870
Zn3	Zn	1.196971	-0.509888	0.365123
Zn4	Zn	1.696971	-0.009888	0.865123
Zn5	Zn	1.052704	-0.359090	0.343821
Zn6	Zn	1.552704	0.140910	0.843821
Zn7	Zn	1.073954	-0.509838	0.488141
Zn8	Zn	1.573954	-0.009838	0.988141
O9	O	1.124849	-0.434469	0.415989
O10	O	1.624849	0.065531	0.915989
O11	O	1.281565	-0.379077	0.453386
O12	O	1.781565	0.120923	0.953386
O13	O	1.177814	-0.489918	0.259318
O14	O	1.677814	0.010082	0.759318
O15	O	1.051262	-0.232875	0.342327
O16	O	1.551262	0.267125	0.842327
O17	O	1.297144	-0.489889	0.378633
O18	O	1.797144	0.010111	0.878633
O19	O	1.141676	-0.232854	0.432730
O20	O	1.641676	0.267146	0.932730
O21	O	1.071822	-0.379127	0.243667
O22	O	1.571822	0.120873	0.743667
O23	O	0.952537	-0.379078	0.362953
O24	O	1.452537	0.120922	0.862953
O25	O	1.087479	-0.489804	0.588299
O26	O	1.587479	0.010196	1.088299
O27	O	0.968149	-0.489832	0.468984
O28	O	1.468149	0.010168	0.968984
O29	O	1.162281	-0.379028	0.572671
O30	O	1.662281	0.120972	1.072671
O31	O	1.198419	-0.636092	0.399259
O32	O	1.698419	-0.136092	0.899259
O33	O	1.108039	-0.636055	0.489639
O34	O	1.608039	-0.136055	0.989639
C35	C	0.933640	-0.434454	0.415965
C36	C	1.433640	0.065546	0.915965
C37	C	0.851844	-0.434469	0.415976
C38	C	1.351844	0.065531	0.915976
C39	C	1.157856	-0.668798	0.449085
C40	C	1.657856	-0.168798	0.949085
C41	C	1.172044	-0.769046	0.463268
C42	C	1.672044	-0.269046	0.963268
C43	C	0.671811	-0.492229	0.471140
C44	C	1.171811	0.007771	0.971140
C45	C	0.594953	-0.492232	0.471150
C46	C	1.094953	0.007768	0.971150
C47	C	0.578641	-0.376725	0.360856
C48	C	1.078641	0.123275	0.860856
C49	C	0.655497	-0.376719	0.360850
C50	C	1.155497	0.123281	0.860850
C51	C	0.702081	-0.434476	0.415992
C52	C	1.202081	0.065524	0.915992
C53	C	0.548366	-0.434485	0.416007
C54	C	1.048366	0.065515	0.916007
C55	C	0.465033	-0.434488	0.416017
C56	C	0.965033	0.065512	0.916017
C57	C	0.785420	-0.434472	0.415983
C58	C	1.285420	0.065528	0.915983
C59	C	1.023929	-1.051970	0.314869
C60	C	1.523929	-0.551970	0.814869
C61	C	1.010595	-0.957782	0.301545
C62	C	1.510595	-0.457782	0.801545
C63	C	1.050956	-0.910594	0.341974
C64	C	1.550956	-0.410594	0.841974
C65	C	1.104653	-0.957601	0.395730
C66	C	1.604653	-0.457601	0.895730
C67	C	1.117984	-1.051798	0.409060
C68	C	1.617984	-0.551798	0.909060
C69	C	1.145012	-0.910422	0.436165
C70	C	1.645012	-0.410422	0.936165
C71	C	1.198709	-0.957429	0.489922
C72	C	1.698709	-0.457429	0.989922
C73	C	1.212038	-1.051616	0.503248
C74	C	1.712038	-0.551616	1.003248
C75	C	1.171677	-1.098805	0.462819
C76	C	1.671677	-0.598805	0.962819
C77	C	1.131680	-0.816225	0.422836
C78	C	1.631680	-0.316225	0.922836
C79	C	1.225736	-0.816053	0.517027
C80	C	1.725736	-0.316053	1.017027
C81	C	1.239070	-0.910240	0.530351
C82	C	1.739070	-0.410240	1.030351
C83	C	1.316804	-0.434485	0.416013
C84	C	1.816804	0.065515	0.916013
C85	C	1.398604	-0.434492	0.416023
C86	C	1.898604	0.065508	0.916023
C87	C	1.124885	-0.434407	0.607933
C88	C	1.624885	0.065593	1.107933
C89	C	1.124900	-0.434380	0.689728
C90	C	1.624900	0.065620	1.189728
C91	C	1.091733	-0.199224	0.382779
C92	C	1.591733	0.300776	0.882779
C93	C	1.077621	-0.098977	0.368628
C94	C	1.577621	0.401023	0.868628
C95	C	1.124846	-0.434466	0.224782
C96	C	1.624846	0.065534	0.724782
C97	C	1.124938	-0.434238	0.142951
C98	C	1.624938	0.065762	0.642951
C99	C	1.163859	-0.376645	0.869778
C100	C	1.663859	0.123355	1.369778
C101	C	1.163864	-0.376619	0.946633
C102	C	1.663864	0.123381	1.446633
C103	C	1.085974	-0.491976	0.962896
C104	C	1.585974	0.008024	1.462896
C105	C	1.085965	-0.491997	0.886042
C106	C	1.585965	0.008003	1.386042
C107	C	1.124912	-0.434333	0.839485
C108	C	1.624912	0.065667	1.339485
C109	C	1.124926	-0.434286	0.993194
C110	C	1.624926	0.065714	1.493194
C111	C	1.124931	-0.434258	1.076524
C112	C	1.624931	0.065742	1.576524
C113	C	1.124906	-0.434360	0.756150
C114	C	1.624906	0.065640	1.256150
H115	H	0.709738	-0.539256	0.516042
H116	H	1.209738	-0.039256	1.016042
H117	H	1.040097	-0.833902	0.331121
H118	H	1.540097	-0.333902	0.831121
Br119	Br	0.696581	-0.298324	0.286006
Br120	Br	1.196581	0.201676	0.786006
Br121	Br	1.058808	-0.752441	0.349884
Br122	Br	1.558808	-0.252441	0.849884
Br123	Br	1.033097	-0.570285	0.844924
Br124	Br	1.533097	-0.070285	1.344924
H125	H	0.966874	-0.919512	0.257777
H126	H	1.466874	-0.419512	0.757777
Br127	Br	0.515416	-0.298345	0.286024
Br128	Br	1.015416	0.201655	0.786024
H129	H	0.570311	-0.539259	0.516058
H130	H	1.070311	-0.039259	1.016058
H131	H	0.991069	-1.090399	0.281960
H132	H	1.491069	-0.590399	0.781960
Br133	Br	1.216729	-0.298332	0.987744
Br134	Br	1.716729	0.201668	1.487744
H135	H	1.182533	-1.175500	0.473662
H136	H	1.682533	-0.675500	0.973662
H137	H	1.255759	-1.089887	0.547024
H138	H	1.755759	-0.589887	1.047024
Br139	Br	1.311943	-0.974047	0.603303
Br140	Br	1.811943	-0.474047	1.103303
H141	H	1.258600	-0.777633	0.549950
H142	H	1.758600	-0.277633	1.049950
H143	H	1.195570	-0.329689	0.831873
H144	H	1.695570	0.170311	1.331873
H145	H	1.054267	-0.538925	1.000812
H146	H	1.554267	-0.038925	1.500812
