data_functionalizedCrystal
_audit_creation_method	'MofGen! by Chris Wilmer'
_symmetry_space_group_name_H-M	'P1'
_symmetry_Int_Tables_number	1
_symmetry_cell_setting	triclinic
loop_
_symmetry_equiv_pos_as_xyz
  x,y,z
_cell_length_a	19.077236
_cell_length_b	19.077432
_cell_length_c	19.076919
_cell_angle_alpha	89.934943
_cell_angle_beta	90.112677
_cell_angle_gamma	89.927472
loop_
_atom_site_label
_atom_site_type_symbol
_atom_site_fract_x
_atom_site_fract_y
_atom_site_fract_z
Zn1	Zn	1.068908	-0.254666	0.430741
Zn2	Zn	1.402241	0.078668	0.764075
Zn3	Zn	1.735574	0.412001	1.097408
Zn4	Zn	1.078235	-0.367094	0.308908
Zn5	Zn	1.411568	-0.033761	0.642241
Zn6	Zn	1.744901	0.299572	0.975575
Zn7	Zn	0.956108	-0.254298	0.308536
Zn8	Zn	1.289441	0.079036	0.641869
Zn9	Zn	1.622775	0.412369	0.975202
Zn10	Zn	0.956444	-0.376454	0.421286
Zn11	Zn	1.289778	-0.043120	0.754619
Zn12	Zn	1.623111	0.290213	1.087953
O13	O	1.014924	-0.313128	0.367368
O14	O	1.348257	0.020205	0.700701
O15	O	1.681590	0.353539	1.034034
O16	O	1.168322	-0.265816	0.418693
O17	O	1.501655	0.067517	0.752026
O18	O	1.834989	0.400850	1.085360
O19	O	1.065797	-0.348061	0.210685
O20	O	1.399130	-0.014727	0.544018
O21	O	1.732464	0.318606	0.877351
O22	O	0.967027	-0.156172	0.328548
O23	O	1.300360	0.177161	0.661881
O24	O	1.633694	0.510495	0.995214
O25	O	1.175174	-0.348417	0.329183
O26	O	1.508508	-0.015084	0.662516
O27	O	1.841841	0.318249	0.995849
O28	O	1.049901	-0.156442	0.418332
O29	O	1.383234	0.176891	0.751665
O30	O	1.716567	0.510225	1.084998
O31	O	0.976071	-0.265189	0.210411
O32	O	1.309404	0.068144	0.543744
O33	O	1.642738	0.401477	0.877078
O34	O	0.857976	-0.274265	0.319379
O35	O	1.191309	0.059068	0.652713
O36	O	1.524642	0.392402	0.986046
O37	O	0.967600	-0.364369	0.520715
O38	O	1.300933	-0.031036	0.854048
O39	O	1.634267	0.302297	1.187381
O40	O	0.858223	-0.364013	0.402217
O41	O	1.191556	-0.030679	0.735550
O42	O	1.524889	0.302654	1.068883
O43	O	1.050227	-0.274892	0.527661
O44	O	1.383560	0.058441	0.860995
O45	O	1.716893	0.391775	1.194328
O46	O	1.066123	-0.466510	0.320014
O47	O	1.399456	-0.133177	0.653347
O48	O	1.732790	0.200156	0.986681
O49	O	0.976644	-0.473387	0.402578
O50	O	1.309977	-0.140054	0.735911
O51	O	1.643311	0.193280	1.069244
C52	C	0.832643	-0.320115	0.359732
C53	C	1.165976	0.013218	0.693065
C54	C	1.499310	0.346552	1.026399
C55	C	0.754663	-0.323122	0.356481
C56	C	1.087996	0.010212	0.689814
C57	C	1.421329	0.343545	1.023148
C58	C	0.714461	-0.281603	0.401623
C59	C	1.047794	0.051731	0.734956
C60	C	1.381127	0.385064	1.068290
C61	C	0.641190	-0.284424	0.398563
C62	C	0.974523	0.048909	0.731896
C63	C	1.307857	0.382243	1.065229
C64	C	0.608123	-0.328769	0.350363
C65	C	0.941456	0.004564	0.683697
C66	C	1.274789	0.337898	1.017030
C67	C	0.648330	-0.370290	0.305217
C68	C	0.981663	-0.036956	0.638550
C69	C	1.314997	0.296377	0.971883
C70	C	0.721599	-0.367464	0.308274
C71	C	1.054933	-0.034131	0.641607
C72	C	1.388266	0.299203	0.974941
C73	C	0.389373	-0.341820	0.336212
C74	C	0.722707	-0.008487	0.669545
C75	C	1.056040	0.324847	1.002878
C76	C	0.316099	-0.344644	0.333159
C77	C	0.649432	-0.011311	0.666492
C78	C	0.982765	0.322022	0.999826
C79	C	0.308963	-0.258777	0.426504
C80	C	0.642297	0.074556	0.759838
C81	C	0.975630	0.407890	1.093171
C82	C	0.382235	-0.255959	0.429560
C83	C	0.715568	0.077375	0.762894
C84	C	1.048901	0.410708	1.096227
C85	C	0.422436	-0.297477	0.384411
C86	C	0.755769	0.035857	0.717745
C87	C	1.089102	0.369190	1.051078
N88	N	0.533228	-0.331656	0.347236
N89	N	0.866562	0.001678	0.680569
N90	N	1.199895	0.335011	1.013902
N91	N	0.497329	-0.294586	0.387536
N92	N	0.830662	0.038748	0.720870
N93	N	1.163995	0.372081	1.054203
C94	C	1.022451	-0.495404	0.360326
C95	C	1.355784	-0.162071	0.693660
C96	C	1.689117	0.171263	1.026993
C97	C	1.025734	-0.573381	0.357340
C98	C	1.359067	-0.240048	0.690674
C99	C	1.692401	0.093285	1.024007
C100	C	0.980660	-0.613620	0.398885
C101	C	1.313993	-0.280287	0.732219
C102	C	1.647327	0.053046	1.065552
C103	C	0.983748	-0.686888	0.396077
C104	C	1.317082	-0.353555	0.729410
C105	C	1.650415	-0.020221	1.062744
C106	C	1.031914	-0.719915	0.351726
C107	C	1.365247	-0.386582	0.685060
C108	C	1.698581	-0.053248	1.018393
C109	C	1.076990	-0.679670	0.310177
C110	C	1.410323	-0.346337	0.643510
C111	C	1.743656	-0.013004	0.976843
C112	C	1.073898	-0.606404	0.312982
C113	C	1.407231	-0.273071	0.646315
C114	C	1.740564	0.060263	0.979648
C115	C	1.046158	-0.938650	0.338728
C116	C	1.379491	-0.605317	0.672061
C117	C	1.712824	-0.271984	1.005394
C118	C	1.049248	-1.011922	0.335927
C119	C	1.382581	-0.678589	0.669260
C120	C	1.715914	-0.345255	1.002594
C121	C	0.956005	-1.019134	0.421827
C122	C	1.289338	-0.685801	0.755160
C123	C	1.622672	-0.352468	1.088493
C124	C	0.952920	-0.945867	0.424631
C125	C	1.286253	-0.612533	0.757965
C126	C	1.619587	-0.279200	1.091298
C127	C	0.997993	-0.905628	0.383079
C128	C	1.331326	-0.572295	0.716412
C129	C	1.664660	-0.238962	1.049745
N130	N	1.035073	-0.794806	0.348856
N131	N	1.368407	-0.461473	0.682189
N132	N	1.701740	-0.128139	1.015523
N133	N	0.994830	-0.830739	0.385946
N134	N	1.328163	-0.497405	0.719279
N135	N	1.661497	-0.164072	1.052612
C136	C	1.197916	-0.306114	0.375034
C137	C	1.531249	0.027219	0.708367
C138	C	1.864583	0.360553	1.041701
C139	C	1.275897	-0.303125	0.378301
C140	C	1.609230	0.030208	0.711634
C141	C	1.942563	0.363542	1.044968
C142	C	1.007910	-0.320716	0.550355
C143	C	1.341244	0.012618	0.883688
C144	C	1.674577	0.345951	1.217022
C145	C	1.004922	-0.323949	0.628333
C146	C	1.338255	0.009384	0.961667
C147	C	1.671588	0.342718	1.295000
C148	C	1.007386	-0.130140	0.374453
C149	C	1.340719	0.203194	0.707786
C150	C	1.674053	0.536527	1.041120
C151	C	1.004174	-0.052161	0.377472
C152	C	1.337507	0.281172	0.710805
C153	C	1.670841	0.614506	1.044139
C154	C	1.021948	-0.305517	0.185096
C155	C	1.355281	0.027816	0.518429
C156	C	1.688615	0.361149	0.851763
C157	C	1.025064	-0.302081	0.107132
C158	C	1.358398	0.031252	0.440465
C159	C	1.691731	0.364586	0.773798
C160	C	1.046535	-0.278884	0.668586
C161	C	1.379868	0.054449	1.001919
C162	C	1.713201	0.387782	1.335252
C163	C	1.043718	-0.281920	0.741854
C164	C	1.377051	0.051413	1.075187
C165	C	1.710385	0.384746	1.408521
C166	C	0.999291	-0.330025	0.774869
C167	C	1.332625	0.003309	1.108203
C168	C	1.665958	0.336642	1.441536
C169	C	0.957674	-0.375092	0.734612
C170	C	1.291007	-0.041758	1.067945
C171	C	1.624341	0.291575	1.401278
C172	C	0.960487	-0.372052	0.661344
C173	C	1.293821	-0.038718	0.994678
C174	C	1.627154	0.294615	1.328011
C175	C	0.986260	-0.344108	0.993607
C176	C	1.319594	-0.010775	1.326940
C177	C	1.652927	0.322559	1.660273
C178	C	0.983451	-0.347146	1.066879
C179	C	1.316785	-0.013813	1.400213
C180	C	1.650118	0.319521	1.733546
C181	C	1.069495	-0.253973	1.074117
C182	C	1.402828	0.079360	1.407450
C183	C	1.736162	0.412693	1.740783
C184	C	1.072308	-0.250941	1.000848
C185	C	1.405641	0.082393	1.334181
C186	C	1.738974	0.415726	1.667514
C187	C	1.030687	-0.296005	0.960597
C188	C	1.364021	0.037328	1.293930
C189	C	1.697354	0.370662	1.627263
N190	N	0.996413	-0.333131	0.849761
N191	N	1.329746	0.000203	1.183095
N192	N	1.663079	0.333536	1.516428
N193	N	1.033563	-0.292895	0.885706
N194	N	1.366896	0.040438	1.219039
N195	N	1.700229	0.373772	1.552372
H196	H	0.422096	-0.375628	0.299449
H197	H	0.755430	-0.042294	0.632782
H198	H	1.088763	0.291039	0.966115
F199	F	0.613135	-0.417481	0.253916
F200	F	0.946469	-0.084148	0.587249
F201	F	1.279802	0.249185	0.920582
H202	H	1.108486	-0.211771	0.973972
H203	H	1.441820	0.121563	1.307306
H204	H	1.775153	0.454896	1.640639
F205	F	0.417422	-0.208764	0.480864
F206	F	0.750755	0.124569	0.814197
F207	F	1.084088	0.457902	1.147531
F208	F	0.901657	-0.910722	0.471837
F209	F	1.234991	-0.577389	0.805171
F210	F	1.568324	-0.244056	1.138504
F211	F	1.113785	-0.206015	1.116960
F212	F	1.447119	0.127319	1.450293
F213	F	1.780452	0.460652	1.783626
H214	H	1.082859	-0.905894	0.304895
H215	H	1.416192	-0.572561	0.638229
H216	H	1.749526	-0.239227	0.971562
H217	H	0.754331	-0.401273	0.271514
H218	H	1.087665	-0.067940	0.604848
H219	H	1.420998	0.265394	0.938181
F220	F	0.598407	-0.240235	0.446610
F221	F	0.931740	0.093099	0.779944
F222	F	1.265074	0.426432	1.113277
H223	H	1.116204	-0.706567	0.274062
H224	H	1.449538	-0.373233	0.607395
H225	H	1.782871	-0.039900	0.940729
H226	H	1.110601	-0.573642	0.279150
H227	H	1.443934	-0.240308	0.612484
H228	H	1.777267	0.093025	0.945817
F229	F	1.100515	-1.047070	0.288721
F230	F	1.433848	-0.713736	0.622054
F231	F	1.767181	-0.380403	0.955387
F232	F	0.266174	-0.214593	0.474551
F233	F	0.599507	0.118740	0.807884
F234	F	0.932840	0.452074	1.141218
H235	H	0.919308	-1.051904	0.455656
H236	H	1.252642	-0.718571	0.788989
H237	H	1.585975	-0.385237	1.122322
F238	F	0.936161	-0.398345	1.102015
F239	F	1.269495	-0.065012	1.435348
F240	F	1.602828	0.268322	1.768681
H241	H	1.082714	-0.239714	0.641710
H242	H	1.416047	0.093619	0.975044
H243	H	1.749381	0.426952	1.308377
F244	F	0.280908	-0.391858	0.281869
F245	F	0.614241	-0.058525	0.615202
F246	F	0.947574	0.274809	0.948536
H247	H	0.741378	-0.245494	0.440874
H248	H	1.074712	0.087839	0.774207
H249	H	1.408045	0.421173	1.107541
H250	H	0.921498	-0.414257	0.761498
H251	H	1.254831	-0.080924	1.094832
H252	H	1.588165	0.252410	1.428165
F253	F	0.941964	-0.392070	0.950778
F254	F	1.275297	-0.058737	1.284111
F255	F	1.608631	0.274597	1.617444
F256	F	0.916195	-0.420014	0.618505
F257	F	1.249529	-0.086681	0.951839
F258	F	1.582862	0.246652	1.285172
F259	F	0.929398	-0.578477	0.446093
F260	F	1.262732	-0.245144	0.779427
F261	F	1.596065	0.088189	1.112760
H262	H	0.947038	-0.719648	0.429901
H263	H	1.280372	-0.386314	0.763234
H264	H	1.613705	-0.052981	1.096567
H265	H	1.077605	-0.245225	0.774625
H266	H	1.410939	0.088108	1.107958
H267	H	1.744272	0.421441	1.441291
