data_functionalizedCrystal
_audit_creation_method	'MofGen! by Chris Wilmer'
_symmetry_space_group_name_H-M	'P1'
_symmetry_Int_Tables_number	1
_symmetry_cell_setting	triclinic
loop_
_symmetry_equiv_pos_as_xyz
  x,y,z
_cell_length_a	17.077404
_cell_length_b	16.625545
_cell_length_c	17.077396
_cell_angle_alpha	90.027926
_cell_angle_beta	90.018362
_cell_angle_gamma	90.023528
loop_
_atom_site_label
_atom_site_type_symbol
_atom_site_fract_x
_atom_site_fract_y
_atom_site_fract_z
Zn1	Zn	1.200040	-0.321045	0.443822
Zn2	Zn	1.700040	0.178955	0.943822
Zn3	Zn	1.199941	-0.455888	0.312557
Zn4	Zn	1.699941	0.044112	0.812557
Zn5	Zn	1.068772	-0.321068	0.312572
Zn6	Zn	1.568772	0.178932	0.812572
Zn7	Zn	1.068734	-0.455835	0.443783
Zn8	Zn	1.568734	0.044165	0.943783
O9	O	1.134372	-0.388459	0.378184
O10	O	1.634372	0.111541	0.878184
O11	O	1.309874	-0.338945	0.426419
O12	O	1.809874	0.161055	0.926419
O13	O	1.182516	-0.438036	0.202712
O14	O	1.682516	0.061964	0.702712
O15	O	1.086242	-0.208233	0.330005
O16	O	1.586242	0.291767	0.830005
O17	O	1.309801	-0.438013	0.329979
O18	O	1.809801	0.061987	0.829979
O19	O	1.182684	-0.208216	0.426434
O20	O	1.682684	0.291784	0.926434
O21	O	1.086146	-0.338984	0.202723
O22	O	1.586146	0.161016	0.702723
O23	O	0.958920	-0.338933	0.329968
O24	O	1.458920	0.161067	0.829968
O25	O	1.086177	-0.437923	0.553635
O26	O	1.586177	0.062077	1.053635
O27	O	0.958892	-0.437945	0.426368
O28	O	1.458892	0.062055	0.926368
O29	O	1.182647	-0.338894	0.553664
O30	O	1.682647	0.161106	1.053664
O31	O	1.182479	-0.568713	0.329942
O32	O	1.682479	-0.068713	0.829942
O33	O	1.086081	-0.568674	0.426353
O34	O	1.586081	-0.068674	0.926353
C35	C	0.930424	-0.388436	0.378166
C36	C	1.430424	0.111564	0.878166
C37	C	0.843174	-0.388446	0.378177
C38	C	1.343174	0.111554	0.878177
C39	C	0.802222	-0.336953	0.428470
C40	C	1.302222	0.163047	0.928470
C41	C	0.720242	-0.336958	0.428474
C42	C	1.220242	0.163042	0.928474
C43	C	0.679215	-0.388461	0.378188
C44	C	1.179215	0.111539	0.878188
C45	C	0.720172	-0.439956	0.327889
C46	C	1.220172	0.060044	0.827889
C47	C	0.802151	-0.439947	0.327882
C48	C	1.302151	0.060053	0.827882
C49	C	0.549302	-0.439975	0.327909
C50	C	1.049302	0.060025	0.827909
C51	C	0.467317	-0.439986	0.327917
C52	C	0.967317	0.060014	0.827917
C53	C	0.467393	-0.336986	0.428500
C54	C	0.967393	0.163014	0.928500
C55	C	0.549372	-0.336976	0.428493
C56	C	1.049372	0.163024	0.928493
C57	C	0.590324	-0.388473	0.378196
C58	C	1.090324	0.111527	0.878196
C59	C	1.134286	-0.597950	0.378159
C60	C	1.634286	-0.097950	0.878159
C61	C	1.134322	-0.687571	0.378175
C62	C	1.634322	-0.187571	0.878175
C63	C	1.134352	-0.760354	0.378190
C64	C	1.634352	-0.260354	0.878190
C65	C	1.134398	-0.851662	0.378208
C66	C	1.634398	-0.351662	0.878208
C67	C	1.134439	-0.924438	0.378218
C68	C	1.634439	-0.424438	0.878218
C69	C	1.134483	-1.015753	0.378234
C70	C	1.634483	-0.515753	0.878234
C71	C	1.339116	-0.388483	0.378202
C72	C	1.839116	0.111517	0.878202
C73	C	1.426366	-0.388493	0.378210
C74	C	1.926366	0.111507	0.878210
C75	C	1.134419	-0.388400	0.582928
C76	C	1.634419	0.111600	1.082928
C77	C	1.134439	-0.388374	0.670178
C78	C	1.634439	0.111626	1.170178
C79	C	1.134479	-0.178150	0.378226
C80	C	1.634479	0.321850	0.878226
C81	C	1.134524	-0.088529	0.378244
C82	C	1.634524	0.411471	0.878244
C83	C	1.134370	-0.388460	0.174236
C84	C	1.634370	0.111540	0.674236
C85	C	1.134501	-0.388258	0.086986
C86	C	1.634501	0.111742	0.586986
C87	C	1.184673	-0.336806	0.711184
C88	C	1.684673	0.163194	1.211184
C89	C	1.184683	-0.336779	0.793165
C90	C	1.684683	0.163221	1.293165
C91	C	1.134462	-0.388325	0.834137
C92	C	1.634462	0.111675	1.334137
C93	C	1.084222	-0.439897	0.793125
C94	C	1.584222	0.060103	1.293125
C95	C	1.084209	-0.439919	0.711146
C96	C	1.584209	0.060081	1.211146
C97	C	1.084254	-0.439848	0.963996
C98	C	1.584254	0.060152	1.463996
C99	C	1.084268	-0.439827	1.045980
C100	C	1.584268	0.060173	1.545980
C101	C	1.184727	-0.336708	1.046014
C102	C	1.684727	0.163292	1.546014
C103	C	1.184714	-0.336730	0.964035
C104	C	1.684714	0.163270	1.464035
C105	C	1.134476	-0.388303	0.923028
C106	C	1.634476	0.111697	1.423028
H107	H	0.582642	-0.481907	0.286949
H108	H	1.082642	0.018093	0.786949
H109	H	0.686903	-0.295029	0.469429
H110	H	1.186903	0.204971	0.969429
O111	O	1.035406	-0.489921	1.085661
O112	O	1.535406	0.010079	1.585661
C113	C	0.991071	-0.535454	1.031892
C114	C	1.491071	-0.035454	1.531892
H115	H	0.988359	-0.502445	0.973460
H116	H	1.488359	-0.002445	1.473460
H117	H	1.019776	-0.596701	1.023164
H118	H	1.519776	-0.096701	1.523164
C119	C	0.910858	-0.587588	1.135645
C120	C	1.410858	-0.087588	1.635645
C121	C	0.907521	-0.547043	1.063880
C122	C	1.407521	-0.047043	1.563880
H123	H	0.859321	-0.594741	1.155377
H124	H	1.359321	-0.094741	1.655377
H125	H	0.940729	-0.556914	1.171871
H126	H	1.440729	-0.056914	1.671871
H127	H	0.934783	-0.638623	1.128362
H128	H	1.434783	-0.138623	1.628362
H129	H	0.883606	-0.496006	1.071165
H130	H	1.383606	0.003994	1.571165
H131	H	0.877644	-0.577709	1.027655
H132	H	1.377644	-0.077709	1.527655
H133	H	0.835621	-0.295015	0.469421
H134	H	1.335621	0.204985	0.969421
O135	O	1.233348	-0.286690	0.671302
O136	O	1.733348	0.213310	1.171302
C137	C	1.188673	-0.234607	0.623903
C138	C	1.688673	0.265393	1.123903
H139	H	1.129171	-0.263044	0.611602
H140	H	1.629171	0.236956	1.111602
H141	H	1.180079	-0.174847	0.655512
H142	H	1.680079	0.325153	1.155512
C143	C	1.304940	-0.185098	0.561151
C144	C	1.804940	0.314902	1.061151
C145	C	1.231861	-0.220028	0.546038
C146	C	1.731861	0.279972	1.046038
H147	H	1.331581	-0.176101	0.513121
H148	H	1.831581	0.323899	1.013121
H149	H	1.335039	-0.220185	0.593086
H150	H	1.835039	0.279815	1.093086
H151	H	1.297768	-0.135302	0.587494
H152	H	1.797768	0.364698	1.087494
H153	H	1.239034	-0.269828	0.519704
H154	H	1.739034	0.230172	1.019704
H155	H	1.201764	-0.184949	0.514096
H156	H	1.701764	0.315051	1.014096
H157	H	1.043332	-0.481831	0.930611
H158	H	1.543332	0.018169	1.430611
H159	H	0.582774	-0.295043	0.469445
H160	H	1.082774	0.204957	0.969445
H161	H	0.434046	-0.295054	0.469453
H162	H	0.934046	0.204946	0.969453
O163	O	1.035364	-0.489996	0.832803
O164	O	1.535364	0.010004	1.332803
C165	C	0.991037	-0.535531	0.779027
C166	C	1.491037	-0.035531	1.279027
H167	H	0.988324	-0.502519	0.720597
H168	H	1.488324	-0.002519	1.220597
H169	H	1.019751	-0.596773	0.770297
H170	H	1.519751	-0.096773	1.270297
C171	C	0.910824	-0.587684	0.882772
C172	C	1.410824	-0.087684	1.382772
C173	C	0.907487	-0.547134	0.811009
C174	C	1.407487	-0.047134	1.311009
H175	H	0.859287	-0.594844	0.902500
H176	H	1.359287	-0.094844	1.402500
H177	H	0.940689	-0.557008	0.919002
H178	H	1.440689	-0.057008	1.419002
H179	H	0.934756	-0.638714	0.875487
H180	H	1.434756	-0.138714	1.375487
H181	H	0.883564	-0.496100	0.818297
H182	H	1.383564	0.003900	1.318297
H183	H	0.877615	-0.577801	0.774780
H184	H	1.377615	-0.077801	1.274780
O185	O	1.035527	-0.490054	0.671220
O186	O	1.535527	0.009946	1.171220
C187	C	1.080190	-0.542159	0.623810
C188	C	1.580190	-0.042159	1.123810
H189	H	1.139691	-0.513729	0.611551
H190	H	1.639691	-0.013729	1.111551
H191	H	1.088787	-0.601907	0.655389
H192	H	1.588787	-0.101907	1.155389
C193	C	0.963907	-0.591686	0.560979
C194	C	1.463907	-0.091686	1.060979
C195	C	1.036985	-0.556766	0.545918
C196	C	1.536985	-0.056766	1.045918
H197	H	0.937255	-0.600700	0.512933
H198	H	1.437255	-0.100700	1.012933
H199	H	0.933816	-0.556585	0.592922
H200	H	1.433816	-0.056585	1.092922
H201	H	0.971082	-0.641472	0.587297
H202	H	1.471082	-0.141472	1.087297
H203	H	1.029808	-0.506977	0.519610
H204	H	1.529808	-0.006977	1.019610
H205	H	1.067073	-0.591859	0.513969
H206	H	1.567073	-0.091859	1.013969
H207	H	0.433915	-0.481925	0.286970
H208	H	0.933915	0.018075	0.786970
H209	H	1.225613	-0.294761	0.930677
H210	H	1.725613	0.205239	1.430677
H211	H	0.686761	-0.481887	0.286942
H212	H	1.186761	0.018113	0.786942
O213	O	1.233557	-0.286662	0.832876
O214	O	1.733557	0.213338	1.332876
C215	C	1.277871	-0.241162	0.779134
C216	C	1.777871	0.258838	1.279134
H217	H	1.280560	-0.274206	0.720691
H218	H	1.780560	0.225794	1.220691
H219	H	1.249160	-0.179921	0.770421
H220	H	1.749160	0.320079	1.270421
C221	C	1.358125	-0.188962	0.882925
C222	C	1.858125	0.311038	1.382925
C223	C	1.361433	-0.229551	0.811146
C224	C	1.861433	0.270449	1.311146
H225	H	1.409669	-0.181796	0.902672
H226	H	1.909669	0.318204	1.402672
H227	H	1.328268	-0.219614	0.919133
H228	H	1.828268	0.280386	1.419133
H229	H	1.334196	-0.137932	0.875655
H230	H	1.834196	0.362068	1.375655
H231	H	1.385352	-0.280584	0.818418
H232	H	1.885352	0.219416	1.318418
H233	H	1.391295	-0.198907	0.774939
H234	H	1.891295	0.301093	1.274939
O235	O	1.233446	-0.286625	1.085964
O236	O	1.733446	0.213375	1.585964
C237	C	1.222697	-0.297663	1.167107
C238	C	1.722697	0.202337	1.667107
H239	H	1.162109	-0.324066	1.178286
H240	H	1.662109	0.175934	1.678286
H241	H	1.269243	-0.340591	1.190378
H242	H	1.769243	0.159409	1.690378
C243	C	1.304342	-0.183635	1.195475
C244	C	1.804342	0.316365	1.695475
C245	C	1.229924	-0.216057	1.209206
C246	C	1.729924	0.283943	1.709206
H247	H	1.308803	-0.133298	1.221445
H248	H	1.808803	0.366702	1.721445
H249	H	1.311586	-0.176200	1.140808
H250	H	1.811586	0.323800	1.640808
H251	H	1.343122	-0.219417	1.214868
H252	H	1.843122	0.280583	1.714868
H253	H	1.191146	-0.180280	1.189804
H254	H	1.691146	0.319720	1.689804
H255	H	1.222673	-0.223484	1.263871
H256	H	1.722673	0.276516	1.763871
H257	H	0.835492	-0.481877	0.286928
H258	H	1.335492	0.018123	0.786928
