data_functionalizedCrystal
_audit_creation_method	'MofGen! by Chris Wilmer'
_symmetry_space_group_name_H-M	'P1'
_symmetry_Int_Tables_number	1
_symmetry_cell_setting	triclinic
loop_
_symmetry_equiv_pos_as_xyz
  x,y,z
_cell_length_a	21.295420
_cell_length_b	21.295417
_cell_length_c	19.121175
_cell_angle_alpha	87.588747
_cell_angle_beta	92.457308
_cell_angle_gamma	90.027953
loop_
_atom_site_label
_atom_site_type_symbol
_atom_site_fract_x
_atom_site_fract_y
_atom_site_fract_z
Zn1	Zn	0.977486	-0.265832	0.397106
Zn2	Zn	0.972915	-0.366611	0.279651
Zn3	Zn	0.867735	-0.261357	0.279670
Zn4	Zn	0.872178	-0.371062	0.397060
O5	O	0.922579	-0.316216	0.338372
O6	O	1.064969	-0.279211	0.381536
O7	O	0.955191	-0.348914	0.181370
O8	O	0.882347	-0.173863	0.295276
O9	O	1.061611	-0.353253	0.295242
O10	O	0.962980	-0.177150	0.381555
O11	O	0.877916	-0.271584	0.181384
O12	O	0.780235	-0.275900	0.295231
O13	O	0.889919	-0.360839	0.495349
O14	O	0.783499	-0.356500	0.381477
O15	O	0.967288	-0.283527	0.495383
O16	O	0.959499	-0.455290	0.295198
O17	O	0.885488	-0.458560	0.381458
C18	C	0.759026	-0.316198	0.338351
C19	C	0.689058	-0.316206	0.338359
C20	C	0.191315	-0.358257	0.383236
C21	C	0.257058	-0.358256	0.383229
C22	C	0.288220	-0.316231	0.338394
C23	C	0.253635	-0.274213	0.293550
C24	C	0.187894	-0.274219	0.293554
N25	N	0.391259	-0.260912	0.333112
N26	N	0.453711	-0.260909	0.333113
C27	C	0.486294	-0.316213	0.338379
N28	N	0.454068	-0.371521	0.343658
N29	N	0.391611	-0.371524	0.343661
C30	C	0.359505	-0.316220	0.338384
C31	C	0.592157	-0.358231	0.383208
C32	C	0.657900	-0.358231	0.383196
C33	C	0.654476	-0.274183	0.293521
C34	C	0.588734	-0.274187	0.293529
C35	C	0.557579	-0.316211	0.338377
C36	C	0.922497	-0.479766	0.338336
C37	C	0.922521	-0.549734	0.338344
C38	C	0.964484	-0.584257	0.383302
C39	C	0.964507	-0.650000	0.383319
C40	C	0.922572	-0.681218	0.338366
C41	C	0.880601	-0.646687	0.293406
C42	C	0.880575	-0.580946	0.293394
N43	N	0.915472	-0.782129	0.276900
N44	N	0.915500	-0.844581	0.276913
C45	C	0.922647	-0.879294	0.338398
N46	N	0.929777	-0.849195	0.399872
N47	N	0.929752	-0.786737	0.399859
C48	C	0.922596	-0.752503	0.338374
C49	C	0.964638	-0.985103	0.383379
C50	C	0.964657	-1.050847	0.383397
C51	C	0.880753	-1.047533	0.293477
C52	C	0.880732	-0.981790	0.293465
C53	C	0.922677	-0.950579	0.338414
C54	C	1.086770	-0.316234	0.338392
C55	C	1.156738	-0.316242	0.338401
C56	C	0.929609	-0.323178	0.521562
C57	C	0.932605	-0.326145	0.599627
C58	C	0.922678	-0.152027	0.338423
C59	C	0.922721	-0.082060	0.338444
C60	C	0.915612	-0.309235	0.155894
C61	C	0.912738	-0.306090	0.077829
C62	C	0.893781	-0.287279	0.636309
C63	C	0.896594	-0.290072	0.709660
C64	C	0.938234	-0.331729	0.746327
C65	C	0.977059	-0.370600	0.709639
C66	C	0.974243	-0.367809	0.636290
C67	C	0.948747	-0.342171	0.967793
C68	C	0.951562	-0.344957	1.041147
C69	C	0.871095	-0.264430	1.041162
C70	C	0.868285	-0.261640	0.967812
C71	C	0.907108	-0.300514	0.931131
C72	C	0.941111	-0.334583	0.821302
C73	C	0.904227	-0.297662	0.856156
H74	H	0.998674	-0.678114	0.419938
O75	O	0.154231	-0.233383	0.250093
C76	C	0.079697	-0.148025	0.240805
C77	C	0.117778	-0.194239	0.290104
H78	H	0.050225	-0.116355	0.273134
H79	H	0.047451	-0.175460	0.204046
H80	H	0.113265	-0.118016	0.208731
H81	H	0.084258	-0.224259	0.322223
H82	H	0.150032	-0.166765	0.326817
H83	H	0.870322	-0.263747	0.826299
H84	H	0.566789	-0.392449	0.419725
O85	O	0.853275	-0.246798	0.600803
C86	C	0.773782	-0.167200	0.608568
C87	C	0.819619	-0.213025	0.648863
H88	H	0.746568	-0.139873	0.647407
H89	H	0.739490	-0.194763	0.574234
H90	H	0.801391	-0.133007	0.574222
H91	H	0.792062	-0.247228	0.683247
H92	H	0.853912	-0.185422	0.683153
H93	H	0.998638	-0.558847	0.419905
O94	O	0.684840	-0.233382	0.250032
C95	C	0.784599	-0.196155	0.210247
C96	C	0.750289	-0.242383	0.259550
H97	H	0.837520	-0.203424	0.217914
H98	H	0.772222	-0.145872	0.222682
H99	H	0.769446	-0.204975	0.153602
H100	H	0.765423	-0.233619	0.316211
H101	H	0.762667	-0.292650	0.247054
O102	O	0.283803	-0.233368	0.249930
C103	C	0.273472	-0.149986	0.161008
C104	C	0.239227	-0.196218	0.210367
H105	H	0.237448	-0.119929	0.129020
H106	H	0.302802	-0.177408	0.124180
H107	H	0.305525	-0.118365	0.193326
H108	H	0.207142	-0.227850	0.178106
H109	H	0.209936	-0.168757	0.247197
H110	H	0.846605	-1.072949	0.256880
H111	H	1.010960	-0.404521	0.739500
H112	H	0.846456	-0.672109	0.256806
O113	O	0.839951	-0.948345	0.249719
C114	C	0.756711	-0.951999	0.160561
C115	C	0.802875	-0.989950	0.210056
H116	H	0.726714	-0.985621	0.128490
H117	H	0.784188	-0.919831	0.123815
H118	H	0.725024	-0.922443	0.192776
H119	H	0.834573	-1.019543	0.177897
H120	H	0.775359	-1.022079	0.246804
O121	O	1.011928	-0.405655	0.600731
C122	C	1.041521	-0.511884	0.578220
C123	C	0.998819	-0.469092	0.618547
H124	H	1.030929	-0.563182	0.592598
H125	H	1.092853	-0.501440	0.592661
H126	H	1.032364	-0.502703	0.519502
H127	H	1.007921	-0.478249	0.677274
H128	H	0.947502	-0.479545	0.604048
H129	H	0.686052	-0.392449	0.419704
H130	H	0.560581	-0.239972	0.257022
O131	O	1.005362	-1.084481	0.427050
C132	C	1.042612	-1.187226	0.466889
C133	C	0.996470	-1.149213	0.417428
H134	H	1.035447	-1.239569	0.459116
H135	H	1.033689	-1.176485	0.523524
H136	H	1.092896	-1.173759	0.454607
H137	H	0.946168	-1.162659	0.429646
H138	H	1.005447	-1.159958	0.360808
H139	H	0.846402	-0.552837	0.256784
O140	O	0.986530	-0.379947	0.932276
C141	C	1.066625	-0.460126	0.940008
C142	C	1.023877	-0.417372	0.980322
H143	H	1.096822	-0.490404	0.978836
H144	H	1.098281	-0.429950	0.905704
H145	H	1.036383	-0.491708	0.905632
H146	H	1.054070	-0.385782	1.014736
H147	H	0.992217	-0.447585	1.014582
H148	H	0.998791	-0.959690	0.419982
H149	H	0.285216	-0.392470	0.419741
O150	O	0.858807	-0.252411	0.745317
C151	C	0.777008	-0.247092	0.828133
C152	C	0.819763	-0.289815	0.787787
H153	H	0.745440	-0.277315	0.862490
H154	H	0.746722	-0.216856	0.789351
H155	H	0.807248	-0.215469	0.862464
H156	H	0.789572	-0.321476	0.753455
H157	H	0.850053	-0.320008	0.826607
O158	O	0.833356	-0.226612	1.076686
C159	C	0.753214	-0.146479	1.068958
C160	C	0.795933	-0.189261	1.028642
H161	H	0.722937	-0.116279	1.030133
H162	H	0.783419	-0.114829	1.103295
H163	H	0.721628	-0.176694	1.103303
H164	H	0.827527	-0.159095	0.994259
H165	H	0.765690	-0.220915	0.994350
O166	O	0.992074	-0.385342	1.076802
C167	C	1.080201	-0.396982	1.159668
C168	C	1.034378	-0.351180	1.119318
H169	H	1.114407	-0.369382	1.194063
H170	H	1.107513	-0.424283	1.120888
H171	H	1.052573	-0.431202	1.193962
H172	H	1.061958	-0.316922	1.085023
H173	H	1.007065	-0.323925	1.158135
O174	O	0.827922	-0.221111	0.932161
C175	C	0.816325	-0.133002	0.849336
C176	C	0.862105	-0.178852	0.889681
H177	H	0.843943	-0.098833	0.814970
H178	H	0.789066	-0.105653	0.888119
H179	H	0.782066	-0.160611	0.815014
H180	H	0.896402	-0.151293	0.924004
H181	H	0.889319	-0.206202	0.850860
O182	O	0.161150	-0.399145	0.426812
C183	C	0.171487	-0.482489	0.515777
C184	C	0.205731	-0.436223	0.466456
H185	H	0.207516	-0.512470	0.547852
H186	H	0.139474	-0.514178	0.483496
H187	H	0.142115	-0.455033	0.552532
H188	H	0.235137	-0.463628	0.429691
H189	H	0.237706	-0.404534	0.498781
H190	H	0.975014	-0.368501	0.851165
