data_functionalizedCrystal
_audit_creation_method	'MofGen! by Chris Wilmer'
_symmetry_space_group_name_H-M	'P1'
_symmetry_Int_Tables_number	1
_symmetry_cell_setting	triclinic
loop_
_symmetry_equiv_pos_as_xyz
  x,y,z
_cell_length_a	16.992694
_cell_length_b	22.610064
_cell_length_c	16.992695
_cell_angle_alpha	89.995894
_cell_angle_beta	90.668223
_cell_angle_gamma	90.003118
loop_
_atom_site_label
_atom_site_type_symbol
_atom_site_fract_x
_atom_site_fract_y
_atom_site_fract_z
O1	O	1.050855	0.049111	0.166906
O2	O	1.550855	0.549111	0.666906
O3	O	0.822455	0.049128	0.165075
O4	O	1.322455	0.549128	0.665075
O5	O	0.935740	0.049115	0.051791
O6	O	1.435740	0.549115	0.551791
O7	O	0.937571	0.049124	0.280191
O8	O	1.437571	0.549124	0.780191
O9	O	0.935719	-0.049254	0.051807
O10	O	1.435719	0.450746	0.551807
O11	O	0.822435	-0.049241	0.165091
O12	O	1.322435	0.450759	0.665091
O13	O	1.050835	-0.049258	0.166923
O14	O	1.550835	0.450742	0.666923
Zn15	Zn	0.936632	-0.064868	0.166010
Zn16	Zn	1.436632	0.435132	0.666010
Zn17	Zn	0.936659	0.064738	0.165988
Zn18	Zn	1.436659	0.564738	0.665988
O19	O	0.937551	-0.049245	0.280207
O20	O	1.437551	0.450755	0.780207
C21	C	0.793085	-0.000054	0.162727
C22	C	1.293085	0.499946	0.662727
C23	C	0.705600	-0.000047	0.155699
C24	C	1.205600	0.499953	0.655699
N25	N	0.936619	-0.153320	0.166024
N26	N	1.436619	0.346680	0.666024
C27	C	0.659610	-0.000045	0.223517
C28	C	1.159610	0.499955	0.723517
C29	C	0.577409	-0.000054	0.216908
C30	C	1.077409	0.499946	0.716908
C31	C	0.541201	-0.000060	0.142480
C32	C	1.041201	0.499940	0.642480
C33	C	0.587198	-0.000064	0.074657
C34	C	1.087198	0.499936	0.574657
C35	C	0.669397	-0.000060	0.081267
C36	C	1.169397	0.499940	0.581267
C37	C	0.295886	-0.000077	0.115086
C38	C	0.795886	0.499923	0.615086
C39	C	0.213681	-0.000079	0.108481
C40	C	0.713681	0.499921	0.608481
C41	C	0.203898	-0.000070	0.250732
C42	C	0.703898	0.499930	0.750732
C43	C	0.286099	-0.000062	0.257336
C44	C	0.786099	0.499938	0.757336
C45	C	0.332089	-0.000069	0.189512
C46	C	0.832089	0.499931	0.689512
N47	N	0.457178	-0.000067	0.135723
N48	N	0.957178	0.499933	0.635723
N49	N	0.416110	-0.000067	0.196270
N50	N	0.916110	0.499933	0.696270
C51	C	0.986824	-0.561967	0.115834
C52	C	1.486824	-0.061967	0.615834
C53	C	0.986827	-0.623887	0.115829
C54	C	1.486827	-0.123887	0.615829
O55	O	1.029480	-0.655911	0.073165
O56	O	1.529480	-0.155911	0.573165
N57	N	0.936657	-0.654857	0.165972
N58	N	1.436657	-0.154857	0.665972
C59	C	0.886474	-0.623904	0.216118
C60	C	1.386474	-0.123904	0.716118
O61	O	0.843800	-0.655932	0.258767
O62	O	1.343800	-0.155932	0.758767
C63	C	0.886467	-0.561985	0.216119
C64	C	1.386467	-0.061985	0.716119
C65	C	0.936646	-0.531019	0.165978
C66	C	1.436646	-0.031019	0.665978
C67	C	1.036999	-0.531001	0.065697
C68	C	1.536999	-0.031001	0.565697
C69	C	1.036996	-0.469085	0.065704
C70	C	1.536996	0.030915	0.565704
C71	C	0.986818	-0.438136	0.115847
C72	C	1.486818	0.061864	0.615847
C73	C	0.936643	-0.469103	0.165985
C74	C	1.436643	0.030897	0.665985
C75	C	0.836280	-0.531033	0.266260
C76	C	1.336280	-0.031033	0.766260
C77	C	0.836277	-0.469110	0.266256
C78	C	1.336277	0.030890	0.766256
C79	C	0.886456	-0.438144	0.216116
C80	C	1.386456	0.061856	0.716116
C81	C	0.886463	-0.376239	0.216135
C82	C	1.386463	0.123761	0.716135
N83	N	0.936634	-0.345269	0.165992
N84	N	1.436634	0.154731	0.665992
C85	C	0.986811	-0.376217	0.115848
C86	C	1.486811	0.123783	0.615848
C87	C	0.886491	-0.753938	0.216111
C88	C	1.386491	-0.253938	0.716111
C89	C	0.886502	-0.815855	0.216115
C90	C	1.386502	-0.315855	0.716115
C91	C	0.986855	-0.815834	0.115825
C92	C	1.486855	-0.315834	0.615825
C93	C	0.986848	-0.753916	0.115825
C94	C	1.486848	-0.253916	0.615825
C95	C	0.936662	-0.722968	0.165968
C96	C	1.436662	-0.222968	0.665968
C97	C	0.986802	-0.246190	0.115867
C98	C	1.486802	0.253810	0.615867
C99	C	0.986797	-0.184269	0.115880
C100	C	1.486797	0.315731	0.615880
C101	C	0.886441	-0.184295	0.216167
C102	C	1.386441	0.315705	0.716167
C103	C	0.886449	-0.246211	0.216157
C104	C	1.386449	0.253789	0.716157
C105	C	0.936632	-0.277157	0.166000
C106	C	1.436632	0.222843	0.666000
O107	O	0.843830	-0.344175	0.258775
O108	O	1.343830	0.155825	0.758775
O109	O	1.029471	-0.344182	0.073199
O110	O	1.529471	0.155818	0.573199
C111	C	1.080205	-0.000075	0.169270
C112	C	1.580205	0.499925	0.669270
C113	C	1.167690	-0.000077	0.176299
C114	C	1.667690	0.499923	0.676299
C115	C	0.933374	-0.000069	0.022439
C116	C	1.433374	0.499931	0.522439
C117	C	0.926345	-0.000069	-0.065046
C118	C	1.426345	0.499931	0.434954
N119	N	0.936677	0.153190	0.165968
N120	N	1.436677	0.653190	0.665968
C121	C	0.994163	-0.000074	-0.111037
C122	C	1.494163	0.499926	0.388963
C123	C	0.987554	-0.000068	-0.193238
C124	C	1.487554	0.499932	0.306762
C125	C	0.913127	-0.000061	-0.229446
C126	C	1.413127	0.499939	0.270554
C127	C	0.845303	-0.000053	-0.183449
C128	C	1.345303	0.499947	0.316551
C129	C	0.851913	-0.000055	-0.101250
C130	C	1.351913	0.499945	0.398750
C131	C	0.885732	-0.000050	-0.474760
C132	C	1.385732	0.499950	0.025240
C133	C	0.879127	-0.000050	-0.556966
C134	C	1.379127	0.499950	-0.056966
C135	C	1.021379	-0.000064	-0.566749
C136	C	1.521379	0.499936	-0.066749
C137	C	1.027982	-0.000070	-0.484547
C138	C	1.527982	0.499930	0.015453
C139	C	0.960159	-0.000059	-0.438558
C140	C	1.460159	0.499941	0.061442
N141	N	0.906369	-0.000056	-0.313468
N142	N	1.406369	0.499944	0.186532
N143	N	0.966917	-0.000059	-0.354537
N144	N	1.466917	0.499941	0.145463
C145	C	0.939917	-0.000059	0.309559
C146	C	1.439917	0.499941	0.809559
C147	C	0.946945	-0.000056	0.397044
C148	C	1.446945	0.499944	0.897044
H149	H	0.689084	-0.000039	0.284124
H150	H	1.189084	0.499961	0.784124
C151	C	0.325923	-0.000064	0.339206
C152	C	0.825923	0.499936	0.839206
H153	H	0.286758	-0.000070	0.378650
H154	H	0.786758	0.499930	0.878650
H155	H	0.357788	0.034240	0.344739
H156	H	0.857788	0.534240	0.844739
H157	H	0.357782	-0.034372	0.344741
H158	H	0.857782	0.465628	0.844741
C159	C	1.042047	-0.849883	0.060661
C160	C	1.542047	-0.349883	0.560661
H161	H	1.071935	-0.822576	0.030799
H162	H	1.571935	-0.322576	0.530799
H163	H	1.011677	-0.874038	0.026104
H164	H	1.511677	-0.374038	0.526104
H165	H	1.076591	-0.874037	0.091056
H166	H	1.576591	-0.374037	0.591056
H167	H	0.784703	-0.000043	-0.212936
H168	H	1.284703	0.499957	0.287064
C169	C	0.153308	-0.000070	0.325330
C170	C	0.653308	0.499930	0.825330
H171	H	0.099167	-0.000078	0.310738
H172	H	0.599167	0.499922	0.810738
H173	H	0.164768	0.034234	0.355634
H174	H	0.664768	0.534234	0.855634
H175	H	0.164772	-0.034377	0.355639
H176	H	0.664772	0.465623	0.855639
H177	H	0.818516	-0.000054	-0.586443
H178	H	1.318516	0.499946	-0.086443
C179	C	0.811129	-0.000049	-0.424182
C180	C	1.311129	0.499951	0.075818
H181	H	0.765859	-0.000052	-0.457521
H182	H	1.265859	0.499948	0.042479
H183	H	0.810750	0.034253	-0.391912
H184	H	1.310750	0.534253	0.108088
H185	H	0.810747	-0.034359	-0.391913
H186	H	1.310747	0.465641	0.108087
H187	H	0.845590	-0.159087	0.256996
H188	H	1.345590	0.340913	0.756996
H189	H	0.796688	-0.000050	-0.063804
H190	H	1.296688	0.499950	0.436196
C191	C	0.831295	-0.719900	0.271283
C192	C	1.331295	-0.219900	0.771283
H193	H	0.801425	-0.747217	0.301148
H194	H	1.301425	-0.247217	0.801148
H195	H	0.796747	-0.695745	0.240902
H196	H	1.296747	-0.195745	0.740902
H197	H	0.861667	-0.695748	0.305849
H198	H	1.361667	-0.195748	0.805849
C199	C	0.526822	-0.000049	0.291508
C200	C	1.026822	0.499951	0.791508
H201	H	0.560159	-0.000037	0.336780
H202	H	1.060159	0.499963	0.836780
H203	H	0.494554	-0.034355	0.291897
H204	H	0.994554	0.465645	0.791897
H205	H	0.494552	0.034257	0.291877
H206	H	0.994552	0.534257	0.791877
C207	C	1.109850	-0.000082	-0.444720
C208	C	1.609850	0.499918	0.055280
H209	H	1.104073	-0.000090	-0.389178
H210	H	1.604073	0.499910	0.110822
H211	H	1.138007	0.034216	-0.460200
H212	H	1.638007	0.534216	0.039800
H213	H	1.137975	-0.034395	-0.460202
H214	H	1.637975	0.465605	0.039798
H215	H	0.184203	-0.000084	0.047870
H216	H	0.684203	0.499916	0.547870
C217	C	0.781075	-0.435071	0.321419
C218	C	1.281075	0.064929	0.821419
H219	H	0.751199	-0.462386	0.351281
H220	H	1.251199	0.037614	0.851281
H221	H	0.746533	-0.410915	0.291034
H222	H	1.246533	0.089085	0.791034
H223	H	0.811446	-0.410921	0.355987
H224	H	1.311446	0.089079	0.855987
H225	H	0.333322	-0.000083	0.059859
H226	H	0.833322	0.499917	0.559859
C227	C	0.781079	-0.565086	0.321410
C228	C	1.281079	-0.065086	0.821410
H229	H	0.788263	-0.606397	0.314239
H230	H	1.288263	-0.106397	0.814239
H231	H	0.728011	-0.554936	0.309531
H232	H	1.228011	-0.054936	0.809531
H233	H	0.792916	-0.554939	0.374492
H234	H	1.292916	-0.054939	0.874492
H235	H	1.042779	-0.000074	-0.230680
H236	H	1.542779	0.499926	0.269320
H237	H	0.845596	-0.271425	0.256994
H238	H	1.345596	0.228575	0.756994
H239	H	0.557710	-0.000078	0.014056
H240	H	1.057710	0.499922	0.514056
C241	C	0.831314	-0.849915	0.271276
C242	C	1.331314	-0.349915	0.771276
H243	H	0.838501	-0.891225	0.264100
H244	H	1.338501	-0.391225	0.764100
H245	H	0.778243	-0.839767	0.259406
H246	H	1.278243	-0.339767	0.759406
H247	H	0.843159	-0.839769	0.324356
H248	H	1.343159	-0.339769	0.824356
H249	H	1.054770	-0.000084	-0.081563
H250	H	1.554770	0.499916	0.418437
H251	H	1.077859	-0.556194	0.024860
H252	H	1.577859	-0.056194	0.524860
H253	H	1.027664	-0.271379	0.075024
H254	H	1.527664	0.228621	0.575024
H255	H	0.706842	-0.000061	0.026042
H256	H	1.206842	0.499939	0.526042
C257	C	1.041993	-0.150209	0.060720
C258	C	1.541993	0.349791	0.560720
H259	H	1.071870	-0.177513	0.030850
H260	H	1.571870	0.322487	0.530850
H261	H	1.076535	-0.126054	0.091108
H262	H	1.576535	0.373946	0.591108
H263	H	1.011618	-0.126055	0.026158
H264	H	1.511618	0.373945	0.526158
C265	C	1.092210	-0.435027	0.010568
C266	C	1.592210	0.064973	0.510568
H267	H	1.085040	-0.393716	0.017755
H268	H	1.585040	0.106284	0.517755
H269	H	1.080393	-0.445166	-0.042516
H270	H	1.580393	0.054834	0.457484
H271	H	1.145276	-0.445183	0.022467
H272	H	1.645276	0.054817	0.522467
C273	C	1.095979	-0.000070	-0.617335
C274	C	1.595979	0.499930	-0.117335
H275	H	1.141251	-0.000078	-0.583997
H276	H	1.641251	0.499922	-0.083997
H277	H	1.096366	0.034234	-0.649607
H278	H	1.596366	0.534234	-0.149607
H279	H	1.096352	-0.034377	-0.649601
H280	H	1.596352	0.465623	-0.149601
H281	H	1.027708	-0.728706	0.074996
H282	H	1.527708	-0.228706	0.574996
