data_functionalizedCrystal
_audit_creation_method	'MofGen! by Chris Wilmer'
_symmetry_space_group_name_H-M	'P1'
_symmetry_Int_Tables_number	1
_symmetry_cell_setting	triclinic
loop_
_symmetry_equiv_pos_as_xyz
  x,y,z
_cell_length_a	6.817900
_cell_length_b	15.301126
_cell_length_c	15.301140
_cell_angle_alpha	94.939987
_cell_angle_beta	104.177739
_cell_angle_gamma	104.177575
loop_
_atom_site_label
_atom_site_type_symbol
_atom_site_fract_x
_atom_site_fract_y
_atom_site_fract_z
V1	V	-4.037905	-0.125370	-0.281420
O2	O	-4.021623	0.005396	-0.275781
O3	O	-3.992791	-0.247983	-0.279767
O4	O	-3.992792	-0.123717	-0.404034
O5	O	-4.021622	-0.119730	-0.150654
V6	V	-4.520681	-0.109696	-0.265747
O7	O	-4.300801	-0.159751	-0.315802
O8	O	-4.707981	-0.075314	-0.231365
O9	O	-4.342588	0.012917	-0.267400
O10	O	-4.654359	-0.240462	-0.271386
O11	O	-4.654360	-0.115336	-0.396513
O12	O	-4.342587	-0.111349	-0.143133
C13	C	-3.838484	-0.277865	-0.275397
C14	C	-3.882907	-0.378105	-0.274863
C15	C	-3.838485	-0.119350	-0.433911
C16	C	-3.882906	-0.118810	-0.534150
C17	C	-4.086135	-0.429800	-0.279119
C18	C	-4.127866	-0.523986	-0.278622
C19	C	-3.966363	-0.566475	-0.273862
C20	C	-3.763119	-0.514773	-0.269608
C21	C	-3.721394	-0.420589	-0.270111
C22	C	-3.850098	-0.711082	-0.268556
C23	C	-3.891824	-0.805271	-0.268051
C24	C	-4.256570	-0.814479	-0.277067
C25	C	-4.214845	-0.720295	-0.277571
C26	C	-4.011603	-0.668599	-0.273315
C27	C	-4.086136	-0.123071	-0.585846
C28	C	-4.127862	-0.122563	-0.680030
C29	C	-3.966358	-0.117800	-0.722518
C30	C	-3.763109	-0.113536	-0.670815
C31	C	-3.721382	-0.114038	-0.576631
C32	C	-3.850094	-0.112493	-0.867125
C33	C	-3.891823	-0.111993	-0.961316
C34	C	-4.256573	-0.121018	-0.970524
C35	C	-4.214847	-0.121520	-0.876340
C36	C	-4.011601	-0.117257	-0.824644
C37	C	-4.160236	0.042794	-0.271767
C38	C	-4.095052	0.143033	-0.272308
C39	C	-4.160236	-0.115719	-0.113251
C40	C	-4.095053	-0.116254	-0.013012
H41	H	-4.293352	-0.566073	-0.282090
C42	C	-3.716751	-0.851543	-0.263037
C43	C	-3.770550	-0.917686	-0.340438
C44	C	-3.609334	-0.960335	-0.335846
H45	H	-3.589642	-0.807372	-0.260624
H46	H	-3.698033	-0.879794	-0.209834
H47	H	-3.789243	-0.889435	-0.393627
H48	H	-3.897633	-0.961875	-0.342866
H49	H	-3.590616	-0.988587	-0.282643
H50	H	-3.482235	-0.916158	-0.333431
H51	H	-3.645822	-1.005224	-0.388356
H52	H	-3.555910	-0.378500	-0.266649
H53	H	-4.346364	-0.125404	-0.841751
C54	C	-3.587754	-0.560921	-0.264253
C55	C	-3.560567	-0.602376	-0.185722
C56	C	-3.399016	-0.644884	-0.180748
H57	H	-3.623672	-0.605885	-0.316645
H58	H	-3.460668	-0.516662	-0.261740
H59	H	-3.687625	-0.646631	-0.188242
H60	H	-3.524617	-0.557432	-0.133315
H61	H	-3.271930	-0.600625	-0.178236
H62	H	-3.434950	-0.689843	-0.233145
H63	H	-3.380536	-0.673009	-0.127461
H64	H	-3.684604	-0.668994	-0.265098
H65	H	-3.555882	-0.110546	-0.534538
H66	H	-4.422066	-0.124490	-1.012621
C67	C	-4.261508	-0.128429	-0.539701
C68	C	-4.288698	-0.206958	-0.498242
C69	C	-4.450254	-0.211928	-0.455738
H70	H	-4.225593	-0.076035	-0.494740
H71	H	-4.388591	-0.130943	-0.583963
H72	H	-4.161642	-0.204436	-0.453985
H73	H	-4.324645	-0.259366	-0.543184
H74	H	-4.577338	-0.214442	-0.500000
H75	H	-4.414323	-0.159530	-0.410782
H76	H	-4.468737	-0.265213	-0.427611
H77	H	-4.293346	-0.126027	-0.722117
H78	H	-3.684575	-0.108989	-0.825031
C79	C	-3.716609	-0.106675	-1.007548
C80	C	-3.689544	-0.028173	-1.049052
C81	C	-3.528178	-0.023249	-1.091663
H82	H	-3.589430	-0.104149	-0.963367
H83	H	-3.752711	-0.159110	-1.052497
H84	H	-3.653431	0.024248	-1.004109
H85	H	-3.816679	-0.030681	-1.093246
H86	H	-3.564280	-0.075684	-1.136611
H87	H	-3.401012	-0.020727	-1.047476
H88	H	-3.509806	0.030009	-1.119835
H89	H	-4.217651	-0.395212	-0.282987
H90	H	-4.346356	-0.685703	-0.281442
H91	H	-4.422051	-0.856572	-0.280519
C92	C	-3.587884	-0.108226	-0.717040
C93	C	-3.560780	-0.029724	-0.758544
C94	C	-3.399400	-0.024811	-0.801144
H95	H	-3.460719	-0.105707	-0.672854
H96	H	-3.623990	-0.160662	-0.761988
H97	H	-3.524664	0.022698	-0.713601
H98	H	-3.687902	-0.032226	-0.802743
H99	H	-3.435506	-0.077247	-0.846092
H100	H	-3.272247	-0.022295	-0.756952
H101	H	-3.381002	0.028447	-0.829316
