data_functionalizedCrystal
_audit_creation_method	'MofGen! by Chris Wilmer'
_symmetry_space_group_name_H-M	'P1'
_symmetry_Int_Tables_number	1
_symmetry_cell_setting	triclinic
loop_
_symmetry_equiv_pos_as_xyz
  x,y,z
_cell_length_a	18.366186
_cell_length_b	19.288840
_cell_length_c	19.288865
_cell_angle_alpha	96.868869
_cell_angle_beta	90.010368
_cell_angle_gamma	89.983695
loop_
_atom_site_label
_atom_site_type_symbol
_atom_site_fract_x
_atom_site_fract_y
_atom_site_fract_z
O1	O	-0.060680	0.921364	-0.086565
O2	O	-0.060655	0.719101	-0.098272
O3	O	-0.060654	0.826077	0.008713
O4	O	-0.060681	0.814388	-0.193549
O5	O	0.060446	0.826058	0.008716
O6	O	0.060444	0.719082	-0.098269
O7	O	0.060420	0.921346	-0.086562
Zn8	Zn	0.079659	0.820211	-0.092415
Zn9	Zn	-0.079895	0.820235	-0.092419
O10	O	0.060418	0.814370	-0.193546
C11	C	-0.000102	0.693215	-0.097896
C12	C	-0.000093	0.616110	-0.096774
N13	N	0.188550	0.820200	-0.092412
N14	N	-0.188786	0.820252	-0.092416
C15	C	-0.066106	0.579917	-0.096237
C16	C	-0.066114	0.507470	-0.095175
C17	C	-0.000106	0.471221	-0.094636
C18	C	0.065915	0.507423	-0.095178
C19	C	0.065922	0.579868	-0.096247
C20	C	0.050461	0.361886	-0.052257
C21	C	0.050451	0.289443	-0.051184
C22	C	-0.000125	0.247778	-0.091342
C23	C	-0.050703	0.278565	-0.132565
C24	C	-0.050697	0.351009	-0.133634
C25	C	-0.000107	0.392667	-0.093477
C26	C	-0.066152	0.133029	-0.089654
C27	C	-0.066158	0.060580	-0.088596
C28	C	0.065874	0.060535	-0.088592
C29	C	0.065878	0.132982	-0.089657
C30	C	-0.000137	0.169225	-0.090185
C31	C	0.226633	0.862188	-0.134432
C32	C	0.302861	0.862199	-0.134430
C33	C	0.341003	0.820209	-0.092416
C34	C	0.302911	0.778219	-0.050387
C35	C	0.226684	0.778214	-0.050385
C36	C	0.461792	0.757597	-0.090665
C37	C	0.538017	0.757600	-0.090672
C38	C	0.576110	0.820225	-0.092418
C39	C	0.537970	0.882847	-0.094172
C40	C	0.461743	0.882842	-0.094170
C41	C	0.423658	0.820210	-0.092413
C42	C	0.696848	0.862229	-0.134438
C43	C	0.773078	0.862242	-0.134431
C44	C	0.773126	0.778255	-0.050393
C45	C	0.696898	0.778248	-0.050396
C46	C	0.658764	0.820234	-0.092422
C47	C	-0.000102	0.825692	0.034591
C48	C	-0.000095	0.824563	0.111694
C49	C	-0.000135	0.947232	-0.086937
C50	C	-0.000149	1.024336	-0.088059
C51	C	-0.000135	0.814755	-0.219424
C52	C	-0.000147	0.815884	-0.296527
C53	C	-0.000099	0.887331	0.156396
C54	C	-0.000111	0.886270	0.228843
C55	C	-0.000103	0.822438	0.256585
C56	C	-0.000104	0.759661	0.211873
C57	C	-0.000100	0.760723	0.139428
C58	C	0.042321	0.772251	0.364869
C59	C	0.042321	0.771191	0.437313
C60	C	-0.000119	0.819158	0.480030
C61	C	-0.042551	0.868196	0.450295
C62	C	-0.042547	0.869259	0.377850
C63	C	-0.000108	0.821278	0.335139
C64	C	-0.000137	0.880781	0.603288
C65	C	-0.000153	0.879717	0.675736
C66	C	-0.000138	0.753106	0.658764
C67	C	-0.000130	0.754171	0.586318
C68	C	-0.000125	0.818010	0.558584
H69	H	-0.119860	0.609421	-0.096666
H70	H	0.119680	0.609336	-0.096685
H71	H	0.430783	0.706596	-0.089247
F72	F	-0.087724	0.919250	0.495752
H73	H	-0.119872	0.477995	-0.094738
F74	F	-0.104522	0.383773	-0.177507
F75	F	-0.000134	0.685169	0.688284
H76	H	0.804083	0.896438	-0.168647
H77	H	0.804180	0.744067	-0.016184
H78	H	0.195678	0.744021	-0.016166
F79	F	-0.000129	0.948723	0.573769
H80	H	0.333971	0.744031	-0.016178
F81	F	-0.000116	0.953080	0.276427
H82	H	0.091649	0.395805	-0.019554
H83	H	-0.000098	0.939314	0.133820
F84	F	-0.136410	0.171603	-0.090221
H85	H	0.091632	0.264383	-0.017614
F86	F	0.136139	0.171503	-0.090225
F87	F	-0.000096	0.693913	0.091850
H88	H	0.195589	0.896379	-0.168650
F89	F	-0.000101	0.691725	0.241399
H90	H	0.665891	0.744054	-0.016181
H91	H	-0.077098	0.909186	0.353643
H92	H	-0.000160	0.930833	0.712132
H93	H	0.333874	0.896391	-0.168649
H94	H	0.665798	0.896417	-0.168658
F95	F	-0.104532	0.234227	-0.175310
F96	F	-0.000123	0.687363	0.538741
H97	H	0.569065	0.706609	-0.089247
H98	H	0.076868	0.731258	0.461517
F99	F	0.136166	0.468843	-0.094608
H100	H	0.076885	0.733189	0.330094
H101	H	0.568984	0.933842	-0.095598
F102	F	-0.136422	0.022060	-0.088030
F103	F	0.136125	0.021961	-0.088025
H104	H	0.430692	0.933832	-0.095596
