data_functionalizedCrystal
_audit_creation_method	'MofGen! by Chris Wilmer'
_symmetry_space_group_name_H-M	'P1'
_symmetry_Int_Tables_number	1
_symmetry_cell_setting	triclinic
loop_
_symmetry_equiv_pos_as_xyz
  x,y,z
_cell_length_a	21.395362
_cell_length_b	21.295417
_cell_length_c	21.395355
_cell_angle_alpha	90.020404
_cell_angle_beta	90.043940
_cell_angle_gamma	90.045579
loop_
_atom_site_label
_atom_site_type_symbol
_atom_site_fract_x
_atom_site_fract_y
_atom_site_fract_z
Zn1	Zn	0.957864	-0.250415	0.354577
Zn2	Zn	0.957768	-0.355667	0.249796
Zn3	Zn	0.853079	-0.250445	0.249779
Zn4	Zn	0.853050	-0.355680	0.354501
O5	O	0.905440	-0.303052	0.302163
O6	O	1.045529	-0.264359	0.340717
O7	O	0.943853	-0.341716	0.162116
O8	O	0.867031	-0.162351	0.263705
O9	O	1.045459	-0.341687	0.263735
O10	O	0.944016	-0.162330	0.340700
O11	O	0.866938	-0.264409	0.162103
O12	O	0.765397	-0.264422	0.263631
O13	O	0.866982	-0.341709	0.442189
O14	O	0.765376	-0.341738	0.340570
O15	O	0.943988	-0.264372	0.442245
O16	O	0.943825	-0.443758	0.263661
O17	O	0.866889	-0.443767	0.340587
C18	C	0.742652	-0.303085	0.302091
C19	C	0.673011	-0.303114	0.302074
C20	C	0.640303	-0.343426	0.342077
C21	C	0.574868	-0.343411	0.342105
C22	C	0.542143	-0.303090	0.302119
C23	C	0.574859	-0.262771	0.262114
C24	C	0.640293	-0.262783	0.262092
C25	C	0.438418	-0.298019	0.245714
C26	C	0.372985	-0.298011	0.245735
C27	C	0.340322	-0.303049	0.302188
C28	C	0.373100	-0.308108	0.358622
C29	C	0.438534	-0.308120	0.358599
C30	C	0.471191	-0.303072	0.302139
C31	C	0.236662	-0.343346	0.342224
C32	C	0.171225	-0.343326	0.342253
C33	C	0.171217	-0.262690	0.262257
C34	C	0.236653	-0.262706	0.262234
C35	C	0.269371	-0.303038	0.302216
C36	C	0.905360	-0.466603	0.302132
C37	C	0.905383	-0.536571	0.302139
C38	C	0.945447	-0.569370	0.342259
C39	C	0.945469	-0.635112	0.342275
C40	C	0.905434	-0.668054	0.302159
C41	C	0.865363	-0.635248	0.262036
C42	C	0.865338	-0.569506	0.262026
N43	N	0.900697	-0.771307	0.247324
N44	N	0.900725	-0.833759	0.247335
C45	C	0.905507	-0.866129	0.302187
N46	N	0.910273	-0.833688	0.357029
N47	N	0.910249	-0.771230	0.357017
C48	C	0.905457	-0.739339	0.302165
C49	C	0.945597	-0.970212	0.342327
C50	C	0.945615	-1.035956	0.342344
C51	C	0.865512	-1.036090	0.262100
C52	C	0.865491	-0.970348	0.262089
C53	C	0.905537	-0.937413	0.302202
C54	C	1.068864	-0.303019	0.302237
C55	C	1.138505	-0.303005	0.302268
C56	C	0.905492	-0.303039	0.465587
C57	C	0.905514	-0.303033	0.535228
C58	C	0.905537	-0.138861	0.302209
C59	C	0.905579	-0.068893	0.302228
C60	C	0.905424	-0.303019	0.139376
C61	C	0.905524	-0.302847	0.069735
C62	C	0.945610	-0.262762	0.567971
C63	C	0.945609	-0.262735	0.633407
C64	C	0.905519	-0.302991	0.666096
C65	C	0.865416	-0.343265	0.633345
C66	C	0.865413	-0.343286	0.567911
C67	C	0.900544	-0.359672	0.769758
C68	C	0.900551	-0.359652	0.835191
C69	C	0.905523	-0.302924	0.867917
C70	C	0.910501	-0.246215	0.835202
C71	C	0.910499	-0.246237	0.769768
C72	C	0.905517	-0.302971	0.737049
C73	C	0.945620	-0.262620	0.971613
C74	C	0.945615	-0.262592	1.037050
C75	C	0.865425	-0.343127	1.036987
C76	C	0.865427	-0.343150	0.971552
C77	C	0.905528	-0.302897	0.938869
H78	H	0.144573	-0.229857	0.229703
C79	C	0.135246	-0.387680	0.386249
H80	H	0.164106	-0.411707	0.410049
H81	H	0.109771	-0.363647	0.413608
H82	H	0.109671	-0.415064	0.362226
C83	C	0.989541	-0.671201	0.386405
H84	H	0.983817	-0.715071	0.380667
H85	H	1.031638	-0.660382	0.377284
H86	H	0.980346	-0.660419	0.428493
C87	C	0.989638	-0.933978	0.386452
H88	H	0.983891	-0.890127	0.380694
H89	H	0.980452	-0.944739	0.428540
H90	H	1.031746	-0.944709	0.377334
H91	H	0.978239	-1.062659	0.375017
C92	C	0.915965	-0.183862	0.733783
H93	H	0.918921	-0.150071	0.762641
H94	H	0.952280	-0.184678	0.708281
H95	H	0.880052	-0.178351	0.708235
H96	H	0.914551	-0.200022	0.861846
C97	C	0.989717	-0.218335	0.935659
H98	H	1.013590	-0.194337	0.964534
H99	H	1.017005	-0.242412	0.910151
H100	H	0.965757	-0.190921	0.910118
H101	H	0.346302	-0.293896	0.199784
H102	H	0.832911	-1.062911	0.229441
H103	H	0.263284	-0.229883	0.229656
H104	H	0.978264	-0.229795	1.063708
H105	H	0.832777	-0.375897	1.063602
H106	H	0.832780	-0.375947	0.944892
C107	C	0.821315	-0.387595	0.531892
H108	H	0.797442	-0.411571	0.560730
H109	H	0.794030	-0.363535	0.506341
H110	H	0.845277	-0.415028	0.506389
C111	C	0.989488	-0.533142	0.386386
H112	H	0.983740	-0.489290	0.380632
H113	H	0.980304	-0.543907	0.428473
H114	H	1.031597	-0.543870	0.377265
H115	H	0.896501	-0.405828	0.861823
H116	H	0.832871	-0.943642	0.229417
H117	H	0.896328	-0.405855	0.743119
C118	C	0.474341	-0.292442	0.183615
H119	H	0.445450	-0.289427	0.150010
H120	H	0.499891	-0.255951	0.184508
H121	H	0.499837	-0.328508	0.178013
C122	C	0.989714	-0.218481	0.532023
H123	H	1.013590	-0.194489	0.560900
H124	H	1.016998	-0.242563	0.506515
H125	H	0.965758	-0.191062	0.506483
H126	H	0.978258	-0.229938	0.660072
H127	H	0.832766	-0.662073	0.229375
H128	H	0.832773	-0.376039	0.659965
H129	H	0.548232	-0.376237	0.374682
C130	C	0.676293	-0.387800	0.386042
H131	H	0.719949	-0.382043	0.380293
H132	H	0.665632	-0.378666	0.428166
H133	H	0.665509	-0.430076	0.376777
C134	C	0.474591	-0.313681	0.420669
H135	H	0.518238	-0.312972	0.412567
H136	H	0.463933	-0.279477	0.447093
H137	H	0.463853	-0.352037	0.440635
C138	C	0.337180	-0.313647	0.420724
H139	H	0.293516	-0.312908	0.412658
H140	H	0.347886	-0.352001	0.440686
H141	H	0.347970	-0.279440	0.447136
H142	H	0.263303	-0.376183	0.374784
H143	H	0.548210	-0.229940	0.229559
C144	C	0.676273	-0.218441	0.218084
H145	H	0.647414	-0.194426	0.194271
H146	H	0.701855	-0.191056	0.242091
H147	H	0.701741	-0.242492	0.190728
H148	H	0.832713	-0.542801	0.229355
