data_functionalizedCrystal
_audit_creation_method	'MofGen! by Chris Wilmer'
_symmetry_space_group_name_H-M	'P1'
_symmetry_Int_Tables_number	1
_symmetry_cell_setting	triclinic
loop_
_symmetry_equiv_pos_as_xyz
  x,y,z
_cell_length_a	14.853567
_cell_length_b	15.944493
_cell_length_c	13.930277
_cell_angle_alpha	90.001318
_cell_angle_beta	89.995755
_cell_angle_gamma	83.554987
loop_
_atom_site_label
_atom_site_type_symbol
_atom_site_fract_x
_atom_site_fract_y
_atom_site_fract_z
O1	O	1.196203	0.109667	-0.079752
O2	O	0.933724	0.122731	-0.079767
O3	O	1.072158	-0.006071	-0.079767
O4	O	1.057769	0.238470	-0.079752
O5	O	1.072139	-0.006073	0.079895
O6	O	0.933705	0.122729	0.079895
O7	O	1.196184	0.109665	0.079910
Zn8	Zn	1.064941	0.116196	0.105252
Zn9	Zn	1.064967	0.116200	-0.105109
O10	O	1.057749	0.238467	0.079910
C11	C	0.900126	0.122138	0.000062
C12	C	0.800045	0.120364	0.000056
C13	C	1.071561	-0.037368	0.000060
C14	C	1.069797	-0.130618	0.000048
C15	C	0.387638	0.036355	0.000072
C16	C	0.366127	0.189375	0.000081
C17	C	0.460158	0.191042	0.000078
C18	C	0.517934	0.115365	0.000070
C19	C	0.481678	0.038020	0.000066
C20	C	0.496420	0.268386	0.000072
C21	C	0.590457	0.270057	0.000068
C22	C	0.648235	0.194379	0.000068
C23	C	0.611974	0.117031	0.000065
C24	C	0.669750	0.041354	0.000057
C25	C	0.633491	-0.035995	0.000061
C26	C	0.539456	-0.037658	0.000066
C27	C	0.742270	0.196041	0.000063
C28	C	0.763790	0.043019	0.000051
C29	C	1.151283	-0.366287	0.000070
C30	C	1.107350	-0.416903	-0.078653
C31	C	1.066530	-0.301343	0.000059
C32	C	1.107312	-0.416882	0.078761
C33	C	1.063381	-0.466256	0.000075
C34	C	1.022620	-0.350730	-0.078729
C35	C	1.022594	-0.350706	0.078755
C36	C	0.978599	-0.401288	0.000013
C37	C	1.068347	-0.206341	0.000050
C38	C	1.061557	-0.561255	0.000077
C39	C	1.229781	0.110258	0.000079
C40	C	1.329862	0.112032	0.000079
C41	C	1.058347	0.269764	0.000081
C42	C	1.060110	0.363014	0.000087
N43	N	1.064931	0.116193	0.248818
N44	N	1.064984	0.116196	-0.248675
C45	C	1.003665	0.173211	0.701088
C46	C	1.126293	0.059182	0.701057
C47	C	1.126282	0.059180	0.600561
C48	C	1.064963	0.116194	0.550324
C49	C	1.003655	0.173212	0.600583
C50	C	1.187595	0.002169	0.550295
C51	C	1.187588	0.002164	0.449793
C52	C	1.126263	0.059176	0.399554
C53	C	1.064952	0.116195	0.449819
C54	C	1.003633	0.173210	0.399582
C55	C	0.942317	0.230226	0.449845
C56	C	0.942331	0.230223	0.550344
C57	C	1.126250	0.059178	0.299056
C58	C	1.003622	0.173211	0.299077
H59	H	0.810826	-0.018607	0.000049
C60	C	0.630339	0.355133	0.000068
H61	H	0.694617	0.345289	0.000059
H62	H	0.610504	0.386298	0.055746
H63	H	0.610510	0.386294	-0.055616
H64	H	1.143114	-0.445774	0.145311
H65	H	0.953740	0.219630	0.742014
H66	H	0.319080	0.250987	0.000078
C67	C	1.249899	-0.345056	-0.000028
H68	H	1.279885	-0.367840	-0.056031
H69	H	1.280289	-0.368696	0.055330
H70	H	1.250359	-0.285526	0.000535
H71	H	0.680545	-0.097611	0.000049
C72	C	0.936172	0.235930	0.243824
H73	H	0.899664	0.269887	0.288154
H74	H	0.898650	0.205652	0.204620
H75	H	0.968596	0.270959	0.204619
C76	C	0.974264	-0.311638	0.168659
H77	H	0.924188	-0.272810	0.149751
H78	H	1.015393	-0.282974	0.205092
H79	H	0.953382	-0.355035	0.206599
H80	H	1.237513	-0.044261	0.408875
C81	C	0.782156	0.281112	0.000056
H82	H	0.846435	0.271266	0.000047
H83	H	0.762323	0.312281	0.055731
H84	H	0.762329	0.312269	-0.055631
C85	C	1.255036	-0.060548	0.605551
H86	H	1.291554	-0.094499	0.561225
H87	H	1.222612	-0.095569	0.644756
H88	H	1.292561	-0.030265	0.644754
C89	C	0.874899	0.292940	0.605634
H90	H	0.883697	0.284780	0.672682
H91	H	0.814731	0.283720	0.589182
H92	H	0.884684	0.349020	0.589160
C93	C	0.499569	-0.122732	0.000060
H94	H	0.435291	-0.112883	0.000052
H95	H	0.519394	-0.153901	0.055733
H96	H	0.519403	-0.153890	-0.055629
C97	C	0.874871	0.292943	0.394582
H98	H	0.838358	0.326903	0.438905
H99	H	0.837354	0.262662	0.355376
H100	H	0.907300	0.327968	0.355379
C101	C	1.193738	-0.003528	0.756315
H102	H	1.184961	0.004635	0.823367
H103	H	1.253900	0.005693	0.739831
H104	H	1.183949	-0.059609	0.739849
H105	H	1.176177	0.012761	0.258136
H106	H	0.358112	-0.026621	0.000079
C107	C	0.879906	-0.422301	-0.000049
H108	H	0.849949	-0.399430	-0.056022
H109	H	0.849587	-0.398630	0.055340
H110	H	0.879299	-0.481815	0.000475
C111	C	0.432869	0.351622	0.000084
H112	H	0.371673	0.339551	0.000101
H113	H	0.443852	0.383337	-0.055592
H114	H	0.443862	0.383328	0.055770
H115	H	1.143151	-0.445808	-0.145205
H116	H	0.986856	-0.321949	-0.145355
