data_functionalizedCrystal
_audit_creation_method	'MofGen! by Chris Wilmer'
_symmetry_space_group_name_H-M	'P1'
_symmetry_Int_Tables_number	1
_symmetry_cell_setting	triclinic
loop_
_symmetry_equiv_pos_as_xyz
  x,y,z
_cell_length_a	26.374263
_cell_length_b	26.373608
_cell_length_c	26.370205
_cell_angle_alpha	60.005297
_cell_angle_beta	60.010839
_cell_angle_gamma	59.993700
loop_
_atom_site_label
_atom_site_type_symbol
_atom_site_fract_x
_atom_site_fract_y
_atom_site_fract_z
O1	O	0.070152	-0.740800	0.619517
O2	O	0.026377	-0.576764	0.499159
O3	O	0.130245	-0.680560	0.499088
O4	O	-0.033715	-0.637003	0.619589
O5	O	0.164701	-0.646107	0.533470
O6	O	0.060833	-0.542310	0.533541
O7	O	0.104608	-0.706346	0.653899
Cu8	Cu	0.085867	-0.621182	0.596859
Cu9	Cu	0.045119	-0.661927	0.556199
O10	O	0.000741	-0.602549	0.653971
N11	N	0.114528	-0.592529	0.625461
N12	N	0.016463	-0.690587	0.527598
C13	C	0.181428	-0.355400	0.692330
C14	C	0.181530	-0.525690	0.862573
C15	C	0.181440	-0.525667	0.692313
C16	C	0.351736	-0.525673	0.692271
C17	C	0.200174	-0.411588	0.711047
C18	C	0.200232	-0.506954	0.806384
C19	C	0.295546	-0.506943	0.711016
C20	C	0.200182	-0.506940	0.711037
C21	C	0.157567	-0.283881	0.668507
C22	C	0.157587	-0.549500	0.668479
C23	C	0.224035	-0.483107	0.734871
C24	C	0.455739	-0.507754	0.637520
C25	C	0.520749	-0.529425	0.615835
C26	C	0.520768	-0.634611	0.655947
C27	C	0.455759	-0.612939	0.677633
C28	C	0.173240	-0.251367	0.604595
C29	C	0.151546	-0.186351	0.582941
C30	C	0.098512	-0.186369	0.689113
C31	C	0.120206	-0.251385	0.710768
C32	C	0.093669	-0.533798	0.684205
C33	C	0.071992	-0.555464	0.662532
C34	C	0.178144	-0.608536	0.609422
C35	C	0.199825	-0.586869	0.631088
C36	C	0.093821	-0.533842	0.966616
C37	C	0.072187	-0.555526	1.031630
C38	C	0.178370	-0.608608	1.031591
C39	C	0.200004	-0.586926	0.966576
C40	C	0.157728	-0.549541	0.934090
C41	C	0.423247	-0.549509	0.668416
C42	C	-0.097522	-0.709158	0.508557
C43	C	-0.002050	-0.709295	0.413344
C44	C	-0.002241	-0.804604	0.508735
C45	C	-0.002225	-0.709288	0.508793
C46	C	-0.026009	-0.733087	0.484858
N47	N	0.552340	-0.592538	0.625346
O48	O	0.750867	-0.598274	0.477076
O49	O	0.751048	-0.718989	0.640960
O50	O	0.750981	-0.718715	0.537020
O51	O	0.750934	-0.598547	0.581017
O52	O	0.647701	-0.684348	0.571512
O53	O	0.647768	-0.684622	0.675452
O54	O	0.647587	-0.563907	0.511569
Cu55	Cu	0.638247	-0.621127	0.596660
Cu56	Cu	0.760388	-0.661769	0.555869
O57	O	0.647654	-0.564181	0.615509
N58	N	0.846295	-0.690358	0.527176
N59	N	0.114503	-0.154778	0.625499
O60	O	-0.033701	0.043855	0.619632
O61	O	0.130190	0.043858	0.498933
O62	O	0.026233	0.043841	0.499224
O63	O	0.070257	0.043872	0.619341
O64	O	0.060690	-0.059448	0.533654
O65	O	0.164647	-0.059431	0.533363
O66	O	0.000756	-0.059434	0.654062
Cu67	Cu	0.085848	-0.068863	0.596857
Cu68	Cu	0.045099	0.053287	0.556138
O69	O	0.104714	-0.059417	0.653771
N70	N	0.016435	0.139202	0.527497
N71	N	0.114760	-0.592585	1.063190
O72	O	0.108896	-0.740779	1.261808
O73	O	-0.011787	-0.576838	1.261822
O74	O	-0.011509	-0.680779	1.261780
O75	O	0.108618	-0.636838	1.261850
O76	O	0.022916	-0.646341	1.158496
O77	O	0.022638	-0.542399	1.158538
O78	O	0.143321	-0.706341	1.158524
Cu79	Cu	0.086123	-0.621225	1.149100
Cu80	Cu	0.045411	-0.661953	1.271246
O81	O	0.143044	-0.602399	1.158566
N82	N	0.016774	-0.690600	1.357156
C83	C	0.039504	-0.538867	0.499769
C84	C	0.168130	-0.667407	0.499680
C85	C	0.091482	-0.744243	0.653289
C86	C	-0.037145	-0.615703	0.653378
C87	C	0.699429	-0.718429	0.678853
C88	C	0.699348	-0.718091	0.550135
C89	C	0.699202	-0.564465	0.473677
C90	C	0.699287	-0.564805	0.602393
C91	C	0.168023	-0.007659	0.499484
C92	C	0.039327	-0.007807	0.499887
C93	C	-0.037119	-0.007789	0.653468
C94	C	0.091620	-0.007770	0.653109
C95	C	-0.011194	-0.538964	1.210181
C96	C	-0.010843	-0.667676	1.210109
C97	C	0.142729	-0.744214	1.210165
C98	C	0.142386	-0.615494	1.210214
H99	H	0.059391	-0.503396	0.940172
H100	H	0.180620	-0.791296	1.210154
O101	O	0.699257	-0.763072	0.538915
C102	C	0.645751	-0.741699	0.524313
H103	H	0.608355	-0.703151	0.544379
H104	H	0.657800	-0.722953	0.471724
C105	C	0.667477	-0.843091	0.527655
C106	C	0.621544	-0.795749	0.552304
H107	H	0.652546	-0.876432	0.544917
H108	H	0.703526	-0.857491	0.537489
H109	H	0.677513	-0.827462	0.483831
H110	H	0.611514	-0.811377	0.596125
H111	H	0.585493	-0.781354	0.542477
H112	H	0.699278	-0.527058	0.611808
H113	H	0.699474	-0.756325	0.725922
O114	O	0.699159	-0.519325	0.417487
C115	C	0.699129	-0.541679	0.378845
H116	H	0.718730	-0.594578	0.395639
H117	H	0.649569	-0.525923	0.380559
C118	C	0.715491	-0.450949	0.291006
C119	C	0.739570	-0.515921	0.311630
H120	H	0.740434	-0.435059	0.249544
H121	H	0.715509	-0.435887	0.317041
H122	H	0.674192	-0.437828	0.292440
H123	H	0.780865	-0.529042	0.310204
H124	H	0.739560	-0.530985	0.285594
H125	H	0.215222	-0.676694	0.461838
O126	O	0.102723	-0.800500	0.698310
C127	C	0.163758	-0.839020	0.675791
H128	H	0.180145	-0.822099	0.622894
H129	H	0.195884	-0.837312	0.691510
C130	C	0.144769	-0.927045	0.766385
C131	C	0.164894	-0.906266	0.701415
H132	H	0.145472	-0.968526	0.782193
H133	H	0.103649	-0.901094	0.781558
H134	H	0.171544	-0.925617	0.779475
H135	H	0.138116	-0.907687	0.688326
H136	H	0.206010	-0.932219	0.686241
H137	H	-0.049082	-0.491880	1.210184
H138	H	-0.048566	-0.677061	1.210046
O139	O	0.187429	-0.604218	1.210120
C140	C	0.201675	-0.553920	1.156645
H141	H	0.188033	-0.549023	1.119248
H142	H	0.174879	-0.509390	1.168748
C143	C	0.288614	-0.571756	1.178333
C144	C	0.271864	-0.565746	1.132399
H145	H	0.331910	-0.579049	1.163377
H146	H	0.279016	-0.605642	1.214361
H147	H	0.266280	-0.534646	1.188414
H148	H	0.294193	-0.602858	1.122324
H149	H	0.281468	-0.531867	1.096368
H150	H	0.214995	-0.007372	0.461496
H151	H	-0.084239	-0.606419	0.691217
H152	H	-0.084187	-0.007791	0.691362
H153	H	0.029900	-0.007810	0.462151
O154	O	0.102924	-0.007879	0.698151
C155	C	0.153233	-0.061365	0.712397
H156	H	0.158120	-0.098753	0.698754
H157	H	0.197754	-0.049269	0.685602
C158	C	0.135443	-0.039705	0.799342
C159	C	0.141442	-0.085627	0.782590
H160	H	0.128172	-0.054670	0.842639
H161	H	0.101550	-0.003670	0.789743
H162	H	0.172546	-0.029629	0.777007
H163	H	0.104337	-0.095697	0.804919
H164	H	0.175328	-0.121665	0.792194
H165	H	0.212798	-0.639038	1.058038
O166	O	0.010085	-0.540184	1.063124
C167	C	-0.022583	-0.502548	1.020506
H168	H	0.008406	-0.478911	0.974160
H169	H	-0.036609	-0.532534	1.013591
C170	C	-0.119246	-0.481890	1.102820
C171	C	-0.081186	-0.452855	1.045899
H172	H	-0.155397	-0.451239	1.118485
H173	H	-0.097238	-0.507248	1.131534
H174	H	-0.130927	-0.506878	1.097050
H175	H	-0.069499	-0.427875	1.051671
H176	H	-0.103194	-0.427492	1.017187
H177	H	0.059274	-0.503369	0.714648
O178	O	0.262101	-0.602285	0.935051
C179	C	0.289115	-0.667404	0.950909
H180	H	0.258311	-0.690162	0.998116
H181	H	0.293937	-0.682106	0.914318
C182	C	0.391554	-0.659983	0.895915
C183	C	0.353723	-0.687934	0.953897
H184	H	0.431408	-0.672647	0.897756
H185	H	0.373354	-0.616111	0.885229
H186	H	0.395566	-0.672237	0.865428
H187	H	0.349705	-0.675673	0.984381
H188	H	0.371923	-0.731804	0.964589
O189	O	0.009897	-0.540293	0.677912
C190	C	-0.017068	-0.562534	0.743031
H191	H	0.019971	-0.602633	0.763967
H192	H	-0.037593	-0.523539	0.762302
C193	C	-0.114320	-0.536091	0.734136
C194	C	-0.068829	-0.585344	0.759850
H195	H	-0.146251	-0.550159	0.744511
H196	H	-0.096155	-0.521104	0.690264
H197	H	-0.131417	-0.503599	0.750198
H198	H	-0.051728	-0.617831	0.743782
H199	H	-0.086993	-0.600337	0.803719
O200	O	0.219262	-0.644812	0.573087
C201	C	0.280326	-0.654040	0.563873
H202	H	0.280212	-0.614847	0.571142
H203	H	0.298973	-0.700359	0.598466
C204	C	0.322133	-0.702630	0.488336
C205	C	0.321994	-0.654490	0.497257
H206	H	0.347837	-0.702910	0.447245
H207	H	0.280994	-0.696415	0.494544
H208	H	0.337671	-0.741224	0.517167
H209	H	0.306449	-0.615897	0.468432
H210	H	0.363131	-0.660698	0.491042
H211	H	0.251872	-0.599651	0.618278
H212	H	0.429307	-0.646943	0.702793
O213	O	0.552283	-0.696228	0.664860
C214	C	0.536394	-0.716077	0.635655
H215	H	0.489181	-0.683106	0.630133
H216	H	0.572964	-0.716187	0.587975
C217	C	0.591402	-0.822645	0.682403
C218	C	0.533411	-0.782153	0.675626
H219	H	0.589564	-0.863404	0.707057
H220	H	0.602109	-0.809273	0.702077
H221	H	0.621871	-0.822729	0.642667
H222	H	0.502945	-0.782063	0.715361
H223	H	0.522698	-0.795526	0.655959
O224	O	0.552288	-0.488824	0.585726
C225	C	0.536360	-0.444681	0.532143
H226	H	0.518474	-0.464711	0.517211
H227	H	0.498627	-0.400853	0.542778
C228	C	0.616062	-0.404005	0.497754
C229	C	0.594099	-0.428609	0.479412
H230	H	0.651677	-0.394088	0.465227
H231	H	0.626792	-0.433743	0.533855
H232	H	0.584612	-0.367485	0.506617
H233	H	0.625546	-0.465132	0.470557
H234	H	0.583376	-0.398876	0.443308
O235	O	0.424058	-0.446153	0.628599
C236	C	0.359710	-0.435976	0.654374
H237	H	0.350829	-0.475711	0.657503
H238	H	0.341281	-0.433675	0.702827
C239	C	0.337217	-0.325489	0.609006
C240	C	0.326310	-0.374290	0.612845
H241	H	0.316613	-0.287437	0.583391
H242	H	0.380570	-0.332345	0.591643
H243	H	0.321859	-0.323580	0.649387
H244	H	0.341674	-0.376203	0.572466
H245	H	0.282959	-0.367432	0.630200
O246	O	0.209438	-0.282903	0.563518
C247	C	0.176590	-0.267002	0.525936
H248	H	0.124583	-0.249137	0.551056
H249	H	0.190405	-0.229256	0.480261
C250	C	0.256176	-0.346694	0.481798
C251	C	0.192300	-0.324757	0.512653
H252	H	0.265868	-0.382319	0.473602
H253	H	0.278308	-0.357406	0.507116
H254	H	0.267680	-0.315234	0.443740
H255	H	0.180798	-0.356214	0.550714
H256	H	0.170166	-0.314051	0.487341
O257	O	0.166795	-0.154694	0.520868
C258	C	0.199526	-0.117094	0.505149
H259	H	0.187816	-0.107360	0.547992
H260	H	0.251558	-0.142144	0.487290
C261	C	0.195194	-0.067289	0.401610
C262	C	0.180807	-0.055329	0.454229
H263	H	0.183650	-0.029190	0.370198
H264	H	0.173144	-0.092622	0.412199
H265	H	0.238554	-0.088165	0.386735
H266	H	0.137448	-0.034460	0.469108
H267	H	0.202850	-0.029990	0.443641
O268	O	0.062208	-0.154895	0.730248
C269	C	0.053049	-0.197538	0.791304
H270	H	0.060317	-0.243882	0.791185
H271	H	0.087670	-0.204451	0.809912
C272	C	-0.022467	-0.115255	0.833168
C273	C	-0.013545	-0.172174	0.833023
H274	H	-0.063544	-0.099609	0.858904
H275	H	-0.016295	-0.086525	0.792034
H276	H	0.006388	-0.121024	0.848674
H277	H	-0.042394	-0.166403	0.817511
H278	H	-0.019724	-0.200902	0.874156
O279	O	0.028400	-0.482707	0.454592
C280	C	0.035302	-0.490813	0.402264
H281	H	0.066409	-0.540325	0.402838
H282	H	-0.012187	-0.481982	0.403475
C283	C	0.026766	-0.383903	0.341985
C284	C	0.064976	-0.444713	0.342688
H285	H	0.045067	-0.355465	0.305235
H286	H	0.022113	-0.378441	0.377240
H287	H	-0.012806	-0.376553	0.342996
H288	H	0.104544	-0.452064	0.341684
H289	H	0.069636	-0.450175	0.307431
O290	O	0.105108	-0.283019	0.772841
C291	C	0.159762	-0.320590	0.788512
H292	H	0.200582	-0.330339	0.745661
H293	H	0.168918	-0.295507	0.806310
C294	C	0.101819	-0.370371	0.892106
C295	C	0.151954	-0.382349	0.839475
H296	H	0.097002	-0.408465	0.923544
H297	H	0.064996	-0.345057	0.881549
H298	H	0.109454	-0.349467	0.906929
H299	H	0.144314	-0.403245	0.824648
H300	H	0.188775	-0.407667	0.850031
