data_functionalizedCrystal
_audit_creation_method	'MofGen! by Chris Wilmer'
_symmetry_space_group_name_H-M	'P1'
_symmetry_Int_Tables_number	1
_symmetry_cell_setting	triclinic
loop_
_symmetry_equiv_pos_as_xyz
  x,y,z
_cell_length_a	14.048226
_cell_length_b	17.699104
_cell_length_c	14.971494
_cell_angle_alpha	96.545463
_cell_angle_beta	89.999780
_cell_angle_gamma	90.010297
loop_
_atom_site_label
_atom_site_type_symbol
_atom_site_fract_x
_atom_site_fract_y
_atom_site_fract_z
O1	O	-0.079195	-1.004352	0.113194
O2	O	0.254139	-0.671019	0.446528
O3	O	0.587472	-0.337686	0.779861
O4	O	-0.079188	-0.784013	0.127891
O5	O	0.254145	-0.450679	0.461224
O6	O	0.587479	-0.117346	0.794558
O7	O	-0.079189	-0.900085	-0.009677
O8	O	0.254144	-0.566751	0.323657
O9	O	0.587477	-0.233418	0.656990
O10	O	-0.079193	-0.888280	0.250762
O11	O	0.254140	-0.554947	0.584095
O12	O	0.587473	-0.221613	0.917429
O13	O	0.079132	-0.900065	-0.009672
O14	O	0.412465	-0.566732	0.323661
O15	O	0.745799	-0.233398	0.656994
O16	O	0.079133	-0.783993	0.127895
O17	O	0.412467	-0.450659	0.461229
O18	O	0.745800	-0.117326	0.794562
O19	O	0.079127	-1.004332	0.113199
O20	O	0.412460	-0.670999	0.446532
O21	O	0.745793	-0.337666	0.779865
Zn22	Zn	0.104267	-0.894159	0.120548
Zn23	Zn	0.437600	-0.560826	0.453881
Zn24	Zn	0.770934	-0.227493	0.787214
Zn25	Zn	-0.104328	-0.894186	0.120542
Zn26	Zn	0.229005	-0.560852	0.453875
Zn27	Zn	0.562338	-0.227519	0.787209
O28	O	0.079128	-0.888260	0.250766
O29	O	0.412461	-0.554927	0.584100
O30	O	0.745795	-0.221594	0.917433
C31	C	-0.000026	-0.755805	0.127363
C32	C	0.333307	-0.422471	0.460697
C33	C	0.666640	-0.089138	0.794030
C34	C	-0.000024	-0.671783	0.125774
C35	C	0.333309	-0.338450	0.459107
C36	C	0.666643	-0.005117	0.792441
N37	N	0.246628	-0.894147	0.120551
N38	N	0.579961	-0.560814	0.453884
N39	N	0.913294	-0.227480	0.787218
C40	C	-0.000025	-0.147091	0.197560
C41	C	0.333308	0.186242	0.530894
C42	C	0.666641	0.519576	0.864227
C43	C	-0.000030	-0.226038	0.199048
C44	C	0.333304	0.107295	0.532382
C45	C	0.666637	0.440628	0.865715
C46	C	-0.000029	-0.274455	0.118291
C47	C	0.333304	0.058878	0.451624
C48	C	0.666638	0.392212	0.784957
C49	C	-0.000034	-0.243921	0.036040
C50	C	0.333300	0.089413	0.369373
C51	C	0.666633	0.422746	0.702707
C52	C	-0.000036	-0.164975	0.034553
C53	C	0.333297	0.168359	0.367886
C54	C	0.666630	0.501692	0.701220
C55	C	-0.000025	-0.562302	0.042035
C56	C	0.333309	-0.228968	0.375369
C57	C	0.666642	0.104365	0.708702
C58	C	-0.000019	-0.641253	0.043529
C59	C	0.333314	-0.307919	0.376862
C60	C	0.666648	0.025414	0.710195
C61	C	-0.000018	-0.623365	0.206531
C62	C	0.333316	-0.290032	0.539864
C63	C	0.666649	0.043301	0.873197
C64	C	-0.000020	-0.544419	0.205043
C65	C	0.333313	-0.211086	0.538377
C66	C	0.666646	0.122247	0.871710
C67	C	-0.000030	-0.513892	0.122793
C68	C	0.333303	-0.180559	0.456127
C69	C	0.666637	0.152775	0.789460
C70	C	-0.000027	-0.428288	0.121181
C71	C	0.333306	-0.094955	0.454514
C72	C	0.666639	0.238379	0.787848
C73	C	-0.000025	-0.360058	0.119902
C74	C	0.333308	-0.026724	0.453236
C75	C	0.666642	0.306609	0.786569
C76	C	0.703466	-0.945601	0.059647
C77	C	1.036800	-0.612268	0.392980
C78	C	1.370133	-0.278935	0.726314
C79	C	0.603809	-0.945595	0.059653
C80	C	0.937142	-0.612262	0.392986
C81	C	1.270475	-0.278928	0.726319
C82	C	0.553998	-0.894180	0.120545
C83	C	0.887331	-0.560847	0.453878
C84	C	1.220664	-0.227514	0.787212
C85	C	0.603849	-0.842774	0.181442
C86	C	0.937183	-0.509440	0.514775
C87	C	1.270516	-0.176107	0.848109
C88	C	0.703505	-0.842784	0.181440
C89	C	1.036838	-0.509451	0.514773
C90	C	1.370172	-0.176117	0.848107
C91	C	0.396135	-0.842754	0.181440
C92	C	0.729468	-0.509421	0.514774
C93	C	1.062802	-0.176088	0.848107
C94	C	0.296472	-0.842743	0.181442
C95	C	0.629806	-0.509410	0.514775
C96	C	0.963139	-0.176076	0.848108
C97	C	0.296439	-0.945565	0.059653
C98	C	0.629772	-0.612232	0.392986
C99	C	0.963105	-0.278899	0.726320
C100	C	0.396095	-0.945576	0.059651
C101	C	0.729428	-0.612243	0.392984
C102	C	1.062761	-0.278909	0.726318
C103	C	0.445939	-0.894168	0.120547
C104	C	0.779273	-0.560835	0.453880
C105	C	1.112606	-0.227501	0.787214
N106	N	0.753311	-0.894197	0.120537
N107	N	1.086644	-0.560864	0.453871
N108	N	1.419978	-0.227530	0.787204
C109	C	-0.000032	-0.032540	0.113726
C110	C	0.333301	0.300793	0.447060
C111	C	0.666634	0.634126	0.780393
C112	C	-0.000027	-0.116562	0.115316
C113	C	0.333306	0.216772	0.448649
C114	C	0.666639	0.550105	0.781982
C115	C	-0.000030	-0.899546	-0.042997
C116	C	0.333303	-0.566212	0.290336
C117	C	0.666637	-0.232879	0.623669
C118	C	-0.000034	-0.897960	-0.142289
C119	C	0.333299	-0.564627	0.191045
C120	C	0.666632	-0.231294	0.524378
C121	C	-0.086337	-0.897228	-0.188933
C122	C	0.246997	-0.563895	0.144400
C123	C	0.580330	-0.230561	0.477733
C124	C	-0.086338	-0.895733	-0.282227
C125	C	0.246996	-0.562400	0.051106
C126	C	0.580329	-0.229067	0.384439
C127	C	-0.000036	-0.894977	-0.328876
C128	C	0.333298	-0.561643	0.004457
C129	C	0.666631	-0.228310	0.337791
C130	C	0.086273	-0.895707	-0.282224
C131	C	0.419606	-0.562373	0.051109
C132	C	0.752940	-0.229040	0.384442
C133	C	0.086273	-0.897196	-0.188931
C134	C	0.419606	-0.563863	0.144402
C135	C	0.752940	-0.230529	0.477736
C136	C	0.086267	-0.892605	-0.476677
C137	C	0.419600	-0.559271	-0.143344
C138	C	0.752933	-0.225938	0.189990
C139	C	0.086267	-0.891117	-0.569977
C140	C	0.419600	-0.557784	-0.236644
C141	C	0.752934	-0.224450	0.096690
C142	C	-0.086344	-0.891142	-0.569973
C143	C	0.246989	-0.557809	-0.236640
C144	C	0.580323	-0.224476	0.096693
C145	C	-0.086344	-0.892631	-0.476680
C146	C	0.246989	-0.559298	-0.143347
C147	C	0.580323	-0.225965	0.189987
C148	C	-0.000035	-0.893363	-0.430035
C149	C	0.333298	-0.560030	-0.096702
C150	C	0.666632	-0.226696	0.236631
C151	C	-0.000033	-0.888799	0.284087
C152	C	0.333300	-0.555466	0.617420
C153	C	0.666633	-0.222132	0.950754
C154	C	-0.000035	-0.890385	0.383378
C155	C	0.333298	-0.557051	0.716712
C156	C	0.666632	-0.223718	1.050045
H157	H	-0.000019	-0.107675	0.263323
H158	H	0.333315	0.225659	0.596656
H159	H	0.666648	0.558992	0.929989
H160	H	-0.156619	-0.893253	-0.438702
H161	H	0.176715	-0.559920	-0.105369
H162	H	0.510048	-0.226587	0.227964
H163	H	-0.000016	-0.505001	0.270805
H164	H	0.333317	-0.171668	0.604138
H165	H	0.666651	0.161665	0.937471
H166	H	-0.000014	-0.648230	0.273503
H167	H	0.333320	-0.314897	0.606836
H168	H	0.666653	0.018437	0.940169
Br169	Br	-0.000036	-0.267468	0.310671
Br170	Br	0.333297	0.065865	0.644004
Br171	Br	0.666631	0.399199	0.977337
Br172	Br	-0.000017	-0.706962	-0.066078
Br173	Br	0.333317	-0.373629	0.267255
Br174	Br	0.666650	-0.040295	0.600588
H175	H	-0.000030	-0.537456	-0.024938
H176	H	0.333303	-0.204123	0.308396
H177	H	0.666637	0.129210	0.641729
H178	H	0.156542	-0.895086	-0.320212
H179	H	0.489875	-0.561753	0.013121
H180	H	0.823208	-0.228419	0.346454
Br181	Br	-0.203478	-0.890146	-0.633275
Br182	Br	0.129855	-0.556813	-0.299941
Br183	Br	0.463189	-0.223479	0.033392
H184	H	-0.000039	-0.283348	-0.029714
H185	H	0.333294	0.049985	0.303619
H186	H	0.666628	0.383319	0.636953
Br187	Br	-0.000043	-0.123541	-0.077069
Br188	Br	0.333291	0.209792	0.256264
Br189	Br	0.666624	0.543125	0.589598
Br190	Br	0.771057	-1.015377	-0.023004
Br191	Br	1.104390	-0.682044	0.310329
Br192	Br	1.437724	-0.348711	0.643662
H193	H	-0.156614	-0.897848	-0.150959
H194	H	0.176720	-0.564515	0.182374
H195	H	0.510053	-0.231182	0.515707
Br196	Br	0.203392	-0.890093	-0.633287
Br197	Br	0.536725	-0.556760	-0.299953
Br198	Br	0.870059	-0.223427	0.033380
Br199	Br	0.463699	-1.015346	-0.022996
Br200	Br	0.797032	-0.682013	0.310338
Br201	Br	1.130366	-0.348679	0.643671
Br202	Br	0.536159	-1.015362	-0.022982
Br203	Br	0.869492	-0.682028	0.310351
Br204	Br	1.202826	-0.348695	0.643684
Br205	Br	0.228790	-1.015329	-0.022994
Br206	Br	0.562123	-0.681995	0.310340
Br207	Br	0.895456	-0.348662	0.643673
Br208	Br	0.228878	-0.772963	0.264085
Br209	Br	0.562212	-0.439629	0.597418
Br210	Br	0.895545	-0.106296	0.930752
H211	H	0.436715	-0.800895	0.231031
H212	H	0.770049	-0.467562	0.564365
H213	H	1.103382	-0.134228	0.897698
Br214	Br	-0.203467	-0.894738	-0.345528
Br215	Br	0.129866	-0.561405	-0.012194
Br216	Br	0.463200	-0.228072	0.321139
Br217	Br	0.536252	-0.773000	0.264091
Br218	Br	0.869586	-0.439667	0.597424
Br219	Br	1.202919	-0.106333	0.930757
Br220	Br	0.203401	-0.893599	-0.413374
Br221	Br	0.536735	-0.560265	-0.080041
Br222	Br	0.870068	-0.226932	0.253293
H223	H	0.744088	-0.800927	0.231024
H224	H	1.077421	-0.467593	0.564357
H225	H	1.410754	-0.134260	0.897691
H226	H	0.156549	-0.897781	-0.150953
H227	H	0.489882	-0.564448	0.182381
H228	H	0.823216	-0.231115	0.515714
