data_functionalizedCrystal
_audit_creation_method	'MofGen! by Chris Wilmer'
_symmetry_space_group_name_H-M	'P1'
_symmetry_Int_Tables_number	1
_symmetry_cell_setting	triclinic
loop_
_symmetry_equiv_pos_as_xyz
  x,y,z
_cell_length_a	6.817900
_cell_length_b	11.102289
_cell_length_c	10.943624
_cell_angle_alpha	91.861746
_cell_angle_beta	108.838799
_cell_angle_gamma	108.605707
loop_
_atom_site_label
_atom_site_type_symbol
_atom_site_fract_x
_atom_site_fract_y
_atom_site_fract_z
V1	V	-4.114282	-0.175806	-0.402551
O2	O	-4.073263	0.008482	-0.394888
O3	O	-4.091041	-0.348626	-0.399798
O4	O	-4.092264	-0.173086	-0.578117
O5	O	-4.072031	-0.168273	-0.215334
V6	V	-4.591232	-0.153765	-0.380158
O7	O	-4.389960	-0.224155	-0.451671
O8	O	-4.765752	-0.105415	-0.331038
O9	O	-4.391267	0.019056	-0.382912
O10	O	-4.749649	-0.338053	-0.387821
O11	O	-4.750880	-0.161298	-0.567375
O12	O	-4.390044	-0.156484	-0.204592
C13	C	-3.941308	-0.390757	-0.393447
C14	C	-4.003768	-0.532039	-0.392366
C15	C	-4.217163	-0.604887	-0.398299
C16	C	-4.275844	-0.737639	-0.397294
C17	C	-3.907711	-0.724682	-0.384419
C18	C	-3.849038	-0.591934	-0.385432
C19	C	-4.429699	-0.612368	-0.405727
C20	C	-4.488380	-0.745120	-0.404723
C21	C	-3.942867	-0.166837	-0.620910
C22	C	-4.006314	-0.165757	-0.764437
C23	C	-3.851194	-0.158485	-0.841584
C24	C	-4.039808	-0.266416	-0.947574
C25	C	-3.930779	-0.055914	-0.914187
C26	C	-4.194138	-0.273789	-0.868550
C27	C	-4.085029	-0.063191	-0.835140
C28	C	-4.273779	-0.171153	-0.941100
C29	C	-4.204342	0.061180	-0.389259
C30	C	-4.121122	0.202461	-0.390348
C31	C	-4.202783	-0.162738	-0.161792
C32	C	-4.118573	-0.163811	-0.018265
H33	H	-4.620843	-0.802979	-0.500372
O34	O	-3.798568	0.054040	-0.938667
C35	C	-3.494418	0.254020	-0.847588
C36	C	-3.644036	0.129575	-0.819685
H37	H	-3.369414	0.315113	-0.751411
H38	H	-3.599875	0.310300	-0.902400
H39	H	-3.403102	0.228726	-0.909630
H40	H	-3.735382	0.154755	-0.757606
H41	H	-3.538463	0.073329	-0.764934
O42	O	-4.563766	-0.589188	-0.517652
C43	C	-4.656355	-0.429408	-0.645438
C44	C	-4.504414	-0.455477	-0.518620
H45	H	-4.608394	-0.321307	-0.646274
H46	H	-4.835485	-0.471087	-0.650900
H47	H	-4.637572	-0.476550	-0.733076
H48	H	-4.523002	-0.408339	-0.430910
H49	H	-4.325343	-0.413827	-0.513272
O50	O	-4.429211	-0.549070	-0.297071
C51	C	-4.488065	-0.566091	-0.091760
C52	C	-4.488783	-0.637942	-0.214767
H53	H	-4.536178	-0.637908	-0.025170
H54	H	-4.611735	-0.513871	-0.121334
H55	H	-4.315575	-0.493274	-0.037668
H56	H	-4.661181	-0.710820	-0.268914
H57	H	-4.364994	-0.690075	-0.185107
H58	H	-4.539085	-0.770096	-0.316529
H59	H	-4.304885	-0.365970	-0.848005
O60	O	-3.637564	-0.152439	-0.789610
C61	C	-3.387186	-0.255003	-0.670672
C62	C	-3.629197	-0.261988	-0.729446
H63	H	-3.380347	-0.343574	-0.622039
H64	H	-3.287084	-0.164808	-0.594972
H65	H	-3.314970	-0.251489	-0.751588
H66	H	-3.701611	-0.265551	-0.648620
H67	H	-3.729144	-0.352169	-0.805178
H68	H	-4.021353	-0.352332	-0.996523
H69	H	-4.453056	-0.176535	-0.984345
O70	O	-4.106888	0.039210	-0.776481
C71	C	-4.072756	0.152257	-0.574716
C72	C	-4.048003	0.036199	-0.640996
H73	H	-4.025116	0.149875	-0.465163
H74	H	-4.251608	0.147863	-0.617055
H75	H	-3.959710	0.245014	-0.592863
H76	H	-4.160922	-0.056616	-0.622874
H77	H	-3.869091	0.040706	-0.598649
H78	H	-3.675284	-0.532628	-0.380616
H79	H	-3.781744	-0.773465	-0.378775
