data_functionalizedCrystal
_audit_creation_method	'MofGen! by Chris Wilmer'
_symmetry_space_group_name_H-M	'P1'
_symmetry_Int_Tables_number	1
_symmetry_cell_setting	triclinic
loop_
_symmetry_equiv_pos_as_xyz
  x,y,z
_cell_length_a	14.519709
_cell_length_b	9.065218
_cell_length_c	7.540329
_cell_angle_alpha	89.998243
_cell_angle_beta	90.002655
_cell_angle_gamma	84.348015
loop_
_atom_site_label
_atom_site_type_symbol
_atom_site_fract_x
_atom_site_fract_y
_atom_site_fract_z
O1	O	1.225282	0.193392	-0.147244
O2	O	1.558615	0.526725	0.186089
O3	O	1.891948	0.860059	0.519423
O4	O	0.956971	0.216167	-0.147297
O5	O	1.290305	0.549500	0.186036
O6	O	1.623638	0.882834	0.519369
O7	O	1.096672	-0.009967	-0.147266
O8	O	1.430006	0.323366	0.186067
O9	O	1.763339	0.656700	0.519401
O10	O	1.085581	0.419526	-0.147275
O11	O	1.418914	0.752859	0.186058
O12	O	1.752247	1.086192	0.519391
O13	O	1.096664	-0.009970	0.147699
O14	O	1.429997	0.323364	0.481033
O15	O	1.763331	0.656697	0.814366
O16	O	0.956963	0.216164	0.147668
O17	O	1.290296	0.549497	0.481001
O18	O	1.623630	0.882831	0.814334
O19	O	1.225273	0.193389	0.147721
O20	O	1.558606	0.526723	0.481054
O21	O	1.891940	0.860056	0.814388
Cu22	Cu	1.091117	0.204776	0.174627
Cu23	Cu	1.424451	0.538110	0.507960
Cu24	Cu	1.757784	0.871443	0.841294
Cu25	Cu	1.091127	0.204780	-0.174203
Cu26	Cu	1.424461	0.538113	0.159130
Cu27	Cu	1.757794	0.871446	0.492463
O28	O	1.085572	0.419523	0.147690
O29	O	1.418906	0.752856	0.481023
O30	O	1.752239	1.086190	0.814356
C31	C	0.922600	0.215104	0.000178
C32	C	1.255933	0.548437	0.333512
C33	C	1.589266	0.881771	0.666845
C34	C	0.820195	0.211923	0.000158
C35	C	1.153528	0.545257	0.333491
C36	C	1.486862	0.878590	0.666824
C37	C	1.095602	-0.064935	0.000214
C38	C	1.428936	0.268398	0.333547
C39	C	1.762269	0.601732	0.666880
C40	C	1.092415	-0.228718	0.000204
C41	C	1.425748	0.104615	0.333538
C42	C	1.759082	0.437949	0.666871
C43	C	0.445214	0.200214	0.000239
C44	C	0.778547	0.533548	0.333572
C45	C	1.111880	0.866881	0.666905
C46	C	0.549545	0.203466	0.000216
C47	C	0.882879	0.536799	0.333549
C48	C	1.216212	0.870132	0.666882
C49	C	0.632701	0.206068	0.000197
C50	C	0.966034	0.539402	0.333530
C51	C	1.299368	0.872735	0.666863
C52	C	0.737039	0.209321	0.000177
C53	C	1.070373	0.542654	0.333510
C54	C	1.403706	0.875988	0.666844
C55	C	1.259645	0.194452	0.000242
C56	C	1.592978	0.527786	0.333575
C57	C	1.926312	0.861119	0.666908
C58	C	1.362049	0.197633	0.000251
C59	C	1.695383	0.530966	0.333584
C60	C	2.028716	0.864299	0.666917
C61	C	1.086642	0.474491	0.000206
C62	C	1.419976	0.807824	0.333540
C63	C	1.753309	1.141158	0.666873
C64	C	1.089830	0.638274	0.000204
C65	C	1.423163	0.971608	0.333537
C66	C	1.756496	1.304941	0.666871
N67	N	1.091117	0.204773	0.419976
N68	N	1.424450	0.538107	0.753309
N69	N	1.757784	0.871440	1.086642
N70	N	1.091135	0.204771	-0.419552
N71	N	1.424468	0.538105	-0.086218
N72	N	1.757801	0.871438	0.247115
