data_functionalizedCrystal
_audit_creation_method	'MofGen! by Chris Wilmer'
_symmetry_space_group_name_H-M	'P1'
_symmetry_Int_Tables_number	1
_symmetry_cell_setting	triclinic
loop_
_symmetry_equiv_pos_as_xyz
  x,y,z
_cell_length_a	27.440280
_cell_length_b	14.446369
_cell_length_c	27.440280
_cell_angle_alpha	60.003865
_cell_angle_beta	90.008003
_cell_angle_gamma	59.999534
loop_
_atom_site_label
_atom_site_type_symbol
_atom_site_fract_x
_atom_site_fract_y
_atom_site_fract_z
Zr1	Zr	0.469505	1.013123	-0.063915
O2	O	0.391686	1.206242	-0.141740
O3	O	0.493360	0.820004	-0.040055
O4	O	0.493360	1.013100	-0.141722
O5	O	0.391688	1.013163	0.040121
O6	O	0.573563	1.013083	-0.141712
O7	O	0.391687	1.013146	-0.040072
O8	O	0.573564	0.667668	0.040152
O9	O	0.391687	1.358578	-0.141743
O10	O	0.563390	0.899423	-0.029875
O11	O	0.503536	0.899450	0.029965
O12	O	0.503535	1.126796	-0.089735
O13	O	0.443682	1.126823	-0.029895
Zr14	Zr	0.597421	1.013123	0.064000
Zr15	Zr	0.597419	1.013095	-0.063899
Zr16	Zr	0.469507	1.013151	0.063984
Zr17	Zr	0.469506	1.256081	-0.063921
Zr18	Zr	0.597420	0.770165	0.064006
O19	O	0.573566	1.206242	0.040139
O20	O	0.573564	1.206202	-0.141717
O21	O	0.391689	1.206283	0.040117
O22	O	0.675241	0.820004	0.141824
O23	O	0.675238	0.819963	-0.040032
O24	O	0.493363	0.820044	0.141801
O25	O	0.675239	1.013083	-0.040037
O26	O	0.573567	1.013146	0.141807
O27	O	0.493364	1.013163	0.141797
O28	O	0.675240	1.013100	0.040157
O29	O	0.493361	1.358555	-0.141731
O30	O	0.573565	0.667691	0.141815
O31	O	0.675240	0.667668	0.141828
O32	O	0.675238	0.667645	0.040165
O33	O	0.391688	1.358601	-0.040080
O34	O	0.493363	1.358578	-0.040068
O35	O	0.563391	0.899450	0.089820
O36	O	0.623245	0.899423	0.029980
O37	O	0.563391	1.126796	-0.029880
O38	O	0.503537	1.126823	0.029960
C39	C	0.533462	0.709220	0.000050
C40	C	0.533461	0.606078	0.000052
C41	C	0.495893	0.459085	0.037966
C42	C	0.495688	0.566705	0.037813
C43	C	0.505922	0.655065	-0.064986
C44	C	0.505640	0.547833	-0.064789
C45	C	0.598596	0.372611	0.026617
C46	C	0.598500	0.478762	0.027944
C47	C	0.373462	1.013159	0.000022
C48	C	0.319159	1.013171	0.000016
C49	C	0.013705	0.894415	0.031305
C50	C	-0.037314	0.894408	0.031311
O51	O	-0.037130	0.793470	0.057903
N52	N	-0.094074	1.013093	0.000063
C53	C	-0.099815	1.131793	-0.031186
O54	O	-0.152778	1.232743	-0.057763
C55	C	-0.048797	1.131799	-0.031187
C56	C	0.007963	1.013106	0.000057
C57	C	0.070462	0.775732	0.062548
C58	C	0.121476	0.775740	0.062541
C59	C	0.115734	0.894431	0.031293
C60	C	0.058978	1.013114	0.000050
C61	C	-0.054538	1.250497	-0.062433
C62	C	-0.003514	1.250493	-0.062431
C63	C	0.053245	1.131800	-0.031187
C64	C	0.104250	1.131812	-0.031204
N65	N	0.161010	1.013127	0.000043
C66	C	0.166752	0.894436	0.031291
C67	C	-0.206953	1.131771	-0.031180
C68	C	-0.257970	1.131767	-0.031182
C69	C	-0.195466	0.894381	0.031316
C70	C	-0.144448	0.894387	0.031314
C71	C	-0.150193	1.013086	0.000067
C72	C	0.273885	0.894462	0.031275
C73	C	0.324901	0.894480	0.031264
C74	C	0.262393	1.131864	-0.031231
C75	C	0.211380	1.131847	-0.031222
C76	C	0.217130	1.013135	0.000035
O77	O	0.104113	1.232699	-0.057781
O78	O	0.219718	0.793503	0.057870
C79	C	0.693464	1.013087	0.000062
C80	C	0.747767	1.013075	0.000069
C81	C	0.533461	1.013087	-0.159940
C82	C	0.533460	1.013075	-0.214237
C83	C	0.533465	1.317026	0.000035
C84	C	0.533465	1.420168	0.000033
C85	C	0.502225	1.131831	-0.582217
C86	C	0.502227	1.131838	-0.633240
O87	O	0.475674	1.232776	-0.686201
N88	N	0.533469	1.013153	-0.627510
C89	C	0.564717	0.894453	-0.570754
O90	O	0.591291	0.793503	-0.570566
C91	C	0.564718	0.894447	-0.519733
C92	C	0.533469	1.013140	-0.525467
C93	C	0.470979	1.250514	-0.587949
C94	C	0.470977	1.250506	-0.536930
C95	C	0.502220	1.131815	-0.480180
C96	C	0.533466	1.013132	-0.474448
C97	C	0.595969	0.775749	-0.462979
C98	C	0.595968	0.775753	-0.411957
C99	C	0.564718	0.894446	-0.417691
C100	C	0.564707	0.894434	-0.366679
N101	N	0.533465	1.013119	-0.372408
C102	C	0.502222	1.131810	-0.429159
C103	C	0.564712	0.894475	-0.677904
C104	C	0.564708	0.894479	-0.728924
C105	C	0.502219	1.131864	-0.791406
C106	C	0.502220	1.131859	-0.740385
C107	C	0.533470	1.013160	-0.683633
C108	C	0.502218	1.131784	-0.322013
C109	C	0.502217	1.131766	-0.270987
C110	C	0.564708	0.894381	-0.208510
C111	C	0.564707	0.894399	-0.259531
C112	C	0.533461	1.013111	-0.316284
O113	O	0.591249	0.793547	-0.313699
O114	O	0.475658	1.232743	-0.429336
C115	C	0.533466	1.013159	0.160025
C116	C	0.533466	1.013171	0.214321
C117	C	0.693463	0.709184	0.000070
C118	C	0.747765	0.606030	0.000079
C119	C	0.533464	0.709255	0.160032
C120	C	0.533464	0.606125	0.214331
C121	C	0.693465	0.709220	0.160052
C122	C	0.747769	0.606078	0.214358
C123	C	0.373461	1.317026	-0.159967
C124	C	0.319158	1.420168	-0.214273
C125	C	0.373464	1.317062	0.000015
C126	C	0.319161	1.420216	0.000006
C127	C	0.533462	1.316991	-0.159947
C128	C	0.533462	1.420121	-0.214246
C129	C	0.742023	0.557588	-0.031166
C130	C	0.793041	0.460677	-0.031169
C131	C	0.849801	0.412203	0.000076
C132	C	0.855543	0.460655	0.031322
C133	C	0.804525	0.557571	0.031321
C134	C	0.564708	0.557694	0.271080
C135	C	0.564706	0.460807	0.322104
C136	C	0.533464	0.412345	0.316379
C137	C	0.502216	0.460785	0.259625
C138	C	0.502215	0.557678	0.208601
C139	C	0.804518	0.557627	0.208625
C140	C	0.855547	0.460728	0.259646
C141	C	0.849824	0.412274	0.316400
C142	C	0.793069	0.460734	0.322132
C143	C	0.742041	0.557638	0.271111
C144	C	0.262408	1.468631	-0.208540
C145	C	0.211380	1.565560	-0.259561
C146	C	0.217102	1.614019	-0.316315
C147	C	0.273858	1.565553	-0.322047
C148	C	0.324885	1.468632	-0.271027
C149	C	0.324904	1.468668	0.031245
C150	C	0.273886	1.565606	0.031234
C151	C	0.217126	1.614083	-0.000013
C152	C	0.211384	1.565626	-0.031256
C153	C	0.262401	1.468697	-0.031248
C154	C	0.564711	1.468552	-0.208502
C155	C	0.564722	1.565440	-0.259517
C156	C	0.533481	1.613903	-0.316276
C157	C	0.502231	1.565462	-0.322019
C158	C	0.502224	1.468569	-0.271004
H159	H	0.514268	0.370223	0.085977
C160	C	0.431377	0.507383	0.013287
H161	H	0.427239	0.503939	-0.020036
H162	H	0.422499	0.453025	0.043443
H163	H	0.404590	0.595003	0.001215
H164	H	0.590150	0.597141	0.275753
C165	C	0.161012	1.720699	-0.000015
H166	H	0.172567	1.742597	0.023072
H167	H	0.137927	1.796316	-0.039819
H168	H	0.137930	1.688940	0.016716
H169	H	0.476774	0.597098	0.162396
H170	H	0.626722	0.346624	-0.000881
C171	C	0.256085	1.262414	-0.065632
H172	H	0.294601	1.245409	-0.061162
H173	H	0.234883	1.311132	-0.106730
H174	H	0.234889	1.311234	-0.050223
C175	C	0.679620	0.610909	0.277425
H176	H	0.683526	0.568156	0.318534
H177	H	0.658406	0.702405	0.258820
H178	H	0.658422	0.595000	0.258827
H179	H	0.257717	1.429250	-0.056686
C180	C	0.467854	1.262419	-0.746696
H181	H	0.449252	1.333101	-0.787804
H182	H	0.438288	1.267370	-0.728098
H183	H	0.494829	1.267344	-0.728089
H184	H	0.788418	0.421269	0.368348
H185	H	0.371117	0.797822	0.056709
C186	C	0.917979	0.407309	0.065701
H187	H	0.914099	0.450034	0.084311
H188	H	0.939170	0.315816	0.095260
H189	H	0.939185	0.423181	0.038738
C190	C	0.533489	1.720493	-0.372386
H191	H	0.556570	1.742399	-0.360830
H192	H	0.550216	1.688735	-0.395468
H193	H	0.493681	1.796123	-0.395470
H194	H	0.257738	1.429181	-0.162333
H195	H	0.476795	1.604935	-0.368238
H196	H	0.476775	1.228451	-0.368218
C197	C	0.160971	1.720624	-0.372434
H198	H	0.172502	1.742555	-0.407059
H199	H	0.137889	1.688859	-0.372433
H200	H	0.137894	1.796240	-0.372435
C201	C	0.280145	1.618856	-0.384478
H202	H	0.241624	1.683506	-0.414038
H203	H	0.301345	1.656661	-0.388963
H204	H	0.301336	1.549275	-0.388952
C205	C	0.599081	1.415252	-0.146073
H206	H	0.594601	1.350614	-0.116508
H207	H	0.640185	1.377432	-0.141593
H208	H	0.583651	1.484835	-0.141602
C209	C	0.810825	0.610913	0.146202
H210	H	0.851934	0.568179	0.150104
H211	H	0.792223	0.595026	0.124998
H212	H	0.792218	0.702414	0.124999
H213	H	0.590154	0.421378	0.368311
H214	H	0.476779	0.421313	0.254972
H215	H	0.476774	1.429147	-0.275690
C216	C	0.280216	0.763882	0.065654
H217	H	0.321329	0.693209	0.084252
H218	H	0.261621	0.758933	0.095222
H219	H	0.261612	0.758937	0.038687
C220	C	0.630355	0.645184	-0.456660
H221	H	0.648969	0.574508	-0.415550
H222	H	0.603402	0.640220	-0.475266
H223	H	0.659925	0.640262	-0.475256
H224	H	0.901755	0.421281	0.254968
C225	C	0.148957	1.618844	-0.253245
H226	H	0.152861	1.576080	-0.212137
H227	H	0.127750	1.710336	-0.271843
H228	H	0.127752	1.602959	-0.271852
C229	C	0.183906	0.645177	0.096917
H230	H	0.180010	0.574498	0.115531
H231	H	0.205110	0.640221	0.069957
H232	H	0.205108	0.640250	0.126484
H233	H	0.075147	0.679074	0.087997
H234	H	0.371092	1.429174	-0.275702
H235	H	0.891379	0.333368	0.357939
C236	C	0.280209	1.618895	0.065602
H237	H	0.241699	1.683580	0.061118
H238	H	0.301408	1.549325	0.106706
H239	H	0.301416	1.656681	0.050172
H240	H	0.788354	0.421239	-0.056613
C241	C	0.148948	1.618946	-0.065621
H242	H	0.152828	1.576218	-0.084230
H243	H	0.127751	1.603074	-0.038651
H244	H	0.127747	1.710445	-0.095190
C245	C	0.520634	0.517137	0.102509
H246	H	0.530982	0.430896	0.129122
H247	H	0.555093	0.516588	0.107226
H248	H	0.491206	0.573339	0.111096
C249	C	0.630340	0.645181	-0.349532
H250	H	0.648944	0.574501	-0.353430
H251	H	0.659905	0.640233	-0.328320
H252	H	0.603368	0.640246	-0.328339
C253	C	0.599091	1.618723	-0.253189
H254	H	0.617684	1.575996	-0.212079
H255	H	0.628664	1.602825	-0.271778
H256	H	0.572119	1.710225	-0.271798
C257	C	0.599081	0.763832	-0.146081
H258	H	0.594609	0.780837	-0.116519
H259	H	0.583663	0.715047	-0.141600
H260	H	0.640188	0.715079	-0.141604
C261	C	0.810846	0.610851	0.065692
H262	H	0.772336	0.675522	0.061217
H263	H	0.832052	0.541273	0.106794
H264	H	0.832047	0.648652	0.050259
H265	H	-0.098235	0.797737	0.056761
H266	H	0.533469	0.333448	0.357930
H267	H	0.371117	1.429206	0.056694
H268	H	0.447646	0.655512	0.019382
H269	H	0.457712	0.588537	-0.086071
C270	C	0.679593	0.610898	-0.065542
H271	H	0.683488	0.568168	-0.084154
H272	H	0.658387	0.595024	-0.038584
H273	H	0.658393	0.702397	-0.095110
C274	C	0.905915	0.305587	0.000079
H275	H	0.894360	0.283675	-0.023001
H276	H	0.929002	0.337327	-0.016645
H277	H	0.928995	0.229966	0.039887
H278	H	0.531239	0.525852	-0.094589
H279	H	0.531974	0.683838	-0.094472
H280	H	0.458453	0.747379	-0.086413
H281	H	-0.304183	1.228419	-0.056632
C282	C	0.629671	0.246021	0.090332
H283	H	0.668908	0.218997	0.105549
H284	H	0.607611	0.261705	0.115232
H285	H	0.631669	0.179251	0.089520
C286	C	0.626300	0.425263	0.092671
H287	H	0.665639	0.348246	0.109300
H288	H	0.627647	0.489357	0.093038
H289	H	0.602766	0.405161	0.115612
C290	C	0.639521	0.507795	-0.005465
H291	H	0.678495	0.429192	0.012343
H292	H	0.624182	0.542364	-0.046092
H293	H	0.641202	0.569739	-0.003242
C294	C	-0.213279	1.262349	-0.065563
H295	H	-0.254391	1.333024	-0.084175
H296	H	-0.194677	1.267309	-0.038605
H297	H	-0.194681	1.267279	-0.095131
H298	H	-0.100746	1.347150	-0.087875
C299	C	-0.009834	1.381062	-0.096773
H300	H	0.028677	1.364077	-0.092291
H301	H	-0.031045	1.429881	-0.137879
H302	H	-0.031028	1.429772	-0.081317
C303	C	0.148945	1.262405	-0.065590
H304	H	0.152835	1.333092	-0.084198
H305	H	0.127732	1.267341	-0.095150
H306	H	0.127756	1.267334	-0.038614
H307	H	0.476767	1.228424	-0.275662
C308	C	0.436611	1.381066	-0.543240
H309	H	0.441079	1.364081	-0.504730
H310	H	0.452044	1.429818	-0.564434
H311	H	0.395504	1.429843	-0.564447
C312	C	0.436605	1.381082	-0.650370
H313	H	0.441075	1.364110	-0.679943
H314	H	0.395503	1.429841	-0.654842
H315	H	0.452036	1.429845	-0.654838
C316	C	0.467854	1.262427	-0.853836
H317	H	0.449241	1.333120	-0.849947
H318	H	0.494824	1.267348	-0.875029
H319	H	0.438286	1.267365	-0.875043
C320	C	0.599074	0.763921	-0.722615
H321	H	0.594600	0.780911	-0.761126
H322	H	0.640177	0.715144	-0.701406
H323	H	0.583637	0.715167	-0.701424
H324	H	-0.190798	0.797737	0.056758
C325	C	0.599079	0.763897	-0.615480
H326	H	0.617679	0.693222	-0.619381
H327	H	0.628648	0.758937	-0.594266
H328	H	0.572106	0.758968	-0.594286
H329	H	0.590144	0.797750	-0.254861
