data_functionalizedCrystal
_audit_creation_method	'MofGen! by Chris Wilmer'
_symmetry_space_group_name_H-M	'P1'
_symmetry_Int_Tables_number	1
_symmetry_cell_setting	triclinic
loop_
_symmetry_equiv_pos_as_xyz
  x,y,z
_cell_length_a	13.339070
_cell_length_b	13.339070
_cell_length_c	11.804365
_cell_angle_alpha	74.875130
_cell_angle_beta	105.112168
_cell_angle_gamma	115.629294
loop_
_atom_site_label
_atom_site_type_symbol
_atom_site_fract_x
_atom_site_fract_y
_atom_site_fract_z
O1	O	-0.534576	-1.512774	0.099059
O2	O	-0.462317	-1.197964	0.099053
O3	O	-0.341042	-1.319238	0.099052
O4	O	-0.655850	-1.391499	0.099060
O5	O	-0.372924	-1.287299	-0.099004
O6	O	-0.494199	-1.166024	-0.099002
O7	O	-0.566458	-1.480834	-0.098997
Cu8	Cu	-0.533239	-1.320513	-0.117083
Cu9	Cu	-0.495535	-1.358285	0.117140
O10	O	-0.687732	-1.359560	-0.098995
C11	C	-0.466052	-1.140878	0.000025
C12	C	-0.429669	-1.018364	0.000023
C13	C	-0.315868	-1.291062	0.000026
C14	C	-0.193353	-1.254680	0.000030
C15	C	-0.562722	-1.537920	0.000034
C16	C	-0.599104	-1.660436	0.000044
C17	C	-0.712906	-1.387736	0.000034
C18	C	-0.835420	-1.424120	0.000037
C19	C	0.092035	-1.537579	0.000034
C20	C	-0.023075	-1.571765	0.000023
C21	C	-0.065650	-1.492497	0.000025
C22	C	0.006896	-1.379036	0.000037
C23	C	0.122016	-1.344846	0.000039
C24	C	-0.035669	-1.299763	0.000030
C25	C	0.036878	-1.186303	0.000042
C26	C	0.151986	-1.152118	0.000044
C27	C	0.194561	-1.231386	0.000042
C28	C	-0.150789	-1.333954	0.000029
C29	C	-0.120808	-1.141220	0.000033
C30	C	-0.005698	-1.107035	0.000044
C31	C	-0.712563	-0.732981	0.000049
C32	C	-0.746750	-0.848090	0.000055
C33	C	-0.667483	-0.890664	0.000046
C34	C	-0.554023	-0.818118	0.000033
C35	C	-0.519831	-0.702998	0.000037
C36	C	-0.474750	-0.860682	0.000034
C37	C	-0.361290	-0.788135	0.000021
C38	C	-0.327105	-0.673027	0.000023
C39	C	-0.406372	-0.630453	0.000032
C40	C	-0.508942	-0.975801	0.000030
C41	C	-0.316210	-0.945819	0.000018
C42	C	-0.282023	-0.830709	0.000012
N43	N	-0.559760	-1.293954	-0.281824
C44	C	-0.405301	-1.448622	-0.655774
C45	C	-0.385233	-1.468712	-0.531113
C46	C	-0.428863	-1.425024	-0.468784
C47	C	-0.492564	-1.361243	-0.531130
C48	C	-0.512642	-1.341160	-0.655803
C49	C	-0.536204	-1.317561	-0.468814
C50	C	-0.599906	-1.253781	-0.531159
C51	C	-0.619979	-1.233699	-0.655820
C52	C	-0.576349	-1.277387	-0.718149
C53	C	-0.516126	-1.337645	-0.344140
C54	C	-0.623468	-1.230182	-0.344169
C55	C	-0.643536	-1.210092	-0.468830
N56	N	-0.469008	-1.384850	0.281880
H57	H	-0.209846	-1.426334	0.000019
F58	F	-0.597702	-1.256001	-0.850830
H59	H	-0.412520	-1.441383	-0.367279
F60	F	-0.448332	-1.405522	-0.277802
F61	F	-0.711331	-1.142214	-0.535196
F62	F	-0.796909	-0.687665	0.000074
F63	F	-0.166114	-1.056849	0.000028
F64	F	-0.369993	-0.507939	0.000023
H65	H	-0.234716	-0.613964	0.000026
F66	F	-0.629690	-1.052998	0.000044
H67	H	-0.658998	-1.194609	-0.293422
H68	H	-0.189640	-0.771627	0.000011
F69	F	-0.231840	-0.991124	0.000017
F70	F	0.071525	-0.986285	0.000059
F71	F	-0.687790	-1.165833	-0.722173
H72	H	-0.695324	-0.984393	0.000054
H73	H	0.126710	-1.602105	0.000023
F74	F	-0.317441	-1.536589	-0.464765
H75	H	-0.369790	-1.484195	-0.706530
H76	H	-0.159379	-1.520338	0.000017
H77	H	-0.082135	-1.664144	0.000012
H78	H	0.211050	-1.059730	0.000044
F79	F	0.317094	-1.195026	0.000165
H80	H	-0.839127	-0.907152	0.000075
