data_functionalizedCrystal
_audit_creation_method	'MofGen! by Chris Wilmer'
_symmetry_space_group_name_H-M	'P1'
_symmetry_Int_Tables_number	1
_symmetry_cell_setting	triclinic
loop_
_symmetry_equiv_pos_as_xyz
  x,y,z
_cell_length_a	19.288840
_cell_length_b	23.532357
_cell_length_c	18.366186
_cell_angle_alpha	89.988209
_cell_angle_beta	89.983729
_cell_angle_gamma	82.977153
loop_
_atom_site_label
_atom_site_type_symbol
_atom_site_fract_x
_atom_site_fract_y
_atom_site_fract_z
O1	O	0.921129	0.070979	-0.060680
O2	O	1.421129	0.570979	0.439320
O3	O	0.718835	0.080578	-0.060656
O4	O	1.218835	0.580578	0.439344
O5	O	0.826100	-0.007143	-0.060654
O6	O	1.326100	0.492857	0.439346
O7	O	0.813864	0.158700	-0.060682
O8	O	1.313864	0.658700	0.439318
O9	O	0.826082	-0.007147	0.060446
O10	O	1.326082	0.492853	0.560446
O11	O	0.718817	0.080574	0.060443
O12	O	1.218817	0.580574	0.560443
O13	O	0.921111	0.070975	0.060419
O14	O	1.421111	0.570975	0.560419
Zn15	Zn	0.819961	0.075774	0.079659
Zn16	Zn	1.319961	0.575774	0.579659
Zn17	Zn	0.819985	0.075779	-0.079895
Zn18	Zn	1.319985	0.575779	0.420105
O19	O	0.813846	0.158696	0.060417
O20	O	1.313846	0.658696	0.560417
C21	C	0.692950	0.080269	-0.000103
C22	C	1.192950	0.580269	0.499897
C23	C	0.615848	0.079349	-0.000093
C24	C	1.115848	0.579349	0.499907
C25	C	0.579656	0.078910	-0.066106
C26	C	1.079656	0.578910	0.433894
C27	C	0.507212	0.078039	-0.066115
C28	C	1.007212	0.578039	0.433885
C29	C	0.470965	0.077596	-0.000107
C30	C	0.970965	0.577596	0.499893
C31	C	0.507165	0.078039	0.065915
C32	C	1.007165	0.578039	0.565915
C33	C	0.579607	0.078916	0.065922
C34	C	1.079607	0.578916	0.565922
C35	C	0.361745	0.042847	0.050460
C36	C	0.861745	0.542847	0.550460
C37	C	0.289305	0.041967	0.050451
C38	C	0.789305	0.541967	0.550451
C39	C	0.247530	0.074895	-0.000125
C40	C	0.747530	0.574895	0.499875
C41	C	0.278206	0.108696	-0.050704
C42	C	0.778206	0.608696	0.449296
C43	C	0.350647	0.109573	-0.050697
C44	C	0.850647	0.609573	0.449303
C45	C	0.392414	0.076646	-0.000107
C46	C	0.892414	0.576646	0.499893
C47	C	0.132786	0.073512	-0.066153
C48	C	0.632786	0.573512	0.433847
C49	C	0.060340	0.072645	-0.066159
C50	C	0.560340	0.572645	0.433841
C51	C	0.060296	0.072640	0.065873
C52	C	0.560296	0.572640	0.565873
C53	C	0.132739	0.073513	0.065877
C54	C	0.632739	0.573513	0.565877
C55	C	0.168980	0.073946	-0.000138
C56	C	0.668980	0.573946	0.499862
C57	C	0.825785	-0.028362	-0.000102
C58	C	1.325785	0.471638	0.499898
C59	C	0.824865	-0.091583	-0.000095
C60	C	1.324865	0.408417	0.499905
C61	C	0.819098	-0.483603	-0.066145
C62	C	1.319098	0.016397	0.433855
C63	C	0.818223	-0.543004	-0.066149
C64	C	1.318223	-0.043004	0.433851
O65	O	0.817755	-0.573720	-0.122289
O66	O	1.317755	-0.073720	0.377711
N67	N	0.817779	-0.572719	-0.000138
N68	N	1.317779	-0.072719	0.499862
C69	C	0.818203	-0.543028	0.065880
C70	C	1.318203	-0.043028	0.565880
O71	O	0.817745	-0.573757	0.122027
O72	O	1.317745	-0.073757	0.622027
C73	C	0.819073	-0.483628	0.065884
C74	C	1.319073	0.016372	0.565884
C75	C	0.819524	-0.453917	-0.000131
C76	C	1.319524	0.046083	0.499869
C77	C	0.819548	-0.453893	-0.132154
C78	C	1.319548	0.046107	0.367846
C79	C	0.820424	-0.394496	-0.132150
C80	C	1.320424	0.105504	0.367850
C81	C	0.820850	-0.364809	-0.066136
C82	C	1.320850	0.135191	0.433864
C83	C	0.820400	-0.394520	-0.000127
C84	C	1.320400	0.105480	0.499873
C85	C	0.819492	-0.453937	0.131902
C86	C	1.319492	0.046063	0.631902
C87	C	0.820362	-0.394533	0.131899
C88	C	1.320362	0.105467	0.631899
C89	C	0.820812	-0.364822	0.065885
C90	C	1.320812	0.135178	0.565885
C91	C	0.821702	-0.305437	0.065891
C92	C	1.321702	0.194563	0.565891
N93	N	0.822146	-0.275722	-0.000119
N94	N	1.322146	0.224278	0.499881
C95	C	0.821720	-0.305409	-0.066133
C96	C	1.321720	0.194591	0.433867
C97	C	0.816376	-0.667773	0.065869
C98	C	1.316376	-0.167773	0.565869
C99	C	0.815511	-0.727174	0.065866
C100	C	1.315511	-0.227174	0.565866
C101	C	0.815529	-0.727146	-0.066163
C102	C	1.315529	-0.227146	0.433837
C103	C	0.816399	-0.667745	-0.066160
C104	C	1.316399	-0.167745	0.433840
C105	C	0.816819	-0.638059	-0.000142
C106	C	1.316819	-0.138059	0.499858
C107	C	0.823560	-0.180671	-0.066119
C108	C	1.323560	0.319329	0.433881
C109	C	0.824439	-0.121269	-0.066108
C110	C	1.324439	0.378731	0.433892
C111	C	0.824417	-0.121302	0.065921
C112	C	1.324417	0.378698	0.565921
C113	C	0.823542	-0.180699	0.065911
C114	C	1.323542	0.319301	0.565911
C115	C	0.823111	-0.210382	-0.000115
C116	C	1.323111	0.289618	0.499885
O117	O	0.822167	-0.274683	0.122003
O118	O	1.322167	0.225317	0.622003
O119	O	0.822169	-0.274672	-0.122270
O120	O	1.322169	0.225328	0.377730
C121	C	0.946996	0.071283	-0.000135
C122	C	1.446996	0.571283	0.499865
C123	C	1.024098	0.072203	-0.000150
C124	C	1.524098	0.572203	0.499850
C125	C	0.814161	0.179915	-0.000136
C126	C	1.314161	0.679915	0.499864
C127	C	0.815081	0.243135	-0.000148
C128	C	1.315081	0.743135	0.499852
N129	N	0.819950	0.075769	0.188550
N130	N	1.319950	0.575769	0.688550
N131	N	0.820002	0.075779	-0.188786
N132	N	1.320002	0.575779	0.311214
C133	C	0.867462	0.036945	0.226651
C134	C	1.367462	0.536945	0.726651
C135	C	0.867467	0.036943	0.302879
C136	C	1.367467	0.536943	0.802879
C137	C	0.819965	0.075774	0.341002
C138	C	1.319965	0.575774	0.841002
C139	C	0.772444	0.114601	0.302892
C140	C	1.272444	0.614601	0.802892
C141	C	0.772436	0.114598	0.226666
C142	C	1.272436	0.614598	0.726666
C143	C	0.810496	0.127667	0.461755
C144	C	1.310496	0.627667	0.961755
C145	C	0.810508	0.127670	0.537980
C146	C	1.310508	0.627670	1.037980
C147	C	0.819985	0.075781	0.576110
C148	C	1.319985	0.575781	1.076110
C149	C	0.829464	0.023887	0.538006
C150	C	1.329464	0.523887	1.038006
C151	C	0.829456	0.023884	0.461780
C152	C	1.329456	0.523884	0.961780
C153	C	0.819968	0.075781	0.423657
C154	C	1.319968	0.575781	0.923657
C155	C	0.867505	0.036951	0.696866
C156	C	1.367505	0.536951	1.196866
C157	C	0.867505	0.036948	0.773095
C158	C	1.367505	0.536948	1.273095
C159	C	0.772485	0.114611	0.773107
C160	C	1.272485	0.614611	1.273107
C161	C	0.772482	0.114609	0.696879
C162	C	1.272482	0.614609	1.196879
C163	C	0.819996	0.075780	0.658763
C164	C	1.319996	0.575780	1.158763
H165	H	0.030783	0.072283	0.119618
H166	H	0.530783	0.572283	0.619618
H167	H	0.824807	-0.097082	-0.119868
H168	H	1.324807	0.402918	0.380132
H169	H	0.906193	0.005330	0.804118
H170	H	1.406193	0.505330	1.304118
H171	H	0.820788	-0.370310	-0.185906
H172	H	1.320788	0.129690	0.314094
H173	H	0.823206	-0.204831	-0.119883
H174	H	1.323206	0.295169	0.380117
Cl175	Cl	0.814988	-0.764476	-0.149153
Cl176	Cl	1.314988	-0.264476	0.350847
H177	H	0.162294	0.073871	-0.119906
H178	H	0.662294	0.573871	0.380094
H179	H	0.815154	-0.751360	0.119622
H180	H	1.315154	-0.251360	0.619622
H181	H	0.906149	0.005327	0.195619
H182	H	1.406149	0.505327	0.695619
Cl183	Cl	0.625212	0.079458	-0.149096
Cl184	Cl	1.125212	0.579458	0.350904
Cl185	Cl	0.178241	0.074062	0.148870
Cl186	Cl	0.678241	0.574062	0.648870
Cl187	Cl	0.712763	0.163423	0.821028
Cl188	Cl	1.212763	0.663423	1.321028
H189	H	0.264335	0.014441	0.091631
H190	H	0.764335	0.514441	0.591631
Cl191	Cl	0.816911	-0.630461	0.148872
Cl192	Cl	1.316911	-0.130461	0.648872
H193	H	0.030873	0.072290	-0.119916
H194	H	0.530873	0.572290	0.380084
H195	H	0.395752	0.016031	0.091649
H196	H	0.895752	0.516031	0.591649
Cl197	Cl	0.824952	-0.083971	0.148905
Cl198	Cl	1.324952	0.416029	0.648905
Cl199	Cl	0.461704	0.077486	-0.149109
Cl200	Cl	0.961704	0.577486	0.350891
Cl201	Cl	0.820891	-0.357217	0.214899
Cl202	Cl	1.320891	0.142783	0.714899
H203	H	0.823181	-0.204891	0.119665
H204	H	1.323181	0.295109	0.619665
H205	H	0.819198	-0.478057	-0.185913
H206	H	1.319198	0.021943	0.314087
Cl207	Cl	0.461598	0.077486	0.148897
Cl208	Cl	0.961598	0.577486	0.648897
Cl209	Cl	0.816963	-0.630400	-0.149153
Cl210	Cl	1.316963	-0.130400	0.350847
H211	H	0.819126	-0.478118	0.185658
H212	H	1.319126	0.021882	0.685658
H213	H	0.733795	0.146226	0.665855
H214	H	1.233795	0.646226	1.165855
Cl215	Cl	0.625108	0.079468	0.148917
Cl216	Cl	1.125108	0.579468	0.648917
H217	H	0.802794	0.169926	0.568998
H218	H	1.302794	0.669926	1.068998
Cl219	Cl	0.712724	0.163415	0.350817
Cl220	Cl	1.212724	0.663415	0.850817
Cl221	Cl	0.927203	-0.011868	0.350786
Cl222	Cl	1.427203	0.488132	0.850786
Cl223	Cl	0.841364	-0.041351	0.413880
Cl224	Cl	1.341364	0.458649	0.913880
H225	H	0.837181	-0.018366	0.569050
H226	H	1.337181	0.481634	1.069050
H227	H	0.906192	0.005332	0.665831
H228	H	1.406192	0.505332	1.165831
Cl229	Cl	0.798646	0.192907	0.413827
Cl230	Cl	1.298646	0.692907	0.913827
Cl231	Cl	0.712702	0.163410	0.178763
Cl232	Cl	1.212702	0.663410	0.678763
Cl233	Cl	0.225697	0.150098	-0.114287
Cl234	Cl	0.725697	0.650098	0.385713
H235	H	0.375620	0.137096	-0.091879
H236	H	0.875620	0.637096	0.408121
