data_functionalizedCrystal
_audit_creation_method	'MofGen! by Chris Wilmer'
_symmetry_space_group_name_H-M	'P1'
_symmetry_Int_Tables_number	1
_symmetry_cell_setting	triclinic
loop_
_symmetry_equiv_pos_as_xyz
  x,y,z
_cell_length_a	15.500227
_cell_length_b	10.489741
_cell_length_c	10.489741
_cell_angle_alpha	95.460826
_cell_angle_beta	87.142580
_cell_angle_gamma	87.129269
loop_
_atom_site_label
_atom_site_type_symbol
_atom_site_fract_x
_atom_site_fract_y
_atom_site_fract_z
O1	O	0.071890	-1.699929	0.174105
O2	O	0.071903	-1.328734	0.190997
O3	O	0.071891	-1.522777	-0.003047
O4	O	0.071902	-1.505885	0.368148
O5	O	-0.071997	-1.511002	0.008682
O6	O	-0.071985	-1.316958	0.202725
O7	O	-0.071998	-1.688153	0.185833
Cu8	Cu	-0.085129	-1.501481	0.195350
Cu9	Cu	0.085035	-1.515406	0.181480
O10	O	-0.071986	-1.494110	0.379877
C11	C	-0.000039	-1.275315	0.195585
C12	C	-0.000034	-1.133686	0.191767
N13	N	-0.204814	-1.491695	0.205105
C14	C	-0.000052	-1.515614	-0.044714
C15	C	-0.000051	-1.511797	-0.186344
C16	C	-0.250096	-1.573947	0.122913
C17	C	-0.340668	-1.566558	0.130302
C18	C	-0.385957	-1.476923	0.219891
C19	C	-0.340669	-1.394662	0.302086
C20	C	-0.250098	-1.402046	0.294690
C21	C	-0.659422	-1.450325	0.246514
C22	C	-0.749999	-1.442950	0.253907
C23	C	-0.749992	-1.614845	0.082121
C24	C	-0.659420	-1.622226	0.074737
C25	C	-0.614139	-1.539961	0.156928
C26	C	-0.478536	-1.469371	0.227449
C27	C	-0.521562	-1.547507	0.149363
N28	N	0.204719	-1.525202	0.171715
C29	C	-0.000054	-1.741573	0.181245
C30	C	-0.000053	-1.883202	0.185062
C31	C	-0.000046	-1.065545	0.068304
C32	C	0.070898	-0.979224	0.120844
C33	C	-0.070964	-0.967648	0.132437
C34	C	0.070969	-1.049235	0.244354
C35	C	-0.070957	-1.037664	0.255935
C36	C	0.000004	-0.951371	0.308564
C37	C	-0.000040	-1.388333	-0.254485
C38	C	-0.070986	-1.440850	-0.340824
C39	C	0.070876	-1.452489	-0.352362
C40	C	-0.071055	-1.564360	-0.270813
C41	C	0.070871	-1.575987	-0.282347
C42	C	-0.000093	-1.628593	-0.368657
C43	C	-0.000041	-1.501274	0.421544
C44	C	-0.000037	-1.505091	0.563173
H45	H	-0.213227	-1.646943	0.049966
H46	H	-0.377548	-1.321673	0.375027
N47	N	0.146147	-0.946457	0.049211
N48	N	0.219778	-0.976255	0.084159
H49	H	0.272921	-0.953116	0.033565
N50	N	0.146122	-1.393112	-0.397385
N51	N	0.158493	-1.381529	-0.514284
H52	H	0.211632	-1.339588	-0.546080
N53	N	-0.146196	-1.070444	0.327566
N54	N	-0.200275	-0.984362	0.374969
H55	H	-0.253419	-1.007514	0.425553
N56	N	0.146112	-1.647640	-0.249549
N57	N	0.200187	-1.695058	-0.335621
H58	H	0.253334	-1.745657	-0.312459
H59	H	-0.000136	-1.730192	-0.418078
N60	N	-0.203827	-1.318050	0.378651
N61	N	-0.122962	-1.324653	0.372036
H62	H	-0.090282	-1.265327	0.431333
H63	H	-0.622562	-1.383343	0.313440
N64	N	-0.386908	-1.650582	0.046330
N65	N	-0.346462	-1.730611	-0.033650
H66	H	-0.379118	-1.789956	-0.092962
H67	H	-0.622547	-1.695214	0.001787
N68	N	0.146282	-1.094077	0.303726
N69	N	0.158453	-1.210827	0.316215
H70	H	0.211639	-1.242500	0.358153
N71	N	0.000061	-0.889383	0.436022
N72	N	0.061032	-0.912833	0.505387
H73	H	0.061076	-0.869053	0.595404
H74	H	-0.786868	-1.681820	0.015203
H75	H	0.000040	-1.115241	-0.033199
H76	H	-0.786869	-1.369954	0.326866
H77	H	-0.000108	-1.286815	-0.204828
N78	N	-0.146200	-0.922631	0.072995
N79	N	-0.158823	-0.962730	-0.040241
H80	H	-0.211954	-0.930941	-0.082233
H81	H	-0.130962	-1.383701	-0.366947
H82	H	-0.484685	-1.620484	0.076416
N83	N	-0.524803	-1.377802	0.318945
N84	N	-0.575355	-1.294141	0.281813
H85	H	-0.608035	-1.229467	0.346428
N86	N	-0.146379	-1.623677	-0.225986
N87	N	-0.158556	-1.636143	-0.109237
H88	H	-0.211753	-1.678031	-0.077573
