data_functionalizedCrystal
_audit_creation_method	'MofGen! by Chris Wilmer'
_symmetry_space_group_name_H-M	'P1'
_symmetry_Int_Tables_number	1
_symmetry_cell_setting	triclinic
loop_
_symmetry_equiv_pos_as_xyz
  x,y,z
_cell_length_a	31.640172
_cell_length_b	14.395555
_cell_length_c	31.640172
_cell_angle_alpha	60.001541
_cell_angle_beta	90.004956
_cell_angle_gamma	59.990987
loop_
_atom_site_label
_atom_site_type_symbol
_atom_site_fract_x
_atom_site_fract_y
_atom_site_fract_z
Zr1	Zr	0.407138	1.016759	-0.055489
Zr2	Zr	0.907138	1.516759	0.444511
O3	O	0.339627	1.210599	-0.122978
O4	O	0.839627	1.710599	0.377022
O5	O	0.427837	0.822944	-0.034800
O6	O	0.927837	1.322944	0.465200
O7	O	0.427810	1.016775	-0.122980
O8	O	0.927810	1.516775	0.377020
O9	O	0.339671	1.016745	0.034760
O10	O	0.839671	1.516745	0.534760
O11	O	0.497366	1.016760	-0.122983
O12	O	0.997366	1.516760	0.377017
O13	O	0.339654	1.016767	-0.034797
O14	O	0.839654	1.516767	0.465203
O15	O	0.497414	0.670030	0.034756
O16	O	0.997414	1.170030	0.534756
O17	O	0.339623	1.363475	-0.122979
O18	O	0.839623	1.863475	0.377021
O19	O	0.488570	0.902642	-0.025979
O20	O	0.988570	1.402642	0.474021
O21	O	0.436673	0.902637	0.025933
O22	O	0.936673	1.402637	0.525933
O23	O	0.436642	1.130848	-0.077888
O24	O	0.936642	1.630848	0.422112
O25	O	0.384746	1.130844	-0.025976
O26	O	0.884746	1.630844	0.474024
Zr27	Zr	0.518100	1.016699	0.055443
Zr28	Zr	1.018100	1.516699	0.555443
Zr29	Zr	0.518072	1.016734	-0.055494
Zr30	Zr	1.018072	1.516734	0.444506
Zr31	Zr	0.407165	1.016724	0.055447
Zr32	Zr	0.907165	1.516724	0.555447
Zr33	Zr	0.407131	1.260578	-0.055491
Zr34	Zr	0.907131	1.760578	0.444509
Zr35	Zr	0.518106	0.772879	0.055444
Zr36	Zr	1.018106	1.272879	0.555444
O37	O	0.497400	1.210513	0.034753
O38	O	0.997400	1.710513	0.534753
O39	O	0.497361	1.210563	-0.122984
O40	O	0.997361	1.710563	0.377016
O41	O	0.339666	1.210549	0.034759
O42	O	0.839666	1.710549	0.534759
O43	O	0.585610	0.822858	0.122931
O44	O	1.085610	1.322858	0.622931
O45	O	0.585571	0.822908	-0.034806
O46	O	1.085571	1.322908	0.465194
O47	O	0.427876	0.822894	0.122937
O48	O	0.927876	1.322894	0.622937
O49	O	0.585566	1.016712	-0.034807
O50	O	1.085566	1.516712	0.465193
O51	O	0.497427	1.016682	0.122934
O52	O	0.997427	1.516682	0.622934
O53	O	0.427871	1.016698	0.122936
O54	O	0.927871	1.516698	0.622936
O55	O	0.585583	1.016690	0.034750
O56	O	1.085583	1.516690	0.534750
O57	O	0.427801	1.363455	-0.122982
O58	O	0.927801	1.863455	0.377018
O59	O	0.497436	0.670003	0.122935
O60	O	0.997436	1.170003	0.622935
O61	O	0.585614	0.669983	0.122932
O62	O	1.085614	1.169983	0.622932
O63	O	0.585592	0.670010	0.034752
O64	O	1.085592	1.170010	0.534752
O65	O	0.339645	1.363447	-0.034799
O66	O	0.839645	1.863447	0.465201
O67	O	0.427823	1.363427	-0.034802
O68	O	0.927823	1.863427	0.465198
O69	O	0.488595	0.902609	0.077841
O70	O	0.988595	1.402609	0.577841
O71	O	0.540492	0.902613	0.025929
O72	O	1.040492	1.402613	0.525929
O73	O	0.488564	1.130820	-0.025980
O74	O	0.988564	1.630820	0.474020
O75	O	0.436668	1.130816	0.025932
O76	O	0.936668	1.630816	0.525932
C77	C	0.462626	0.711748	-0.000022
C78	C	0.962626	1.211748	0.499978
C79	C	0.462629	0.608240	-0.000021
C80	C	0.962629	1.108240	0.499979
C81	C	0.490920	0.547665	-0.028331
C82	C	0.990920	1.047665	0.471669
C83	C	0.511444	0.409536	0.020477
C84	C	1.011444	0.909536	0.520477
C85	C	0.442108	0.561935	-0.048824
C86	C	0.942108	1.061935	0.451176
C87	C	0.483182	0.471412	0.048815
C88	C	0.983182	0.971412	0.548815
C89	C	0.413818	0.623885	-0.020521
C90	C	0.913818	1.123885	0.479479
C91	C	0.434330	0.485765	0.028316
C92	C	0.934330	0.985765	0.528316
C93	C	0.323857	1.016760	-0.000018
C94	C	0.823857	1.516760	0.499982
C95	C	0.276762	1.016771	-0.000016
C96	C	0.776762	1.516771	0.499984
C97	C	-0.015253	1.016717	-0.038342
C98	C	0.484747	1.516717	0.461658
C99	C	-0.192239	1.016701	-0.038346
C100	C	0.307761	1.516701	0.461654
O101	O	-0.215120	1.016653	-0.070923
O102	O	0.284880	1.516653	0.429077
N103	N	-0.214360	1.016691	-0.000027
N104	N	0.285640	1.516691	0.499973
C105	C	-0.192230	1.016677	0.038298
C106	C	0.307770	1.516677	0.538298
O107	O	-0.215103	1.016655	0.070894
O108	O	0.284897	1.516655	0.570894
C109	C	-0.015242	1.016684	0.038304
C110	C	0.484758	1.516684	0.538304
C111	C	0.006874	1.016707	-0.000021
C112	C	0.506874	1.516707	0.499979
C113	C	0.006864	1.016738	-0.076664
C114	C	0.506864	1.516738	0.423336
C115	C	0.051106	1.016750	-0.076664
C116	C	0.551106	1.516750	0.423336
C117	C	0.073232	1.016740	-0.038343
C118	C	0.573232	1.516740	0.461657
C119	C	0.051116	1.016718	-0.000021
C120	C	0.551116	1.516718	0.499979
C121	C	0.006889	1.016661	0.076631
C122	C	0.506889	1.516661	0.576631
C123	C	0.051140	1.016659	0.076629
C124	C	0.551140	1.516659	0.576629
C125	C	0.073256	1.016682	0.038304
C126	C	0.573256	1.516682	0.538304
C127	C	0.117484	1.016720	0.038299
C128	C	0.617484	1.516720	0.538299
N129	N	0.139606	1.016729	-0.000020
N130	N	0.639606	1.516729	0.499980
C131	C	0.117479	1.016739	-0.038341
C132	C	0.617479	1.516739	0.461659
C133	C	-0.285152	1.016676	0.038292
C134	C	0.214848	1.516676	0.538292
C135	C	-0.329399	1.016677	0.038290
C136	C	0.170601	1.516677	0.538290
C137	C	-0.329405	1.016698	-0.038354
C138	C	0.170595	1.516698	0.461646
C139	C	-0.285159	1.016706	-0.038354
C140	C	0.214841	1.516706	0.461646
C141	C	-0.263031	1.016685	-0.000027
C142	C	0.236969	1.516685	0.499973
C143	C	0.210391	1.016764	-0.038339
C144	C	0.710391	1.516764	0.461661
C145	C	0.254636	1.016781	-0.038337
C146	C	0.754636	1.516781	0.461663
C147	C	0.254639	1.016753	0.038308
C148	C	0.754639	1.516753	0.538308
C149	C	0.210397	1.016743	0.038305
C150	C	0.710397	1.516743	0.538305
C151	C	0.188275	1.016744	-0.000021
C152	C	0.688275	1.516744	0.499979
O153	O	0.140396	1.016753	0.070863
O154	O	0.640396	1.516753	0.570863
O155	O	0.140367	1.016732	-0.070925
O156	O	0.640367	1.516732	0.429075
C157	C	-0.059495	1.016706	-0.038342
C158	C	0.440505	1.516706	0.461658
C159	C	-0.081611	1.016684	-0.000021
C160	C	0.418389	1.516684	0.499979
C161	C	-0.059485	1.016674	0.038301
C162	C	0.440515	1.516674	0.538301
C163	C	-0.125858	1.016685	-0.000022
C164	C	0.374142	1.516685	0.499978
C165	C	-0.147985	1.016695	-0.038343
C166	C	0.352015	1.516695	0.461657
C167	C	-0.125864	1.016704	-0.076663
C168	C	0.374136	1.516704	0.423337
C169	C	-0.081621	1.016716	-0.076663
C170	C	0.418379	1.516716	0.423337
C171	C	-0.081606	1.016665	0.076620
C172	C	0.418394	1.516665	0.576620
C173	C	-0.125849	1.016655	0.076617
C174	C	0.374151	1.516655	0.576617
C175	C	-0.147975	1.016665	0.038296
C176	C	0.352025	1.516665	0.538296
C177	C	0.601380	1.016697	-0.000029
C178	C	1.101380	1.516697	0.499971
C179	C	0.648475	1.016687	-0.000031
C180	C	1.148475	1.516687	0.499969
C181	C	0.462584	1.016772	-0.138788
C182	C	0.962584	1.516772	0.361212
C183	C	0.462572	1.016787	-0.185883
C184	C	0.962572	1.516787	0.314117
C185	C	0.462611	1.321709	-0.000025
C186	C	0.962611	1.821709	0.499975
C187	C	0.462608	1.425217	-0.000025
C188	C	0.962608	1.925217	0.499975
C189	C	0.424302	1.016711	-0.522154
C190	C	0.924302	1.516711	-0.022154
C191	C	0.424276	1.016751	-0.345173
C192	C	0.924276	1.516751	0.154827
O193	O	0.391696	1.016711	-0.322280
O194	O	0.891696	1.516711	0.177720
N195	N	0.462593	1.016748	-0.323040
N196	N	0.962593	1.516748	0.176960
C197	C	0.500921	1.016726	-0.345154
C198	C	1.000921	1.516726	0.154846
O199	O	0.533515	1.016710	-0.322265
O200	O	1.033515	1.516710	0.177735
C201	C	0.500949	1.016676	-0.522132
C202	C	1.000949	1.516676	-0.022132
C203	C	0.462626	1.016693	-0.544265
C204	C	0.962626	1.516693	-0.044265
C205	C	0.385983	1.016726	-0.544287
C206	C	0.885983	1.516726	-0.044287
C207	C	0.385989	1.016723	-0.588531
C208	C	0.885989	1.516723	-0.088531
C209	C	0.424313	1.016705	-0.610643
C210	C	0.924313	1.516705	-0.110643
C211	C	0.462632	1.016690	-0.588510
C212	C	0.962632	1.516690	-0.088510
C213	C	0.539278	1.016645	-0.544242
C214	C	1.039278	1.516645	-0.044242
C215	C	0.539283	1.016629	-0.588489
C216	C	1.039283	1.516629	-0.088489
C217	C	0.500960	1.016646	-0.610622
C218	C	1.000960	1.516646	-0.110622
C219	C	0.500961	1.016669	-0.654865
C220	C	1.000961	1.516669	-0.154865
N221	N	0.462644	1.016672	-0.676998
N222	N	0.962644	1.516672	-0.176998
C223	C	0.424320	1.016690	-0.654886
C224	C	0.924320	1.516690	-0.154886
C225	C	0.500904	1.016754	-0.252238
C226	C	1.000904	1.516754	0.247762
C227	C	0.500896	1.016769	-0.207995
C228	C	1.000896	1.516769	0.292005
C229	C	0.424252	1.016792	-0.208016
C230	C	0.924252	1.516792	0.291984
C231	C	0.424257	1.016787	-0.252263
C232	C	0.924257	1.516787	0.247737
C233	C	0.462587	1.016758	-0.274371
C234	C	0.962587	1.516758	0.225629
C235	C	0.424334	1.016685	-0.747803
C236	C	0.924334	1.516685	-0.247803
C237	C	0.424341	1.016688	-0.792052
C238	C	0.924341	1.516688	-0.292052
C239	C	0.500987	1.016658	-0.792025
C240	C	1.000987	1.516658	-0.292025
C241	C	0.500978	1.016663	-0.747781
C242	C	1.000978	1.516663	-0.247781
C243	C	0.462649	1.016672	-0.725670
C244	C	0.962649	1.516672	-0.225670
O245	O	0.533527	1.016694	-0.677782
O246	O	1.033527	1.516694	-0.177782
O247	O	0.391738	1.016677	-0.677777
O248	O	0.891738	1.516677	-0.177777
C249	C	0.424297	1.016714	-0.477910
C250	C	0.924297	1.516714	0.022090
C251	C	0.462616	1.016699	-0.455777
C252	C	0.962616	1.516699	0.044223
C253	C	0.500940	1.016681	-0.477888
C254	C	1.000940	1.516681	0.022112
C255	C	0.462609	1.016713	-0.411533
C256	C	0.962609	1.516713	0.088467
C257	C	0.424285	1.016731	-0.389422
C258	C	0.924285	1.516731	0.110578
C259	C	0.385968	1.016735	-0.411554
C260	C	0.885968	1.516735	0.088446
C261	C	0.385973	1.016732	-0.455799
C262	C	0.885973	1.516732	0.044201
C263	C	0.539257	1.016677	-0.455755
C264	C	1.039257	1.516677	0.044245
C265	C	0.539248	1.016682	-0.411512
C266	C	1.039248	1.516682	0.088488
C267	C	0.500924	1.016700	-0.389400
C268	C	1.000924	1.516700	0.110600
C269	C	0.462653	1.016685	0.138741
C270	C	0.962653	1.516685	0.638741
C271	C	0.462665	1.016670	0.185837
C272	C	0.962665	1.516670	0.685837
C273	C	0.601388	0.711717	-0.000028
C274	C	1.101388	1.211717	0.499972
C275	C	0.648485	0.608199	-0.000029
C276	C	1.148485	1.108199	0.499971
C277	C	0.462661	0.711704	0.138743
C278	C	0.962661	1.211704	0.638743
C279	C	0.462675	0.608182	0.185838
C280	C	0.962675	1.108182	0.685838
C281	C	0.601423	0.711673	0.138737
C282	C	1.101423	1.211673	0.638737
C283	C	0.648532	0.608140	0.185831
C284	C	1.148532	1.108140	0.685831
C285	C	0.323814	1.321784	-0.138784
C286	C	0.823814	1.821784	0.361216
C287	C	0.276706	1.425317	-0.185878
C288	C	0.776706	1.925317	0.314122
C289	C	0.323849	1.321740	-0.000019
C290	C	0.823849	1.821740	0.499981
C291	C	0.276752	1.425259	-0.000018
C292	C	0.776752	1.925259	0.499982
C293	C	0.462576	1.321753	-0.138789
C294	C	0.962576	1.821753	0.361211
C295	C	0.462562	1.425275	-0.185885
C296	C	0.962562	1.925275	0.314115
C297	C	0.643500	0.559600	-0.027130
C298	C	1.143500	1.059600	0.472870
C299	C	0.687748	0.462347	-0.027141
C300	C	1.187748	0.962347	0.472859
C301	C	0.736981	0.413688	-0.000049
C302	C	1.236981	0.913688	0.499951
C303	C	0.741966	0.462296	0.027053
C304	C	1.241966	0.962296	0.527053
C305	C	0.697718	0.559554	0.027061
C306	C	1.197718	1.059554	0.527061
C307	C	0.489785	0.559552	0.235055
C308	C	0.989785	1.059552	0.735055
C309	C	0.489796	0.462295	0.279311
C310	C	0.989796	0.962295	0.779311
C311	C	0.462701	0.413663	0.274349
C312	C	0.962701	0.913663	0.774349
C313	C	0.435588	0.462303	0.225127
C314	C	0.935588	0.962303	0.725127
C315	C	0.435574	0.559565	0.180872
C316	C	0.935574	1.059565	0.680872
C317	C	0.697748	0.559522	0.180849
C318	C	1.197748	1.059522	0.680849
C319	C	0.742016	0.462255	0.225095
C320	C	1.242016	0.962255	0.725095
C321	C	0.737066	0.413601	0.274322
C322	C	1.237066	0.913601	0.774322
C323	C	0.687845	0.462229	0.279302
C324	C	1.187845	0.962229	0.779302
C325	C	0.643578	0.559500	0.235057
C326	C	1.143578	1.059500	0.735057
C327	C	0.227489	1.473947	-0.180896
C328	C	0.727489	1.973947	0.319104
C329	C	0.183221	1.571244	-0.225142
C330	C	0.683221	2.071244	0.274858
C331	C	0.188171	1.619903	-0.274369
C332	C	0.688171	2.119903	0.225631
C333	C	0.237393	1.571269	-0.279349
C334	C	0.737393	2.071269	0.220651
C335	C	0.281660	1.473981	-0.235104
C336	C	0.781660	1.973981	0.264896
C337	C	0.281738	1.473867	0.027078
C338	C	0.781738	1.973867	0.527078
C339	C	0.237489	1.571147	0.027078
C340	C	0.737489	2.071147	0.527078
C341	C	0.188256	1.619810	-0.000016
C342	C	0.688256	2.119810	0.499984
C343	C	0.183271	1.571197	-0.027116
C344	C	0.683271	2.071197	0.472884
C345	C	0.227519	1.473926	-0.027118
C346	C	0.727519	1.973926	0.472882
C347	C	0.489662	1.473876	-0.180907
C348	C	0.989662	1.973876	0.319093
C349	C	0.489659	1.571134	-0.225154
C350	C	0.989659	2.071134	0.274846
C351	C	0.462552	1.619795	-0.274380
C352	C	0.962552	2.119795	0.225620
C353	C	0.435450	1.571185	-0.279357
C354	C	0.935450	2.071185	0.220643
C355	C	0.435457	1.473922	-0.235110
C356	C	0.935457	1.973922	0.264890
H357	H	0.372556	0.715553	-0.037872
H358	H	0.872556	1.215553	0.462128
Cl359	Cl	0.523728	1.632231	-0.218884
Cl360	Cl	1.023728	2.132231	0.281116
Cl361	Cl	0.401529	0.401149	0.218898
Cl362	Cl	0.901529	0.901149	0.718898
Cl363	Cl	0.376080	1.016803	-0.280082
Cl364	Cl	0.876080	1.516803	0.219918
H365	H	0.701788	0.599122	0.140770
H366	H	1.201788	1.099122	0.640770
Cl367	Cl	0.401493	0.620680	0.119001
Cl368	Cl	0.901493	1.120680	0.619001
H369	H	0.773007	0.334493	-0.000060
H370	H	1.273007	0.834493	0.499940
H371	H	0.241417	1.610900	-0.319435
H372	H	0.741417	2.110900	0.180565
Cl373	Cl	0.792722	0.291313	0.329940
Cl374	Cl	1.292722	0.791313	0.829940
Cl375	Cl	0.462546	1.742074	-0.330000
Cl376	Cl	0.962546	2.242074	0.170000
Cl377	Cl	0.182591	1.016735	0.086482
Cl378	Cl	0.682591	1.516735	0.586482
H379	H	0.462717	0.334467	0.310388
H380	H	0.962717	0.834467	0.810388
H381	H	0.782091	0.422673	0.221030
H382	H	1.282091	0.922673	0.721030
Cl383	Cl	0.401379	1.412848	-0.241378
Cl384	Cl	0.901379	1.912848	0.258622
H385	H	0.223453	1.434351	-0.049181
H386	H	0.723453	1.934351	0.450819
H387	H	0.321733	1.434387	-0.239167
H388	H	0.821733	1.934387	0.260833
Cl389	Cl	0.401369	1.632386	-0.341245
Cl390	Cl	0.901369	2.132386	0.158755
Cl391	Cl	0.510039	0.413649	0.112564
Cl392	Cl	1.010039	0.913649	0.612564
Cl393	Cl	0.549092	1.016725	-0.280028
Cl394	Cl	1.049092	1.516725	0.219972
H395	H	0.683680	0.422782	-0.049211
H396	H	1.183680	0.922782	0.450789
H397	H	0.782058	0.422664	0.049110
H398	H	1.282058	0.922664	0.549110
Cl399	Cl	0.343626	1.412718	0.061141
Cl400	Cl	0.843626	1.912718	0.561141
Cl401	Cl	0.581611	0.620757	-0.061196
Cl402	Cl	1.081611	1.120757	0.438804
H403	H	0.683822	0.422600	0.319389
H404	H	1.183822	0.922600	0.819389
H405	H	0.511736	1.434271	-0.140829
H406	H	1.011736	1.934271	0.359171
H407	H	0.511849	0.599137	0.239106
H408	H	1.011849	1.099137	0.739106
H409	H	0.552715	0.317890	0.037817
H410	H	1.052715	0.817890	0.537817
Cl411	Cl	0.243767	1.632234	0.061151
Cl412	Cl	0.743767	2.132234	0.561151
H413	H	0.603505	0.599072	0.239121
H414	H	1.103505	1.099072	0.739121
H415	H	0.272660	1.016750	0.069508
H416	H	0.772660	1.516750	0.569508
H417	H	0.143147	1.610825	-0.221076
H418	H	0.643147	2.110825	0.278924
Cl419	Cl	0.527913	0.589487	-0.065230
Cl420	Cl	1.027913	1.089487	0.434770
Cl421	Cl	0.523886	0.401164	0.341184
Cl422	Cl	1.023886	0.901164	0.841184
Cl423	Cl	0.132634	1.742093	-0.000007
Cl424	Cl	0.632634	2.242093	0.499993
Cl425	Cl	0.221253	1.412795	-0.119016
Cl426	Cl	0.721253	1.912795	0.380984
Cl427	Cl	0.132515	1.742208	-0.329987
Cl428	Cl	0.632515	2.242208	0.170013
H429	H	-0.063618	1.016734	-0.107871
H430	H	0.436382	1.516734	0.392129
H431	H	0.143179	1.610833	-0.049175
H432	H	0.643179	2.110833	0.450825
H433	H	0.410402	0.458736	0.052288
H434	H	0.910402	0.958736	0.552288
H435	H	0.272641	1.016803	-0.069548
H436	H	0.772641	1.516803	0.430452
Cl437	Cl	0.415328	0.619381	-0.112540
Cl438	Cl	0.915328	1.119381	0.387460
H439	H	0.192385	1.016762	-0.069547
H440	H	0.692385	1.516762	0.430453
H441	H	-0.011147	1.016742	-0.107870
H442	H	0.488853	1.516742	0.392130
Cl443	Cl	0.078907	1.016765	-0.124843
Cl444	Cl	0.578907	1.516765	0.375157
H445	H	-0.267154	1.016724	-0.069561
H446	H	0.232846	1.516724	0.430439
Cl447	Cl	0.376147	1.016700	-0.720014
Cl448	Cl	0.876147	1.516700	-0.220014
Cl449	Cl	-0.357203	1.016674	0.086466
Cl450	Cl	0.142797	1.516674	0.586466
Cl451	Cl	-0.357228	1.016707	-0.086528
Cl452	Cl	0.142772	1.516707	0.413472
H453	H	0.069155	1.016638	0.107841
H454	H	0.569155	1.516638	0.607841
H455	H	0.701784	0.599110	0.049133
H456	H	1.201784	1.099110	0.549133
Cl457	Cl	0.337788	1.016762	-0.383750
Cl458	Cl	0.837788	1.516762	0.116250
H459	H	0.393046	1.016810	-0.190007
H460	H	0.893046	1.516810	0.309993
Cl461	Cl	-0.257340	1.016656	0.086477
Cl462	Cl	0.242660	1.516656	0.586477
Cl463	Cl	-0.153689	1.016722	-0.124839
Cl464	Cl	0.346311	1.516722	0.375161
Cl465	Cl	-0.153648	1.016634	0.124800
Cl466	Cl	0.346352	1.516634	0.624800
Cl467	Cl	-0.053796	1.016655	0.124799
Cl468	Cl	0.446204	1.516655	0.624799
Cl469	Cl	0.376160	1.016712	-0.819875
Cl470	Cl	0.876160	1.516712	-0.319875
Cl471	Cl	-0.020903	1.016627	0.124814
Cl472	Cl	0.479097	1.516627	0.624814
H473	H	0.354785	1.016731	-0.606549
H474	H	0.854785	1.516731	-0.106549
H475	H	0.532097	1.016776	-0.189981
H476	H	1.032097	1.516776	0.310019
Cl477	Cl	0.337798	1.016749	-0.516498
Cl478	Cl	0.837798	1.516749	-0.016498
H479	H	0.570497	1.016601	-0.606486
H480	H	1.070497	1.516601	-0.106486
Cl481	Cl	0.587458	1.016619	-0.516426
Cl482	Cl	1.087458	1.516619	-0.016426
Cl483	Cl	0.549152	1.016662	-0.719962
Cl484	Cl	1.049152	1.516662	-0.219962
H485	H	0.354767	1.016745	-0.473816
H486	H	0.854767	1.516745	0.026184
Cl487	Cl	0.549163	1.016637	-0.819829
Cl488	Cl	1.049163	1.516637	-0.319829
H489	H	0.570455	1.016679	-0.393496
H490	H	1.070455	1.516679	0.106504
H491	H	0.570466	1.016660	-0.473754
H492	H	1.070466	1.516660	0.026246
