data_functionalizedCrystal
_audit_creation_method	'MofGen! by Chris Wilmer'
_symmetry_space_group_name_H-M	'P1'
_symmetry_Int_Tables_number	1
_symmetry_cell_setting	triclinic
loop_
_symmetry_equiv_pos_as_xyz
  x,y,z
_cell_length_a	10.654549
_cell_length_b	10.723023
_cell_length_c	9.730223
_cell_angle_alpha	89.996605
_cell_angle_beta	89.997731
_cell_angle_gamma	84.476163
loop_
_atom_site_label
_atom_site_type_symbol
_atom_site_fract_x
_atom_site_fract_y
_atom_site_fract_z
O1	O	1.667812	0.175273	-0.114255
O2	O	1.302331	0.191972	-0.114264
O3	O	1.493503	0.002047	-0.114254
O4	O	1.476641	0.365197	-0.114266
O5	O	1.493490	0.002042	0.114326
O6	O	1.302319	0.191967	0.114316
O7	O	1.667800	0.175267	0.114325
Zn8	Zn	1.485058	0.183616	0.150612
Zn9	Zn	1.485074	0.183623	-0.150552
O10	O	1.476629	0.365192	0.114314
C11	C	1.255527	0.190743	0.000024
C12	C	1.116085	0.187075	0.000021
C13	C	1.492270	-0.044455	0.000035
C14	C	1.488599	-0.183010	0.000030
C15	C	0.905553	0.295444	0.000023
C16	C	1.036573	0.298900	0.000015
C17	C	1.064570	0.071787	0.000022
C18	C	0.933552	0.068332	0.000020
C19	C	1.486969	-0.244773	-0.118383
C20	C	1.483175	-0.387977	-0.118390
C21	C	1.714604	0.176496	0.000033
C22	C	1.854047	0.180164	0.000028
C23	C	1.477862	0.411694	0.000023
C24	C	1.481532	0.550249	0.000018
N25	N	1.485056	0.183611	0.356149
N26	N	1.485086	0.183619	-0.356088
C27	C	1.569735	0.099548	0.428079
C28	C	1.569748	0.099548	0.571962
C29	C	1.400397	0.267686	0.571971
C30	C	1.400379	0.267678	0.428091
H31	H	0.840823	0.386505	0.000028
C32	C	1.093224	0.425716	0.000020
N33	N	1.135891	0.521240	0.000027
H34	H	1.129319	-0.019263	0.000018
H35	H	1.488377	-0.191633	-0.219755
H36	H	1.331417	0.336133	0.369521
H37	H	1.331457	0.336133	0.630561
H38	H	1.487178	-0.236149	0.101402
H39	H	0.891616	-0.025548	0.000019
H40	H	1.638700	0.031095	0.630524
C41	C	1.481281	-0.459729	-0.255353
N42	N	1.479852	-0.513776	-0.358517
H43	H	1.638682	0.031093	0.369507
C44	C	1.483423	-0.378006	0.136986
N45	N	1.484844	-0.323959	0.240151
