data_functionalizedCrystal
_audit_creation_method	'MofGen! by Chris Wilmer'
_symmetry_space_group_name_H-M	'P1'
_symmetry_Int_Tables_number	1
_symmetry_cell_setting	triclinic
loop_
_symmetry_equiv_pos_as_xyz
  x,y,z
_cell_length_a	14.519709
_cell_length_b	27.732048
_cell_length_c	13.596369
_cell_angle_alpha	89.989067
_cell_angle_beta	90.000291
_cell_angle_gamma	83.161400
loop_
_atom_site_label
_atom_site_type_symbol
_atom_site_fract_x
_atom_site_fract_y
_atom_site_fract_z
O1	O	1.222766	0.063362	-0.081675
O2	O	0.954159	0.070824	-0.081706
O3	O	1.096805	-0.003264	-0.081671
O4	O	1.080120	0.137450	-0.081710
O5	O	1.096791	-0.003268	0.081912
O6	O	0.954145	0.070820	0.081877
O7	O	1.222752	0.063358	0.081908
Zn8	Zn	1.088446	0.067088	0.107865
Zn9	Zn	1.088465	0.067094	-0.107663
O10	O	1.080106	0.137446	0.081873
C11	C	0.919799	0.070474	0.000082
C12	C	0.817435	0.069432	0.000071
C13	C	0.442606	0.065596	0.000116
C14	C	0.546896	0.066661	0.000103
C15	C	0.630018	0.067514	0.000093
C16	C	0.734314	0.068579	0.000081
C17	C	1.096448	-0.021274	0.000124
C18	C	1.095393	-0.074934	0.000132
C19	C	1.173048	-0.413378	0.000090
C20	C	1.169135	-0.615057	0.000076
O21	O	1.240145	-0.645973	0.000041
N22	N	1.084552	-0.634585	0.000067
C23	C	1.000941	-0.603690	0.000055
O24	O	0.928909	-0.624927	0.000037
C25	C	1.004855	-0.402012	0.000062
C26	C	1.089444	-0.382487	0.000081
C27	C	1.257630	-0.393853	0.000108
C28	C	1.258607	-0.343436	0.000117
C29	C	1.175003	-0.312545	0.000108
C30	C	1.090421	-0.332071	0.000090
C31	C	0.921246	-0.371118	0.000043
C32	C	0.922232	-0.320696	0.000043
C33	C	1.006820	-0.301171	0.000062
C34	C	1.007794	-0.250763	0.000090
N35	N	1.092377	-0.231235	0.000099
C36	C	1.175981	-0.262126	0.000108
C37	C	0.998893	-0.709574	0.000053
C38	C	0.997914	-0.759993	0.000053
C39	C	1.166108	-0.771356	0.000072
C40	C	1.167086	-0.720936	0.000079
C41	C	1.083476	-0.690045	0.000062
C42	C	1.178028	-0.156247	0.000128
C43	C	1.178998	-0.105825	0.000141
C44	C	1.010804	-0.094466	0.000116
C45	C	1.009833	-0.144883	0.000109
C46	C	1.093453	-0.175773	0.000111
O47	O	0.936822	-0.219818	0.000114
O48	O	1.248004	-0.240879	0.000104
C49	C	1.172071	-0.463795	0.000081
C50	C	1.087489	-0.483320	0.000063
C51	C	1.003885	-0.452429	0.000054
C52	C	1.086510	-0.533740	0.000063
C53	C	1.170115	-0.564631	0.000072
C54	C	1.254698	-0.545103	0.000081
C55	C	1.255675	-0.494686	0.000090
C56	C	0.919302	-0.471957	0.000046
C57	C	0.918331	-0.522375	0.000038
C58	C	1.001936	-0.553266	0.000047
C59	C	1.257113	0.063708	0.000119
C60	C	1.359476	0.064750	0.000123
C61	C	1.080464	0.155456	0.000077
C62	C	1.081518	0.209116	0.000062
N63	N	1.088441	0.067085	0.254957
N64	N	1.088478	0.067094	-0.254754
C65	C	1.088464	0.067094	0.656248
C66	C	1.088454	0.067093	0.544596
C67	C	1.088453	0.067090	0.455606
C68	C	1.088442	0.067088	0.343947
H69	H	1.246119	-0.181392	0.000126
C70	C	1.334812	-0.271199	0.000123
C71	C	1.351590	-0.321978	0.000123
H72	H	1.392220	-0.257956	0.000129
H73	H	1.300427	-0.260597	-0.056919
H74	H	1.300422	-0.260608	0.057172
H75	H	1.385973	-0.332570	-0.056930
H76	H	1.385989	-0.332585	0.057170
H77	H	1.234182	-0.796516	0.000080
H78	H	0.849444	-0.538266	0.000031
H79	H	1.247882	-0.089931	0.000158
H80	H	1.324556	-0.478794	0.000105
H81	H	0.929034	-0.775885	0.000055
C82	C	1.423973	-0.400007	0.000145
C83	C	1.349539	-0.427803	0.000126
H84	H	1.480717	-0.420965	0.000168
H85	H	1.420860	-0.380104	-0.056900
H86	H	1.420829	-0.380106	0.057190
H87	H	1.352679	-0.447701	-0.056923
H88	H	1.352654	-0.447715	0.057177
H89	H	1.322771	-0.570263	0.000093
C90	C	0.843679	-0.128584	0.000080
C91	C	0.916854	-0.166348	0.000086
H92	H	0.786278	-0.141834	0.000051
H93	H	0.847549	-0.109168	0.057132
H94	H	0.847579	-0.109144	-0.056959
H95	H	0.912959	-0.185787	0.057129
H96	H	0.912983	-0.185773	-0.056971
H97	H	0.851220	-0.446810	0.000036
H98	H	0.942736	-0.069306	0.000113
C99	C	0.902399	-0.646289	0.084131
C100	C	0.906982	-0.675620	0.000041
H101	H	0.845659	-0.625327	0.084120
H102	H	0.905511	-0.666200	0.141165
H103	H	0.952912	-0.627442	0.084124
H104	H	0.856472	-0.694469	0.000052
H105	H	0.903861	-0.655707	-0.057008
H106	H	0.852365	-0.387006	0.000022
C107	C	1.333236	-0.737244	0.000091
C108	C	1.260067	-0.699477	0.000085
H109	H	1.390640	-0.723997	0.000086
H110	H	1.329350	-0.756674	0.057136
H111	H	1.329346	-0.756670	-0.056955
H112	H	1.263953	-0.680053	0.057135
H113	H	1.263954	-0.680039	-0.056965
C114	C	0.755878	-0.314532	0.000013
C115	C	0.830322	-0.286742	0.000028
H116	H	0.699139	-0.293570	0.000011
H117	H	0.759006	-0.334426	-0.057031
H118	H	0.758997	-0.334442	0.057060
H119	H	0.827207	-0.266834	-0.057023
H120	H	0.827193	-0.266840	0.057077
