data_functionalizedCrystal
_audit_creation_method	'MofGen! by Chris Wilmer'
_symmetry_space_group_name_H-M	'P1'
_symmetry_Int_Tables_number	1
_symmetry_cell_setting	triclinic
loop_
_symmetry_equiv_pos_as_xyz
  x,y,z
_cell_length_a	16.120490
_cell_length_b	19.121063
_cell_length_c	16.120297
_cell_angle_alpha	84.820568
_cell_angle_beta	89.870317
_cell_angle_gamma	89.683840
loop_
_atom_site_label
_atom_site_type_symbol
_atom_site_fract_x
_atom_site_fract_y
_atom_site_fract_z
Zn1	Zn	1.228536	-0.355804	0.551560
Zn2	Zn	1.561869	-0.022471	0.884893
Zn3	Zn	1.895202	0.310862	1.218226
Zn4	Zn	1.229545	-0.467588	0.417851
Zn5	Zn	1.562879	-0.134255	0.751184
Zn6	Zn	1.896212	0.199079	1.084517
Zn7	Zn	1.097156	-0.343933	0.404913
Zn8	Zn	1.430490	-0.010599	0.738246
Zn9	Zn	1.763823	0.322734	1.071579
Zn10	Zn	1.083536	-0.466935	0.549792
Zn11	Zn	1.416869	-0.133601	0.883126
Zn12	Zn	1.750202	0.199732	1.216459
O13	O	1.159693	-0.408565	0.481029
O14	O	1.493027	-0.075232	0.814362
O15	O	1.826360	0.258102	1.147695
O16	O	1.344758	-0.375875	0.539977
O17	O	1.678091	-0.042541	0.873310
O18	O	2.011425	0.290792	1.206644
O19	O	1.218106	-0.446490	0.299544
O20	O	1.551440	-0.113156	0.632877
O21	O	1.884773	0.220177	0.966211
O22	O	1.119862	-0.247249	0.419691
O23	O	1.453195	0.086084	0.753024
O24	O	1.786529	0.419418	1.086358
O25	O	1.345500	-0.458001	0.441742
O26	O	1.678833	-0.124668	0.775075
O27	O	2.012166	0.208665	1.108408
O28	O	1.216386	-0.255971	0.527432
O29	O	1.549719	0.077362	0.860765
O30	O	1.883053	0.410695	1.194098
O31	O	1.120841	-0.355641	0.290039
O32	O	1.454174	-0.022308	0.623372
O33	O	1.787508	0.311026	0.956705
O34	O	0.979261	-0.355007	0.417977
O35	O	1.312595	-0.021674	0.751310
O36	O	1.645928	0.311659	1.084644
O37	O	1.096647	-0.456888	0.666617
O38	O	1.429981	-0.123554	0.999950
O39	O	1.763314	0.209779	1.333284
O40	O	0.969254	-0.445376	0.524419
O41	O	1.302587	-0.112043	0.857753
O42	O	1.635921	0.221290	1.191086
O43	O	1.203178	-0.375241	0.667915
O44	O	1.536512	-0.041908	1.001249
O45	O	1.869845	0.291426	1.334582
O46	O	1.204899	-0.565760	0.440028
O47	O	1.538232	-0.232426	0.773361
O48	O	1.871566	0.100907	1.106694
O49	O	1.097626	-0.565280	0.536965
O50	O	1.430960	-0.231946	0.870298
O51	O	1.764293	0.101387	1.203631
C52	C	0.944157	-0.398833	0.469603
C53	C	1.277491	-0.065500	0.802936
C54	C	1.610824	0.267833	1.136270
C55	C	0.851948	-0.394688	0.464736
C56	C	1.185281	-0.061354	0.798069
C57	C	1.518615	0.271979	1.131402
C58	C	1.149916	-0.590999	0.489728
C59	C	1.483249	-0.257665	0.823061
C60	C	1.816582	0.075668	1.156394
C61	C	1.145807	-0.669049	0.493481
C62	C	1.479140	-0.335716	0.826814
C63	C	1.812474	-0.002383	1.160148
C64	C	0.637106	-0.430063	0.506278
C65	C	0.970439	-0.096730	0.839611
C66	C	1.303773	0.236604	1.172945
C67	C	0.683125	-0.387125	0.455848
C68	C	1.016459	-0.053792	0.789181
C69	C	1.349792	0.279541	1.122515
C70	C	0.777067	-0.391334	0.460795
C71	C	1.110400	-0.058001	0.794128
C72	C	1.443734	0.275332	1.127461
C73	C	0.543156	-0.425855	0.501333
C74	C	0.876489	-0.092522	0.834666
C75	C	1.209822	0.240812	1.167999
C76	C	1.199767	-0.705948	0.444821
C77	C	1.533100	-0.372614	0.778154
C78	C	1.866434	-0.039281	1.111488
C79	C	1.195908	-0.779285	0.448356
C80	C	1.529241	-0.445952	0.781689
C81	C	1.862574	-0.112618	1.115023
C82	C	1.138084	-0.815722	0.500548
C83	C	1.471417	-0.482388	0.833881
C84	C	1.804750	-0.149055	1.167214
C85	C	1.084121	-0.778818	0.549213
C86	C	1.417455	-0.445485	0.882547
C87	C	1.750788	-0.112152	1.215880
C88	C	1.087985	-0.705483	0.545682
C89	C	1.421319	-0.372149	0.879015
C90	C	1.754652	-0.038816	1.212349
C91	C	1.123625	-1.037136	0.513736
C92	C	1.456958	-0.703803	0.847070
C93	C	1.790291	-0.370470	1.180403
C94	C	1.119763	-1.110477	0.517262
C95	C	1.453096	-0.777143	0.850596
C96	C	1.786430	-0.443810	1.183929
C97	C	1.231551	-1.110938	0.416406
C98	C	1.564884	-0.777605	0.749739
C99	C	1.898217	-0.444272	1.083072
C100	C	1.235406	-1.037601	0.412875
C101	C	1.568739	-0.704268	0.746209
C102	C	1.902073	-0.370935	1.079542
C103	C	1.181447	-1.000704	0.461544
C104	C	1.514780	-0.667371	0.794878
C105	C	1.848114	-0.334038	1.128211
C106	C	1.134136	-0.890684	0.504160
C107	C	1.467469	-0.557351	0.837494
C108	C	1.800802	-0.224017	1.170827
C109	C	1.185399	-0.925744	0.457935
C110	C	1.518733	-0.592410	0.791269
C111	C	1.852066	-0.259077	1.124602
C112	C	1.376071	-0.418335	0.492500
C113	C	1.709404	-0.085002	0.825833
C114	C	2.042737	0.248332	1.159166
C115	C	1.468278	-0.422499	0.497388
C116	C	1.801611	-0.089165	0.830721
C117	C	2.134945	0.244168	1.164055
C118	C	1.148281	-0.417316	0.698342
C119	C	1.481614	-0.083982	1.031675
C120	C	1.814948	0.249351	1.365009
C121	C	1.143418	-0.421045	0.790948
C122	C	1.476751	-0.087712	1.124281
C123	C	1.810084	0.245622	1.457615
C124	C	1.169531	-0.225420	0.472315
C125	C	1.502864	0.107913	0.805649
C126	C	1.836197	0.441246	1.138982
C127	C	1.173723	-0.147375	0.468602
C128	C	1.507056	0.185958	0.801935
C129	C	1.840390	0.519291	1.135269
C130	C	1.171112	-0.399800	0.264561
C131	C	1.504445	-0.066466	0.597894
C132	C	1.837778	0.266867	0.931228
C133	C	1.176146	-0.395880	0.171955
C134	C	1.509479	-0.062547	0.505288
C135	C	1.842813	0.270787	0.838621
C136	C	1.134509	-0.427836	0.960498
C137	C	1.467842	-0.094503	1.293831
C138	C	1.801176	0.238830	1.627164
C139	C	1.185052	-0.389090	1.002410
C140	C	1.518386	-0.055757	1.335744
C141	C	1.851719	0.277576	1.669077
C142	C	1.180095	-0.392869	1.096754
C143	C	1.513429	-0.059536	1.430087
C144	C	1.846762	0.273797	1.763420
C145	C	1.139465	-0.424058	0.866146
C146	C	1.472798	-0.090725	1.199479
C147	C	1.806131	0.242608	1.532812
H148	H	0.651971	-0.347205	0.408959
H149	H	0.985305	-0.013871	0.742292
H150	H	1.318638	0.319462	1.075625
H151	H	0.668258	-0.469981	0.553163
H152	H	1.001591	-0.136648	0.886496
H153	H	1.334925	0.196685	1.219830
H154	H	1.282491	-1.007936	0.370377
H155	H	1.615824	-0.674602	0.703710
H156	H	1.949157	-0.341269	1.037044
H157	H	1.087519	-0.463843	0.995467
H158	H	1.420853	-0.130510	1.328800
H159	H	1.754186	0.202823	1.662134
H160	H	1.246850	-0.676285	0.402317
H161	H	1.580183	-0.342952	0.735651
H162	H	1.913516	-0.009619	1.068984
H163	H	1.239847	-0.809324	0.408731
H164	H	1.573180	-0.475991	0.742064
H165	H	1.906514	-0.142658	1.075398
H166	H	1.275482	-1.140988	0.376784
H167	H	1.608816	-0.807654	0.710117
H168	H	1.942149	-0.474321	1.043450
H169	H	1.232046	-0.353080	0.967439
H170	H	1.565379	-0.019747	1.300772
H171	H	1.898712	0.313586	1.634105
H172	H	1.072685	-1.140143	0.559778
H173	H	1.406018	-0.806809	0.893111
H174	H	1.739352	-0.473476	1.226445
H175	H	1.079687	-1.007100	0.553363
H176	H	1.413021	-0.673767	0.886696
H177	H	1.746354	-0.340434	1.220030
H178	H	1.037043	-0.808491	0.591713
H179	H	1.370377	-0.475158	0.925046
H180	H	1.703710	-0.141825	1.258379
H181	H	1.044047	-0.675441	0.585307
H182	H	1.377380	-0.342107	0.918641
H183	H	1.710713	-0.008774	1.251974
H184	H	1.232483	-0.896075	0.415444
H185	H	1.565816	-0.562742	0.748778
H186	H	1.899149	-0.229408	1.082111
H187	H	1.087054	-0.920359	0.546653
H188	H	1.420387	-0.587026	0.879986
H189	H	1.753720	-0.253692	1.213320
