data_functionalizedCrystal
_audit_creation_method	'MofGen! by Chris Wilmer'
_symmetry_space_group_name_H-M	'P1'
_symmetry_Int_Tables_number	1
_symmetry_cell_setting	triclinic
loop_
_symmetry_equiv_pos_as_xyz
  x,y,z
_cell_length_a	14.853569
_cell_length_b	14.853559
_cell_length_c	14.586319
_cell_angle_alpha	89.998399
_cell_angle_beta	89.998466
_cell_angle_gamma	83.633509
loop_
_atom_site_label
_atom_site_type_symbol
_atom_site_fract_x
_atom_site_fract_y
_atom_site_fract_z
O1	O	1.196359	0.117710	-0.076194
O2	O	0.933899	0.131730	-0.076204
O3	O	1.072144	-0.006510	-0.076198
O4	O	1.058115	0.255950	-0.076200
O5	O	1.072134	-0.006512	0.076283
O6	O	0.933890	0.131728	0.076276
O7	O	1.196350	0.117708	0.076287
Cu8	Cu	1.065119	0.124718	0.090204
Cu9	Cu	1.065130	0.124720	-0.090122
O10	O	1.058105	0.255948	0.076281
C11	C	0.900306	0.131094	0.000035
C12	C	0.800222	0.129189	0.000031
C13	C	0.763848	0.046178	0.000028
C14	C	0.742554	0.210411	0.000037
C15	C	0.648520	0.208625	0.000038
C16	C	0.612146	0.125614	0.000035
C17	C	0.669806	0.044389	0.000032
C18	C	0.590853	0.289848	0.000051
C19	C	0.496812	0.288065	0.000053
C20	C	0.460437	0.205053	0.000044
C21	C	0.518103	0.123825	0.000039
C22	C	0.481729	0.040813	0.000037
C23	C	0.539394	-0.040416	0.000026
C24	C	0.633430	-0.038623	0.000023
C25	C	0.366401	0.203260	0.000047
C26	C	0.387687	0.039024	0.000041
C27	C	1.071505	-0.040100	0.000041
C28	C	1.069604	-0.140184	0.000036
C29	C	1.061546	-0.563358	-0.083082
C30	C	1.061535	-0.563355	0.083158
C31	C	1.063328	-0.469322	0.083159
C32	C	1.064229	-0.422302	0.000038
C33	C	1.063336	-0.469316	-0.083084
C34	C	1.064212	-0.422300	0.166280
C35	C	1.066004	-0.328261	0.166284
C36	C	1.066912	-0.281240	0.083162
C37	C	1.066020	-0.328260	0.000036
C38	C	1.066921	-0.281240	-0.083085
C39	C	1.066035	-0.328259	-0.166211
C40	C	1.064244	-0.422295	-0.166206
C41	C	1.068703	-0.187204	0.083157
C42	C	1.068711	-0.187198	-0.083086
C43	C	1.229943	0.118345	0.000046
C44	C	1.330027	0.120249	0.000044
C45	C	1.058744	0.289538	0.000040
C46	C	1.060645	0.389622	0.000039
N47	N	1.065117	0.124716	0.217036
N48	N	1.065139	0.124715	-0.216954
C49	C	1.126352	0.063523	0.452046
C50	C	1.126355	0.063521	0.548027
C51	C	1.003897	0.185911	0.548030
C52	C	1.003891	0.185908	0.452051
C53	C	1.065124	0.124715	0.404061
C54	C	1.065132	0.124716	0.596022
C55	C	1.065135	0.124714	0.700089
C56	C	1.065120	0.124716	0.299987
H57	H	0.620476	0.357431	0.000059
N58	N	1.192402	-0.002470	0.599782
H59	H	1.232353	0.032064	0.639599
H60	H	1.157847	-0.042437	0.639558
N61	N	0.937861	0.251907	0.599799
H62	H	0.972363	0.291889	0.639613
H63	H	0.899084	0.290610	0.554779
N64	N	0.500164	-0.129950	0.000020
H65	H	0.521186	-0.165545	0.056541
H66	H	0.431849	-0.118681	-0.000006
H67	H	0.810803	-0.019956	0.000015
N68	N	1.069669	-0.136494	0.172803
H69	H	1.070945	-0.069788	0.160191
H70	H	1.013508	-0.145687	0.209098
N71	N	1.192371	-0.002498	0.400286
H72	H	1.183076	0.006780	0.332201
H73	H	1.256343	0.008016	0.417050
N74	N	0.434597	0.375654	0.000064
H75	H	0.395111	0.378547	0.056593
H76	H	0.471949	0.428479	0.000035
H77	H	1.060828	-0.601645	-0.150761
N78	N	0.304206	0.290859	0.000072
H79	H	0.341518	0.343717	0.000080
H80	H	0.264722	0.293707	-0.056452
N81	N	1.069691	-0.136487	-0.172740
H82	H	1.068859	-0.180544	-0.225394
H83	H	1.014589	-0.090232	-0.176368
N84	N	1.060573	-0.614069	0.172804
H85	H	1.005044	-0.590469	0.209148
H86	H	1.059338	-0.680762	0.160110
N87	N	0.937841	0.251903	0.400288
H88	H	0.899054	0.290672	0.445252
H89	H	0.972395	0.291821	0.360455
N90	N	1.063262	-0.472993	-0.255862
H91	H	1.119413	-0.463875	-0.292210
H92	H	1.061946	-0.539679	-0.243181
N93	N	1.063261	-0.473013	0.255926
H94	H	1.062007	-0.539721	0.243312
H95	H	1.119424	-0.463805	0.292208
H96	H	0.358079	-0.028574	0.000034
H97	H	0.772176	0.277995	0.000045
N98	N	0.695623	-0.126228	0.000017
H99	H	0.760713	-0.112496	0.000022
H100	H	0.683832	-0.162400	0.056544
N101	N	1.066977	-0.277556	0.255937
H102	H	1.068252	-0.210850	0.243326
H103	H	1.010819	-0.286749	0.292236
H104	H	1.066762	-0.289962	-0.233888
