data_functionalizedCrystal
_audit_creation_method	'MofGen! by Chris Wilmer'
_symmetry_space_group_name_H-M	'P1'
_symmetry_Int_Tables_number	1
_symmetry_cell_setting	triclinic
loop_
_symmetry_equiv_pos_as_xyz
  x,y,z
_cell_length_a	14.044220
_cell_length_b	14.044220
_cell_length_c	13.101039
_cell_angle_alpha	86.340132
_cell_angle_beta	86.332523
_cell_angle_gamma	86.811122
loop_
_atom_site_label
_atom_site_type_symbol
_atom_site_fract_x
_atom_site_fract_y
_atom_site_fract_z
O1	O	0.225348	-1.281968	0.085109
O2	O	0.558682	-0.948635	0.418442
O3	O	0.892015	-0.615302	0.751776
O4	O	0.217041	-1.005298	0.085135
O5	O	0.550374	-0.671965	0.418468
O6	O	0.883708	-0.338632	0.751802
O7	O	0.082860	-1.139480	0.085112
O8	O	0.416193	-0.806147	0.418446
O9	O	0.749526	-0.472813	0.751779
O10	O	0.359530	-1.147787	0.085132
O11	O	0.692863	-0.814454	0.418465
O12	O	1.026197	-0.481120	0.751798
O13	O	0.092504	-1.129854	-0.085316
O14	O	0.425838	-0.796521	0.248017
O15	O	0.759171	-0.463188	0.581351
O16	O	0.226686	-0.995673	-0.085293
O17	O	0.560019	-0.662339	0.248040
O18	O	0.893353	-0.329006	0.581373
O19	O	0.234993	-1.272343	-0.085319
O20	O	0.568326	-0.939009	0.248014
O21	O	0.901660	-0.605676	0.581348
Zn22	Zn	0.232371	-1.132479	-0.112365
Zn23	Zn	0.565704	-0.799146	0.220968
Zn24	Zn	0.899037	-0.465813	0.554301
Zn25	Zn	0.219663	-1.145162	0.112181
Zn26	Zn	0.552997	-0.811828	0.445515
Zn27	Zn	0.886330	-0.478495	0.778848
O28	O	0.369175	-1.138161	-0.085296
O29	O	0.702508	-0.804828	0.248037
O30	O	1.035841	-0.471494	0.581370
C31	C	0.052060	-1.131031	-0.000102
C32	C	0.385393	-0.797698	0.333231
C33	C	0.718727	-0.464365	0.666565
C34	C	-0.054083	-1.120187	-0.000102
C35	C	0.279251	-0.786854	0.333231
C36	C	0.612584	-0.453520	0.666565
C37	C	0.218228	-0.964864	-0.000076
C38	C	0.551561	-0.631531	0.333257
C39	C	0.884894	-0.298197	0.666591
C40	C	0.207383	-0.858722	-0.000066
C41	C	0.540716	-0.525388	0.333267
C42	C	0.874049	-0.192055	0.666600
C43	C	0.233806	-1.312777	-0.000106
C44	C	0.567140	-0.979444	0.333227
C45	C	0.900473	-0.646111	0.666561
C46	C	0.244651	-1.418920	-0.000109
C47	C	0.577984	-1.085587	0.333225
C48	C	0.911318	-0.752253	0.666558
C49	C	-0.248421	-1.100362	-0.000086
C50	C	0.084912	-0.767028	0.333248
C51	C	0.418245	-0.433695	0.666581
C52	C	-0.299551	-1.177276	-0.000090
C53	C	0.033782	-0.843942	0.333244
C54	C	0.367116	-0.510609	0.666577
C55	C	-0.407688	-1.166245	-0.000080
C56	C	-0.074354	-0.832911	0.333253
C57	C	0.258979	-0.499578	0.666586
C58	C	-0.140275	-1.111391	-0.000095
C59	C	0.193059	-0.778058	0.333239
C60	C	0.526392	-0.444725	0.666572
C61	C	0.399974	-1.146610	-0.000080
C62	C	0.733307	-0.813276	0.333253
C63	C	1.066641	-0.479943	0.666587
C64	C	0.506116	-1.157455	-0.000073
C65	C	0.839450	-0.824121	0.333260
C66	C	1.172783	-0.490788	0.666594
N67	N	0.241043	-1.123831	-0.265612
N68	N	0.574377	-0.790497	0.067721
N69	N	0.907710	-0.457164	0.401054
C70	C	0.187558	-0.664383	-0.000088
C71	C	0.520891	-0.331049	0.333245
C72	C	0.854224	0.002284	0.666579
C73	C	0.264472	-0.613253	-0.000087
C74	C	0.597805	-0.279920	0.333246
C75	C	0.931139	0.053414	0.666580
C76	C	0.253441	-0.505116	-0.000099
C77	C	0.586774	-0.171783	0.333234
C78	C	0.920108	0.161551	0.666568
C79	C	0.198587	-0.772529	-0.000076
C80	C	0.531920	-0.439196	0.333257
C81	C	0.865254	-0.105863	0.666591
C82	C	0.252851	-1.112065	-0.474653
C83	C	0.586185	-0.778731	-0.141320
C84	C	0.919518	-0.445398	0.192014
C85	C	0.199179	-1.165580	-0.525538
C86	C	0.532512	-0.832247	-0.192204
C87	C	0.865846	-0.498914	0.141129
C88	C	0.205749	-1.159034	-0.641855
C89	C	0.539082	-0.825700	-0.308522
C90	C	0.872416	-0.492367	0.024812
C91	C	0.246282	-1.118610	-0.358325
C92	C	0.579616	-0.785277	-0.024992
C93	C	0.912949	-0.451944	0.308342
N94	N	0.210984	-1.153817	0.265428
N95	N	0.544317	-0.820484	0.598762
N96	N	0.877651	-0.487151	0.932095
H97	H	-0.262115	-1.251413	-0.000028
H98	H	0.071218	-0.918079	0.333306
H99	H	0.404551	-0.584746	0.666639
H100	H	0.338605	-0.650693	-0.000077
H101	H	0.671938	-0.317359	0.333256
H102	H	1.005271	0.015974	0.666590
C103	C	0.087416	-0.613812	-0.000089
C104	C	0.420750	-0.280479	0.333245
C105	C	0.754083	0.052854	0.666578
H106	H	0.093047	-0.546714	-0.000085
H107	H	0.426380	-0.213380	0.333249
H108	H	0.759714	0.119953	0.666582
H109	H	0.057067	-0.628404	-0.059516
H110	H	0.390400	-0.295071	0.273817
H111	H	0.723734	0.038263	0.607151
H112	H	0.050359	-0.635103	0.059356
H113	H	0.383692	-0.301770	0.392689
H114	H	0.717026	0.031563	0.726022
H115	H	0.148295	-1.216314	-0.481744
H116	H	0.481628	-0.882981	-0.148411
H117	H	0.814962	-0.549647	0.184923
C118	C	0.321568	-1.043511	-0.533802
C119	C	0.654901	-0.710177	-0.200468
C120	C	0.988235	-0.376844	0.132865
H121	H	0.354372	-1.010781	-0.486582
H122	H	0.687705	-0.677447	-0.153249
H123	H	1.021038	-0.344114	0.180085
H124	H	0.366503	-1.078945	-0.575668
H125	H	0.699836	-0.745612	-0.242334
H126	H	1.033169	-0.412279	0.090999
H127	H	0.286208	-0.998493	-0.575645
H128	H	0.619541	-0.665159	-0.242311
H129	H	0.952875	-0.331826	0.091022
C130	C	-0.298992	-1.000220	-0.000085
C131	C	0.034342	-0.666887	0.333249
C132	C	0.367675	-0.333554	0.666582
H133	H	-0.366090	-1.005851	-0.000091
H134	H	-0.032757	-0.672518	0.333243
H135	H	0.300577	-0.339184	0.666576
H136	H	-0.284409	-0.969864	0.059344
H137	H	0.048924	-0.636531	0.392677
H138	H	0.382257	-0.303197	0.726011
H139	H	-0.277691	-0.963170	-0.059528
H140	H	0.055642	-0.629837	0.273806
H141	H	0.388975	-0.296503	0.607139
