data_functionalizedCrystal
_audit_creation_method	'MofGen! by Chris Wilmer'
_symmetry_space_group_name_H-M	'P1'
_symmetry_Int_Tables_number	1
_symmetry_cell_setting	triclinic
loop_
_symmetry_equiv_pos_as_xyz
  x,y,z
_cell_length_a	23.532407
_cell_length_b	19.288865
_cell_length_c	18.366186
_cell_angle_alpha	90.011479
_cell_angle_beta	89.988493
_cell_angle_gamma	97.007538
loop_
_atom_site_label
_atom_site_type_symbol
_atom_site_fract_x
_atom_site_fract_y
_atom_site_fract_z
O1	O	0.755438	-0.084319	-0.060599
O2	O	0.589600	-0.096519	-0.060592
O3	O	0.677311	0.010726	-0.060581
O4	O	0.667727	-0.191564	-0.060610
O5	O	0.677296	0.010731	0.060518
O6	O	0.589585	-0.096514	0.060507
O7	O	0.755423	-0.084314	0.060501
Zn8	Zn	0.672502	-0.090413	0.079731
Zn9	Zn	0.672521	-0.090420	-0.079823
O10	O	0.667712	-0.191559	0.060490
C11	C	0.568376	-0.096206	-0.000042
C12	C	0.505157	-0.095272	-0.000039
C13	C	0.676995	0.036604	-0.000029
C14	C	0.676069	0.113705	-0.000023
C15	C	0.776647	-0.084627	-0.000052
C16	C	0.839866	-0.085561	-0.000059
C17	C	1.238850	-0.027954	-0.000026
C18	C	1.298252	-0.028822	-0.000023
O19	O	1.334886	0.024580	0.000011
N20	N	1.321010	-0.092579	-0.000034
C21	C	1.284363	-0.155473	-0.000041
O22	O	1.309175	-0.209783	-0.000049
C23	C	1.224962	-0.154604	-0.000039
C24	C	1.202207	-0.090843	-0.000035
C25	C	1.216094	0.035802	-0.000022
C26	C	1.156696	0.036669	-0.000026
C27	C	1.120054	-0.026220	-0.000035
C28	C	1.142809	-0.089976	-0.000040
C29	C	1.188316	-0.217497	-0.000040
C30	C	1.128912	-0.216623	-0.000038
C31	C	1.106157	-0.152862	-0.000034
C32	C	1.046769	-0.151997	-0.000053
N33	N	1.024011	-0.088240	-0.000042
C34	C	1.060653	-0.025351	-0.000033
C35	C	1.409109	-0.157292	-0.000044
C36	C	1.468509	-0.158161	-0.000051
C37	C	1.482394	-0.031510	-0.000032
C38	C	1.422993	-0.030641	-0.000030
C39	C	1.386351	-0.093535	-0.000033
C40	C	0.935913	-0.023534	-0.000043
C41	C	0.876509	-0.022672	-0.000050
C42	C	0.862629	-0.149323	-0.000066
C43	C	0.922028	-0.150185	-0.000062
C44	C	0.958669	-0.087285	-0.000048
O45	O	1.010100	-0.205371	-0.000084
O46	O	1.035833	0.028950	-0.000015
C47	C	0.668028	-0.217437	-0.000064
C48	C	0.668954	-0.294538	-0.000075
N49	N	0.672493	-0.090408	0.188622
C50	C	0.727534	0.158560	-0.000021
C51	C	0.726664	0.231004	-0.000033
C52	C	0.674327	0.258590	-0.000031
C53	C	0.622855	0.213725	-0.000037
C54	C	0.623727	0.141283	-0.000033
C55	C	0.633179	0.366753	0.042389
C56	C	0.632310	0.439194	0.042389
C57	C	0.671638	0.482028	-0.000048
C58	C	0.711845	0.452412	-0.042475
C59	C	0.712716	0.379969	-0.042471
C60	C	0.673377	0.337141	-0.000036
C61	C	0.722163	0.605436	-0.000059
C62	C	0.721292	0.677881	-0.000075
C63	C	0.617481	0.660601	-0.000072
C64	C	0.618354	0.588157	-0.000064
C65	C	0.670697	0.560579	-0.000054
N66	N	0.672535	-0.090420	-0.188714
C67	C	0.711344	-0.042943	0.226727
C68	C	0.711347	-0.042940	0.302955
C69	C	0.672505	-0.090414	0.341075
C70	C	0.633647	-0.137882	0.302960
C71	C	0.633640	-0.137880	0.226734
C72	C	0.664881	-0.153725	0.461826
C73	C	0.664892	-0.153729	0.538051
C74	C	0.672521	-0.090422	0.576182
C75	C	0.680153	-0.027109	0.538079
C76	C	0.680147	-0.027107	0.461853
C77	C	0.672507	-0.090422	0.423730
C78	C	0.711378	-0.042950	0.696943
C79	C	0.711378	-0.042946	0.773172
C80	C	0.633680	-0.137895	0.773176
C81	C	0.633678	-0.137893	0.696948
C82	C	0.672530	-0.090421	0.658836
H83	H	0.965739	0.027685	-0.000032
H84	H	0.580242	0.236191	-0.000037
H85	H	0.743014	-0.004291	0.804198
H86	H	0.768575	0.267532	-0.000034
H87	H	0.764784	0.582981	-0.000055
H88	H	1.404471	0.021279	-0.000026
N89	N	0.568212	0.092905	-0.000023
H90	H	0.566256	0.062478	0.044873
H91	H	0.566295	0.062495	-0.044940
H92	H	1.138175	0.088590	-0.000020
N93	N	0.656655	-0.222012	0.420707
H94	H	0.691229	-0.225914	0.389066
H95	H	0.621377	-0.223709	0.389135
H96	H	1.512239	0.019698	-0.000025
N97	N	0.753279	0.008250	0.655829
H98	H	0.777889	0.038324	0.691539
H99	H	0.731555	0.038822	0.624216
H100	H	1.487030	-0.210082	-0.000065
N101	N	0.756077	0.348024	-0.088229
H102	H	0.780862	0.386146	-0.115114
H103	H	0.735484	0.314471	-0.124464
H104	H	1.379278	-0.208510	-0.000052
N105	N	0.591736	-0.189083	0.185637
H106	H	0.613415	-0.219704	0.153996
H107	H	0.566598	-0.162646	0.154068
N108	N	0.851969	0.046103	-0.000035
H109	H	0.808778	0.037114	-0.000039
H110	H	0.865394	0.073604	-0.044922
N111	N	0.591781	-0.189095	0.814279
H112	H	0.597678	-0.181894	0.868351
H113	H	0.598228	-0.238331	0.800941
N114	N	0.754270	0.498599	-0.088248
H115	H	0.747617	0.548985	-0.081817
H116	H	0.749105	0.485035	-0.141166
H117	H	1.206832	-0.269419	-0.000047
N118	N	0.590754	0.320556	0.088158
H119	H	0.565155	0.350309	0.115038
H120	H	0.612068	0.293995	0.124398
H121	H	0.742978	-0.004287	0.195699
H122	H	1.099080	-0.267840	-0.000037
H123	H	0.770156	0.136111	-0.000016
N124	N	0.688394	0.041173	0.579201
H125	H	0.726649	0.067754	0.565928
H126	H	0.687212	0.031501	0.633257
H127	H	0.602044	-0.176546	0.665920
H128	H	0.742985	-0.004287	0.333986
N129	N	0.688375	0.041174	0.420754
H130	H	0.693210	0.081281	0.456471
H131	H	0.653786	0.045015	0.389142
N132	N	1.255611	0.103638	-0.000006
H133	H	1.232173	0.144152	-0.000002
H134	H	1.280565	0.106040	-0.044900
N135	N	0.946576	-0.218953	-0.000069
H136	H	0.970923	-0.222141	-0.044957
H137	H	0.914316	-0.258621	-0.000051
N138	N	0.823102	-0.217151	-0.000079
H139	H	0.782021	-0.206920	-0.000077
H140	H	0.830443	-0.244951	0.044813
H141	H	0.763202	0.714402	-0.000078
N142	N	0.656658	-0.222012	0.579146
H143	H	0.651814	-0.262115	0.543425
H144	H	0.621410	-0.223674	0.610784
H145	H	0.602020	-0.176535	0.334001
H146	H	0.599568	0.463301	0.076932
H147	H	0.574867	0.683060	-0.000075
H148	H	0.576446	0.551635	-0.000061
