data_functionalizedCrystal
_audit_creation_method	'MofGen! by Chris Wilmer'
_symmetry_space_group_name_H-M	'P1'
_symmetry_Int_Tables_number	1
_symmetry_cell_setting	triclinic
loop_
_symmetry_equiv_pos_as_xyz
  x,y,z
_cell_length_a	10.540535
_cell_length_b	13.596369
_cell_length_c	14.519709
_cell_angle_alpha	89.993066
_cell_angle_beta	95.898106
_cell_angle_gamma	90.002927
loop_
_atom_site_label
_atom_site_type_symbol
_atom_site_fract_x
_atom_site_fract_y
_atom_site_fract_z
O1	O	1.684565	0.081740	-0.129949
O2	O	2.017899	0.415073	0.203384
O3	O	2.351232	0.748407	0.536717
O4	O	1.315027	0.081754	-0.142199
O5	O	1.648360	0.415087	0.191134
O6	O	1.981693	0.748421	0.524467
O7	O	1.509594	0.081738	-0.001889
O8	O	1.842927	0.415071	0.331445
O9	O	2.176260	0.748404	0.664778
O10	O	1.489998	0.081756	-0.270260
O11	O	1.823331	0.415090	0.063073
O12	O	2.156665	0.748423	0.396407
O13	O	1.509574	-0.081845	-0.001881
O14	O	1.842908	0.251488	0.331452
O15	O	2.176241	0.584822	0.664786
O16	O	1.315007	-0.081829	-0.142192
O17	O	1.648340	0.251504	0.191142
O18	O	1.981674	0.584838	0.524475
O19	O	1.684546	-0.081843	-0.129942
O20	O	2.017879	0.251490	0.203392
O21	O	2.351213	0.584824	0.536725
Zn22	Zn	1.499773	-0.107808	-0.136065
Zn23	Zn	1.833107	0.225525	0.197268
Zn24	Zn	2.166440	0.558858	0.530601
Zn25	Zn	1.499799	0.107719	-0.136076
Zn26	Zn	1.833132	0.441053	0.197258
Zn27	Zn	2.166466	0.774386	0.530591
O28	O	1.489979	-0.081827	-0.270252
O29	O	1.823312	0.251507	0.063081
O30	O	2.156645	0.584840	0.396414
C31	C	1.267723	-0.000036	-0.141278
C32	C	1.601056	0.333298	0.192056
C33	C	1.934390	0.666631	0.525389
C34	C	1.126803	-0.000031	-0.138532
C35	C	1.460136	0.333303	0.194801
C36	C	1.793469	0.666636	0.528135
N37	N	1.499765	-0.254900	-0.136058
N38	N	1.833099	0.078433	0.197275
N39	N	2.166432	0.411767	0.530609
C40	C	1.499797	-0.656191	-0.136076
C41	C	1.833131	-0.322858	0.197257
C42	C	2.166464	0.010476	0.530590
C43	C	1.499785	-0.544540	-0.136074
C44	C	1.833118	-0.211206	0.197259
C45	C	2.166451	0.122127	0.530592
C46	C	1.499782	-0.455549	-0.136068
C47	C	1.833115	-0.122216	0.197265
C48	C	2.166449	0.211118	0.530599
C49	C	1.499768	-0.343891	-0.136065
C50	C	1.833101	-0.010557	0.197269
C51	C	2.166435	0.322776	0.530602
C52	C	1.091178	-0.000042	-0.036088
C53	C	1.424511	0.333292	0.297245
C54	C	1.757845	0.666625	0.630579
C55	C	0.944607	-0.000423	-0.033198
C56	C	1.277940	0.332910	0.300135
C57	C	1.611274	0.666244	0.633468
C58	C	0.916978	-0.093271	-0.185291
C59	C	1.250312	0.240062	0.148042
C60	C	1.583645	0.573395	0.481375
C61	C	1.063722	-0.093340	-0.187471
C62	C	1.397055	0.239994	0.145862
C63	C	1.730388	0.573327	0.479196
C64	C	1.063612	0.092691	-0.188970
C65	C	1.396946	0.426025	0.144363
C66	C	1.730279	0.759358	0.477696
C67	C	0.917315	0.093907	-0.184233
C68	C	1.250648	0.427240	0.149101
C69	C	1.583981	0.760573	0.482434
C70	C	1.731849	-0.000051	-0.130863
C71	C	2.065183	0.333282	0.202470
C72	C	2.398516	0.666616	0.535803
C73	C	1.872770	-0.000050	-0.133609
C74	C	2.206103	0.333284	0.199724
C75	C	2.539436	0.666617	0.533058
C76	C	1.508671	-0.000054	0.032480
C77	C	1.842004	0.333279	0.365813
C78	C	2.175337	0.666613	0.699147
C79	C	1.505934	-0.000054	0.134876
C80	C	1.839267	0.333279	0.468209
C81	C	2.172601	0.666612	0.801543
N82	N	1.499817	0.254811	-0.136076
N83	N	1.833151	0.588144	0.197258
N84	N	2.166484	0.921478	0.530591
C85	C	1.490902	-0.000033	-0.304621
C86	C	1.824235	0.333300	0.028712
C87	C	2.157568	0.666634	0.362046
C88	C	1.493638	-0.000026	-0.407017
C89	C	1.826972	0.333307	-0.073684
C90	C	2.160305	0.666641	0.259650
C91	C	1.495859	-0.000028	0.509826
C92	C	1.829193	0.333305	0.843159
C93	C	2.162526	0.666638	1.176493
C94	C	1.498657	-0.000036	0.405503
C95	C	1.831990	0.333297	0.738836
C96	C	2.165324	0.666631	1.072170
C97	C	1.500896	-0.000042	0.322354
C98	C	1.834230	0.333291	0.655688
C99	C	2.167563	0.666624	0.989021
C100	C	1.503695	-0.000048	0.218025
C101	C	1.837028	0.333285	0.551358
C102	C	2.170361	0.666619	0.884691
H103	H	0.915690	0.066388	0.007221
H104	H	1.249023	0.399722	0.340554
H105	H	1.582357	0.733055	0.673887
H106	H	1.106406	0.163375	-0.157007
H107	H	1.439739	0.496708	0.176326
H108	H	1.773073	0.830042	0.509660
C109	C	1.148456	0.090237	0.017066
C110	C	1.481790	0.423571	0.350399
C111	C	1.815123	0.756904	0.683732
H112	H	1.194615	0.128746	-0.022738
H113	H	1.527949	0.462079	0.310595
H114	H	1.861282	0.795413	0.643928
H115	H	1.081794	0.128636	0.037973
H116	H	1.415128	0.461970	0.371306
H117	H	1.748461	0.795303	0.704640
H118	H	1.204336	0.069018	0.068753
H119	H	1.537669	0.402351	0.402087
H120	H	1.871003	0.735685	0.735420
H121	H	0.868867	-0.096470	-0.259222
H122	H	1.202200	0.236863	0.074112
H123	H	1.535534	0.570196	0.407445
C124	C	0.906702	-0.091243	0.021134
C125	C	1.240035	0.242090	0.354467
C126	C	1.573369	0.575424	0.687800
H127	H	0.980925	-0.128054	0.041516
H128	H	1.314258	0.205280	0.374850
H129	H	1.647592	0.538613	0.708183
H130	H	0.865897	-0.070611	0.073212
H131	H	1.199230	0.262723	0.406545
H132	H	1.532564	0.596056	0.739879
H133	H	0.849912	-0.131111	-0.017820
H134	H	1.183246	0.202223	0.315513
H135	H	1.516579	0.535556	0.648846
C136	C	0.850086	0.101895	-0.283244
C137	C	1.183419	0.435228	0.050089
C138	C	1.516752	0.768562	0.383423
H139	H	0.793726	0.047789	-0.295059
H140	H	1.127059	0.381122	0.038274
H141	H	1.460392	0.714455	0.371607
H142	H	0.803043	0.161538	-0.289389
H143	H	1.136377	0.494872	0.043945
H144	H	1.469710	0.828205	0.377278
H145	H	0.912023	0.101262	-0.326375
H146	H	1.245356	0.434595	0.006958
H147	H	1.578689	0.767929	0.340292
C148	C	1.092555	0.093929	-0.290787
C149	C	1.425889	0.427262	0.042546
C150	C	1.759222	0.760595	0.375879
H151	H	1.142899	0.038245	-0.302539
H152	H	1.476232	0.371579	0.030794
H153	H	1.809565	0.704912	0.364127
H154	H	1.014820	0.092025	-0.330144
H155	H	1.348153	0.425358	0.003189
H156	H	1.681487	0.758692	0.336522
H157	H	1.137835	0.152273	-0.302484
H158	H	1.471169	0.485606	0.030849
H159	H	1.804502	0.818940	0.364182
H160	H	1.135023	-0.066800	0.002596
H161	H	1.468356	0.266534	0.335929
H162	H	1.801689	0.599867	0.669263
C163	C	1.118469	-0.187836	-0.140303
C164	C	1.451802	0.145497	0.193031
C165	C	1.785135	0.478831	0.526364
H166	H	1.050995	-0.225819	-0.119988
H167	H	1.384328	0.107514	0.213346
H168	H	1.717662	0.440847	0.546679
H169	H	1.161062	-0.225028	-0.183178
H170	H	1.494395	0.108305	0.150155
H171	H	1.827729	0.441639	0.483489
H172	H	1.177109	-0.170954	-0.088622
H173	H	1.510442	0.162379	0.244711
H174	H	1.843775	0.495712	0.578044
H175	H	1.085985	-0.097318	-0.262570
H176	H	1.419319	0.236015	0.070763
H177	H	1.752652	0.569349	0.404096
H178	H	0.886430	-0.162919	-0.149827
H179	H	1.219763	0.170414	0.183506
H180	H	1.553097	0.503747	0.516840
C181	C	0.879193	0.187078	-0.133436
C182	C	1.212526	0.520411	0.199897
C183	C	1.545860	0.853745	0.533231
H184	H	0.836302	0.168805	-0.081595
H185	H	1.169635	0.502139	0.251738
H186	H	1.502969	0.835472	0.585071
H187	H	0.953541	0.223684	-0.112958
H188	H	1.286875	0.557017	0.220375
H189	H	1.620208	0.890350	0.553709
H190	H	0.824185	0.226218	-0.174418
H191	H	1.157519	0.559551	0.158915
H192	H	1.490852	0.892884	0.492249
