data_functionalizedCrystal
_audit_creation_method	'MofGen! by Chris Wilmer'
_symmetry_space_group_name_H-M	'P1'
_symmetry_Int_Tables_number	1
_symmetry_cell_setting	triclinic
loop_
_symmetry_equiv_pos_as_xyz
  x,y,z
_cell_length_a	21.295417
_cell_length_b	10.686220
_cell_length_c	10.686551
_cell_angle_alpha	89.691918
_cell_angle_beta	85.587790
_cell_angle_gamma	85.587318
loop_
_atom_site_label
_atom_site_type_symbol
_atom_site_fract_x
_atom_site_fract_y
_atom_site_fract_z
Zn1	Zn	-0.153473	-1.972201	-0.562351
Zn2	Zn	-0.267413	-1.955908	-0.352566
Zn3	Zn	-0.169576	-1.746311	-0.368665
Zn4	Zn	-0.266137	-1.762339	-0.578344
O5	O	-0.214150	-1.859190	-0.465482
O6	O	-0.162382	-2.145585	-0.521092
O7	O	-0.261708	-1.914578	-0.179155
O8	O	-0.079345	-1.776387	-0.394402
O9	O	-0.246093	-2.133615	-0.366964
O10	O	-0.067514	-1.942347	-0.536702
O11	O	-0.189828	-1.760588	-0.190982
O12	O	-0.188591	-1.572892	-0.409910
O13	O	-0.243919	-1.803704	-0.751770
O14	O	-0.259534	-1.584668	-0.563960
O15	O	-0.161145	-1.957889	-0.740020
O16	O	-0.355339	-1.930120	-0.382472
O17	O	-0.354402	-1.787905	-0.548351
C18	C	-0.377710	-1.859020	-0.465425
C19	C	-0.447676	-1.859065	-0.465434
C20	C	-0.225672	-1.533263	-0.490418
C21	C	-0.230615	-1.393832	-0.501116
C22	C	-0.202583	-2.186390	-0.440448
C23	C	-0.197654	-2.325823	-0.429781
C24	C	-0.481004	-1.933194	-0.379138
C25	C	-0.546743	-1.933255	-0.379161
C26	C	-0.579154	-1.859164	-0.465470
C27	C	-0.545817	-1.785031	-0.551782
C28	C	-0.480079	-1.784982	-0.551764
N29	N	-0.685908	-1.750160	-0.483429
N30	N	-0.748357	-1.750210	-0.483439
C31	C	-0.777220	-1.859310	-0.465531
N32	N	-0.741276	-1.968359	-0.447588
N33	N	-0.678822	-1.968308	-0.447572
C34	C	-0.650436	-1.859210	-0.465499
C35	C	-0.881830	-1.933511	-0.379256
C36	C	-0.947570	-1.933575	-0.379288
C37	C	-0.946643	-1.785339	-0.551903
C38	C	-0.880904	-1.785287	-0.551876
C39	C	-0.848502	-1.859371	-0.465546
C40	C	-0.049948	-1.859397	-0.465564
C41	C	0.020024	-1.859485	-0.465599
C42	C	-0.200593	-1.884402	-0.792685
C43	C	-0.194816	-1.895146	-0.932120
C44	C	-0.227606	-1.834148	-0.139546
C45	C	-0.233197	-1.823647	-0.000093
H46	H	-0.454624	-1.993521	-0.308846
H47	H	-0.157537	-1.964589	-0.980602
H48	H	-0.262621	-1.345382	-0.570371
H49	H	-0.270478	-1.754217	-0.951617
H50	H	-0.573884	-1.993624	-0.308889
H51	H	-0.165655	-1.374266	-0.360523
H52	H	-0.452942	-1.724616	-0.622038
Cl53	Cl	-0.586560	-1.691894	-0.660289
H54	H	-0.855447	-1.993839	-0.308964
H55	H	-0.973031	-1.725019	-0.622182
Cl56	Cl	-0.989468	-2.026784	-0.270800
H57	H	-0.853767	-1.724919	-0.622141
