data_functionalizedCrystal
_audit_creation_method	'MofGen! by Chris Wilmer'
_symmetry_space_group_name_H-M	'P1'
_symmetry_Int_Tables_number	1
_symmetry_cell_setting	triclinic
loop_
_symmetry_equiv_pos_as_xyz
  x,y,z
_cell_length_a	15.944551
_cell_length_b	12.837932
_cell_length_c	11.295483
_cell_angle_alpha	85.460332
_cell_angle_beta	94.094426
_cell_angle_gamma	89.164220
loop_
_atom_site_label
_atom_site_type_symbol
_atom_site_fract_x
_atom_site_fract_y
_atom_site_fract_z
O1	O	0.213272	1.382453	-0.099033
O2	O	0.202483	1.080646	-0.099034
O3	O	0.086263	1.239790	-0.099023
O4	O	0.329492	1.223309	-0.099045
O5	O	0.096453	1.225812	0.099027
O6	O	0.212674	1.066668	0.099015
O7	O	0.223462	1.368475	0.099017
Cu8	Cu	0.218998	1.216295	0.117100
Cu9	Cu	0.206947	1.232826	-0.117117
O10	O	0.339683	1.209331	0.099005
C11	C	0.203934	1.035036	-0.000010
C12	C	0.193066	0.919958	-0.000010
C13	C	0.102226	0.770109	0.000000
C14	C	0.112432	0.878236	-0.000001
C15	C	0.263498	0.853546	-0.000014
C16	C	0.253292	0.745419	-0.000012
C17	C	0.172653	0.703705	-0.000007
C18	C	0.162447	0.595576	-0.000014
C19	C	0.313513	0.570888	-0.000019
C20	C	0.323719	0.679014	-0.000020
C21	C	0.060009	1.232117	0.000002
C22	C	-0.033401	1.230066	0.000003
C23	C	-0.256543	1.126518	-0.000014
C24	C	-0.308688	1.167710	0.097637
C25	C	-0.204424	1.226355	-0.000006
C26	C	-0.318717	1.181515	-0.097625
C27	C	-0.369625	1.222764	-0.000020
C28	C	-0.255336	1.267569	0.097725
C29	C	-0.265364	1.281366	-0.097624
C30	C	-0.317485	1.322630	0.000050
C31	C	-0.109256	1.228421	0.000003
C32	C	-0.464791	1.220705	-0.000021
C33	C	0.365936	1.217004	-0.000022
C34	C	0.459346	1.219056	-0.000031
C35	C	0.222011	1.414085	-0.000011
C36	C	0.232879	1.529163	-0.000018
N37	N	0.227475	1.204676	0.281835
N38	N	0.198465	1.244453	-0.281853
C39	C	0.137400	1.328094	0.531133
C40	C	0.143812	1.319321	0.655796
C41	C	0.246707	1.178352	0.655826
C42	C	0.240294	1.187125	0.531163
C43	C	0.185640	1.262000	0.468821
C44	C	0.179233	1.270777	0.344156
C45	C	0.282122	1.129804	0.344188
C46	C	0.288535	1.121031	0.468851
H47	H	0.055083	0.932299	0.000005
H48	H	0.291199	1.117384	0.706602
H49	H	0.036566	0.736146	-0.000007
H50	H	0.333031	1.060066	0.519624
H51	H	0.096786	0.561615	-0.000015
H52	H	0.329152	0.887528	-0.000007
H53	H	-0.246106	1.329384	-0.180184
F54	F	-0.333835	1.104903	0.205544
H55	H	0.321406	1.075988	0.293439
F56	F	0.388471	0.500207	-0.000032
F57	F	0.409536	0.723422	-0.000026
H58	H	-0.227717	1.303928	0.180372
H59	H	-0.344005	1.405568	0.000106
F60	F	-0.354946	1.133913	-0.205523
F61	F	-0.221667	1.018193	0.000107
F62	F	0.121068	1.350468	0.277809
F63	F	0.079242	1.407790	0.464784
H64	H	0.104529	1.373140	0.706528
