data_functionalizedCrystal
_audit_creation_method	'MofGen! by Chris Wilmer'
_symmetry_space_group_name_H-M	'P1'
_symmetry_Int_Tables_number	1
_symmetry_cell_setting	triclinic
loop_
_symmetry_equiv_pos_as_xyz
  x,y,z
_cell_length_a	11.792241
_cell_length_b	11.792241
_cell_length_c	10.268362
_cell_angle_alpha	90.001054
_cell_angle_beta	89.994782
_cell_angle_gamma	95.806584
loop_
_atom_site_label
_atom_site_type_symbol
_atom_site_fract_x
_atom_site_fract_y
_atom_site_fract_z
O1	O	0.155568	-1.506910	-0.108174
O2	O	0.655568	-1.006910	0.391826
O3	O	0.171601	-1.176569	-0.108205
O4	O	0.671601	-0.676569	0.391795
O5	O	-0.001586	-1.349756	-0.108180
O6	O	0.498414	-0.849756	0.391820
O7	O	0.328755	-1.333723	-0.108199
O8	O	0.828755	-0.833723	0.391801
O9	O	-0.001592	-1.349738	0.108421
O10	O	0.498408	-0.849738	0.608421
O11	O	0.171595	-1.176551	0.108396
O12	O	0.671595	-0.676551	0.608396
O13	O	0.155562	-1.506892	0.108426
O14	O	0.655562	-1.006892	0.608426
Cu15	Cu	0.163578	-1.341720	0.128188
Cu16	Cu	0.663578	-0.841720	0.628188
Cu17	Cu	0.163585	-1.341741	-0.127967
Cu18	Cu	0.663585	-0.841741	0.372033
O19	O	0.328749	-1.333705	0.108401
O20	O	0.828749	-0.833705	0.608401
C21	C	0.170591	-1.134269	0.000092
C22	C	0.670591	-0.634269	0.500092
C23	C	0.167576	-1.008255	0.000080
C24	C	0.667576	-0.508255	0.500080
C25	C	-0.043880	-1.348740	0.000120
C26	C	0.456120	-0.848740	0.500120
C27	C	-0.169894	-1.345726	0.000119
C28	C	0.330106	-0.845726	0.500119
C29	C	-0.400606	-1.340183	0.000096
C30	C	0.099394	-0.840183	0.500096
C31	C	-0.272221	-1.343262	0.000108
C32	C	0.227779	-0.843262	0.500108
C33	C	0.156572	-1.549192	0.000127
C34	C	0.656572	-1.049192	0.500127
C35	C	0.159587	-1.675206	0.000130
C36	C	0.659587	-1.175206	0.500130
C37	C	0.371043	-1.334721	0.000099
C38	C	0.871043	-0.834721	0.500099
C39	C	0.497057	-1.337736	0.000092
C40	C	0.997057	-0.837736	0.500092
N41	N	0.163572	-1.341714	0.308354
N42	N	0.663572	-0.841714	0.808354
C43	C	0.162034	-0.777543	0.000118
C44	C	0.662034	-0.277543	0.500118
C45	C	0.165113	-0.905928	0.000097
C46	C	0.665113	-0.405928	0.500097
C47	C	0.163586	-1.341728	0.574025
C48	C	0.663586	-0.841728	1.074025
C49	C	0.163581	-1.341716	0.426187
C50	C	0.663581	-0.841716	0.926187
N51	N	0.163586	-1.341745	0.691867
N52	N	0.663586	-0.841745	1.191867
