data_functionalizedCrystal
_audit_creation_method	'MofGen! by Chris Wilmer'
_symmetry_space_group_name_H-M	'P1'
_symmetry_Int_Tables_number	1
_symmetry_cell_setting	triclinic
loop_
_symmetry_equiv_pos_as_xyz
  x,y,z
_cell_length_a	17.077404
_cell_length_b	19.805405
_cell_length_c	17.077396
_cell_angle_alpha	90.031650
_cell_angle_beta	90.019501
_cell_angle_gamma	90.026635
loop_
_atom_site_label
_atom_site_type_symbol
_atom_site_fract_x
_atom_site_fract_y
_atom_site_fract_z
Zn1	Zn	1.200035	-0.269459	0.443825
Zn2	Zn	1.533369	0.063874	0.777159
Zn3	Zn	1.866702	0.397208	1.110492
Zn4	Zn	1.199934	-0.382652	0.312552
Zn5	Zn	1.533268	-0.049319	0.645885
Zn6	Zn	1.866601	0.284015	0.979219
Zn7	Zn	1.068767	-0.269483	0.312573
Zn8	Zn	1.402101	0.063850	0.645907
Zn9	Zn	1.735434	0.397184	0.979240
Zn10	Zn	1.068727	-0.382612	0.443776
Zn11	Zn	1.402060	-0.049279	0.777109
Zn12	Zn	1.735394	0.284055	1.110442
O13	O	1.134366	-0.326052	0.378182
O14	O	1.467699	0.007282	0.711515
O15	O	1.801033	0.340615	1.044848
O16	O	1.309869	-0.284481	0.426424
O17	O	1.643202	0.048852	0.759757
O18	O	1.976536	0.382185	1.093090
O19	O	1.182509	-0.367667	0.202708
O20	O	1.515843	-0.034333	0.536041
O21	O	1.849176	0.299000	0.869375
O22	O	1.086239	-0.174763	0.330014
O23	O	1.419573	0.158570	0.663347
O24	O	1.752906	0.491904	0.996681
O25	O	1.309795	-0.367644	0.329978
O26	O	1.643128	-0.034310	0.663311
O27	O	1.976461	0.299023	0.996644
O28	O	1.182681	-0.174746	0.426444
O29	O	1.516015	0.158588	0.759778
O30	O	1.849348	0.491921	1.093111
O31	O	1.086141	-0.284522	0.202724
O32	O	1.419475	0.048812	0.536057
O33	O	1.752808	0.382145	0.869390
O34	O	0.958915	-0.284483	0.329966
O35	O	1.292248	0.048851	0.663299
O36	O	1.625582	0.382184	0.996632
O37	O	1.086171	-0.367575	0.553629
O38	O	1.419504	-0.034242	0.886963
O39	O	1.752838	0.299091	1.220296
O40	O	0.958886	-0.367598	0.426360
O41	O	1.292219	-0.034265	0.759693
O42	O	1.625552	0.299068	1.093026
O43	O	1.182643	-0.284442	0.553666
O44	O	1.515976	0.048891	0.886999
O45	O	1.849309	0.382224	1.220332
O46	O	1.182470	-0.477363	0.329930
O47	O	1.515804	-0.144030	0.663263
O48	O	1.849137	0.189303	0.996596
O49	O	1.086073	-0.477334	0.426339
O50	O	1.419406	-0.144001	0.759672
O51	O	1.752740	0.189333	1.093006
C52	C	0.930418	-0.326039	0.378160
C53	C	1.263752	0.007294	0.711493
C54	C	1.597085	0.340627	1.044827
C55	C	0.843168	-0.326050	0.378169
C56	C	1.176502	0.007283	0.711503
C57	C	1.509835	0.340616	1.044836
C58	C	0.802183	-0.369394	0.428281
C59	C	1.135517	-0.036060	0.761614
C60	C	1.468850	0.297273	1.094948
C61	C	0.720203	-0.369395	0.428294
C62	C	1.053536	-0.036062	0.761627
C63	C	1.386870	0.297271	1.094960
C64	C	0.679209	-0.326056	0.378190
C65	C	1.012542	0.007277	0.711523
C66	C	1.345876	0.340611	1.044857
C67	C	0.720200	-0.282708	0.328076
C68	C	1.053533	0.050625	0.661409
C69	C	1.386866	0.383959	0.994743
C70	C	0.802179	-0.282703	0.328068
C71	C	1.135512	0.050630	0.661401
C72	C	1.468845	0.383963	0.994735
C73	C	0.549330	-0.282721	0.328095
C74	C	0.882663	0.050612	0.661428
C75	C	1.215996	0.383945	0.994762
C76	C	0.467345	-0.282726	0.328102
C77	C	0.800678	0.050607	0.661435
C78	C	1.134012	0.383940	0.994768
C79	C	0.467354	-0.369413	0.428321
C80	C	0.800687	-0.036080	0.761654
C81	C	1.134021	0.297254	1.094987
C82	C	0.549333	-0.369409	0.428313
C83	C	0.882666	-0.036075	0.761646
C84	C	1.216000	0.297258	1.094979
C85	C	0.590318	-0.326061	0.378197
C86	C	0.923651	0.007272	0.711531
C87	C	1.256985	0.340606	1.044864
C88	C	1.134278	-0.501908	0.378144
C89	C	1.467611	-0.168574	0.711477
C90	C	1.800944	0.164759	1.044810
C91	C	1.134312	-0.577140	0.378154
C92	C	1.467645	-0.243806	0.711487
C93	C	1.800978	0.089527	1.044820
C94	C	1.184555	-0.612477	0.328006
C95	C	1.517888	-0.279143	0.661339
C96	C	1.851221	0.054190	0.994673
C97	C	1.184588	-0.683165	0.328023
C98	C	1.517921	-0.349832	0.661357
C99	C	1.851255	-0.016498	0.994690
C100	C	1.134374	-0.718515	0.378185
C101	C	1.467707	-0.385182	0.711518
C102	C	1.801041	-0.051848	1.044852
C103	C	1.084129	-0.683173	0.428338
C104	C	1.417462	-0.349840	0.761672
C105	C	1.750795	-0.016506	1.095005
C106	C	1.084100	-0.612486	0.428324
C107	C	1.417433	-0.279153	0.761658
C108	C	1.750767	0.054181	1.094991
C109	C	1.084245	-0.968246	0.428397
C110	C	1.417578	-0.634913	0.761730
C111	C	1.750911	-0.301580	1.095063
C112	C	1.084276	-1.038938	0.428405
C113	C	1.417609	-0.705605	0.761738
C114	C	1.750942	-0.372272	1.095072
C115	C	1.184733	-1.038925	0.328095
C116	C	1.518066	-0.705592	0.661429
C117	C	1.851399	-0.372259	0.994762
C118	C	1.184704	-0.968238	0.328081
C119	C	1.518037	-0.634905	0.661415
C120	C	1.851370	-0.301572	0.994748
C121	C	1.134462	-0.932902	0.378237
C122	C	1.467795	-0.599569	0.711571
C123	C	1.801129	-0.266236	1.044904
C124	C	1.134427	-0.856254	0.378219
C125	C	1.467761	-0.522921	0.711552
C126	C	1.801094	-0.189587	1.044886
C127	C	1.134404	-0.795162	0.378200
C128	C	1.467737	-0.461829	0.711533
C129	C	1.801070	-0.128496	1.044867
C130	C	1.339110	-0.326064	0.378204
C131	C	1.672444	0.007269	0.711537
C132	C	2.005777	0.340602	1.044871
C133	C	1.426360	-0.326070	0.378213
C134	C	1.759693	0.007264	0.711547
C135	C	2.093027	0.340597	1.044880
C136	C	1.134414	-0.326002	0.582926
C137	C	1.467747	0.007332	0.916259
C138	C	1.801080	0.340665	1.249593
C139	C	1.134434	-0.325980	0.670176
C140	C	1.467767	0.007353	1.003509
C141	C	1.801100	0.340686	1.336843
C142	C	1.134476	-0.149509	0.378237
C143	C	1.467809	0.183825	0.711570
C144	C	1.801143	0.517158	1.044904
C145	C	1.134523	-0.074277	0.378261
C146	C	1.467856	0.259057	0.711594
C147	C	1.801190	0.592390	1.044927
C148	C	1.134364	-0.326052	0.174234
C149	C	1.467697	0.007281	0.507567
C150	C	1.801031	0.340614	0.840901
C151	C	1.134496	-0.325883	0.086984
C152	C	1.467829	0.007450	0.420318
C153	C	1.801162	0.340784	0.753651
C154	C	1.184668	-0.282690	0.711186
C155	C	1.518002	0.050644	1.044520
C156	C	1.851335	0.383977	1.377853
C157	C	1.184678	-0.282667	0.793167
C158	C	1.518011	0.050666	1.126500
C159	C	1.851344	0.384000	1.459834
C160	C	1.134456	-0.325939	0.834135
C161	C	1.467789	0.007394	1.167469
C162	C	1.801123	0.340727	1.500802
C163	C	1.084216	-0.369232	0.793119
C164	C	1.417549	-0.035899	1.126453
C165	C	1.750883	0.297435	1.459786
C166	C	1.084203	-0.369251	0.711140
C167	C	1.417536	-0.035917	1.044474
C168	C	1.750870	0.297416	1.377807
C169	C	1.084248	-0.369191	0.963989
C170	C	1.417581	-0.035858	1.297323
C171	C	1.750914	0.297475	1.630656
C172	C	1.084261	-0.369174	1.045974
C173	C	1.417595	-0.035841	1.379307
C174	C	1.750928	0.297493	1.712641
C175	C	1.184722	-0.282608	1.046016
C176	C	1.518056	0.050726	1.379349
C177	C	1.851389	0.384059	1.712683
C178	C	1.184709	-0.282626	0.964037
C179	C	1.518043	0.050707	1.297370
C180	C	1.851376	0.384040	1.630704
C181	C	1.134470	-0.325920	0.923026
C182	C	1.467803	0.007413	1.256360
C183	C	1.801137	0.340747	1.589693
H184	H	0.835548	-0.247405	0.287266
H185	H	1.168881	0.085928	0.620599
H186	H	1.502214	0.419261	0.953933
Cl187	Cl	1.247881	-0.228182	1.097571
Cl188	Cl	1.581214	0.105151	1.430905
Cl189	Cl	1.914548	0.438485	1.764238
Cl190	Cl	1.021146	-1.083378	0.491472
Cl191	Cl	1.354479	-0.750044	0.824805
Cl192	Cl	1.687813	-0.416711	1.158139
Cl193	Cl	1.021116	-0.423567	1.097477
Cl194	Cl	1.354449	-0.090233	1.430810
Cl195	Cl	1.687782	0.243100	1.764143
Cl196	Cl	1.021082	-0.923833	0.491448
Cl197	Cl	1.354415	-0.590500	0.824782
Cl198	Cl	1.687748	-0.257167	1.158115
H199	H	1.043325	-0.404435	0.930601
H200	H	1.376658	-0.071102	1.263934
H201	H	1.709992	0.262231	1.597268
H202	H	1.225500	-0.711933	0.287187
H203	H	1.558834	-0.378600	0.620521
H204	H	1.892167	-0.045267	0.953854
Cl205	Cl	0.600852	-0.228226	0.265092
Cl206	Cl	0.934186	0.105107	0.598425
Cl207	Cl	1.267519	0.438441	0.931758
Cl208	Cl	0.668664	-0.228219	0.265093
Cl209	Cl	1.001997	0.105114	0.598426
Cl210	Cl	1.335331	0.438447	0.931760
Cl211	Cl	1.247680	-0.568043	0.264936
Cl212	Cl	1.581013	-0.234710	0.598270
Cl213	Cl	1.914346	0.098623	0.931603
H214	H	1.043322	-0.404463	0.826482
H215	H	1.376655	-0.071129	1.159816
H216	H	1.709988	0.262204	1.493149
Cl217	Cl	0.415831	-0.423898	0.491334
Cl218	Cl	0.749164	-0.090564	0.824667
Cl219	Cl	1.082497	0.242769	1.158000
H220	H	0.433970	-0.247428	0.287312
H221	H	0.767303	0.085906	0.620645
H222	H	1.100637	0.419239	0.953979
Cl223	Cl	1.247833	-0.923802	0.265019
Cl224	Cl	1.581166	-0.590469	0.598352
Cl225	Cl	1.914499	-0.257135	0.931685
Cl226	Cl	1.021046	-0.423674	0.659584
Cl227	Cl	1.354379	-0.090340	0.992917
Cl228	Cl	1.687713	0.242993	1.326251
Cl229	Cl	1.247899	-1.083352	0.265045
Cl230	Cl	1.581233	-0.750019	0.598379
Cl231	Cl	1.914566	-0.416685	0.931712
H232	H	1.043247	-0.711961	0.469184
H233	H	1.376580	-0.378627	0.802518
H234	H	1.709914	-0.045294	1.135851
H235	H	0.835555	-0.404688	0.469079
H236	H	1.168888	-0.071355	0.802412
H237	H	1.502222	0.261979	1.135746
Cl238	Cl	1.020937	-0.568062	0.491373
Cl239	Cl	1.354271	-0.234729	0.824706
Cl240	Cl	1.687604	0.098605	1.158039
Cl241	Cl	1.247812	-0.228290	0.659691
Cl242	Cl	1.581145	0.105043	0.993024
Cl243	Cl	1.914479	0.438377	1.326358
H244	H	0.582708	-0.404703	0.469107
H245	H	0.916041	-0.071370	0.802440
H246	H	1.249375	0.261964	1.135774
Cl247	Cl	1.247851	-0.228230	0.912534
Cl248	Cl	1.581184	0.105103	1.245868
Cl249	Cl	1.914518	0.438437	1.579201
Cl250	Cl	0.668682	-0.423887	0.491294
Cl251	Cl	1.002016	-0.090554	0.824628
Cl252	Cl	1.335349	0.242780	1.157961
Cl253	Cl	1.247868	-0.228271	0.844719
Cl254	Cl	1.581201	0.105062	1.178053
Cl255	Cl	1.914534	0.438395	1.511386
