data_functionalizedCrystal
_audit_creation_method	'MofGen! by Chris Wilmer'
_symmetry_space_group_name_H-M	'P1'
_symmetry_Int_Tables_number	1
_symmetry_cell_setting	triclinic
loop_
_symmetry_equiv_pos_as_xyz
  x,y,z
_cell_length_a	18.101398
_cell_length_b	21.295417
_cell_length_c	21.295411
_cell_angle_alpha	89.979403
_cell_angle_beta	89.970135
_cell_angle_gamma	90.024968
loop_
_atom_site_label
_atom_site_type_symbol
_atom_site_fract_x
_atom_site_fract_y
_atom_site_fract_z
Zn1	Zn	1.132169	-0.250760	-0.356005
Zn2	Zn	1.382169	-0.000760	-0.106005
Zn3	Zn	1.632169	0.249240	0.143995
Zn4	Zn	1.882169	0.499240	0.393995
Zn5	Zn	1.132056	-0.356012	-0.250732
Zn6	Zn	1.382056	-0.106012	-0.000732
Zn7	Zn	1.632056	0.143988	0.249268
Zn8	Zn	1.882056	0.393988	0.499268
Zn9	Zn	1.008316	-0.250752	-0.250740
Zn10	Zn	1.258316	-0.000752	-0.000740
Zn11	Zn	1.508316	0.249248	0.249260
Zn12	Zn	1.758316	0.499248	0.499260
Zn13	Zn	1.008281	-0.355987	-0.355954
Zn14	Zn	1.258281	-0.105987	-0.105954
Zn15	Zn	1.508281	0.144013	0.144046
Zn16	Zn	1.758281	0.394013	0.394046
O17	O	1.070205	-0.303378	-0.303358
O18	O	1.320205	-0.053378	-0.053358
O19	O	1.570205	0.196622	0.196642
O20	O	1.820205	0.446622	0.446642
O21	O	1.235787	-0.264736	-0.342058
O22	O	1.485787	-0.014736	-0.092058
O23	O	1.735787	0.235264	0.157942
O24	O	1.985787	0.485264	0.407942
O25	O	1.115608	-0.342056	-0.162644
O26	O	1.365608	-0.092056	0.087356
O27	O	1.615608	0.157944	0.337356
O28	O	1.865608	0.407944	0.587356
O29	O	1.024807	-0.162664	-0.264729
O30	O	1.274807	0.087336	-0.014729
O31	O	1.524807	0.337336	0.235271
O32	O	1.774807	0.587336	0.485271
O33	O	1.235704	-0.342064	-0.264715
O34	O	1.485704	-0.092064	-0.014715
O35	O	1.735704	0.157936	0.235285
O36	O	1.985704	0.407936	0.485285
O37	O	1.115801	-0.162670	-0.342066
O38	O	1.365801	0.087330	-0.092066
O39	O	1.615801	0.337330	0.157934
O40	O	1.865801	0.587330	0.407934
O41	O	1.024697	-0.264722	-0.162650
O42	O	1.274697	-0.014722	0.087350
O43	O	1.524697	0.235278	0.337350
O44	O	1.774697	0.485278	0.587350
O45	O	0.904678	-0.264698	-0.264679
O46	O	1.154678	-0.014698	-0.014679
O47	O	1.404678	0.235302	0.235321
O48	O	1.654678	0.485302	0.485321
O49	O	1.024748	-0.342021	-0.444050
O50	O	1.274748	-0.092021	-0.194050
O51	O	1.524748	0.157979	0.055950
O52	O	1.774748	0.407979	0.305950
O53	O	0.904653	-0.342013	-0.341980
O54	O	1.154653	-0.092013	-0.091980
O55	O	1.404653	0.157987	0.158020
O56	O	1.654653	0.407987	0.408020
O57	O	1.115768	-0.264712	-0.444088
O58	O	1.365768	-0.014712	-0.194088
O59	O	1.615768	0.235288	0.055912
O60	O	1.865768	0.485288	0.305912
O61	O	1.115575	-0.444098	-0.264666
O62	O	1.365575	-0.194098	-0.014666
O63	O	1.615575	0.055902	0.235334
O64	O	1.865575	0.305902	0.485334
O65	O	1.024639	-0.444080	-0.341972
O66	O	1.274639	-0.194080	-0.091972
O67	O	1.524639	0.055920	0.158028
O68	O	1.774639	0.305920	0.408028
C69	C	0.877795	-0.303352	-0.303325
C70	C	1.127795	-0.053352	-0.053325
C71	C	1.377795	0.196648	0.196675
C72	C	1.627795	0.446648	0.446675
C73	C	0.795481	-0.303357	-0.303326
C74	C	1.045481	-0.053357	-0.053326
C75	C	1.295481	0.196643	0.196674
C76	C	1.545481	0.446643	0.446674
C77	C	0.496390	-0.303396	-0.303379
C78	C	0.746390	-0.053396	-0.053379
C79	C	0.996390	0.196604	0.196621
C80	C	1.246390	0.446604	0.446621
C81	C	0.527706	-0.254508	-0.254981
C82	C	0.777706	-0.004508	-0.004981
C83	C	1.027706	0.245492	0.245019
C84	C	1.277706	0.495492	0.495019
C85	C	0.613324	-0.254639	-0.254774
C86	C	0.863324	-0.004639	-0.004774
C87	C	1.113324	0.245361	0.245226
C88	C	1.363324	0.495361	0.495226
C89	C	0.644772	-0.303376	-0.303353
C90	C	0.894772	-0.053376	-0.053353
C91	C	1.144772	0.196624	0.196647
C92	C	1.394772	0.446624	0.446647
C93	C	0.613654	-0.369683	-0.285223
C94	C	0.863654	-0.119683	-0.035223
C95	C	1.113654	0.130317	0.214777
C96	C	1.363654	0.380317	0.464777
C97	C	0.528009	-0.369412	-0.284886
C98	C	0.778009	-0.119412	-0.034886
C99	C	1.028009	0.130588	0.215114
C100	C	1.278009	0.380588	0.465114
C101	C	0.528011	-0.286553	-0.370020
C102	C	0.778011	-0.036553	-0.120020
C103	C	1.028011	0.213447	0.129980
C104	C	1.278011	0.463447	0.379980
C105	C	0.613662	-0.285076	-0.369657
C106	C	0.863662	-0.035076	-0.119657
C107	C	1.113662	0.214924	0.130343
C108	C	1.363662	0.464924	0.380343
C109	C	0.728632	-0.303369	-0.303339
C110	C	0.978632	-0.053369	-0.053339
C111	C	1.228632	0.196631	0.196661
C112	C	1.478632	0.446631	0.446661
C113	C	0.412530	-0.303408	-0.303391
C114	C	0.662530	-0.053408	-0.053391
C115	C	0.912530	0.196592	0.196609
C116	C	1.162530	0.446592	0.446609
C117	C	1.070111	-0.466930	-0.303326
C118	C	1.320111	-0.216930	-0.053326
C119	C	1.570111	0.033070	0.196674
C120	C	1.820111	0.283070	0.446674
C121	C	1.070138	-0.536898	-0.303334
C122	C	1.320138	-0.286898	-0.053334
C123	C	1.570138	-0.036898	0.196666
C124	C	1.820138	0.213102	0.446666
C125	C	1.117492	-0.569710	-0.343632
C126	C	1.367492	-0.319710	-0.093632
C127	C	1.617492	-0.069710	0.156368
C128	C	1.867492	0.180290	0.406368
C129	C	1.117518	-0.635453	-0.343648
C130	C	1.367518	-0.385453	-0.093648
C131	C	1.617518	-0.135453	0.156352
C132	C	1.867518	0.114547	0.406352
C133	C	1.070198	-0.668380	-0.303353
C134	C	1.320198	-0.418380	-0.053353
C135	C	1.570198	-0.168380	0.196647
C136	C	1.820198	0.081620	0.446647
C137	C	1.022836	-0.635560	-0.263052
C138	C	1.272836	-0.385560	-0.013052
C139	C	1.522836	-0.135560	0.236948
C140	C	1.772836	0.114440	0.486948
C141	C	1.022806	-0.569818	-0.263042
C142	C	1.272806	-0.319818	-0.013042
C143	C	1.522806	-0.069818	0.236958
C144	C	1.772806	0.180182	0.486958
N145	N	1.064599	-0.771632	-0.248262
N146	N	1.314599	-0.521632	0.001738
N147	N	1.564599	-0.271632	0.251738
N148	N	1.814599	-0.021632	0.501738
N149	N	1.064632	-0.834084	-0.248273
N150	N	1.314632	-0.584084	0.001727
N151	N	1.564632	-0.334084	0.251727
N152	N	1.814632	-0.084084	0.501727
C153	C	1.070285	-0.866455	-0.303382
C154	C	1.320285	-0.616455	-0.053382
C155	C	1.570285	-0.366455	0.196618
C156	C	1.820285	-0.116455	0.446618
N157	N	1.075918	-0.834015	-0.358480
N158	N	1.325918	-0.584015	-0.108480
N159	N	1.575918	-0.334015	0.141520
N160	N	1.825918	-0.084015	0.391520
N161	N	1.075889	-0.771558	-0.358468
N162	N	1.325889	-0.521558	-0.108468
N163	N	1.575889	-0.271558	0.141532
N164	N	1.825889	-0.021558	0.391532
C165	C	1.070225	-0.739666	-0.303360
C166	C	1.320225	-0.489666	-0.053360
C167	C	1.570225	-0.239666	0.196640
C168	C	1.820225	0.010334	0.446640
C169	C	1.117669	-0.970553	-0.343701
C170	C	1.367669	-0.720553	-0.093701
C171	C	1.617669	-0.470553	0.156299
C172	C	1.867669	-0.220553	0.406299
C173	C	1.117690	-1.036297	-0.343717
C174	C	1.367690	-0.786297	-0.093717
C175	C	1.617690	-0.536297	0.156283
C176	C	1.867690	-0.286297	0.406283
C177	C	1.023012	-1.036402	-0.263116
C178	C	1.273012	-0.786402	-0.013116
C179	C	1.523012	-0.536402	0.236884
C180	C	1.773012	-0.286402	0.486884
C181	C	1.022987	-0.970660	-0.263105
C182	C	1.272987	-0.720660	-0.013105
C183	C	1.522987	-0.470660	0.236895
C184	C	1.772987	-0.220660	0.486895
C185	C	1.070320	-0.937739	-0.303396
C186	C	1.320320	-0.687739	-0.053396
C187	C	1.570320	-0.437739	0.196604
C188	C	1.820320	-0.187739	0.446604
C189	C	1.263367	-0.303404	-0.303391
C190	C	1.513367	-0.053404	-0.053391
C191	C	1.763367	0.196596	0.196609
C192	C	2.013367	0.446596	0.446609
C193	C	1.345681	-0.303415	-0.303406
C194	C	1.595681	-0.053415	-0.053406
C195	C	1.845681	0.196585	0.196594
C196	C	2.095681	0.446585	0.446594
C197	C	1.070267	-0.303365	-0.467548
C198	C	1.320267	-0.053365	-0.217548
C199	C	1.570267	0.196635	0.032452
C200	C	1.820267	0.446635	0.282452
C201	C	1.070293	-0.303359	-0.537516
C202	C	1.320293	-0.053359	-0.287516
C203	C	1.570293	0.196641	-0.037516
C204	C	1.820293	0.446641	0.212484
C205	C	1.070320	-0.139188	-0.303404
C206	C	1.320320	0.110812	-0.053404
C207	C	1.570320	0.360812	0.196596
C208	C	1.820320	0.610812	0.446596
C209	C	1.070369	-0.069220	-0.303423
C210	C	1.320369	0.180780	-0.053423
C211	C	1.570369	0.430780	0.196577
C212	C	1.820369	0.680780	0.446577
C213	C	1.117685	-0.263102	-0.570404
C214	C	1.367685	-0.013102	-0.320404
C215	C	1.617685	0.236898	-0.070404
C216	C	1.867685	0.486898	0.179596
C217	C	1.117684	-0.263075	-0.636146
C218	C	1.367684	-0.013075	-0.386146
C219	C	1.617684	0.236925	-0.136146
C220	C	1.867684	0.486925	0.113854
C221	C	1.070299	-0.303316	-0.668999
C222	C	1.320299	-0.053316	-0.418999
C223	C	1.570299	0.196684	-0.168999
C224	C	1.820299	0.446684	0.081001
C225	C	1.022898	-0.343575	-0.636104
C226	C	1.272898	-0.093575	-0.386104
C227	C	1.522898	0.156425	-0.136104
C228	C	1.772898	0.406425	0.113896
C229	C	1.022895	-0.343597	-0.570363
C230	C	1.272895	-0.093597	-0.320363
C231	C	1.522895	0.156403	-0.070363
C232	C	1.772895	0.406403	0.179637
N233	N	1.064586	-0.358383	-0.772215
N234	N	1.314586	-0.108383	-0.522215
N235	N	1.564586	0.141617	-0.272215
N236	N	1.814586	0.391617	-0.022215
N237	N	1.064593	-0.358361	-0.834666
N238	N	1.314593	-0.108361	-0.584666
N239	N	1.564593	0.141639	-0.334666
N240	N	1.814593	0.391639	-0.084666
C241	C	1.070303	-0.303252	-0.867074
C242	C	1.320303	-0.053252	-0.617074
C243	C	1.570303	0.196748	-0.367074
C244	C	1.820303	0.446748	-0.117074
N245	N	1.076021	-0.248165	-0.834671
N246	N	1.326021	0.001835	-0.584671
N247	N	1.576021	0.251835	-0.334671
N248	N	1.826021	0.501835	-0.084671
N249	N	1.076018	-0.248188	-0.772213
N250	N	1.326018	0.001812	-0.522213
N251	N	1.576018	0.251812	-0.272213
N252	N	1.826018	0.501812	-0.022213
C253	C	1.070296	-0.303296	-0.740284
C254	C	1.320296	-0.053296	-0.490284
C255	C	1.570296	0.196704	-0.240284
C256	C	1.820296	0.446704	0.009716
C257	C	1.117697	-0.262962	-0.971247
C258	C	1.367697	-0.012962	-0.721247
C259	C	1.617697	0.237038	-0.471247
C260	C	1.867697	0.487038	-0.221247
C261	C	1.117690	-0.262934	-1.036990
C262	C	1.367690	-0.012934	-0.786990
C263	C	1.617690	0.237066	-0.536990
C264	C	1.867690	0.487066	-0.286990
C265	C	1.022908	-0.343440	-1.036947
C266	C	1.272908	-0.093440	-0.786947
C267	C	1.522908	0.156560	-0.536947
C268	C	1.772908	0.406560	-0.286947
C269	C	1.022911	-0.343462	-0.971205
C270	C	1.272911	-0.093462	-0.721205
C271	C	1.522911	0.156538	-0.471205
C272	C	1.772911	0.406538	-0.221205
C273	C	1.070309	-0.303224	-0.938358
C274	C	1.320309	-0.053224	-0.688358
C275	C	1.570309	0.196776	-0.438358
C276	C	1.820309	0.446776	-0.188358
C277	C	1.070187	-0.303346	-0.139806
C278	C	1.320187	-0.053346	0.110194
C279	C	1.570187	0.196654	0.360194
C280	C	1.820187	0.446654	0.610194
C281	C	1.070304	-0.303174	-0.069839
C282	C	1.320304	-0.053174	0.180161
C283	C	1.570304	0.196826	0.430161
C284	C	1.820304	0.446826	0.680161
H285	H	0.634006	-0.236281	-0.383327
H286	H	0.884006	0.013719	-0.133327
H287	H	1.134006	0.263719	0.116673
H288	H	1.384006	0.513719	0.366673
Cl289	Cl	1.177252	-0.212450	-0.677499
Cl290	Cl	1.427252	0.037550	-0.427499
Cl291	Cl	1.677252	0.287550	-0.177499
Cl292	Cl	1.927252	0.537550	0.072501
Cl293	Cl	0.496744	-0.341527	-0.425696
Cl294	Cl	0.746744	-0.091527	-0.175696
Cl295	Cl	0.996744	0.158473	0.074304
Cl296	Cl	1.246744	0.408473	0.324304
H297	H	1.156287	-0.230194	-0.944502
H298	H	1.406287	0.019806	-0.694502
H299	H	1.656287	0.269806	-0.444502
H300	H	1.906287	0.519806	-0.194502
Cl301	Cl	1.177217	-1.077548	-0.394391
Cl302	Cl	1.427217	-0.827548	-0.144391
Cl303	Cl	1.677217	-0.577548	0.105609
Cl304	Cl	1.927217	-0.327548	0.355609
H305	H	0.635073	-0.318090	-0.407650
H306	H	0.885073	-0.068090	-0.157650
H307	H	1.135073	0.181910	0.092350
H308	H	1.385073	0.431910	0.342350
H309	H	0.984244	-0.543102	-0.230226
H310	H	1.234244	-0.293102	0.019774
H311	H	1.484244	-0.043102	0.269774
H312	H	1.734244	0.206898	0.519774
Cl313	Cl	0.496020	-0.427555	-0.336931
Cl314	Cl	0.746020	-0.177555	-0.086931
Cl315	Cl	0.996020	0.072445	0.163069
Cl316	Cl	1.246020	0.322445	0.413069
H317	H	1.156031	-0.542908	-0.376441
H318	H	1.406031	-0.292908	-0.126441
H319	H	1.656031	-0.042908	0.123559
H320	H	1.906031	0.207092	0.373559
Cl321	Cl	1.177267	-0.212514	-0.529114
Cl322	Cl	1.427267	0.037486	-0.279114
Cl323	Cl	1.677267	0.287486	-0.029114
Cl324	Cl	1.927267	0.537486	0.220886
H325	H	0.984306	-0.662373	-0.230246
H326	H	1.234306	-0.412373	0.019754
H327	H	1.484306	-0.162373	0.269754
H328	H	1.734306	0.087627	0.519754
H329	H	0.634023	-0.407084	-0.319370
H330	H	0.884023	-0.157084	-0.069370
H331	H	1.134023	0.092916	0.180630
H332	H	1.384023	0.342916	0.430630
H333	H	1.156073	-0.662174	-0.376471
H334	H	1.406073	-0.412174	-0.126471
H335	H	1.656073	-0.162174	0.123529
H336	H	1.906073	0.087826	0.373529
H337	H	0.984319	-0.376198	-1.063695
H338	H	1.234319	-0.126198	-0.813695
H339	H	1.484319	0.123802	-0.563695
H340	H	1.734319	0.373802	-0.313695
Cl341	Cl	0.963325	-0.394161	-0.677404
Cl342	Cl	1.213325	-0.144161	-0.427404
Cl343	Cl	1.463325	0.105839	-0.177404
Cl344	Cl	1.713325	0.355839	0.072596
H345	H	1.156208	-0.943748	-0.376510
H346	H	1.406208	-0.693748	-0.126510
H347	H	1.656208	-0.443748	0.123490
H348	H	1.906208	-0.193748	0.373490
H349	H	0.984478	-1.063211	-0.230312
H350	H	1.234478	-0.813211	0.019688
H351	H	1.484478	-0.563211	0.269688
H352	H	1.734478	-0.313211	0.519688
Cl353	Cl	1.177286	-0.212330	-1.078335
Cl354	Cl	1.427286	0.037670	-0.828335
Cl355	Cl	1.677286	0.287670	-0.578335
Cl356	Cl	1.927286	0.537670	-0.328335
Cl357	Cl	0.963453	-0.929407	-0.212441
Cl358	Cl	1.213453	-0.679407	0.037559
Cl359	Cl	1.463453	-0.429407	0.287559
Cl360	Cl	1.713453	-0.179407	0.537559
Cl361	Cl	0.644900	-0.271826	-0.178534
Cl362	Cl	0.894900	-0.021826	0.071466
Cl363	Cl	1.144900	0.228174	0.321466
Cl364	Cl	1.394900	0.478174	0.571466
Cl365	Cl	0.963332	-0.394077	-0.929858
Cl366	Cl	1.213332	-0.144077	-0.679858
Cl367	Cl	1.463332	0.105923	-0.429858
Cl368	Cl	1.713332	0.355923	-0.179858
H369	H	0.507992	-0.383697	-0.236168
H370	H	0.757992	-0.133697	0.013832
H371	H	1.007992	0.116303	0.263832
H372	H	1.257992	0.366303	0.513832
Cl373	Cl	0.645812	-0.178723	-0.272318
Cl374	Cl	0.895812	0.071277	-0.022318
Cl375	Cl	1.145812	0.321277	0.227682
Cl376	Cl	1.395812	0.571277	0.477682
H377	H	0.984299	-0.376378	-0.543586
H378	H	1.234299	-0.126378	-0.293586
H379	H	1.484299	0.123622	-0.043586
H380	H	1.734299	0.373622	0.206414
H381	H	0.507136	-0.205188	-0.266220
H382	H	0.757136	0.044812	-0.016220
H383	H	1.007136	0.294812	0.233780
H384	H	1.257136	0.544812	0.483780
H385	H	0.506151	-0.265516	-0.205888
H386	H	0.756151	-0.015516	0.044112
H387	H	1.006151	0.234484	0.294112
H388	H	1.256151	0.484484	0.544112
H389	H	0.506440	-0.239044	-0.386503
H390	H	0.756440	0.010956	-0.136503
H391	H	1.006440	0.260956	0.113497
H392	H	1.256440	0.510956	0.363497
Cl393	Cl	0.646704	-0.392124	-0.210817
Cl394	Cl	0.896704	-0.142124	0.039183
Cl395	Cl	1.146704	0.107876	0.289183
Cl396	Cl	1.396704	0.357876	0.539183
