data_functionalizedCrystal
_audit_creation_method	'MofGen! by Chris Wilmer'
_symmetry_space_group_name_H-M	'P1'
_symmetry_Int_Tables_number	1
_symmetry_cell_setting	triclinic
loop_
_symmetry_equiv_pos_as_xyz
  x,y,z
_cell_length_a	13.032831
_cell_length_b	16.625545
_cell_length_c	16.625539
_cell_angle_alpha	90.028107
_cell_angle_beta	97.191849
_cell_angle_gamma	82.830132
loop_
_atom_site_label
_atom_site_type_symbol
_atom_site_fract_x
_atom_site_fract_y
_atom_site_fract_z
Zn1	Zn	1.597616	-0.477784	0.612179
Zn2	Zn	1.597481	-0.612614	0.477333
Zn3	Zn	1.422857	-0.460662	0.460266
Zn4	Zn	1.422809	-0.595424	0.595038
O5	O	1.510191	-0.536621	0.536204
O6	O	1.743837	-0.510030	0.608608
O7	O	1.574281	-0.592486	0.362233
O8	O	1.446115	-0.350109	0.480448
O9	O	1.743738	-0.609089	0.509537
O10	O	1.574510	-0.362688	0.592058
O11	O	1.445985	-0.480848	0.349694
O12	O	1.276612	-0.464179	0.463827
O13	O	1.446034	-0.579790	0.710148
O14	O	1.276577	-0.563187	0.562844
O15	O	1.574464	-0.493361	0.722741
O16	O	1.574234	-0.723159	0.492916
O17	O	1.445903	-0.710529	0.579394
C18	C	1.238676	-0.509960	0.509624
C19	C	1.122521	-0.498574	0.498272
C20	C	1.070746	-0.542564	0.542129
C21	C	0.950693	-0.530797	0.530397
C22	C	1.510077	-0.746101	0.536167
C23	C	1.510124	-0.835727	0.536188
C24	C	1.510165	-0.908513	0.536208
C25	C	1.510226	-0.999828	0.536232
C26	C	1.510280	-1.072609	0.536247
C27	C	1.510340	-1.163929	0.536270
C28	C	1.782766	-0.563387	0.562888
C29	C	1.898921	-0.574793	0.574260
C30	C	1.510259	-0.536568	0.746520
C31	C	1.510288	-0.536545	0.836144
C32	C	1.510333	-0.326326	0.536261
C33	C	1.510394	-0.236711	0.536285
C34	C	1.510183	-0.536622	0.326712
C35	C	1.510357	-0.536438	0.237109
C36	C	1.510336	-0.536460	1.164324
C37	C	1.510320	-0.536486	1.073014
C38	C	1.510312	-0.536503	1.000237
C39	C	1.510295	-0.536528	0.908921
H40	H	0.906146	-0.484418	0.484164
C41	C	1.130918	-0.605214	0.604589
C42	C	1.116070	-0.597306	0.694822
C43	C	1.176238	-0.659959	0.757284
C44	C	1.251255	-0.730519	0.729514
C45	C	1.266106	-0.738430	0.639276
C46	C	1.205938	-0.675778	0.576814
H47	H	1.060535	-0.545071	0.715384
H48	H	1.165244	-0.654102	0.824084
H49	H	1.295795	-0.776898	0.775752
H50	H	1.321641	-0.790666	0.618715
H51	H	1.216933	-0.681634	0.510014
C52	C	0.959087	-0.637447	0.636724
C53	C	1.034102	-0.708009	0.608953
C54	C	1.094267	-0.770663	0.671415
C55	C	1.079417	-0.762756	0.761648
C56	C	1.004398	-0.692191	0.789423
C57	C	0.944233	-0.629537	0.726961
H58	H	1.045098	-0.713865	0.542154
H59	H	1.149800	-0.822899	0.650854
H60	H	1.123955	-0.809136	0.807886
H61	H	0.993403	-0.686335	0.856222
H62	H	0.888700	-0.577301	0.747522
C63	C	1.062347	-0.435925	0.435811
C64	C	0.987329	-0.365365	0.463582
C65	C	0.927158	-0.302714	0.401120
C66	C	0.942004	-0.310622	0.310886
C67	C	1.017025	-0.381185	0.283111
C68	C	1.077196	-0.443836	0.345573
H69	H	0.976336	-0.359509	0.530382
H70	H	0.871622	-0.250479	0.421681
H71	H	0.897461	-0.264244	0.264648
H72	H	1.028018	-0.387041	0.216311
H73	H	1.132732	-0.496071	0.325012
