data_functionalizedCrystal
_audit_creation_method	'MofGen! by Chris Wilmer'
_symmetry_space_group_name_H-M	'P1'
_symmetry_Int_Tables_number	1
_symmetry_cell_setting	triclinic
loop_
_symmetry_equiv_pos_as_xyz
  x,y,z
_cell_length_a	23.196402
_cell_length_b	23.196402
_cell_length_c	23.196401
_cell_angle_alpha	60.008520
_cell_angle_beta	90.011299
_cell_angle_gamma	59.996656
loop_
_atom_site_label
_atom_site_type_symbol
_atom_site_fract_x
_atom_site_fract_y
_atom_site_fract_z
Zr1	Zr	0.555342	0.631007	-0.075653
O2	O	0.463266	0.751280	-0.167700
O3	O	0.583570	0.510736	-0.047438
O4	O	0.583539	0.631008	-0.167705
O5	O	0.463320	0.631007	0.047439
O6	O	0.678411	0.631005	-0.167707
O7	O	0.463297	0.631009	-0.047432
O8	O	0.678467	0.415862	0.047430
O9	O	0.463264	0.846151	-0.167698
O10	O	0.666409	0.560202	-0.035403
O11	O	0.595624	0.560203	0.035400
O12	O	0.595587	0.701807	-0.106200
O13	O	0.524803	0.701808	-0.035397
Zr14	Zr	0.706688	0.631001	0.075652
Zr15	Zr	0.706652	0.631003	-0.075656
Zr16	Zr	0.555378	0.631004	0.075656
Zr17	Zr	0.555339	0.782315	-0.075650
Zr18	Zr	0.706691	0.479693	0.075649
O19	O	0.678460	0.751271	0.047437
O20	O	0.678409	0.751275	-0.167705
O21	O	0.463317	0.751277	0.047441
O22	O	0.798765	0.510727	0.167700
O23	O	0.798713	0.510731	-0.047442
O24	O	0.583622	0.510733	0.167704
O25	O	0.798711	0.631000	-0.047440
O26	O	0.678491	0.631000	0.167705
O27	O	0.583619	0.631002	0.167707
O28	O	0.798733	0.630999	0.047432
O29	O	0.583535	0.846148	-0.167701
O30	O	0.678496	0.415860	0.167700
O31	O	0.798767	0.415857	0.167698
O32	O	0.798738	0.415859	0.047427
O33	O	0.463292	0.846149	-0.047428
O34	O	0.583563	0.846146	-0.047431
O35	O	0.666443	0.560200	0.106200
O36	O	0.737228	0.560200	0.035397
O37	O	0.666406	0.701804	-0.035400
O38	O	0.595621	0.701805	0.035403
C39	C	0.631019	0.441741	-0.000004
C40	C	0.631020	0.377507	-0.000006
C41	C	0.667966	-0.085337	-0.036946
C42	C	0.667964	-0.024978	-0.036953
C43	C	0.631016	0.005205	0.000006
C44	C	0.594052	-0.024962	0.036959
C45	C	0.594049	-0.085314	0.036958
C46	C	0.636311	0.067231	0.061911
C47	C	0.636319	0.127578	0.061913
C48	C	0.631021	0.191353	0.000006
C49	C	0.625729	0.194765	-0.061903
C50	C	0.625726	0.134413	-0.061903
C51	C	0.631015	0.070646	0.000010
C52	C	0.667976	0.286964	-0.036955
C53	C	0.667970	0.347328	-0.036964
C54	C	0.594063	0.347336	0.036955
C55	C	0.594065	0.286980	0.036956
C56	C	0.631026	0.256794	0.000003
C57	C	0.441750	0.631009	0.000004
C58	C	0.377515	0.631010	0.000005
C59	C	0.347330	0.631017	-0.052264
C60	C	0.286979	0.631010	-0.052264
C61	C	0.256807	0.631012	0.000000
C62	C	0.287001	0.631001	0.052278
C63	C	0.347355	0.631000	0.052281
C64	C	0.137435	0.678519	0.016287
C65	C	0.077079	0.678525	0.016280
C66	C	0.070656	0.631011	-0.000004
C67	C	0.124591	0.583502	-0.016295
C68	C	0.184945	0.583501	-0.016292
C69	C	0.191363	0.631012	0.000003
C70	C	-0.024967	0.631009	-0.052275
C71	C	-0.085317	0.630996	-0.052271
C72	C	-0.085298	0.630995	0.052268
C73	C	-0.024945	0.630999	0.052266
C74	C	0.005214	0.631010	-0.000009
C75	C	0.820280	0.630999	-0.000004
C76	C	0.884515	0.630997	-0.000006
C77	C	0.630970	0.631007	-0.189265
C78	C	0.630955	0.631008	-0.253499
C79	C	0.631011	0.820267	0.000004
C80	C	0.631010	0.884501	0.000005
C81	C	0.593990	0.704922	-0.320628
C82	C	0.594008	0.704923	-0.380983
C83	C	0.630981	0.631006	-0.374206
C84	C	0.667954	0.557082	-0.307065
C85	C	0.667940	0.557083	-0.246712
C86	C	0.625732	0.574376	-0.441524
C87	C	0.625740	0.574378	-0.501877
C88	C	0.631025	0.630999	-0.560353
C89	C	0.636288	0.687633	-0.558475
C90	C	0.636275	0.687634	-0.498122
C91	C	0.631000	0.630996	-0.439644
C92	C	0.594078	0.704920	-0.692928
C93	C	0.594101	0.704918	-0.753283
C94	C	0.668043	0.557075	-0.679363
C95	C	0.668024	0.557079	-0.619011
C96	C	0.631038	0.631004	-0.625798
C97	C	0.631060	0.631001	0.189264
C98	C	0.631076	0.631000	0.253499
C99	C	0.820284	0.441736	-0.000008
C100	C	0.884521	0.377500	-0.000011
C101	C	0.631064	0.441738	0.189260
C102	C	0.631081	0.377503	0.253493
C103	C	0.820330	0.441733	0.189256
C104	C	0.884581	0.377496	0.253488
C105	C	0.441701	0.820274	-0.189257
C106	C	0.377449	0.884511	-0.253489
C107	C	0.441746	0.820271	0.000008
C108	C	0.377510	0.884507	0.000010
C109	C	0.630966	0.820270	-0.189261
C110	C	0.630949	0.884505	-0.253494
C111	C	0.877720	0.347336	-0.036976
C112	C	0.938071	0.286988	-0.036992
C113	C	1.005222	0.256801	-0.000040
C114	C	1.012021	0.286972	0.036926
C115	C	0.951671	0.347323	0.036938
C116	C	0.668055	0.347336	0.320621
C117	C	0.668068	0.286989	0.380981
C118	C	0.631111	0.256805	0.374211
C119	C	0.594132	0.286978	0.307076
C120	C	0.594115	0.347328	0.246718
C121	C	0.951710	0.347330	0.246693
C122	C	1.012087	0.286981	0.307040
C123	C	1.005334	0.256796	0.374181
C124	C	0.938198	0.286968	0.380974
C125	C	0.877823	0.347320	0.320628
C126	C	0.310320	0.914685	-0.246694
C127	C	0.249943	0.975053	-0.307041
C128	C	0.256697	1.005241	-0.374182
C129	C	0.323832	0.975065	-0.380975
C130	C	0.384208	0.914702	-0.320629
C131	C	0.384310	0.914678	0.036968
C132	C	0.323959	0.975042	0.036969
C133	C	0.256808	1.005231	0.000014
C134	C	0.250009	0.975058	-0.036949
C135	C	0.310359	0.914699	-0.036952
C136	C	0.667914	0.914669	-0.246702
C137	C	0.667912	0.975016	-0.307050
C138	C	0.630941	1.005203	-0.374190
C139	C	0.593975	0.975033	-0.380981
C140	C	0.593981	0.914682	-0.320633
H141	H	0.621413	0.246694	-0.112314
H142	H	0.371932	0.630994	0.094845
H143	H	0.823048	0.371913	-0.067075
H144	H	0.564042	0.262394	0.301575
N145	N	0.707774	1.007558	-0.299714
H146	H	0.702167	1.050369	-0.348127
H147	H	0.759464	0.961459	-0.273016
N148	N	1.084491	0.254444	0.299705
H149	H	1.079602	0.282721	0.248013
H150	H	1.111154	0.193856	0.323136
H151	H	0.932521	0.262431	-0.067094
H152	H	0.563954	-0.109872	0.067049
H153	H	0.195285	0.999612	-0.301496
H154	H	0.698058	0.496898	-0.301551
N155	N	1.070311	0.191710	-0.000057
H156	H	1.055807	0.177184	-0.029082
H157	H	1.099349	0.141665	0.050013
H158	H	0.207529	1.054392	-0.423314
H159	H	0.640562	0.733745	-0.496595
H160	H	0.195327	0.999647	-0.067036
H161	H	0.438865	0.890135	-0.326169
H162	H	0.640589	0.733742	-0.606089
H163	H	1.066704	0.262385	0.067011
H164	H	-0.109861	0.630992	0.094825
H165	H	0.228858	0.544815	-0.029555
H166	H	0.304812	0.890136	-0.067046
N167	N	0.630926	1.070302	-0.439280
H168	H	0.651954	1.049301	-0.468333
H169	H	0.659941	1.084808	-0.424732
H170	H	0.563963	0.765113	-0.698455
H171	H	0.957218	0.371875	0.067043
H172	H	0.564008	0.371883	0.192062
H173	H	0.563877	0.890129	-0.326173
N174	N	0.631140	0.191703	0.439313
H175	H	0.581088	0.212701	0.439353
H176	H	0.660208	0.177197	0.482829
N177	N	0.554109	0.784651	-0.327946
H178	H	0.530697	0.831476	-0.379634
H179	H	0.588043	0.787866	-0.304502
N180	N	0.554137	0.784647	-0.453397
H181	H	0.530706	0.831477	-0.448538
H182	H	0.516990	0.787858	-0.480057
N183	N	0.007569	0.631012	-0.108651
H184	H	0.050380	0.631019	-0.100723
H185	H	-0.028130	0.681282	-0.156607
N186	N	0.642033	-0.001562	0.128685
H187	H	0.598881	-0.000869	0.120373
H188	H	0.645417	0.005464	0.167875
H189	H	0.698151	0.371904	0.326147
N190	N	0.456734	0.882131	0.076820
H191	H	0.483437	0.821546	0.114015
H192	H	0.451816	0.910472	0.100181
N193	N	0.707806	0.882108	-0.174293
H194	H	0.702209	0.839296	-0.137086
H195	H	0.688411	0.928198	-0.168697
N196	N	0.620073	0.513289	-0.503894
H197	H	0.576454	0.543062	-0.543832
H198	H	0.616764	0.477432	-0.457658
N199	N	-0.117873	0.630996	-0.108645
H200	H	-0.089607	0.631004	-0.141759
H201	H	-0.168058	0.681264	-0.136052
H202	H	0.563874	0.999620	-0.435654
N203	N	0.331302	1.007577	0.076838
H204	H	0.383000	0.979284	0.100252
H205	H	0.307878	0.997079	0.113993
N206	N	0.191716	1.070329	0.000022
H207	H	0.191687	1.120407	-0.021007
H208	H	0.191747	1.049246	0.050095
N209	N	0.707824	-0.117889	-0.076806
H210	H	0.731233	-0.089617	-0.100217
H211	H	0.673877	-0.107379	-0.113962
H212	H	0.371886	0.631023	-0.094828
H213	H	0.621423	0.528268	-0.393915
H214	H	0.563967	-0.000382	0.067049
N215	N	0.707823	0.007566	-0.076810
H216	H	0.731236	-0.020714	-0.100220
H217	H	0.744985	-0.002944	-0.042869
H218	H	-0.000370	0.630999	0.094826
N219	N	0.959004	0.379872	0.174282
H220	H	1.010695	0.351598	0.179146
H221	H	0.935562	0.440460	0.147628
N222	N	0.707957	0.254450	0.453384
H223	H	0.731372	0.282725	0.448508
H224	H	0.745119	0.193862	0.480037
H225	H	0.621416	0.137196	-0.112312
H226	H	0.329322	0.999652	-0.435648
H227	H	0.698070	0.262389	-0.067048
H228	H	0.563975	0.371914	0.067043
N229	N	0.707824	0.379870	-0.076827
H230	H	0.731236	0.351587	-0.100235
H231	H	0.744985	0.369368	-0.042893
N232	N	0.554246	0.784654	-0.825683
H233	H	0.502536	0.816979	-0.831361
H234	H	0.559922	0.773387	-0.862855
H235	H	0.563975	0.262418	0.067050
H236	H	1.054501	0.207653	0.423313
N237	N	0.930920	0.254407	0.453392
H238	H	0.979357	0.211595	0.490584
H239	H	0.904240	0.229403	0.458987
H240	H	0.262398	0.631015	-0.094829
N241	N	0.642037	0.123890	0.128685
H242	H	0.645386	0.074337	0.167901
H243	H	0.598883	0.174703	0.120308
N244	N	0.805420	0.379850	0.327961
H245	H	0.810311	0.351564	0.379653
H246	H	0.778767	0.369339	0.304538
N247	N	0.117676	0.532249	-0.033860
H248	H	0.071262	0.539452	-0.031385
H249	H	0.157867	0.472994	0.001130
N250	N	0.707930	0.477347	-0.672043
H251	H	0.674046	0.474043	-0.695448
H252	H	0.731342	0.430571	-0.620341
N253	N	0.018909	0.729767	0.033847
H254	H	0.032139	0.759858	0.044172
H255	H	0.012098	0.693323	0.076654
N256	N	0.303019	0.882136	-0.174286
H257	H	0.276363	0.928186	-0.168632
H258	H	0.351471	0.839304	-0.137122
N259	N	0.144355	0.729778	0.033841
H260	H	0.104202	0.789056	-0.001146
H261	H	0.190795	0.722500	0.031379
N262	N	0.254461	0.630996	0.108649
H263	H	0.204279	0.681264	0.085848
H264	H	0.282794	0.630959	0.141749
N265	N	0.707892	0.477353	-0.546606
H266	H	0.688512	0.445038	-0.540967
H267	H	0.702264	0.488633	-0.509443
N268	N	0.707812	0.477358	-0.174304
H269	H	0.731241	0.430530	-0.179165
H270	H	0.673872	0.474138	-0.147668
