data_functionalizedCrystal
_audit_creation_method	'MofGen! by Chris Wilmer'
_symmetry_space_group_name_H-M	'P1'
_symmetry_Int_Tables_number	1
_symmetry_cell_setting	triclinic
loop_
_symmetry_equiv_pos_as_xyz
  x,y,z
_cell_length_a	11.792254
_cell_length_b	18.266242
_cell_length_c	11.792241
_cell_angle_alpha	89.994757
_cell_angle_beta	95.803993
_cell_angle_gamma	90.008886
loop_
_atom_site_label
_atom_site_type_symbol
_atom_site_fract_x
_atom_site_fract_y
_atom_site_fract_z
O1	O	1.506908	0.060881	-0.155636
O2	O	1.756908	0.310881	0.094364
O3	O	2.006908	0.560881	0.344364
O4	O	2.256908	0.810881	0.594364
O5	O	1.176568	0.060882	-0.171654
O6	O	1.426568	0.310882	0.078346
O7	O	1.676568	0.560882	0.328346
O8	O	1.926568	0.810882	0.578346
O9	O	1.349754	0.060876	0.001525
O10	O	1.599754	0.310876	0.251525
O11	O	1.849754	0.560876	0.501525
O12	O	2.099754	0.810876	0.751525
O13	O	1.333722	0.060887	-0.328815
O14	O	1.583722	0.310887	-0.078815
O15	O	1.833722	0.560887	0.171185
O16	O	2.083722	0.810887	0.421185
O17	O	1.349725	-0.060886	0.001530
O18	O	1.599725	0.189114	0.251530
O19	O	1.849725	0.439114	0.501530
O20	O	2.099725	0.689114	0.751530
O21	O	1.176539	-0.060880	-0.171649
O22	O	1.426539	0.189120	0.078351
O23	O	1.676539	0.439120	0.328351
O24	O	1.926539	0.689120	0.578351
O25	O	1.506878	-0.060881	-0.155631
O26	O	1.756878	0.189119	0.094369
O27	O	2.006878	0.439119	0.344369
O28	O	2.256878	0.689119	0.594369
Zn29	Zn	1.341703	-0.080213	-0.163639
Zn30	Zn	1.591703	0.169787	0.086361
Zn31	Zn	1.841703	0.419787	0.336361
Zn32	Zn	2.091703	0.669787	0.586361
Zn33	Zn	1.341743	0.080214	-0.163646
Zn34	Zn	1.591743	0.330214	0.086354
Zn35	Zn	1.841743	0.580214	0.336354
Zn36	Zn	2.091743	0.830214	0.586354
O37	O	1.333692	-0.060875	-0.328810
O38	O	1.583692	0.189125	-0.078810
O39	O	1.833692	0.439125	0.171190
O40	O	2.083692	0.689125	0.421190
C41	C	1.134263	0.000001	-0.170642
C42	C	1.384263	0.250001	0.079358
C43	C	1.634263	0.500001	0.329358
C44	C	1.884263	0.750001	0.579358
C45	C	1.008250	0.000002	-0.167622
C46	C	1.258250	0.250002	0.082378
C47	C	1.508250	0.500002	0.332378
C48	C	1.758250	0.750002	0.582378
N49	N	1.341685	-0.189700	-0.163634
N50	N	1.591685	0.060300	0.086366
N51	N	1.841685	0.310300	0.336366
N52	N	2.091685	0.560300	0.586366
C53	C	0.905913	0.000005	-0.165168
C54	C	1.155913	0.250005	0.084832
C55	C	1.405913	0.500005	0.334832
C56	C	1.655913	0.750005	0.584832
C57	C	0.777527	0.000005	-0.162100
C58	C	1.027527	0.250005	0.087900
C59	C	1.277527	0.500005	0.337900
C60	C	1.527527	0.750005	0.587900
C61	C	1.410935	-0.228001	-0.232946
C62	C	1.660935	0.021999	0.017054
C63	C	1.910935	0.271999	0.267054
C64	C	2.160935	0.521999	0.517054
C65	C	1.410954	-0.304646	-0.232943
C66	C	1.660954	-0.054646	0.017057
C67	C	1.910954	0.195354	0.267057
C68	C	2.160954	0.445354	0.517057
C69	C	1.341702	-0.342987	-0.163641
C70	C	1.591702	-0.092987	0.086359
C71	C	1.841702	0.157013	0.336359
C72	C	2.091702	0.407013	0.586359
C73	C	1.272447	-0.304677	-0.094315
C74	C	1.522447	-0.054677	0.155685
C75	C	1.772447	0.195323	0.405685
C76	C	2.022447	0.445323	0.655685
C77	C	1.272439	-0.228033	-0.094311
C78	C	1.522439	0.021967	0.155689
C79	C	1.772439	0.271967	0.405689
C80	C	2.022439	0.521967	0.655689
N81	N	1.242270	-0.463339	-0.159925
N82	N	1.492270	-0.213339	0.090075
N83	N	1.742270	0.036661	0.340075
N84	N	1.992270	0.286661	0.590075
N85	N	1.242281	-0.536147	-0.159935
N86	N	1.492281	-0.286147	0.090065
N87	N	1.742281	-0.036147	0.340065
N88	N	1.992281	0.213853	0.590065
C89	C	1.341724	-0.573909	-0.163645
C90	C	1.591724	-0.323909	0.086355
C91	C	1.841724	-0.073909	0.336355
C92	C	2.091724	0.176091	0.586355
N93	N	1.441157	-0.536113	-0.167368
N94	N	1.691157	-0.286113	0.082632
N95	N	1.941157	-0.036113	0.332632
N96	N	2.191157	0.213887	0.582632
N97	N	1.441145	-0.463298	-0.167364
N98	N	1.691145	-0.213298	0.082636
N99	N	1.941145	0.036702	0.332636
N100	N	2.191145	0.286702	0.582636
C101	C	1.341703	-0.426094	-0.163636
C102	C	1.591703	-0.176094	0.086364
C103	C	1.841703	0.073906	0.336364
C104	C	2.091703	0.323906	0.586364
C105	C	1.411000	-0.695317	-0.232958
C106	C	1.661000	-0.445317	0.017042
C107	C	1.911000	-0.195317	0.267042
C108	C	2.161000	0.054683	0.517042
C109	C	1.411022	-0.771963	-0.232946
C110	C	1.661022	-0.521963	0.017054
C111	C	1.911022	-0.271963	0.267054
C112	C	2.161022	-0.021963	0.517054
C113	C	1.272504	-0.771993	-0.094325
C114	C	1.522504	-0.521993	0.155675
C115	C	1.772504	-0.271993	0.405675
C116	C	2.022504	-0.021993	0.655675
C117	C	1.272494	-0.695348	-0.094330
C118	C	1.522494	-0.445348	0.155670
C119	C	1.772494	-0.195348	0.405670
C120	C	2.022494	0.054652	0.655670
C121	C	1.341740	-0.657015	-0.163652
C122	C	1.591740	-0.407015	0.086348
C123	C	1.841740	-0.157015	0.336348
C124	C	2.091740	0.092985	0.586348
C125	C	1.549183	0.000001	-0.156643
C126	C	1.799183	0.250001	0.093357
C127	C	2.049183	0.500001	0.343357
C128	C	2.299183	0.750001	0.593357
C129	C	1.675196	0.000005	-0.159663
C130	C	1.925196	0.250005	0.090337
C131	C	2.175196	0.500005	0.340337
C132	C	2.425196	0.750005	0.590337
C133	C	1.348732	-0.000004	0.043819
C134	C	1.598732	0.249996	0.293819
C135	C	1.848732	0.499996	0.543819
C136	C	2.098732	0.749996	0.793819
C137	C	1.345718	-0.000004	0.169832
C138	C	1.595718	0.249996	0.419832
C139	C	1.845718	0.499996	0.669832
C140	C	2.095718	0.749996	0.919832
N141	N	1.341770	0.189701	-0.163642
N142	N	1.591770	0.439701	0.086358
N143	N	1.841770	0.689701	0.336358
N144	N	2.091770	0.939701	0.586358
C145	C	1.334714	0.000007	-0.371104
C146	C	1.584714	0.250007	-0.121104
C147	C	1.834714	0.500007	0.128896
C148	C	2.084714	0.750007	0.378896
C149	C	1.337728	0.000011	-0.497118
C150	C	1.587728	0.250011	-0.247118
C151	C	1.837728	0.500011	0.002882
C152	C	2.087728	0.750011	0.252882
C153	C	1.340175	0.000009	0.400545
C154	C	1.590175	0.250009	0.650545
C155	C	1.840175	0.500009	0.900545
C156	C	2.090175	0.750009	1.150545
C157	C	1.343255	0.000002	0.272160
C158	C	1.593255	0.250002	0.522160
C159	C	1.843255	0.500002	0.772160
C160	C	2.093255	0.750002	1.022160
H161	H	1.467325	-0.196794	-0.289389
H162	H	1.717325	0.053206	-0.039389
H163	H	1.967325	0.303206	0.210611
H164	H	2.217325	0.553206	0.460611
F165	F	1.484663	-0.345416	-0.306716
F166	F	1.734663	-0.095416	-0.056716
F167	F	1.984663	0.154584	0.193284
F168	F	2.234663	0.404584	0.443284
F169	F	1.198747	-0.345483	-0.020556
F170	F	1.448747	-0.095483	0.229444
F171	F	1.698747	0.154517	0.479444
F172	F	1.948747	0.404517	0.729444
H173	H	1.216098	-0.664163	-0.037893
H174	H	1.466098	-0.414163	0.212107
H175	H	1.716098	-0.164163	0.462107
H176	H	1.966098	0.085837	0.712107
F177	F	1.198725	-0.187269	-0.020541
F178	F	1.448725	0.062731	0.229459
F179	F	1.698725	0.312731	0.479459
F180	F	1.948725	0.562731	0.729459
H181	H	1.467386	-0.664104	-0.289403
H182	H	1.717386	-0.414104	-0.039403
H183	H	1.967386	-0.164104	0.210597
H184	H	2.217386	0.085896	0.460597
F185	F	1.198811	-0.812793	-0.020557
F186	F	1.448811	-0.562793	0.229443
F187	F	1.698811	-0.312793	0.479443
F188	F	1.948811	-0.062793	0.729443
H189	H	1.467421	-0.803147	-0.289385
H190	H	1.717421	-0.553147	-0.039385
H191	H	1.967421	-0.303147	0.210615
H192	H	2.217421	-0.053147	0.460615
