data_functionalizedCrystal
_audit_creation_method	'MofGen! by Chris Wilmer'
_symmetry_space_group_name_H-M	'P1'
_symmetry_Int_Tables_number	1
_symmetry_cell_setting	triclinic
loop_
_symmetry_equiv_pos_as_xyz
  x,y,z
_cell_length_a	13.033293
_cell_length_b	13.897448
_cell_length_c	13.032268
_cell_angle_alpha	97.148041
_cell_angle_beta	89.079182
_cell_angle_gamma	97.187372
loop_
_atom_site_label
_atom_site_type_symbol
_atom_site_fract_x
_atom_site_fract_y
_atom_site_fract_z
Zn1	Zn	1.498462	-0.300097	-0.781480
Zn2	Zn	1.998462	0.199903	-0.281480
Zn3	Zn	1.520205	-0.438715	-0.609506
Zn4	Zn	2.020205	0.061285	-0.109506
Zn5	Zn	1.348322	-0.295004	-0.587656
Zn6	Zn	1.848322	0.204996	-0.087656
Zn7	Zn	1.326456	-0.478925	-0.759546
Zn8	Zn	1.826456	0.021075	-0.259546
O9	O	1.423361	-0.378185	-0.684547
O10	O	1.923361	0.121815	-0.184547
O11	O	1.645265	-0.303789	-0.776992
O12	O	2.145265	0.196211	-0.276992
O13	O	1.515655	-0.400691	-0.462699
O14	O	2.015655	0.099309	0.037301
O15	O	1.368291	-0.160696	-0.613402
O16	O	1.868291	0.339304	-0.113402
O17	O	1.661239	-0.405630	-0.650643
O18	O	2.161239	0.094370	-0.150643
O19	O	1.478598	-0.164438	-0.755804
O20	O	1.978598	0.335562	-0.255804
O21	O	1.389374	-0.295107	-0.446646
O22	O	1.889374	0.204893	0.053354
O23	O	1.201503	-0.334098	-0.592134
O24	O	1.701503	0.165902	-0.092134
O25	O	1.331022	-0.474163	-0.906364
O26	O	1.831022	0.025837	-0.406364
O27	O	1.185438	-0.469224	-0.718420
O28	O	1.685438	0.030776	-0.218420
O29	O	1.457394	-0.342779	-0.922479
O30	O	1.957394	0.157221	-0.422479
O31	O	1.494452	-0.579032	-0.629374
O32	O	1.994452	-0.079032	-0.129374
O33	O	1.352105	-0.608575	-0.739608
O34	O	1.852105	-0.108575	-0.239608
C35	C	1.156154	-0.405472	-0.650526
C36	C	1.656154	0.094528	-0.150526
C37	C	1.041838	-0.417172	-0.635996
C38	C	1.541838	0.082828	-0.135996
C39	C	0.982956	-0.372103	-0.692130
C40	C	1.482956	0.127897	-0.192130
C41	C	0.864805	-0.384195	-0.677114
C42	C	1.364805	0.115805	-0.177114
C43	C	1.423290	-0.628803	-0.684508
C44	C	1.923290	-0.128803	-0.184508
C45	C	1.423349	-0.736014	-0.684537
C46	C	1.923349	-0.236014	-0.184537
C47	C	1.423449	-0.932306	-0.684616
C48	C	1.923449	-0.432306	-0.184616
C49	C	1.423390	-0.823076	-0.684575
C50	C	1.923390	-0.323076	-0.184575
C51	C	1.691612	-0.350792	-0.718701
C52	C	2.191612	0.149208	-0.218701
C53	C	1.805925	-0.339119	-0.733256
C54	C	2.305925	0.160881	-0.233256
C55	C	1.389344	-0.413525	-0.952779
C56	C	1.889344	0.086475	-0.452779
C57	C	1.374847	-0.428585	-1.067083
C58	C	1.874847	0.071415	-0.567083
C59	C	1.423458	-0.126589	-0.684613
C60	C	1.923458	0.373411	-0.184613
C61	C	1.423499	-0.019373	-0.684641
C62	C	1.923499	0.480627	-0.184641
C63	C	1.430911	-0.370293	-1.126017
C64	C	1.930911	0.129707	-0.626017
C65	C	1.415930	-0.385856	-1.244156
C66	C	1.915930	0.114144	-0.744156
C67	C	1.457306	-0.342907	-0.417367
C68	C	1.957306	0.157093	0.082633
C69	C	1.472001	-0.327556	-0.303088
C70	C	1.972001	0.172444	0.196912
H71	H	0.827749	-0.431733	-0.617933
H72	H	1.327749	0.068267	-0.117933
H73	H	0.842979	-0.291573	-0.792430
H74	H	1.342979	0.208427	-0.292430
H75	H	1.020017	-0.324562	-0.751301
H76	H	1.520017	0.175438	-0.251301
C77	C	1.551832	-0.244565	-1.253113
C78	C	2.051832	0.255435	-0.753113
H79	H	1.551435	-0.244993	-1.180267
H80	H	2.051435	0.255007	-0.680267
H81	H	1.534597	-0.183587	-1.268769
H82	H	2.034597	0.316413	-0.768769
H83	H	1.618721	-0.253929	-1.279461
H84	H	2.118721	0.246071	-0.779461
C85	C	0.991789	-0.481392	-0.556053
C86	C	1.491789	0.018608	-0.056053
H87	H	1.044052	-0.508095	-0.522777
H88	H	1.544052	-0.008095	-0.022777
H89	H	0.944897	-0.532907	-0.590023
H90	H	1.444897	-0.032907	-0.090023
H91	H	0.955553	-0.442784	-0.506021
H92	H	1.455553	0.057216	-0.006021
H93	H	1.489996	-0.308861	-1.089009
H94	H	1.989996	0.191139	-0.589009
H95	H	1.315751	-0.490007	-1.104089
H96	H	1.815751	0.009993	-0.604089
H97	H	1.356830	-0.447283	-1.281158
H98	H	1.856830	0.052717	-0.781158
