data_functionalizedCrystal
_audit_creation_method	'MofGen! by Chris Wilmer'
_symmetry_space_group_name_H-M	'P1'
_symmetry_Int_Tables_number	1
_symmetry_cell_setting	triclinic
loop_
_symmetry_equiv_pos_as_xyz
  x,y,z
_cell_length_a	27.732048
_cell_length_b	11.792241
_cell_length_c	10.268362
_cell_angle_alpha	89.999626
_cell_angle_beta	90.010224
_cell_angle_gamma	96.581964
loop_
_atom_site_label
_atom_site_type_symbol
_atom_site_fract_x
_atom_site_fract_y
_atom_site_fract_z
O1	O	0.066248	-1.504790	0.108189
O2	O	0.073076	-1.174230	0.108221
O3	O	-0.000675	-1.349776	0.108179
O4	O	0.139999	-1.329243	0.108231
O5	O	-0.000678	-1.349761	-0.108421
O6	O	0.073073	-1.174215	-0.108379
O7	O	0.066245	-1.504775	-0.108411
Cu8	Cu	0.069659	-1.339493	-0.128173
Cu9	Cu	0.069662	-1.339511	0.127983
O10	O	0.139996	-1.329228	-0.108370
C11	C	0.072645	-1.131945	-0.000075
C12	C	0.071362	-1.005973	-0.000064
C13	C	-0.018686	-1.349338	-0.000124
C14	C	-0.072348	-1.348040	-0.000135
C15	C	0.066676	-1.547059	-0.000112
C16	C	0.067959	-1.673032	-0.000114
C17	C	-0.410609	-1.443606	-0.000077
C18	C	-0.612297	-1.438790	-0.000059
O19	O	-0.643045	-1.526178	-0.000010
N20	N	-0.632024	-1.334698	-0.000050
C21	C	-0.601327	-1.231803	-0.000037
O22	O	-0.622734	-1.143157	-0.000016
C23	C	-0.399640	-1.236620	-0.000046
C24	C	-0.379915	-1.340718	-0.000069
C25	C	-0.390884	-1.547695	-0.000098
C26	C	-0.340465	-1.548898	-0.000110
C27	C	-0.309771	-1.446011	-0.000101
C28	C	-0.329496	-1.341921	-0.000080
C29	C	-0.368943	-1.133726	-0.000024
C30	C	-0.318519	-1.134940	-0.000023
C31	C	-0.298794	-1.239038	-0.000045
C32	C	-0.248384	-1.240237	-0.000083
N33	N	-0.228656	-1.344328	-0.000092
C34	C	-0.259350	-1.447215	-0.000101
C35	C	-0.707215	-1.229282	-0.000035
C36	C	-0.757637	-1.228077	-0.000035
C37	C	-0.768603	-1.435065	-0.000054
C38	C	-0.718181	-1.436268	-0.000063
C39	C	-0.687488	-1.333374	-0.000044
C40	C	-0.153466	-1.449733	-0.000127
C41	C	-0.103042	-1.450927	-0.000144
C42	C	-0.092080	-1.243941	-0.000118
C43	C	-0.142500	-1.242746	-0.000108
C44	C	-0.173192	-1.345652	-0.000108
O45	O	-0.217607	-1.152896	-0.000117
O46	O	-0.237933	-1.535849	-0.000093
C47	C	-0.461028	-1.442403	-0.000066
C48	C	-0.480753	-1.338313	-0.000045
C49	C	-0.450060	-1.235426	-0.000036
C50	C	-0.531175	-1.337108	-0.000045
C51	C	-0.561868	-1.439996	-0.000054
C52	C	-0.542141	-1.544087	-0.000063
C53	C	-0.491722	-1.545290	-0.000074
C54	C	-0.469787	-1.131334	-0.000027
C55	C	-0.520207	-1.130140	-0.000017
C56	C	-0.550900	-1.233027	-0.000026
C57	C	0.158007	-1.329667	-0.000063
C58	C	0.211669	-1.330965	-0.000044
N59	N	0.069656	-1.339489	-0.308339
C60	C	0.069001	-0.775336	-0.000103
C61	C	0.070313	-0.903679	-0.000082
C62	C	0.069661	-1.339506	-0.574009
C63	C	0.069660	-1.339493	-0.426171
N64	N	0.069661	-1.339525	0.308148
H65	H	-0.086985	-1.535700	-0.000165
C66	C	-0.541897	-1.015615	0.000006
N67	N	-0.558233	-0.929357	0.000036
H68	H	-0.324410	-1.633666	-0.000122
C69	C	-0.436030	-1.018143	-0.000015
N70	N	-0.410606	-0.932880	-0.000011
H71	H	-0.067080	-1.160173	-0.000115
C72	C	-0.779328	-1.113561	-0.000027
N73	N	-0.795664	-1.027304	-0.000012
H74	H	-0.384994	-1.048958	0.000001
C75	C	-0.187220	-1.562935	-0.000139
N76	N	-0.212644	-1.648199	-0.000159
C77	C	-0.424640	-1.660890	-0.000122
N78	N	-0.450062	-1.746156	-0.000154
H79	H	-0.682229	-1.145488	-0.000019
H80	H	-0.702125	-1.521034	-0.000080
H81	H	-0.793603	-1.518839	-0.000062
H82	H	-0.293530	-1.051148	-0.000006
H83	H	-0.158560	-1.157981	-0.000126
C84	C	-0.575913	-1.657263	-0.000070
N85	N	-0.601353	-1.742503	-0.000068
H86	H	-0.475667	-1.630058	-0.000092
