data_functionalizedCrystal
_audit_creation_method	'MofGen! by Chris Wilmer'
_symmetry_space_group_name_H-M	'P1'
_symmetry_Int_Tables_number	1
_symmetry_cell_setting	triclinic
loop_
_symmetry_equiv_pos_as_xyz
  x,y,z
_cell_length_a	10.654550
_cell_length_b	10.489741
_cell_length_c	9.730223
_cell_angle_alpha	89.998920
_cell_angle_beta	89.996251
_cell_angle_gamma	84.512038
loop_
_atom_site_label
_atom_site_type_symbol
_atom_site_fract_x
_atom_site_fract_y
_atom_site_fract_z
O1	O	1.667918	0.179156	-0.114402
O2	O	1.302447	0.196226	-0.114380
O3	O	1.493499	0.002089	-0.114383
O4	O	1.476867	0.373293	-0.114399
O5	O	1.493497	0.002094	0.114196
O6	O	1.302445	0.196231	0.114200
O7	O	1.667916	0.179161	0.114178
Zn8	Zn	1.485180	0.187697	0.150481
Zn9	Zn	1.485183	0.187690	-0.150683
O10	O	1.476864	0.373298	0.114181
C11	C	1.255648	0.194975	-0.000087
C12	C	1.116203	0.191225	-0.000079
C13	C	1.492241	-0.045439	-0.000094
C14	C	1.488483	-0.187067	-0.000096
C15	C	1.036771	0.305530	-0.000103
C16	C	0.905748	0.301999	-0.000127
C17	C	0.933603	0.069849	-0.000107
C18	C	1.064623	0.073381	-0.000073
C19	C	1.088351	0.423374	-0.000109
C20	C	1.008917	0.537688	-0.000135
C21	C	0.877895	0.534157	-0.000159
C22	C	0.826306	0.416312	-0.000156
C23	C	1.366923	-0.255148	-0.000099
C24	C	1.424346	-0.347296	0.112599
C25	C	1.424377	-0.347276	-0.112763
C26	C	1.545956	-0.277350	0.112695
C27	C	1.545970	-0.277319	-0.112768
C28	C	1.603481	-0.369440	-0.000043
C29	C	1.714715	0.180412	-0.000118
C30	C	1.854160	0.184162	-0.000136
C31	C	1.478122	0.420826	-0.000111
C32	C	1.481880	0.562454	-0.000118
N33	N	1.485187	0.187700	0.356017
N34	N	1.485186	0.187677	-0.356220
C35	C	1.569807	0.101766	0.427942
C36	C	1.569803	0.101751	0.571825
C37	C	1.400557	0.273615	0.571846
C38	C	1.400555	0.273623	0.427966
C39	C	1.654439	0.015843	0.355993
C40	C	1.739066	-0.070097	0.427918
C41	C	1.739063	-0.070113	0.571801
C42	C	1.654432	0.015812	0.643759
H43	H	1.195034	0.426262	-0.000096
N44	N	0.880908	-0.050518	-0.000145
N45	N	0.904891	-0.127841	-0.096495
H46	H	0.867676	-0.212853	-0.096528
H47	H	1.331655	0.343573	0.630444
H48	H	1.129299	-0.019696	-0.000057
H49	H	1.331649	0.343598	0.369404
N50	N	1.825425	-0.157926	0.354394
N51	N	1.822553	-0.275838	0.370458
H52	H	1.883515	-0.337888	0.318517
N53	N	1.061608	0.658057	-0.000102
N54	N	1.131586	0.685928	0.096268
H55	H	1.168797	0.770942	0.096296
N56	N	0.796773	0.650930	-0.000164
N57	N	0.842848	0.756132	-0.000160
H58	H	0.785559	0.838609	-0.000168
N59	N	0.692470	0.412695	-0.000132
N60	N	0.627764	0.462934	0.096221
H61	H	0.533244	0.460378	0.096242
H62	H	1.654428	0.015784	0.760919
H63	H	1.597362	-0.246302	-0.208058
N64	N	1.728970	-0.431512	0.000052
N65	N	1.764806	-0.505495	0.095969
H66	H	1.853432	-0.549336	0.096044
H67	H	1.266977	-0.205449	0.000020
N68	N	1.359814	-0.386113	-0.232273
N69	N	1.247311	-0.344928	-0.252314
H70	H	1.201703	-0.372353	-0.336712
N71	N	1.654415	0.015863	0.209023
N72	N	1.578848	0.092593	0.144818
H73	H	1.578829	0.092611	0.041019
H74	H	1.372910	-0.378281	0.207883
H75	H	1.597345	-0.246540	0.208079
N76	N	1.825497	-0.157915	0.645251
N77	N	1.901044	-0.234625	0.580989
H78	H	1.962095	-0.296637	0.632859
