data_functionalizedCrystal
_audit_creation_method	'MofGen! by Chris Wilmer'
_symmetry_space_group_name_H-M	'P1'
_symmetry_Int_Tables_number	1
_symmetry_cell_setting	triclinic
loop_
_symmetry_equiv_pos_as_xyz
  x,y,z
_cell_length_a	10.686220
_cell_length_b	13.897441
_cell_length_c	10.685194
_cell_angle_alpha	85.599334
_cell_angle_beta	99.069756
_cell_angle_gamma	94.349245
loop_
_atom_site_label
_atom_site_type_symbol
_atom_site_fract_x
_atom_site_fract_y
_atom_site_fract_z
Zn1	Zn	1.901856	-0.413132	-0.356270
Zn2	Zn	2.401856	0.086868	0.143730
Zn3	Zn	1.885479	-0.240349	-0.568587
Zn4	Zn	2.385479	0.259651	-0.068587
Zn5	Zn	1.689589	-0.263321	-0.372632
Zn6	Zn	2.189589	0.236679	0.127368
Zn7	Zn	1.673339	-0.413074	-0.584796
Zn8	Zn	2.173339	0.086926	-0.084796
O9	O	1.787566	-0.332469	-0.470571
O10	O	2.287566	0.167531	0.029429
O11	O	2.077299	-0.380622	-0.370803
O12	O	2.577299	0.119378	0.129197
O13	O	1.859441	-0.108414	-0.542657
O14	O	2.359441	0.391586	-0.042657
O15	O	1.731401	-0.292832	-0.192814
O16	O	2.231401	0.207168	0.307186
O17	O	2.065268	-0.253679	-0.526792
O18	O	2.565268	0.246321	-0.026792
O19	O	1.887352	-0.402898	-0.180793
O20	O	2.387352	0.097102	0.319207
O21	O	1.715521	-0.125292	-0.398689
O22	O	2.215521	0.374708	0.101311
O23	O	1.509817	-0.292776	-0.414407
O24	O	2.009817	0.207224	0.085593
O25	O	1.703705	-0.548064	-0.554418
O26	O	2.203705	-0.048064	-0.054418
O27	O	1.497878	-0.402799	-0.570283
O28	O	1.997878	0.097201	-0.070283
O29	O	1.871595	-0.548107	-0.386520
O30	O	2.371595	-0.048107	0.113480
O31	O	1.843684	-0.253623	-0.748385
O32	O	2.343684	0.246377	-0.248385
O33	O	1.687825	-0.380523	-0.760293
O34	O	2.187825	0.119477	-0.260293
C35	C	1.457794	-0.350275	-0.495880
C36	C	1.957794	0.149725	0.004120
C37	C	1.316714	-0.357913	-0.506738
C38	C	1.816714	0.142087	-0.006738
C39	C	1.787664	-0.584063	-0.470452
C40	C	2.287664	-0.084063	0.029548
C41	C	1.787706	-0.691278	-0.470401
C42	C	2.287706	-0.191278	0.029599
C43	C	1.787747	-0.887576	-0.470313
C44	C	2.287747	-0.387576	0.029687
C45	C	1.787720	-0.778342	-0.470366
C46	C	2.287720	-0.278342	0.029634
C47	C	2.118625	-0.314595	-0.445164
C48	C	2.618625	0.185405	0.054836
C49	C	2.259703	-0.306978	-0.434337
C50	C	2.759703	0.193022	0.065663
C51	C	1.762248	-0.314593	-0.800398
C52	C	2.262248	0.185407	-0.300398
C53	C	1.751534	-0.306972	-0.941491
C54	C	2.251534	0.193028	-0.441491
C55	C	1.787547	-0.081855	-0.470593
C56	C	2.287547	0.418145	0.029407
C57	C	1.787779	0.025353	-0.470267
C58	C	2.287779	0.525353	0.029733
C59	C	1.813016	-0.350434	-0.139454
C60	C	2.313016	0.149566	0.360546
C61	C	1.823862	-0.358090	0.001649
C62	C	2.323862	0.141910	0.501649
H63	H	1.893984	-0.407689	-0.939093
H64	H	2.393984	0.092311	-0.439093
N65	N	1.663572	-0.244746	-1.015852
N66	N	2.163572	0.255254	-0.515852
N67	N	1.702721	-0.176946	-1.086444
N68	N	2.202721	0.323054	-0.586444
H69	H	1.640602	-0.132998	-1.138966
H70	H	2.140602	0.367002	-0.638966
N71	N	1.333879	-0.244938	-0.346164
N72	N	1.833879	0.255062	0.153836
N73	N	1.452223	-0.238611	-0.337172
N74	N	1.952223	0.261389	0.162828
H75	H	1.504619	-0.194794	-0.274900
H76	H	2.004619	0.305206	0.225100
H77	H	1.257585	-0.407362	-0.577042
H78	H	1.757585	0.092638	-0.077042
