data_functionalizedCrystal
_audit_creation_method	'MofGen! by Chris Wilmer'
_symmetry_space_group_name_H-M	'P1'
_symmetry_Int_Tables_number	1
_symmetry_cell_setting	triclinic
loop_
_symmetry_equiv_pos_as_xyz
  x,y,z
_cell_length_a	27.435584
_cell_length_b	27.434948
_cell_length_c	27.431174
_cell_angle_alpha	60.005483
_cell_angle_beta	60.011353
_cell_angle_gamma	59.993028
loop_
_atom_site_label
_atom_site_type_symbol
_atom_site_fract_x
_atom_site_fract_y
_atom_site_fract_z
O1	O	0.067437	-0.712144	0.595551
O2	O	0.400771	-0.378811	0.928884
O3	O	0.734104	-0.045477	1.262218
O4	O	0.025356	-0.554453	0.479848
O5	O	0.358689	-0.221119	0.813182
O6	O	0.692023	0.112214	1.146515
O7	O	0.125206	-0.654236	0.479781
O8	O	0.458539	-0.320902	0.813114
O9	O	0.791872	0.012431	1.146448
O10	O	-0.032412	-0.612361	0.595618
O11	O	0.300921	-0.279027	0.928952
O12	O	0.634255	0.054306	1.262285
O13	O	0.158328	-0.621117	0.512835
O14	O	0.491661	-0.287783	0.846168
O15	O	0.824995	0.045550	1.179501
O16	O	0.058479	-0.521333	0.512902
O17	O	0.391812	-0.188000	0.846235
O18	O	0.725145	0.145333	1.179569
O19	O	0.100560	-0.679025	0.628605
O20	O	0.433893	-0.345691	0.961938
O21	O	0.767227	-0.012358	1.295271
Zn22	Zn	0.084778	-0.594921	0.576001
Zn23	Zn	0.418112	-0.261587	0.909335
Zn24	Zn	0.751445	0.071746	1.242668
Zn25	Zn	0.041138	-0.638557	0.532452
Zn26	Zn	0.374471	-0.305223	0.865785
Zn27	Zn	0.707805	0.028110	1.199118
O28	O	0.000710	-0.579241	0.628672
O29	O	0.334044	-0.245908	0.962005
O30	O	0.667377	0.087425	1.295339
N31	N	0.114563	-0.565144	0.605726
N32	N	0.447896	-0.231811	0.939059
N33	N	0.781229	0.101523	1.272392
N34	N	0.011358	-0.668338	0.502727
N35	N	0.344692	-0.335005	0.836061
N36	N	0.678025	-0.001672	1.169394
C37	C	0.156385	-0.523520	0.904506
C38	C	0.489719	-0.190186	1.237839
C39	C	0.823052	0.143147	1.571172
C40	C	0.413419	-0.523497	0.647322
C41	C	0.746752	-0.190163	0.980655
C42	C	1.080086	0.143170	1.313989
C43	C	0.156253	-0.523488	0.647384
C44	C	0.489586	-0.190155	0.980718
C45	C	0.822920	0.143179	1.314051
C46	C	0.156238	-0.266354	0.647407
C47	C	0.489571	0.066979	0.980740
C48	C	0.822905	0.400312	1.314074
C49	C	0.197637	-0.390463	0.688753
C50	C	0.530970	-0.057129	1.022086
C51	C	0.864304	0.276204	1.355419
C52	C	0.197646	-0.482126	0.688741
C53	C	0.530979	-0.148792	1.022075
C54	C	0.864312	0.184541	1.355408
C55	C	0.220575	-0.459215	0.711654
C56	C	0.553908	-0.125882	1.044988
C57	C	0.887242	0.207451	1.378321
C58	C	0.320555	-0.441991	0.659023
C59	C	0.653888	-0.108658	0.992356
C60	C	0.987221	0.224676	1.325690
C61	C	0.383051	-0.462825	0.638179
C62	C	0.716384	-0.129491	0.971512
C63	C	1.049717	0.203842	1.304845
C64	C	0.383069	-0.563942	0.676737
C65	C	0.716403	-0.230609	1.010071
C66	C	1.049736	0.102725	1.343404
C67	C	0.320575	-0.543107	0.697583
C68	C	0.653908	-0.209773	1.030917
C69	C	0.987242	0.123560	1.364250
C70	C	0.212704	-0.359206	0.627313
C71	C	0.546037	-0.025873	0.960646
C72	C	0.879371	0.307461	1.293980
C73	C	0.191849	-0.296705	0.606496
C74	C	0.525183	0.036628	0.939830
C75	C	0.858516	0.369961	1.273163
C76	C	0.140866	-0.296722	0.708562
C77	C	0.474199	0.036611	1.041895
C78	C	0.807533	0.369944	1.375229
C79	C	0.161721	-0.359223	0.729379
C80	C	0.495054	-0.025890	1.062712
C81	C	0.828387	0.307444	1.396045
C82	C	0.136200	-0.467030	0.703858
C83	C	0.469534	-0.133696	1.037191
C84	C	0.802867	0.199637	1.370524
C85	C	0.115361	-0.487857	0.683021
C86	C	0.448695	-0.154524	1.016355
C87	C	0.782028	0.178810	1.349688
C88	C	0.217408	-0.538877	0.631968
C89	C	0.550741	-0.205544	0.965301
C90	C	0.884075	0.127789	1.298634
C91	C	0.238249	-0.518050	0.652796
C92	C	0.571583	-0.184716	0.986130
C93	C	0.904916	0.148617	1.319463
C94	C	0.136259	-0.467047	0.811668
C95	C	0.469592	-0.133714	1.145001
C96	C	0.802926	0.199620	1.478335
C97	C	0.115461	-0.487892	0.874167
C98	C	0.448794	-0.154559	1.207500
C99	C	0.782127	0.178775	1.540833
C100	C	0.217537	-0.538923	0.874131
C101	C	0.550870	-0.205590	1.207465
C102	C	0.884203	0.127744	1.540798
C103	C	0.238333	-0.518080	0.811631
C104	C	0.571667	-0.184746	1.144965
C105	C	0.905000	0.148587	1.478298
C106	C	0.197693	-0.482140	0.780401
C107	C	0.531026	-0.148806	1.113735
C108	C	0.864360	0.184527	1.447068
C109	C	0.289320	-0.482131	0.688723
C110	C	0.622653	-0.148797	1.022057
C111	C	0.955986	0.184536	1.355390
C112	C	0.132699	-0.546027	0.973247
C113	C	0.466032	-0.212694	1.306581
C114	C	0.799366	0.120639	1.639914
C115	C	0.482158	-0.545613	0.624075
C116	C	0.815492	-0.212279	0.957408
C117	C	1.148825	0.121054	1.290742
C118	C	0.132521	-0.546006	0.624886
C119	C	0.465854	-0.212673	0.958220
C120	C	0.799188	0.120660	1.291553
C121	C	0.132917	-0.197607	0.625310
C122	C	0.466250	0.135726	0.958643
C123	C	0.799583	0.469059	1.291976
C124	C	-0.098217	-0.686189	0.484419
C125	C	0.235117	-0.352855	0.817752
C126	C	0.568450	-0.019522	1.151086
C127	C	-0.006438	-0.686322	0.392891
C128	C	0.326896	-0.352988	0.726225
C129	C	0.660229	-0.019655	1.059558
C130	C	-0.006621	-0.777944	0.484592
C131	C	0.326712	-0.444610	0.817925
C132	C	0.660045	-0.111277	1.151258
C133	C	-0.006606	-0.686315	0.484649
C134	C	0.326727	-0.352982	0.817982
C135	C	0.660061	-0.019649	1.151316
C136	C	-0.029470	-0.709193	0.461638
C137	C	0.303863	-0.375860	0.794972
C138	C	0.637197	-0.042527	1.128305
N139	N	0.538410	-0.565162	0.605628
N140	N	0.871743	-0.231828	0.938961
N141	N	1.205076	0.101505	1.272294
O142	O	0.742647	-0.575135	0.458625
O143	O	1.075981	-0.241801	0.791959
O144	O	1.409314	0.091532	1.125292
O145	O	0.742821	-0.691181	0.616169
O146	O	1.076154	-0.357848	0.949503
O147	O	1.409487	-0.024514	1.282836
O148	O	0.742757	-0.690917	0.516248
O149	O	1.076090	-0.357584	0.849582
O150	O	1.409424	-0.024250	1.182915
O151	O	0.742711	-0.575399	0.558546
O152	O	1.076044	-0.242066	0.891879
O153	O	1.409378	0.091268	1.225213
O154	O	0.643472	-0.657878	0.549405
O155	O	0.976805	-0.324544	0.882738
O156	O	1.310139	0.008789	1.216071
O157	O	0.643536	-0.658142	0.649326
O158	O	0.976869	-0.324809	0.982659
O159	O	1.310202	0.008525	1.315992
O160	O	0.643362	-0.542096	0.491782
O161	O	0.976696	-0.208762	0.825115
O162	O	1.310029	0.124571	1.158448
Zn163	Zn	0.627685	-0.594873	0.575818
Zn164	Zn	0.961019	-0.261540	0.909151
Zn165	Zn	1.294352	0.071794	1.242485
Zn166	Zn	0.758498	-0.638404	0.532133
Zn167	Zn	1.091831	-0.305070	0.865466
Zn168	Zn	1.425164	0.028263	1.198800
O169	O	0.643426	-0.542360	0.591702
O170	O	0.976759	-0.209026	0.925036
O171	O	1.310093	0.124307	1.258369
N172	N	0.847774	-0.668115	0.502317
N173	N	1.181107	-0.334782	0.835650
N174	N	1.514440	-0.001448	1.168984
N175	N	0.114542	-0.141354	0.605766
N176	N	0.447876	0.191979	0.939099
N177	N	0.781209	0.525312	1.272432
O178	O	-0.032397	0.062987	0.595660
O179	O	0.300937	0.396321	0.928994
O180	O	0.634270	0.729654	1.262327
O181	O	0.125155	0.062987	0.479633
O182	O	0.458489	0.396321	0.812967
O183	O	0.791822	0.729654	1.146300
O184	O	0.025219	0.062974	0.479910
O185	O	0.358553	0.396307	0.813244
O186	O	0.691886	0.729640	1.146577
O187	O	0.067539	0.063001	0.595383
O188	O	0.400873	0.396334	0.928717
O189	O	0.734206	0.729668	1.262050
O190	O	0.058343	-0.036320	0.513009
O191	O	0.391677	0.297014	0.846342
O192	O	0.725010	0.630347	1.179675
O193	O	0.158279	-0.036306	0.512732
O194	O	0.491613	0.297027	0.846065
O195	O	0.824946	0.630361	1.179398
O196	O	0.000728	-0.036306	0.628759
O197	O	0.334061	0.297027	0.962092
O198	O	0.667394	0.630361	1.295425
Zn199	Zn	0.084763	-0.052071	0.576000
Zn200	Zn	0.418096	0.281262	0.909334
Zn201	Zn	0.751429	0.614596	1.242667
Zn202	Zn	0.041120	0.078752	0.532392
Zn203	Zn	0.374453	0.412086	0.865725
Zn204	Zn	0.707787	0.745419	1.199058
O205	O	0.100664	-0.036292	0.628482
O206	O	0.433997	0.297041	0.961815
O207	O	0.767330	0.630374	1.295148
N208	N	0.011333	0.168036	0.502628
N209	N	0.344666	0.501369	0.835961
N210	N	0.678000	0.834702	1.169294
N211	N	0.114782	-0.565197	1.029501
N212	N	0.448115	-0.231864	1.362835
N213	N	0.781449	0.101470	1.696168
O214	O	0.104681	-0.712124	1.233827
O215	O	0.438015	-0.378791	1.567161
O216	O	0.771348	-0.045457	1.900494
O217	O	-0.011334	-0.554523	1.233839
O218	O	0.322000	-0.221189	1.567172
O219	O	0.655333	0.112144	1.900506
O220	O	-0.011066	-0.654443	1.233797
O221	O	0.322267	-0.321109	1.567131
O222	O	0.655601	0.012224	1.900464
O223	O	0.104414	-0.612204	1.233869
O224	O	0.437747	-0.278871	1.567202
O225	O	0.771081	0.054462	1.900536
O226	O	0.022028	-0.621336	1.134509
O227	O	0.355361	-0.288003	1.467842
O228	O	0.688695	0.045330	1.801176
O229	O	0.021760	-0.521417	1.134551
O230	O	0.355094	-0.188083	1.467884
O231	O	0.688427	0.145250	1.801217
O232	O	0.137775	-0.679018	1.134539
O233	O	0.471109	-0.345685	1.467872
O234	O	0.804442	-0.012351	1.801205
Zn235	Zn	0.085022	-0.594961	1.118780
Zn236	Zn	0.418356	-0.261628	1.452114
Zn237	Zn	0.751689	0.071706	1.785447
Zn238	Zn	0.041420	-0.638580	1.249597
Zn239	Zn	0.374753	-0.305246	1.582931
Zn240	Zn	0.708086	0.028087	1.916264
O241	O	0.137508	-0.579098	1.134580
O242	O	0.470841	-0.245765	1.467914
O243	O	0.804174	0.087568	1.801247
N244	N	0.011658	-0.668350	1.338876
N245	N	0.344992	-0.335017	1.672210
N246	N	0.678325	-0.001683	2.005543
C247	C	0.037974	-0.518023	0.480435
C248	C	0.371308	-0.184689	0.813769
C249	C	0.704641	0.148644	1.147102
C250	C	0.161625	-0.641592	0.480351
C251	C	0.494959	-0.308259	0.813685
C252	C	0.828292	0.025074	1.147018
C253	C	0.087941	-0.715455	0.628017
C254	C	0.421275	-0.382122	0.961351
C255	C	0.754608	-0.048788	1.294684
C256	C	-0.035710	-0.591885	0.628101
C257	C	0.297624	-0.258552	0.961435
C258	C	0.630957	0.074781	1.294768
C259	C	0.693199	-0.690642	0.652596
C260	C	1.026532	-0.357309	0.985929
C261	C	1.359865	-0.023975	1.319262
C262	C	0.693122	-0.690315	0.528855
C263	C	1.026455	-0.356982	0.862189
C264	C	1.359788	-0.023649	1.195522
C265	C	0.692981	-0.542634	0.455356
C266	C	1.026315	-0.209300	0.788690
C267	C	1.359648	0.124033	1.122023
C268	C	0.693062	-0.542961	0.579095
C269	C	1.026396	-0.209628	0.912429
C270	C	1.359729	0.123705	1.245762
C271	C	0.161524	0.013463	0.480164
C272	C	0.494858	0.346796	0.813497
C273	C	0.828191	0.680130	1.146830
C274	C	0.037807	0.013324	0.480547
C275	C	0.371140	0.346657	0.813880
C276	C	0.704474	0.679991	1.147214
C277	C	-0.035683	0.013341	0.628188
C278	C	0.297650	0.346675	0.961521
C279	C	0.630984	0.680008	1.294854
C280	C	0.088076	0.013357	0.627845
C281	C	0.421410	0.346690	0.961179
C282	C	0.754743	0.680023	1.294512
C283	C	-0.010764	-0.518114	1.184196
C284	C	0.322570	-0.184781	1.517529
C285	C	0.655903	0.148552	1.850863
C286	C	-0.010426	-0.641846	1.184125
C287	C	0.322908	-0.308513	1.517458
C288	C	0.656241	0.024820	1.850792
C289	C	0.137205	-0.715426	1.184182
C290	C	0.470539	-0.382093	1.517515
C291	C	0.803872	-0.048760	1.850849
C292	C	0.136875	-0.591687	1.184231
C293	C	0.470208	-0.258354	1.517564
C294	C	0.803541	0.074980	1.850898
H295	H	0.065433	-0.475593	0.899616
H296	H	0.398766	-0.142260	1.232950
H297	H	0.732099	0.191073	1.566283
H298	H	0.692924	-0.506199	0.410112
H299	H	1.026257	-0.172866	0.743446
H300	H	1.359591	0.160467	1.076779
H301	H	0.173631	-0.760687	1.184171
H302	H	0.506964	-0.427354	1.517505
H303	H	0.840297	-0.094021	1.850838
H304	H	0.693053	-0.506675	0.588146
H305	H	1.026386	-0.173342	0.921480
H306	H	1.359719	0.159992	1.254813
H307	H	-0.046689	-0.650868	1.184063
H308	H	0.286644	-0.317534	1.517397
H309	H	0.619977	0.015799	1.850730
H310	H	0.173154	-0.582650	1.184245
H311	H	0.506487	-0.249317	1.517579
H312	H	0.839821	0.084017	1.850912
H313	H	0.097136	0.013366	0.664120
H314	H	0.430469	0.346699	0.997454
H315	H	0.763802	0.680032	1.330787
H316	H	-0.080930	0.013340	0.664614
H317	H	0.252403	0.346674	0.997948
H318	H	0.585737	0.680007	1.331281
H319	H	0.096930	-0.760753	0.664356
H320	H	0.430263	-0.427419	0.997689
H321	H	0.763597	-0.094086	1.331023
H322	H	-0.047187	-0.472851	1.184199
H323	H	0.286147	-0.139517	1.517532
H324	H	0.619480	0.193816	1.850865
H325	H	0.250633	-0.568176	0.899553
H326	H	0.583966	-0.234843	1.232886
H327	H	0.917300	0.098491	1.566219
H328	H	0.288361	-0.530376	0.786177
H329	H	0.621695	-0.197043	1.119511
H330	H	0.955028	0.136291	1.452844
H331	H	0.103160	-0.437777	0.786243
H332	H	0.436494	-0.104444	1.119577
H333	H	0.769827	0.228890	1.452910
H334	H	-0.080982	-0.582959	0.664476
H335	H	0.252351	-0.249626	0.997809
H336	H	0.585684	0.083707	1.331143
H337	H	0.103135	-0.437780	0.733124
H338	H	0.436468	-0.104446	1.066457
H339	H	0.769801	0.228887	1.399791
H340	H	0.028987	-0.472723	0.444098
H341	H	0.362321	-0.139390	0.777431
H342	H	0.695654	0.193943	1.110765
H343	H	0.065328	-0.475552	0.695316
H344	H	0.398661	-0.142218	1.028649
H345	H	0.731995	0.191115	1.361982
H346	H	0.206679	0.013739	0.443646
H347	H	0.540013	0.347072	0.776979
H348	H	0.873346	0.680405	1.110313
H349	H	0.250475	-0.568133	0.602707
H350	H	0.583808	-0.234799	0.936040
H351	H	0.917142	0.098534	1.269373
H352	H	0.693140	-0.726605	0.519802
H353	H	1.026473	-0.393271	0.853135
H354	H	1.359806	-0.059938	1.186468
H355	H	0.295144	-0.575796	0.721768
H356	H	0.628477	-0.242463	1.055101
H357	H	0.961811	0.090870	1.388435
H358	H	0.288283	-0.530335	0.640482
H359	H	0.621616	-0.197002	0.973815
H360	H	0.954950	0.136332	1.307149
H361	H	0.028745	0.013321	0.444270
H362	H	0.362079	0.346654	0.777603
H363	H	0.695412	0.679988	1.110937
H364	H	0.408481	-0.430137	0.613993
H365	H	0.741814	-0.096804	0.947326
H366	H	1.075148	0.236529	1.280660
H367	H	0.408519	-0.613593	0.683941
H368	H	0.741852	-0.280259	1.017274
H369	H	1.075185	0.053074	1.350608
H370	H	0.241946	-0.384640	0.594232
H371	H	0.575280	-0.051307	0.927565
H372	H	0.908613	0.282027	1.260899
H373	H	0.295112	-0.392340	0.651807
H374	H	0.628445	-0.059007	0.985140
H375	H	0.961778	0.274326	1.318473
H376	H	0.111630	-0.271286	0.741644
H377	H	0.444963	0.062047	1.074977
H378	H	0.778296	0.395381	1.408310
H379	H	0.149444	-0.384673	0.779411
H380	H	0.482777	-0.051340	1.112744
H381	H	0.816110	0.281993	1.446077
H382	H	0.204115	-0.271255	0.556464
H383	H	0.537449	0.062078	0.889798
H384	H	0.870782	0.395412	1.223131
H385	H	0.206895	-0.650521	0.443974
H386	H	0.540229	-0.317188	0.777307
H387	H	0.873562	0.016146	1.110641
H388	H	0.693242	-0.727072	0.697844
H389	H	1.026575	-0.393738	1.031178
H390	H	1.359908	-0.060405	1.364511
