data_functionalizedCrystal
_audit_creation_method	'MofGen! by Chris Wilmer'
_symmetry_space_group_name_H-M	'P1'
_symmetry_Int_Tables_number	1
_symmetry_cell_setting	triclinic
loop_
_symmetry_equiv_pos_as_xyz
  x,y,z
_cell_length_a	15.995350
_cell_length_b	14.971486
_cell_length_c	14.048226
_cell_angle_alpha	90.001501
_cell_angle_beta	89.995798
_cell_angle_gamma	96.446748
loop_
_atom_site_label
_atom_site_type_symbol
_atom_site_fract_x
_atom_site_fract_y
_atom_site_fract_z
O1	O	0.109116	-1.186822	-0.079046
O2	O	0.609116	-0.686822	0.420954
O3	O	0.122183	-0.926407	-0.079072
O4	O	0.622183	-0.426407	0.420928
O5	O	-0.006231	-1.063733	-0.079057
O6	O	0.493769	-0.563733	0.420943
O7	O	0.237530	-1.049496	-0.079061
O8	O	0.737530	-0.549496	0.420939
O9	O	-0.006238	-1.063717	0.079264
O10	O	0.493762	-0.563717	0.579264
O11	O	0.122176	-0.926391	0.079250
O12	O	0.622176	-0.426391	0.579250
O13	O	0.109109	-1.186806	0.079275
O14	O	0.609109	-0.686806	0.579275
Zn15	Zn	0.115641	-1.056596	0.104399
Zn16	Zn	0.615641	-0.556596	0.604399
Zn17	Zn	0.115651	-1.056617	-0.104196
Zn18	Zn	0.615651	-0.556617	0.395804
O19	O	0.237523	-1.049480	0.079261
O20	O	0.737523	-0.549480	0.579261
C21	C	-0.037430	-1.063137	0.000101
C22	C	0.462570	-0.563137	0.500101
C23	C	-0.130382	-1.061372	0.000096
C24	C	0.369618	-0.561372	0.500096
C25	C	0.121595	-0.893075	0.000086
C26	C	0.621595	-0.393075	0.500086
C27	C	0.119844	-0.793780	0.000076
C28	C	0.619844	-0.293780	0.500076
C29	C	0.109697	-1.220138	0.000116
C30	C	0.609697	-0.720138	0.500116
C31	C	0.111448	-1.319433	0.000119
C32	C	0.611448	-0.819433	0.500119
C33	C	-0.468136	-1.055035	0.000098
C34	C	0.031864	-0.555035	0.500098
C35	C	-0.420800	-0.957234	-0.000266
C36	C	0.079200	-0.457234	0.499734
C37	C	-0.324108	-0.958999	0.000091
C38	C	0.175892	-0.458999	0.500091
C39	C	-0.300572	-1.058178	0.000097
C40	C	0.199428	-0.558178	0.500097
C41	C	-0.341606	-1.106408	0.090509
C42	C	0.158394	-0.606408	0.590509
C43	C	-0.438244	-1.103951	0.090584
C44	C	0.061756	-0.603951	0.590584
C45	C	-0.438591	-1.105990	-0.089456
C46	C	0.061409	-0.605990	0.410544
C47	C	-0.341646	-1.105967	-0.090651
C48	C	0.158354	-0.605967	0.409349
C49	C	-0.205873	-1.059960	0.000099
C50	C	0.294127	-0.559960	0.500099
C51	C	-0.562835	-1.053256	0.000103
C52	C	-0.062835	-0.553256	0.500103
C53	C	0.268722	-1.050077	0.000100
C54	C	0.768722	-0.550077	0.500100
C55	C	0.361674	-1.051841	0.000099
C56	C	0.861674	-0.551841	0.500099
N57	N	0.115634	-1.056587	0.246760
N58	N	0.615634	-0.556587	0.746760
C59	C	0.195284	-0.736468	0.000076
C60	C	0.695284	-0.236468	0.500076
C61	C	0.193633	-0.643171	0.000090
C62	C	0.693633	-0.143171	0.500090
C63	C	0.116542	-0.607187	0.000098
C64	C	0.616542	-0.107187	0.500098
C65	C	0.041097	-0.664505	0.000100
C66	C	0.541097	-0.164505	0.500100
C67	C	0.042748	-0.757801	0.000093
C68	C	0.542748	-0.257801	0.500093
C69	C	0.037660	-0.470047	0.000113
C70	C	0.537660	0.029953	0.500113
C71	C	0.036008	-0.376745	0.000119
C72	C	0.536008	0.123255	0.500119
C73	C	0.188545	-0.355417	0.000111
C74	C	0.688545	0.144583	0.500111
C75	C	0.190197	-0.448712	0.000104
C76	C	0.690197	0.051288	0.500104
C77	C	0.114751	-0.506025	0.000104
C78	C	0.614751	-0.006025	0.500104
N79	N	0.115652	-1.056633	-0.246557
N80	N	0.615652	-0.556633	0.253443
C81	C	0.058795	-1.117414	0.296584
C82	C	0.558795	-0.617414	0.796584
C83	C	0.058795	-1.117421	0.396242
C84	C	0.558795	-0.617421	0.896242
C85	C	0.115637	-1.056603	0.446073
C86	C	0.615637	-0.556603	0.946073
C87	C	0.172478	-0.995769	0.396242
C88	C	0.672478	-0.495769	0.896242
C89	C	0.172474	-0.995760	0.296586
C90	C	0.672474	-0.495760	0.796586
C91	C	0.172484	-0.995795	0.603956
C92	C	0.672484	-0.495795	1.103956
C93	C	0.172490	-0.995806	0.703619
C94	C	0.672490	-0.495806	1.203619
C95	C	0.058805	-1.117456	0.703612
C96	C	0.558805	-0.617456	1.203612
C97	C	0.058801	-1.117446	0.603956
C98	C	0.558801	-0.617446	1.103956
C99	C	0.115643	-1.056614	0.554132
C100	C	0.615643	-0.556614	1.054132
H101	H	-0.295721	-0.921086	-0.064720
H102	H	0.204279	-0.421086	0.435280
N103	N	-0.002508	-1.183044	0.550213
N104	N	0.497492	-0.683044	1.050213
H105	H	-0.039634	-1.148862	0.508875
H106	H	0.460366	-0.648862	1.008875
H107	H	0.029611	-1.222622	0.508911
H108	H	0.529611	-0.722622	1.008911
H109	H	-0.026766	-0.347450	0.000126
H110	H	0.473234	0.152550	0.500126
N111	N	-0.002509	-1.183016	0.242841
N112	N	0.497491	-0.683016	0.742841
H113	H	-0.038516	-1.221549	0.289530
H114	H	0.461484	-0.721549	0.789530
H115	H	-0.039581	-1.148775	0.201502
H116	H	0.460419	-0.648775	0.701502
N117	N	-0.445399	-0.905454	-0.086142
N118	N	0.054601	-0.405454	0.413858
H119	H	-0.414322	-0.842892	-0.084997
H120	H	0.085678	-0.342892	0.415003
H121	H	-0.430359	-0.937390	-0.146027
H122	H	0.069641	-0.437390	0.353973
H123	H	-0.296284	-0.920818	0.065005
H124	H	0.203716	-0.420818	0.565005
N125	N	-0.446801	-0.905668	0.085126
N126	N	0.053199	-0.405668	0.585126
H127	H	-0.489110	-0.945384	0.124046
H128	H	0.010890	-0.445384	0.624046
H129	H	-0.395713	-0.886160	0.125424
H130	H	0.104287	-0.386160	0.625424
N131	N	-0.462546	-1.057349	0.180098
N132	N	0.037454	-0.557349	0.680098
H133	H	-0.410506	-1.038591	0.219137
H134	H	0.089494	-0.538591	0.719137
H135	H	-0.490553	-1.002452	0.162499
H136	H	0.009447	-0.502452	0.662499
H137	H	0.012513	-1.166950	0.436809
H138	H	0.512513	-0.666950	0.936809
N139	N	-0.038620	-0.819617	0.000084
N140	N	0.461380	-0.319617	0.500084
H141	H	-0.025877	-0.884180	0.000081
H142	H	0.474123	-0.384180	0.500081
H143	H	-0.072214	-0.807969	0.058778
H144	H	0.427786	-0.307969	0.558778
N145	N	-0.002503	-1.183072	0.757344
N146	N	0.497497	-0.683072	1.257344
H147	H	0.006120	-1.173849	0.828037
H148	H	0.506120	-0.673849	1.328037
H149	H	-0.061920	-1.172748	0.739932
H150	H	0.438080	-0.672748	1.239932
N151	N	-0.042048	-0.625687	0.000107
N152	N	0.457952	-0.125687	0.500107
H153	H	-0.075102	-0.646585	-0.058582
H154	H	0.424898	-0.146585	0.441418
H155	H	-0.075039	-0.646595	0.058836
H156	H	0.424961	-0.146595	0.558836
H157	H	-0.470420	-1.175755	0.094691
H158	H	0.029580	-0.675755	0.594691
H159	H	0.258060	-0.765759	0.000070
H160	H	0.758060	-0.265759	0.500070
N161	N	0.233804	-0.930220	0.757370
N162	N	0.733804	-0.430220	1.257370
H163	H	0.269811	-0.891680	0.710686
H164	H	0.769811	-0.391680	1.210686
H165	H	0.201691	-0.890690	0.798736
H166	H	0.701691	-0.390690	1.298736
N167	N	0.233784	-0.930158	0.242846
N168	N	0.733784	-0.430158	0.742846
H169	H	0.225155	-0.939378	0.172153
H170	H	0.725155	-0.439378	0.672153
H171	H	0.224012	-0.866711	0.260277
H172	H	0.724012	-0.366711	0.760277
N173	N	-0.043712	-0.531865	0.000120
N174	N	0.456288	-0.031865	0.500120
H175	H	-0.092800	-0.494914	0.000123
H176	H	0.407200	0.005086	0.500123
H177	H	-0.046345	-0.571036	-0.058574
H178	H	0.453655	-0.071036	0.441426
N179	N	0.275000	-0.581355	0.000198
N180	N	0.775000	-0.081355	0.500198
H181	H	0.324086	-0.618308	0.000222
H182	H	0.824086	-0.118308	0.500222
H183	H	0.277702	-0.542127	-0.058454
H184	H	0.777702	-0.042127	0.441546
N185	N	0.269921	-0.293608	0.000107
N186	N	0.769921	0.206392	0.500107
H187	H	0.257180	-0.229045	0.000117
H188	H	0.757180	0.270955	0.500117
H189	H	0.303516	-0.305262	0.058792
H190	H	0.803516	0.194738	0.558792
H191	H	-0.314429	-1.070705	-0.157536
H192	H	0.185571	-0.570705	0.342464
H193	H	0.252971	-0.478007	0.000089
H194	H	0.752971	0.021993	0.500089
H195	H	-0.327407	-1.179272	0.093875
H196	H	0.172593	-0.679272	0.593875
H197	H	0.218769	-0.946256	0.563393
H198	H	0.718769	-0.446256	1.063393
N199	N	0.233786	-0.930177	0.449993
N200	N	0.733786	-0.430177	0.949993
H201	H	0.293228	-0.940471	0.432637
H202	H	0.793228	-0.440471	0.932637
H203	H	0.223971	-0.866725	0.432644
H204	H	0.723971	-0.366725	0.932644
N205	N	-0.304075	-1.062013	0.179629
N206	N	0.195925	-0.562013	0.679629
H207	H	-0.330886	-1.093521	0.237420
H208	H	0.169114	-0.593521	0.737420
H209	H	-0.241466	-1.065989	0.180572
H210	H	0.258534	-0.565989	0.680572
N211	N	-0.465836	-1.063652	-0.180232
N212	N	0.034164	-0.563652	0.319768
H213	H	-0.497612	-1.011007	-0.164219
H214	H	0.002388	-0.511007	0.335781
H215	H	-0.414600	-1.042111	-0.219465
H216	H	0.085400	-0.542111	0.280535
N217	N	-0.321209	-1.201774	-0.097884
N218	N	0.178791	-0.701774	0.402116
H219	H	-0.284875	-1.215620	-0.042187
H220	H	0.215125	-0.715620	0.457813
H221	H	-0.375105	-1.243964	-0.097105
H222	H	0.124895	-0.743964	0.402895
H223	H	-0.470280	-1.178098	-0.090060
H224	H	0.029720	-0.678098	0.409940
