data_functionalizedCrystal
_audit_creation_method	'MofGen! by Chris Wilmer'
_symmetry_space_group_name_H-M	'P1'
_symmetry_Int_Tables_number	1
_symmetry_cell_setting	triclinic
loop_
_symmetry_equiv_pos_as_xyz
  x,y,z
_cell_length_a	10.654562
_cell_length_b	16.176319
_cell_length_c	17.699083
_cell_angle_alpha	90.001496
_cell_angle_beta	83.886559
_cell_angle_gamma	90.010259
loop_
_atom_site_label
_atom_site_type_symbol
_atom_site_fract_x
_atom_site_fract_y
_atom_site_fract_z
O1	O	1.665977	0.068803	0.106343
O2	O	1.300323	0.068793	0.116461
O3	O	1.493481	0.068791	0.001279
O4	O	1.472819	0.068805	0.221525
O5	O	1.493451	-0.068703	0.001285
O6	O	1.300294	-0.068701	0.116467
O7	O	1.665948	-0.068690	0.106350
Cu8	Cu	1.483118	-0.081250	0.111409
Cu9	Cu	1.483153	0.081352	0.111402
O10	O	1.472790	-0.068689	0.221532
C11	C	1.253524	0.000045	0.115719
C12	C	1.114120	0.000041	0.113491
N13	N	1.483103	-0.195615	0.111414
C14	C	1.568718	-0.760998	0.060407
C15	C	1.568713	-0.674451	0.060412
C16	C	1.483160	-0.631190	0.111398
C17	C	1.397615	-0.674481	0.162388
C18	C	1.397627	-0.761026	0.162386
C19	C	1.397564	-0.325453	0.162398
C20	C	1.397555	-0.238901	0.162395
C21	C	1.568649	-0.238878	0.060425
C22	C	1.568662	-0.325423	0.060422
C23	C	1.483122	-0.368706	0.111414
C24	C	1.483131	-0.462550	0.111409
C25	C	1.483144	-0.537348	0.111400
C26	C	1.048592	-0.074901	0.112455
C27	C	0.917606	-0.074887	0.110366
C28	C	0.917688	0.075016	0.110354
C29	C	1.048673	0.075001	0.112437
C30	C	1.114040	-0.149861	0.113509
C31	C	1.048511	-0.224808	0.112473
C32	C	0.917525	-0.224795	0.110385
C33	C	0.852068	-0.149834	0.109332
C34	C	1.712747	0.000059	0.107091
C35	C	1.852150	0.000069	0.109320
C36	C	1.492726	0.000044	-0.026920
C37	C	1.490505	0.000044	-0.110952
N38	N	1.483178	0.195717	0.111391
C39	C	1.603884	0.000046	-0.158849
C40	C	1.601790	0.000053	-0.237806
C41	C	1.486315	0.000052	-0.268864
C42	C	1.372927	0.000053	-0.220961
C43	C	1.375022	0.000051	-0.142005
C44	C	1.364472	0.000059	-0.539378
C45	C	1.362385	0.000058	-0.618339
C46	C	1.591240	0.000061	-0.635178
C47	C	1.593335	0.000059	-0.556223
C48	C	1.479948	0.000064	-0.508326
C49	C	1.482220	0.000058	-0.422713
C50	C	1.484041	0.000053	-0.354476
C51	C	1.473545	0.000060	0.249730
C52	C	1.475766	0.000066	0.333763
H53	H	1.638367	-0.639209	0.018898
O54	O	1.112251	-0.297568	0.113393
C55	C	1.202406	-0.302076	0.049159
H56	H	1.226868	-0.237006	0.027654
H57	H	1.161998	-0.339061	0.002539
C58	C	1.292381	-0.424860	0.097434
C59	C	1.322434	-0.344938	0.071024
H60	H	1.366418	-0.451302	0.110919
H61	H	1.231639	-0.421825	0.140708
H62	H	1.258706	-0.455670	0.058579
H63	H	1.356093	-0.314127	0.109882
H64	H	1.383184	-0.347969	0.027756
O65	O	1.314554	-0.632332	0.211843
C66	C	1.332901	-0.546662	0.200925
H67	H	1.380023	-0.534835	0.141016
H68	H	1.395742	-0.522088	0.244119
C69	C	1.146527	-0.516781	0.285157
C70	C	1.204392	-0.502253	0.211574
H71	H	1.067258	-0.489386	0.291729
H72	H	1.134168	-0.574498	0.292516
H73	H	1.198907	-0.496302	0.321145
H74	H	1.152020	-0.522741	0.175588
H75	H	1.216739	-0.444539	0.204209
O76	O	1.112416	0.147778	0.113314
C77	C	1.202613	0.152241	0.049096
H78	H	1.173185	0.109710	0.002737
H79	H	1.298615	0.132094	0.065469
C80	C	1.247350	0.294019	0.076393
C81	C	1.211201	0.241788	0.019452
H82	H	1.252653	0.349256	0.058109
H83	H	1.186586	0.291012	0.119660
H84	H	1.327349	0.277221	0.090032
H85	H	1.131197	0.258580	0.005821
H86	H	1.271951	0.244799	-0.023818
O87	O	1.260643	0.000092	-0.251003
C88	C	1.161020	0.000071	-0.191793
H89	H	1.196068	0.026101	-0.137980
H90	H	1.126040	-0.065891	-0.180807
C91	C	1.009060	0.022022	-0.280744
C92	C	1.052104	0.053998	-0.214651
H93	H	0.941872	0.055283	-0.294844
H94	H	1.076177	0.022032	-0.320635
H95	H	0.979919	-0.032947	-0.271580
H96	H	1.081259	0.108961	-0.223819
H97	H	0.984989	0.053998	-0.174762
O98	O	1.716089	0.000194	-0.128718
C99	C	1.785214	0.071397	-0.153149
H100	H	1.717691	0.121164	-0.169925
H101	H	1.855345	0.055301	-0.204232
C102	C	1.940132	0.042564	-0.067568
C103	C	1.857198	0.103692	-0.088166
H104	H	1.984541	0.062484	-0.027485
H105	H	1.893565	-0.005408	-0.051110
H106	H	1.998563	0.029157	-0.110142
H107	H	1.798759	0.117090	-0.045595
H108	H	1.903757	0.151667	-0.104616
O109	O	0.853707	-0.297540	0.109471
C110	C	0.763545	-0.302020	0.173705
H111	H	0.739153	-0.236942	0.195203
H112	H	0.803910	-0.339010	0.220330
C113	C	0.673438	-0.424787	0.125441
C114	C	0.643471	-0.344857	0.151842
H115	H	0.599372	-0.451214	0.111957
H116	H	0.734184	-0.421771	0.082167
H117	H	0.707077	-0.455602	0.164300
H118	H	0.609848	-0.314041	0.112981
H119	H	0.582716	-0.347869	0.195109
H120	H	0.745411	-0.149829	0.107630
O121	O	1.264967	-0.000063	-0.095399
C122	C	1.259296	-0.071281	-0.049236
H123	H	1.358955	-0.095022	-0.044720
H124	H	1.202005	-0.121144	-0.075508
C125	C	1.073467	-0.020489	0.025031
C126	C	1.195871	-0.049644	0.030583
H127	H	1.034339	-0.007144	0.074266
H128	H	1.077284	0.027491	-0.006072
H129	H	1.025741	-0.062046	0.003134
H130	H	1.243599	-0.008082	0.052470
H131	H	1.192060	-0.097616	0.061691
O132	O	0.854018	0.147806	0.109472
C133	C	0.763830	0.152290	0.173692
H134	H	0.793218	0.109757	0.220053
H135	H	0.667806	0.132161	0.157322
C136	C	0.719232	0.294076	0.146385
C137	C	0.755333	0.241841	0.203329
H138	H	0.713986	0.349315	0.164666
H139	H	0.779990	0.291054	0.103118
H140	H	0.639215	0.277291	0.132749
H141	H	0.835355	0.258619	0.216957
H142	H	0.694588	0.244867	0.246600
H143	H	1.638380	-0.796216	0.018885
H144	H	1.694115	0.000053	-0.276801
O145	O	1.250174	0.000211	-0.648473
C146	C	1.181085	0.071414	-0.624045
H147	H	1.248633	0.121181	-0.607266
H148	H	1.110938	0.055319	-0.572967
C149	C	1.026166	0.042580	-0.709637
C150	C	1.109130	0.103708	-0.689034
H151	H	0.981776	0.062500	-0.749722
H152	H	1.072709	-0.005392	-0.726093
H153	H	0.967722	0.029174	-0.667065
H154	H	1.167582	0.117106	-0.731602
H155	H	1.062595	0.151684	-0.672586
O156	O	1.705618	0.000097	-0.526179
C157	C	1.805243	0.000081	-0.585386
H158	H	1.770210	0.026110	-0.639200
H159	H	1.840194	-0.065880	-0.596373
C160	C	1.957208	0.022037	-0.496432
C161	C	1.914182	0.054012	-0.562525
H162	H	2.024410	0.055300	-0.482329
H163	H	1.890089	0.022044	-0.456542
H164	H	1.986325	-0.032930	-0.505596
H165	H	1.885052	0.108974	-0.553357
H166	H	1.981299	0.054015	-0.602413
H167	H	1.638305	-0.203627	0.018906
O168	O	1.651648	-0.367574	0.010923
C169	C	1.633337	-0.453243	0.021867
H170	H	1.533413	-0.465079	0.049591
H171	H	1.704294	-0.477789	0.060230
C172	C	1.775192	-0.483139	-0.089501
C173	C	1.652460	-0.497677	-0.055456
H174	H	1.786993	-0.510550	-0.137196
H175	H	1.787533	-0.425422	-0.096873
H176	H	1.834309	-0.503594	-0.057524
H177	H	1.593346	-0.477213	-0.087428
H178	H	1.640109	-0.555392	-0.048090
H179	H	1.327885	-0.203679	0.203917
H180	H	1.327912	-0.360687	0.203916
H181	H	1.327973	-0.796268	0.203903
H182	H	1.220694	-0.149881	0.115211
H183	H	1.683565	0.000061	-0.674185
H184	H	1.272145	0.000063	-0.500389
