data_functionalizedCrystal
_audit_creation_method	'MofGen! by Chris Wilmer'
_symmetry_space_group_name_H-M	'P1'
_symmetry_Int_Tables_number	1
_symmetry_cell_setting	triclinic
loop_
_symmetry_equiv_pos_as_xyz
  x,y,z
_cell_length_a	17.077404
_cell_length_b	21.295417
_cell_length_c	17.077395
_cell_angle_alpha	89.968068
_cell_angle_beta	89.984359
_cell_angle_gamma	90.030732
loop_
_atom_site_label
_atom_site_type_symbol
_atom_site_fract_x
_atom_site_fract_y
_atom_site_fract_z
Zn1	Zn	1.199983	-0.250613	-0.443817
Zn2	Zn	1.199882	-0.355884	-0.312540
Zn3	Zn	1.068724	-0.250633	-0.312565
Zn4	Zn	1.068665	-0.355849	-0.443764
O5	O	1.134314	-0.303245	-0.378171
O6	O	1.309817	-0.264584	-0.426415
O7	O	1.182465	-0.341945	-0.202697
O8	O	1.086203	-0.162541	-0.330008
O9	O	1.309742	-0.341926	-0.329966
O10	O	1.182638	-0.162526	-0.426439
O11	O	1.086104	-0.264618	-0.202715
O12	O	0.958869	-0.264584	-0.329957
O13	O	1.086103	-0.341866	-0.553618
O14	O	0.958826	-0.341885	-0.426348
O15	O	1.182582	-0.264550	-0.553657
O16	O	1.182409	-0.443969	-0.329915
O17	O	1.086005	-0.443943	-0.426324
C18	C	0.930366	-0.303233	-0.378150
C19	C	0.843116	-0.303244	-0.378159
C20	C	0.802124	-0.343555	-0.428270
C21	C	0.720143	-0.343557	-0.428282
C22	C	0.679156	-0.303249	-0.378180
C23	C	0.720154	-0.262933	-0.328067
C24	C	0.802133	-0.262929	-0.328059
C25	C	0.549284	-0.262945	-0.328086
C26	C	0.467299	-0.262950	-0.328093
C27	C	0.467294	-0.343573	-0.428309
C28	C	0.549273	-0.343569	-0.428301
C29	C	0.590265	-0.303254	-0.378187
C30	C	1.134211	-0.466796	-0.378128
C31	C	1.134238	-0.536765	-0.378136
C32	C	1.184481	-0.569624	-0.327987
C33	C	1.184517	-0.635366	-0.328004
C34	C	1.134298	-0.668247	-0.378163
C35	C	1.084052	-0.635380	-0.428321
C36	C	1.084023	-0.569639	-0.428308
N37	N	1.065629	-0.771513	-0.384140
N38	N	1.065659	-0.833964	-0.384148
C39	C	1.134386	-0.866322	-0.378208
N40	N	1.203082	-0.833868	-0.372244
N41	N	1.203051	-0.771411	-0.372231
C42	C	1.134325	-0.739532	-0.378183
C43	C	1.184672	-0.970466	-0.328075
C44	C	1.184710	-1.036210	-0.328098
C45	C	1.084238	-1.036223	-0.428411
C46	C	1.084207	-0.970480	-0.428392
C47	C	1.134423	-0.937606	-0.378220
C48	C	1.339058	-0.303257	-0.378194
C49	C	1.426308	-0.303262	-0.378203
C50	C	1.134347	-0.303202	-0.582916
C51	C	1.134362	-0.303184	-0.670166
C52	C	1.134438	-0.139055	-0.378232
C53	C	1.134491	-0.069086	-0.378258
C54	C	1.184685	-0.262840	-1.046002
C55	C	1.184669	-0.262862	-0.964021
C56	C	1.134426	-0.303124	-0.923015
C57	C	1.084202	-0.343372	-0.963993
C58	C	1.084222	-0.343352	-1.045972
C59	C	1.084161	-0.343408	-0.793123
C60	C	1.084139	-0.343427	-0.711138
C61	C	1.184608	-0.262918	-0.711172
C62	C	1.184628	-0.262898	-0.793151
C63	C	1.134403	-0.303145	-0.834124
C64	C	1.134325	-0.303242	-0.174224
C65	C	1.134463	-0.303083	-0.086974
H66	H	0.582657	-0.230111	-0.287285
C67	C	1.239015	-0.671166	-0.273616
C68	C	1.228295	-0.735775	-0.284371
C69	C	1.278481	-0.768771	-0.234280
H70	H	1.227582	-0.660498	-0.220837
H71	H	1.291771	-0.660395	-0.285132
H72	H	1.175550	-0.746541	-0.272849
H73	H	1.239734	-0.746461	-0.337139
H74	H	1.331237	-0.758000	-0.245796
H75	H	1.267043	-0.758098	-0.181505
H76	H	1.271219	-0.812611	-0.241576
H77	H	1.043165	-0.662156	-0.469162
H78	H	1.043109	-0.542884	-0.469146
H79	H	0.835490	-0.376381	-0.469066
H80	H	0.686771	-0.376383	-0.469086
C81	C	0.846681	-0.219085	-0.273780
C82	C	0.893769	-0.178769	-0.318315
C83	C	0.934808	-0.138363	-0.268342
H84	H	0.878699	-0.243053	-0.239503
H85	H	0.810554	-0.195044	-0.243955
H86	H	0.929892	-0.202808	-0.348127
H87	H	0.861771	-0.154787	-0.352590
H88	H	0.898681	-0.114323	-0.238517
H89	H	0.966821	-0.162337	-0.234067
H90	H	0.966756	-0.111001	-0.298552
H91	H	1.225564	-0.943699	-0.287224
H92	H	1.043297	-0.376157	-0.930599
C93	C	1.239092	-0.219274	-0.666551
C94	C	1.228331	-0.227913	-0.585980
C95	C	1.278500	-0.187717	-0.544847
H96	H	1.227667	-0.176955	-0.679915
H97	H	1.291854	-0.228476	-0.679930
H98	H	1.175581	-0.218706	-0.572606
H99	H	1.239761	-0.270223	-0.572593
H100	H	1.331262	-0.196919	-0.558227
H101	H	1.267071	-0.145400	-0.558218
H102	H	1.271211	-0.193577	-0.490176
C103	C	1.239293	-1.071775	-0.273562
C104	C	1.283245	-1.028911	-0.229609
C105	C	1.333527	-1.061651	-0.179354
H106	H	1.273561	-1.097379	-0.303537
H107	H	1.209314	-1.097451	-0.239299
H108	H	1.313222	-1.003246	-0.263867
H109	H	1.248997	-1.003305	-0.199618
H110	H	1.303548	-1.087326	-0.145091
H111	H	1.367790	-1.087254	-0.209335
H112	H	1.363349	-1.032573	-0.149520
C113	C	1.029746	-1.072027	-0.482789
C114	C	1.040514	-1.136634	-0.472058
C115	C	0.990325	-1.169640	-0.522134
H116	H	1.041148	-1.061288	-0.535570
H117	H	0.976989	-1.061336	-0.471244
H118	H	1.093259	-1.147321	-0.483608
H119	H	1.029107	-1.147392	-0.419287
H120	H	0.937567	-1.158949	-0.510589
H121	H	1.001730	-1.158896	-0.574912
H122	H	0.997618	-1.213479	-0.514855
C123	C	1.029562	-0.934914	-0.482862
C124	C	0.985574	-0.977778	-0.526779
C125	C	0.935218	-0.945037	-0.576960
H126	H	1.059466	-0.909223	-0.517157
H127	H	0.995326	-0.909325	-0.452812
H128	H	1.019805	-1.003355	-0.556827
H129	H	0.955654	-1.003470	-0.492505
H130	H	0.900982	-0.919449	-0.546910
H131	H	0.965128	-0.919347	-0.611250
H132	H	0.905361	-0.974115	-0.606759
C133	C	0.422935	-0.387415	-0.482748
C134	C	0.476375	-0.422730	-0.526603
C135	C	0.435537	-0.463131	-0.576746
H136	H	0.390978	-0.363447	-0.517083
H137	H	0.390945	-0.414844	-0.452673
H138	H	0.508352	-0.395304	-0.556677
H139	H	0.508333	-0.446710	-0.492289
H140	H	0.403547	-0.490560	-0.546670
H141	H	0.403582	-0.439158	-0.611076
H142	H	0.471790	-0.487101	-0.606502
C143	C	1.239149	-0.219148	-1.090661
C144	C	1.228405	-0.227729	-1.171226
C145	C	1.278559	-0.187485	-1.212387
H146	H	1.291912	-0.228329	-1.077319
H147	H	1.227684	-0.176841	-1.077283
H148	H	1.239876	-0.270026	-1.184598
H149	H	1.175652	-0.218544	-1.184591
H150	H	1.267093	-0.145179	-1.199009
H151	H	1.331319	-0.196669	-1.199039
H152	H	1.271271	-0.193298	-1.267054
H153	H	1.225567	-0.230094	-0.930665
C154	C	1.239262	-0.219161	-0.837533
C155	C	1.283259	-0.183931	-0.784108
C156	C	1.333605	-0.143641	-0.824963
H157	H	1.209351	-0.191669	-0.869526
H158	H	1.273493	-0.243225	-0.869489
H159	H	1.249032	-0.159869	-0.752165
H160	H	1.313186	-0.211407	-0.752114
H161	H	1.367836	-0.167705	-0.856919
H162	H	1.303687	-0.116153	-0.856954
H163	H	1.363468	-0.119737	-0.788721
H164	H	0.433930	-0.230121	-0.287304
C165	C	1.029596	-0.387237	-0.666756
C166	C	0.985649	-0.422506	-0.720182
C167	C	0.935417	-0.462888	-0.679326
H168	H	0.995323	-0.363256	-0.634764
H169	H	1.059612	-0.414695	-0.634800
H170	H	0.955635	-0.395051	-0.752125
H171	H	1.019901	-0.446500	-0.752175
H172	H	0.965432	-0.490346	-0.647369
H173	H	0.901149	-0.438902	-0.647336
H174	H	0.905597	-0.486827	-0.715569
H175	H	0.686776	-0.230111	-0.287276
C176	C	1.029759	-0.387180	-0.837651
C177	C	1.074181	-0.427533	-0.884690
C178	C	1.024092	-0.467865	-0.925713
H179	H	0.995571	-0.363160	-0.869701
H180	H	0.999844	-0.411198	-0.801515
H181	H	1.104083	-0.403518	-0.920822
H182	H	1.108367	-0.451567	-0.852659
H183	H	0.994177	-0.491882	-0.889577
H184	H	0.989907	-0.443839	-0.957759
H185	H	1.054225	-0.495252	-0.957628
H186	H	1.043327	-0.376123	-1.079331
C187	C	0.593819	-0.387407	-0.482567
C188	C	0.640830	-0.427714	-0.438021
C189	C	0.681869	-0.468110	-0.487986
H190	H	0.625889	-0.363430	-0.516834
H191	H	0.557692	-0.411455	-0.512403
H192	H	0.676952	-0.403670	-0.408198
H193	H	0.608779	-0.451705	-0.403757
H194	H	0.645743	-0.492157	-0.517822
H195	H	0.713935	-0.444128	-0.522250
H196	H	0.713765	-0.495466	-0.457769
C197	C	1.239094	-0.534046	-0.273495
C198	C	1.283119	-0.576900	-0.229596
C199	C	1.333447	-0.544147	-0.179401
H200	H	1.209169	-0.508437	-0.239190
H201	H	1.273309	-0.508375	-0.303535
H202	H	1.248909	-0.602560	-0.199559
H203	H	1.313060	-0.602510	-0.263881
H204	H	1.367661	-0.518476	-0.209441
H205	H	1.303516	-0.518539	-0.145101
H206	H	1.363329	-0.573218	-0.149615
