data_functionalizedCrystal
_audit_creation_method	'MofGen! by Chris Wilmer'
_symmetry_space_group_name_H-M	'P1'
_symmetry_Int_Tables_number	1
_symmetry_cell_setting	triclinic
loop_
_symmetry_equiv_pos_as_xyz
  x,y,z
_cell_length_a	25.639239
_cell_length_b	19.077105
_cell_length_c	19.077174
_cell_angle_alpha	94.516248
_cell_angle_beta	92.270789
_cell_angle_gamma	92.265071
loop_
_atom_site_label
_atom_site_type_symbol
_atom_site_fract_x
_atom_site_fract_y
_atom_site_fract_z
Zn1	Zn	-0.254037	-1.093621	-0.441824
Zn2	Zn	0.079297	-0.760288	-0.108491
Zn3	Zn	0.412630	-0.426954	0.224843
Zn4	Zn	-0.337809	-1.088778	-0.323930
Zn5	Zn	-0.004475	-0.755445	0.009403
Zn6	Zn	0.328858	-0.422111	0.342737
Zn7	Zn	-0.246728	-0.971008	-0.319222
Zn8	Zn	0.086605	-0.637675	0.014111
Zn9	Zn	0.419939	-0.304342	0.347444
Zn10	Zn	-0.337775	-0.975672	-0.437048
Zn11	Zn	-0.004441	-0.642338	-0.103715
Zn12	Zn	0.328892	-0.309005	0.229619
O13	O	-0.294087	-1.032270	-0.380506
O14	O	0.039246	-0.698936	-0.047173
O15	O	0.372580	-0.365603	0.286161
O16	O	-0.268222	-1.191628	-0.430154
O17	O	0.065111	-0.858294	-0.096821
O18	O	0.398444	-0.524961	0.236512
O19	O	-0.322682	-1.069177	-0.224656
O20	O	0.010651	-0.735844	0.108677
O21	O	0.343984	-0.402510	0.442011
O22	O	-0.174535	-0.987348	-0.335514
O23	O	0.158798	-0.654015	-0.002181
O24	O	0.492131	-0.320682	0.331152
O25	O	-0.329769	-1.188069	-0.343538
O26	O	0.003564	-0.854736	-0.010205
O27	O	0.336897	-0.521403	0.323129
O28	O	-0.179905	-1.077431	-0.425589
O29	O	0.153428	-0.744098	-0.092256
O30	O	0.486762	-0.410765	0.241077
O31	O	-0.255766	-0.982652	-0.221197
O32	O	0.077568	-0.649319	0.112136
O33	O	0.410901	-0.315986	0.445469
O34	O	-0.255733	-0.872978	-0.330883
O35	O	0.077601	-0.539645	0.002450
O36	O	0.410934	-0.206311	0.335784
O37	O	-0.329711	-0.995296	-0.536331
O38	O	0.003622	-0.661963	-0.202998
O39	O	0.336956	-0.328630	0.130336
O40	O	-0.322624	-0.876404	-0.417449
O41	O	0.010709	-0.543071	-0.084116
O42	O	0.344043	-0.209737	0.249218
O43	O	-0.268189	-1.081953	-0.539840
O44	O	0.065144	-0.748620	-0.206507
O45	O	0.398478	-0.415287	0.126827
O46	O	-0.410966	-1.073699	-0.338907
O47	O	-0.077633	-0.740366	-0.005573
O48	O	0.255700	-0.407032	0.327760
O49	O	-0.410941	-0.990600	-0.422014
O50	O	-0.077608	-0.657267	-0.088681
O51	O	0.255726	-0.323934	0.244653
C52	C	-0.288382	-0.849112	-0.373137
C53	C	0.044951	-0.515779	-0.039804
C54	C	0.378285	-0.182446	0.293529
C55	C	-0.285954	-0.770758	-0.370001
C56	C	0.047379	-0.437424	-0.036668
C57	C	0.380712	-0.104091	0.296665
C58	C	-0.429925	-1.032150	-0.380469
C59	C	-0.096592	-0.698817	-0.047136
C60	C	0.236742	-0.365483	0.286198
C61	C	-0.488040	-1.032164	-0.380479
C62	C	-0.154706	-0.698831	-0.047146
C63	C	0.178627	-0.365497	0.286187
C64	C	-0.299761	-1.039685	-0.564379
C65	C	0.033572	-0.706352	-0.231046
C66	C	0.366905	-0.373019	0.102287
C67	C	-0.302179	-1.042845	-0.642735
C68	C	0.031154	-0.709512	-0.309402
C69	C	0.364487	-0.376179	0.023931
C70	C	-0.848413	-1.075660	-0.337314
C71	C	-0.515080	-0.742327	-0.003980
C72	C	-0.181747	-0.408993	0.329353
C73	C	-0.903019	-1.075688	-0.337324
C74	C	-0.569685	-0.742354	-0.003991
C75	C	-0.236352	-0.409021	0.329342
O76	O	-0.931259	-1.112545	-0.300583
O77	O	-0.597926	-0.779212	0.032750
O78	O	-0.264593	-0.445878	0.366084
N79	N	-0.930331	-1.032395	-0.380558
N80	N	-0.596998	-0.699062	-0.047224
N81	N	-0.263665	-0.365729	0.286109
C82	C	-0.903036	-0.989078	-0.423789
C83	C	-0.569703	-0.655745	-0.090455
C84	C	-0.236369	-0.322411	0.242878
O85	O	-0.931282	-0.952258	-0.460564
O86	O	-0.597948	-0.618925	-0.127230
O87	O	-0.264615	-0.285591	0.206103
C88	C	-0.848432	-0.989055	-0.423781
C89	C	-0.515098	-0.655721	-0.090448
C90	C	-0.181765	-0.322388	0.242885
C91	C	-0.821122	-1.032344	-0.380540
C92	C	-0.487788	-0.699011	-0.047207
C93	C	-0.154455	-0.365678	0.286127
C94	C	-0.821103	-1.118947	-0.294076
C95	C	-0.487770	-0.785613	0.039257
C96	C	-0.154436	-0.452280	0.372590
C97	C	-0.766501	-1.118918	-0.294065
C98	C	-0.433168	-0.785584	0.039268
C99	C	-0.099835	-0.452251	0.372602
C100	C	-0.739210	-1.075602	-0.337291
C101	C	-0.405876	-0.742269	-0.003958
C102	C	-0.072543	-0.408936	0.329376
C103	C	-0.766520	-1.032315	-0.380529
C104	C	-0.433187	-0.698982	-0.047195
C105	C	-0.099853	-0.365649	0.286138
C106	C	-0.821138	-0.945742	-0.467016
C107	C	-0.487804	-0.612408	-0.133682
C108	C	-0.154471	-0.279075	0.199651
C109	C	-0.766530	-0.945722	-0.467005
C110	C	-0.433197	-0.612389	-0.133672
C111	C	-0.099863	-0.279055	0.199662
C112	C	-0.739220	-0.989012	-0.423764
C113	C	-0.405886	-0.655678	-0.090430
C114	C	-0.072553	-0.322345	0.242903
C115	C	-0.684627	-0.988971	-0.423743
C116	C	-0.351293	-0.655638	-0.090410
C117	C	-0.017960	-0.322304	0.242923
N118	N	-0.657314	-1.032263	-0.380510
N119	N	-0.323981	-0.698930	-0.047177
N120	N	0.009353	-0.365596	0.286157
C121	C	-0.684606	-1.075579	-0.337284
C122	C	-0.351272	-0.742245	-0.003950
C123	C	-0.017939	-0.408912	0.329383
C124	C	-1.017709	-0.989132	-0.423802
C125	C	-0.684375	-0.655798	-0.090468
C126	C	-0.351042	-0.322465	0.242865
C127	C	-1.072312	-0.989151	-0.423806
C128	C	-0.738978	-0.655818	-0.090473
C129	C	-0.405645	-0.322484	0.242861
C130	C	-1.072291	-1.075762	-0.337342
C131	C	-0.738957	-0.742428	-0.004009
C132	C	-0.405624	-0.409095	0.329325
C133	C	-1.017686	-1.075738	-0.337335
C134	C	-0.684353	-0.742405	-0.004001
C135	C	-0.351020	-0.409071	0.329332
C136	C	-0.990396	-1.032424	-0.380568
C137	C	-0.657063	-0.699090	-0.047235
C138	C	-0.323729	-0.365757	0.286098
C139	C	-0.569938	-1.075514	-0.337263
C140	C	-0.236605	-0.742181	-0.003929
C141	C	0.096729	-0.408848	0.329404
C142	C	-0.515331	-1.075480	-0.337253
C143	C	-0.181998	-0.742146	-0.003920
C144	C	0.151335	-0.408813	0.329414
C145	C	-0.515357	-0.988872	-0.423719
C146	C	-0.182024	-0.655539	-0.090386
C147	C	0.151309	-0.322205	0.242947
C148	C	-0.569959	-0.988904	-0.423727
C149	C	-0.236626	-0.655571	-0.090393
C150	C	0.096708	-0.322237	0.242940
C151	C	-0.597248	-1.032231	-0.380496
C152	C	-0.263915	-0.698897	-0.047163
C153	C	0.069419	-0.365564	0.286170
O154	O	-0.656351	-0.952135	-0.460468
O155	O	-0.323018	-0.618801	-0.127135
O156	O	0.010315	-0.285468	0.206199
O157	O	-0.656354	-1.112400	-0.300522
O158	O	-0.323020	-0.779066	0.032812
O159	O	0.010313	-0.445733	0.366145
C160	C	-0.157720	-1.032410	-0.380559
C161	C	0.175614	-0.699077	-0.047226
C162	C	0.508947	-0.365743	0.286107
C163	C	-0.099608	-1.032470	-0.380582
C164	C	0.233725	-0.699136	-0.047249
C165	C	0.567059	-0.365803	0.286084
C166	C	-0.299815	-1.216142	-0.387904
C167	C	0.033519	-0.882809	-0.054571
C168	C	0.366852	-0.549476	0.278763
C169	C	-0.302256	-1.294498	-0.391057
C170	C	0.031078	-0.961164	-0.057723
C171	C	0.364411	-0.627831	0.275610
C172	C	-0.319689	-0.735746	-0.413528
C173	C	0.013644	-0.402412	-0.080194
C174	C	0.346978	-0.069079	0.253139
C175	C	-0.317401	-0.662123	-0.410585
C176	C	0.015932	-0.328790	-0.077251
C177	C	0.349266	0.004544	0.256082
C178	C	-0.281381	-0.623514	-0.364112
C179	C	0.051952	-0.290180	-0.030778
C180	C	0.385286	0.043153	0.302555
C181	C	-0.247643	-0.658531	-0.320584
C182	C	0.085690	-0.325197	0.012750
C183	C	0.419024	0.008136	0.346083
C184	C	-0.249928	-0.732152	-0.323531
C185	C	0.083405	-0.398819	0.009803
C186	C	0.416738	-0.065485	0.343136
C187	C	-0.270803	-0.403136	-0.350476
C188	C	0.062530	-0.069803	-0.017142
C189	C	0.395864	0.263530	0.316191
C190	C	-0.268521	-0.329510	-0.347530
C191	C	0.064812	0.003824	-0.014197
C192	C	0.398146	0.337157	0.319136
C193	C	-0.338279	-0.333107	-0.437533
C194	C	-0.004946	0.000226	-0.104200
C195	C	0.328388	0.333559	0.229134
C196	C	-0.340563	-0.406730	-0.440473
C197	C	-0.007230	-0.073397	-0.107140
C198	C	0.326103	0.259937	0.226194
C199	C	-0.306824	-0.441741	-0.396948
C200	C	0.026510	-0.108407	-0.063614
C201	C	0.359843	0.224926	0.269719
N202	N	-0.279043	-0.548259	-0.361101
N203	N	0.054291	-0.214926	-0.027767
N204	N	0.387624	0.118407	0.305566
N205	N	-0.309160	-0.516994	-0.399962
N206	N	0.024174	-0.183660	-0.066629
N207	N	0.357507	0.149673	0.266704
C208	C	-0.268476	-0.999283	-0.677746
C209	C	0.064857	-0.665950	-0.344412
C210	C	0.398190	-0.332616	-0.011079
C211	C	-0.270753	-1.002250	-0.751369
C212	C	0.062581	-0.668916	-0.418036
C213	C	0.395914	-0.335583	-0.084703
C214	C	-0.306730	-1.048782	-0.789981
C215	C	0.026603	-0.715449	-0.456648
C216	C	0.359937	-0.382116	-0.123315
C217	C	-0.340437	-1.092346	-0.754966
C218	C	-0.007103	-0.759013	-0.421632
C219	C	0.326230	-0.425680	-0.088299
C220	C	-0.338163	-1.089376	-0.681343
C221	C	-0.004829	-0.756042	-0.348010
C222	C	0.328504	-0.422709	-0.014677
C223	C	-0.317270	-1.062494	-1.010362
C224	C	0.016064	-0.729160	-0.677028
C225	C	0.349397	-0.395827	-0.343695
C226	C	-0.319540	-1.065462	-1.083989
C227	C	0.013793	-0.732129	-0.750656
C228	C	0.347126	-0.398796	-0.417323
C229	C	-0.249857	-0.975364	-1.080388
C230	C	0.083477	-0.642031	-0.747054
C231	C	0.416810	-0.308698	-0.413721
C232	C	-0.247584	-0.972401	-1.006764
C233	C	0.085750	-0.639068	-0.673431
C234	C	0.419083	-0.305734	-0.340098
C235	C	-0.281292	-1.015962	-0.971755
C236	C	0.052041	-0.682629	-0.638422
C237	C	0.385375	-0.349296	-0.305088
N238	N	-0.309056	-1.051817	-0.865236
N239	N	0.024277	-0.718484	-0.531903
N240	N	0.357610	-0.385151	-0.198570
N241	N	-0.278968	-1.012923	-0.896501
N242	N	0.054366	-0.679590	-0.563168
N243	N	0.387699	-0.346257	-0.229834
C244	C	-0.288398	-1.024924	-0.197350
C245	C	0.044935	-0.691590	0.135984
C246	C	0.378268	-0.358257	0.469317
C247	C	-0.285837	-1.021900	-0.119000
C248	C	0.047496	-0.688567	0.214334
C249	C	0.380830	-0.355234	0.547667
H250	H	-0.493097	-1.110731	-0.302038
H251	H	-0.159764	-0.777398	0.031295
H252	H	0.173570	-0.444064	0.364628
H253	H	-0.218288	-0.934507	-0.975331
H254	H	0.115045	-0.601174	-0.641998
H255	H	0.448378	-0.267840	-0.308664
C256	C	-0.354509	-0.623609	-0.458461
C257	C	-0.021176	-0.290276	-0.125127
C258	C	0.312158	0.043057	0.208206
H259	H	-0.347986	-0.574234	-0.450057
H260	H	-0.014653	-0.240901	-0.116724
H261	H	0.318681	0.092433	0.216609
H262	H	-0.389679	-0.635222	-0.448538
H263	H	-0.056345	-0.301889	-0.115204
H264	H	0.276988	0.031444	0.218129
H265	H	-0.348748	-0.637605	-0.506331
H266	H	-0.015414	-0.304272	-0.172998
H267	H	0.317919	0.029062	0.160336
C268	C	-0.375236	-1.137294	-0.642832
C269	C	-0.041903	-0.803961	-0.309498
C270	C	0.291431	-0.470627	0.023835
H271	H	-0.396986	-1.165437	-0.676371
H272	H	-0.063653	-0.832103	-0.343037
H273	H	0.269681	-0.498770	-0.009704
H274	H	-0.396288	-1.109143	-0.613018
H275	H	-0.062954	-0.775810	-0.279685
H276	H	0.270379	-0.442476	0.053649
H277	H	-0.355305	-1.166875	-0.615355
H278	H	-0.021972	-0.833542	-0.282022
H279	H	0.311362	-0.500208	0.051311
H280	H	-0.369733	-1.130231	-0.786409
H281	H	-0.036399	-0.796897	-0.453076
H282	H	0.296934	-0.463564	-0.119743
H283	H	-0.222456	-0.760658	-0.288090
H284	H	0.110878	-0.427324	0.045243
H285	H	0.444211	-0.093991	0.378576
H286	H	-0.239183	-0.298076	-0.309691
H287	H	0.094150	0.035257	0.023643
H288	H	0.427483	0.368591	0.356976
C289	C	-0.485330	-0.941232	-0.471268
C290	C	-0.151997	-0.607899	-0.137934
C291	C	0.181337	-0.274565	0.195399
H292	H	-0.448899	-0.947425	-0.465071
H293	H	-0.115566	-0.614092	-0.131737
H294	H	0.217767	-0.280759	0.201596
H295	H	-0.492522	-0.893459	-0.459017
H296	H	-0.159188	-0.560126	-0.125684
H297	H	0.174145	-0.226793	0.207649
H298	H	-0.496038	-0.953436	-0.519059
H299	H	-0.162705	-0.620103	-0.185726
H300	H	0.170628	-0.286769	0.147608
C301	C	-0.228905	-0.948091	-0.635279
C302	C	0.104428	-0.614757	-0.301945
C303	C	0.437762	-0.281424	0.031388
H304	H	-0.209164	-0.922566	-0.666677
H305	H	0.124170	-0.589232	-0.333343
H306	H	0.457503	-0.255899	-0.000010
H307	H	-0.206076	-0.973914	-0.607649
H308	H	0.127258	-0.640581	-0.274316
H309	H	0.460591	-0.307248	0.059017
H310	H	-0.247068	-0.916195	-0.605319
H311	H	0.086265	-0.582862	-0.271986
H312	H	0.419598	-0.249528	0.061348
H313	H	-0.744313	-0.910451	-0.502213
H314	H	-0.410979	-0.577118	-0.168880
H315	H	-0.077646	-0.243785	0.164453
H316	H	-0.222414	-0.939899	-1.108900
H317	H	0.110920	-0.606565	-0.775567
H318	H	0.444253	-0.273232	-0.442234
H319	H	-0.592196	-0.953656	-0.458940
H320	H	-0.258863	-0.620323	-0.125606
H321	H	0.074470	-0.286990	0.207727
H322	H	-0.592150	-1.110797	-0.302062
H323	H	-0.258817	-0.777463	0.031271
H324	H	0.074516	-0.444130	0.364605
C325	C	-0.987693	-0.941474	-0.471353
C326	C	-0.654360	-0.608141	-0.138020
C327	C	-0.321027	-0.274808	0.195314
H328	H	-1.011784	-0.915693	-0.497095
H329	H	-0.678450	-0.582360	-0.163761
H330	H	-0.345117	-0.249026	0.169572
H331	H	-0.968149	-0.969640	-0.503175
H332	H	-0.634816	-0.636306	-0.169842
H333	H	-0.301483	-0.302973	0.163491
H334	H	-0.964637	-0.909678	-0.443119
H335	H	-0.631303	-0.576344	-0.109786
H336	H	-0.297970	-0.243011	0.223548
H337	H	-0.744269	-1.154170	-0.258856
H338	H	-0.410935	-0.820837	0.074477
H339	H	-0.077602	-0.487503	0.407811
H340	H	-0.344723	-1.097957	-0.981866
H341	H	-0.011390	-0.764623	-0.648533
H342	H	0.321944	-0.431290	-0.315199
C343	C	-0.851115	-1.166594	-0.246519
C344	C	-0.517782	-0.833260	0.086815
C345	C	-0.184449	-0.499927	0.420148
H346	H	-0.827022	-1.192362	-0.220768
H347	H	-0.493689	-0.859028	0.112566
H348	H	-0.160355	-0.525695	0.445899
H349	H	-0.874176	-1.198391	-0.274738
H350	H	-0.540843	-0.865058	0.058596
H351	H	-0.207510	-0.531724	0.391929
H352	H	-0.870654	-1.138416	-0.214694
H353	H	-0.537320	-0.805082	0.118639
H354	H	-0.203987	-0.471749	0.451972
C355	C	-0.987650	-1.123362	-0.289776
C356	C	-0.654317	-0.790028	0.043558
C357	C	-0.320984	-0.456695	0.376891
H358	H	-1.011730	-1.149163	-0.264038
H359	H	-0.678396	-0.815830	0.069295
H360	H	-0.345063	-0.482496	0.402629
H361	H	-0.964589	-1.095177	-0.257950
H362	H	-0.631255	-0.761843	0.075384
H363	H	-0.297922	-0.428510	0.408717
H364	H	-0.968110	-1.155141	-0.318004
H365	H	-0.634777	-0.821808	0.015329
H366	H	-0.301444	-0.488474	0.348663
C367	C	-0.380182	-0.449195	-0.491598
C368	C	-0.046849	-0.115862	-0.158265
C369	C	0.286484	0.217471	0.175069
H370	H	-0.399943	-0.417799	-0.517104
H371	H	-0.066610	-0.084466	-0.183771
H372	H	0.266723	0.248868	0.149562
H373	H	-0.402989	-0.476803	-0.465726
H374	H	-0.069656	-0.143469	-0.132393
H375	H	0.263678	0.189864	0.200941
H376	H	-0.362054	-0.479177	-0.523515
H377	H	-0.028721	-0.145843	-0.190181
H378	H	0.304613	0.187490	0.143152
H379	H	-1.094543	-0.953893	-0.459011
H380	H	-0.761209	-0.620560	-0.125677
H381	H	-0.427876	-0.287227	0.207656
H382	H	-0.349022	-0.767176	-0.451369
H383	H	-0.015689	-0.433843	-0.118036
H384	H	0.317645	-0.100510	0.215298
H385	H	-0.365747	-0.304594	-0.472970
H386	H	-0.032414	0.028740	-0.139637
H387	H	0.300919	0.362073	0.193697
H388	H	-0.218312	-0.627089	-0.282747
H389	H	0.115021	-0.293756	0.050586
H390	H	0.448354	0.039578	0.383920
C391	C	-0.233699	-0.441638	-0.302587
C392	C	0.099634	-0.108305	0.030746
C393	C	0.432967	0.225028	0.364079
H394	H	-0.211927	-0.408098	-0.274481
H395	H	0.121407	-0.074764	0.058852
H396	H	0.454740	0.258569	0.392185
H397	H	-0.212672	-0.471475	-0.330751
H398	H	0.120661	-0.138142	0.002582
H399	H	0.453995	0.195191	0.335916
H400	H	-0.253613	-0.469090	-0.272970
H401	H	0.079720	-0.135757	0.060363
H402	H	0.413053	0.197577	0.393696
H403	H	-0.243310	-0.966774	-0.779871
H404	H	0.090023	-0.633441	-0.446538
H405	H	0.423357	-0.300107	-0.113205
H406	H	-0.843364	-0.910487	-0.502224
H407	H	-0.510031	-0.577154	-0.168891
H408	H	-0.176698	-0.243820	0.164442
C409	C	-0.359113	-1.116656	-1.126462
C410	C	-0.025780	-0.783323	-0.793128
C411	C	0.307554	-0.449989	-0.459795
H412	H	-0.378865	-1.142173	-1.095068
H413	H	-0.045531	-0.808839	-0.761734
H414	H	0.287802	-0.475506	-0.428401
H415	H	-0.340952	-1.148549	-1.156420
H416	H	-0.007619	-0.815216	-0.823087
H417	H	0.325715	-0.481883	-0.489754
H418	H	-0.381941	-1.090825	-1.154092
H419	H	-0.048607	-0.757492	-0.820759
H420	H	0.284726	-0.424158	-0.487426
H421	H	-1.094521	-1.111034	-0.302147
H422	H	-0.761188	-0.777701	0.031186
H423	H	-0.427855	-0.444367	0.364519
