data_functionalizedCrystal
_audit_creation_method	'MofGen! by Chris Wilmer'
_symmetry_space_group_name_H-M	'P1'
_symmetry_Int_Tables_number	1
_symmetry_cell_setting	triclinic
loop_
_symmetry_equiv_pos_as_xyz
  x,y,z
_cell_length_a	19.188925
_cell_length_b	11.026607
_cell_length_c	9.482900
_cell_angle_alpha	78.599815
_cell_angle_beta	99.258273
_cell_angle_gamma	95.864283
loop_
_atom_site_label
_atom_site_type_symbol
_atom_site_fract_x
_atom_site_fract_y
_atom_site_fract_z
O1	O	-0.953929	-0.132318	-0.120924
O2	O	-0.753215	-0.152707	-0.120920
O3	O	-0.836936	0.034051	-0.120916
O4	O	-0.870207	-0.319076	-0.120927
O5	O	-0.819950	-0.004035	0.120876
O6	O	-0.736228	-0.190793	0.120872
O7	O	-0.936942	-0.170404	0.120868
Cu8	Cu	-0.835034	-0.184076	0.142948
Cu9	Cu	-0.855123	-0.139035	-0.142999
O10	O	-0.853220	-0.357162	0.120864
C11	C	-0.718626	-0.171091	-0.000023
C12	C	-0.640869	-0.169112	-0.000021
C13	C	-0.822305	0.060186	-0.000022
C14	C	-0.804009	0.194803	-0.000027
C15	C	-0.971531	-0.152020	-0.000032
C16	C	-1.049288	-0.153997	-0.000043
C17	C	-0.091377	-0.265446	-0.000028
C18	C	-0.164439	-0.267314	-0.000036
C19	C	-0.195407	-0.157732	-0.000030
C20	C	-0.153309	-0.046266	-0.000053
C21	C	-0.080250	-0.044399	-0.000060
N22	N	-0.300191	-0.091363	0.082281
N23	N	-0.369595	-0.093145	0.082290
C24	C	-0.415531	-0.163352	-0.000013
N25	N	-0.389441	-0.231730	-0.082307
N26	N	-0.320031	-0.229952	-0.082310
C27	C	-0.274627	-0.159744	-0.000023
C28	C	-0.536842	-0.276834	-0.000008
C29	C	-0.609906	-0.278697	-0.000025
C30	C	-0.598774	-0.057648	-0.000028
C31	C	-0.525713	-0.055786	-0.000025
C32	C	-0.494751	-0.165384	-0.000009
C33	C	-0.867851	-0.383297	-0.000033
C34	C	-0.886149	-0.517912	-0.000038
N35	N	-0.820910	-0.215755	0.344067
C36	C	-0.854530	0.268879	-0.000030
C37	C	-0.835621	0.408013	-0.000035
N38	N	-0.869251	-0.107346	-0.344119
C39	C	-0.850951	-0.148372	0.416268
C40	C	-0.839206	-0.174739	0.583685
H41	H	-0.066173	-0.354688	-0.000021
N42	N	-0.793610	-0.277012	0.665958
H43	H	-0.791680	-0.281349	0.773893
H44	H	-0.814465	-0.358785	0.639426
H45	H	-0.746758	0.234390	-0.000035
N46	N	-0.759777	0.460417	-0.000037
H47	H	-0.756225	0.526365	-0.089671
H48	H	-0.743676	0.498067	0.089653
H49	H	-0.885363	-0.071158	0.354141
H50	H	-0.943412	0.442527	-0.000148
H51	H	-0.903665	-0.030127	0.593758
N52	N	-0.632159	0.060551	-0.000009
H53	H	-0.623310	0.123311	-0.089642
H54	H	-0.684818	0.042356	0.000052
N55	N	-0.209847	-0.387524	-0.000021
H56	H	-0.179146	-0.456669	-0.000014
H57	H	-0.234100	-0.407217	0.089620
N58	N	-0.186706	0.071929	-0.000052
H59	H	-0.239376	0.053835	-0.000040
H60	H	-0.165204	0.106404	0.089579
H61	H	-0.644175	-0.369454	-0.000025
N62	N	-0.775317	-0.318022	0.426353
H63	H	-0.804396	-0.381350	0.489497
H64	H	-0.756890	-0.359270	0.355079
N65	N	-0.034844	0.075806	-0.000065
H66	H	-0.051421	0.137918	-0.089698
H67	H	-0.038843	0.109578	0.089626
N68	N	-0.503442	-0.395032	-0.000006
H69	H	-0.541196	-0.465919	-0.000013
H70	H	-0.479669	-0.384949	-0.089643
N71	N	-0.480311	0.064419	-0.000030
H72	H	-0.511013	0.133558	-0.000025
H73	H	-0.443457	0.055890	0.089604
H74	H	-0.911780	0.229292	-0.000022
