data_functionalizedCrystal
_audit_creation_method	'MofGen! by Chris Wilmer'
_symmetry_space_group_name_H-M	'P1'
_symmetry_Int_Tables_number	1
_symmetry_cell_setting	triclinic
loop_
_symmetry_equiv_pos_as_xyz
  x,y,z
_cell_length_a	12.759401
_cell_length_b	29.839131
_cell_length_c	12.759393
_cell_angle_alpha	90.044428
_cell_angle_beta	90.018292
_cell_angle_gamma	90.035390
loop_
_atom_site_label
_atom_site_type_symbol
_atom_site_fract_x
_atom_site_fract_y
_atom_site_fract_z
Zn1	Zn	1.606103	-0.178830	0.593879
Zn2	Zn	1.605935	-0.253967	0.418156
Zn3	Zn	1.430406	-0.178852	0.418219
Zn4	Zn	1.430331	-0.253934	0.593798
O5	O	1.518194	-0.216396	0.506013
O6	O	1.753102	-0.188802	0.570577
O7	O	1.582612	-0.244026	0.271144
O8	O	1.453814	-0.115982	0.441580
O9	O	1.752979	-0.244004	0.441475
O10	O	1.582898	-0.115966	0.570638
O11	O	1.453651	-0.188839	0.271189
O12	O	1.283375	-0.188807	0.441502
O13	O	1.453687	-0.243948	0.740830
O14	O	1.283320	-0.243969	0.570499
O15	O	1.582826	-0.188769	0.740890
O16	O	1.582539	-0.316830	0.441396
O17	O	1.453524	-0.316805	0.570439
C18	C	1.245227	-0.216387	0.505999
C19	C	1.128450	-0.216395	0.506018
C20	C	1.073587	-0.245164	0.573075
C21	C	0.963863	-0.245169	0.573087
C22	C	0.963875	-0.187636	0.438974
C23	C	1.073597	-0.187628	0.438968
C24	C	1.128440	-0.273930	0.640125
C25	C	1.073577	-0.302702	0.707187
C26	C	0.963853	-0.302708	0.707199
C27	C	0.908992	-0.273942	0.640148
C28	C	1.518034	-0.333118	0.505925
C29	C	1.518061	-0.383053	0.505922
C30	C	1.585393	-0.692653	0.573309
C31	C	1.585507	-0.880326	0.573372
O32	O	1.642599	-0.904554	0.630601
N33	N	1.518372	-0.903838	0.506130
C34	C	1.451199	-0.880428	0.438872
O35	O	1.394092	-0.904733	0.381687
C36	C	1.451081	-0.692756	0.438815
C37	C	1.518228	-0.669247	0.506054
C38	C	1.652534	-0.669143	0.640543
C39	C	1.652509	-0.622228	0.640523
C40	C	1.585343	-0.598822	0.573268
C41	C	1.518202	-0.622331	0.506033
C42	C	1.383903	-0.669348	0.371563
C43	C	1.383877	-0.622427	0.371556
C44	C	1.451024	-0.598917	0.438795
C45	C	1.451011	-0.552010	0.438758
N46	N	1.518147	-0.528498	0.506000
C47	C	1.585312	-0.551904	0.573255
C48	C	1.451268	-0.978959	0.438905
C49	C	1.451298	-1.025877	0.438918
C50	C	1.585606	-1.025771	0.573420
C51	C	1.585579	-0.978852	0.573401
C52	C	1.518403	-0.955447	0.506147
C53	C	1.585255	-0.453378	0.573206
C54	C	1.585227	-0.406459	0.573177
C55	C	1.450917	-0.406569	0.438679
C56	C	1.450948	-0.453484	0.438704
C57	C	1.518121	-0.476888	0.505976
O58	O	1.393942	-0.527753	0.381567
O59	O	1.642395	-0.527591	0.630448
C60	C	1.585419	-0.739568	0.573329
C61	C	1.518278	-0.763078	0.506095
C62	C	1.451112	-0.739672	0.438840
C63	C	1.518309	-0.809996	0.506108
C64	C	1.585474	-0.833401	0.573363
C65	C	1.652610	-0.809889	0.640605
C66	C	1.652584	-0.762974	0.640584
C67	C	1.383977	-0.763184	0.371597
C68	C	1.384008	-0.810099	0.371623
C69	C	1.451174	-0.833505	0.438878
C70	C	1.792227	-0.216404	0.506028
C71	C	1.909004	-0.216408	0.506034
C72	C	1.518267	-0.216353	0.780047
C73	C	1.518298	-0.216334	0.896823
C74	C	1.518383	-0.099217	0.506125
C75	C	1.518464	-0.049283	0.506173
C76	C	1.518182	-0.216406	0.233046
C77	C	1.518355	-0.216298	0.116270
C78	C	1.585451	-0.245059	0.951659
C79	C	1.585482	-0.245040	1.061383
C80	C	1.451199	-0.187570	1.061426
C81	C	1.451173	-0.187587	0.951704
C82	C	1.652575	-0.273806	0.896778
C83	C	1.719733	-0.302533	0.951614
C84	C	1.719764	-0.302514	1.061338
C85	C	1.652638	-0.273768	1.116226
H86	H	1.639946	-0.472428	0.627993
H87	H	0.919198	-0.164216	0.384383
C88	C	1.310032	-0.695202	0.297607
C89	C	1.227541	-0.727467	0.343082
C90	C	1.153663	-0.753321	0.269125
C91	C	1.162277	-0.746911	0.149693
C92	C	1.244772	-0.714645	0.104212
C93	C	1.318650	-0.688791	0.178169
H94	H	1.221161	-0.732213	0.431497
H95	H	1.092595	-0.777206	0.302793
H96	H	1.107589	-0.766050	0.094946
H97	H	1.251152	-0.709899	0.015796
H98	H	1.379718	-0.664906	0.144500
C99	C	1.377299	-0.155992	0.891379
C100	C	1.294768	-0.175468	0.815920
C101	C	1.220895	-0.143871	0.755596
C102	C	1.229552	-0.092797	0.770731
C103	C	1.312087	-0.073318	0.846193
C104	C	1.385960	-0.104915	0.906517
H105	H	1.288356	-0.213279	0.804713
H106	H	1.159797	-0.158291	0.699733
H107	H	1.174867	-0.069407	0.726075
H108	H	1.318499	-0.035508	0.857400
H109	H	1.447057	-0.090495	0.962380
H110	H	1.652678	-0.273751	1.205571
H111	H	1.217783	-0.273930	0.640121
C112	C	1.659435	-0.952994	0.647371
C113	C	1.613848	-0.920728	0.729815
C114	C	1.687705	-0.894873	0.803791
C115	C	1.807149	-0.901284	0.795323
C116	C	1.852742	-0.933552	0.712877
C117	C	1.778885	-0.959407	0.638901
H118	H	1.525422	-0.915980	0.736086
H119	H	1.653953	-0.870986	0.864823
H120	H	1.861822	-0.882144	0.850085
H121	H	1.941167	-0.938299	0.706606
H122	H	1.812637	-0.983294	0.577868
C123	C	1.309983	-0.596682	0.297572
C124	C	1.318622	-0.603179	0.178146
C125	C	1.244731	-0.577435	0.104160
C126	C	1.162201	-0.545193	0.149601
C127	C	1.153559	-0.538694	0.269033
C128	C	1.227450	-0.564438	0.343018
H129	H	1.379718	-0.627048	0.144502
H130	H	1.251129	-0.582246	0.015748
H131	H	1.107503	-0.526135	0.094832
H132	H	1.092463	-0.514825	0.302676
H133	H	1.221052	-0.559627	0.431430
C134	C	1.793566	-0.334154	0.891242
C135	C	1.793531	-0.334180	0.770552
C136	C	1.867364	-0.365803	0.710183
C137	C	1.941233	-0.397399	0.770505
C138	C	1.941271	-0.397375	0.891201
C139	C	1.867437	-0.365752	0.951570
H140	H	1.738846	-0.310789	0.725893
H141	H	1.867335	-0.365821	0.620835
H142	H	1.995888	-0.420808	0.725816
H143	H	1.995955	-0.420766	0.935861
H144	H	1.867466	-0.365734	1.040918
H145	H	1.329281	-0.744130	0.316831
H146	H	1.396547	-0.164166	1.106125
C147	C	1.793646	-0.334109	1.121654
C148	C	1.784987	-0.385183	1.106522
C149	C	1.858871	-0.416780	1.166833
C150	C	1.941416	-0.397303	1.242277
C151	C	1.950080	-0.346227	1.257412
C152	C	1.876195	-0.314630	1.197101
H153	H	1.723879	-0.399604	1.050672
H154	H	1.852458	-0.454591	1.155629
H155	H	1.996110	-0.420693	1.286923
H156	H	2.011187	-0.331806	1.313263
H157	H	1.882608	-0.276820	1.208305
H158	H	1.118251	-0.326119	0.761784
H159	H	0.919186	-0.326132	0.761811
C160	C	1.377034	-0.380816	0.364704
C161	C	1.303171	-0.406671	0.290741
C162	C	1.229282	-0.380917	0.216771
C163	C	1.229255	-0.329309	0.216764
C164	C	1.303121	-0.303452	0.290730
C165	C	1.377010	-0.329206	0.364700
H166	H	1.303188	-0.444876	0.290743
H167	H	1.174602	-0.400059	0.162017
H168	H	1.174558	-0.310245	0.162008
H169	H	1.303104	-0.265246	0.290728
H170	H	1.431690	-0.310064	0.419454
H171	H	1.707228	-0.688195	0.695317
H172	H	0.819647	-0.273945	0.640171
C173	C	1.659486	-1.051522	0.647406
C174	C	1.742013	-1.083766	0.601968
C175	C	1.815884	-1.109519	0.675957
C176	C	1.807228	-1.103029	0.795383
C177	C	1.724698	-1.070783	0.840828
C178	C	1.650827	-1.045030	0.766839
H179	H	1.748423	-1.088572	0.513556
H180	H	1.876978	-1.133390	0.642315
H181	H	1.861912	-1.122093	0.850154
H182	H	1.718288	-1.065977	0.929240
H183	H	1.589733	-1.021160	0.800481
H184	H	1.118268	-0.164199	0.384372
H185	H	1.707302	-0.828955	0.695363
C186	C	1.726441	-0.737117	0.714556
C187	C	1.680856	-0.704848	0.796995
C188	C	1.754714	-0.678994	0.870972
C189	C	1.874158	-0.685409	0.862510
C190	C	1.919749	-0.717679	0.780066
C191	C	1.845890	-0.743533	0.706089
H192	H	1.592431	-0.700098	0.803263
H193	H	1.720964	-0.655106	0.932002
H194	H	1.928832	-0.666271	0.917272
H195	H	2.008174	-0.722429	0.773799
H196	H	1.879641	-0.767422	0.645059
H197	H	1.639910	-0.387318	0.627931
H198	H	1.652554	-0.273826	0.807435
H199	H	1.707183	-0.603089	0.695278
H200	H	1.396563	-0.959906	0.384136
C201	C	1.377442	-1.051734	0.364946
C202	C	1.386071	-1.045321	0.245516
C203	C	1.312206	-1.071176	0.171547
C204	C	1.229713	-1.103443	0.217007
C205	C	1.221080	-1.109857	0.336443
C206	C	1.294945	-1.084002	0.410412
H207	H	1.447141	-1.021434	0.211858
H208	H	1.318597	-1.066428	0.083132
H209	H	1.175033	-1.122582	0.162251
H210	H	1.160010	-1.133744	0.370101
H211	H	1.288554	-1.088750	0.498827
C212	C	1.310137	-0.835956	0.297654
C213	C	1.318756	-0.829548	0.178222
C214	C	1.244878	-0.855403	0.104265
C215	C	1.162382	-0.887664	0.149740
C216	C	1.153760	-0.894074	0.269178
C217	C	1.227637	-0.868219	0.343135
H218	H	1.379828	-0.805665	0.144554
H219	H	1.251262	-0.850658	0.015849
H220	H	1.107693	-0.906803	0.094993
H221	H	1.092688	-0.917957	0.302847
H222	H	1.221254	-0.872964	0.431552
H223	H	1.396280	-0.472627	0.383944
