data_functionalizedCrystal
_audit_creation_method	'MofGen! by Chris Wilmer'
_symmetry_space_group_name_H-M	'P1'
_symmetry_Int_Tables_number	1
_symmetry_cell_setting	triclinic
loop_
_symmetry_equiv_pos_as_xyz
  x,y,z
_cell_length_a	13.262533
_cell_length_b	19.188930
_cell_length_c	12.376457
_cell_angle_alpha	101.232575
_cell_angle_beta	94.179852
_cell_angle_gamma	83.818120
loop_
_atom_site_label
_atom_site_type_symbol
_atom_site_fract_x
_atom_site_fract_y
_atom_site_fract_z
O1	O	1.324897	0.138459	0.313319
O2	O	1.824897	0.638459	0.813319
O3	O	1.038209	0.136189	0.225174
O4	O	1.538209	0.636189	0.725174
O5	O	1.189822	0.036076	0.271811
O6	O	1.689822	0.536076	0.771811
O7	O	1.173284	0.238573	0.266682
O8	O	1.673284	0.738573	0.766682
O9	O	1.151932	0.061068	0.448168
O10	O	1.651932	0.561068	0.948168
O11	O	1.000319	0.161182	0.401531
O12	O	1.500319	0.661182	0.901531
O13	O	1.287008	0.163452	0.489676
O14	O	1.787008	0.663452	0.989676
Zn15	Zn	1.137648	0.166285	0.473604
Zn16	Zn	1.637648	0.666285	0.973604
Zn17	Zn	1.187569	0.133356	0.241246
Zn18	Zn	1.687569	0.633356	0.741246
O19	O	1.135395	0.263565	0.443039
O20	O	1.635395	0.763565	0.943039
C21	C	0.982586	0.146514	0.302076
C22	C	1.482586	0.646514	0.802076
C23	C	0.873297	0.140035	0.268475
C24	C	1.373297	0.640035	0.768475
C25	C	1.170341	0.022535	0.359828
C26	C	1.670341	0.522535	0.859828
C27	C	1.168730	-0.055047	0.359342
C28	C	1.668730	0.444953	0.859342
C29	C	0.482606	0.176274	0.558289
C30	C	0.982606	0.676274	1.058289
C31	C	0.585287	0.182366	0.589864
C32	C	1.085287	0.682366	1.089864
C33	C	0.657294	0.171783	0.509519
C34	C	1.157294	0.671783	1.009519
C35	C	0.626611	0.155109	0.397594
C36	C	1.126611	0.655109	0.897594
C37	C	0.523919	0.149022	0.366016
C38	C	1.023919	0.649022	0.866016
C39	C	0.698607	0.144531	0.317246
C40	C	1.198607	0.644531	0.817246
C41	C	0.667925	0.127856	0.205322
C42	C	1.167925	0.627856	0.705322
C43	C	0.565242	0.121770	0.173749
C44	C	1.065242	0.621770	0.673749
C45	C	0.493235	0.132353	0.254093
C46	C	0.993235	0.632353	0.754093
C47	C	0.801299	0.150618	0.348825
C48	C	1.301299	0.650618	0.848825
C49	C	0.842613	0.123365	0.156552
C50	C	1.342613	0.623365	0.656552
C51	C	0.739932	0.117274	0.124977
C52	C	1.239932	0.617274	0.624977
C53	C	1.257693	-0.095624	0.386700
C54	C	1.757693	0.404376	0.886700
C55	C	1.256186	-0.168524	0.386219
C56	C	1.756186	0.331476	0.886219
C57	C	1.165705	-0.200841	0.358399
C58	C	1.665705	0.299159	0.858399
C59	C	1.076732	-0.160255	0.331031
C60	C	1.576732	0.339745	0.831031
C61	C	1.078244	-0.087358	0.331503
C62	C	1.578244	0.412642	0.831503
N63	N	1.083649	-0.303719	0.397152
N64	N	1.583649	0.196281	0.897152
N65	N	1.082218	-0.372968	0.396708
N66	N	1.582218	0.127032	0.896708
C67	C	1.161144	-0.420475	0.356973
C68	C	1.661144	0.079525	0.856973
N69	N	1.241567	-0.396117	0.317717
N70	N	1.741567	0.103883	0.817717
N71	N	1.243000	-0.326861	0.318167
N72	N	1.743000	0.173139	0.818167
C73	C	1.164056	-0.279885	0.357883
C74	C	1.664056	0.220115	0.857883
C75	C	1.248479	-0.540100	0.383810
C76	C	1.748479	-0.040100	0.883810
C77	C	1.246969	-0.613002	0.383320
C78	C	1.746969	-0.113002	0.883320
C79	C	1.067511	-0.604730	0.328143
C80	C	1.567511	-0.104730	0.828143
C81	C	1.069025	-0.531830	0.328622
C82	C	1.569025	-0.031830	0.828622
C83	C	1.159511	-0.499519	0.356461
C84	C	1.659511	0.000481	0.856461
C85	C	1.342631	0.153127	0.412772
C86	C	1.842631	0.653127	0.912772
C87	C	1.451922	0.159605	0.446366
C88	C	1.951922	0.659605	0.946366
C89	C	1.154877	0.277106	0.355020
C90	C	1.654877	0.777106	0.855020
C91	C	1.156488	0.354686	0.355498
C92	C	1.656488	0.854686	0.855498
N93	N	1.103585	0.188758	0.632184
N94	N	1.603585	0.688758	1.132184
N95	N	1.221639	0.110878	0.082668
N96	N	1.721639	0.610878	0.582668
C97	C	1.300710	0.058698	1.047806
C98	C	1.800710	0.558698	1.547806
C99	C	1.324545	0.042968	0.936798
C100	C	1.824545	0.542968	1.436798
C101	C	1.269307	0.079414	0.860639
C102	C	1.769307	0.579414	1.360639
C103	C	1.190230	0.131592	0.895499
C104	C	1.690230	0.631592	1.395499
C105	C	1.166398	0.147327	1.006520
C106	C	1.666398	0.647327	1.506520
C107	C	1.134994	0.168044	0.819353
C108	C	1.634994	0.668044	1.319353
C109	C	1.055918	0.220222	0.854213
C110	C	1.555918	0.720222	1.354213
C111	C	1.032089	0.235953	0.965223
C112	C	1.532089	0.735953	1.465223
C113	C	1.087327	0.199507	1.041382
C114	C	1.587327	0.699507	1.541382
C115	C	1.158827	0.152309	0.708333
C116	C	1.658827	0.652309	1.208333
C117	C	1.024514	0.240938	0.667046
C118	C	1.524514	0.740938	1.167046
C119	C	1.000679	0.256667	0.778054
C120	C	1.500679	0.756667	1.278054
H121	H	0.826270	0.164196	0.439954
H122	H	1.326270	0.664196	0.939954
H123	H	1.331374	-0.069322	0.409365
H124	H	1.831374	0.430678	0.909365
F125	F	0.766576	0.178266	0.543127
F126	F	1.266576	0.678266	1.043127
H127	H	0.610261	0.195942	0.680993
H128	H	1.110261	0.695942	1.180993
H129	H	1.328633	-0.201569	0.408493
H130	H	1.828633	0.298431	0.908493
F131	F	1.408701	-0.012559	0.899701
F132	F	1.908701	0.487441	1.399701
F133	F	0.916522	0.312198	0.815168
F134	F	1.416522	0.812198	1.315168
H135	H	0.409623	0.127387	0.228391
H136	H	0.909623	0.627387	0.728391
F137	F	0.919243	0.112107	0.071037
F138	F	1.419243	0.612107	0.571037
F139	F	0.965725	0.279732	0.585997
F140	F	1.465725	0.779732	1.085997
H141	H	1.005797	-0.054319	0.309224
H142	H	1.505797	0.445681	0.809224
F143	F	0.405966	0.187543	0.643783
F144	F	0.905966	0.687543	1.143783
H145	H	1.288717	0.066605	0.770252
H146	H	1.788717	0.566605	1.270252
H147	H	1.003063	-0.186572	0.308378
H148	H	1.503063	0.313428	0.808378
H149	H	0.714935	0.103698	0.033846
H150	H	1.214935	0.603698	0.533846
H151	H	0.540264	0.108200	0.082612
H152	H	1.040264	0.608200	0.582612
H153	H	1.322159	-0.513791	0.406473
H154	H	1.822159	-0.013791	0.906473
F155	F	1.341663	-0.656189	0.412433
F156	F	1.841663	-0.156189	0.912433
H157	H	0.993841	-0.631042	0.305486
H158	H	1.493841	-0.131042	0.805486
H159	H	0.996580	-0.498791	0.306350
H160	H	1.496580	0.001209	0.806350
F161	F	1.359498	0.019920	1.128863
F162	F	1.859498	0.519920	1.628863
H163	H	1.223211	0.109826	0.679960
H164	H	1.723211	0.609826	1.179960
H165	H	1.067919	0.212312	1.131774
H166	H	1.567919	0.712312	1.631774
H167	H	0.967708	0.278445	0.993607
H168	H	1.467708	0.778445	1.493607
