data_functionalizedCrystal
_audit_creation_method	'MofGen! by Chris Wilmer'
_symmetry_space_group_name_H-M	'P1'
_symmetry_Int_Tables_number	1
_symmetry_cell_setting	triclinic
loop_
_symmetry_equiv_pos_as_xyz
  x,y,z
_cell_length_a	19.188905
_cell_length_b	17.038278
_cell_length_c	15.500227
_cell_angle_alpha	93.026324
_cell_angle_beta	87.158310
_cell_angle_gamma	87.122528
loop_
_atom_site_label
_atom_site_type_symbol
_atom_site_fract_x
_atom_site_fract_y
_atom_site_fract_z
O1	O	0.935251	0.093849	-0.072101
O2	O	1.435251	0.593849	0.427899
O3	O	0.732753	0.107008	-0.072074
O4	O	1.232753	0.607008	0.427926
O5	O	0.832798	-0.013382	-0.072066
O6	O	1.332798	0.486618	0.427934
O7	O	0.835205	0.214239	-0.072110
O8	O	1.335205	0.714239	0.427890
O9	O	0.826726	-0.006105	0.071823
O10	O	1.326726	0.493895	0.571823
O11	O	0.726680	0.114285	0.071814
O12	O	1.226680	0.614285	0.571814
O13	O	0.929178	0.101126	0.071787
O14	O	1.429178	0.601126	0.571787
Cu15	Cu	0.827375	0.108370	0.084939
Cu16	Cu	1.327375	0.608370	0.584939
Cu17	Cu	0.834556	0.099764	-0.085226
Cu18	Cu	1.334556	0.599764	0.414774
O19	O	0.829133	0.221516	0.071778
O20	O	1.329133	0.721516	0.571778
C21	C	0.703679	0.110224	-0.000126
C22	C	1.203679	0.610224	0.499874
C23	C	0.626094	0.108955	-0.000114
C24	C	1.126094	0.608955	0.499886
C25	C	0.827573	-0.038864	-0.000117
C26	C	1.327573	0.461136	0.499883
C27	C	0.821041	-0.125635	-0.000105
C28	C	1.321041	0.374365	0.499895
C29	C	0.780923	-0.615921	-0.000179
C30	C	1.280923	-0.115921	0.499821
C31	C	0.787064	-0.534390	-0.000171
C32	C	1.287064	-0.034390	0.499829
C33	C	0.853173	-0.503170	-0.000168
C34	C	1.353173	-0.003170	0.499832
C35	C	0.913145	-0.553486	-0.000182
C36	C	1.413145	-0.053486	0.499818
C37	C	0.907003	-0.635016	-0.000196
C38	C	1.407003	-0.135016	0.499804
C39	C	0.874871	-0.257481	-0.000132
C40	C	1.374871	0.242519	0.499868
C41	C	0.881008	-0.175945	-0.000116
C42	C	1.381008	0.324055	0.499884
C43	C	0.754927	-0.156855	-0.000107
C44	C	1.254927	0.343145	0.499893
C45	C	0.748791	-0.238387	-0.000115
C46	C	1.248791	0.261613	0.499885
C47	C	0.808763	-0.288696	-0.000134
C48	C	1.308763	0.211304	0.499866
C49	C	0.859452	-0.419832	-0.000158
C50	C	1.359452	0.080168	0.499842
C51	C	0.802484	-0.372032	-0.000150
C52	C	1.302484	0.127968	0.499850
C53	C	0.592975	0.104379	-0.078550
C54	C	1.092975	0.604379	0.421450
C55	C	0.520077	0.103177	-0.078560
C56	C	1.020077	0.603177	0.421440
C57	C	0.480302	0.106536	-0.000131
C58	C	0.980302	0.606536	0.499869
C59	C	0.513429	0.111118	0.078315
C60	C	1.013429	0.611118	0.578315
C61	C	0.586325	0.112327	0.078323
C62	C	1.086325	0.612327	0.578323
N63	N	0.365937	0.063106	0.058246
N64	N	0.865937	0.563106	0.558246
N65	N	0.296689	0.061955	0.058232
N66	N	0.796689	0.561955	0.558232
C67	C	0.260670	0.102894	-0.000151
C68	C	0.760670	0.602894	0.499849
N69	N	0.296516	0.145016	-0.058534
N70	N	0.796516	0.645016	0.441466
N71	N	0.365771	0.146164	-0.058523
N72	N	0.865771	0.646164	0.441477
C73	C	0.401258	0.105225	-0.000131
C74	C	0.901258	0.605225	0.499869
C75	C	0.148507	0.097015	-0.078604
C76	C	0.648507	0.597015	0.421396
C77	C	0.075607	0.095818	-0.078611
C78	C	0.575607	0.595818	0.421389
C79	C	0.068961	0.103751	0.078267
C80	C	0.568961	0.603751	0.578267
C81	C	0.141859	0.104955	0.078272
C82	C	0.641859	0.604955	0.578272
C83	C	0.181628	0.101583	-0.000166
C84	C	0.681628	0.601583	0.499834
C85	C	0.958252	0.097910	-0.000163
C86	C	1.458252	0.597910	0.499837
C87	C	1.035837	0.099178	-0.000180
C88	C	1.535837	0.599178	0.499820
C89	C	0.834358	0.246998	-0.000172
C90	C	1.334358	0.746998	0.499828
C91	C	0.840890	0.333769	-0.000190
C92	C	1.340890	0.833769	0.499810
N93	N	0.822328	0.114422	0.204623
N94	N	1.322328	0.614422	0.704623
N95	N	0.839608	0.093706	-0.204910
N96	N	1.339608	0.593706	0.295090
C97	C	0.864738	0.063428	0.249903
C98	C	1.364738	0.563428	0.749903
C99	C	0.860929	0.068012	0.340476
C100	C	1.360929	0.568012	0.840476
C101	C	0.814713	0.123596	0.385767
C102	C	1.314713	0.623596	0.885767
C103	C	0.772298	0.174593	0.340480
C104	C	1.272298	0.674593	0.840480
C105	C	0.776105	0.170004	0.249909
C106	C	1.276105	0.670004	0.749909
C107	C	0.801000	0.140114	0.659232
C108	C	1.301000	0.640114	1.159232
C109	C	0.797198	0.144700	0.749810
C110	C	1.297198	0.644700	1.249810
C111	C	0.885828	0.038118	0.749799
C112	C	1.385828	0.538118	1.249799
C113	C	0.889633	0.033537	0.659226
C114	C	1.389633	0.533537	1.159226
C115	C	0.847216	0.084532	0.613948
C116	C	1.347216	0.584532	1.113948
C117	C	0.810819	0.128285	0.478346
C118	C	1.310819	0.628285	0.978346
C119	C	0.851106	0.079838	0.521370
C120	C	1.351106	0.579838	1.021370
H121	H	0.727089	-0.641333	-0.000171
H122	H	1.227089	-0.141333	0.499829
C123	C	0.940502	-0.027569	0.609409
C124	C	1.440502	0.472431	1.109409
H125	H	0.936710	-0.022982	0.548983
H126	H	1.436710	0.477018	1.048983
H127	H	0.929237	-0.078982	0.624249
H128	H	1.429237	0.421018	1.124249
H129	H	0.986961	-0.018416	0.624252
H130	H	1.486961	0.481584	1.124252
H131	H	0.759562	0.189966	0.786681
H132	H	1.259562	0.689966	1.286681
H133	H	0.955835	-0.675978	-0.000208
H134	H	1.455835	-0.175978	0.499792
H135	H	0.481040	0.113855	0.142173
H136	H	0.981040	0.613855	0.642173
H137	H	0.625350	0.101633	-0.142420
H138	H	1.125350	0.601633	0.357580
C139	C	0.483637	0.098150	-0.164843
C140	C	0.983637	0.598150	0.335157
H141	H	0.517762	0.096314	-0.211555
H142	H	1.017762	0.596314	0.288445
H143	H	0.452714	0.143088	-0.168111
H144	H	0.952714	0.643088	0.331889
H145	H	0.457963	0.051935	-0.168097
H146	H	0.957963	0.551935	0.331903
H147	H	0.036577	0.106491	0.142126
H148	H	0.536577	0.606491	0.642126
C149	C	0.915580	0.002292	0.200087
C150	C	1.415580	0.502292	0.700087
H151	H	0.911781	0.006867	0.139661
H152	H	1.411781	0.506867	0.639661
H153	H	0.904284	-0.049106	0.214949
H154	H	1.404284	0.450894	0.714949
H155	H	0.962049	0.011410	0.214912
H156	H	1.462049	0.511410	0.714912
C157	C	0.932475	-0.017977	0.799607
C158	C	1.432475	0.482023	1.299607
H159	H	0.923586	-0.007291	0.860034
H160	H	1.423586	0.492709	1.360034
H161	H	0.980191	-0.010379	0.784741
H162	H	1.480191	0.489621	1.284741
H163	H	0.922413	-0.070878	0.784782
H164	H	1.422413	0.429122	1.284782
H165	H	0.748658	-0.397455	-0.000157
H166	H	1.248658	0.102545	0.499843
H167	H	0.888733	0.034579	0.484492
H168	H	1.388733	0.534579	0.984492
C169	C	0.754349	0.196212	0.609437
C170	C	1.254349	0.696212	1.109437
H171	H	0.726287	0.229977	0.649385
H172	H	1.226287	0.729977	1.149385
H173	H	0.725104	0.166390	0.574127
H174	H	1.225104	0.666390	1.074127
H175	H	0.782881	0.226892	0.574085
H176	H	1.282881	0.726892	1.074085
H177	H	0.738232	-0.493431	-0.000165
H178	H	1.238232	0.006569	0.499835
C179	C	0.039172	0.090787	-0.164892
C180	C	0.539172	0.590787	0.335108
H181	H	-0.009939	0.090560	-0.153665
H182	H	0.490061	0.590560	0.346335
H183	H	0.055106	0.043780	-0.197108
H184	H	0.555106	0.543780	0.302892
H185	H	0.049862	0.134932	-0.197128
H186	H	0.549862	0.634932	0.302872
H187	H	0.913277	-0.394402	-0.000127
H188	H	1.413277	0.105598	0.499873
H189	H	0.734665	0.219848	0.377361
H190	H	1.234665	0.719848	0.877361
C191	C	0.729457	0.226098	0.200097
C192	C	1.229457	0.726098	0.700097
H193	H	0.738338	0.215400	0.139670
H194	H	1.238338	0.715400	0.639670
H195	H	0.739509	0.278999	0.214917
H196	H	1.239509	0.778999	0.714917
H197	H	0.681739	0.218488	0.214964
H198	H	1.181739	0.718488	0.714964
H199	H	0.773190	0.173544	0.515229
H200	H	1.273190	0.673544	1.015229
C201	C	0.192254	0.093321	-0.164879
C202	C	0.692254	0.593321	0.335121
H203	H	0.162085	0.090436	-0.211596
H204	H	0.662085	0.590436	0.288404
H205	H	0.223454	0.048054	-0.168134
H206	H	0.723454	0.548054	0.331866
H207	H	0.218203	0.139207	-0.168139
H208	H	0.718203	0.639207	0.331861
H209	H	0.613290	0.116055	0.142197
H210	H	1.113290	0.616055	0.642197
C211	C	0.985863	-0.519146	-0.000177
C212	C	1.485863	-0.019146	0.499823
H213	H	0.980933	-0.463383	-0.000158
H214	H	1.480933	0.036617	0.499842
H215	H	1.012881	-0.538951	-0.050357
H216	H	1.512881	-0.038951	0.449643
H217	H	1.008633	-0.533909	0.050004
H218	H	1.508633	-0.033909	0.550004
C219	C	0.688963	-0.101519	-0.000097
C220	C	1.188963	0.398481	0.499903
H221	H	0.648712	-0.131789	-0.000096
H222	H	1.148712	0.368211	0.499904
H223	H	0.690860	-0.071840	-0.050268
H224	H	1.190860	0.428160	0.449732
H225	H	0.686615	-0.066794	0.050092
H226	H	1.186615	0.433206	0.550092
H227	H	0.168825	0.108677	0.142143
H228	H	0.668825	0.608677	0.642143
H229	H	0.934845	-0.150529	-0.000113
H230	H	1.434845	0.349471	0.499887
C231	C	0.676072	-0.272724	-0.000119
C232	C	1.176072	0.227276	0.499881
H233	H	0.641236	-0.231083	-0.000117
H234	H	1.141236	0.268917	0.499883
H235	H	0.668936	-0.301608	0.050053
H236	H	1.168936	0.198392	0.550053
H237	H	0.673176	-0.306654	-0.050307
H238	H	1.173176	0.193346	0.449693
C239	C	0.940837	-0.312810	-0.000138
C240	C	1.440837	0.187190	0.499862
H241	H	0.981086	-0.282536	-0.000123
H242	H	1.481086	0.217464	0.499877
H243	H	0.943190	-0.347536	-0.050319
H244	H	1.443190	0.152464	0.449681
H245	H	0.938938	-0.342485	0.050041
H246	H	1.438938	0.157515	0.550041
C247	C	0.907586	0.011925	0.390280
C248	C	1.407586	0.511925	0.890280
H249	H	0.935663	-0.021827	0.350335
H250	H	1.435663	0.478173	0.850335
H251	H	0.879066	-0.018758	0.425636
H252	H	1.379066	0.481242	0.925636
H253	H	0.936828	0.041762	0.425587
H254	H	1.436828	0.541762	0.925587
