data_functionalizedCrystal
_audit_creation_method	'MofGen! by Chris Wilmer'
_symmetry_space_group_name_H-M	'P1'
_symmetry_Int_Tables_number	1
_symmetry_cell_setting	triclinic
loop_
_symmetry_equiv_pos_as_xyz
  x,y,z
_cell_length_a	12.759401
_cell_length_b	19.121063
_cell_length_c	12.759393
_cell_angle_alpha	92.402917
_cell_angle_beta	89.981504
_cell_angle_gamma	92.469017
loop_
_atom_site_label
_atom_site_type_symbol
_atom_site_fract_x
_atom_site_fract_y
_atom_site_fract_z
Zn1	Zn	1.588321	-0.279568	-0.611771
Zn2	Zn	1.580680	-0.397037	-0.443567
Zn3	Zn	1.412621	-0.279605	-0.436113
Zn4	Zn	1.405080	-0.396983	-0.619205
O5	O	1.496676	-0.338298	-0.527664
O6	O	1.734328	-0.295158	-0.589467
O7	O	1.558345	-0.381497	-0.295559
O8	O	1.442282	-0.181316	-0.453184
O9	O	1.728714	-0.381462	-0.465888
O10	O	1.571368	-0.181289	-0.582240
O11	O	1.434872	-0.295221	-0.290083
O12	O	1.264600	-0.295168	-0.460392
O13	O	1.429429	-0.381370	-0.765237
O14	O	1.259060	-0.381405	-0.594909
O15	O	1.564056	-0.295106	-0.759776
O16	O	1.551032	-0.495314	-0.473095
O17	O	1.422020	-0.495274	-0.602136
C18	C	1.223709	-0.338285	-0.527649
C19	C	1.106932	-0.338297	-0.527668
C20	C	1.484907	-0.520778	-0.539254
C21	C	1.479969	-0.598844	-0.544247
C22	C	1.049208	-0.383272	-0.597605
C23	C	0.939483	-0.383281	-0.597616
C24	C	0.945216	-0.293337	-0.457747
C25	C	1.054939	-0.293325	-0.457741
C26	C	1.101200	-0.428244	-0.667532
C27	C	1.043476	-0.473224	-0.737473
C28	C	0.933751	-0.473233	-0.737485
C29	C	0.881751	-0.428262	-0.667556
C30	C	1.544871	-0.635516	-0.479464
C31	C	1.540233	-0.708867	-0.484167
C32	C	1.470686	-0.745544	-0.553648
C33	C	1.405781	-0.708866	-0.618438
C34	C	1.410426	-0.635517	-0.613740
C35	C	1.453305	-0.967013	-0.571195
C36	C	1.448663	-1.040368	-0.575886
C37	C	1.583116	-1.040364	-0.441616
C38	C	1.587750	-0.967013	-0.436920
C39	C	1.522849	-0.930341	-0.501714
C40	C	1.465941	-0.820521	-0.558454
C41	C	1.527600	-0.855366	-0.496912
C42	C	1.770708	-0.338312	-0.527680
C43	C	1.887484	-0.338318	-0.527686
C44	C	1.496754	-0.338227	-0.801693
C45	C	1.496787	-0.338197	-0.918468
C46	C	1.508518	-0.155106	-0.516052
C47	C	1.513565	-0.077040	-0.511103
C48	C	1.566897	-0.293275	-0.970488
C49	C	1.566923	-0.293250	-1.080210
C50	C	1.426727	-0.383075	-1.085884
C51	C	1.426696	-0.383096	-0.976163
C52	C	1.636987	-0.248377	-0.912792
C53	C	1.707103	-0.203452	-0.964812
C54	C	1.707130	-0.203426	-1.074535
C55	C	1.637040	-0.248326	-1.132237
C56	C	1.496661	-0.338318	-0.254698
C57	C	1.496844	-0.338151	-0.137911
H58	H	1.190543	-0.428243	-0.667528
H59	H	1.764161	-0.166892	-0.917823
F60	F	1.637060	-0.248288	-1.249015
F61	F	1.352077	-0.430906	-0.920796
H62	H	1.584229	-0.825502	-0.440345
F63	F	1.781753	-0.155615	-1.129895
F64	F	1.352141	-0.430858	-1.147298
H65	H	1.085822	-0.509833	-0.794413
F66	F	0.872320	-0.521097	-0.811929
H67	H	1.101940	-0.256697	-0.400800
F68	F	1.341350	-0.596487	-0.682694
F69	F	0.764971	-0.428268	-0.667580
H70	H	1.349159	-0.738734	-0.675015
H71	H	1.409314	-0.850391	-0.615023
H72	H	0.902869	-0.256725	-0.400813
F73	F	1.618886	-0.596489	-0.405506
F74	F	1.609314	-0.747894	-0.415218
F75	F	1.374628	-1.079400	-0.649830
H76	H	1.644380	-0.937152	-0.380343
H77	H	1.400458	-0.937161	-0.623951
F78	F	1.636968	-0.248402	-0.796016
F79	F	1.652188	-1.079397	-0.372668
