data_functionalizedCrystal
_audit_creation_method	'MofGen! by Chris Wilmer'
_symmetry_space_group_name_H-M	'P1'
_symmetry_Int_Tables_number	1
_symmetry_cell_setting	triclinic
loop_
_symmetry_equiv_pos_as_xyz
  x,y,z
_cell_length_a	19.805407
_cell_length_b	10.686203
_cell_length_c	19.805399
_cell_angle_alpha	94.386472
_cell_angle_beta	90.021725
_cell_angle_gamma	85.635327
loop_
_atom_site_label
_atom_site_type_symbol
_atom_site_fract_x
_atom_site_fract_y
_atom_site_fract_z
Zn1	Zn	-1.055485	0.502332	-0.362166
Zn2	Zn	-0.555485	1.002332	0.137834
Zn3	Zn	-1.064116	0.713342	-0.240328
Zn4	Zn	-0.564116	1.213342	0.259672
Zn5	Zn	-0.942301	0.502371	-0.248985
Zn6	Zn	-0.442301	1.002371	0.251015
Zn7	Zn	-0.950977	0.713280	-0.353473
Zn8	Zn	-0.450977	1.213280	0.146527
O9	O	-1.003220	0.607832	-0.301238
O10	O	-0.503220	1.107832	0.198762
O11	O	-1.151347	0.530333	-0.346019
O12	O	-0.651347	1.030333	0.153981
O13	O	-1.047938	0.685399	-0.146758
O14	O	-0.547938	1.185399	0.353242
O15	O	-0.950073	0.325792	-0.271260
O16	O	-0.450073	0.825792	0.228740
O17	O	-1.157688	0.685361	-0.256505
O18	O	-0.657688	1.185361	0.243495
O19	O	-1.033228	0.325763	-0.354414
O20	O	-0.533228	0.825763	0.145586
O21	O	-0.958442	0.530400	-0.153118
O22	O	-0.458442	1.030400	0.346882
O23	O	-0.848735	0.530339	-0.262830
O24	O	-0.348735	1.030339	0.237170
O25	O	-0.964858	0.685255	-0.449344
O26	O	-0.464858	1.185255	0.050656
O27	O	-0.855109	0.685293	-0.339597
O28	O	-0.355109	1.185293	0.160403
O29	O	-1.041640	0.530272	-0.455731
O30	O	-0.541640	1.030272	0.044269
O31	O	-1.056350	0.889909	-0.248076
O32	O	-0.556350	1.389909	0.251924
O33	O	-0.973227	0.889863	-0.331203
O34	O	-0.473227	1.389863	0.168797
C35	C	-0.827363	0.607814	-0.301210
C36	C	-0.327363	1.107814	0.198790
C37	C	-0.752132	0.607837	-0.301213
C38	C	-0.252132	1.107837	0.198787
C39	C	-0.287048	0.527243	-0.347918
C40	C	0.212952	1.027243	0.152082
C41	C	-0.357737	0.527247	-0.347915
C42	C	0.142263	1.027247	0.152085
C43	C	-0.396370	0.607837	-0.301246
C44	C	0.103630	1.107837	0.198754
C45	C	-0.364312	0.688437	-0.254581
C46	C	0.135688	1.188437	0.245419
C47	C	-0.293625	0.688439	-0.254588
C48	C	0.206375	1.188439	0.245412
C49	C	-0.649385	0.688434	-0.254552
C50	C	-0.149385	1.188434	0.245448
C51	C	-0.720077	0.688424	-0.254547
C52	C	-0.220077	1.188424	0.245453
C53	C	-0.713497	0.527242	-0.347879
C54	C	-0.213497	1.027242	0.152121
C55	C	-0.642810	0.527243	-0.347886
C56	C	-0.142810	1.027243	0.152114
C57	C	-0.610758	0.607848	-0.301224
C58	C	-0.110758	1.107848	0.198776
C59	C	-0.534109	0.607844	-0.301229
C60	C	-0.034109	1.107844	0.198771
C61	C	-0.473017	0.607835	-0.301237
C62	C	0.026983	1.107835	0.198763
C63	C	-1.016685	0.935670	-0.287771
C64	C	-0.516685	1.435670	0.212229
C65	C	-1.022508	1.075920	-0.282033
C66	C	-0.522508	1.575920	0.217967
C67	C	-0.179763	0.607844	-0.301261
C68	C	0.320237	1.107844	0.198739
C69	C	-0.254994	0.607834	-0.301256
C70	C	0.245006	1.107834	0.198744
C71	C	-1.003254	0.607752	-0.477784
C72	C	-0.503254	1.107752	0.022216
C73	C	-1.003269	0.607718	-0.553017
C74	C	-0.503269	1.107718	-0.053017
C75	C	-0.989713	1.278713	-0.314779
C76	C	-0.489713	1.778713	0.185221
C77	C	-0.983941	1.138463	-0.320568
C78	C	-0.483941	1.638463	0.179432
C79	C	-1.043250	0.527015	-0.591688
C80	C	-0.543250	1.027015	-0.091688
C81	C	-1.043256	0.526978	-0.662378
C82	C	-0.543256	1.026978	-0.162378
C83	C	-1.003283	0.607652	-0.694396
C84	C	-0.503283	1.107652	-0.194396
C85	C	-0.963297	0.688359	-0.655720
C86	C	-0.463297	1.188359	-0.155720
C87	C	-0.963289	0.688389	-0.585031
C88	C	-0.463289	1.188389	-0.085031
C89	C	-0.963331	0.688242	-0.940798
C90	C	-0.463331	1.188242	-0.440798
C91	C	-0.963344	0.688209	-1.011491
C92	C	-0.463344	1.188209	-0.511491
C93	C	-1.043298	0.526831	-1.018145
C94	C	-0.543298	1.026831	-0.518145
C95	C	-1.043289	0.526861	-0.947457
C96	C	-0.543289	1.026861	-0.447457
C97	C	-1.003301	0.607562	-0.908787
C98	C	-0.503301	1.107562	-0.408787
C99	C	-1.003295	0.607599	-0.832137
C100	C	-0.503295	1.107599	-0.332137
C101	C	-1.003293	0.607623	-0.771044
C102	C	-0.503293	1.107623	-0.271044
C103	C	-1.003220	0.607820	-0.125382
C104	C	-0.503220	1.107820	0.374618
C105	C	-1.003322	0.607498	-0.050164
C106	C	-0.503322	1.107498	0.449836
H107	H	-0.255597	0.461609	-0.385918
H108	H	0.244403	0.961609	0.114082
F109	F	-1.085855	0.440936	-1.059306
F110	F	-0.585855	0.940936	-0.559306
H111	H	-1.059978	1.129677	-0.244643
H112	H	-0.559978	1.629677	0.255357
F113	F	-1.085799	0.441155	-0.557619
F114	F	-0.585799	0.941155	-0.057619
F115	F	-0.920797	0.774077	-1.045565
F116	F	-0.420797	1.274077	-0.545565
F117	F	-1.085836	0.441001	-0.913385
F118	F	-0.585836	0.941001	-0.413385
F119	F	-0.601696	0.441465	-0.397556
F120	F	-0.101696	0.941465	0.102444
H121	H	-1.075814	0.461264	-0.693861
H122	H	-0.575814	0.961264	-0.193861
H123	H	-0.930781	0.753972	-0.909320
H124	H	-0.430781	1.253972	-0.409320
H125	H	-0.930749	0.754041	-0.681794
H126	H	-0.430749	1.254041	-0.181794
H127	H	-0.383831	0.461625	-0.385914
H128	H	0.116169	0.961625	0.114086
F129	F	-0.920734	0.774281	-0.543875
F130	F	-0.420734	1.274281	-0.043875
F131	F	-0.747614	0.441459	-0.397544
F132	F	-0.247614	0.941459	0.102456
F133	F	-0.761193	0.774203	-0.204872
F134	F	-0.261193	1.274203	0.295128
H135	H	-0.946469	1.084714	-0.357951
H136	H	-0.446469	1.584714	0.142049
F137	F	-0.405431	0.774213	-0.204915
F138	F	0.094569	1.274213	0.295085
F139	F	-0.259512	0.774223	-0.204928
F140	F	0.240488	1.274223	0.295072
F141	F	-0.615281	0.774192	-0.204876
F142	F	-0.115281	1.274192	0.295124
