data_functionalizedCrystal
_audit_creation_method	'MofGen! by Chris Wilmer'
_symmetry_space_group_name_H-M	'P1'
_symmetry_Int_Tables_number	1
_symmetry_cell_setting	triclinic
loop_
_symmetry_equiv_pos_as_xyz
  x,y,z
_cell_length_a	14.519709
_cell_length_b	16.109301
_cell_length_c	15.186229
_cell_angle_alpha	90.000638
_cell_angle_beta	89.995307
_cell_angle_gamma	96.429187
loop_
_atom_site_label
_atom_site_type_symbol
_atom_site_fract_x
_atom_site_fract_y
_atom_site_fract_z
O1	O	0.118540	-1.103336	-0.073175
O2	O	0.368540	-0.853336	0.176825
O3	O	0.618540	-0.603336	0.426825
O4	O	0.868540	-0.353336	0.676825
O5	O	0.133292	-0.861299	-0.073189
O6	O	0.383292	-0.611299	0.176811
O7	O	0.633292	-0.361299	0.426811
O8	O	0.883292	-0.111299	0.676811
O9	O	-0.008336	-0.988735	-0.073174
O10	O	0.241664	-0.738735	0.176826
O11	O	0.491664	-0.488735	0.426826
O12	O	0.741664	-0.238735	0.676826
O13	O	0.260168	-0.975900	-0.073190
O14	O	0.510168	-0.725900	0.176810
O15	O	0.760168	-0.475900	0.426810
O16	O	1.010168	-0.225900	0.676810
O17	O	-0.008338	-0.988726	0.073284
O18	O	0.241662	-0.738726	0.323284
O19	O	0.491662	-0.488726	0.573284
O20	O	0.741662	-0.238726	0.823284
O21	O	0.133290	-0.861291	0.073268
O22	O	0.383290	-0.611291	0.323268
O23	O	0.633290	-0.361291	0.573268
O24	O	0.883290	-0.111291	0.823268
O25	O	0.118538	-1.103327	0.073282
O26	O	0.368538	-0.853327	0.323282
O27	O	0.618538	-0.603327	0.573282
O28	O	0.868538	-0.353327	0.823282
Zn29	Zn	0.125914	-0.982308	0.096529
Zn30	Zn	0.375914	-0.732308	0.346529
Zn31	Zn	0.625914	-0.482308	0.596529
Zn32	Zn	0.875914	-0.232308	0.846529
Zn33	Zn	0.125916	-0.982319	-0.096435
Zn34	Zn	0.375916	-0.732319	0.153565
Zn35	Zn	0.625916	-0.482319	0.403565
Zn36	Zn	0.875916	-0.232319	0.653565
O37	O	0.260166	-0.975892	0.073267
O38	O	0.510166	-0.725892	0.323267
O39	O	0.760166	-0.475892	0.573267
O40	O	1.010166	-0.225892	0.823267
C41	C	0.132693	-0.830319	0.000038
C42	C	0.382693	-0.580319	0.250038
C43	C	0.632693	-0.330319	0.500038
C44	C	0.882693	-0.080319	0.750038
C45	C	0.130902	-0.738021	0.000033
C46	C	0.380902	-0.488021	0.250033
C47	C	0.630902	-0.238021	0.500033
C48	C	0.880902	0.011979	0.750033
C49	C	-0.042696	-0.988132	0.000055
C50	C	0.207304	-0.738132	0.250055
C51	C	0.457304	-0.488132	0.500055
C52	C	0.707304	-0.238132	0.750055
C53	C	-0.145073	-0.986340	0.000056
C54	C	0.104927	-0.736340	0.250056
C55	C	0.354927	-0.486340	0.500056
C56	C	0.604927	-0.236340	0.750056
C57	C	0.119136	-1.134307	0.000054
C58	C	0.369136	-0.884307	0.250054
C59	C	0.619136	-0.634307	0.500054
C60	C	0.869136	-0.384307	0.750054
C61	C	0.120928	-1.226606	0.000053
C62	C	0.370928	-0.976606	0.250053
C63	C	0.620928	-0.726606	0.500053
C64	C	0.870928	-0.476606	0.750053
C65	C	-0.519955	-0.979741	0.000032
C66	C	-0.269955	-0.729741	0.250032
C67	C	-0.019955	-0.479741	0.500032
C68	C	0.230045	-0.229741	0.750032
C69	C	-0.415651	-0.981574	0.000039
C70	C	-0.165651	-0.731574	0.250039
C71	C	0.084349	-0.481574	0.500039
C72	C	0.334349	-0.231574	0.750039
C73	C	-0.332517	-0.983041	0.000045
C74	C	-0.082517	-0.733041	0.250045
C75	C	0.167483	-0.483041	0.500045
C76	C	0.417483	-0.233041	0.750045
C77	C	-0.228207	-0.984873	0.000050
C78	C	0.021793	-0.734873	0.250050
C79	C	0.271793	-0.484873	0.500050
C80	C	0.521793	-0.234873	0.750050
C81	C	0.294526	-0.976494	0.000036
C82	C	0.544526	-0.726494	0.250036
C83	C	0.794526	-0.476494	0.500036
C84	C	1.044526	-0.226494	0.750036
C85	C	0.396903	-0.978287	0.000030
C86	C	0.646903	-0.728287	0.250030
C87	C	0.896903	-0.478287	0.500030
C88	C	1.146903	-0.228287	0.750030
N89	N	0.125911	-0.982306	0.228221
N90	N	0.375911	-0.732306	0.478221
N91	N	0.625911	-0.482306	0.728221
N92	N	0.875911	-0.232306	0.978221
C93	C	0.210775	-0.515887	0.000038
C94	C	0.460775	-0.265887	0.250038
C95	C	0.710775	-0.015887	0.500038
C96	C	0.960775	0.234113	0.750038
C97	C	0.209085	-0.429163	0.000044
C98	C	0.459085	-0.179163	0.250044
C99	C	0.709085	0.070837	0.500044
C100	C	0.959085	0.320837	0.750044
C101	C	0.041048	-0.448747	0.000050
C102	C	0.291048	-0.198747	0.250050
C103	C	0.541048	0.051253	0.500050
C104	C	0.791048	0.301253	0.750050
C105	C	0.042739	-0.535468	0.000051
C106	C	0.292739	-0.285468	0.250051
C107	C	0.542739	-0.035468	0.500051
C108	C	0.792739	0.214532	0.750051
C109	C	0.127606	-0.569036	0.000040
C110	C	0.377606	-0.319036	0.250040
C111	C	0.627606	-0.069036	0.500040
C112	C	0.877606	0.180964	0.750040
C113	C	0.124224	-0.395591	0.000045
C114	C	0.374224	-0.145591	0.250045
C115	C	0.624224	0.104409	0.500045
C116	C	0.874224	0.354409	0.750045
C117	C	0.122390	-0.301562	0.000052
C118	C	0.372390	-0.051562	0.250052
C119	C	0.622390	0.198438	0.500052
C120	C	0.872390	0.448438	0.750052
C121	C	0.129440	-0.663071	0.000036
C122	C	0.379440	-0.413071	0.250036
C123	C	0.629440	-0.163071	0.500036
C124	C	0.879440	0.086929	0.750036
N125	N	0.125911	-0.982327	-0.228128
N126	N	0.375911	-0.732327	0.021872
N127	N	0.625911	-0.482327	0.271872
N128	N	0.875911	-0.232327	0.521872
C129	C	0.063219	-1.038754	0.453951
C130	C	0.313219	-0.788754	0.703951
C131	C	0.563219	-0.538754	0.953951
C132	C	0.813219	-0.288754	1.203951
C133	C	0.063217	-1.038756	0.546141
C134	C	0.313217	-0.788756	0.796141
C135	C	0.563217	-0.538756	1.046141
C136	C	0.813217	-0.288756	1.296141
C137	C	0.188606	-0.925873	0.546136
C138	C	0.438606	-0.675873	0.796136
C139	C	0.688606	-0.425873	1.046136
C140	C	0.938606	-0.175873	1.296136
C141	C	0.188603	-0.925867	0.453948
C142	C	0.438603	-0.675867	0.703948
C143	C	0.688603	-0.425867	0.953948
C144	C	0.938603	-0.175867	1.203948
C145	C	0.125911	-0.982312	0.407858
C146	C	0.375911	-0.732312	0.657858
C147	C	0.625911	-0.482312	0.907858
C148	C	0.875911	-0.232312	1.157858
C149	C	0.125912	-0.982321	0.592236
C150	C	0.375912	-0.732321	0.842236
C151	C	0.625912	-0.482321	1.092236
C152	C	0.875912	-0.232321	1.342236
C153	C	0.125910	-0.982323	0.692192
C154	C	0.375910	-0.732323	0.942192
C155	C	0.625910	-0.482323	1.192192
C156	C	0.875910	-0.232323	1.442192
C157	C	0.125911	-0.982309	0.307895
C158	C	0.375911	-0.732309	0.557895
C159	C	0.625911	-0.482309	0.807895
C160	C	0.875911	-0.232309	1.057895
H161	H	0.279879	-0.543214	0.000036
H162	H	0.529879	-0.293214	0.250036
H163	H	0.779879	-0.043214	0.500036
H164	H	1.029879	0.206786	0.750036
H165	H	-0.028048	-0.421405	0.000064
H166	H	0.221952	-0.171405	0.250064
H167	H	0.471952	0.078595	0.500064
H168	H	0.721952	0.328595	0.750064
H169	H	0.276810	-0.385892	0.000044
H170	H	0.526810	-0.135892	0.250044
H171	H	0.776810	0.114108	0.500044
H172	H	1.026810	0.364108	0.750044
H173	H	-0.024991	-0.578745	0.000055
H174	H	0.225009	-0.328745	0.250055
H175	H	0.475009	-0.078745	0.500055
H176	H	0.725009	0.171255	0.750055
H177	H	0.012167	-1.084715	0.583667
H178	H	0.262167	-0.834715	0.833667
H179	H	0.512167	-0.584715	1.083667
H180	H	0.762167	-0.334715	1.333667
H181	H	0.012170	-1.084714	0.416427
H182	H	0.262170	-0.834714	0.666427
H183	H	0.512170	-0.584714	0.916427
H184	H	0.762170	-0.334714	1.166427
H185	H	0.239650	-0.879918	0.583672
H186	H	0.489650	-0.629918	0.833672
H187	H	0.739650	-0.379918	1.083672
H188	H	0.989650	-0.129918	1.333672
H189	H	0.239654	-0.879902	0.416417
H190	H	0.489654	-0.629902	0.666417
H191	H	0.739654	-0.379902	0.916417
H192	H	0.989654	-0.129902	1.166417
