data_functionalizedCrystal
_audit_creation_method	'MofGen! by Chris Wilmer'
_symmetry_space_group_name_H-M	'P1'
_symmetry_Int_Tables_number	1
_symmetry_cell_setting	triclinic
loop_
_symmetry_equiv_pos_as_xyz
  x,y,z
_cell_length_a	25.639242
_cell_length_b	25.639240
_cell_length_c	11.169409
_cell_angle_alpha	89.953536
_cell_angle_beta	89.968060
_cell_angle_gamma	90.028283
loop_
_atom_site_label
_atom_site_type_symbol
_atom_site_fract_x
_atom_site_fract_y
_atom_site_fract_z
Zn1	Zn	0.799297	-0.208171	-0.678813
Zn2	Zn	1.299297	0.291829	-0.178813
Zn3	Zn	0.799215	-0.295621	-0.478080
Zn4	Zn	1.299215	0.204379	0.021920
Zn5	Zn	0.711858	-0.208194	-0.478105
Zn6	Zn	1.211858	0.291806	0.021895
Zn7	Zn	0.711828	-0.295570	-0.678683
Zn8	Zn	1.211828	0.204430	-0.178683
O9	O	0.755549	-0.251889	-0.578420
O10	O	1.255549	0.248111	-0.078420
O11	O	0.872451	-0.219783	-0.652229
O12	O	1.372451	0.280217	-0.152229
O13	O	0.787605	-0.284055	-0.310134
O14	O	1.287605	0.215945	0.189866
O15	O	0.723505	-0.135026	-0.504794
O16	O	1.223505	0.364974	-0.004794
O17	O	0.872391	-0.284032	-0.504752
O18	O	1.372391	0.215968	-0.004752
O19	O	0.787746	-0.135009	-0.652253
O20	O	1.287746	0.364991	-0.152253
O21	O	0.723425	-0.219823	-0.310152
O22	O	1.223425	0.280177	0.189848
O23	O	0.638689	-0.219774	-0.504668
O24	O	1.138689	0.280226	-0.004668
O25	O	0.723452	-0.283945	-0.846650
O26	O	1.223452	0.216055	-0.346650
O27	O	0.638666	-0.283968	-0.652031
O28	O	1.138666	0.216032	-0.152031
O29	O	0.787716	-0.219733	-0.846745
O30	O	1.287716	0.280267	-0.346745
O31	O	0.787575	-0.368779	-0.504626
O32	O	1.287575	0.131221	-0.004626
O33	O	0.723372	-0.368742	-0.652007
O34	O	1.223372	0.131258	-0.152007
C35	C	0.619707	-0.251868	-0.578339
C36	C	1.119707	0.248132	-0.078339
C37	C	0.561593	-0.251872	-0.578332
C38	C	1.061593	0.248128	-0.078332
C39	C	0.201227	-0.285371	-0.655080
C40	C	0.701227	0.214629	-0.155080
C41	C	0.146623	-0.285374	-0.655098
C42	C	0.646623	0.214626	-0.155098
O43	O	0.118383	-0.313831	-0.720283
O44	O	0.618383	0.186169	-0.220283
N45	N	0.119310	-0.251903	-0.578498
N46	N	0.619310	0.248097	-0.078498
C47	C	0.146605	-0.218424	-0.501883
C48	C	0.646605	0.281576	-0.001883
O49	O	0.118360	-0.189954	-0.436731
O50	O	0.618360	0.310046	0.063269
C51	C	0.201209	-0.218418	-0.501871
C52	C	0.701209	0.281582	-0.001871
C53	C	0.228518	-0.251895	-0.578467
C54	C	0.728518	0.248105	-0.078467
C55	C	0.228536	-0.318845	-0.731671
C56	C	0.728536	0.181155	-0.231671
C57	C	0.283137	-0.318842	-0.731650
C58	C	0.783137	0.181158	-0.231650
C59	C	0.310428	-0.285366	-0.655038
C60	C	0.810428	0.214634	-0.155038
C61	C	0.283119	-0.251892	-0.578447
C62	C	0.783119	0.248108	-0.078447
C63	C	0.228503	-0.184936	-0.425262
C64	C	0.728503	0.315064	0.074738
C65	C	0.283110	-0.184933	-0.425258
C66	C	0.783110	0.315067	0.074742
C67	C	0.310419	-0.218410	-0.501854
C68	C	0.810419	0.281590	-0.001854
C69	C	0.365010	-0.218413	-0.501814
C70	C	0.865010	0.281587	-0.001814
N71	N	0.392322	-0.251884	-0.578414
N72	N	0.892322	0.248116	-0.078414
C73	C	0.365031	-0.285360	-0.655026
C74	C	0.865031	0.214640	-0.155026
C75	C	0.031935	-0.218437	-0.501915
C76	C	0.531935	0.281563	-0.001915
C77	C	-0.022668	-0.218445	-0.501920
C78	C	0.477332	0.281555	-0.001920
C79	C	-0.022647	-0.285395	-0.655138
C80	C	0.477353	0.214605	-0.155138
C81	C	0.031957	-0.285389	-0.655126
C82	C	0.531957	0.214611	-0.155126
C83	C	0.059247	-0.251908	-0.578515
C84	C	0.559247	0.248092	-0.078515
C85	C	0.479696	-0.285353	-0.654976
C86	C	0.979696	0.214647	-0.154976
C87	C	0.534302	-0.285348	-0.654944
C88	C	1.034302	0.214652	-0.154944
C89	C	0.534276	-0.218397	-0.501732
C90	C	1.034276	0.281603	-0.001732
C91	C	0.479675	-0.218402	-0.501758
C92	C	0.979675	0.281598	-0.001758
C93	C	0.452387	-0.251882	-0.578390
C94	C	0.952387	0.248118	-0.078390
O95	O	0.393284	-0.189970	-0.436666
O96	O	0.893284	0.310030	0.063334
O97	O	0.393283	-0.313820	-0.720178
O98	O	0.893283	0.186180	-0.220178
C99	C	0.755476	-0.387732	-0.578326
C100	C	1.255476	0.112268	-0.078326
C101	C	0.755492	-0.445846	-0.578326
C102	C	1.255492	0.054154	-0.078326
C103	C	0.789016	-0.806161	-0.655341
C104	C	1.289016	-0.306161	-0.155341
C105	C	0.789032	-0.860765	-0.655365
C106	C	1.289032	-0.360765	-0.155365
O107	O	0.817447	-0.888962	-0.720749
O108	O	1.317447	-0.388962	-0.220749
N109	N	0.755622	-0.888128	-0.578536
N110	N	1.255622	-0.388128	-0.078536
C111	C	0.722191	-0.860884	-0.501686
C112	C	1.222191	-0.360884	-0.001686
O113	O	0.693775	-0.889172	-0.436340
O114	O	1.193775	-0.389172	0.063660
C115	C	0.722173	-0.806280	-0.501669
C116	C	1.222173	-0.306280	-0.001669
C117	C	0.755589	-0.778920	-0.578494
C118	C	1.255589	-0.278920	-0.078494
C119	C	0.822429	-0.778801	-0.732161
C120	C	1.322429	-0.278801	-0.232161
C121	C	0.822414	-0.724201	-0.732134
C122	C	1.322414	-0.224201	-0.232134
C123	C	0.788987	-0.696960	-0.655288
C124	C	1.288987	-0.196960	-0.155288
C125	C	0.755574	-0.724320	-0.578468
C126	C	1.255574	-0.224320	-0.078468
C127	C	0.688740	-0.779037	-0.424826
C128	C	1.188740	-0.279037	0.075174
C129	C	0.688725	-0.724430	-0.424816
C130	C	1.188725	-0.224430	0.075184
C131	C	0.722141	-0.697070	-0.501641
C132	C	1.222141	-0.197070	-0.001641
C133	C	0.722132	-0.642479	-0.501595
C134	C	1.222132	-0.142479	-0.001595
N135	N	0.755542	-0.615116	-0.578424
N136	N	1.255542	-0.115116	-0.078424
C137	C	0.788969	-0.642357	-0.655271
C138	C	1.288969	-0.142357	-0.155271
C139	C	0.722230	-0.975554	-0.501730
C140	C	1.222230	-0.475554	-0.001730
C141	C	0.722250	-1.030157	-0.501741
C142	C	1.222250	-0.530157	-0.001741
C143	C	0.789090	-1.030035	-0.655421
C144	C	1.289090	-0.530035	-0.155421
C145	C	0.789072	-0.975431	-0.655404
C146	C	1.289072	-0.475431	-0.155404
C147	C	0.755640	-0.948192	-0.578559
C148	C	1.255640	-0.448192	-0.078559
C149	C	0.788935	-0.527692	-0.655209
C150	C	1.288935	-0.027692	-0.155209
C151	C	0.788919	-0.473086	-0.655172
C152	C	1.288919	0.026914	-0.155172
C153	C	0.722077	-0.473213	-0.501497
C154	C	1.222077	0.026787	-0.001497
C155	C	0.722095	-0.527814	-0.501528
C156	C	1.222095	-0.027814	-0.001528
C157	C	0.755526	-0.555052	-0.578394
C158	C	1.255526	-0.055052	-0.078394
O159	O	0.693729	-0.614248	-0.436248
O160	O	1.193729	-0.114248	0.063752
O161	O	0.817376	-0.614062	-0.720617
O162	O	1.317376	-0.114062	-0.220617
C163	C	0.891922	-0.251910	-0.578502
C164	C	1.391922	0.248090	-0.078502
C165	C	0.950036	-0.251919	-0.578537
C166	C	1.450036	0.248081	-0.078537
C167	C	0.755590	-0.251831	-0.891463
C168	C	1.255590	0.248169	-0.391463
C169	C	0.755607	-0.251806	-1.024863
C170	C	1.255607	0.248194	-0.524863
C171	C	0.755638	-0.115516	-0.578541
C172	C	1.255638	0.384484	-0.078541
C173	C	0.755676	-0.057402	-0.578592
C174	C	1.255676	0.442598	-0.078592
C175	C	0.755540	-0.251909	-0.266595
C176	C	1.255540	0.248091	0.233405
C177	C	0.755624	-0.251787	-0.133196
C178	C	1.255624	0.248213	0.366804
H179	H	-0.044877	-0.312651	-0.717524
H180	H	0.455123	0.187349	-0.217524
H181	H	0.457439	-0.191144	-0.439385
H182	H	0.957439	0.308856	0.060615
H183	H	0.816132	-0.450812	-0.717733
H184	H	1.316132	0.049188	-0.217733
H185	H	0.054188	-0.312648	-0.717499
H186	H	0.554188	0.187352	-0.217499
H187	H	0.816154	-0.549862	-0.717809
H188	H	1.316154	-0.049862	-0.217809
H189	H	0.054151	-0.191173	-0.439521
H190	H	0.554151	0.308827	0.060479
H191	H	0.849622	-0.701928	-0.794696
H192	H	1.349622	-0.201928	-0.294696
H193	H	0.206277	-0.157677	-0.362886
H194	H	0.706277	0.342323	0.137114
H195	H	0.457484	-0.312614	-0.717379
H196	H	0.957484	0.187386	-0.217379
H197	H	0.206322	-0.346105	-0.794064
H198	H	0.706322	0.153895	-0.294064
H199	H	0.556506	-0.191143	-0.439352
H200	H	1.056506	0.308857	0.060648
H201	H	0.849649	-0.800975	-0.794745
H202	H	1.349649	-0.300975	-0.294745
H203	H	0.305367	-0.346101	-0.794025
H204	H	0.805367	0.153899	-0.294025
H205	H	0.695007	-0.953378	-0.439144
H206	H	1.195007	-0.453378	0.060856
H207	H	0.661530	-0.801304	-0.362266
H208	H	1.161530	-0.301304	0.137734
H209	H	-0.044898	-0.191190	-0.439536
H210	H	0.455102	0.308810	0.060464
H211	H	0.816282	-0.953158	-0.717962
H212	H	1.316282	-0.453158	-0.217962
H213	H	0.305327	-0.157665	-0.362878
H214	H	0.805327	0.342335	0.137122
H215	H	0.816308	-1.052224	-0.717996
H216	H	1.316308	-0.552224	-0.217996
H217	H	0.695045	-1.052428	-0.439169
H218	H	1.195045	-0.552428	0.060831
H219	H	0.661498	-0.702254	-0.362241
H220	H	1.161498	-0.202254	0.137759
H221	H	0.694890	-0.550091	-0.438961
H222	H	1.194890	-0.050091	0.061039
H223	H	0.556534	-0.312611	-0.717320
H224	H	1.056534	0.187389	-0.217320
H225	H	0.694863	-0.451025	-0.438925
H226	H	1.194863	0.048975	0.061075
