data_functionalizedCrystal
_audit_creation_method	'MofGen! by Chris Wilmer'
_symmetry_space_group_name_H-M	'P1'
_symmetry_Int_Tables_number	1
_symmetry_cell_setting	triclinic
loop_
_symmetry_equiv_pos_as_xyz
  x,y,z
_cell_length_a	15.297475
_cell_length_b	25.639239
_cell_length_c	15.296720
_cell_angle_alpha	80.361793
_cell_angle_beta	88.382886
_cell_angle_gamma	80.341033
loop_
_atom_site_label
_atom_site_type_symbol
_atom_site_fract_x
_atom_site_fract_y
_atom_site_fract_z
Zn1	Zn	1.253207	-0.406887	0.726513
Zn2	Zn	1.753207	0.093113	1.226513
Zn3	Zn	1.278434	-0.482168	0.580013
Zn4	Zn	1.778434	0.017832	1.080013
Zn5	Zn	1.132099	-0.377517	0.554760
Zn6	Zn	1.632099	0.122483	1.054760
Zn7	Zn	1.106663	-0.477029	0.701143
Zn8	Zn	1.606663	0.022971	1.201143
O9	O	1.192601	-0.435900	0.640607
O10	O	1.692601	0.064100	1.140607
O11	O	1.379125	-0.431315	0.728266
O12	O	1.879125	0.068685	1.228266
O13	O	1.280225	-0.458145	0.454091
O14	O	1.780225	0.041855	0.954091
O15	O	1.148252	-0.308261	0.577593
O16	O	1.648252	0.191739	1.077593
O17	O	1.397659	-0.486624	0.620633
O18	O	1.897659	0.013376	1.120633
O19	O	1.237230	-0.329840	0.703779
O20	O	1.737230	0.170160	1.203779
O21	O	1.172713	-0.381258	0.435538
O22	O	1.672713	0.118742	0.935538
O23	O	1.006154	-0.376275	0.552992
O24	O	1.506154	0.123725	1.052992
O25	O	1.104899	-0.477865	0.827081
O26	O	1.604899	0.022135	1.327081
O27	O	0.987466	-0.449386	0.660539
O28	O	1.487466	0.050614	1.160539
O29	O	1.212565	-0.426332	0.845720
O30	O	1.712565	0.073668	1.345720
O31	O	1.255560	-0.554638	0.596032
O32	O	1.755560	-0.054638	1.096032
O33	O	1.129361	-0.550862	0.685025
O34	O	1.629361	-0.050862	1.185025
C35	C	0.965028	-0.409086	0.601272
C36	C	1.465028	0.090914	1.101272
C37	C	0.867668	-0.397630	0.584466
C38	C	1.367668	0.102370	1.084466
C39	C	0.554465	-0.517787	0.760730
C40	C	1.054465	-0.017787	1.260730
C41	C	0.645940	-0.528555	0.776519
C42	C	1.145940	-0.028555	1.276519
C43	C	0.701376	-0.495825	0.728507
C44	C	1.201376	0.004175	1.228507
C45	C	0.665329	-0.452325	0.664704
C46	C	1.165329	0.047675	1.164704
C47	C	0.573846	-0.441558	0.648909
C48	C	1.073846	0.058442	1.148909
C49	C	0.720757	-0.419596	0.616686
C50	C	1.220757	0.080404	1.116686
C51	C	0.684710	-0.376095	0.552882
C52	C	1.184710	0.123905	1.052882
C53	C	0.593235	-0.365331	0.537091
C54	C	1.093235	0.134669	1.037091
C55	C	0.537799	-0.398061	0.585103
C56	C	1.037799	0.101939	1.085103
C57	C	0.812240	-0.430362	0.632481
C58	C	1.312240	0.069638	1.132481
C59	C	0.831621	-0.354133	0.520659
C60	C	1.331621	0.145867	1.020659
C61	C	0.740146	-0.343365	0.504871
C62	C	1.240146	0.156635	1.004871
C63	C	1.192458	-0.571722	0.640539
C64	C	1.692458	-0.071722	1.140539
C65	C	1.192472	-0.629839	0.640553
C66	C	1.692472	-0.129839	1.140553
C67	C	1.126881	-0.879094	0.686926
C68	C	1.626881	-0.379094	1.186926
C69	C	1.126850	-0.824485	0.686911
C70	C	1.626850	-0.324485	1.186911
O71	O	1.070943	-0.794581	0.726285
O72	O	1.570943	-0.294581	1.226285
N73	N	1.192575	-0.799129	0.640618
N74	N	1.692575	-0.299129	1.140618
C75	C	1.258339	-0.828386	0.594345
C76	C	1.758339	-0.328386	1.094345
O77	O	1.314241	-0.801805	0.554969
O78	O	1.814241	-0.301805	1.054969
C79	C	1.258373	-0.882995	0.594367
C80	C	1.758373	-0.382995	1.094367
C81	C	1.192639	-0.908347	0.640655
C82	C	1.692639	-0.408347	1.140655
C83	C	1.061153	-0.904446	0.733212
C84	C	1.561153	-0.404446	1.233212
C85	C	1.061183	-0.959051	0.733226
C86	C	1.561183	-0.459051	1.233226
C87	C	1.126941	-0.988304	0.686955
C88	C	1.626941	-0.488304	1.186955
C89	C	1.192669	-0.962952	0.640669
C90	C	1.692669	-0.462952	1.140669
C91	C	1.324140	-0.912252	0.548100
C92	C	1.824140	-0.412252	1.048100
C93	C	1.324169	-0.966865	0.548126
C94	C	1.824169	-0.466865	1.048126
C95	C	1.258435	-0.992217	0.594414
C96	C	1.758435	-0.492217	1.094414
C97	C	1.258457	-1.046810	0.594412
C98	C	1.758457	-0.546810	1.094412
N99	N	1.192732	-1.072166	0.640705
N100	N	1.692732	-0.572166	1.140705
C101	C	1.126974	-1.042913	0.686976
C102	C	1.626974	-0.542913	1.186976
C103	C	1.258265	-0.713704	0.594305
C104	C	1.758265	-0.213704	1.094305
C105	C	1.258228	-0.659096	0.594278
C106	C	1.758228	-0.159096	1.094278
C107	C	1.126740	-0.655198	0.686845
C108	C	1.626740	-0.155198	1.186845
C109	C	1.126773	-0.709807	0.686866
C110	C	1.626773	-0.209807	1.186866
C111	C	1.192540	-0.739060	0.640598
C112	C	1.692540	-0.239060	1.140598
C113	C	1.127042	-1.157587	0.687002
C114	C	1.627042	-0.657587	1.187002
C115	C	1.127076	-1.212197	0.687009
C116	C	1.627076	-0.712197	1.187009
C117	C	1.258566	-1.216090	0.594446
C118	C	1.758566	-0.716090	1.094446
C119	C	1.258530	-1.161485	0.594435
C120	C	1.758530	-0.661485	1.094435
C121	C	1.192764	-1.132235	0.640720
C122	C	1.692764	-0.632235	1.140720
O123	O	1.314337	-1.076748	0.555061
O124	O	1.814337	-0.576748	1.055061
O125	O	1.071089	-1.069503	0.726356
O126	O	1.571089	-0.569503	1.226356
C127	C	1.421062	-0.462819	0.680096
C128	C	1.921062	0.037181	1.180096
C129	C	1.518418	-0.474290	0.696924
C130	C	2.018418	0.025710	1.196924
C131	C	1.153081	-0.454802	0.869071
C132	C	1.653081	0.045198	1.369071
C133	C	1.136240	-0.462856	0.966428
C134	C	1.636240	0.037144	1.466428
C135	C	1.192764	-0.299553	0.640699
C136	C	1.692764	0.200447	1.140699
C137	C	1.192834	-0.241450	0.640738
C138	C	1.692834	0.258550	1.140738
C139	C	1.232017	-0.417040	0.413041
C140	C	1.732017	0.082960	0.913041
C141	C	1.249028	-0.408859	0.315714
C142	C	1.749028	0.091141	0.815714
C143	C	1.312998	-0.378244	1.279683
C144	C	1.812998	0.121756	1.779683
C145	C	1.328827	-0.370678	1.188212
C146	C	1.828827	0.129322	1.688212
C147	C	1.280681	-0.393722	1.132761
C148	C	1.780681	0.106278	1.632761
C149	C	1.216705	-0.424333	1.168791
C150	C	1.716705	0.075667	1.668791
C151	C	1.200880	-0.431904	1.260272
C152	C	1.700880	0.068096	1.760272
C153	C	1.168563	-0.447381	1.113351
C154	C	1.668563	0.052619	1.613351
C155	C	1.104586	-0.477993	1.149381
C156	C	1.604586	0.022007	1.649381
C157	C	1.088764	-0.485562	1.240853
C158	C	1.588764	0.014438	1.740853
C159	C	1.136909	-0.462518	1.296303
C160	C	1.636909	0.037482	1.796303
C161	C	1.184388	-0.439811	1.021870
C162	C	1.684388	0.060189	1.521870
C163	C	1.072269	-0.493471	1.002459
C164	C	1.572269	0.006529	1.502459
C165	C	1.056441	-0.501037	1.093930
C166	C	1.556441	-0.001037	1.593930
H167	H	0.675283	-0.563974	0.828466
H168	H	1.175283	-0.063974	1.328466
H169	H	0.775859	-0.504594	0.741366
H170	H	1.275859	-0.004594	1.241366
H171	H	0.876758	-0.327482	0.481563
H172	H	1.376758	0.172518	0.981563
H173	H	1.033067	-0.512236	0.957311
H174	H	1.533067	-0.012236	1.457311
H175	H	1.007654	-0.979687	0.770917
H176	H	1.507654	-0.479687	1.270917
H177	H	1.380919	-0.345755	1.158883
H178	H	1.880919	0.154245	1.658883
H179	H	1.036677	-0.510493	1.270186
H180	H	1.536677	-0.010493	1.770186
H181	H	1.377667	-0.891619	0.510408
H182	H	1.877667	-0.391619	1.010408
H183	H	1.004350	-0.525961	1.123279
H184	H	1.504350	-0.025961	1.623279
H185	H	0.841581	-0.465780	0.684430
H186	H	1.341581	0.034220	1.184430
H187	H	0.509322	-0.544434	0.799809
H188	H	1.009322	-0.044434	1.299809
H189	H	0.563890	-0.329915	0.485129
H190	H	1.063890	0.170085	0.985129
H191	H	0.463311	-0.389295	0.572253
H192	H	0.963311	0.110705	1.072253
H193	H	1.352196	-0.359489	1.324839
H194	H	1.852196	0.140511	1.824839
H195	H	1.293573	-0.387560	1.058282
H196	H	1.793573	0.112440	1.558282
H197	H	1.007604	-0.880633	0.770896
H198	H	1.507604	-0.380633	1.270896
H199	H	0.710783	-0.307947	0.452921
H200	H	1.210783	0.192053	0.952921
H201	H	1.311747	-0.638456	0.556574
H202	H	1.811747	-0.138456	1.056574
H203	H	1.073545	-1.232835	0.724705
H204	H	1.573545	-0.732835	1.224705
H205	H	1.236477	-0.414886	0.992543
H206	H	1.736477	0.085114	1.492543
H207	H	1.073490	-1.133778	0.724693
H208	H	1.573490	-0.633778	1.224693
H209	H	1.073251	-0.730446	0.724564
H210	H	1.573251	-0.230446	1.224564
H211	H	1.073197	-0.631371	0.724523
H212	H	1.573197	-0.131371	1.224523
H213	H	1.124025	-0.468677	1.370787
H214	H	1.624025	0.031323	1.870787
H215	H	1.311819	-0.737518	0.556620
H216	H	1.811819	-0.237518	1.056620
H217	H	1.377728	-0.990681	0.510451
H218	H	1.877728	-0.490681	1.010451
H219	H	1.312049	-1.140841	0.556733
H220	H	1.812049	-0.640841	1.056733
H221	H	1.312102	-1.239917	0.556770
H222	H	1.812102	-0.739917	1.056770
