data_functionalizedCrystal
_audit_creation_method	'MofGen! by Chris Wilmer'
_symmetry_space_group_name_H-M	'P1'
_symmetry_Int_Tables_number	1
_symmetry_cell_setting	triclinic
loop_
_symmetry_equiv_pos_as_xyz
  x,y,z
_cell_length_a	12.759401
_cell_length_b	14.908520
_cell_length_c	14.908308
_cell_angle_alpha	96.360765
_cell_angle_beta	93.279723
_cell_angle_gamma	93.322137
loop_
_atom_site_label
_atom_site_type_symbol
_atom_site_fract_x
_atom_site_fract_y
_atom_site_fract_z
Zn1	Zn	1.544174	-0.389838	-0.532530
Zn2	Zn	1.544055	-0.532484	-0.389900
Zn3	Zn	1.379242	-0.381145	-0.381192
Zn4	Zn	1.357688	-0.541161	-0.541214
O5	O	1.456290	-0.461157	-0.461209
O6	O	1.691178	-0.408767	-0.513620
O7	O	1.531163	-0.505138	-0.262084
O8	O	1.410191	-0.255633	-0.393988
O9	O	1.691090	-0.513568	-0.408831
O10	O	1.531366	-0.262020	-0.505176
O11	O	1.410075	-0.393950	-0.255686
O12	O	1.229363	-0.402364	-0.402409
O13	O	1.373455	-0.528357	-0.666722
O14	O	1.213527	-0.519927	-0.519976
O15	O	1.510466	-0.417181	-0.660343
O16	O	1.510262	-0.660300	-0.417251
O17	O	1.373339	-0.666675	-0.528420
C18	C	1.183324	-0.461145	-0.461190
C19	C	1.066546	-0.461163	-0.461205
C20	C	1.003466	-0.522461	-0.522336
C21	C	0.893740	-0.522465	-0.522354
C22	C	0.910185	-0.399871	-0.400102
C23	C	1.019908	-0.399863	-0.400089
C24	C	1.439476	-0.696331	-0.474743
C25	C	1.432377	-0.796941	-0.480563
C26	C	1.561747	-0.979305	-0.375832
C27	C	1.555081	-1.073837	-0.381298
C28	C	1.412384	-1.080540	-0.496964
C29	C	1.419050	-0.986008	-0.491498
C30	C	1.493733	-0.935393	-0.430929
C31	C	1.500394	-0.840859	-0.425460
C32	C	1.357703	-0.847564	-0.541130
C33	C	1.351037	-0.942096	-0.546595
C34	C	1.730321	-0.461170	-0.461228
C35	C	1.847096	-0.461175	-0.461236
C36	C	1.439569	-0.474707	-0.697293
C37	C	1.432444	-0.480481	-0.797897
C38	C	1.473196	-0.225065	-0.447642
C39	C	1.480401	-0.124457	-0.441860
C40	C	1.561723	-0.375543	-0.980301
C41	C	1.555032	-0.380966	-1.074828
C42	C	1.412366	-0.496743	-1.081480
C43	C	1.419057	-0.491321	-0.986953
C44	C	1.493739	-0.430720	-0.936367
C45	C	1.500435	-0.425303	-0.841838
C46	C	1.357765	-0.541075	-0.848491
C47	C	1.351074	-0.546498	-0.943018
C48	C	1.473010	-0.447594	-0.226040
C49	C	1.480357	-0.441565	-0.125421
H50	H	0.842384	-0.572379	-0.572135
Br51	Br	1.663087	-0.293315	-0.911646
Br52	Br	1.249692	-1.010795	-0.628796
H53	H	1.351564	-0.546081	-1.122683
H54	H	1.561246	-0.375959	-0.800653
Br55	Br	1.311054	-1.149246	-0.579172
Br56	Br	0.846884	-0.316682	-0.317163
H57	H	1.622550	-0.938093	-0.326508
Br58	Br	1.066756	-0.605651	-0.605281
Br59	Br	1.647394	-1.133429	-0.306525
H60	H	1.610388	-0.336033	-1.110596
Br61	Br	1.105525	-0.316658	-0.317127
H62	H	1.561202	-0.799649	-0.376139
H63	H	1.290268	-0.595835	-0.984218
Br64	Br	1.265510	-0.615976	-0.788862
H65	H	1.302318	-0.811801	-0.585991
