data_functionalizedCrystal
_audit_creation_method	'MofGen! by Chris Wilmer'
_symmetry_space_group_name_H-M	'P1'
_symmetry_Int_Tables_number	1
_symmetry_cell_setting	triclinic
loop_
_symmetry_equiv_pos_as_xyz
  x,y,z
_cell_length_a	12.837943
_cell_length_b	12.837938
_cell_length_c	10.268362
_cell_angle_alpha	89.998027
_cell_angle_beta	90.005847
_cell_angle_gamma	94.828790
loop_
_atom_site_label
_atom_site_type_symbol
_atom_site_fract_x
_atom_site_fract_y
_atom_site_fract_z
O1	O	-1.402321	-0.272140	0.108260
O2	O	-0.902321	0.227860	0.608260
O3	O	-1.099188	-0.258697	0.108269
O4	O	-0.599188	0.241303	0.608269
O5	O	-1.244033	-0.113852	0.108265
O6	O	-0.744033	0.386148	0.608265
O7	O	-1.257476	-0.416985	0.108264
O8	O	-0.757476	0.083015	0.608264
O9	O	-1.244047	-0.113846	-0.108335
O10	O	-0.744047	0.386154	0.391665
O11	O	-1.099201	-0.258691	-0.108332
O12	O	-0.599201	0.241309	0.391668
O13	O	-1.402335	-0.272135	-0.108340
O14	O	-0.902335	0.227865	0.391660
Cu15	Cu	-1.250769	-0.265412	-0.128114
Cu16	Cu	-0.750769	0.234588	0.371886
Cu17	Cu	-1.250753	-0.265419	0.128042
Cu18	Cu	-0.750753	0.234581	0.628042
O19	O	-1.257489	-0.416980	-0.108337
O20	O	-0.757489	0.083020	0.391663
C21	C	-1.060125	-0.254153	-0.000030
C22	C	-0.560125	0.245847	0.499970
C23	C	-0.943710	-0.240608	-0.000027
C24	C	-0.443710	0.259392	0.499973
C25	C	-1.239499	-0.074780	-0.000032
C26	C	-0.739499	0.425220	0.499968
C27	C	-1.225954	0.041635	-0.000023
C28	C	-0.725954	0.541635	0.499977
C29	C	-1.441397	-0.276679	-0.000038
C30	C	-0.941397	0.223321	0.499962
C31	C	-1.557812	-0.290223	-0.000033
C32	C	-1.057812	0.209777	0.499967
N33	N	-1.250788	-0.265408	-0.308279
N34	N	-0.750788	0.234592	0.191721
C35	C	-0.718836	-0.403437	-0.000046
C36	C	-0.218836	0.096563	0.499954
C37	C	-0.609453	-0.390716	-0.000044
C38	C	-0.109453	0.109284	0.499956
C39	C	-0.615561	-0.202445	-0.000029
C40	C	-0.115561	0.297555	0.499971
C41	C	-0.724943	-0.215166	-0.000031
C42	C	-0.224943	0.284834	0.499969
C43	C	-0.776577	-0.315666	-0.000038
C44	C	-0.276577	0.184334	0.499962
C45	C	-0.885961	-0.328386	-0.000031
C46	C	-0.385961	0.171614	0.499969
C47	C	-0.892067	-0.140116	-0.000026
C48	C	-0.392067	0.359884	0.499974
C49	C	-0.782685	-0.127395	-0.000023
C50	C	-0.282685	0.372605	0.499977
C51	C	-1.388784	0.266510	0.000013
C52	C	-0.888784	0.766510	0.500013
C53	C	-1.376063	0.375892	0.000022
C54	C	-0.876063	0.875892	0.500022
C55	C	-1.187792	0.369785	0.000013
C56	C	-0.687792	0.869785	0.500013
C57	C	-1.200513	0.260402	0.000004
C58	C	-0.700513	0.760402	0.500004
C59	C	-1.301013	0.208769	0.000002
C60	C	-0.801013	0.708769	0.500002
C61	C	-1.313733	0.099384	-0.000016
C62	C	-0.813733	0.599384	0.499984
C63	C	-1.125462	0.093279	-0.000016
C64	C	-0.625462	0.593279	0.499984
C65	C	-1.112741	0.202661	-0.000007
C66	C	-0.612741	0.702661	0.499993
C67	C	-1.262024	0.543948	-0.000022
C68	C	-0.762024	1.043948	0.499978
C69	C	-1.275570	0.427534	0.000020
C70	C	-0.775570	0.927534	0.500020
N71	N	-1.250742	-0.265416	0.308208
N72	N	-0.750742	0.234584	0.808208
C73	C	-1.250749	-0.265416	0.426050
C74	C	-0.750749	0.234584	0.926050
C75	C	-1.250767	-0.265414	0.573888
C76	C	-0.750767	0.234586	1.073888
H77	H	-0.927999	-0.410218	-0.000039
H78	H	-0.427999	0.089782	0.499961
H79	H	-0.562444	-0.462189	-0.000054
H80	H	-0.062444	0.037811	0.499946
H81	H	-1.105970	0.411844	0.000028
H82	H	-0.605970	0.911844	0.500028
H83	H	-1.447537	0.422901	0.000035
H84	H	-0.947537	0.922901	0.500035
N85	N	-0.774538	-0.511824	-0.000051
N86	N	-0.274538	-0.011824	0.499949
H87	H	-0.819779	-0.521296	0.080243
H88	H	-0.319779	-0.021296	0.580243
H89	H	-0.721299	-0.565433	-0.000099
H90	H	-0.221299	-0.065433	0.499901
N91	N	-1.497174	0.210814	-0.000011
N92	N	-0.997174	0.710814	0.499989
H93	H	-1.506650	0.165555	0.080273
H94	H	-1.006650	0.665555	0.580273
H95	H	-1.506570	0.165636	-0.080368
H96	H	-1.006570	0.665636	0.419632
N97	N	-0.559847	-0.094064	-0.000050
N98	N	-0.059847	0.405936	0.499950
H99	H	-0.514585	-0.084592	0.080236
H100	H	-0.014585	0.415408	0.580236
H101	H	-0.613078	-0.040445	-0.000100
H102	H	-0.113078	0.459555	0.499900
H103	H	-0.740630	-0.045571	-0.000033
H104	H	-0.240630	0.454429	0.499967
N105	N	-1.004351	0.258354	-0.000000
N106	N	-0.504351	0.758354	0.500000
H107	H	-1.009609	0.336410	0.000008
H108	H	-0.509609	0.836410	0.500008
H109	H	-0.965480	0.237908	-0.080304
H110	H	-0.465480	0.737908	0.419696
N111	N	-1.030790	0.030996	-0.000033
N112	N	-0.530790	0.530996	0.499967
H113	H	-1.031860	-0.014531	0.080255
H114	H	-0.531860	0.485469	0.580255
H115	H	-0.965249	0.080374	-0.000081
H116	H	-0.465249	0.580374	0.499919
H117	H	-0.939092	-0.068646	-0.000010
H118	H	-0.439092	0.431354	0.499990
H119	H	-1.395564	0.057346	-0.000022
H120	H	-0.895564	0.557346	0.499978
