data_functionalizedCrystal
_audit_creation_method	'MofGen! by Chris Wilmer'
_symmetry_space_group_name_H-M	'P1'
_symmetry_Int_Tables_number	1
_symmetry_cell_setting	triclinic
loop_
_symmetry_equiv_pos_as_xyz
  x,y,z
_cell_length_a	19.805407
_cell_length_b	25.639239
_cell_length_c	19.805399
_cell_angle_alpha	89.971274
_cell_angle_beta	89.980427
_cell_angle_gamma	90.038686
loop_
_atom_site_label
_atom_site_type_symbol
_atom_site_fract_x
_atom_site_fract_y
_atom_site_fract_z
Zn1	Zn	1.034678	-0.208163	-0.382714
Zn2	Zn	1.034569	-0.295597	-0.269524
Zn3	Zn	0.921493	-0.208177	-0.269539
Zn4	Zn	0.921432	-0.295569	-0.382670
O5	O	0.978043	-0.251877	-0.326112
O6	O	1.129380	-0.219767	-0.367711
O7	O	1.019548	-0.284018	-0.174809
O8	O	0.936578	-0.135010	-0.284576
O9	O	1.129300	-0.284004	-0.284551
O10	O	1.019735	-0.135000	-0.367726
O11	O	0.936472	-0.219791	-0.174820
O12	O	0.826768	-0.219764	-0.284534
O13	O	0.936475	-0.283957	-0.477393
O14	O	0.826723	-0.283971	-0.367651
O15	O	1.019676	-0.219740	-0.477425
O16	O	1.019489	-0.368758	-0.284508
O17	O	0.936368	-0.368738	-0.367637
C18	C	0.802187	-0.251867	-0.326090
C19	C	0.726955	-0.251875	-0.326097
C20	C	0.691605	-0.285357	-0.369306
C21	C	0.620917	-0.285358	-0.369315
C22	C	0.585579	-0.251879	-0.326112
C23	C	0.620934	-0.218393	-0.282901
C24	C	0.691621	-0.218390	-0.282895
C25	C	0.335860	-0.218404	-0.282923
C26	C	0.265168	-0.218411	-0.282931
C27	C	0.265156	-0.285373	-0.369343
C28	C	0.335843	-0.285370	-0.369338
C29	C	0.371192	-0.251882	-0.326129
C30	C	0.447840	-0.251881	-0.326121
C31	C	0.508932	-0.251883	-0.326117
C32	C	0.977929	-0.387719	-0.326081
C33	C	0.977942	-0.445833	-0.326090
C34	C	1.021437	-0.806194	-0.282901
C35	C	1.021463	-0.860799	-0.282910
O36	O	1.058326	-0.889034	-0.246154
N37	N	0.978162	-0.888116	-0.326157
C38	C	0.934836	-0.860825	-0.369402
O39	O	0.898008	-0.889075	-0.406189
C40	C	0.934814	-0.806222	-0.369396
C41	C	0.978113	-0.778908	-0.326141
C42	C	1.064733	-0.778880	-0.239650
C43	C	1.064706	-0.724279	-0.239640
C44	C	1.021382	-0.696993	-0.282881
C45	C	0.978086	-0.724307	-0.326132
C46	C	0.891492	-0.778933	-0.412645
C47	C	0.891474	-0.724326	-0.412635
C48	C	0.934773	-0.697012	-0.369381
C49	C	0.934735	-0.642421	-0.369363
N50	N	0.978036	-0.615104	-0.326116
C51	C	1.021360	-0.642390	-0.282875
C52	C	0.934887	-0.975496	-0.369413
C53	C	0.934906	-1.030098	-0.369416
C54	C	1.021533	-1.030068	-0.282924
C55	C	1.021511	-0.975464	-0.282918
C56	C	0.978188	-0.948179	-0.326166
C57	C	1.021299	-0.527725	-0.282857
C58	C	1.021266	-0.473119	-0.282849
C59	C	0.934641	-0.473155	-0.369343
C60	C	0.934671	-0.527756	-0.369349
C61	C	0.978006	-0.555039	-0.326104
O62	O	0.897893	-0.614151	-0.406101
O63	O	1.058188	-0.614134	-0.246101
C64	C	1.154585	-0.251887	-0.326134
C65	C	1.229817	-0.251891	-0.326144
C66	C	0.978081	-0.251844	-0.502655
C67	C	0.978097	-0.251830	-0.577887
C68	C	0.978175	-0.115504	-0.326158
C69	C	0.978232	-0.057389	-0.326177
C70	C	1.021421	-0.218390	-0.613249
C71	C	1.021428	-0.218375	-0.683937
C72	C	0.978114	-0.251802	-0.719262
C73	C	0.934785	-0.285243	-0.683895
C74	C	0.934775	-0.285255	-0.613208
C75	C	0.934823	-0.285194	-0.968969
C76	C	0.934838	-0.285181	-1.039661
C77	C	1.021476	-0.218314	-1.039698
C78	C	1.021466	-0.218326	-0.969011
C79	C	0.978135	-0.251765	-0.933650
C80	C	0.978127	-0.251780	-0.857001
C81	C	0.978125	-0.251790	-0.795909
C82	C	0.978044	-0.251872	-0.150256
C83	C	0.978159	-0.251738	-0.075024
H84	H	0.364633	-0.191140	-0.247735
C85	C	1.069194	-1.060087	-0.235362
H86	H	1.094978	-1.036002	-0.209597
H87	H	1.098675	-1.081353	-0.261288
H88	H	1.043324	-1.081422	-0.205848
C89	C	0.887191	-0.321951	-1.078521
H90	H	0.893410	-0.317158	-1.125684
H91	H	0.841718	-0.314298	-1.066935
H92	H	0.897062	-0.357085	-1.066925
H93	H	1.056525	-0.450882	-0.247624
C94	C	1.112383	-0.808889	-0.192073
H95	H	1.106204	-0.845322	-0.198263
H96	H	1.102491	-0.799960	-0.146591
H97	H	1.157855	-0.799901	-0.202017
C98	C	0.582065	-0.181568	-0.235376
H99	H	0.534903	-0.186369	-0.241561
H100	H	0.593679	-0.146447	-0.245360
H101	H	0.593627	-0.189178	-0.189878
H102	H	1.056587	-0.549933	-0.247644
H103	H	0.364612	-0.312634	-0.404516
H104	H	1.056708	-0.191146	-0.712726
C105	C	0.226274	-0.322188	-0.416904
H106	H	0.257445	-0.342124	-0.442634
H107	H	0.198741	-0.302203	-0.446438
H108	H	0.198657	-0.344952	-0.390980
C109	C	1.112322	-0.694238	-0.192049
H110	H	1.106101	-0.657809	-0.198222
H111	H	1.157801	-0.703144	-0.201985
H112	H	1.102427	-0.703226	-0.146568
H113	H	1.056769	-0.953228	-0.247697
C114	C	0.887272	-1.060138	-0.416992
H115	H	0.861472	-1.036062	-0.442744
H116	H	0.857805	-1.081477	-0.391081
H117	H	0.913160	-1.081401	-0.446516
C118	C	0.730509	-0.181560	-0.235366
H119	H	0.777668	-0.186349	-0.241555
H120	H	0.718901	-0.189163	-0.189871
H121	H	0.718955	-0.146440	-0.245363
C122	C	0.887148	-0.321965	-0.930081
H123	H	0.861354	-0.341870	-0.961245
H124	H	0.857676	-0.301956	-0.902517
H125	H	0.912998	-0.344759	-0.902493
C126	C	0.887141	-0.322013	-0.722751
H127	H	0.893356	-0.317221	-0.769915
H128	H	0.841669	-0.314362	-0.711162
H129	H	0.897016	-0.357147	-0.711154
C130	C	0.887221	-0.945487	-0.416980
H131	H	0.861435	-0.969580	-0.442730
H132	H	0.913080	-0.924151	-0.446497
H133	H	0.857732	-0.924223	-0.391054
H134	H	0.899489	-0.312480	-0.584417
H135	H	0.856230	-0.801163	-0.447864
H136	H	0.856196	-0.702113	-0.447855
H137	H	0.720372	-0.312622	-0.404485
H138	H	0.899415	-0.549996	-0.404573
H139	H	0.899365	-0.450930	-0.404548
H140	H	1.056694	-0.191171	-0.584492
H141	H	0.592138	-0.312624	-0.404500
C142	C	0.226298	-0.181578	-0.235410
H143	H	0.257474	-0.161629	-0.209681
H144	H	0.198694	-0.201547	-0.205872
H145	H	0.198753	-0.158827	-0.261368
C146	C	1.069109	-0.181557	-0.930153
H147	H	1.062901	-0.186356	-0.882990
H148	H	1.059239	-0.146425	-0.941748
H149	H	1.114583	-0.189211	-0.941743
C150	C	1.069135	-0.181528	-1.078596
H151	H	1.062935	-0.186303	-1.125754
H152	H	1.114602	-0.189187	-1.067018
H153	H	1.059260	-0.146398	-1.067020
