data_functionalizedCrystal
_audit_creation_method	'MofGen! by Chris Wilmer'
_symmetry_space_group_name_H-M	'P1'
_symmetry_Int_Tables_number	1
_symmetry_cell_setting	triclinic
loop_
_symmetry_equiv_pos_as_xyz
  x,y,z
_cell_length_a	16.109293
_cell_length_b	19.188930
_cell_length_c	14.586319
_cell_angle_alpha	89.991095
_cell_angle_beta	90.006918
_cell_angle_gamma	96.698474
loop_
_atom_site_label
_atom_site_type_symbol
_atom_site_fract_x
_atom_site_fract_y
_atom_site_fract_z
O1	O	-1.102838	0.089718	-0.076323
O2	O	-0.860738	0.100892	-0.076311
O3	O	-0.988774	-0.006335	-0.076299
O4	O	-0.974801	0.196944	-0.076334
O5	O	-0.988765	-0.006336	0.076181
O6	O	-0.860729	0.100890	0.076170
O7	O	-1.102829	0.089716	0.076158
Cu8	Cu	-0.981778	0.095303	0.090087
Cu9	Cu	-0.981788	0.095305	-0.090240
O10	O	-0.974792	0.196943	0.076146
C11	C	-0.829760	0.100440	-0.000068
C12	C	-0.737469	0.099085	-0.000063
C13	C	-0.525132	0.095953	0.083052
C14	C	-0.438416	0.094673	0.083052
C15	C	-0.438436	0.094679	-0.083191
C16	C	-0.525152	0.095954	-0.083190
C17	C	-0.568497	0.096594	-0.000065
C18	C	-0.395065	0.094040	-0.000067
C19	C	-0.301044	0.092652	-0.000068
C20	C	-0.662525	0.097981	-0.000064
C21	C	-0.988317	-0.032347	-0.000056
C22	C	-0.986959	-0.109855	-0.000048
C23	C	-1.062086	-0.154605	-0.000048
C24	C	-1.060810	-0.227432	-0.000063
C25	C	-0.984402	-0.255505	-0.000059
C26	C	-0.909265	-0.210745	-0.000065
C27	C	-0.910543	-0.137920	-0.000059
N28	N	-0.925995	-0.363646	0.051836
N29	N	-0.924785	-0.432827	0.051833
C30	C	-0.980546	-0.474923	-0.000077
N31	N	-1.037575	-0.445225	-0.051973
N32	N	-1.038787	-0.376037	-0.051966
C33	C	-0.983008	-0.334471	-0.000066
C34	C	-1.054296	-0.598641	-0.000094
C35	C	-1.053016	-0.671468	-0.000115
C36	C	-0.901469	-0.654780	-0.000108
C37	C	-0.902750	-0.581954	-0.000096
C38	C	-0.979166	-0.553889	-0.000085
C39	C	-0.133806	0.090175	-0.000080
C40	C	-0.226094	0.091549	-0.000070
C41	C	-0.975249	0.222956	-0.000099
C42	C	-0.976608	0.300463	-0.000113
N43	N	-0.981777	0.095301	0.216918
N44	N	-0.981796	0.095301	-0.217071
C45	C	-1.038490	0.047837	0.451930
C46	C	-1.038492	0.047836	0.547911
C47	C	-0.925077	0.142768	0.547911
C48	C	-0.925071	0.142765	0.451931
C49	C	-0.981782	0.095301	0.403943
C50	C	-0.981791	0.095302	0.595904
C51	C	-0.981793	0.095300	0.699971
C52	C	-0.981779	0.095302	0.299869
H53	H	-0.403134	0.094158	-0.150868
N54	N	-0.833791	-0.092215	-0.000065
N55	N	-0.765572	-0.117285	-0.000071
H56	H	-0.711364	-0.085004	-0.000074
H57	H	-1.124310	-0.131760	-0.000042
H58	H	-0.560460	0.096474	-0.150878
H59	H	-1.084667	0.009186	0.586979
H60	H	-0.847053	-0.233607	-0.000064
N61	N	-0.569395	0.096617	0.167966
N62	N	-0.530661	0.096050	0.242172
H63	H	-0.561918	0.096520	0.302146
N64	N	-0.394134	0.094014	0.167963
N65	N	-0.432850	0.094582	0.242169
H66	H	-0.401577	0.094114	0.302143
H67	H	-0.878905	0.181413	0.586992
N68	N	-0.867156	0.191263	0.402909
N69	N	-0.893375	0.234606	0.349337
H70	H	-0.852474	0.268857	0.314715
H71	H	-1.121990	-0.263875	-0.000066
N72	N	-1.132355	-0.569979	-0.000081
N73	N	-1.199431	-0.609947	-0.000086
H74	H	-1.254562	-0.589707	-0.000075
N75	N	-1.129769	-0.717173	-0.000127
N76	N	-1.197987	-0.692101	-0.000120
H77	H	-1.252196	-0.724380	-0.000130
H78	H	-0.839256	-0.677637	-0.000109
N79	N	-0.826008	-0.536238	-0.000066
N80	N	-0.809814	-0.493752	0.064216
H81	H	-0.755611	-0.461465	0.064237
N82	N	-1.096372	-0.000691	0.402925
N83	N	-1.146965	-0.043094	0.445786
H84	H	-1.187826	-0.077386	0.411180
