data_functionalizedCrystal
_audit_creation_method	'MofGen! by Chris Wilmer'
_symmetry_space_group_name_H-M	'P1'
_symmetry_Int_Tables_number	1
_symmetry_cell_setting	triclinic
loop_
_symmetry_equiv_pos_as_xyz
  x,y,z
_cell_length_a	10.723023
_cell_length_b	9.065215
_cell_length_c	8.140239
_cell_angle_alpha	89.997429
_cell_angle_beta	89.997738
_cell_angle_gamma	84.741123
loop_
_atom_site_label
_atom_site_type_symbol
_atom_site_fract_x
_atom_site_fract_y
_atom_site_fract_z
O1	O	1.658025	0.206934	-0.136593
O2	O	1.294953	0.226744	-0.136600
O3	O	1.483995	0.002154	-0.136589
O4	O	1.468982	0.431524	-0.136604
O5	O	1.483985	0.002151	0.136638
O6	O	1.294942	0.226741	0.136627
O7	O	1.658014	0.206932	0.136634
Zn8	Zn	1.476476	0.216836	0.180011
Zn9	Zn	1.476490	0.216840	-0.179977
O10	O	1.468972	0.431522	0.136624
C11	C	1.248442	0.225301	0.000013
C12	C	1.109870	0.220989	0.000011
C13	C	1.048085	0.219065	0.141549
C14	C	0.904864	0.214608	0.141550
C15	C	1.482548	-0.052826	0.000023
C16	C	1.478236	-0.216645	0.000017
C17	C	1.704525	0.208374	0.000018
C18	C	1.843097	0.212687	0.000009
C19	C	1.470419	0.486502	0.000008
C20	C	1.474731	0.650320	0.000002
N21	N	1.476476	0.216833	0.425694
N22	N	1.476501	0.216831	-0.425660
H23	H	0.896222	0.214350	-0.121173
H24	H	1.101220	0.220709	0.262725
H25	H	1.056736	0.219332	-0.121165
H26	H	0.851729	0.212961	0.262726
