data_functionalizedCrystal
_audit_creation_method	'MofGen! by Chris Wilmer'
_symmetry_space_group_name_H-M	'P1'
_symmetry_Int_Tables_number	1
_symmetry_cell_setting	triclinic
loop_
_symmetry_equiv_pos_as_xyz
  x,y,z
_cell_length_a	19.288859
_cell_length_b	14.519731
_cell_length_c	13.596369
_cell_angle_alpha	89.999010
_cell_angle_beta	89.992880
_cell_angle_gamma	83.411289
loop_
_atom_site_label
_atom_site_type_symbol
_atom_site_fract_x
_atom_site_fract_y
_atom_site_fract_z
O1	O	0.921774	0.115009	-0.081813
O2	O	1.171774	0.365009	0.168187
O3	O	1.421774	0.615009	0.418187
O4	O	1.671774	0.865009	0.668187
O5	O	0.719569	0.130534	-0.081811
O6	O	0.969569	0.380534	0.168189
O7	O	1.219569	0.630534	0.418189
O8	O	1.469569	0.880534	0.668189
O9	O	0.826025	-0.011500	-0.081803
O10	O	1.076025	0.238500	0.168197
O11	O	1.326025	0.488500	0.418197
O12	O	1.576025	0.738500	0.668197
O13	O	0.815318	0.257042	-0.081821
O14	O	1.065318	0.507042	0.168179
O15	O	1.315318	0.757042	0.418179
O16	O	1.565318	1.007042	0.668179
O17	O	0.826011	-0.011491	0.081780
O18	O	1.076011	0.238509	0.331780
O19	O	1.326011	0.488509	0.581780
O20	O	1.576011	0.738509	0.831780
O21	O	0.719555	0.130543	0.081772
O22	O	0.969555	0.380543	0.331772
O23	O	1.219555	0.630543	0.581772
O24	O	1.469555	0.880543	0.831772
O25	O	0.921760	0.115018	0.081770
O26	O	1.171760	0.365018	0.331770
O27	O	1.421760	0.615018	0.581770
O28	O	1.671760	0.865018	0.831770
Zn29	Zn	0.820655	0.122782	0.107743
Zn30	Zn	1.070655	0.372782	0.357743
Zn31	Zn	1.320655	0.622782	0.607743
Zn32	Zn	1.570655	0.872782	0.857743
Zn33	Zn	0.820674	0.122770	-0.107784
Zn34	Zn	1.070674	0.372770	0.142216
Zn35	Zn	1.320674	0.622770	0.392216
Zn36	Zn	1.570674	0.872770	0.642216
O37	O	0.815304	0.257051	0.081762
O38	O	1.065304	0.507051	0.331762
O39	O	1.315304	0.757051	0.581762
O40	O	1.565304	1.007051	0.831762
C41	C	0.693684	0.130040	-0.000019
C42	C	0.943684	0.380040	0.249981
C43	C	1.193684	0.630040	0.499981
C44	C	1.443684	0.880040	0.749981
C45	C	0.616575	0.128543	-0.000018
C46	C	0.866575	0.378543	0.249982
C47	C	1.116575	0.628543	0.499982
C48	C	1.366575	0.878543	0.749982
C49	C	0.052802	0.201757	-0.000024
C50	C	0.302802	0.451757	0.249976
C51	C	0.552802	0.701757	0.499976
C52	C	0.802802	0.951757	0.749976
C53	C	0.125253	0.203171	-0.000030
C54	C	0.375253	0.453171	0.249970
C55	C	0.625253	0.703171	0.499970
C56	C	0.875253	0.953171	0.749970
C57	C	0.169655	0.119832	-0.000022
C58	C	0.419655	0.369832	0.249978
C59	C	0.669655	0.619832	0.499978
C60	C	0.919655	0.869832	0.749978
C61	C	0.141601	0.035073	-0.000035
C62	C	0.391601	0.285073	0.249965
C63	C	0.641601	0.535073	0.499965
C64	C	0.891601	0.785073	0.749965
C65	C	0.069150	0.033661	-0.000039
C66	C	0.319150	0.283661	0.249961
C67	C	0.569150	0.533661	0.499961
C68	C	0.819150	0.783661	0.749961
C69	C	0.290694	0.057682	0.057296
C70	C	0.540694	0.307682	0.307296
C71	C	0.790694	0.557682	0.557296
C72	C	1.040694	0.807682	0.807296
C73	C	0.363142	0.059097	0.057307
C74	C	0.613142	0.309097	0.307307
C75	C	0.863142	0.559097	0.557307
C76	C	1.113142	0.809097	0.807307
C77	C	0.393117	0.124184	-0.000012
C78	C	0.643117	0.374184	0.249988
C79	C	0.893117	0.624184	0.499988
C80	C	1.143117	0.874184	0.749988
C81	C	0.350633	0.187871	-0.057329
C82	C	0.600633	0.437871	0.192671
C83	C	0.850633	0.687871	0.442671
C84	C	1.100633	0.937871	0.692671
C85	C	0.278182	0.186459	-0.057334
C86	C	0.528182	0.436459	0.192666
C87	C	0.778182	0.686459	0.442666
C88	C	1.028182	0.936459	0.692666
C89	C	0.248217	0.121354	-0.000018
C90	C	0.498217	0.371354	0.249982
C91	C	0.748217	0.621354	0.499982
C92	C	0.998217	0.871354	0.749982
C93	C	0.499724	0.210472	-0.000012
C94	C	0.749724	0.460472	0.249988
C95	C	0.999724	0.710472	0.499988
C96	C	1.249724	0.960472	0.749988
C97	C	0.572178	0.211883	-0.000024
C98	C	0.822178	0.461883	0.249976
C99	C	1.072178	0.711883	0.499976
C100	C	1.322178	0.961883	0.749976
C101	C	0.588524	0.043782	-0.000019
C102	C	0.838524	0.293782	0.249981
C103	C	1.088524	0.543782	0.499981
C104	C	1.338524	0.793782	0.749981
C105	C	0.516071	0.042373	-0.000018
C106	C	0.766071	0.292373	0.249982
C107	C	1.016071	0.542373	0.499982
C108	C	1.266071	0.792373	0.749982
C109	C	0.471676	0.125721	-0.000010
C110	C	0.721676	0.375721	0.249990
C111	C	0.971676	0.625721	0.499990
C112	C	1.221676	0.875721	0.749990
C113	C	0.825516	-0.045852	-0.000011
C114	C	1.075516	0.204148	0.249989
C115	C	1.325516	0.454148	0.499989
C116	C	1.575516	0.704148	0.749989
C117	C	0.824013	-0.148222	-0.000011
C118	C	1.074013	0.101778	0.249989
C119	C	1.324013	0.351778	0.499989
C120	C	1.574013	0.601778	0.749989
C121	C	0.822792	-0.231359	-0.000013
C122	C	1.072792	0.018641	0.249987
C123	C	1.322792	0.268641	0.499987
C124	C	1.572792	0.518641	0.749987
C125	C	0.821265	-0.335658	-0.000020
C126	C	1.071265	-0.085658	0.249980
C127	C	1.321265	0.164342	0.499980
C128	C	1.571265	0.414342	0.749980
C129	C	0.820054	-0.418789	-0.000027
C130	C	1.070054	-0.168789	0.249973
C131	C	1.320054	0.081211	0.499973
C132	C	1.570054	0.331211	0.749973
C133	C	0.818528	-0.523095	-0.000032
C134	C	1.068528	-0.273095	0.249968
C135	C	1.318528	-0.023095	0.499968
C136	C	1.568528	0.226905	0.749968
C137	C	0.947645	0.115512	-0.000024
C138	C	1.197645	0.365512	0.249976
C139	C	1.447645	0.615512	0.499976
C140	C	1.697645	0.865512	0.749976
C141	C	1.024755	0.117008	-0.000031
C142	C	1.274755	0.367008	0.249969
C143	C	1.524755	0.617008	0.499969
C144	C	1.774755	0.867008	0.749969
C145	C	0.815813	0.291403	-0.000032
C146	C	1.065813	0.541403	0.249968
C147	C	1.315813	0.791403	0.499968
C148	C	1.565813	1.041403	0.749968
C149	C	0.817316	0.393774	-0.000039
C150	C	1.067316	0.643774	0.249961
C151	C	1.317316	0.893774	0.499961
C152	C	1.567316	1.143774	0.749961
N153	N	0.820648	0.122789	0.254835
N154	N	1.070648	0.372789	0.504835
N155	N	1.320648	0.622789	0.754835
N156	N	1.570648	0.872789	1.004835
C157	C	0.820651	0.122792	0.343833
C158	C	1.070651	0.372792	0.593833
C159	C	1.320651	0.622792	0.843833
C160	C	1.570651	0.872792	1.093833
C161	C	0.820657	0.122786	0.455484
C162	C	1.070657	0.372786	0.705484
C163	C	1.320657	0.622786	0.955484
C164	C	1.570657	0.872786	1.205484
C165	C	0.820666	0.122776	0.544475
C166	C	1.070666	0.372776	0.794475
C167	C	1.320666	0.622776	1.044475
C168	C	1.570666	0.872776	1.294475
C169	C	0.820673	0.122772	0.656133
C170	C	1.070673	0.372772	0.906133
C171	C	1.320673	0.622772	1.156133
C172	C	1.570673	0.872772	1.406133
N173	N	0.820682	0.122762	0.745124
N174	N	1.070682	0.372762	0.995124
N175	N	1.320682	0.622762	1.245124
N176	N	1.570682	0.872762	1.495124
H177	H	0.148094	0.272186	-0.000015
H178	H	0.398094	0.522186	0.249985
H179	H	0.648094	0.772186	0.499985
H180	H	0.898094	1.022186	0.749985
H181	H	0.375036	0.240873	-0.104002
H182	H	0.625036	0.490873	0.145998
H183	H	0.875036	0.740873	0.395998
H184	H	1.125036	0.990873	0.645998
H185	H	0.016659	0.269625	-0.000023
H186	H	0.266659	0.519625	0.249977
H187	H	0.516659	0.769625	0.499977
H188	H	0.766659	1.019625	0.749977
H189	H	0.397728	0.007244	0.103983
H190	H	0.647728	0.257244	0.353983
H191	H	0.897728	0.507244	0.603983
H192	H	1.147728	0.757244	0.853983
Cl193	Cl	0.480810	-0.064174	-0.000030
Cl194	Cl	0.730810	0.185826	0.249970
Cl195	Cl	0.980810	0.435826	0.499970
Cl196	Cl	1.230810	0.685826	0.749970
Cl197	Cl	0.644337	-0.060989	-0.000025
Cl198	Cl	0.894337	0.189011	0.249975
Cl199	Cl	1.144337	0.439011	0.499975
Cl200	Cl	1.394337	0.689011	0.749975
H201	H	0.463575	0.278339	-0.000008
H202	H	0.713575	0.528339	0.249992
H203	H	0.963575	0.778339	0.499992
H204	H	1.213575	1.028339	0.749992
Cl205	Cl	0.197419	-0.069696	-0.000030
Cl206	Cl	0.447419	0.180304	0.249970
Cl207	Cl	0.697419	0.430304	0.499970
Cl208	Cl	0.947419	0.680304	0.749970
Cl209	Cl	0.253024	-0.024195	0.129303
Cl210	Cl	0.503024	0.225805	0.379303
Cl211	Cl	0.753024	0.475805	0.629303
Cl212	Cl	1.003024	0.725805	0.879303
H213	H	0.243594	0.238313	-0.104005
H214	H	0.493594	0.488313	0.145995
H215	H	0.743594	0.738313	0.395995
H216	H	0.993594	0.988313	0.645995
Cl217	Cl	0.033889	-0.072889	-0.000051
Cl218	Cl	0.283889	0.177111	0.249949
Cl219	Cl	0.533889	0.427111	0.499949
Cl220	Cl	0.783889	0.677111	0.749949
H221	H	0.595011	0.280898	-0.000026
H222	H	0.845011	0.530898	0.249974
H223	H	1.095011	0.780898	0.499974
H224	H	1.345011	1.030898	0.749974
