data_functionalizedCrystal
_audit_creation_method	'MofGen! by Chris Wilmer'
_symmetry_space_group_name_H-M	'P1'
_symmetry_Int_Tables_number	1
_symmetry_cell_setting	triclinic
loop_
_symmetry_equiv_pos_as_xyz
  x,y,z
_cell_length_a	17.038272
_cell_length_b	14.044220
_cell_length_c	15.500346
_cell_angle_alpha	87.073237
_cell_angle_beta	92.974377
_cell_angle_gamma	87.849783
loop_
_atom_site_label
_atom_site_type_symbol
_atom_site_fract_x
_atom_site_fract_y
_atom_site_fract_z
O1	O	0.193077	-1.277203	0.071852
O2	O	0.186238	-1.000683	0.071874
O3	O	0.075727	-1.137299	0.071856
O4	O	0.303588	-1.140587	0.071869
O5	O	0.068681	-1.128856	-0.072030
O6	O	0.179192	-0.992240	-0.072012
O7	O	0.186031	-1.268759	-0.072034
Cu8	Cu	0.181968	-1.129729	-0.085161
Cu9	Cu	0.190301	-1.139714	0.085001
O10	O	0.296542	-1.132143	-0.072016
C11	C	0.179721	-0.960906	-0.000067
C12	C	0.170790	-0.854960	-0.000058
C13	C	0.042867	-1.130088	-0.000087
C14	C	-0.044550	-1.121169	-0.000086
N15	N	0.176107	-1.122713	-0.204844
C16	C	-0.088936	-1.203057	-0.000093
C17	C	-0.171073	-1.194671	-0.000084
C18	C	-0.208823	-1.104396	-0.000074
C19	C	-0.164431	-1.022502	-0.000064
C20	C	-0.082295	-1.030889	-0.000067
C21	C	-0.456653	-1.074767	-0.000060
C22	C	-0.538794	-1.066386	-0.000060
C23	C	-0.545431	-1.238556	-0.000078
C24	C	-0.463294	-1.246934	-0.000086
C25	C	-0.418909	-1.165041	-0.000072
C26	C	-0.292780	-1.095822	-0.000068
C27	C	-0.334953	-1.173616	-0.000072
C28	C	0.329403	-1.139355	-0.000072
C29	C	0.416820	-1.148274	-0.000067
C30	C	0.192548	-1.308537	-0.000092
C31	C	0.201480	-1.414483	-0.000094
C32	C	0.154461	-0.660981	-0.000076
C33	C	0.217806	-0.608456	-0.000076
C34	C	0.208720	-0.500519	-0.000086
C35	C	0.163545	-0.768928	-0.000066
C36	C	0.146640	-1.087734	-0.750021
C37	C	0.151103	-1.093036	-0.659450
C38	C	0.205086	-1.157338	-0.614176
C39	C	0.254604	-1.216347	-0.659478
C40	C	0.250137	-1.211049	-0.750048
C41	C	0.221159	-1.176424	-0.340715
C42	C	0.225623	-1.181715	-0.250140
C43	C	0.122120	-1.058406	-0.250117
C44	C	0.117661	-1.053109	-0.340689
C45	C	0.167177	-1.112122	-0.385983
C46	C	0.209650	-1.162757	-0.521598
C47	C	0.162608	-1.106707	-0.478559
N48	N	0.196156	-1.146737	0.204683
H49	H	-0.058207	-1.276568	-0.000107
F50	F	0.074662	-0.613806	-0.000084
F51	F	-0.578969	-0.970299	-0.000053
F52	F	0.312054	-1.284786	-0.611292
H53	H	0.290459	-1.259096	-0.786926
H54	H	0.102685	-1.035368	-0.786876
H55	H	0.118653	-1.054356	-0.515425
H56	H	0.278861	-0.644551	-0.000069
H57	H	0.073701	-1.000750	-0.377544
F58	F	-0.409425	-0.987608	-0.000042
F59	F	0.098418	-1.030215	-0.611247
H60	H	-0.207209	-1.261353	-0.000092
F61	F	-0.423123	-1.343018	-0.000075
H62	H	0.253605	-1.215110	-0.484726
H63	H	-0.581578	-1.305229	-0.000088
H64	H	0.269589	-1.234076	-0.213280
F65	F	-0.204608	-0.926425	-0.000044
F66	F	0.273862	-1.239226	-0.388909
H67	H	-0.046157	-0.964207	-0.000061
F68	F	-0.332963	-0.999748	-0.000053
F69	F	-0.294775	-1.269690	-0.000077
F70	F	0.069425	-0.995607	-0.201906
