data_functionalizedCrystal
_audit_creation_method	'MofGen! by Chris Wilmer'
_symmetry_space_group_name_H-M	'P1'
_symmetry_Int_Tables_number	1
_symmetry_cell_setting	triclinic
loop_
_symmetry_equiv_pos_as_xyz
  x,y,z
_cell_length_a	9.065215
_cell_length_b	15.455301
_cell_length_c	9.065218
_cell_angle_alpha	92.962259
_cell_angle_beta	94.984675
_cell_angle_gamma	87.036321
loop_
_atom_site_label
_atom_site_type_symbol
_atom_site_fract_x
_atom_site_fract_y
_atom_site_fract_z
O1	O	-1.966245	0.072113	0.222177
O2	O	-1.632912	0.405446	0.555511
O3	O	-1.299578	0.738780	0.888844
O4	O	-1.536960	0.072118	0.239929
O5	O	-1.203627	0.405451	0.573262
O6	O	-0.870293	0.738784	0.906595
O7	O	-1.760476	0.072113	0.016410
O8	O	-1.427142	0.405447	0.349744
O9	O	-1.093809	0.738780	0.683077
O10	O	-1.742729	0.072117	0.445696
O11	O	-1.409396	0.405451	0.779029
O12	O	-1.076063	0.738784	1.112362
O13	O	-1.748771	-0.072149	0.004720
O14	O	-1.415437	0.261184	0.338054
O15	O	-1.082104	0.594518	0.671387
O16	O	-1.525255	-0.072145	0.228239
O17	O	-1.191922	0.261188	0.561572
O18	O	-0.858588	0.594522	0.894905
O19	O	-1.954540	-0.072149	0.210488
O20	O	-1.621207	0.261184	0.543821
O21	O	-1.287873	0.594517	0.877154
Cu22	Cu	-1.738829	-0.085320	0.218296
Cu23	Cu	-1.405495	0.248014	0.551629
Cu24	Cu	-1.072162	0.581347	0.884962
Cu25	Cu	-1.752671	0.085288	0.232120
Cu26	Cu	-1.419338	0.418621	0.565454
Cu27	Cu	-1.086005	0.751954	0.898787
O28	O	-1.731024	-0.072145	0.434006
O29	O	-1.397691	0.261188	0.767339
O30	O	-1.064358	0.594521	1.100672
C31	C	-1.476121	-0.000013	0.232379
C32	C	-1.142788	0.333320	0.565712
C33	C	-0.809454	0.666654	0.899045
C34	C	-1.312278	-0.000011	0.227281
C35	C	-0.978945	0.333322	0.560614
C36	C	-0.645611	0.666655	0.893947
N37	N	-1.729103	-0.205315	0.208571
N38	N	-1.395770	0.128018	0.541905
N39	N	-1.062437	0.461351	0.875238
C40	C	-1.816109	-0.250706	0.295638
C41	C	-1.482776	0.082627	0.628971
C42	C	-1.149443	0.415961	0.962304
C43	C	-1.808774	-0.341514	0.288275
C44	C	-1.475441	-0.008181	0.621608
C45	C	-1.142107	0.325152	0.954941
C46	C	-1.714424	-0.386930	0.193852
C47	C	-1.381091	-0.053597	0.527185
C48	C	-1.047757	0.279737	0.860519
C49	C	-1.627415	-0.341533	0.106776
C50	C	-1.294082	-0.008200	0.440109
C51	C	-0.960748	0.325134	0.773442
C52	C	-1.634759	-0.250727	0.114132
C53	C	-1.301426	0.082607	0.447465
C54	C	-0.968092	0.415940	0.780799
C55	C	-1.682743	-0.658513	0.162113
C56	C	-1.349410	-0.325180	0.495447
C57	C	-1.016077	0.008154	0.828780
C58	C	-1.675402	-0.749326	0.154767
C59	C	-1.342069	-0.415992	0.488100
C60	C	-1.008736	-0.082659	0.821433
C61	C	-1.856764	-0.749301	0.336265
C62	C	-1.523431	-0.415967	0.669598
C63	C	-1.190098	-0.082634	1.002931
C64	C	-1.864094	-0.658492	0.343619
C65	C	-1.530760	-0.325159	0.676952
C66	C	-1.197427	0.008174	1.010286
C67	C	-1.777090	-0.613103	0.256537
C68	C	-1.443757	-0.279770	0.589870
C69	C	-1.110424	0.053563	0.923204
N70	N	-1.706920	-0.479751	0.186327
N71	N	-1.373587	-0.146417	0.519660
N72	N	-1.040254	0.186916	0.852993
N73	N	-1.784603	-0.520284	0.264055
N74	N	-1.451269	-0.186951	0.597389
N75	N	-1.117936	0.146382	0.930722
C76	C	-1.015379	-0.000016	0.218037
C77	C	-0.682046	0.333317	0.551371
C78	C	-0.348713	0.666650	0.884704
C79	C	-1.179223	-0.000011	0.223136
C80	C	-0.845890	0.333322	0.556469
C81	C	-0.512556	0.666656	0.889802
C82	C	-1.752918	-0.000016	-0.044421
C83	C	-1.419584	0.333317	0.288912
C84	C	-1.086251	0.666650	0.622246
C85	C	-1.747818	-0.000012	-0.208264
C86	C	-1.414485	0.333321	0.125070
C87	C	-1.081152	0.666654	0.458403
N88	N	-1.762408	0.205284	0.241833
N89	N	-1.429075	0.538617	0.575166
N90	N	-1.095742	0.871950	0.908500
C91	C	-1.738583	-0.000014	0.494837
C92	C	-1.405249	0.333320	0.828171
C93	C	-1.071916	0.666653	1.161504
C94	C	-1.743682	-0.000012	0.658680
C95	C	-1.410349	0.333321	0.992014
C96	C	-1.077016	0.666655	1.325347
H97	H	-1.892930	-0.213735	0.372536
H98	H	-1.559597	0.119598	0.705869
H99	H	-1.226264	0.452932	1.039202
Cl100	Cl	-1.573309	-0.601464	0.052695
Cl101	Cl	-1.239975	-0.268131	0.386028
Cl102	Cl	-0.906642	0.065203	0.719362
Cl103	Cl	-1.556784	-0.806419	0.036053
Cl104	Cl	-1.223450	-0.473086	0.369386
Cl105	Cl	-0.890117	-0.139752	0.702720
Cl106	Cl	-1.918155	-0.398573	0.397739
Cl107	Cl	-1.584822	-0.065240	0.731072
Cl108	Cl	-1.251489	0.268094	1.064405
H109	H	-1.550600	-0.378518	0.029887
H110	H	-1.217267	-0.045185	0.363220
H111	H	-0.883934	0.288149	0.696554
H112	H	-1.563909	-0.213771	0.043233
H113	H	-1.230576	0.119563	0.376567
H114	H	-0.897242	0.452896	0.709900
H115	H	-1.940927	-0.621521	0.420504
H116	H	-1.607594	-0.288188	0.753837
H117	H	-1.274261	0.045146	1.087170
Cl118	Cl	-1.966136	-0.806366	0.445728
Cl119	Cl	-1.632802	-0.473033	0.779062
Cl120	Cl	-1.299469	-0.139700	1.112395
