data_functionalizedCrystal
_audit_creation_method	'MofGen! by Chris Wilmer'
_symmetry_space_group_name_H-M	'P1'
_symmetry_Int_Tables_number	1
_symmetry_cell_setting	triclinic
loop_
_symmetry_equiv_pos_as_xyz
  x,y,z
_cell_length_a	16.974897
_cell_length_b	12.811415
_cell_length_c	16.053802
_cell_angle_alpha	87.154093
_cell_angle_beta	83.774775
_cell_angle_gamma	83.375521
loop_
_atom_site_label
_atom_site_type_symbol
_atom_site_fract_x
_atom_site_fract_y
_atom_site_fract_z
O1	O	1.056758	0.124283	-0.150165
O2	O	0.825930	0.142212	-0.135944
O3	O	0.946599	-0.018841	-0.131890
O4	O	0.936088	0.285337	-0.154219
O5	O	0.939957	-0.010013	0.006748
O6	O	0.819288	0.151041	0.002695
O7	O	1.050115	0.133112	-0.011527
Zn8	Zn	0.933647	0.143478	0.017596
Zn9	Zn	0.942398	0.131846	-0.165066
O10	O	0.929446	0.294166	-0.015580
C11	C	0.793051	0.146106	-0.064590
C12	C	0.704979	0.144542	-0.058528
C13	C	0.667216	0.138998	-0.131246
C14	C	0.584461	0.137546	-0.125538
C15	C	0.539471	0.141631	-0.047112
C16	C	0.577240	0.147178	0.025611
C17	C	0.659993	0.148638	0.019902
C18	C	0.291588	0.137789	-0.021936
C19	C	0.208830	0.136326	-0.016232
C20	C	0.216056	0.126695	-0.167382
C21	C	0.298811	0.128149	-0.173084
C22	C	0.336572	0.133702	-0.100361
N23	N	0.454882	0.140143	-0.041276
N24	N	0.421159	0.135197	-0.106198
C25	C	0.942486	-0.053340	-0.059572
C26	C	0.940115	-0.169286	-0.050636
C27	C	0.942888	-0.396775	-0.185004
C28	C	0.940660	-0.505717	-0.176612
C29	C	0.933427	-0.496113	-0.025459
C30	C	0.935654	-0.387171	-0.033852
C31	C	0.940386	-0.337506	-0.113627
C32	C	0.942619	-0.228563	-0.122019
C33	C	0.935380	-0.218960	0.029133
C34	C	0.933152	-0.327902	0.037526
C35	C	1.082994	0.129218	-0.082882
C36	C	1.171066	0.130782	-0.088950
C37	C	0.933560	0.328664	-0.087900
C38	C	0.935931	0.444609	-0.096842
N39	N	0.927680	0.151416	0.142258
N40	N	0.948371	0.123900	-0.289728
C41	C	0.979044	0.082911	0.187673
C42	C	0.974878	0.088474	0.274940
C43	C	0.919351	0.162546	0.316789
C44	C	0.867981	0.231054	0.271367
C45	C	0.872144	0.225486	0.184103
C46	C	0.901165	0.186839	0.577586
C47	C	0.897007	0.192404	0.664856
C48	C	1.003904	0.049822	0.668423
C49	C	1.008065	0.044265	0.581156
C50	C	0.956693	0.112769	0.535743
N51	N	0.915092	0.168236	0.405989
N52	N	0.960948	0.107073	0.446545
H53	H	0.335437	0.124815	-0.236946
O54	O	0.159986	0.141430	0.068168
H55	H	0.128400	0.070070	0.079568
O56	O	0.947719	-0.174997	-0.208060
H57	H	0.948855	-0.089286	-0.201908
H58	H	0.322323	0.142304	0.037281
O59	O	0.928323	-0.549707	0.060572
H60	H	0.873048	-0.516894	0.098120
O61	O	0.700726	0.154629	0.098333
H62	H	0.689691	0.085470	0.140621
O63	O	0.528663	0.152229	0.110156
H64	H	0.464754	0.150507	0.101895
O65	O	0.928067	-0.381472	0.123565
H66	H	0.926948	-0.467186	0.117411
O67	O	0.175333	0.120699	-0.245818
H68	H	0.186384	0.189851	-0.288107
O69	O	0.947994	-0.343206	-0.271044
H70	H	0.949127	-0.257495	-0.264888
H71	H	0.942694	-0.553970	-0.234734
H72	H	0.933346	-0.170692	0.087254
H73	H	0.859337	0.242620	0.540617
H74	H	1.024264	0.022598	0.153605
O75	O	1.030291	0.014607	0.323925
H76	H	1.069614	-0.037820	0.280162
H77	H	1.053280	-0.016051	0.547085
H78	H	1.045728	-0.005951	0.705407
O79	O	0.837105	0.272288	0.710000
H80	H	0.802074	0.318979	0.663763
H81	H	0.822765	0.291362	0.305446
O82	O	0.816746	0.299363	0.135105
H83	H	0.826616	0.381815	0.144944
O84	O	0.715744	0.134586	-0.215832
H85	H	0.695030	0.203191	-0.255923
O86	O	0.543732	0.131509	-0.203965
H87	H	0.588922	0.128880	-0.259456
