data_functionalizedCrystal
_audit_creation_method	'MofGen! by Chris Wilmer'
_symmetry_space_group_name_H-M	'P1'
_symmetry_Int_Tables_number	1
_symmetry_cell_setting	triclinic
loop_
_symmetry_equiv_pos_as_xyz
  x,y,z
_cell_length_a	16.959455
_cell_length_b	12.645330
_cell_length_c	16.959447
_cell_angle_alpha	89.971713
_cell_angle_beta	89.983056
_cell_angle_gamma	90.009593
loop_
_atom_site_label
_atom_site_type_symbol
_atom_site_fract_x
_atom_site_fract_y
_atom_site_fract_z
Zn1	Zn	1.208445	-0.422104	-0.446920
Zn2	Zn	1.208379	-0.599396	-0.314747
Zn3	Zn	1.076267	-0.422137	-0.314758
Zn4	Zn	1.076255	-0.599316	-0.446885
O5	O	1.142337	-0.510738	-0.380828
O6	O	1.319047	-0.445641	-0.429397
O7	O	1.190831	-0.575929	-0.204137
O8	O	1.093834	-0.273786	-0.332309
O9	O	1.318998	-0.575897	-0.332290
O10	O	1.190944	-0.273761	-0.429408
O11	O	1.093770	-0.445698	-0.204145
O12	O	0.965655	-0.445621	-0.332275
O13	O	1.093813	-0.575761	-0.557501
O14	O	0.965646	-0.575794	-0.429348
O15	O	1.190932	-0.445564	-0.557527
O16	O	1.190819	-0.747733	-0.332256
O17	O	1.093749	-0.747674	-0.429337
C18	C	0.936970	-0.510703	-0.380809
C19	C	0.849114	-0.510714	-0.380820
C20	C	1.142297	-0.786168	-0.380809
C21	C	1.142352	-0.903998	-0.380827
C22	C	0.477618	-0.442902	-0.330387
C23	C	0.477658	-0.578662	-0.431313
C24	C	0.560204	-0.578647	-0.431308
C25	C	0.601461	-0.510759	-0.380841
C26	C	0.560172	-0.442887	-0.330379
C27	C	0.601499	-0.646525	-0.481764
C28	C	0.684050	-0.646514	-0.481761
C29	C	0.725308	-0.578620	-0.431297
C30	C	0.684014	-0.510744	-0.380833
C31	C	0.725271	-0.442857	-0.330366
C32	C	0.683979	-0.374975	-0.279906
C33	C	0.601430	-0.374993	-0.279915
C34	C	0.807857	-0.578602	-0.431288
C35	C	0.807825	-0.442842	-0.330358
C36	C	1.203321	-1.071555	-0.319629
C37	C	1.203520	-0.948994	-0.319779
C38	C	1.164938	-0.948379	-0.464146
C39	C	1.165422	-1.070977	-0.463821
C40	C	1.058773	-1.071320	-0.359528
C41	C	1.059174	-0.948716	-0.357659
C42	C	1.348505	-0.510774	-0.380846
C43	C	1.436361	-0.510790	-0.380854
C44	C	1.142379	-0.510650	-0.586996
C45	C	1.142397	-0.510613	-0.674852
C46	C	1.142398	-0.234233	-0.380864
C47	C	1.142424	-0.116403	-0.380879
C48	C	1.091931	-0.442696	-1.046339
C49	C	1.193002	-0.578306	-1.046318
C50	C	1.192988	-0.578331	-0.963772
C51	C	1.142444	-0.510538	-0.922506
C52	C	1.091914	-0.442721	-0.963785
C53	C	1.243512	-0.646155	-0.922486
C54	C	1.243500	-0.646183	-0.839935
C55	C	1.192959	-0.578384	-0.798667
C56	C	1.142428	-0.510563	-0.839952
C57	C	1.091884	-0.442770	-0.798686
C58	C	1.041355	-0.374943	-0.839969
C59	C	1.041374	-0.374921	-0.922517
C60	C	1.192941	-0.578406	-0.716119
C61	C	1.091867	-0.442795	-0.716132
C62	C	1.142340	-0.510750	-0.175461
C63	C	1.142475	-0.510489	-0.087605
H64	H	0.841410	-0.387552	-0.289266
H65	H	0.443994	-0.387631	-0.289305
H66	H	0.717581	-0.319705	-0.238812
H67	H	1.189367	-1.101108	-0.257669
H68	H	1.284642	-0.701414	-0.806329
H69	H	0.841473	-0.633873	-0.472369
H70	H	0.567803	-0.319729	-0.238832
H71	H	0.444062	-0.633939	-0.472397
H72	H	1.013400	-1.100323	-0.404138
H73	H	1.050711	-0.387584	-0.682539
H74	H	1.011354	-0.918097	-0.398999
H75	H	1.189389	-0.918992	-0.257999
Br76	Br	0.972762	-0.282942	-0.783955
H77	H	1.284653	-0.701360	-0.956091
Br78	Br	1.306036	-1.122775	-0.342900
Br79	Br	1.261500	-0.670460	-0.660094
Br80	Br	0.972805	-0.282881	-0.978549
H81	H	1.050794	-0.387469	-1.079955
H82	H	0.717663	-0.701787	-0.522849
H83	H	0.567901	-0.701803	-0.522846
Br84	Br	1.030782	-0.900383	-0.255464
H85	H	1.265477	-0.919590	-0.333901
Br86	Br	1.267333	-1.118513	-0.493965
H87	H	1.123010	-1.100640	-0.511029
H88	H	1.121934	-0.919229	-0.511004
Br89	Br	1.261584	-0.670319	-1.102322
H90	H	1.225392	-0.917595	-0.482534
H91	H	1.038234	-1.102330	-0.299830
