data_functionalizedCrystal
_audit_creation_method	'MofGen! by Chris Wilmer'
_symmetry_space_group_name_H-M	'P1'
_symmetry_Int_Tables_number	1
_symmetry_cell_setting	triclinic
loop_
_symmetry_equiv_pos_as_xyz
  x,y,z
_cell_length_a	6.817900
_cell_length_b	11.102183
_cell_length_c	12.200875
_cell_angle_alpha	92.492789
_cell_angle_beta	107.143593
_cell_angle_gamma	108.603876
loop_
_atom_site_label
_atom_site_type_symbol
_atom_site_fract_x
_atom_site_fract_y
_atom_site_fract_z
V1	V	-4.094459	-0.176127	-0.357659
O2	O	-4.053827	0.008167	-0.350853
O3	O	-4.071342	-0.348945	-0.355211
O4	O	-4.063799	-0.173548	-0.513647
O5	O	-4.061422	-0.168444	-0.191319
V6	V	-4.572512	-0.154068	-0.337764
O7	O	-4.367716	-0.224516	-0.401301
O8	O	-4.749452	-0.105680	-0.294122
O9	O	-4.372422	0.018750	-0.340212
O10	O	-4.730540	-0.338362	-0.344570
O11	O	-4.722945	-0.161751	-0.504103
O12	O	-4.379965	-0.156647	-0.181775
C13	C	-3.921919	-0.391070	-0.349568
C14	C	-3.984423	-0.532352	-0.348606
C15	C	-3.874090	-0.495905	-0.138500
C16	C	-3.848285	-0.544055	-0.032999
C17	C	-3.907021	-0.676802	-0.032102
C18	C	-3.991575	-0.761404	-0.136716
C19	C	-4.017381	-0.713254	-0.242217
C20	C	-3.958631	-0.580502	-0.243103
C21	C	-4.127728	-0.749702	-0.452321
C22	C	-4.068978	-0.616954	-0.453221
C23	C	-4.212282	-0.834304	-0.556936
C24	C	-4.238075	-0.786154	-0.662439
C25	C	-4.179330	-0.653398	-0.663332
C26	C	-4.094784	-0.568804	-0.558722
C27	C	-3.912296	-0.167333	-0.551668
C28	C	-3.968679	-0.166368	-0.679189
C29	C	-4.071869	-0.164603	-0.912664
C30	C	-4.014439	-0.165584	-0.782742
C31	C	-4.185187	0.060868	-0.345851
C32	C	-4.101922	0.202148	-0.346821
C33	C	-4.194809	-0.162867	-0.143749
C34	C	-4.117664	-0.163825	-0.016226
H35	H	-4.200376	-0.614205	-0.749245
H36	H	-3.779441	-0.475158	0.052176
C37	C	-3.729875	-0.285898	-0.025388
C38	C	-3.809531	-0.349987	-0.139484
H39	H	-3.690038	-0.195815	-0.025998
H40	H	-3.605250	-0.305052	0.017254
H41	H	-3.840337	-0.313352	0.009951
H42	H	-3.699063	-0.322540	-0.174821
H43	H	-3.934172	-0.330823	-0.182143
C44	C	-3.792039	-0.627454	0.175499
C45	C	-3.878654	-0.729736	0.083865
H46	H	-3.774517	-0.660136	0.247090
H47	H	-3.888960	-0.580579	0.167131
H48	H	-3.653878	-0.572291	0.174431
H49	H	-4.016824	-0.784895	0.084927
H50	H	-3.781731	-0.776632	0.092236
C51	C	-4.015660	-0.931720	-0.021039
C52	C	-4.056154	-0.907323	-0.135731
H53	H	-4.055519	-1.021805	-0.020435
H54	H	-4.099535	-0.899100	0.013888
H55	H	-3.864448	-0.890817	0.021206
H56	H	-4.207369	-0.948219	-0.177975
H57	H	-3.972280	-0.939959	-0.170674
H58	H	-4.046915	-0.460711	-0.559438
H59	H	-4.306931	-0.855046	-0.747608
C60	C	-4.153172	-1.028271	-0.607468
C61	C	-4.276832	-0.980222	-0.555952
H62	H	-4.193027	-1.118357	-0.606866
H63	H	-4.001990	-0.987364	-0.565214
H64	H	-4.180669	-1.011697	-0.685271
H65	H	-4.249323	-0.996788	-0.478146
H66	H	-4.428050	-1.021143	-0.598204
