data_functionalizedCrystal
_audit_creation_method	'MofGen! by Chris Wilmer'
_symmetry_space_group_name_H-M	'P1'
_symmetry_Int_Tables_number	1
_symmetry_cell_setting	triclinic
loop_
_symmetry_equiv_pos_as_xyz
  x,y,z
_cell_length_a	15.995350
_cell_length_b	10.654565
_cell_length_c	9.730223
_cell_angle_alpha	90.005905
_cell_angle_beta	90.000899
_cell_angle_gamma	96.008153
loop_
_atom_site_label
_atom_site_type_symbol
_atom_site_fract_x
_atom_site_fract_y
_atom_site_fract_z
O1	O	0.117661	-1.666285	-0.114464
O2	O	0.128852	-1.300663	-0.114426
O3	O	0.001427	-1.493469	-0.114445
O4	O	0.245086	-1.473480	-0.114445
O5	O	0.001431	-1.493467	0.114135
O6	O	0.128855	-1.300661	0.114154
O7	O	0.117664	-1.666283	0.114116
Zn8	Zn	0.123260	-1.483472	0.150427
Zn9	Zn	0.123256	-1.483475	-0.150737
O10	O	0.245089	-1.473478	0.114135
C11	C	0.128029	-1.253875	-0.000132
C12	C	0.125563	-1.114465	-0.000117
C13	C	0.124414	-1.048948	0.124474
C14	C	0.122103	-0.917957	0.124459
C15	C	0.122093	-0.918009	-0.124752
C16	C	0.124398	-1.049000	-0.124735
C17	C	0.125578	-1.114414	0.249092
C18	C	0.124431	-1.048897	0.373694
C19	C	0.122120	-0.917905	0.373678
C20	C	0.120957	-0.852430	0.249060
C21	C	-0.029771	-1.492641	-0.000157
C22	C	-0.122735	-1.490164	-0.000165
C23	C	-0.460535	-1.481267	-0.000159
C24	C	-0.413903	-1.343954	-0.000658
C25	C	-0.317199	-1.346432	-0.000143
C26	C	-0.292949	-1.485680	-0.000163
C27	C	-0.333628	-1.553406	0.130358
C28	C	-0.430284	-1.549957	0.130468
C29	C	-0.430630	-1.552796	-0.129471
C30	C	-0.333684	-1.552763	-0.131196
C31	C	-0.198237	-1.488181	-0.000160
C32	C	-0.555247	-1.478769	-0.000153
C33	C	0.276287	-1.474305	-0.000156
C34	C	0.369252	-1.476783	-0.000157
C35	C	0.118486	-0.713072	-0.000168
C36	C	0.120947	-0.852483	-0.000150
N37	N	0.123263	-1.483479	0.355963
N38	N	0.123247	-1.483478	-0.356274
C39	C	0.066858	-1.568875	0.427881
C40	C	0.066848	-1.568872	0.571764
C41	C	0.179654	-1.398072	0.571799
C42	C	0.179660	-1.398071	0.427918
C43	C	0.010462	-1.654283	0.355926
C44	C	-0.045947	-1.739687	0.427844
C45	C	-0.045957	-1.739684	0.571727
C46	C	0.010441	-1.654277	0.643692
H47	H	-0.289089	-1.293195	-0.093705
H48	H	-0.091892	-1.809215	0.630281
O49	O	0.234324	-1.315069	0.641855
C50	C	0.188994	-1.237587	0.725062
H51	H	0.123784	-1.287607	0.746597
H52	H	0.223814	-1.217725	0.826248
H53	H	0.182730	-1.144775	0.669627
O54	O	-0.467714	-1.673628	-0.130725
C55	C	-0.440466	-1.736870	-0.247117
H56	H	-0.377547	-1.687992	-0.283477
H57	H	-0.432912	-1.838976	-0.219174
H58	H	-0.488904	-1.734783	-0.332814
H59	H	0.125337	-1.102344	-0.226188
H60	H	0.010423	-1.654273	0.760851
O61	O	-0.301352	-1.493664	-0.246258
C62	C	-0.242189	-1.392051	-0.208521
H63	H	-0.217262	-1.409227	-0.101134
H64	H	-0.187863	-1.383952	-0.284929
H65	H	-0.273598	-1.300811	-0.208985
O66	O	-0.314607	-1.673900	-0.140383
C67	C	-0.263728	-1.700755	-0.028039
H68	H	-0.273798	-1.633491	0.060127
H69	H	-0.281385	-1.802160	0.007014
H70	H	-0.194860	-1.688333	-0.060413
O71	O	-0.100679	-1.822553	0.357731
C72	C	-0.088608	-1.804203	0.215316
H73	H	-0.022316	-1.757324	0.195663
H74	H	-0.097378	-1.899288	0.160599
H75	H	-0.136366	-1.741163	0.174524
H76	H	0.225588	-1.328532	0.369362
H77	H	0.127463	-1.221073	0.249118
O78	O	0.120890	-0.854424	0.494797
C79	C	0.049060	-0.900612	0.570594
H80	H	0.026602	-1.000462	0.535171
H81	H	0.065425	-0.901880	0.684582
H82	H	-0.002929	-0.836843	0.553321
O83	O	0.125597	-1.112680	0.494617
C84	C	0.127862	-1.242349	0.467920
H85	H	0.154637	-1.255067	0.360836
H86	H	0.169319	-1.284148	0.547504
H87	H	0.061463	-1.292685	0.473831
H88	H	0.121148	-0.864689	-0.226209
H89	H	0.119073	-0.745768	0.249057
H90	H	-0.433815	-1.289314	0.092430
O91	O	-0.436516	-1.278629	-0.112351
C92	C	-0.494821	-1.356144	-0.191790
H93	H	-0.527474	-1.433774	-0.124166
H94	H	-0.543625	-1.296868	-0.236363
H95	H	-0.460514	-1.400468	-0.279077
H96	H	0.010466	-1.654296	0.238769
O97	O	-0.300026	-1.497469	0.246295
C98	C	-0.261363	-1.586666	0.324506
H99	H	-0.244450	-1.666090	0.254616
H100	H	-0.201836	-1.538875	0.374359
H101	H	-0.306537	-1.627157	0.407785
O102	O	-0.284411	-1.282335	0.111638
C103	C	-0.303865	-1.156399	0.105751
H104	H	-0.361661	-1.150900	0.038347
H105	H	-0.317294	-1.122309	0.213799
H106	H	-0.248372	-1.094154	0.060350
H107	H	-0.448873	-1.500569	0.228048
H108	H	-0.461943	-1.650769	0.136376
H109	H	-0.451433	-1.507903	-0.228399
O110	O	-0.316173	-1.675495	0.136324
C111	C	-0.353592	-1.733426	0.254664
H112	H	-0.408401	-1.680476	0.288625
H113	H	-0.377557	-1.835556	0.230349
H114	H	-0.305077	-1.731091	0.340708
