data_functionalizedCrystal
_audit_creation_method	'MofGen! by Chris Wilmer'
_symmetry_space_group_name_H-M	'P1'
_symmetry_Int_Tables_number	1
_symmetry_cell_setting	triclinic
loop_
_symmetry_equiv_pos_as_xyz
  x,y,z
_cell_length_a	19.077399
_cell_length_b	19.077068
_cell_length_c	12.759393
_cell_angle_alpha	87.737652
_cell_angle_beta	87.727729
_cell_angle_gamma	94.530727
loop_
_atom_site_label
_atom_site_type_symbol
_atom_site_fract_x
_atom_site_fract_y
_atom_site_fract_z
Zn1	Zn	1.066444	-0.237332	0.544444
Zn2	Zn	1.061608	-0.355240	0.376103
Zn3	Zn	0.948550	-0.242102	0.376114
Zn4	Zn	0.943785	-0.359920	0.559065
O5	O	1.005097	-0.298649	0.463931
O6	O	1.164451	-0.249018	0.515990
O7	O	1.046581	-0.340270	0.229087
O8	O	0.968206	-0.142817	0.392328
O9	O	1.160898	-0.335645	0.392310
O10	O	1.054823	-0.139313	0.516000
O11	O	0.963517	-0.257147	0.229095
O12	O	0.849269	-0.261686	0.406506
O13	O	0.960086	-0.343621	0.704143
O14	O	0.845768	-0.348246	0.540920
O15	O	1.050203	-0.253557	0.693401
O16	O	1.041960	-0.454513	0.406488
O17	O	0.955396	-0.457951	0.540910
C18	C	0.821940	-0.305992	0.475301
C19	C	0.743584	-0.309150	0.480191
C20	C	0.708577	-0.265498	0.412613
C21	C	0.634954	-0.268472	0.417208
C22	C	0.596338	-0.315094	0.489387
C23	C	0.631350	-0.358751	0.556969
C24	C	0.704973	-0.355780	0.552368
C25	C	0.375957	-0.328822	0.510635
C26	C	0.302330	-0.331788	0.515233
C27	C	0.305938	-0.241510	0.375470
C28	C	0.379562	-0.238540	0.370880
C29	C	0.414568	-0.282199	0.438458
N30	N	0.521083	-0.318134	0.494088
N31	N	0.489821	-0.279163	0.433751
C32	C	0.997656	-0.481811	0.475306
C33	C	0.994537	-0.560166	0.480204
C34	C	1.038176	-0.595162	0.412572
C35	C	1.035247	-0.668785	0.417184
C36	C	0.988675	-0.707410	0.489424
C37	C	0.945034	-0.672409	0.557063
C38	C	0.947967	-0.598787	0.552455
C39	C	0.975069	-0.927790	0.510708
C40	C	0.972138	-1.001416	0.515309
C41	C	1.062352	-0.997787	0.375431
C42	C	1.065278	-0.924165	0.370825
C43	C	1.021640	-0.889170	0.438468
N44	N	0.985678	-0.782664	0.494137
N45	N	1.024641	-0.813916	0.433759
C46	C	1.188968	-0.291278	0.452518
C47	C	1.267323	-0.288136	0.447654
C48	C	1.005152	-0.298579	0.737957
C49	C	1.005176	-0.298549	0.854731
C50	C	1.012585	-0.114771	0.452534
C51	C	1.015777	-0.036413	0.447677
C52	C	1.005084	-0.298666	0.190966
C53	C	1.005205	-0.298491	0.074172
C54	C	1.052103	-0.251645	0.904000
C55	C	1.052116	-0.251614	1.013722
C56	C	0.958272	-0.345398	1.024895
C57	C	0.958256	-0.345424	0.915176
H58	H	0.410998	-0.200581	0.312097
H59	H	0.920037	-0.383619	0.875060
H60	H	0.277429	-0.205966	0.320451
Br61	Br	1.115778	-0.188028	0.821971
H62	H	1.097881	-1.026288	0.320362
Br63	Br	0.908916	-1.053837	0.613338
Br64	Br	0.760977	-0.202217	0.314657
Br65	Br	0.587447	-0.209225	0.325493
H66	H	1.070782	-0.697275	0.362110
H67	H	0.270891	-0.369753	0.574016
Br68	Br	0.888745	-0.551291	0.644251
H69	H	0.404450	-0.364372	0.565662
Br70	Br	0.578944	-0.422038	0.654909
H71	H	1.090328	-0.213419	1.053832
H72	H	0.733474	-0.391326	0.607398
H73	H	0.920074	-0.383563	1.074123
H74	H	1.076097	-0.563718	0.353742
H75	H	0.939536	-0.899302	0.565784
Br76	Br	1.128495	-0.871749	0.272795
H77	H	0.907117	-0.703863	0.615886
