data_functionalizedCrystal
_audit_creation_method	'MofGen! by Chris Wilmer'
_symmetry_space_group_name_H-M	'P1'
_symmetry_Int_Tables_number	1
_symmetry_cell_setting	triclinic
loop_
_symmetry_equiv_pos_as_xyz
  x,y,z
_cell_length_a	9.065218
_cell_length_b	16.176319
_cell_length_c	9.065215
_cell_angle_alpha	90.005797
_cell_angle_beta	85.015291
_cell_angle_gamma	90.007458
loop_
_atom_site_label
_atom_site_type_symbol
_atom_site_fract_x
_atom_site_fract_y
_atom_site_fract_z
O1	O	1.960405	0.068747	0.216361
O2	O	1.531120	0.068748	0.234107
O3	O	1.754638	0.068744	0.010591
O4	O	1.736887	0.068751	0.439877
O5	O	1.754607	-0.068749	0.010577
O6	O	1.531089	-0.068745	0.234093
O7	O	1.960374	-0.068746	0.216346
Cu8	Cu	1.745728	-0.081300	0.225218
Cu9	Cu	1.745766	0.081302	0.225236
O10	O	1.736856	-0.068742	0.439862
C11	C	1.476118	0.000001	0.232394
C12	C	1.312275	0.000002	0.227295
N13	N	1.745713	-0.195665	0.225205
C14	C	1.844718	-0.238931	0.126273
C15	C	1.844725	-0.325478	0.126272
C16	C	1.745734	-0.368758	0.225210
C17	C	1.646719	-0.325486	0.324146
C18	C	1.646705	-0.238940	0.324139
C19	C	1.646770	-0.674514	0.324175
C20	C	1.646794	-0.761066	0.324177
C21	C	1.844789	-0.761052	0.126307
C22	C	1.844776	-0.674507	0.126300
C23	C	1.745756	-0.631242	0.225230
C24	C	1.745747	-0.537398	0.225229
C25	C	1.745749	-0.462600	0.225220
C26	C	2.015376	0.000002	0.218059
C27	C	2.179219	0.000007	0.223159
C28	C	1.752917	-0.000002	-0.044403
C29	C	1.747819	0.000001	-0.208246
N30	N	1.745792	0.195667	0.225237
C31	C	1.738576	0.000005	0.494856
C32	C	1.743674	0.000008	0.658699
H33	H	1.925341	-0.360705	0.045714
O34	O	1.539951	-0.372160	0.430869
H35	H	1.556604	-0.439609	0.414269
H36	H	1.566178	-0.796302	0.404747
O37	O	1.951528	-0.627823	0.019576
H38	H	2.066811	-0.644416	0.039960
O39	O	1.951466	-0.192246	0.019549
H40	H	2.066750	-0.208837	0.039929
O41	O	1.951583	-0.807714	0.019583
H42	H	1.934956	-0.875166	0.036190
O43	O	1.539989	-0.627854	0.430885
H44	H	1.471175	-0.672492	0.499694
H45	H	1.566084	-0.203714	0.404697
