data_functionalizedCrystal
_audit_creation_method	'MofGen! by Chris Wilmer'
_symmetry_space_group_name_H-M	'P1'
_symmetry_Int_Tables_number	1
_symmetry_cell_setting	triclinic
loop_
_symmetry_equiv_pos_as_xyz
  x,y,z
_cell_length_a	12.759401
_cell_length_b	19.077068
_cell_length_c	19.077237
_cell_angle_alpha	85.344389
_cell_angle_beta	92.310887
_cell_angle_gamma	92.328499
loop_
_atom_site_label
_atom_site_type_symbol
_atom_site_fract_x
_atom_site_fract_y
_atom_site_fract_z
Zn1	Zn	1.612855	-0.296638	0.409816
Zn2	Zn	1.599164	-0.409795	0.296661
Zn3	Zn	1.430398	-0.291930	0.291950
Zn4	Zn	1.430319	-0.414491	0.414508
O5	O	1.518184	-0.353213	0.353234
O6	O	1.758060	-0.311654	0.394814
O7	O	1.571081	-0.390225	0.197389
O8	O	1.460364	-0.193905	0.303650
O9	O	1.748002	-0.394790	0.311679
O10	O	1.594414	-0.197364	0.390246
O11	O	1.447089	-0.303629	0.193928
O12	O	1.283366	-0.308182	0.308200
O13	O	1.460229	-0.402793	0.512533
O14	O	1.283308	-0.398228	0.398243
O15	O	1.594338	-0.316207	0.509086
O16	O	1.571004	-0.509068	0.316229
O17	O	1.446954	-0.512517	0.402811
C18	C	1.245216	-0.353204	0.353220
C19	C	1.128440	-0.353218	0.353231
C20	C	1.507514	-0.536372	0.360556
C21	C	1.503047	-0.614729	0.363712
C22	C	1.073567	-0.400170	0.400048
C23	C	0.963843	-0.400174	0.400062
C24	C	0.963875	-0.306270	0.306435
C25	C	1.073597	-0.306264	0.306425
C26	C	1.565589	-0.649723	0.320153
C27	C	1.561394	-0.723348	0.323125
C28	C	1.494651	-0.761977	0.369653
C29	C	1.432107	-0.726978	0.413217
C30	C	1.436308	-0.653354	0.410247
C31	C	1.475159	-0.982362	0.383367
C32	C	1.470960	-1.055991	0.386332
C33	C	1.600250	-1.052356	0.296241
C34	C	1.604440	-0.978731	0.293273
C35	C	1.541900	-0.943738	0.336839
N36	N	1.490359	-0.837233	0.372691
N37	N	1.546198	-0.868483	0.333804
C38	C	1.792218	-0.353223	0.353249
C39	C	1.908994	-0.353227	0.353255
C40	C	1.528802	-0.360549	0.537103
C41	C	1.533326	-0.363675	0.615457
C42	C	1.528925	-0.169341	0.345899
C43	C	1.533502	-0.090985	0.342773
C44	C	1.507671	-0.345856	0.170078
C45	C	1.503361	-0.342531	0.091717
C46	C	1.565782	-0.386146	1.056701
C47	C	1.561516	-0.383204	0.983079
C48	C	1.494833	-0.336645	0.944474
C49	C	1.432405	-0.293029	0.979494
C50	C	1.436667	-0.295974	1.053115
C51	C	1.475160	-0.323004	0.724098
C52	C	1.470905	-0.320060	0.650472
C53	C	1.600015	-0.410237	0.654062
C54	C	1.604276	-0.413176	0.727684
C55	C	1.541844	-0.369562	0.762699
N56	N	1.490473	-0.333635	0.869220
N57	N	1.546199	-0.372576	0.837951
H58	H	0.919171	-0.438406	0.438187
H59	H	1.377768	-0.758435	0.451104
O60	O	1.660805	-0.452534	0.620079
C61	C	1.836202	-0.485910	0.598952
C62	C	1.767486	-0.437949	0.637465
H63	H	1.922466	-0.474146	0.613005
H64	H	1.821796	-0.475810	0.539693
H65	H	1.815201	-0.543324	0.615685
H66	H	1.788446	-0.380519	0.620790
H67	H	1.781901	-0.448110	0.696716
H68	H	1.658788	-0.947280	0.255386
H69	H	1.612332	-0.418728	0.954573
O70	O	1.375916	-0.253708	1.087167
C71	C	1.239478	-0.247545	1.169941
C72	C	1.308199	-0.295490	1.131414
H73	H	1.184727	-0.281306	1.205735
H74	H	1.191010	-0.213774	1.129736
H75	H	1.291883	-0.212051	1.202912
H76	H	1.255873	-0.331027	1.098444
H77	H	1.356675	-0.329213	1.171655
O78	O	1.414363	-0.280666	0.758022
C79	C	1.238945	-0.247363	0.779191
C80	C	1.307681	-0.295345	0.740719
H81	H	1.152678	-0.259224	0.765228
H82	H	1.259798	-0.189931	0.762436
H83	H	1.253480	-0.257445	0.838439
H84	H	1.293183	-0.285325	0.681464
H85	H	1.286814	-0.352761	0.757532
O86	O	1.414290	-0.948486	0.425702
C87	C	1.285629	-0.959868	0.515384
C88	C	1.354499	-0.998325	0.467471
H89	H	1.237286	-1.000146	0.549177
H90	H	1.230759	-0.924176	0.481627
H91	H	1.337921	-0.926805	0.550857
H92	H	1.302288	-1.031426	0.431990
H93	H	1.409376	-1.033975	0.501270
H94	H	1.619933	-0.618275	0.282262
O95	O	1.126683	-0.445800	0.445585
C96	C	1.115063	-0.538962	0.538428
C97	C	1.054784	-0.487315	0.486903
H98	H	1.056958	-0.572551	0.571837
H99	H	1.170428	-0.508159	0.574093
H100	H	1.162436	-0.574447	0.507460
H101	H	1.007351	-0.451817	0.517814
H102	H	0.999483	-0.518162	0.451237
O103	O	1.406061	-0.274928	0.612893
C104	C	1.259934	-0.262125	0.529415
C105	C	1.333303	-0.313310	0.571922
H106	H	1.201077	-0.293138	0.496291
H107	H	1.308273	-0.223898	0.493436
H108	H	1.216089	-0.231442	0.567096
H109	H	1.377165	-0.344041	0.534295
H110	H	1.284907	-0.351491	0.607910
O111	O	1.367474	-0.247879	0.942028
C112	C	1.189465	-0.212723	0.918170
C113	C	1.262877	-0.263912	0.960632
H114	H	1.104886	-0.225658	0.933207
H115	H	1.197052	-0.218111	0.859529
H116	H	1.212128	-0.156464	0.930376
H117	H	1.240262	-0.320193	0.948487
H118	H	1.255280	-0.258463	1.019262
O119	O	1.375610	-0.619438	0.452661
C120	C	1.332739	-0.601636	0.571637
C121	C	1.401523	-0.640105	0.523679
H122	H	1.353679	-0.618319	0.629064
H123	H	1.246473	-0.615680	0.559856
H124	H	1.347192	-0.542383	0.561487
H125	H	1.387161	-0.699365	0.533801
H126	H	1.487765	-0.626002	0.535469
O127	O	1.630583	-0.431436	1.094093
C128	C	1.758234	-0.520541	1.089874
C129	C	1.684876	-0.469291	1.047445
H130	H	1.802165	-0.551149	1.052177
H131	H	1.709884	-0.558823	1.125791
H132	H	1.817016	-0.489548	1.123072
H133	H	1.626080	-0.500224	1.014207
H134	H	1.733294	-0.431008	1.011572
H135	H	1.118275	-0.268025	0.268301
H136	H	1.612321	-0.751836	0.287655
H137	H	1.651168	-1.080855	0.260773
O138	O	0.910433	-0.260730	0.260995
C139	C	0.741419	-0.219088	0.219549
C140	C	0.801806	-0.270712	0.271036
H141	H	0.653585	-0.227131	0.227659
H142	H	0.758895	-0.229105	0.163158
H143	H	0.767089	-0.162769	0.229745
H144	H	0.776171	-0.327050	0.260904
H145	H	0.784328	-0.260634	0.327409
O146	O	1.669190	-0.458299	0.765202
C147	C	1.815289	-0.471091	0.848703
C148	C	1.741844	-0.419918	0.806249
H149	H	1.874034	-0.440082	0.881912
H150	H	1.859249	-0.501737	0.811051
H151	H	1.766898	-0.509351	0.884616
H152	H	1.790156	-0.381616	0.770334
H153	H	1.697880	-0.389323	0.843942
H154	H	1.416623	-1.087441	0.424233
