data_functionalizedCrystal
_audit_creation_method	'MofGen! by Chris Wilmer'
_symmetry_space_group_name_H-M	'P1'
_symmetry_Int_Tables_number	1
_symmetry_cell_setting	triclinic
loop_
_symmetry_equiv_pos_as_xyz
  x,y,z
_cell_length_a	17.638166
_cell_length_b	18.215407
_cell_length_c	18.215399
_cell_angle_alpha	90.019833
_cell_angle_beta	101.179426
_cell_angle_gamma	78.754997
loop_
_atom_site_label
_atom_site_type_symbol
_atom_site_fract_x
_atom_site_fract_y
_atom_site_fract_z
Zn1	Zn	-0.314699	-1.065799	-0.475319
Zn2	Zn	-0.446893	-1.040809	-0.377122
Zn3	Zn	-0.314725	-0.942727	-0.352272
Zn4	Zn	-0.446849	-0.917807	-0.500139
O5	O	-0.380791	-0.991785	-0.426213
O6	O	-0.332243	-1.165467	-0.462306
O7	O	-0.429390	-1.027768	-0.270847
O8	O	-0.204104	-0.979940	-0.347807
O9	O	-0.429365	-1.147107	-0.390161
O10	O	-0.204085	-1.070360	-0.438210
O11	O	-0.332287	-0.955708	-0.252589
O12	O	-0.332244	-0.836438	-0.371873
O13	O	-0.429290	-0.937468	-0.599825
O14	O	-0.429315	-0.818130	-0.480511
O15	O	-0.332200	-1.046197	-0.581590
O16	O	-0.557504	-1.003605	-0.414228
O17	O	-0.557472	-0.913236	-0.504608
C18	C	-0.380778	-0.800582	-0.426189
C19	C	-0.380791	-0.718780	-0.426200
C20	C	-0.586170	-0.953025	-0.464824
C21	C	-0.674032	-0.936510	-0.481366
C22	C	-0.797881	-0.866144	-0.551699
C23	C	-0.715322	-0.881667	-0.536150
C24	C	-0.715292	-0.975849	-0.442106
C25	C	-0.797854	-0.960331	-0.457645
C26	C	-0.839142	-0.905478	-0.512443
C27	C	-0.839114	-0.999665	-0.418389
C28	C	-0.921668	-0.984150	-0.433930
C29	C	-0.962962	-0.929301	-0.488726
C30	C	-0.921696	-0.889963	-0.527984
C31	C	-0.797825	-1.054521	-0.363595
C32	C	-0.839085	-1.093855	-0.324339
C33	C	-0.921641	-1.078337	-0.339876
C34	C	-0.962934	-1.023488	-0.394672
C35	C	-0.962907	-1.117675	-0.300618
C36	C	-1.045461	-1.102160	-0.316159
C37	C	-1.045488	-1.007974	-0.410213
C38	C	-0.380737	-0.991840	-0.618156
C39	C	-0.380714	-0.991864	-0.699950
C40	C	-0.174611	-1.030717	-0.387468
C41	C	-0.086749	-1.047308	-0.370957
C42	C	-0.380806	-1.183736	-0.426237
C43	C	-0.380812	-1.265533	-0.426248
C44	C	-0.431415	-0.521058	-0.482724
C45	C	-0.431418	-0.444198	-0.482733
C46	C	-0.330182	-0.463262	-0.369721
C47	C	-0.330176	-0.540121	-0.369715
C48	C	-0.380797	-0.569016	-0.426216
C49	C	-0.380806	-0.415298	-0.426232
C50	C	-0.380808	-0.331964	-0.426242
C51	C	-0.380794	-0.652355	-0.426207
C52	C	-0.330112	-1.048505	-0.878642
C53	C	-0.330089	-1.048518	-0.955496
C54	C	-0.431193	-0.935298	-0.974474
C55	C	-0.431212	-0.935283	-0.897620
C56	C	-0.380672	-0.991890	-0.849706
C57	C	-0.380631	-0.991919	-1.003414
C58	C	-0.380606	-0.991932	-1.086743
C59	C	-0.380696	-0.991876	-0.766371
C60	C	-0.380789	-0.991784	-0.235006
C61	C	-0.380589	-0.991945	-0.153170
H62	H	-1.079107	-0.963310	-0.454838
Cl63	Cl	-0.494729	-0.864142	-1.034714
Cl64	Cl	-0.494774	-0.864100	-0.861240
Cl65	Cl	-0.266531	-1.119700	-0.991870
H66	H	-0.929279	-1.162341	-0.256007
Cl67	Cl	-0.495053	-0.383911	-0.553776
Cl68	Cl	-0.663454	-0.832213	-0.585508
Cl69	Cl	-1.066745	-0.909501	-0.507969
H70	H	-0.288957	-1.094597	-0.839632
Cl71	Cl	-0.973607	-0.820990	-0.596860
H72	H	-0.831500	-0.821481	-0.596325
H73	H	-0.681666	-1.020512	-0.397492
H74	H	-0.805459	-1.138518	-0.279724
Cl75	Cl	-0.694041	-1.074094	-0.344128
Cl76	Cl	-1.097335	-1.151611	-0.266809
Cl77	Cl	-0.266549	-0.426931	-0.298694
H78	H	-0.472632	-0.544581	-0.528732
H79	H	-0.288952	-0.579171	-0.323699
