data_functionalizedCrystal
_audit_creation_method	'MofGen! by Chris Wilmer'
_symmetry_space_group_name_H-M	'P1'
_symmetry_Int_Tables_number	1
_symmetry_cell_setting	triclinic
loop_
_symmetry_equiv_pos_as_xyz
  x,y,z
_cell_length_a	12.827893
_cell_length_b	18.050589
_cell_length_c	12.827885
_cell_angle_alpha	89.970449
_cell_angle_beta	89.980728
_cell_angle_gamma	90.028191
loop_
_atom_site_label
_atom_site_type_symbol
_atom_site_fract_x
_atom_site_fract_y
_atom_site_fract_z
Zn1	Zn	1.597576	-0.295624	-0.590850
Zn2	Zn	1.597431	-0.419832	-0.416111
Zn3	Zn	1.422818	-0.295660	-0.416124
Zn4	Zn	1.422764	-0.419777	-0.590811
O5	O	1.510147	-0.357723	-0.503474
O6	O	1.743793	-0.312109	-0.567682
O7	O	1.574230	-0.403399	-0.269877
O8	O	1.446083	-0.191731	-0.439323
O9	O	1.743687	-0.403364	-0.439302
O10	O	1.574478	-0.191704	-0.567694
O11	O	1.445943	-0.312170	-0.269886
O12	O	1.276575	-0.312117	-0.439286
O13	O	1.445991	-0.403269	-0.737053
O14	O	1.276535	-0.403304	-0.567628
O15	O	1.574425	-0.312055	-0.737081
O16	O	1.574178	-0.523749	-0.439264
O17	O	1.445851	-0.523709	-0.567615
C18	C	1.238638	-0.357709	-0.503454
C19	C	1.122484	-0.357721	-0.503471
C20	C	1.070708	-0.402914	-0.566880
C21	C	0.950657	-0.402927	-0.566899
C22	C	1.510021	-0.550675	-0.503457
C23	C	1.510063	-0.633221	-0.503484
C24	C	1.440347	-0.832677	-0.573257
C25	C	1.414870	-0.882124	-0.477900
C26	C	1.510166	-0.784351	-0.503498
C27	C	1.535694	-0.881986	-0.598866
C28	C	1.510263	-0.930337	-0.503520
C29	C	1.484639	-0.832712	-0.408091
C30	C	1.605506	-0.832569	-0.529120
C31	C	1.580066	-0.881994	-0.433698
C32	C	1.510107	-0.700253	-0.503487
C33	C	1.510322	-1.014433	-0.503520
C34	C	1.782718	-0.357738	-0.503495
C35	C	1.898871	-0.357745	-0.503504
C36	C	1.510219	-0.357652	-0.776045
C37	C	1.510249	-0.357622	-0.892198
C38	C	1.510303	-0.164018	-0.503515
C39	C	1.510369	-0.081472	-0.503532
C40	C	1.573809	-0.312477	-0.943997
C41	C	1.573842	-0.312444	-1.064047
C42	C	1.510137	-0.357741	-0.231964
C43	C	1.510309	-0.357562	-0.115812
H44	H	1.077936	-0.319036	-0.449201
H45	H	1.381217	-0.811021	-0.632167
C46	C	1.307500	-0.911195	-0.448803
C47	C	1.314847	-0.953852	-0.357914
C48	C	1.215956	-0.980634	-0.331080
H49	H	1.281212	-0.940933	-0.503929
H50	H	1.261722	-0.870682	-0.437108
H51	H	1.360608	-0.994360	-0.369615
H52	H	1.341117	-0.924130	-0.302769
H53	H	1.170178	-0.940121	-0.319385
H54	H	1.189676	-1.010369	-0.386212
H55	H	1.220926	-1.009574	-0.269404
C56	C	1.658999	-0.910594	-0.355043
C57	C	1.758354	-0.884364	-0.381228
C58	C	1.831085	-0.910691	-0.308786
H59	H	1.659144	-0.963215	-0.355823
H60	H	1.640801	-0.893611	-0.287355
H61	H	1.776548	-0.901351	-0.448898
H62	H	1.758243	-0.831747	-0.380440
H63	H	1.812886	-0.893708	-0.241098
H64	H	1.831220	-0.963310	-0.309572
H65	H	1.898503	-0.892892	-0.326537
H66	H	1.686069	-0.810788	-0.550818
C67	C	1.646172	-0.260930	-0.884497
C68	C	1.586971	-0.213396	-0.821818
C69	C	1.653600	-0.165908	-0.766983
H70	H	1.686081	-0.232532	-0.932440
H71	H	1.691612	-0.289364	-0.841855
H72	H	1.541550	-0.184965	-0.864456
H73	H	1.547065	-0.241774	-0.773855
H74	H	1.699039	-0.194342	-0.724342
H75	H	1.693505	-0.137515	-0.814934
H76	H	1.613442	-0.133655	-0.724443
C77	C	1.646287	-0.260931	-1.123623
C78	C	1.631890	-0.271121	-1.230850
C79	C	1.698599	-0.223670	-1.285765
H80	H	1.716547	-0.271746	-1.105916
H81	H	1.631029	-0.211010	-1.105855
H82	H	1.647155	-0.321031	-1.248611
H83	H	1.561644	-0.260300	-1.248588
H84	H	1.683341	-0.173749	-1.267997
H85	H	1.768855	-0.234489	-1.268050
H86	H	1.688833	-0.230573	-1.358524
C87	C	1.130232	-0.454374	-0.639313
C88	C	1.192966	-0.412334	-0.706310
C89	C	1.247823	-0.459715	-0.773041
H90	H	1.082302	-0.482748	-0.679199
H91	H	1.172838	-0.486654	-0.599243
H92	H	1.150364	-0.380067	-0.746376
H93	H	1.240915	-0.383962	-0.666454
H94	H	1.290428	-0.491995	-0.732971
H95	H	1.199885	-0.488087	-0.812919
H96	H	1.290401	-0.431198	-0.818500
C97	C	0.891107	-0.454440	-0.639251
C98	C	0.783875	-0.444194	-0.624910
C99	C	0.728983	-0.491629	-0.691554
H100	H	0.908787	-0.504365	-0.623919
H101	H	0.908922	-0.443631	-0.709526
H102	H	0.766068	-0.455008	-0.554650
H103	H	0.766164	-0.394279	-0.640249
H104	H	0.746798	-0.480820	-0.761830
H105	H	0.746671	-0.541552	-0.676218
H106	H	0.656221	-0.484679	-0.681840
H107	H	1.462993	-0.811157	-0.327426
C108	C	0.958360	-0.306269	-0.431048
C109	C	1.020988	-0.348297	-0.364033
C110	C	1.075823	-0.300904	-0.297283
H111	H	0.910418	-0.277907	-0.391178
H112	H	1.001036	-0.273980	-0.471104
H113	H	0.978316	-0.380573	-0.323981
H114	H	1.068950	-0.376658	-0.403875
H115	H	1.118499	-0.268615	-0.337339
H116	H	1.027873	-0.272544	-0.257419
H117	H	1.118329	-0.329413	-0.251811
H118	H	1.455894	-0.396217	-1.071273
C119	C	1.564296	-0.910745	-0.706484
C120	C	1.490903	-0.885740	-0.779182
C121	C	1.517216	-0.912207	-0.878333
H122	H	1.564732	-0.963365	-0.705708
H123	H	1.631495	-0.893026	-0.725212
H124	H	1.423721	-0.903463	-0.760459
H125	H	1.490457	-0.833123	-0.779990
H126	H	1.584416	-0.894488	-0.897061
H127	H	1.517652	-0.964826	-0.877546
H128	H	1.467430	-0.895240	-0.927672
C129	C	1.437895	-0.409224	-0.951615
C130	C	1.497105	-0.456781	-1.014250
C131	C	1.430489	-0.504336	-1.068984
H132	H	1.392412	-0.380863	-0.994283
H133	H	1.398035	-0.437595	-0.903580
H134	H	1.536948	-0.428413	-1.062279
H135	H	1.542586	-0.485158	-0.971608
H136	H	1.390628	-0.532708	-1.020950
H137	H	1.385009	-0.475969	-1.111646
H138	H	1.470653	-0.536614	-1.111481
