data_functionalizedCrystal
_audit_creation_method	'MofGen! by Chris Wilmer'
_symmetry_space_group_name_H-M	'P1'
_symmetry_Int_Tables_number	1
_symmetry_cell_setting	triclinic
loop_
_symmetry_equiv_pos_as_xyz
  x,y,z
_cell_length_a	21.295420
_cell_length_b	21.295417
_cell_length_c	12.759393
_cell_angle_alpha	89.962952
_cell_angle_beta	89.977103
_cell_angle_gamma	90.027953
loop_
_atom_site_label
_atom_site_type_symbol
_atom_site_fract_x
_atom_site_fract_y
_atom_site_fract_z
Zn1	Zn	0.962348	-0.250608	-0.594027
Zn2	Zn	0.962255	-0.355890	-0.418327
Zn3	Zn	0.857074	-0.250636	-0.418356
Zn4	Zn	0.857042	-0.355840	-0.593958
O5	O	0.909680	-0.303244	-0.506167
O6	O	1.050425	-0.264583	-0.570737
O7	O	0.948277	-0.341960	-0.271310
O8	O	0.871091	-0.162543	-0.441700
O9	O	1.050357	-0.341934	-0.441651
O10	O	0.948435	-0.162522	-0.570765
O11	O	0.871001	-0.264630	-0.271331
O12	O	0.768981	-0.264582	-0.441634
O13	O	0.871036	-0.341848	-0.740989
O14	O	0.768957	-0.341875	-0.570648
O15	O	0.948404	-0.264535	-0.741039
O16	O	0.948246	-0.443973	-0.441584
O17	O	0.870946	-0.443936	-0.570620
C18	C	0.746128	-0.303226	-0.506137
C19	C	0.676160	-0.303234	-0.506149
C20	C	0.176706	-0.343564	-0.573280
C21	C	0.242449	-0.343564	-0.573269
C22	C	0.275321	-0.303258	-0.506200
C23	C	0.242445	-0.262959	-0.439119
C24	C	0.176703	-0.262965	-0.439124
N25	N	0.378561	-0.248142	-0.498300
N26	N	0.441012	-0.248138	-0.498301
C27	C	0.473395	-0.303240	-0.506178
N28	N	0.440968	-0.358346	-0.514075
N29	N	0.378511	-0.358349	-0.514079
C30	C	0.346606	-0.303248	-0.506186
C31	C	0.577549	-0.343539	-0.573238
C32	C	0.643293	-0.343541	-0.573219
C33	C	0.643287	-0.262930	-0.439075
C34	C	0.577545	-0.262934	-0.439088
C35	C	0.544680	-0.303238	-0.506175
C36	C	0.909599	-0.466795	-0.506114
C37	C	0.909623	-0.536763	-0.506126
C38	C	0.949873	-0.569562	-0.573378
C39	C	0.949895	-0.635305	-0.573404
C40	C	0.909674	-0.668246	-0.506160
C41	C	0.869416	-0.635439	-0.438903
C42	C	0.869390	-0.569698	-0.438886
N43	N	0.904916	-0.771514	-0.414213
N44	N	0.904944	-0.833965	-0.414231
C45	C	0.909747	-0.866320	-0.506207
N46	N	0.914534	-0.833865	-0.598165
N47	N	0.914509	-0.771408	-0.598145
C48	C	0.909697	-0.739531	-0.506170
C49	C	0.950023	-0.970405	-0.573493
C50	C	0.950041	-1.036149	-0.573520
C51	C	0.869566	-1.036281	-0.439010
C52	C	0.869545	-0.970539	-0.438991
C53	C	0.909777	-0.937605	-0.506231
C54	C	1.073870	-0.303261	-0.506198
C55	C	1.143838	-0.303269	-0.506211
C56	C	0.909727	-0.303183	-0.780201
C57	C	0.909747	-0.303157	-0.896977
C58	C	0.909777	-0.139053	-0.506244
C59	C	0.909819	-0.069085	-0.506276
C60	C	0.950035	-0.262894	-0.951867
C61	C	0.950046	-0.262867	-1.061592
C62	C	0.869478	-0.343372	-1.061526
C63	C	0.869465	-0.343396	-0.951804
C64	C	0.972601	-0.188598	-1.211585
C65	C	1.012899	-0.148340	-1.266479
C66	C	1.074324	-0.138690	-1.230893
C67	C	1.095462	-0.169308	-1.140415
C68	C	1.055167	-0.209571	-1.085527
C69	C	0.993734	-0.219209	-1.121111
C70	C	0.846916	-0.417665	-0.801808
C71	C	0.806624	-0.457932	-0.746918
C72	C	0.745198	-0.467587	-0.782502
C73	C	0.724062	-0.436980	-0.872984
C74	C	0.764354	-0.396714	-0.927874
C75	C	0.825779	-0.387057	-0.892282
C76	C	0.909669	-0.303258	-0.233200
C77	C	0.909771	-0.303107	-0.116424
H78	H	0.550783	-0.230119	-0.384477
F79	F	0.658687	-0.447258	-0.910861
F80	F	1.160843	-0.159044	-1.102557
F81	F	0.542569	-0.386436	-0.644632
H82	H	0.670053	-0.376359	-0.627832
H83	H	0.836772	-0.943832	-0.384224
F84	F	0.702321	-0.510454	-0.724091
F85	F	0.992905	-0.220067	-0.893521
H86	H	1.072379	-0.234502	-1.011864
H87	H	0.670051	-0.230113	-0.384463
F88	F	1.117211	-0.095846	-1.289320
F89	F	0.829123	-0.490512	-0.650625
H90	H	0.896932	-0.409802	-0.772822
H91	H	0.269213	-0.230142	-0.384510
F92	F	0.826612	-0.386196	-1.119886
H93	H	0.995683	-0.123411	-1.340146
F94	F	0.907223	-0.198857	-1.249457
F95	F	0.992688	-0.534515	-0.644947
H96	H	0.982666	-0.662015	-0.628181
F97	F	0.826607	-0.670498	-0.367341
F98	F	0.741857	-0.364139	-1.024173
H99	H	0.149951	-0.376385	-0.627903
H100	H	0.269215	-0.376378	-0.627887
H101	H	0.149942	-0.230149	-0.384509
F102	F	0.826548	-0.534789	-0.367305
F103	F	0.992839	-0.935351	-0.645058
H104	H	0.982817	-1.062852	-0.628290
H105	H	0.836813	-1.063101	-0.384264
