data_functionalizedCrystal
_audit_creation_method	'MofGen! by Chris Wilmer'
_symmetry_space_group_name_H-M	'P1'
_symmetry_Int_Tables_number	1
_symmetry_cell_setting	triclinic
loop_
_symmetry_equiv_pos_as_xyz
  x,y,z
_cell_length_a	14.519709
_cell_length_b	14.519731
_cell_length_c	7.681481
_cell_angle_alpha	84.245782
_cell_angle_beta	95.739713
_cell_angle_gamma	83.684499
loop_
_atom_site_label
_atom_site_type_symbol
_atom_site_fract_x
_atom_site_fract_y
_atom_site_fract_z
O1	O	1.215185	0.129594	-0.146206
O2	O	0.946706	0.143833	-0.146261
O3	O	1.088055	0.002475	-0.146216
O4	O	1.073837	0.270951	-0.146251
O5	O	1.105452	-0.014963	0.146647
O6	O	0.964104	0.126395	0.146603
O7	O	1.232583	0.112155	0.146657
Zn8	Zn	1.101106	0.116506	0.193128
Zn9	Zn	1.078183	0.139482	-0.192732
O10	O	1.091234	0.253513	0.146612
C11	C	0.921045	0.134451	0.000164
C12	C	0.818662	0.132464	0.000144
C13	C	1.096087	-0.040603	0.000216
C14	C	1.094091	-0.142984	0.000217
C15	C	0.443771	0.125140	0.000225
C16	C	0.548077	0.127174	0.000202
C17	C	0.631213	0.128802	0.000183
C18	C	0.735526	0.130836	0.000163
C19	C	1.092469	-0.226128	0.000212
C20	C	1.090442	-0.330435	0.000198
C21	C	1.088833	-0.413574	0.000187
C22	C	1.086806	-0.517889	0.000176
C23	C	1.258244	0.121538	0.000228
C24	C	1.360626	0.123525	0.000237
C25	C	1.083201	0.296592	0.000177
C26	C	1.085197	0.398973	0.000164
N27	N	1.116756	0.100826	0.456467
N28	N	1.062540	0.155156	-0.456071
H29	H	1.007197	0.210610	0.468715
H30	H	1.172110	0.045374	0.531691
