data_functionalizedCrystal
_audit_creation_method	'MofGen! by Chris Wilmer'
_symmetry_space_group_name_H-M	'P1'
_symmetry_Int_Tables_number	1
_symmetry_cell_setting	triclinic
loop_
_symmetry_equiv_pos_as_xyz
  x,y,z
_cell_length_a	15.944551
_cell_length_b	15.944551
_cell_length_c	14.421503
_cell_angle_alpha	89.996660
_cell_angle_beta	89.996859
_cell_angle_gamma	96.501262
loop_
_atom_site_label
_atom_site_type_symbol
_atom_site_fract_x
_atom_site_fract_y
_atom_site_fract_z
O1	O	1.114529	-0.108320	-0.077017
O2	O	0.869980	-0.121677	-0.077040
O3	O	0.998933	0.007276	-0.077020
O4	O	0.985576	-0.237273	-0.077038
O5	O	0.998911	0.007257	0.077204
O6	O	0.869958	-0.121696	0.077183
O7	O	1.114508	-0.108340	0.077206
Cu8	Cu	0.992231	-0.115020	0.091277
Cu9	Cu	0.992256	-0.114997	-0.091110
O10	O	0.985555	-0.237293	0.077186
C11	C	0.838675	-0.121132	0.000069
C12	C	0.745429	-0.119470	0.000060
C13	C	0.530572	-0.035565	0.000084
C14	C	0.469563	-0.074518	-0.075959
C15	C	0.574703	-0.116462	0.000071
C16	C	0.469564	-0.074556	0.076093
C17	C	0.409790	-0.113551	0.000086
C18	C	0.514922	-0.155437	-0.076035
C19	C	0.514929	-0.155464	0.076086
C20	C	0.453937	-0.194476	0.000024
C21	C	0.669705	-0.118137	0.000062
C22	C	0.314789	-0.111883	0.000089
C23	C	0.998367	0.038561	0.000092
C24	C	0.996705	0.131807	0.000093
C25	C	1.145813	-0.108885	0.000096
C26	C	1.239059	-0.110547	0.000098
C27	C	0.986120	-0.268577	0.000072
C28	C	0.987782	-0.361823	0.000066
N29	N	0.992219	-0.115035	0.219558
C30	C	0.912801	0.346663	0.000072
C31	C	0.951753	0.407671	0.076117
C32	C	0.993698	0.302533	0.000085
C33	C	0.951793	0.407674	-0.075935
C34	C	0.990787	0.467445	0.000074
C35	C	1.032672	0.362312	0.076193
C36	C	1.032701	0.362308	-0.075927
C37	C	1.071711	0.423298	0.000136
C38	C	0.995372	0.207530	0.000092
C39	C	0.989119	0.562446	0.000073
N40	N	0.992275	-0.114975	-0.219392
C41	C	0.932581	-0.174636	0.469202
C42	C	1.008481	-0.190943	0.531011
C43	C	0.992240	-0.115015	0.408719
C44	C	0.916359	-0.098727	0.531005
C45	C	0.992253	-0.114997	0.591441
C46	C	1.068178	-0.131360	0.469167
C47	C	0.976007	-0.039111	0.469156
C48	C	1.051961	-0.055386	0.530936
C49	C	0.992231	-0.115027	0.303458
C50	C	0.992270	-0.114985	0.696700
H51	H	0.449469	-0.040333	0.140379
H52	H	0.845652	0.313356	0.000141
O53	O	0.538923	-0.196136	0.152871
C54	C	0.516060	-0.153286	0.232893
H55	H	0.509296	-0.084803	0.214680
H56	H	0.566982	-0.155344	0.288071
H57	H	0.453418	-0.185060	0.260637
H58	H	0.882181	-0.225096	0.442096
O59	O	0.414276	-0.274611	-0.000151
C60	C	0.362909	-0.286919	-0.079663
H61	H	0.346551	-0.223295	-0.105842
H62	H	0.302388	-0.328746	-0.061390
H63	H	0.398248	-0.318669	-0.136052
H64	H	1.022224	-0.255126	0.558180
O65	O	0.538859	-0.196293	-0.152723
C66	C	0.578893	-0.266830	-0.125596
H67	H	0.604642	-0.256735	-0.052213
H68	H	0.633055	-0.274925	-0.175211
H69	H	0.531355	-0.325866	-0.127429
H70	H	1.066897	0.342186	-0.140214
O71	O	0.570451	0.044483	0.000049
C72	C	0.658536	0.041835	0.000844
H73	H	0.673160	-0.021163	0.030526
H74	H	0.689714	0.095492	0.045607
H75	H	0.683963	0.049034	-0.072956
O76	O	0.959689	0.037502	0.436818
C77	C	1.021862	0.100425	0.469618
H78	H	1.051788	0.077160	0.535188
H79	H	0.991569	0.160152	0.485917
H80	H	1.072501	0.114846	0.414275
O81	O	0.910791	0.431600	0.152738
C82	C	0.827048	0.392180	0.152474
H83	H	0.807564	0.373942	0.078475
H84	H	0.783221	0.437626	0.181195
H85	H	0.822641	0.333098	0.197540
H86	H	0.852183	-0.084959	0.558170
H87	H	1.138919	0.456457	0.000186
H88	H	0.449461	-0.040294	-0.140243
O89	O	1.073390	0.338314	0.152950
C90	C	1.074450	0.250016	0.152036
H91	H	1.020536	0.219826	0.106965
H92	H	1.066497	0.224557	0.225762
H93	H	1.137171	0.234266	0.122645
H94	H	1.132368	-0.145205	0.442119
O95	O	0.910860	0.431532	-0.152606
C96	C	0.827107	0.392138	-0.152310
H97	H	0.823074	0.332734	-0.107793
H98	H	0.806983	0.374437	-0.226263
H99	H	0.783538	0.437385	-0.122637
O100	O	1.112327	0.004687	0.563037
C101	C	1.192179	-0.012785	0.531337
H102	H	1.189780	-0.082789	0.514090
H103	H	1.241287	0.004126	0.587735
H104	H	1.210040	0.026178	0.466556
