data_functionalizedCrystal
_audit_creation_method	'MofGen! by Chris Wilmer'
_symmetry_space_group_name_H-M	'P1'
_symmetry_Int_Tables_number	1
_symmetry_cell_setting	triclinic
loop_
_symmetry_equiv_pos_as_xyz
  x,y,z
_cell_length_a	30.700570
_cell_length_b	30.706268
_cell_length_c	30.700862
_cell_angle_alpha	89.994898
_cell_angle_beta	59.995488
_cell_angle_gamma	119.983035
loop_
_atom_site_label
_atom_site_type_symbol
_atom_site_fract_x
_atom_site_fract_y
_atom_site_fract_z
O1	O	0.384278	-0.298745	-0.012967
O2	O	0.295069	-0.235416	0.012889
O3	O	0.384259	-0.235423	-0.076307
O4	O	0.295088	-0.298738	0.076229
O5	O	0.311833	-0.307840	-0.076305
O6	O	0.222643	-0.307834	0.012891
O7	O	0.311852	-0.371162	-0.012965
Zn8	Zn	0.255749	-0.350996	-0.000037
Zn9	Zn	0.351173	-0.255583	-0.000039
O10	O	0.222662	-0.371156	0.076231
C11	C	0.071428	-0.110289	0.039192
C12	C	0.097376	-0.057885	0.039559
C13	C	-0.007449	-0.110291	0.039191
C14	C	0.018619	-0.057888	0.039558
C15	C	0.071400	-0.031441	0.039189
C16	C	0.018647	-0.136616	0.039560
C17	C	0.133921	-0.238006	0.024915
C18	C	0.162795	-0.262998	0.020879
C19	C	0.216760	-0.236054	0.018852
C20	C	0.248076	-0.263146	0.014465
C21	C	0.241847	-0.184118	0.020866
C22	C	0.212968	-0.159133	0.024910
C23	C	0.159003	-0.186079	0.026934
C24	C	0.213379	0.158703	0.024906
C25	C	0.242399	0.212550	0.020867
C26	C	0.217468	0.239563	0.018837
C27	C	0.248933	0.297948	0.014450
C28	C	0.163508	0.212723	0.020852
C29	C	0.134483	0.158876	0.024900
C30	C	0.159428	0.131870	0.026924
C31	C	-0.183334	-0.238017	0.024911
C32	C	-0.233149	-0.263009	0.020867
C33	C	-0.258154	-0.236067	0.018839
C34	C	-0.312164	-0.263162	0.014451
C35	C	-0.233339	-0.184133	0.020851
C36	C	-0.183524	-0.159143	0.024893
C37	C	-0.158529	-0.186092	0.026928
C38	C	0.127697	-0.158981	0.031314
C39	C	0.102740	-0.137382	0.034807
C40	C	-0.061460	-0.137388	0.034805
C41	C	-0.104513	-0.158988	0.031311
C42	C	0.102869	0.026944	0.034803
C43	C	0.127954	0.073483	0.031308
O44	O	-0.329837	-0.307854	0.012883
O45	O	-0.456487	-0.371174	-0.012980
O46	O	-0.456506	-0.371173	0.076218
O47	O	-0.329818	-0.307854	-0.076316
O48	O	-0.456533	-0.298754	0.076218
O49	O	-0.456514	-0.298755	-0.012981
O50	O	-0.329864	-0.235435	0.012882
Zn51	Zn	-0.393193	-0.255597	-0.000050
Zn52	Zn	-0.393158	-0.351012	-0.000049
O53	O	-0.329845	-0.235435	-0.076316
C54	C	0.535707	-0.110297	-0.503947
C55	C	0.588482	-0.057896	-0.530283
C56	C	0.535707	-0.110297	-0.425071
C57	C	0.588482	-0.057897	-0.451527
C58	C	0.614561	-0.031452	-0.503948
C59	C	0.509748	-0.136622	-0.451526
C60	C	0.393699	-0.238010	-0.552110
C61	C	0.364667	-0.263002	-0.576936
C62	C	0.389585	-0.236060	-0.628883
C63	C	0.358103	-0.263151	-0.655800
C64	C	0.443540	-0.184126	-0.656004
C65	C	0.472572	-0.159142	-0.631180
C66	C	0.447649	-0.186086	-0.579231
C67	C	0.790437	0.158684	-0.631713
C68	C	0.840249	0.212529	-0.656715
C69	C	0.865236	0.239542	-0.629765
C70	C	0.919239	0.297925	-0.656865
C71	C	0.840410	0.212704	-0.577811
C72	C	0.790607	0.158859	-0.552814
C73	C	0.765620	0.131853	-0.579771
C74	C	0.393698	-0.238011	-0.234860
C75	C	0.364662	-0.263000	-0.180992
C76	C	0.389579	-0.236059	-0.153971
C77	C	0.358097	-0.263150	-0.095563
C78	C	0.443529	-0.184128	-0.180818
C79	C	0.472561	-0.159141	-0.234684
C80	C	0.447644	-0.186089	-0.261703
C81	C	0.479131	-0.158988	-0.552316
C82	C	0.504225	-0.137391	-0.530862
C83	C	0.504225	-0.137391	-0.366666
C84	C	0.479130	-0.158989	-0.320110
C85	C	0.668564	0.026931	-0.531053
C86	C	0.711612	0.073468	-0.552660
C87	C	0.469727	-0.371839	-0.018860
C88	C	0.523477	-0.344972	-0.015163
C89	C	0.443656	-0.424242	-0.019229
C90	C	0.390850	-0.371835	-0.018854
C91	C	0.360264	-0.344963	-0.015151
C92	C	0.364898	-0.424237	-0.019223
C93	C	0.390873	-0.450685	-0.018857
C94	C	0.360312	-0.508121	-0.015159
C95	C	0.443633	-0.345511	-0.019225
O96	O	0.311899	0.469679	-0.012976
O97	O	0.222761	0.317200	0.012874
O98	O	0.311925	0.406352	-0.076319
O99	O	0.222735	0.380526	0.076217
O100	O	0.384372	0.406354	-0.076318
O101	O	0.295208	0.317202	0.012875
O102	O	0.384346	0.469681	-0.012975
Zn103	Zn	0.351279	0.393441	-0.000050
Zn104	Zn	0.255828	0.393439	-0.000051
O105	O	0.295182	0.380528	0.076218
O106	O	1.063560	0.469651	-0.692465
O107	O	0.936917	0.317176	-0.629125
O108	O	0.936891	0.406337	-0.629118
O109	O	1.063586	0.380490	-0.692471
O110	O	0.936893	0.406339	-0.701565
O111	O	0.936919	0.317178	-0.701571
O112	O	1.063562	0.469653	-0.764911
Zn113	Zn	1.000241	0.393416	-0.744744
Zn114	Zn	1.000238	0.393413	-0.649293
O115	O	1.063588	0.380492	-0.764918
O116	O	0.295085	-0.298741	-0.764562
O117	O	0.384260	-0.235422	-0.701225
O118	O	0.295068	-0.235417	-0.701217
O119	O	0.384277	-0.298746	-0.764570
O120	O	0.222644	-0.307834	-0.628770
O121	O	0.311835	-0.307838	-0.628778
O122	O	0.222661	-0.371158	-0.692115
Zn123	Zn	0.255749	-0.350996	-0.648944
Zn124	Zn	0.351171	-0.255584	-0.744396
O125	O	0.311852	-0.371162	-0.692123
C126	C	0.137257	-0.450669	0.234771
C127	C	0.083516	-0.508103	0.261649
C128	C	0.163336	-0.424225	0.261106
C129	C	0.216112	-0.371824	0.155894
C130	C	0.246682	-0.344955	0.098438
C131	C	0.242070	-0.345499	0.182349
C132	C	0.216111	-0.371825	0.234771
C133	C	0.246680	-0.344957	0.261649
C134	C	0.163337	-0.424224	0.182349
C135	C	-0.609188	-0.371843	0.234757
C136	C	-0.639781	-0.344976	0.261636
C137	C	-0.635138	-0.424245	0.261091
C138	C	-0.530299	-0.371842	0.155881
C139	C	-0.476543	-0.344973	0.098426
C140	C	-0.556369	-0.424244	0.182335
C141	C	-0.609157	-0.450690	0.234756
C142	C	-0.639716	-0.508125	0.261633
C143	C	-0.556400	-0.345517	0.182336
C144	C	0.216189	0.374676	0.234756
C145	C	0.246766	0.378378	0.261634
C146	C	0.163400	0.374313	0.261090
C147	C	0.216188	0.374661	0.155881
C148	C	0.246764	0.378348	0.098425
C149	C	0.163399	0.374298	0.182334
C150	C	0.137314	0.374676	0.234754
C151	C	0.083556	0.378380	0.261631
C152	C	0.242155	0.374298	0.182336
C153	C	0.071476	-0.031797	-0.503952
C154	C	0.097457	-0.058242	-0.530287
C155	C	-0.007382	-0.110645	-0.425077
C156	C	0.018719	-0.136970	-0.451532
C157	C	0.071507	-0.110644	-0.503953
C158	C	0.018688	-0.058243	-0.451532
C159	C	0.133854	0.158342	-0.552114
C160	C	0.162701	0.212187	-0.576940
C161	C	0.216673	0.239199	-0.628886
C162	C	0.247959	0.297585	-0.655802
C163	C	0.241793	0.212361	-0.656006
C164	C	0.212941	0.158517	-0.631183
C165	C	0.158970	0.131508	-0.579235
C166	C	0.213589	-0.158790	-0.631714
C167	C	0.242642	-0.183607	-0.656715
C168	C	0.217737	-0.235532	-0.629766
C169	C	0.249236	-0.262442	-0.656865
C170	C	0.163770	-0.262643	-0.577813
C171	C	0.134713	-0.237831	-0.552816
C172	C	0.159632	-0.185898	-0.579773
C173	C	-0.183324	-0.158793	-0.234869
C174	C	-0.233146	-0.183608	-0.181001
C175	C	-0.258125	-0.235536	-0.153980
C176	C	-0.312144	-0.262444	-0.095573
C177	C	-0.233277	-0.262644	-0.180827
C178	C	-0.183454	-0.237826	-0.234692
C179	C	-0.158485	-0.185901	-0.261711
C180	C	0.127692	0.073124	-0.552320
C181	C	0.102758	0.026586	-0.530867
C182	C	-0.061401	-0.137551	-0.366673
C183	C	-0.104461	-0.158997	-0.320118
C184	C	0.103011	-0.137549	-0.531056
C185	C	0.128123	-0.158995	-0.552662
O186	O	-0.704818	-0.682802	0.298763
O187	O	-0.615676	-0.530325	0.235422
O188	O	-0.704828	-0.619482	0.235413
O189	O	-0.615666	-0.593644	0.298772
O190	O	-0.777285	-0.619481	0.307857
O191	O	-0.688133	-0.530324	0.307867
O192	O	-0.777274	-0.682801	0.371207
Zn193	Zn	-0.744207	-0.606562	0.351039
Zn194	Zn	-0.648743	-0.606563	0.255591
O195	O	-0.688122	-0.593644	0.371217
C196	C	0.614377	0.432573	-0.503952
C197	C	0.588289	0.432935	-0.530287
C198	C	0.535501	0.432587	-0.425078
C199	C	0.509533	0.432949	-0.451533
C200	C	0.535499	0.432571	-0.503953
C201	C	0.588291	0.432951	-0.451532
C202	C	0.790311	0.418293	-0.552112
C203	C	0.840141	0.414253	-0.576937
C204	C	0.865135	0.412217	-0.628883
C205	C	0.919156	0.407827	-0.655799
C206	C	0.840300	0.414226	-0.656003
C207	C	0.790480	0.418273	-0.631181
C208	C	0.765486	0.420306	-0.579233
C209	C	0.473055	0.418268	-0.631715
C210	C	0.444191	0.414225	-0.656715
C211	C	0.390217	0.412201	-0.629766
C212	C	0.358912	0.407810	-0.656865
C213	C	0.365113	0.414225	-0.577814
C214	C	0.393981	0.418277	-0.552818
C215	C	0.447954	0.420294	-0.579774
C216	C	0.473063	0.418348	-0.234870
C217	C	0.444197	0.414315	-0.181003
C218	C	0.390223	0.412293	-0.153983
C219	C	0.358920	0.407918	-0.095576
C220	C	0.365117	0.414299	-0.180829
C221	C	0.393983	0.418330	-0.234694
C222	C	0.447961	0.420359	-0.261712
C223	C	0.711460	0.424689	-0.552319
C224	C	0.668398	0.428185	-0.530866
C225	C	0.504202	0.428214	-0.366674
C226	C	0.479255	0.424730	-0.320119
C227	C	0.504199	0.428180	-0.531057
C228	C	0.479250	0.424682	-0.552663
H229	H	-0.003167	-0.179672	0.040153
O230	O	-0.685755	-0.449558	0.312502
C231	C	-0.672013	-0.464343	0.344947
H232	H	-0.620157	-0.437731	0.324790
H233	H	-0.688318	-0.507720	0.351008
C234	C	-0.768720	-0.490533	0.424186
C235	C	-0.705029	-0.457845	0.399431
H236	H	-0.789088	-0.486527	0.457796
H237	H	-0.777979	-0.480574	0.402328
H238	H	-0.782299	-0.526678	0.429232
H239	H	-0.691451	-0.421701	0.394379
H240	H	-0.695769	-0.467798	0.421290
H241	H	0.516501	-0.116860	-0.653266
O242	O	0.312297	-0.313468	-0.154879
C243	C	0.322139	-0.347127	-0.135881
H244	H	0.361689	-0.322247	-0.131780
H245	H	0.334173	-0.368749	-0.165189
C246	C	0.214630	-0.418853	-0.086114
C247	C	0.263203	-0.388295	-0.081073
H248	H	0.178276	-0.444249	-0.052307
H249	H	0.208000	-0.396177	-0.098914
H250	H	0.224667	-0.436866	-0.110539
H251	H	0.253170	-0.370277	-0.056654
H252	H	0.269831	-0.410969	-0.068267
H253	H	0.517017	0.420004	-0.256867
H254	H	0.141507	-0.445457	0.161112
H255	H	-0.253620	-0.304929	-0.158824
O256	O	0.295006	-0.157327	-0.707209
C257	C	0.285209	-0.186157	-0.740882
H258	H	0.233825	-0.212872	-0.722747
H259	H	0.303182	-0.211775	-0.745416
C260	C	0.382752	-0.114145	-0.818312
C261	C	0.319641	-0.146953	-0.796041
H262	H	0.403993	-0.089962	-0.852338
H263	H	0.389353	-0.094722	-0.795626
H264	H	0.397721	-0.135499	-0.822086
H265	H	0.304672	-0.125599	-0.792262
H266	H	0.313038	-0.166371	-0.818728
O267	O	0.469744	-0.449570	-0.020038
C268	C	0.487375	-0.464350	-0.066229
H269	H	0.493832	-0.437719	-0.097920
H270	H	0.450043	-0.507719	-0.055974
C271	C	0.540412	-0.490592	-0.048805
C272	C	0.548348	-0.457880	-0.087730
H273	H	0.578022	-0.486603	-0.062067
H274	H	0.528532	-0.480636	-0.017684
H275	H	0.509300	-0.526730	-0.040263
H276	H	0.579454	-0.421742	-0.096267
H277	H	0.560235	-0.467829	-0.118853
O278	O	0.137453	0.373659	0.156920
C279	C	0.180485	0.419353	0.110952
H280	H	0.229112	0.435087	0.097717
H281	H	0.172005	0.451388	0.120369
C282	C	0.113538	0.385417	0.082151
C283	C	0.173262	0.404738	0.065893
H284	H	0.109081	0.376403	0.054357
H285	H	0.084545	0.354632	0.113121
H286	H	0.106478	0.412115	0.089999
H287	H	0.180318	0.378037	0.058052
H288	H	0.202256	0.435518	0.034920
O289	O	0.082252	-0.264247	-0.502380
C290	C	0.036382	-0.311183	-0.501344
H291	H	0.059030	-0.323576	-0.536330
H292	H	0.005207	-0.303529	-0.504542
C293	C	-0.030023	-0.340830	-0.405661
C294	C	-0.002206	-0.356054	-0.448629
H295	H	-0.053828	-0.368508	-0.373143
H296	H	0.000879	-0.309208	-0.406358
H297	H	-0.055998	-0.334452	-0.408333
H298	H	0.023774	-0.362425	-0.445959
H299	H	-0.033105	-0.387678	-0.447929
O300	O	0.312646	0.412198	-0.551553
C301	C	0.266667	0.367367	-0.504600
H302	H	0.289208	0.355030	-0.492050
H303	H	0.235610	0.333007	-0.512336
C304	C	0.200259	0.396627	-0.475229
C305	C	0.227946	0.381477	-0.459812
H306	H	0.176372	0.405329	-0.447602
H307	H	0.231235	0.426830	-0.506863
H308	H	0.174383	0.367991	-0.481676
H309	H	0.253827	0.410114	-0.453372
H310	H	0.196973	0.351279	-0.428176
O311	O	-0.530225	-0.449521	0.157018
C312	C	-0.469262	-0.420972	0.142238
H313	H	-0.464213	-0.395732	0.168862
H314	H	-0.436133	-0.393912	0.098843
C315	C	-0.460443	-0.491434	0.116047
C316	C	-0.454244	-0.460437	0.148750
H317	H	-0.451178	-0.515777	0.120061
H318	H	-0.501514	-0.510667	0.126003
H319	H	-0.432835	-0.468879	0.079887
H320	H	-0.481857	-0.482991	0.184909
H321	H	-0.413177	-0.441208	0.138801
H322	H	-0.534612	-0.302475	0.161086
H323	H	0.285735	0.234357	-0.698301
H324	H	-0.162985	-0.259963	0.026567
O325	O	0.137441	0.373726	0.312436
C326	C	0.180494	0.419423	0.315338
H327	H	0.216457	0.451925	0.274533
H328	H	0.204106	0.408919	0.328077
C329	C	0.102875	0.399703	0.406538
C330	C	0.147043	0.439624	0.356421
H331	H	0.082242	0.412163	0.431882
H332	H	0.073870	0.368915	0.404584
H333	H	0.122559	0.390953	0.417147
H334	H	0.127358	0.448368	0.345811
H335	H	0.176044	0.470414	0.358374
O336	O	0.292881	0.373660	0.157025
C337	C	0.341503	0.419362	0.154347
H338	H	0.321843	0.435103	0.187235
H339	H	0.372586	0.451388	0.113829
C340	C	0.403333	0.385428	0.121337
C341	C	0.379185	0.404759	0.161733
H342	H	0.426579	0.376421	0.125890
H343	H	0.370576	0.354638	0.123139
H344	H	0.429231	0.412119	0.087575
H345	H	0.353282	0.378066	0.195493
H346	H	0.411939	0.435544	0.159937
H347	H	-0.003108	-0.180028	-0.430294
H348	H	0.610127	0.433526	-0.573360
O349	O	0.081487	-0.264269	0.026905
C350	C	0.065545	-0.315459	0.024251
H351	H	0.087122	-0.327864	0.038123
H352	H	0.083310	-0.314650	-0.018633
C353	C	-0.031516	-0.340480	0.043504
C354	C	-0.005018	-0.355716	0.060546
H355	H	-0.075042	-0.365312	0.065890
H356	H	-0.020774	-0.305991	0.045290
H357	H	-0.016705	-0.339805	0.007767
H358	H	-0.019823	-0.356384	0.096279
H359	H	-0.015764	-0.390206	0.058766
H360	H	0.233395	0.136669	-0.653268
O361	O	0.148152	-0.032827	-0.581660
C362	C	0.165564	0.019192	-0.599337
H363	H	0.146891	0.032220	-0.563462
H364	H	0.145939	0.019650	-0.622400
C365	C	0.259256	0.041796	-0.680017
C366	C	0.236325	0.057799	-0.635954
H367	H	0.302904	0.065611	-0.702606
H368	H	0.247524	0.006750	-0.668109
H369	H	0.242895	0.042178	-0.699229
H370	H	0.252680	0.057410	-0.616739
H371	H	0.248061	0.092846	-0.647860
O372	O	-0.007308	-0.032845	-0.426276
C373	C	0.027056	0.019183	-0.460875
H374	H	0.053784	0.020818	-0.503974
H375	H	0.060667	0.048514	-0.452059
C376	C	-0.049744	0.032175	-0.399421
C377	C	-0.016920	0.034183	-0.452357
H378	H	-0.076869	0.041429	-0.394166
H379	H	-0.072895	-0.002877	-0.376110
H380	H	-0.021728	0.056618	-0.392081
H381	H	-0.044935	0.009736	-0.459694
H382	H	0.006225	0.069231	-0.475669
O383	O	0.292692	-0.294117	0.157095
C384	C	0.278920	-0.261694	0.185631
H385	H	0.238450	-0.287244	0.228920
H386	H	0.266351	-0.241967	0.166950
C387	C	0.385230	-0.187030	0.130394
C388	C	0.335527	-0.218411	0.183563
H389	H	0.420148	-0.160329	0.129116
H390	H	0.394508	-0.208873	0.111167
H391	H	0.374747	-0.170596	0.114832
H392	H	0.346007	-0.234850	0.199122
H393	H	0.326252	-0.196569	0.202793
H394	H	0.373538	0.419926	-0.510519
O395	O	0.139186	0.238871	0.018915
C396	C	0.085349	0.203641	0.021548
H397	H	0.065630	0.160796	0.041187
H398	H	0.096983	0.209180	-0.020480
C399	C	0.061679	0.268171	0.030547
C400	C	0.037458	0.215550	0.054673
H401	H	0.032138	0.275518	0.050978
H402	H	0.097952	0.291908	0.028771
H403	H	0.071374	0.272781	-0.004475
H404	H	0.027771	0.210943	0.089692
H405	H	0.001182	0.191812	0.056455
H406	H	0.141500	-0.445456	0.304181
O407	O	0.139582	-0.313109	-0.551712
C408	C	0.125039	-0.346669	-0.580654
H409	H	0.153972	-0.321690	-0.624269
H410	H	0.074092	-0.368397	-0.563354
C411	C	0.103353	-0.418402	-0.523156
C412	C	0.138893	-0.387722	-0.576725
H413	H	0.111896	-0.443727	-0.520731
H414	H	0.113149	-0.395793	-0.503655
H415	H	0.060900	-0.436503	-0.508745
H416	H	0.181344	-0.369616	-0.591133
H417	H	0.129105	-0.410329	-0.596228
O418	O	0.314279	-0.449601	-0.020001
C419	C	0.328068	-0.464356	-0.066206
H420	H	0.368540	-0.467174	-0.081110
H421	H	0.340642	-0.433110	-0.098506
C422	C	0.221766	-0.515414	-0.034607
C423	C	0.271471	-0.518879	-0.052910
H424	H	0.186854	-0.549045	-0.026407
H425	H	0.212476	-0.505472	-0.003479
H426	H	0.232252	-0.489373	-0.061527
H427	H	0.260987	-0.544914	-0.025989
H428	H	0.280759	-0.528827	-0.084034
O429	O	0.469655	-0.294123	-0.020002
C430	C	0.487313	-0.261708	-0.066203
H431	H	0.458933	-0.287259	-0.081106
H432	H	0.538282	-0.242005	-0.098506
C433	C	0.510944	-0.187017	-0.034600
C434	C	0.476084	-0.218399	-0.052902
H435	H	0.504021	-0.160300	-0.026397
H436	H	0.499050	-0.208854	-0.003474
H437	H	0.553415	-0.170602	-0.061522
H438	H	0.433613	-0.234817	-0.025978
H439	H	0.487970	-0.196562	-0.084023
H440	H	-0.253372	-0.161532	-0.159146
O441	O	0.614429	0.433689	-0.426278
C442	C	0.666698	0.433907	-0.460877
H443	H	0.684702	0.450265	-0.503976
H444	H	0.653619	0.391486	-0.452058
C445	C	0.695031	0.449258	-0.399430
C446	C	0.717146	0.469354	-0.452365
H447	H	0.726149	0.471122	-0.394178
H448	H	0.659815	0.449110	-0.376118
H449	H	0.684132	0.413908	-0.392087
H450	H	0.728037	0.504701	-0.459705
H451	H	0.752365	0.469510	-0.475677
O452	O	-0.159117	-0.108340	-0.261027
C453	C	-0.191735	-0.089736	-0.225785
H454	H	-0.214959	-0.112858	-0.182923
H455	H	-0.228209	-0.095817	-0.231335
C456	C	-0.118195	-0.001568	-0.290335
C457	C	-0.146716	-0.029964	-0.237691
H458	H	-0.090426	0.035303	-0.297681
H459	H	-0.096221	-0.014101	-0.314080
H460	H	-0.148596	-0.006641	-0.294954
H461	H	-0.116315	-0.024896	-0.233075
H462	H	-0.168683	-0.017428	-0.213947
O463	O	0.082011	0.132758	0.026952
C464	C	0.033881	0.089472	0.075116
H465	H	0.044747	0.097167	0.105939
H466	H	0.029041	0.051385	0.067818
C467	C	-0.040180	0.073793	0.058092
C468	C	-0.026836	0.083246	0.095951
H469	H	-0.077634	0.069950	0.070943
H470	H	-0.007754	0.102954	0.025642
H471	H	-0.044209	0.042054	0.052014
H472	H	-0.022799	0.114987	0.102023
H473	H	-0.059263	0.054090	0.128402
H474	H	0.769967	0.419951	-0.509815
H475	H	0.089908	0.136355	-0.509817
O476	O	0.138239	0.238183	-0.550510
C477	C	0.084411	0.202795	-0.499343
H478	H	0.086028	0.168873	-0.487079
H479	H	0.042339	0.185802	-0.500152
C480	C	0.078275	0.274583	-0.473989
C481	C	0.080264	0.232921	-0.458924
H482	H	0.075715	0.293166	-0.449056
H483	H	0.114539	0.298425	-0.508461
H484	H	0.043215	0.260416	-0.474663
H485	H	0.115328	0.247089	-0.458256
H486	H	0.044006	0.209082	-0.424450
O487	O	0.237855	-0.108355	-0.657985
C488	C	0.291719	-0.089746	-0.709192
H489	H	0.290276	-0.125177	-0.721604
H490	H	0.333777	-0.064635	-0.708374
C491	C	0.297469	-0.011961	-0.734221
C492	C	0.295693	-0.055478	-0.749468
H493	H	0.299922	0.009179	-0.759065
H494	H	0.261181	-0.024497	-0.699721
H495	H	0.332517	0.008959	-0.733540
H496	H	0.260641	-0.076400	-0.750143
H497	H	0.331975	-0.042944	-0.783969
H498	H	0.770098	0.136698	-0.653667
O499	O	-0.159412	-0.264244	-0.260697
C500	C	-0.192132	-0.315393	-0.225296
H501	H	-0.239939	-0.327654	-0.191365
H502	H	-0.166252	-0.314586	-0.208290
C503	C	-0.139537	-0.340732	-0.297110
C504	C	-0.198256	-0.355793	-0.255437
H505	H	-0.143312	-0.365653	-0.315703
H506	H	-0.117491	-0.306272	-0.320961
H507	H	-0.117976	-0.340060	-0.282932
H508	H	-0.219812	-0.356459	-0.269616
H509	H	-0.220305	-0.390255	-0.231590
H510	H	0.463815	-0.162189	-0.158813
H511	H	0.467051	0.433540	-0.430291
O512	O	0.864170	0.412283	-0.550509
C513	C	0.831436	0.414959	-0.499344
H514	H	0.783633	0.401091	-0.487077
H515	H	0.857309	0.457833	-0.500156
C516	C	0.884017	0.395734	-0.473991
C517	C	0.825302	0.378697	-0.458923
H518	H	0.880236	0.373368	-0.449058
H519	H	0.906072	0.393933	-0.508463
H520	H	0.905572	0.431462	-0.474669
H521	H	0.803752	0.342972	-0.458253
H522	H	0.803243	0.380491	-0.424450
H523	H	0.464641	0.412679	-0.159147
H524	H	0.860657	0.412571	-0.698298
H525	H	0.770265	0.419910	-0.653266
H526	H	0.142366	-0.305283	0.019238
O527	O	0.525496	0.420252	-0.657984
C528	C	0.541457	0.417587	-0.709191
H529	H	0.519880	0.431451	-0.721604
H530	H	0.523705	0.374718	-0.708372
C531	C	0.638519	0.436831	-0.734220
C532	C	0.612022	0.453863	-0.749467
H533	H	0.682047	0.459205	-0.759064
H534	H	0.627766	0.438624	-0.699720
H535	H	0.623720	0.401107	-0.733537
H536	H	0.626815	0.489584	-0.750143
H537	H	0.622779	0.452077	-0.783968
H538	H	0.464634	0.412576	-0.699014
O539	O	0.369532	0.420302	-0.260700
C540	C	0.315699	0.417642	-0.225299
H541	H	0.317303	0.431516	-0.191368
H542	H	0.273631	0.374772	-0.208293
C543	C	0.309584	0.436864	-0.297115
C544	C	0.311557	0.453909	-0.255441
H545	H	0.307027	0.459233	-0.315707
H546	H	0.345851	0.438654	-0.320964
H547	H	0.274527	0.401138	-0.282936
H548	H	0.346618	0.489631	-0.269620
H549	H	0.275295	0.452125	-0.231594
H550	H	0.860761	0.234697	-0.555870
O551	O	0.148058	-0.032623	0.040246
C552	C	0.165497	-0.067220	0.040500
H553	H	0.146858	-0.098901	0.023279
H554	H	0.145857	-0.087306	0.083193
C555	C	0.259148	0.003825	0.027519
C556	C	0.236259	-0.035083	0.006364
H557	H	0.302797	0.023648	0.006465
H558	H	0.247398	0.027133	0.027350
H559	H	0.242775	-0.012919	0.063096
H560	H	0.252626	-0.018338	-0.029210
H561	H	0.248013	-0.058388	0.006526
O562	O	-0.257148	-0.313430	0.018845
C563	C	-0.211236	-0.314481	-0.026001
H564	H	-0.163863	-0.279512	-0.038349
H565	H	-0.215696	-0.311290	-0.060372
C566	C	-0.277241	-0.410126	0.003289
C567	C	-0.219056	-0.367179	-0.011875
H568	H	-0.282065	-0.442634	0.012000
H569	H	-0.308173	-0.409419	0.033501
H570	H	-0.280949	-0.407460	-0.025357
H571	H	-0.215350	-0.369842	0.016772
H572	H	-0.188122	-0.367888	-0.042083
O573	O	0.294222	-0.158028	0.018965
C574	C	0.284301	-0.186952	0.062467
H575	H	0.244647	-0.230550	0.077147
H576	H	0.272381	-0.169650	0.096116
C577	C	0.391836	-0.129480	0.026672
C578	C	0.343136	-0.183028	0.044699
H579	H	0.428129	-0.127058	0.015713
H580	H	0.398520	-0.109991	-0.002635
H581	H	0.381894	-0.115068	0.054716
H582	H	0.353075	-0.197437	0.016654
H583	H	0.336455	-0.202519	0.074002
O584	O	0.237669	0.132542	0.026898
C585	C	0.291520	0.167778	0.024244
H586	H	0.290047	0.201751	0.038112
H587	H	0.333587	0.184717	-0.018639
C588	C	0.297316	0.095765	0.043505
C589	C	0.295504	0.137490	0.060542
H590	H	0.299776	0.077082	0.065893
H591	H	0.261037	0.072026	0.045291
H592	H	0.332372	0.109888	0.007769
H593	H	0.260445	0.123366	0.096275
H594	H	0.331778	0.161226	0.058763
H595	H	0.321166	0.412650	-0.158825
O596	O	0.369410	-0.264172	-0.261059
C597	C	0.309331	-0.277435	-0.235802
H598	H	0.304158	-0.249459	-0.212454
H599	H	0.274442	-0.320336	-0.207337
C600	C	0.304172	-0.306121	-0.306879
C601	C	0.297821	-0.271757	-0.278206
H602	H	0.297070	-0.302621	-0.333035
H603	H	0.344648	-0.297187	-0.323895
H604	H	0.275098	-0.341869	-0.283153
H605	H	0.326900	-0.236010	-0.301932
H606	H	0.257350	-0.280685	-0.261196
O607	O	0.294862	0.238697	0.018829
C608	C	0.342993	0.281963	-0.029350
H609	H	0.322751	0.294147	-0.045237
H610	H	0.371570	0.269666	-0.059884
C611	C	0.409172	0.314415	0.000244
C612	C	0.384310	0.329382	-0.019267
H613	H	0.434660	0.343664	0.006462
H614	H	0.376746	0.285264	0.032703
H615	H	0.432981	0.304166	-0.025204
H616	H	0.360495	0.339624	0.006184
H617	H	0.416733	0.358536	-0.051721
O618	O	-0.159515	-0.108733	0.026946
C619	C	-0.205439	-0.107685	0.071781
H620	H	-0.242622	-0.149399	0.102707
H621	H	-0.226797	-0.093793	0.059070
C622	C	-0.130854	-0.017725	0.058170
C623	C	-0.176520	-0.068957	0.096155
H624	H	-0.113016	0.006166	0.073204
H625	H	-0.099914	-0.018430	0.027962
H626	H	-0.148659	-0.006156	0.047580
H627	H	-0.158713	-0.080528	0.106739
H628	H	-0.207456	-0.068253	0.126365
O629	O	-0.257705	-0.158005	0.018970
C630	C	-0.320217	-0.186930	0.062455
H631	H	-0.328709	-0.213554	0.095716
H632	H	-0.350331	-0.212648	0.049030
C633	C	-0.325918	-0.115119	0.042309
C634	C	-0.336348	-0.147816	0.083162
H635	H	-0.335870	-0.090992	0.055081
H636	H	-0.283803	-0.095632	0.013011
H637	H	-0.351014	-0.136557	0.031125
H638	H	-0.311246	-0.126378	0.094341
H639	H	-0.378459	-0.167298	0.112463
H640	H	0.233395	-0.116849	0.026552
H641	H	-0.003227	-0.036660	0.040155
H642	H	0.610301	-0.036665	-0.430283
O643	O	0.766549	0.132876	-0.502341
C644	C	0.799291	0.168256	-0.483916
H645	H	0.822457	0.211051	-0.507141
H646	H	0.835822	0.162761	-0.490049
C647	C	0.725959	0.103955	-0.395604
C648	C	0.754409	0.156517	-0.424127
H649	H	0.698275	0.096713	-0.358724
H650	H	0.703902	0.080118	-0.408018
H651	H	0.756408	0.099382	-0.400721
H652	H	0.723961	0.161087	-0.419015
H653	H	0.776460	0.180354	-0.411711
H654	H	0.467270	-0.179672	-0.430283
O655	O	0.614430	-0.032636	-0.581659
C656	C	0.580081	-0.067232	-0.599337
H657	H	0.531181	-0.098909	-0.563463
H658	H	0.602685	-0.087322	-0.622390
C659	C	0.638146	0.003811	-0.680028
C660	C	0.578083	-0.035092	-0.635967
H661	H	0.636915	0.023636	-0.702625
H662	H	0.661289	0.027119	-0.668120
H663	H	0.656975	-0.012936	-0.699233
H664	H	0.559258	-0.018345	-0.616760
H665	H	0.554937	-0.058397	-0.647874
H666	H	0.373402	-0.259956	-0.509812
H667	H	0.320738	-0.305284	-0.554850
H668	H	0.463825	-0.162196	-0.698300
H669	H	0.516488	-0.116857	-0.256539
O670	O	0.864267	0.238525	-0.707169
C671	C	0.831542	0.203138	-0.725602
H672	H	0.783746	0.169217	-0.690059
H673	H	0.857433	0.186142	-0.750686
C674	C	0.884089	0.274925	-0.803520
C675	C	0.825383	0.233265	-0.759865
H676	H	0.880292	0.293509	-0.824657
H677	H	0.906138	0.298766	-0.791103
H678	H	0.905658	0.260756	-0.824417
H679	H	0.803818	0.247436	-0.738965
H680	H	0.803330	0.209427	-0.772280
