data_functionalizedCrystal
_audit_creation_method	'MofGen! by Chris Wilmer'
_symmetry_space_group_name_H-M	'P1'
_symmetry_Int_Tables_number	1
_symmetry_cell_setting	triclinic
loop_
_symmetry_equiv_pos_as_xyz
  x,y,z
_cell_length_a	10.654558
_cell_length_b	10.654550
_cell_length_c	9.130313
_cell_angle_alpha	90.000110
_cell_angle_beta	90.001412
_cell_angle_gamma	84.486562
loop_
_atom_site_label
_atom_site_type_symbol
_atom_site_fract_x
_atom_site_fract_y
_atom_site_fract_z
O1	O	-1.667828	-0.176442	-0.121835
O2	O	-1.302351	-0.193237	-0.121829
O3	O	-1.493493	-0.002100	-0.121827
O4	O	-1.476686	-0.367578	-0.121838
O5	O	-1.493490	-0.002105	0.121772
O6	O	-1.302349	-0.193242	0.121770
O7	O	-1.667826	-0.176447	0.121763
Cu8	Cu	-1.485087	-0.184845	0.144009
Cu9	Cu	-1.485090	-0.184839	-0.144075
O10	O	-1.476684	-0.367583	0.121761
C11	C	-1.255552	-0.192004	-0.000029
C12	C	-1.116109	-0.188308	-0.000027
C13	C	-0.933548	-0.068820	-0.000041
C14	C	-1.064569	-0.072292	-0.000027
C15	C	-1.036620	-0.300861	-0.000025
C16	C	-0.905601	-0.297387	-0.000028
C17	C	-0.949685	0.063143	-0.000048
C18	C	-1.080706	0.059671	-0.000034
C19	C	-1.492257	0.044695	-0.000029
C20	C	-1.488566	0.184138	-0.000034
C21	C	-0.714625	-0.177676	-0.000038
C22	C	-0.854069	-0.181363	-0.000044
C23	C	-1.477919	-0.414379	-0.000040
C24	C	-1.481611	-0.553822	-0.000044
N25	N	-1.485094	-0.184848	0.346632
C26	C	-1.601107	0.263621	-0.000032
C27	C	-1.597630	0.394642	-0.000042
C28	C	-1.369061	0.366685	-0.000051
C29	C	-1.372539	0.235667	-0.000051
C30	C	-1.733069	0.279763	-0.000020
C31	C	-1.729593	0.410784	-0.000030
N32	N	-1.485092	-0.184825	-0.346697
C33	C	-1.569754	-0.100242	0.423285
C34	C	-1.569750	-0.100227	0.576621
C35	C	-1.400424	-0.269436	0.576639
C36	C	-1.400422	-0.269444	0.423305
C37	C	-1.667517	-0.002554	0.423276
C38	C	-1.667513	-0.002539	0.576613
H39	H	-1.122464	0.109388	-0.101981
Br40	Br	-0.900730	0.149161	0.169852
H41	H	-1.078594	-0.395324	-0.000011
Br42	Br	-1.156784	0.126118	0.175278
Br43	Br	-1.803077	0.220360	0.175297
H44	H	-1.280897	0.170956	-0.000074
H45	H	-1.274597	0.408656	-0.000066
Br46	Br	-1.819481	-0.053563	0.343989
H47	H	-1.331485	-0.338310	0.639083
Br48	Br	-1.616641	0.149492	0.655882
H49	H	-1.784685	0.250405	-0.101960
H50	H	-1.779313	0.452540	0.101912
Br51	Br	-0.797739	-0.450131	-0.000004
Br52	Br	-0.890289	0.133175	-0.175355
Br53	Br	-1.828369	-0.038393	0.645987
Br54	Br	-1.285504	-0.384247	0.319272
Br55	Br	-1.796058	0.486873	-0.175331
Br56	Br	-1.631781	0.158335	0.353897
