data_functionalizedCrystal
_audit_creation_method	'MofGen! by Chris Wilmer'
_symmetry_space_group_name_H-M	'P1'
_symmetry_Int_Tables_number	1
_symmetry_cell_setting	triclinic
loop_
_symmetry_equiv_pos_as_xyz
  x,y,z
_cell_length_a	23.532355
_cell_length_b	23.532407
_cell_length_c	15.500227
_cell_angle_alpha	92.805592
_cell_angle_beta	87.179784
_cell_angle_gamma	82.838088
loop_
_atom_site_label
_atom_site_type_symbol
_atom_site_fract_x
_atom_site_fract_y
_atom_site_fract_z
O1	O	0.757939	0.066339	-0.071834
O2	O	1.091272	0.399672	0.261499
O3	O	1.424606	0.733005	0.594832
O4	O	0.592072	0.076372	-0.071863
O5	O	0.925406	0.409705	0.261470
O6	O	1.258739	0.743038	0.594803
O7	O	0.680007	-0.011577	-0.071832
O8	O	1.013340	0.321757	0.261501
O9	O	1.346673	0.655090	0.594835
O10	O	0.670004	0.154287	-0.071865
O11	O	1.003338	0.487621	0.261468
O12	O	1.336671	0.820954	0.594801
O13	O	0.674671	-0.006261	0.072055
O14	O	1.008004	0.327073	0.405388
O15	O	1.341337	0.660406	0.738721
O16	O	0.586736	0.081688	0.072024
O17	O	0.920070	0.415021	0.405357
O18	O	1.253403	0.748355	0.738690
O19	O	0.752603	0.071655	0.072052
O20	O	1.085936	0.404988	0.405386
O21	O	1.419270	0.738322	0.738719
Cu22	Cu	0.669182	0.077157	0.085176
Cu23	Cu	1.002516	0.410490	0.418509
Cu24	Cu	1.335849	0.743823	0.751843
Cu25	Cu	0.675493	0.070870	-0.084987
Cu26	Cu	1.008826	0.404203	0.248347
Cu27	Cu	1.342159	0.737537	0.581680
O28	O	0.664669	0.159603	0.072021
O29	O	0.998002	0.492937	0.405355
O30	O	1.331335	0.826270	0.738688
C31	C	0.568188	0.078779	0.000077
C32	C	0.901521	0.412112	0.333410
C33	C	1.234855	0.745446	0.666743
C34	C	0.504970	0.078024	0.000067
C35	C	0.838303	0.411358	0.333400
C36	C	1.171636	0.744691	0.666733
C37	C	0.110046	0.076186	0.078536
C38	C	0.443379	0.409519	0.411870
C39	C	0.776712	0.742852	0.745203
C40	C	0.050646	0.075468	0.078540
C41	C	0.383980	0.408802	0.411873
C42	C	0.717313	0.742135	0.745207
O43	O	0.017454	0.077542	0.145243
O44	O	0.350787	0.410876	0.478576
O45	O	0.684121	0.744209	0.811910
N46	N	0.023846	0.072215	0.000108
N47	N	0.357180	0.405548	0.333441
N48	N	0.690513	0.738881	0.666774
C49	C	0.056450	0.069672	-0.078333
C50	C	0.389784	0.403006	0.255000
C51	C	0.723117	0.736339	0.588333
O52	O	0.028201	0.066839	-0.145046
O53	O	0.361534	0.400172	0.188287
O54	O	0.694867	0.733505	0.521621
C55	C	0.115849	0.070386	-0.078336
C56	C	0.449182	0.403719	0.254997
C57	C	0.782516	0.737052	0.588331
C58	C	0.142645	0.073645	0.000101
C59	C	0.475978	0.406979	0.333435
C60	C	0.809312	0.740312	0.666768
C61	C	0.136842	0.079444	0.156967
C62	C	0.470175	0.412777	0.490301
C63	C	0.803509	0.746111	0.823634
C64	C	0.196237	0.080162	0.156964
C65	C	0.529571	0.413496	0.490297
C66	C	0.862904	0.746829	0.823630
C67	C	0.228836	0.077622	0.078529
C68	C	0.562170	0.410956	0.411862
C69	C	0.895503	0.744289	0.745195
C70	C	0.202040	0.074364	0.000098
C71	C	0.535374	0.407697	0.333431
C72	C	0.868707	0.741030	0.666764
C73	C	0.148452	0.067839	-0.156776
C74	C	0.481786	0.401173	0.176557
C75	C	0.815119	0.734506	0.509891
C76	C	0.207855	0.068553	-0.156772
C77	C	0.541189	0.401886	0.176561
C78	C	0.874522	0.735219	0.509895
C79	C	0.234651	0.071812	-0.078334
C80	C	0.567984	0.405145	0.254999
C81	C	0.901318	0.738479	0.588332
C82	C	0.294035	0.072542	-0.078341
C83	C	0.627368	0.405875	0.254992
C84	C	0.960701	0.739208	0.588326
N85	N	0.320835	0.075795	0.000091
N86	N	0.654168	0.409128	0.333425
N87	N	0.987501	0.742462	0.666758
C88	C	0.288235	0.078335	0.078526
C89	C	0.621569	0.411669	0.411860
C90	C	0.954902	0.745002	0.745193
C91	C	-0.068292	0.068174	-0.078322
C92	C	0.265042	0.401507	0.255011
C93	C	0.598375	0.734840	0.588345
C94	C	-0.127690	0.067465	-0.078320
C95	C	0.205643	0.400798	0.255013
C96	C	0.538976	0.734131	0.588346
C97	C	-0.133490	0.073259	0.078553
C98	C	0.199843	0.406593	0.411887
C99	C	0.533177	0.739926	0.745220
C100	C	-0.074091	0.073973	0.078551
C101	C	0.259242	0.407306	0.411884
C102	C	0.592576	0.740639	0.745217
C103	C	-0.041492	0.071427	0.000110
C104	C	0.291841	0.404761	0.333444
C105	C	0.625175	0.738094	0.666777
C106	C	0.412970	0.079844	0.078512
C107	C	0.746303	0.413178	0.411846
C108	C	1.079637	0.746511	0.745179
C109	C	0.472371	0.080565	0.078501
C110	C	0.805704	0.413898	0.411835
C111	C	1.139037	0.747231	0.745168
C112	C	0.478165	0.074767	-0.078372
C113	C	0.811499	0.408100	0.254962
C114	C	1.144832	0.741434	0.588295
C115	C	0.418770	0.074050	-0.078361
C116	C	0.752103	0.407383	0.254972
C117	C	1.085436	0.740716	0.588305
C118	C	0.386173	0.076587	0.000088
C119	C	0.719507	0.409920	0.333421
C120	C	1.052840	0.743253	0.666754
O121	O	0.327264	0.070467	-0.145010
O122	O	0.660597	0.403800	0.188323
O123	O	0.993930	0.737134	0.521656
O124	O	0.316494	0.081161	0.145227
O125	O	0.649827	0.414495	0.478561
O126	O	0.983160	0.747828	0.811894
C127	C	0.677084	-0.030135	0.000114
C128	C	1.010417	0.303199	0.333447
C129	C	1.343751	0.636532	0.666780
C130	C	0.676318	-0.093351	0.000120
C131	C	1.009651	0.239982	0.333453
C132	C	1.342984	0.573315	0.666787
C133	C	0.723554	-0.492465	0.000081
C134	C	1.056887	-0.159131	0.333414
C135	C	1.390221	0.174202	0.666747
C136	C	0.722843	-0.551865	0.000074
C137	C	1.056176	-0.218532	0.333407
C138	C	1.389509	0.114802	0.666741
O139	O	0.766631	-0.588619	0.000050
O140	O	1.099964	-0.255285	0.333383
O141	O	1.433297	0.078048	0.666716
N142	N	0.670565	-0.574482	0.000066
N143	N	1.003899	-0.241148	0.333399
N144	N	1.337232	0.092185	0.666732
C145	C	0.618996	-0.537695	0.000055
C146	C	0.952330	-0.204361	0.333388
C147	C	1.285663	0.128972	0.666722
O148	O	0.574465	-0.562387	0.000047
O149	O	0.907798	-0.229053	0.333380
O150	O	1.241132	0.104280	0.666713
C151	C	0.619708	-0.478296	0.000056
C152	C	0.953042	-0.144963	0.333389
C153	C	1.286375	0.188371	0.666722
C154	C	0.671989	-0.455682	0.000073
C155	C	1.005322	-0.122349	0.333406
C156	C	1.338655	0.210984	0.666740
C157	C	0.775830	-0.469850	0.000097
C158	C	1.109163	-0.136517	0.333430
C159	C	1.442497	0.196816	0.666764
C160	C	0.776541	-0.410454	0.000105
C161	C	1.109874	-0.077121	0.333439
C162	C	1.443208	0.256213	0.666772
C163	C	0.724976	-0.373672	0.000097
C164	C	1.058309	-0.040339	0.333431
C165	C	1.391642	0.292995	0.666764
C166	C	0.672700	-0.396286	0.000081
C167	C	1.006033	-0.062953	0.333414
C168	C	1.339366	0.270381	0.666748
C169	C	0.568140	-0.441510	0.000039
C170	C	0.901473	-0.108177	0.333372
C171	C	1.234807	0.225156	0.666706
C172	C	0.568857	-0.382108	0.000039
C173	C	0.902190	-0.048775	0.333372
C174	C	1.235523	0.284559	0.666705
C175	C	0.621137	-0.359495	0.000056
C176	C	0.954470	-0.026161	0.333389
C177	C	1.287804	0.307172	0.666723
C178	C	0.621845	-0.300107	0.000082
C179	C	0.955179	0.033226	0.333415
C180	C	1.288512	0.366559	0.666748
N181	N	0.674123	-0.277491	0.000090
N182	N	1.007456	0.055843	0.333423
N183	N	1.340789	0.389176	0.666757
C184	C	0.725688	-0.314273	0.000098
C185	C	1.059021	0.019060	0.333431
C186	C	1.392354	0.352394	0.666765
C187	C	0.617505	-0.662437	0.000053
C188	C	0.950838	-0.329104	0.333386
C189	C	1.284172	0.004229	0.666719
C190	C	0.616792	-0.721835	0.000058
C191	C	0.950125	-0.388501	0.333392
C192	C	1.283459	-0.055168	0.666725
C193	C	0.720639	-0.736001	0.000076
C194	C	1.053972	-0.402668	0.333409
C195	C	1.387305	-0.069334	0.666742
C196	C	0.721351	-0.676602	0.000076
C197	C	1.054684	-0.343269	0.333409
C198	C	1.388017	-0.009935	0.666743
C199	C	0.669782	-0.639820	0.000061
C200	C	1.003116	-0.306487	0.333394
C201	C	1.336449	0.026846	0.666728
C202	C	0.727177	-0.189536	0.000116
C203	C	1.060510	0.143798	0.333449
C204	C	1.393844	0.477131	0.666783
C205	C	0.727883	-0.130133	0.000128
C206	C	1.061216	0.203200	0.333461
C207	C	1.394550	0.536533	0.666795
C208	C	0.624037	-0.115973	0.000106
C209	C	0.957370	0.217361	0.333439
C210	C	1.290703	0.550694	0.666773
C211	C	0.623330	-0.175370	0.000099
C212	C	0.956663	0.157964	0.333432
C213	C	1.289997	0.491297	0.666765
C214	C	0.674905	-0.212151	0.000101
C215	C	1.008238	0.121183	0.333434
C216	C	1.341572	0.454516	0.666767
O217	O	0.578080	-0.263319	0.000102
O218	O	0.911414	0.070014	0.333436
O219	O	1.244747	0.403347	0.666769
O220	O	0.770212	-0.289573	0.000095
O221	O	1.103545	0.043760	0.333428
O222	O	1.436879	0.377093	0.666762
C223	C	0.776487	0.069248	0.000111
C224	C	1.109821	0.402581	0.333444
C225	C	1.443154	0.735914	0.666777
C226	C	0.839706	0.070002	0.000115
C227	C	1.173039	0.403335	0.333448
C228	C	1.506373	0.736669	0.666782
C229	C	0.667591	0.178161	0.000074
C230	C	1.000925	0.511495	0.333407
C231	C	1.334258	0.844828	0.666740
C232	C	0.668358	0.241378	0.000062
C233	C	1.001691	0.574711	0.333395
C234	C	1.335024	0.908044	0.666728
N235	N	0.664748	0.081578	0.204859
N236	N	0.998082	0.414912	0.538193
N237	N	1.331415	0.748245	0.871526
N238	N	0.679932	0.066444	-0.204670
N239	N	1.013265	0.399777	0.128663
N240	N	1.346598	0.733110	0.461997
C241	C	0.702022	0.044325	0.250149
C242	C	1.035355	0.377658	0.583483
C243	C	1.368689	0.710992	0.916816
C244	C	0.698674	0.047674	0.340721
C245	C	1.032007	0.381007	0.674054
C246	C	1.365340	0.714341	1.007388
C247	C	0.658054	0.088280	0.386001
C248	C	0.991387	0.421613	0.719334
C249	C	1.324720	0.754946	1.052668
C250	C	0.620776	0.125535	0.340705
C251	C	0.954110	0.458868	0.674038
C252	C	1.287443	0.792201	1.007372
C253	C	0.624122	0.122182	0.250135
C254	C	0.957456	0.455516	0.583468
C255	C	1.290789	0.788849	0.916802
C256	C	0.646000	0.100346	0.659464
C257	C	0.979333	0.433680	0.992797
C258	C	1.312667	0.767013	1.326130
C259	C	0.642658	0.103697	0.750040
C260	C	0.975991	0.437030	1.083373
C261	C	1.309325	0.770364	1.416707
C262	C	0.720555	0.025835	0.750050
C263	C	1.053888	0.359169	1.083383
C264	C	1.387222	0.692502	1.416716
C265	C	0.723900	0.022489	0.659478
C266	C	1.057233	0.355822	0.992811
C267	C	1.390566	0.689156	1.326145
C268	C	0.686620	0.059742	0.614190
C269	C	1.019953	0.393075	0.947523
C270	C	1.353287	0.726409	1.280856
C271	C	0.654632	0.091705	0.478580
C272	C	0.987965	0.425039	0.811913
C273	C	1.321298	0.758372	1.145247
C274	C	0.690040	0.056313	0.521613
C275	C	1.023373	0.389647	0.854946
C276	C	1.356707	0.722980	1.188279
H277	H	0.396950	0.071405	-0.142232
H278	H	0.730284	0.404738	0.191102
H279	H	1.063617	0.738071	0.524435
H280	H	0.386436	0.081915	0.142393
H281	H	0.719770	0.415249	0.475726
H282	H	1.053103	0.748582	0.809059
Br283	Br	-0.037731	0.078396	0.185005
Br284	Br	0.295602	0.411729	0.518338
Br285	Br	0.628935	0.745063	0.851672
H286	H	0.574220	-0.740240	0.000059
H287	H	0.907553	-0.406907	0.333393
H288	H	1.240886	-0.073574	0.666726
Br289	Br	-0.177743	0.076706	0.185002
Br290	Br	0.155590	0.410040	0.518335
Br291	Br	0.488924	0.743373	0.851669
H292	H	0.218049	0.082813	0.220836
H293	H	0.551383	0.416147	0.554169
H294	H	0.884716	0.749480	0.887502
H295	H	0.819113	-0.392048	0.000116
H296	H	1.152446	-0.058715	0.333449
H297	H	1.485780	0.274618	0.666782
Br298	Br	0.749258	-0.002886	0.402189
Br299	Br	1.082591	0.330447	0.735522
Br300	Br	1.415924	0.663780	1.068855
Br301	Br	0.547512	-0.612524	0.000039
Br302	Br	0.880845	-0.279191	0.333373
Br303	Br	1.214178	0.054142	0.666706
Br304	Br	0.587529	0.158812	0.811486
Br305	Br	0.920862	0.492145	1.144820
Br306	Br	1.254195	0.825479	1.478153
Br307	Br	0.790621	-0.785931	0.000083
Br308	Br	1.123954	-0.452598	0.333416
Br309	Br	1.457288	-0.119265	0.666750
Br310	Br	0.498866	-0.332193	0.000014
Br311	Br	0.832200	0.001140	0.333348
Br312	Br	1.165533	0.334473	0.666681
H313	H	0.580758	-0.193781	0.000109
H314	H	0.914092	0.139552	0.333442
H315	H	1.247425	0.472885	0.666775
H316	H	0.621559	0.124768	0.515454
H317	H	0.954892	0.458101	0.848788
H318	H	1.288226	0.791435	1.182121
H319	H	0.817823	-0.499794	0.000100
H320	H	1.151157	-0.166460	0.333434
H321	H	1.484490	0.166873	0.666767
H322	H	0.234395	0.066480	-0.220649
H323	H	0.567728	0.399813	0.112684
H324	H	0.901061	0.733147	0.446018
Br325	Br	-0.024057	0.064724	-0.184787
Br326	Br	0.309277	0.398058	0.148546
Br327	Br	0.642610	0.731391	0.481879
Br328	Br	0.779029	-0.032616	0.598025
Br329	Br	1.112362	0.300717	0.931358
Br330	Br	1.445695	0.634050	1.264691
Br331	Br	0.771145	-0.024721	0.811515
Br332	Br	1.104478	0.308613	1.144849
Br333	Br	1.437812	0.641946	1.478182
Br334	Br	0.573530	0.172739	0.188670
Br335	Br	0.906864	0.506073	0.522003
Br336	Br	1.240197	0.839406	0.855337
Br337	Br	0.554059	-0.066043	0.000096
Br338	Br	0.887392	0.267290	0.333429
Br339	Br	1.220725	0.600624	0.666762
Br340	Br	0.508732	0.084992	0.184959
Br341	Br	0.842065	0.418326	0.518293
Br342	Br	1.175399	0.751659	0.851626
H343	H	0.525568	-0.459912	0.000020
H344	H	0.858901	-0.126578	0.333353
H345	H	1.192235	0.206755	0.666686
H346	H	0.735101	0.011262	0.213288
H347	H	1.068434	0.344595	0.546621
H348	H	1.401768	0.677929	0.879955
H349	H	0.615646	0.130680	0.622597
H350	H	0.948980	0.464014	0.955930
H351	H	1.282313	0.797347	1.289264
H352	H	0.587700	0.158595	0.377577
H353	H	0.921033	0.491928	0.710911
H354	H	1.254367	0.825261	1.044244
Br355	Br	0.792305	-0.645919	0.000101
Br356	Br	1.125638	-0.312585	0.333435
Br357	Br	1.458971	0.020748	0.666768
Br358	Br	0.092611	0.082895	0.263430
Br359	Br	0.425944	0.416228	0.596763
Br360	Br	0.759277	0.749561	0.930096
H361	H	0.504718	0.072701	-0.142231
H362	H	0.838051	0.406035	0.191102
H363	H	1.171385	0.739368	0.524435
Br364	Br	0.112102	0.063415	-0.263234
Br365	Br	0.445435	0.396748	0.070099
Br366	Br	0.778769	0.730082	0.403433
H367	H	0.770458	-0.111725	0.000144
H368	H	1.103791	0.221608	0.333478
H369	H	1.437124	0.554941	0.666811
Br370	Br	-0.164050	0.063055	-0.184775
Br371	Br	0.169283	0.396388	0.148558
Br372	Br	0.502616	0.729722	0.481891
Br373	Br	0.797172	-0.239443	0.000118
Br374	Br	1.130505	0.093890	0.333451
Br375	Br	1.463838	0.427223	0.666785
H376	H	0.723111	0.023250	0.484743
H377	H	1.056444	0.356584	0.818076
H378	H	1.389777	0.689917	1.151410
