data_functionalizedCrystal
_audit_creation_method	'MofGen! by Chris Wilmer'
_symmetry_space_group_name_H-M	'P1'
_symmetry_Int_Tables_number	1
_symmetry_cell_setting	triclinic
loop_
_symmetry_equiv_pos_as_xyz
  x,y,z
_cell_length_a	23.096457
_cell_length_b	16.704494
_cell_length_c	16.704494
_cell_angle_alpha	60.174809
_cell_angle_beta	89.998889
_cell_angle_gamma	63.426309
loop_
_atom_site_label
_atom_site_type_symbol
_atom_site_fract_x
_atom_site_fract_y
_atom_site_fract_z
Zr1	Zr	0.595134	0.863911	-0.142488
O2	O	0.513214	1.018036	-0.271916
O3	O	0.615747	0.701128	-0.097156
O4	O	0.627513	0.851427	-0.263768
O5	O	0.497286	0.880603	0.019689
O6	O	0.722794	0.851429	-0.263772
O7	O	0.501448	0.867737	-0.105305
O8	O	0.701747	0.582571	0.034265
O9	O	0.518333	1.149462	-0.278349
O10	O	0.701082	0.771291	-0.084658
O11	O	0.626869	0.780892	0.008627
O12	O	0.640722	0.957851	-0.187537
O13	O	0.566509	0.967452	-0.094252
Zr14	Zr	0.740458	0.884435	0.056855
Zr15	Zr	0.747096	0.863914	-0.142495
Zr16	Zr	0.588496	0.884432	0.056863
Zr17	Zr	0.603299	1.073520	-0.152747
Zr18	Zr	0.732294	0.674826	0.067114
O19	O	0.719845	1.047219	0.011524
O20	O	0.729283	1.018040	-0.271927
O21	O	0.503775	1.047215	0.011534
O22	O	0.822379	0.730310	0.186284
O23	O	0.831817	0.701132	-0.097167
O24	O	0.606309	0.730306	0.186294
O25	O	0.838307	0.867743	-0.105321
O26	O	0.708079	0.896919	0.178135
O27	O	0.612799	0.896917	0.178140
O28	O	0.834145	0.880610	0.019672
O29	O	0.639122	1.149464	-0.278355
O30	O	0.696470	0.598882	0.192722
O31	O	0.817260	0.598884	0.192716
O32	O	0.822536	0.582573	0.034259
O33	O	0.513057	1.165774	-0.119892
O34	O	0.633846	1.165776	-0.119898
O35	O	0.694870	0.790496	0.101904
O36	O	0.769083	0.780895	0.008620
O37	O	0.708723	0.967454	-0.094259
O38	O	0.634510	0.977055	-0.000974
C39	C	0.657584	0.611984	-0.029984
C40	C	0.654118	0.523000	-0.025628
C41	C	0.725099	0.345750	-0.114828
C42	C	0.721845	0.262140	-0.110738
C43	C	0.644358	0.272166	-0.013354
C44	C	0.647613	0.355775	-0.017444
C45	C	0.687984	0.392565	-0.068184
C46	C	0.691234	0.476181	-0.072279
C47	C	0.613752	0.486199	0.025111
C48	C	0.610497	0.402590	0.029200
C49	C	0.477715	0.874170	-0.042807
C50	C	0.413204	0.874169	-0.042804
C51	C	0.414406	0.776789	0.010889
C52	C	0.353790	0.776787	0.010893
C53	C	0.291974	0.874170	-0.042814
C54	C	0.290775	0.971563	-0.096510
C55	C	0.351390	0.971563	-0.096504
N56	N	0.174785	0.942231	-0.125794
N57	N	0.117206	0.942225	-0.125796
C58	C	0.109342	0.874179	-0.042831
N59	N	0.161238	0.806121	0.040137
N60	N	0.218824	0.806124	0.040138
C61	C	0.226243	0.874182	-0.042825
C62	C	0.044820	0.776791	0.010871
C63	C	-0.015799	0.776794	0.010877
C64	C	-0.078814	0.971572	-0.096534
C65	C	-0.018196	0.971567	-0.096532
C66	C	0.043618	0.874173	-0.042831
C67	C	0.857877	0.874177	-0.042826
C68	C	0.922389	0.874178	-0.042829
C69	C	0.676099	0.848505	-0.292173
C70	C	0.678917	0.839793	-0.376803
C71	C	0.678009	1.136362	-0.055649
C72	C	0.681475	1.225346	-0.060004
C73	C	0.621202	1.018208	-0.643247
C74	C	0.623848	1.010028	-0.722767
C75	C	0.686860	0.815253	-0.615364
C76	C	0.684214	0.823433	-0.535844
C77	C	0.651383	0.924914	-0.549791
C78	C	0.648733	0.933094	-0.470269
C79	C	0.711748	0.738320	-0.362868
C80	C	0.714394	0.730139	-0.442388
C81	C	0.659493	0.899842	0.206541
C82	C	0.656675	0.908554	0.291170
C83	C	0.847665	0.611988	-0.029993
C84	C	0.908710	0.523005	-0.025641
C85	C	0.649281	0.637653	0.219373
C86	C	0.642997	0.557380	0.308358
C87	C	0.839361	0.637656	0.219364
C88	C	0.897589	0.557385	0.308345
C89	C	0.496231	1.110690	-0.304996
C90	C	0.438003	1.190961	-0.393978
C91	C	0.487928	1.136359	-0.055640
C92	C	0.426882	1.225342	-0.059992
C93	C	0.686312	1.110693	-0.305006
C94	C	0.692596	1.190966	-0.393991
C95	C	0.901882	0.476203	-0.072296
C96	C	0.959237	0.392604	-0.068225
C97	C	1.023417	0.355802	-0.017495
C98	C	1.030244	0.402612	0.029161
C99	C	0.972891	0.486215	0.025085
C100	C	0.675541	0.524697	0.398845
C101	C	0.669634	0.449285	0.482462
C102	C	0.631186	0.406551	0.475591
C103	C	0.598638	0.439242	0.385095
C104	C	0.604541	0.514658	0.301479
C105	C	0.963678	0.514677	0.301438
C106	C	1.018396	0.439264	0.385038
C107	C	1.007023	0.406555	0.475544
C108	C	0.940927	0.449271	0.482448
C109	C	0.886211	0.524688	0.398850
C110	C	0.371915	1.233680	-0.387071
C111	C	0.317198	1.309118	-0.470672
C112	C	0.328571	1.341832	-0.561178
C113	C	0.394667	1.299110	-0.568083
C114	C	0.449382	1.223679	-0.484483
C115	C	0.433711	1.272151	-0.013346
C116	C	0.376358	1.355771	-0.017439
C117	C	0.312177	1.392576	-0.068173
C118	C	0.305351	1.345763	-0.114825
C119	C	0.362703	1.262149	-0.110737
C120	C	0.731049	1.233676	-0.387089
C121	C	0.736966	1.309091	-0.470691
C122	C	0.704427	1.341799	-0.561195
C123	C	0.665972	1.299081	-0.568094
C124	C	0.660059	1.223662	-0.484493
H125	H	0.752069	0.224024	-0.148719
N126	N	0.502931	1.232466	0.041371
H127	H	0.504993	1.204798	0.111185
H128	H	0.511902	1.293673	0.012619
H129	H	0.621997	1.015725	-0.481628
N130	N	0.975958	0.549956	0.203830
H131	H	0.931272	0.604215	0.151908
H132	H	1.000526	0.485346	0.199586
H133	H	0.253087	1.375742	-0.156131
N134	N	0.618573	1.177619	-0.491956
H135	H	0.580756	1.195351	-0.461855
H136	H	0.648357	1.096875	-0.457049
N137	N	0.245915	1.355185	-0.463213
H138	H	0.247017	1.323001	-0.393190
H139	H	0.219605	1.337465	-0.493374
H140	H	0.706849	0.559483	0.404457
N141	N	0.111490	0.671748	0.068800
H142	H	0.136484	0.672228	0.118022
H143	H	0.139552	0.662642	0.024300
N144	N	0.520661	1.177587	-0.491942
H145	H	0.553604	1.124831	-0.425255
H146	H	0.529938	1.237816	-0.530233
N147	N	0.585797	1.127656	-0.658282
H148	H	0.588701	1.118681	-0.593725
H149	H	0.536801	1.168755	-0.695630
N150	N	0.269554	1.423190	-0.651342
H151	H	0.225962	1.445280	-0.633225
H152	H	0.269720	1.390096	-0.688155
H153	H	0.354769	0.697486	0.054617
H154	H	0.709247	1.403211	-0.629261
N155	N	0.766161	1.198394	-0.289482
H156	H	0.756587	1.144132	-0.237558
H157	H	0.748924	1.263001	-0.285235
N158	N	0.591310	1.110650	-0.823567
H159	H	0.570116	1.176175	-0.820331
H160	H	0.555335	1.111518	-0.858916
H161	H	0.849629	0.506165	-0.113618
H162	H	0.381930	1.393874	0.020555
H163	H	1.082508	0.372635	0.070465
H164	H	0.626385	0.345143	0.543684
H165	H	0.724105	0.506137	-0.113596
N166	N	0.778445	1.355153	-0.463237
H167	H	0.798153	1.322991	-0.393216
H168	H	0.748667	1.435907	-0.498216
N169	N	0.350097	1.076597	-0.154423
H170	H	0.301740	1.138292	-0.188447
H171	H	0.375434	1.076013	-0.203592
H172	H	0.713597	0.732632	-0.604026
N173	N	-0.014504	0.671758	0.068798
H174	H	0.033854	0.610064	0.102813
H175	H	-0.036723	0.662702	0.024302
H176	H	0.639480	1.325724	-0.641794
N177	N	0.814927	0.570743	0.406299
H178	H	0.809428	0.609044	0.439732
H179	H	0.805652	0.510500	0.444532
H180	H	0.757966	0.375711	-0.156150
H181	H	0.403920	1.325756	-0.641783
H182	H	0.611498	0.242185	0.027968
H183	H	0.265483	1.460660	-0.071494
H184	H	0.240440	1.050853	-0.140237
H185	H	0.357133	1.224039	-0.148719
H186	H	0.577630	0.372621	0.070515
H187	H	0.583527	0.524329	0.063088
H188	H	0.741127	0.647517	-0.431046
N189	N	1.089679	0.393199	0.377578
H190	H	1.088575	0.425360	0.307557
H191	H	1.112153	0.312446	0.412558
H192	H	0.464734	0.697482	0.054610
N193	N	0.704751	0.414017	0.580063
H194	H	0.670113	0.432193	0.614522
H195	H	0.730012	0.452536	0.571644
H196	H	1.070112	0.287725	-0.014182
H197	H	-0.019177	1.050863	-0.140261
N198	N	-0.145479	1.076610	-0.154454
H199	H	-0.183698	1.061836	-0.146308
H200	H	-0.147083	1.114319	-0.224737
H201	H	0.567334	0.404437	0.379515
H202	H	0.578041	0.541258	0.227805
N203	N	0.951858	0.342132	-0.118551
H204	H	0.922882	0.310071	-0.091299
H205	H	0.997950	0.283634	-0.108271
N206	N	0.744296	0.637686	-0.262065
H207	H	0.737636	0.658264	-0.213803
H208	H	0.794217	0.593720	-0.252506
N209	N	1.066042	0.325190	0.565706
H210	H	1.048814	0.310939	0.624094
H211	H	1.096330	0.354345	0.564226
H212	H	0.978459	0.524311	0.063083
H213	H	0.931676	0.422628	0.556149
H214	H	0.362641	1.207049	-0.313384
