data_functionalizedCrystal
_audit_creation_method	'MofGen! by Chris Wilmer'
_symmetry_space_group_name_H-M	'P1'
_symmetry_Int_Tables_number	1
_symmetry_cell_setting	triclinic
loop_
_symmetry_equiv_pos_as_xyz
  x,y,z
_cell_length_a	6.817900
_cell_length_b	11.168138
_cell_length_c	11.168136
_cell_angle_alpha	92.020086
_cell_angle_beta	108.508683
_cell_angle_gamma	108.508793
loop_
_atom_site_label
_atom_site_type_symbol
_atom_site_fract_x
_atom_site_fract_y
_atom_site_fract_z
V1	V	-4.109883	-0.174724	-0.393710
O2	O	-4.069466	0.008377	-0.386204
O3	O	-4.086173	-0.346429	-0.391027
O4	O	-4.086174	-0.172045	-0.565415
O5	O	-4.069465	-0.167215	-0.210609
V6	V	-4.587113	-0.152822	-0.371808
O7	O	-4.384947	-0.222767	-0.441753
O8	O	-4.762246	-0.104778	-0.323765
O9	O	-4.387617	0.018883	-0.374490
O10	O	-4.744927	-0.335922	-0.379314
O11	O	-4.744928	-0.160331	-0.554909
O12	O	-4.387616	-0.155501	-0.200102
C13	C	-3.936381	-0.388287	-0.384819
C14	C	-3.998446	-0.528658	-0.383771
C15	C	-4.265095	-0.742424	-0.388208
C16	C	-4.200952	-0.597343	-0.389292
C17	C	-3.936381	-0.165841	-0.607267
C18	C	-3.998443	-0.164786	-0.747637
C19	C	-4.200951	-0.170305	-0.816329
C20	C	-4.265099	-0.169216	-0.961410
C21	C	-4.200752	0.060735	-0.380695
C22	C	-4.117926	0.201105	-0.381752
C23	C	-4.200751	-0.161709	-0.158245
C24	C	-4.117926	-0.162757	-0.017873
H25	H	-3.872548	-0.577238	-0.378248
H26	H	-3.944445	-0.158040	-0.958832
N27	N	-3.831649	-0.157464	-0.811972
H28	H	-3.807078	-0.078138	-0.854149
H29	H	-3.888520	-0.235473	-0.878623
H30	H	-3.944440	-0.739834	-0.377021
N31	N	-4.367710	-0.177613	-0.751971
H32	H	-4.298243	-0.177348	-0.657452
H33	H	-4.498930	-0.258834	-0.790034
H34	H	-4.438576	-0.801484	-0.392929
H35	H	-4.438584	-0.173947	-1.020461
N36	N	-4.367735	-0.533001	-0.396629
H37	H	-4.298274	-0.438482	-0.396367
H38	H	-4.417634	-0.546532	-0.320570
