data_functionalizedCrystal
_audit_creation_method	'MofGen! by Chris Wilmer'
_symmetry_space_group_name_H-M	'P1'
_symmetry_Int_Tables_number	1
_symmetry_cell_setting	triclinic
loop_
_symmetry_equiv_pos_as_xyz
  x,y,z
_cell_length_a	18.101395
_cell_length_b	12.645331
_cell_length_c	12.645323
_cell_angle_alpha	90.025499
_cell_angle_beta	89.969759
_cell_angle_gamma	89.974642
loop_
_atom_site_label
_atom_site_type_symbol
_atom_site_fract_x
_atom_site_fract_y
_atom_site_fract_z
Zn1	Zn	-0.294923	-1.620623	-0.599526
Zn2	Zn	-0.418777	-1.620466	-0.422256
Zn3	Zn	-0.294942	-1.443341	-0.422259
Zn4	Zn	-0.418715	-1.443278	-0.599459
O5	O	-0.356839	-1.531927	-0.510875
O6	O	-0.311371	-1.768950	-0.576037
O7	O	-0.402385	-1.596930	-0.273909
O8	O	-0.191306	-1.466949	-0.445803
O9	O	-0.402366	-1.768834	-0.445797
O10	O	-0.191292	-1.597198	-0.576040
O11	O	-0.311403	-1.466797	-0.273911
O12	O	-0.311342	-1.294985	-0.445738
O13	O	-0.402259	-1.466843	-0.747816
O14	O	-0.402278	-1.294939	-0.575927
O15	O	-0.311310	-1.597138	-0.747865
O16	O	-0.522402	-1.596870	-0.445733
O17	O	-0.522356	-1.466691	-0.575924
C18	C	-0.356806	-1.256497	-0.510827
C19	C	-0.356809	-1.138667	-0.510831
C20	C	-0.299329	-0.971097	-0.429370
C21	C	-0.299485	-1.093656	-0.429019
C22	C	-0.434821	-1.094121	-0.480307
C23	C	-0.434500	-0.971523	-0.479743
C24	C	-0.336998	-0.971523	-0.623106
C25	C	-0.335263	-1.094129	-0.622490
C26	C	-0.549250	-1.531785	-0.510844
C27	C	-0.631564	-1.531821	-0.510866
C28	C	-0.930655	-1.532054	-0.510923
C29	C	-0.899331	-1.450339	-0.593039
C30	C	-0.813713	-1.449950	-0.592782
C31	C	-0.782272	-1.531939	-0.510896
C32	C	-0.813425	-1.501688	-0.399168
C33	C	-0.899071	-1.501161	-0.399659
C34	C	-0.899005	-1.644199	-0.539551
C35	C	-0.813354	-1.643540	-0.542001
C36	C	-0.698413	-1.531875	-0.510873
C37	C	-1.014514	-1.532115	-0.510938
C38	C	-0.163677	-1.532098	-0.510929
C39	C	-0.081363	-1.532171	-0.510953
C40	C	-0.356775	-1.532001	-0.787380
C41	C	-0.356748	-1.532032	-0.905211
C42	C	-0.356859	-0.808432	-0.510908
C43	C	-0.356830	-0.926262	-0.510881
C44	C	-0.413953	-1.450069	-0.950062
C45	C	-0.413737	-1.449780	-1.072622
C46	C	-0.278576	-1.502189	-1.073117
C47	C	-0.278953	-1.501562	-0.950519
C48	C	-0.376936	-1.644114	-0.950407
C49	C	-0.378612	-1.643545	-1.073013
C50	C	-0.356849	-1.531914	-0.235445
C51	C	-0.356668	-1.532088	-0.117616
H52	H	-0.478813	-1.123275	-0.537815
H53	H	-0.451932	-1.124772	-0.399149
C54	C	-0.785266	-1.475467	-0.704718
C55	C	-0.805564	-1.581307	-0.757485
C56	C	-0.777129	-1.606798	-0.869436
C57	C	-0.728396	-1.526449	-0.928621
C58	C	-0.708096	-1.420602	-0.875854
C59	C	-0.736531	-1.395111	-0.763903
H60	H	-0.841641	-1.640793	-0.713672
H61	H	-0.792157	-1.685153	-0.908497
H62	H	-0.707347	-1.545318	-1.011494
H63	H	-0.672019	-1.361116	-0.919667
H64	H	-0.721503	-1.316755	-0.724842
H65	H	-0.919794	-1.558097	-0.336390
H66	H	-0.281102	-0.940644	-0.650860
C67	C	-0.457214	-0.932808	-0.368910
C68	C	-0.526288	-0.862981	-0.355282
C69	C	-0.549000	-0.824272	-0.244445
C70	C	-0.502637	-0.855391	-0.147236
C71	C	-0.433559	-0.925222	-0.160861
C72	C	-0.410847	-0.963931	-0.271698
H73	H	-0.560612	-0.839941	-0.427244
H74	H	-0.600137	-0.772578	-0.234359
H75	H	-0.519450	-0.826736	-0.065188
H76	H	-0.399235	-0.948262	-0.088899
H77	H	-0.359710	-1.015625	-0.281783
C78	C	-0.927085	-1.475654	-0.705322
C79	C	-1.010532	-1.475960	-0.728948
C80	C	-1.038291	-1.501283	-0.841234
C81	C	-0.982602	-1.526301	-0.929894
C82	C	-0.899150	-1.525996	-0.906271
C83	C	-0.871392	-1.500673	-0.793985
H84	H	-1.051761	-1.457439	-0.663314
H85	H	-1.100068	-1.501508	-0.858721
H86	H	-1.003151	-1.545046	-1.013015
H87	H	-0.857921	-1.544517	-0.971905
H88	H	-0.809614	-1.500448	-0.776498
C89	C	-0.320666	-1.726618	-0.911204
C90	C	-0.256712	-1.692525	-0.838548
C91	C	-0.200444	-1.775020	-0.799331
C92	C	-0.208130	-1.891607	-0.832771
C93	C	-0.272087	-1.925706	-0.905431
C94	C	-0.328355	-1.843211	-0.944648
H95	H	-0.251020	-1.606214	-0.813790
H96	H	-0.153098	-1.749777	-0.745543
H97	H	-0.166477	-1.952675	-0.803740
H98	H	-0.277779	-2.012017	-0.930189
H99	H	-0.375701	-1.868454	-0.998436
H100	H	-0.432939	-1.671391	-0.919489
C101	C	-0.326404	-1.730424	-1.114360
C102	C	-0.280704	-1.796792	-1.036004
C103	C	-0.228477	-1.883658	-1.077339
C104	C	-0.221950	-1.904156	-1.197031
C105	C	-0.267651	-1.837786	-1.275395
C106	C	-0.319878	-1.750920	-1.234059
H107	H	-0.285535	-1.781620	-0.947394
H108	H	-0.194646	-1.932789	-1.019329
H109	H	-0.183288	-1.968459	-1.227631
H110	H	-0.262820	-1.852958	-1.364004
H111	H	-0.353709	-1.701788	-1.292069
H112	H	-0.241636	-1.123776	-0.448153
H113	H	-0.234861	-1.558686	-0.920849
C114	C	-0.396089	-1.338507	-0.908444
C115	C	-0.453597	-1.277762	-0.842286
C116	C	-0.435728	-1.166203	-0.800667
C117	C	-0.360350	-1.115390	-0.825206
C118	C	-0.302836	-1.176135	-0.891367
C119	C	-0.320706	-1.287694	-0.932986
H120	H	-0.509401	-1.315377	-0.824118
H121	H	-0.478304	-1.121235	-0.751690
H122	H	-0.347122	-1.032807	-0.794397
H123	H	-0.247032	-1.138521	-0.909535
H124	H	-0.278130	-1.332662	-0.981963
C125	C	-0.393575	-0.932352	-0.705154
C126	C	-0.367731	-0.866074	-0.800362
C127	C	-0.424311	-0.826896	-0.882397
C128	C	-0.506733	-0.853997	-0.869224
C129	C	-0.532581	-0.920278	-0.774011
C130	C	-0.476001	-0.959456	-0.691976
H131	H	-0.306714	-0.846010	-0.810118
H132	H	-0.405176	-0.777830	-0.952880
H133	H	-0.548617	-0.824995	-0.929951
H134	H	-0.593599	-0.940342	-0.764256
H135	H	-0.495136	-1.008522	-0.621493
H136	H	-0.312596	-1.122931	-0.345860
H137	H	-0.261872	-1.419646	-0.921917
H138	H	-0.312292	-0.940246	-0.346696
H139	H	-0.241303	-0.941652	-0.448294
H140	H	-0.478794	-0.941863	-0.536522
H141	H	-0.277855	-1.123252	-0.645507
H142	H	-0.374092	-1.124773	-0.686474
H143	H	-0.920913	-1.367720	-0.574314
C144	C	-0.786108	-1.337658	-0.567159
C145	C	-0.841994	-1.248059	-0.546860
C146	C	-0.814389	-1.135761	-0.521234
C147	C	-0.730899	-1.113063	-0.515906
C148	C	-0.675008	-1.202664	-0.536205
C149	C	-0.702613	-1.314962	-0.561832
H150	H	-0.903803	-1.264859	-0.550804
H151	H	-0.855763	-1.069432	-0.506207
H152	H	-0.710464	-1.029933	-0.496936
H153	H	-0.613199	-1.185863	-0.532262
H154	H	-0.661238	-1.381290	-0.576858
H155	H	-0.234765	-1.560076	-1.102261
C156	C	-0.926147	-1.390415	-0.366908
C157	C	-0.905111	-1.345068	-0.257974
C158	C	-0.932182	-1.234318	-0.225225
C159	C	-0.980289	-1.168915	-0.301410
C160	C	-1.001328	-1.214261	-0.410352
C161	C	-0.974257	-1.325011	-0.443100
H162	H	-0.869496	-1.393484	-0.201571
H163	H	-0.916607	-1.200750	-0.144579
H164	H	-1.000329	-1.086931	-0.277168
H165	H	-1.036942	-1.165845	-0.466755
H166	H	-0.989831	-1.358579	-0.523746
C167	C	-0.785916	-1.579554	-0.314251
C168	C	-0.734722	-1.671735	-0.345448
C169	C	-0.707211	-1.749602	-0.260533
C170	C	-0.730895	-1.735288	-0.144421
C171	C	-0.782092	-1.643103	-0.113219
C172	C	-0.809602	-1.565235	-0.198134
H173	H	-0.717187	-1.682335	-0.431405
H174	H	-0.669312	-1.817844	-0.283631
H175	H	-0.710530	-1.792930	-0.081562
H176	H	-0.799626	-1.632503	-0.027262
H177	H	-0.847502	-1.496994	-0.175036
H178	H	-0.792036	-1.420578	-0.374484
C179	C	-0.785846	-1.674366	-0.653082
C180	C	-0.808786	-1.780960	-0.701963
C181	C	-0.781277	-1.811781	-0.813047
C182	C	-0.730828	-1.736008	-0.875249
C183	C	-0.707886	-1.629407	-0.826368
C184	C	-0.735395	-1.598586	-0.715285
H185	H	-0.846133	-1.837058	-0.655917
H186	H	-0.798260	-1.890694	-0.849231
H187	H	-0.710464	-1.758823	-0.957480
H188	H	-0.670539	-1.573309	-0.872415
H189	H	-0.718412	-1.519673	-0.679101
C190	C	-0.926369	-1.726451	-0.458761
C191	C	-0.977177	-1.692096	-0.367261
C192	C	-1.004545	-1.774337	-0.286468
C193	C	-0.981105	-1.890933	-0.297174
C194	C	-0.930295	-1.925293	-0.388678
C195	C	-0.902927	-1.843052	-0.469471
H196	H	-0.994531	-1.605780	-0.359333
H197	H	-1.042159	-1.748900	-0.218731
H198	H	-1.001364	-1.951812	-0.237366
H199	H	-0.912940	-2.011609	-0.396606
H200	H	-0.865313	-1.868489	-0.537208
C201	C	-0.491949	-1.475233	-1.113143
C202	C	-0.557238	-1.402929	-1.083506
C203	C	-0.635452	-1.428496	-1.123956
C204	C	-0.648376	-1.526367	-1.194043
C205	C	-0.583085	-1.598677	-1.223684
C206	C	-0.504872	-1.573110	-1.183233
H207	H	-0.547673	-1.330473	-1.031620
H208	H	-0.683785	-1.374966	-1.102014
H209	H	-0.706275	-1.545293	-1.223987
H210	H	-0.592651	-1.671132	-1.275570
H211	H	-0.456539	-1.626640	-1.205176
H212	H	-0.920552	-1.671778	-0.619635
C213	C	-0.255068	-1.392761	-1.114575
C214	C	-0.306589	-1.330441	-1.188746
C215	C	-0.283087	-1.221010	-1.230201
C216	C	-0.208064	-1.173898	-1.197485
C217	C	-0.156538	-1.236218	-1.123310
C218	C	-0.180040	-1.345650	-1.081855
H219	H	-0.362130	-1.365316	-1.212968
H220	H	-0.321230	-1.174877	-1.285110
H221	H	-0.190666	-1.092891	-1.228172
H222	H	-0.100997	-1.201344	-1.099087
H223	H	-0.141897	-1.391783	-1.026945
H224	H	-0.791948	-1.707643	-0.486552
H225	H	-0.472056	-1.468496	-0.920582
H226	H	-0.400333	-1.366745	-1.101944
H227	H	-0.436085	-1.666096	-1.102093
