data_functionalizedCrystal
_audit_creation_method	'MofGen! by Chris Wilmer'
_symmetry_space_group_name_H-M	'P1'
_symmetry_Int_Tables_number	1
_symmetry_cell_setting	triclinic
loop_
_symmetry_equiv_pos_as_xyz
  x,y,z
_cell_length_a	12.827893
_cell_length_b	19.121063
_cell_length_c	12.827885
_cell_angle_alpha	87.596033
_cell_angle_beta	90.019272
_cell_angle_gamma	92.468878
loop_
_atom_site_label
_atom_site_type_symbol
_atom_site_fract_x
_atom_site_fract_y
_atom_site_fract_z
Zn1	Zn	1.579835	-0.279579	0.608539
Zn2	Zn	2.079835	0.220421	1.108539
Zn3	Zn	1.572236	-0.397046	0.441232
Zn4	Zn	2.072236	0.102954	0.941232
Zn5	Zn	1.405075	-0.279614	0.433815
Zn6	Zn	1.905075	0.220386	0.933815
Zn7	Zn	1.397572	-0.396994	0.615928
Zn8	Zn	1.897572	0.103006	1.115928
O9	O	1.488680	-0.338308	0.524878
O10	O	1.988680	0.161692	1.024878
O11	O	1.725063	-0.295169	0.586357
O12	O	2.225063	0.204831	1.086357
O13	O	1.550022	-0.381505	0.294014
O14	O	2.050022	0.118495	0.794014
O15	O	1.434577	-0.181325	0.450796
O16	O	1.934577	0.318675	0.950796
O17	O	1.719480	-0.381471	0.463437
O18	O	2.219480	0.118529	0.963437
O19	O	1.562973	-0.181300	0.579165
O20	O	2.062973	0.318700	1.079165
O21	O	1.427209	-0.295227	0.288565
O22	O	1.927209	0.204773	0.788565
O23	O	1.257844	-0.295177	0.457961
O24	O	1.757844	0.204823	0.957961
O25	O	1.421790	-0.381382	0.761182
O26	O	1.921790	0.118618	1.261182
O27	O	1.252332	-0.381415	0.591759
O28	O	1.752332	0.118585	1.091759
O29	O	1.555698	-0.295118	0.755753
O30	O	2.055698	0.204882	1.255753
O31	O	1.542747	-0.495323	0.470602
O32	O	2.042747	0.004677	0.970602
O33	O	1.414422	-0.495285	0.598951
O34	O	1.914422	0.004715	1.098951
C35	C	1.217171	-0.338295	0.524858
C36	C	1.717171	0.161705	1.024858
C37	C	1.101017	-0.338306	0.524875
C38	C	1.601017	0.161694	1.024875
C39	C	1.046528	-0.381046	0.590989
C40	C	1.546528	0.118954	1.090989
C41	C	0.926477	-0.381059	0.591008
C42	C	1.426477	0.118941	1.091008
C43	C	1.476974	-0.520788	0.536406
C44	C	1.976974	-0.020788	1.036406
C45	C	1.472062	-0.598854	0.541373
C46	C	1.972062	-0.098854	1.041373
C47	C	1.536618	-0.635526	0.476937
C48	C	2.036618	-0.135526	0.976937
C49	C	1.532005	-0.708877	0.481615
C50	C	2.032005	-0.208877	0.981615
C51	C	1.462829	-0.745554	0.550723
C52	C	1.962829	-0.245554	1.050723
C53	C	1.398270	-0.708877	0.615166
C54	C	1.898270	-0.208877	1.115166
C55	C	1.402890	-0.635528	0.610493
C56	C	1.902890	-0.135528	1.110493
C57	C	1.445540	-0.967023	0.568177
C58	C	1.945540	-0.467023	1.068177
C59	C	1.440923	-1.040378	0.572842
C60	C	1.940923	-0.540378	1.072842
C61	C	1.574660	-1.040373	0.439292
C62	C	2.074660	-0.540373	0.939292
C63	C	1.579269	-0.967021	0.434621
C64	C	2.079269	-0.467021	0.934621
C65	C	1.514714	-0.930351	0.499067
C66	C	2.014714	-0.430351	0.999067
C67	C	1.458109	-0.820531	0.555503
C68	C	1.958109	-0.320531	1.055503
C69	C	1.519440	-0.855375	0.494292
C70	C	2.019440	-0.355375	0.994292
C71	C	1.761249	-0.338322	0.524900
C72	C	2.261249	0.161678	1.024900
C73	C	1.877402	-0.338328	0.524909
C74	C	2.377402	0.161672	1.024909
C75	C	1.488755	-0.338241	0.797445
C76	C	1.988755	0.161759	1.297445
C77	C	1.488787	-0.338212	0.913596
C78	C	1.988787	0.161788	1.413596
C79	C	1.500460	-0.155116	0.513328
C80	C	2.000460	0.344884	1.013328
C81	C	1.505479	-0.077050	0.508407
C82	C	2.005479	0.422950	1.008407
C83	C	1.488668	-0.338325	0.253370
C84	C	1.988668	0.161675	0.753370
C85	C	1.488851	-0.338156	0.137206
C86	C	1.988851	0.161844	0.637206
C87	C	1.555057	-0.295518	0.962694
C88	C	2.055057	0.204482	1.462694
C89	C	1.555091	-0.295487	1.082742
C90	C	2.055091	0.204513	1.582742
H91	H	1.058790	-0.301721	0.468290
H92	H	1.558790	0.198279	0.968290
H93	H	1.384604	-1.070239	0.629137
H94	H	1.884604	-0.570239	1.129137
H95	H	1.635597	-0.937160	0.378347
H96	H	2.135597	-0.437160	0.878347
O97	O	0.864434	-0.429530	0.665995
O98	O	1.364434	0.070470	1.165995
H99	H	0.779878	-0.421929	0.654249
H100	H	1.279878	0.078071	1.154249
O101	O	1.611234	-0.595967	0.402403
O102	O	2.111234	-0.095967	0.902403
H103	H	1.655357	-0.633794	0.358392
H104	H	2.155357	-0.133794	0.858392
O105	O	1.375885	-0.927474	0.637651
O106	O	1.875885	-0.427474	1.137651
H107	H	1.326991	-0.965304	0.686471
H108	H	1.826991	-0.465304	1.186471
H109	H	1.575767	-0.825511	0.438028
H110	H	2.075767	-0.325511	0.938028
O111	O	1.383482	-0.860097	0.630018
O112	O	1.883482	-0.360097	1.130018
H113	H	1.428117	-0.893469	0.685347
H114	H	1.928117	-0.393469	1.185347
O115	O	1.323644	-0.748431	0.689695
O116	O	1.823644	-0.248431	1.189695
H117	H	1.331263	-0.805597	0.682108
H118	H	1.831263	-0.305597	1.182108
H119	H	1.611763	-0.258986	0.915852
H120	H	2.111763	0.241014	1.415852
H121	H	1.611830	-0.258937	1.124975
H122	H	2.111830	0.241063	1.624975
H123	H	1.350322	-0.605670	0.662965
H124	H	1.850322	-0.105670	1.162965
O125	O	1.601630	-0.748432	0.412113
O126	O	2.101630	-0.248432	0.912113
H127	H	1.584620	-0.734413	0.329189
H128	H	2.084620	-0.234413	0.829189
H129	H	0.924244	-0.301737	0.468300
H130	H	1.424244	0.198263	0.968300
H131	H	1.627218	-1.070238	0.386825
H132	H	2.127218	-0.570238	0.886825
O133	O	1.413673	-0.386574	1.081293
O134	O	1.913673	0.113426	1.581293
H135	H	1.458163	-0.422296	1.033810
H136	H	1.958163	0.077704	1.533810
O137	O	1.102448	-0.429491	0.665978
O138	O	1.602448	0.070509	1.165978
H139	H	1.187966	-0.421873	0.654204
H140	H	1.687966	0.078127	1.154204
H141	H	1.432071	-0.374737	0.960437
H142	H	1.932071	0.125263	1.460437
