data_functionalizedCrystal
_audit_creation_method	'MofGen! by Chris Wilmer'
_symmetry_space_group_name_H-M	'P1'
_symmetry_Int_Tables_number	1
_symmetry_cell_setting	triclinic
loop_
_symmetry_equiv_pos_as_xyz
  x,y,z
_cell_length_a	21.395364
_cell_length_b	18.101390
_cell_length_c	21.395361
_cell_angle_alpha	89.962880
_cell_angle_beta	90.045659
_cell_angle_gamma	89.980642
loop_
_atom_site_label
_atom_site_type_symbol
_atom_site_fract_x
_atom_site_fract_y
_atom_site_fract_z
Zn1	Zn	0.957827	-0.418712	-0.249165
Zn2	Zn	1.457827	0.081288	0.250835
Zn3	Zn	0.957739	-0.294862	-0.353953
Zn4	Zn	1.457739	0.205138	0.146047
Zn5	Zn	0.853052	-0.294885	-0.249221
Zn6	Zn	1.353052	0.205115	0.250779
Zn7	Zn	0.853011	-0.418662	-0.353936
Zn8	Zn	1.353011	0.081338	0.146064
O9	O	0.905407	-0.356780	-0.301569
O10	O	1.405407	0.143220	0.198431
O11	O	1.045493	-0.402295	-0.263049
O12	O	1.545493	0.097705	0.236951
O13	O	0.943832	-0.191232	-0.340091
O14	O	1.443832	0.308768	0.159909
O15	O	0.867004	-0.311342	-0.161535
O16	O	1.367004	0.188658	0.338465
O17	O	1.045429	-0.311302	-0.340036
O18	O	1.545429	0.188698	0.159964
O19	O	0.943982	-0.402317	-0.161494
O20	O	1.443982	0.097683	0.338506
O21	O	0.866919	-0.191249	-0.263144
O22	O	1.366919	0.308751	0.236856
O23	O	0.765368	-0.311293	-0.263128
O24	O	1.265368	0.188707	0.236872
O25	O	0.866935	-0.522301	-0.340007
O26	O	1.366935	-0.022301	0.159993
O27	O	0.765339	-0.402231	-0.340061
O28	O	1.265339	0.097769	0.159939
O29	O	0.943943	-0.522338	-0.263032
O30	O	1.443943	-0.022338	0.236968
O31	O	0.943793	-0.311253	-0.441629
O32	O	1.443793	0.188747	0.058371
O33	O	0.866850	-0.402208	-0.441616
O34	O	1.366850	0.097792	0.058384
C35	C	0.742620	-0.356759	-0.301599
C36	C	1.242620	0.143241	0.198401
C37	C	0.672978	-0.356768	-0.301627
C38	C	1.172978	0.143232	0.198373
C39	C	0.640321	-0.404221	-0.261605
C40	C	1.140321	0.095779	0.238395
C41	C	0.574886	-0.404224	-0.261589
C42	C	1.074886	0.095776	0.238411
C43	C	0.542110	-0.356781	-0.301605
C44	C	1.042110	0.143219	0.198395
C45	C	0.574775	-0.309319	-0.341630
C46	C	1.074775	0.190681	0.158370
C47	C	0.640209	-0.309312	-0.341641
C48	C	1.140209	0.190688	0.158359
C49	C	0.438386	-0.350824	-0.358031
C50	C	0.938386	0.149176	0.141969
C51	C	0.372953	-0.350836	-0.358021
C52	C	0.872953	0.149164	0.141979
C53	C	0.340289	-0.356798	-0.301571
C54	C	0.840289	0.143202	0.198429
C55	C	0.373067	-0.362764	-0.245128
C56	C	0.873067	0.137236	0.254872
C57	C	0.438501	-0.362757	-0.245139
C58	C	0.938501	0.137243	0.254861
C59	C	0.471158	-0.356783	-0.301597
C60	C	0.971158	0.143217	0.198403
C61	C	0.236680	-0.404256	-0.261527
C62	C	0.736680	0.095744	0.238473
C63	C	0.171243	-0.404254	-0.261509
C64	C	0.671243	0.095746	0.238491
C65	C	0.171134	-0.309353	-0.341556
C66	C	0.671134	0.190647	0.158444
C67	C	0.236569	-0.309352	-0.341568
C68	C	0.736569	0.190648	0.158432
C69	C	0.269338	-0.356807	-0.301555
C70	C	0.769338	0.143193	0.198445
C71	C	0.905445	-0.549942	-0.301511
C72	C	1.405445	-0.049942	0.198489
C73	C	0.905460	-0.632256	-0.301487
C74	C	1.405460	-0.132256	0.198513
C75	C	0.905494	-0.931347	-0.301448
C76	C	1.405494	-0.431347	0.198552
C77	C	0.954105	-0.900045	-0.253188
C78	C	1.454105	-0.400045	0.246812
C79	C	0.953953	-0.814427	-0.253009
C80	C	1.453953	-0.314427	0.246991
C81	C	0.905478	-0.782965	-0.301467
C82	C	1.405478	-0.282965	0.198533
C83	C	0.839472	-0.814040	-0.283546
C84	C	1.339472	-0.314040	0.216454
C85	C	0.839763	-0.899685	-0.283184
C86	C	1.339763	-0.399685	0.216816
C87	C	0.922308	-0.899754	-0.367754
C88	C	1.422308	-0.399754	0.132246
C89	C	0.923756	-0.814104	-0.367415
C90	C	1.423756	-0.314104	0.132585
C91	C	0.905465	-0.699105	-0.301479
C92	C	1.405465	-0.199105	0.198521
C93	C	0.905503	-1.015207	-0.301434
C94	C	1.405503	-0.515207	0.198566
C95	C	1.068831	-0.356801	-0.301538
C96	C	1.568831	0.143199	0.198462
C97	C	1.138472	-0.356810	-0.301526
C98	C	1.638472	0.143190	0.198474
C99	C	0.905325	-0.356739	-0.464356
C100	C	1.405325	0.143261	0.035644
C101	C	0.905347	-0.356746	-0.533997
C102	C	1.405347	0.143254	-0.033997
C103	C	0.905406	-0.164369	-0.301580
C104	C	1.405406	0.335631	0.198420
C105	C	0.905512	-0.082056	-0.301428
C106	C	1.405512	0.417944	0.198572
C107	C	0.945446	-0.309434	-0.566696
C108	C	1.445446	0.190566	-0.066696
C109	C	0.945475	-0.309451	-0.632132
C110	C	1.445475	0.190549	-0.132132
C111	C	0.905394	-0.356771	-0.664866
C112	C	1.405394	0.143229	-0.164866
C113	C	0.865291	-0.404092	-0.632159
C114	C	1.365291	0.095908	-0.132159
C115	C	0.865268	-0.404080	-0.566725
C116	C	1.365268	0.095920	-0.066725
C117	C	0.848979	-0.362575	-0.768594
C118	C	1.348979	0.137425	-0.268594
C119	C	0.849001	-0.362582	-0.834027
C120	C	1.349001	0.137418	-0.334027
C121	C	0.905467	-0.356815	-0.866686
C122	C	1.405467	0.143185	-0.366686
C123	C	0.961911	-0.351024	-0.833905
C124	C	1.461911	0.148976	-0.333905
C125	C	0.961888	-0.351012	-0.768470
C126	C	1.461888	0.148988	-0.268470
C127	C	0.905415	-0.356791	-0.735818
C128	C	1.405415	0.143209	-0.235818
C129	C	0.945601	-0.309518	-0.970338
C130	C	1.445601	0.190482	-0.470338
C131	C	0.945632	-0.309540	-1.035774
C132	C	1.445632	0.190460	-0.535774
C133	C	0.865442	-0.404178	-1.035800
C134	C	1.365442	0.095822	-0.535800
C135	C	0.865417	-0.404160	-0.970365
C136	C	1.365417	0.095840	-0.470365
C137	C	0.905496	-0.356826	-0.937638
C138	C	1.405496	0.143174	-0.437638
C139	C	0.905507	-0.356838	-0.138145
C140	C	1.405507	0.143162	0.361855
C141	C	0.905550	-0.356862	-0.068504
C142	C	1.405550	0.143138	0.431496
H143	H	0.666998	-0.442862	-0.229023
H144	H	1.166998	0.057138	0.270977
N145	N	0.791292	-0.368441	-0.735242
N146	N	1.291292	0.131559	-0.235242
N147	N	0.774892	-0.318113	-0.698790
N148	N	1.274892	0.181887	-0.198790
H149	H	0.734151	-0.322253	-0.675236
H150	H	1.234151	0.177747	-0.175236
H151	H	0.263159	-0.270713	-0.374161
H152	H	0.763159	0.229287	0.125839
H153	H	0.263362	-0.442893	-0.228942
H154	H	0.763362	0.057107	0.271058
N155	N	0.824459	-0.452496	-0.936962
N156	N	1.324459	0.047504	-0.436962
N157	N	0.828587	-0.520836	-0.944221
N158	N	1.328587	-0.020836	-0.444221
H159	H	0.799661	-0.554979	-0.920631
H160	H	1.299661	-0.054979	-0.420631
N161	N	0.339488	-0.344734	-0.415679
N162	N	0.839488	0.155266	0.084321
N163	N	0.346747	-0.289148	-0.449595
N164	N	0.846747	0.210852	0.050405
H165	H	0.323115	-0.284838	-0.490319
H166	H	0.823115	0.215162	0.009681
N167	N	0.471992	-0.368849	-0.187496
N168	N	0.971992	0.131151	0.312504
N169	N	0.508536	-0.421761	-0.178783
N170	N	1.008536	0.078239	0.321217
H171	H	0.532190	-0.426061	-0.138071
H172	H	1.032190	0.073939	0.361929
H173	H	0.144448	-0.270725	-0.374138
H174	H	0.644448	0.229275	0.125862
H175	H	0.144655	-0.442895	-0.228915
H176	H	0.644655	0.057105	0.271085
N177	N	0.824312	-0.452410	-0.533312
N178	N	1.324312	0.047590	-0.033312
N179	N	0.846323	-0.499614	-0.496739
N180	N	1.346323	0.000386	0.003261
H181	H	0.817398	-0.533749	-0.473139
H182	H	1.317398	-0.033749	0.026861
N183	N	0.792806	-0.788457	-0.326281
N184	N	1.292806	-0.288457	0.173719
N185	N	0.783030	-0.720747	-0.332355
N186	N	1.283030	-0.220747	0.167645
H187	H	0.750073	-0.702676	-0.362538
H188	H	1.250073	-0.202676	0.137462
N189	N	0.471738	-0.344722	-0.415703
N190	N	0.971738	0.155278	0.084297
N191	N	0.442469	-0.339400	-0.466091
N192	N	0.942469	0.160600	0.033909
H193	H	0.466022	-0.335088	-0.506821
H194	H	0.966022	0.164912	-0.006821
H195	H	0.548085	-0.270691	-0.374211
H196	H	1.048085	0.229309	0.125789
N197	N	0.821259	-0.787179	-0.223411
N198	N	1.321259	-0.287179	0.276589
N199	N	0.769827	-0.805736	-0.200620
N200	N	1.269827	-0.305736	0.299380
H201	H	0.756966	-0.786769	-0.158148
H202	H	1.256966	-0.286769	0.341852
H203	H	0.978238	-0.270978	-0.943690
H204	H	1.478238	0.229022	-0.443690
H205	H	1.007847	-0.346299	-0.741781
H206	H	1.507847	0.153701	-0.241781
N207	N	0.339701	-0.368863	-0.187466
N208	N	0.839701	0.131137	0.312534
N209	N	0.281278	-0.368867	-0.187462
N210	N	0.781278	0.131133	0.312538
H211	H	0.257710	-0.373178	-0.146740
H212	H	0.757710	0.126822	0.353260
N213	N	0.673561	-0.260831	-0.382526
N214	N	1.173561	0.239169	0.117474
N215	N	0.644294	-0.218468	-0.418249
N216	N	1.144294	0.281532	0.081751
H217	H	0.667849	-0.184227	-0.447125
H218	H	1.167849	0.315773	0.052875
H219	H	0.978132	-0.270924	-0.658760
H220	H	1.478132	0.229076	-0.158760
N221	N	0.541528	-0.452716	-0.220713
N222	N	1.041528	0.047284	0.279287
N223	N	0.570793	-0.495090	-0.184998
N224	N	1.070793	0.004910	0.315002
H225	H	0.547237	-0.529345	-0.156135
H226	H	1.047237	-0.029345	0.343865
N227	N	1.015361	-0.788071	-0.267055
N228	N	1.515361	-0.288071	0.232945
N229	N	1.043816	-0.748513	-0.228548
N230	N	1.543816	-0.248513	0.271452
H231	H	1.087190	-0.729904	-0.238462
H232	H	1.587190	-0.229904	0.261538
H233	H	1.003210	-0.920646	-0.264270
H234	H	1.503210	-0.420646	0.235730
H235	H	0.969595	-0.921396	-0.384076
H236	H	1.469595	-0.421396	0.115924
N237	N	0.940315	-0.927070	-0.191911
N238	N	1.440315	-0.427070	0.308089
N239	N	0.894841	-0.969282	-0.183629
N240	N	1.394841	-0.469282	0.316371
H241	H	0.885098	-0.988369	-0.140352
H242	H	1.385098	-0.488369	0.359648
H243	H	0.942824	-0.793959	-0.203888
H244	H	1.442824	-0.293959	0.296112
N245	N	0.791345	-0.368484	-0.867508
N246	N	1.291345	0.131516	-0.367508
N247	N	0.749744	-0.320755	-0.860279
N248	N	1.249744	0.179245	-0.360279
H249	H	0.709022	-0.324923	-0.883923
H250	H	1.209022	0.175077	-0.383923
H251	H	0.832657	-0.442623	-0.658815
H252	H	1.332657	0.057377	-0.158815
N253	N	0.821878	-0.924763	-0.222380
N254	N	1.321878	-0.424763	0.277620
N255	N	0.809269	-0.879012	-0.180507
N256	N	1.309269	-0.379012	0.319493
H257	H	0.796637	-0.896719	-0.137562
H258	H	1.296637	-0.396719	0.362438
H259	H	0.802313	-0.920390	-0.316806
H260	H	1.302313	-0.420390	0.183194
H261	H	0.972331	-0.793792	-0.380930
H262	H	1.472331	-0.293792	0.119070
H263	H	0.886905	-0.920001	-0.403713
H264	H	1.386905	-0.420001	0.096287
H265	H	0.890925	-0.792683	-0.405303
H266	H	1.390925	-0.292683	0.094697
N267	N	0.986389	-0.261081	-0.533277
N268	N	1.486389	0.238919	-0.033277
N269	N	1.022191	-0.218841	-0.562486
N270	N	1.522191	0.281159	-0.062486
H271	H	1.051108	-0.184692	-0.538883
H272	H	1.551108	0.315308	-0.038883
H273	H	1.007891	-0.346328	-0.860494
H274	H	1.507891	0.153672	-0.360494
N275	N	0.986606	-0.261213	-1.069168
N276	N	1.486606	0.238787	-0.569168
N277	N	1.022388	-0.218961	-1.039936
N278	N	1.522388	0.281039	-0.539936
H279	H	1.051329	-0.184831	-1.063521
H280	H	1.551329	0.315169	-0.563521
H281	H	0.832809	-0.442711	-1.062452
H282	H	1.332809	0.057289	-0.562452
