data_functionalizedCrystal
_audit_creation_method	'MofGen! by Chris Wilmer'
_symmetry_space_group_name_H-M	'P1'
_symmetry_Int_Tables_number	1
_symmetry_cell_setting	triclinic
loop_
_symmetry_equiv_pos_as_xyz
  x,y,z
_cell_length_a	16.625548
_cell_length_b	16.120484
_cell_length_c	16.625539
_cell_angle_alpha	92.868615
_cell_angle_beta	89.979432
_cell_angle_gamma	92.926626
loop_
_atom_site_label
_atom_site_type_symbol
_atom_site_fract_x
_atom_site_fract_y
_atom_site_fract_z
Zn1	Zn	1.216388	-0.331882	-0.472167
Zn2	Zn	1.209447	-0.471307	-0.344164
Zn3	Zn	1.081548	-0.331914	-0.337349
Zn4	Zn	1.074678	-0.471259	-0.478951
O5	O	1.145515	-0.401591	-0.408158
O6	O	1.328299	-0.350384	-0.455200
O7	O	1.192451	-0.452849	-0.230429
O8	O	1.105215	-0.215244	-0.349541
O9	O	1.323200	-0.452819	-0.361156
O10	O	1.204281	-0.215221	-0.448592
O11	O	1.098484	-0.350438	-0.225422
O12	O	0.967805	-0.350392	-0.356120
O13	O	1.093506	-0.452737	-0.590882
O14	O	0.962757	-0.452768	-0.460155
O15	O	1.197620	-0.350338	-0.585898
O16	O	1.185789	-0.587966	-0.367735
O17	O	1.086775	-0.587931	-0.466763
C18	C	0.936025	-0.401579	-0.408135
C19	C	0.846403	-0.401594	-0.408145
C20	C	0.518227	-0.401599	-0.408180
C21	C	0.609536	-0.401595	-0.408167
C22	C	0.682312	-0.401597	-0.408162
C23	C	0.773627	-0.401592	-0.408150
C24	C	1.134805	-0.618199	-0.418742
C25	C	1.130297	-0.710865	-0.423297
C26	C	1.122072	-0.880527	-0.431630
C27	C	1.169103	-0.921814	-0.384698
C28	C	1.164526	-1.016220	-0.389335
C29	C	1.126648	-0.786113	-0.426995
C30	C	1.355823	-0.401603	-0.408181
C31	C	1.445444	-0.401609	-0.408192
C32	C	1.145571	-0.401529	-0.618464
C33	C	1.145594	-0.401502	-0.708084
C34	C	1.156289	-0.184136	-0.397549
C35	C	1.160880	-0.091470	-0.393029
C36	C	1.145636	-0.401409	-1.036255
C37	C	1.145622	-0.401437	-0.944948
C38	C	1.145616	-0.401456	-0.872172
C39	C	1.145601	-0.401483	-0.780859
C40	C	1.145509	-0.401592	-0.198667
C41	C	1.145653	-0.401384	-0.109036
H42	H	1.212805	-0.886260	-0.341036
H43	H	1.078373	-0.916078	-0.475288
