data_functionalizedCrystal
_audit_creation_method	'MofGen! by Chris Wilmer'
_symmetry_space_group_name_H-M	'P1'
_symmetry_Int_Tables_number	1
_symmetry_cell_setting	triclinic
loop_
_symmetry_equiv_pos_as_xyz
  x,y,z
_cell_length_a	16.625548
_cell_length_b	12.827892
_cell_length_c	16.625539
_cell_angle_alpha	89.979703
_cell_angle_beta	90.017055
_cell_angle_gamma	89.981601
loop_
_atom_site_label
_atom_site_type_symbol
_atom_site_fract_x
_atom_site_fract_y
_atom_site_fract_z
Zn1	Zn	1.232681	0.416021	0.455944
Zn2	Zn	1.232605	0.590778	0.321125
Zn3	Zn	1.097851	0.416055	0.321124
Zn4	Zn	1.097826	0.590724	0.455915
O5	O	1.165241	0.503394	0.388527
O6	O	1.345504	0.439211	0.438072
O7	O	1.214708	0.567637	0.208293
O8	O	1.115780	0.269814	0.339020
O9	O	1.345447	0.567604	0.339022
O10	O	1.214839	0.269789	0.438071
O11	O	1.115706	0.439269	0.208292
O12	O	0.985016	0.439216	0.338992
O13	O	1.115736	0.567512	0.568752
O14	O	0.984997	0.567545	0.438023
O15	O	1.214814	0.439158	0.568772
O16	O	1.214683	0.737007	0.338994
O17	O	1.115662	0.736967	0.438024
C18	C	1.165183	0.774904	0.388524
C19	C	1.165232	0.891057	0.388549
C20	C	0.955750	0.503379	0.388505
C21	C	0.866129	0.503398	0.388514
C22	C	1.214288	0.942827	0.339602
C23	C	1.214340	1.062877	0.339628
C24	C	0.537953	0.503405	0.388549
C25	C	0.629262	0.503400	0.388536
C26	C	0.702038	0.503402	0.388531
C27	C	0.793352	0.503396	0.388520
C28	C	1.375550	0.503410	0.388550
C29	C	1.465171	0.503417	0.388560
C30	C	1.165280	0.503325	0.598836
C31	C	1.165297	0.503296	0.688457
C32	C	1.165314	1.230824	0.388558
C33	C	1.165328	1.114671	0.388597
C34	C	1.165248	0.503388	0.179036
C35	C	1.165387	0.503123	0.089416
C36	C	1.165310	0.503273	0.761240
C37	C	1.165329	0.503234	0.852548
C38	C	1.165348	0.503197	0.925325
C39	C	1.165368	0.503159	1.016639
H40	H	1.256337	1.107398	0.297720
O41	O	1.115261	1.061687	0.438707
C42	C	1.132841	1.088176	0.519110
H43	H	1.163814	1.167414	0.520882
H44	H	1.174297	1.026700	0.546248
C45	C	1.016165	0.995795	0.565711
C46	C	1.054200	1.093121	0.567887
H47	H	0.967657	0.998841	0.595801
H48	H	1.004322	0.977945	0.511543
H49	H	1.050720	0.944575	0.588324
H50	H	1.019650	1.144335	0.545265
H51	H	1.066036	1.110979	0.622053
O52	O	1.264233	0.889635	0.289499
C53	C	1.218287	0.826573	0.237426
H54	H	1.154824	0.859608	0.232371
H55	H	1.215400	0.743877	0.262397
C56	C	1.335676	0.784194	0.159851
C57	C	1.257730	0.824774	0.153637
H58	H	1.360007	0.783080	0.108166
H59	H	1.366631	0.826677	0.194935
H60	H	1.333259	0.715285	0.180663
H61	H	1.260149	0.893686	0.132835
H62	H	1.226776	0.782302	0.118547
H63	H	1.123276	0.935612	0.430476
