data_functionalizedCrystal
_audit_creation_method	'MofGen! by Chris Wilmer'
_symmetry_space_group_name_H-M	'P1'
_symmetry_Int_Tables_number	1
_symmetry_cell_setting	triclinic
loop_
_symmetry_equiv_pos_as_xyz
  x,y,z
_cell_length_a	14.971486
_cell_length_b	14.971496
_cell_length_c	12.376903
_cell_angle_alpha	77.345530
_cell_angle_beta	77.351131
_cell_angle_gamma	83.616127
loop_
_atom_site_label
_atom_site_type_symbol
_atom_site_fract_x
_atom_site_fract_y
_atom_site_fract_z
O1	O	-1.171658	-0.101254	-0.093872
O2	O	-0.911253	-0.115208	-0.093903
O3	O	-1.048432	0.021967	-0.093877
O4	O	-1.034479	-0.238429	-0.093899
O5	O	-1.079043	-0.008687	0.094123
O6	O	-0.941864	-0.145861	0.094096
O7	O	-1.202269	-0.131907	0.094128
Zn8	Zn	-1.076927	-0.143751	0.123961
Zn9	Zn	-1.036596	-0.103364	-0.123737
O10	O	-1.065090	-0.269082	0.094101
C11	C	-0.893234	-0.129910	0.000093
C12	C	-0.793935	-0.128037	0.000081
C13	C	-1.063113	0.039965	0.000123
C14	C	-1.061238	0.139261	0.000123
C15	C	-1.220289	-0.117205	0.000129
C16	C	-1.319586	-0.119077	0.000133
C17	C	-1.050410	-0.287080	0.000099
C18	C	-1.052283	-0.386375	0.000091
C19	C	-0.736711	-0.208625	0.000076
C20	C	-0.643414	-0.206865	0.000093
C21	C	-0.607342	-0.124514	0.000107
C22	C	-0.664573	-0.043921	0.000116
C23	C	-0.757869	-0.045683	0.000107
C24	C	-0.470113	-0.040252	0.000132
C25	C	-0.376810	-0.038489	0.000138
C26	C	-0.355658	-0.201434	0.000118
C27	C	-0.448954	-0.203196	0.000109
C28	C	-0.506179	-0.122602	0.000115
N29	N	-1.104459	-0.171314	0.293008
C30	C	-1.036479	0.583679	-0.102386
C31	C	-1.038246	0.490379	-0.102380
C32	C	-1.055810	0.427026	0.000103
C33	C	-1.071617	0.456977	0.102587
C34	C	-1.069856	0.550277	0.102581
C35	C	-1.075283	0.262513	0.102593
C36	C	-1.077042	0.169207	0.102600
C37	C	-1.043672	0.202616	-0.102368
C38	C	-1.041912	0.295915	-0.102374
C39	C	-1.057718	0.325860	0.000111
C40	C	-0.945119	-0.011817	0.648058
C41	C	-0.925836	0.007476	0.529726
C42	C	-0.970490	-0.037220	0.470541
C43	C	-1.034431	-0.101212	0.529699
C44	C	-1.053722	-0.120502	0.648043
C45	C	-1.079092	-0.145905	0.470525
C46	C	-1.143034	-0.209897	0.529684
C47	C	-1.162321	-0.229184	0.648016
C48	C	-1.117667	-0.184488	0.707201
C49	C	-1.059801	-0.126615	0.352182
C50	C	-1.168404	-0.235300	0.352166
C51	C	-1.187688	-0.254593	0.470498
N52	N	-1.009064	-0.075803	0.707216
H53	H	-0.766074	-0.275684	0.000064
Cl54	Cl	-0.619225	0.059606	0.000140
Cl55	Cl	-0.979421	-0.046171	0.277826
H56	H	-0.954784	-0.021508	0.374189
H57	H	-1.204766	-0.271694	0.303978
Cl58	Cl	-0.283720	-0.302753	0.000112
H59	H	-0.596826	-0.272488	0.000088
H60	H	-0.478320	-0.270252	0.000087
H61	H	-0.347443	0.028568	0.000151
Cl62	Cl	-1.099144	0.089566	0.231438
Cl63	Cl	-0.542051	0.061068	0.000142
H64	H	-0.804460	0.019940	0.000110
Cl65	Cl	-0.845432	0.087895	0.455364
H66	H	-1.022169	0.635256	-0.185839
H67	H	-1.025379	0.466003	-0.185827
Cl68	Cl	-1.141899	-0.208748	0.855968
Cl69	Cl	-0.888995	0.044368	0.722467
H70	H	-1.027605	0.347495	-0.185825
H71	H	-1.030796	0.178230	-0.185815
H72	H	-1.214394	-0.281282	0.696179
Cl73	Cl	-1.268068	-0.335039	0.544882
Cl74	Cl	-1.095158	0.300157	0.231434
H75	H	-1.085923	0.405388	0.186031
H76	H	-1.082725	0.574656	0.186028
