data_functionalizedCrystal
_audit_creation_method	'MofGen! by Chris Wilmer'
_symmetry_space_group_name_H-M	'P1'
_symmetry_Int_Tables_number	1
_symmetry_cell_setting	triclinic
loop_
_symmetry_equiv_pos_as_xyz
  x,y,z
_cell_length_a	7.681481
_cell_length_b	16.992694
_cell_length_c	16.992695
_cell_angle_alpha	89.331777
_cell_angle_beta	96.129649
_cell_angle_gamma	96.126470
loop_
_atom_site_label
_atom_site_type_symbol
_atom_site_fract_x
_atom_site_fract_y
_atom_site_fract_z
O1	O	0.146212	-1.043879	0.173887
O2	O	0.646212	-0.543879	0.673887
O3	O	0.146264	-0.815477	0.172058
O4	O	0.646264	-0.315477	0.672058
O5	O	0.146224	-0.928763	0.058772
O6	O	0.646224	-0.428763	0.558772
O7	O	0.146252	-0.930593	0.287173
O8	O	0.646252	-0.430593	0.787173
O9	O	-0.146638	-0.942716	0.044806
O10	O	0.353362	-0.442716	0.544806
O11	O	-0.146599	-0.829429	0.158092
O12	O	0.353401	-0.329429	0.658092
O13	O	-0.146650	-1.057832	0.159921
O14	O	0.353350	-0.557832	0.659921
Zn15	Zn	-0.193123	-0.945846	0.156789
Zn16	Zn	0.306877	-0.445846	0.656789
Zn17	Zn	0.192736	-0.927463	0.175190
Zn18	Zn	0.692736	-0.427463	0.675190
O19	O	-0.146611	-0.944546	0.273207
O20	O	0.353389	-0.444546	0.773207
C21	C	-0.000161	-0.793093	0.162720
C22	C	0.499839	-0.293093	0.662720
C23	C	-0.000141	-0.705607	0.155692
C24	C	0.499859	-0.205607	0.655692
N25	N	-0.456461	-0.958398	0.144231
N26	N	0.043539	-0.458398	0.644231
C27	C	-0.000206	-0.933384	0.022429
C28	C	0.499794	-0.433384	0.522429
C29	C	-0.000204	-0.926355	-0.065056
C30	C	0.499796	-0.426355	0.434944
N31	N	0.456075	-0.914917	0.187743
N32	N	0.956075	-0.414917	0.687743
C33	C	-0.000222	-1.080216	0.169260
C34	C	0.499778	-0.580216	0.669260
C35	C	-0.000230	-1.167701	0.176288
C36	C	0.499770	-0.667701	0.676288
C37	C	-0.000135	-0.659616	0.223510
C38	C	0.499865	-0.159616	0.723510
C39	C	-0.000160	-0.577416	0.216900
C40	C	0.499840	-0.077416	0.716900
C41	C	-0.000179	-0.541209	0.142472
C42	C	0.499821	-0.041209	0.642472
C43	C	-0.000191	-0.587207	0.074648
C44	C	0.499809	-0.087207	0.574648
C45	C	-0.000178	-0.669405	0.081258
C46	C	0.499822	-0.169405	0.581258
C47	C	-0.000229	-0.295897	0.115075
C48	C	0.499771	0.204103	0.615075
C49	C	-0.000236	-0.213692	0.108470
C50	C	0.499764	0.286308	0.608470
C51	C	-0.000208	-0.203908	0.250722
C52	C	0.499792	0.296092	0.750722
C53	C	-0.000185	-0.286108	0.257327
C54	C	0.499815	0.213892	0.757327
C55	C	-0.000207	-0.332099	0.189503
C56	C	0.499793	0.167901	0.689503
N57	N	-0.000199	-0.457188	0.135713
N58	N	0.499801	0.042812	0.635713
N59	N	-0.000199	-0.416119	0.196261
N60	N	0.499801	0.083881	0.696261
C61	C	-0.000221	-0.994174	-0.111047
C62	C	0.499779	-0.494174	0.388953
C63	C	-0.000203	-0.987564	-0.193247
C64	C	0.499797	-0.487564	0.306753
C65	C	-0.000180	-0.913135	-0.229455
C66	C	0.499820	-0.413135	0.270545
C67	C	-0.000158	-0.845311	-0.183456
C68	C	0.499842	-0.345311	0.316544
C69	C	-0.000163	-0.851921	-0.101258
C70	C	0.499837	-0.351921	0.398742
C71	C	-0.000150	-0.885739	-0.474767
C72	C	0.499850	-0.385739	0.025233
C73	C	-0.000150	-0.879135	-0.556973
C74	C	0.499850	-0.379135	-0.056973
C75	C	-0.000192	-1.021388	-0.566758
C76	C	0.499808	-0.521388	-0.066758
C77	C	-0.000208	-1.027992	-0.484557
C78	C	0.499792	-0.527992	0.015443
C79	C	-0.000176	-0.960167	-0.438566
C80	C	0.499824	-0.460167	0.061434
N81	N	-0.000167	-0.906377	-0.313476
N82	N	0.499833	-0.406377	0.186524
N83	N	-0.000177	-0.966925	-0.354545
N84	N	0.499823	-0.466925	0.145455
C85	C	-0.000176	-0.939925	0.309551
C86	C	0.499824	-0.439925	0.809551
C87	C	-0.000167	-0.946953	0.397036
C88	C	0.499833	-0.446953	0.897036
H89	H	-0.531674	-1.002789	0.099824
H90	H	-0.031674	-0.502789	0.599824
H91	H	-0.468704	-0.870529	0.232158
H92	H	0.031296	-0.370529	0.732158
H93	H	-0.000159	-0.818524	-0.586451
H94	H	0.499841	-0.318524	-0.086451
H95	H	-0.000118	-0.689090	0.284118
H96	H	0.499882	-0.189090	0.784118
Br97	Br	-0.000097	-0.744298	-0.232592
Br98	Br	0.499903	-0.244298	0.267408
H99	H	-0.000250	-0.184215	0.047858
H100	H	0.499750	0.315785	0.547858
H101	H	-0.000214	-1.076606	-0.604212
H102	H	0.499786	-0.576606	-0.104212
H103	H	-0.000152	-0.539973	0.272125
H104	H	0.499848	-0.039973	0.772125
Br105	Br	-0.000235	-0.538070	-0.026365
Br106	Br	0.499765	-0.038070	0.473635
H107	H	-0.000149	-0.315581	0.317935
H108	H	0.499851	0.184419	0.817935
Br109	Br	-0.000182	-0.141488	0.342764
Br110	Br	0.499818	0.358512	0.842764
H111	H	-0.000248	-0.333333	0.059847
H112	H	0.499752	0.166667	0.559847
Br113	Br	-0.000126	-0.759877	-0.038838
Br114	Br	0.499874	-0.259877	0.461162
Br115	Br	-0.000226	-1.079608	-0.255662
Br116	Br	0.499774	-0.579608	0.244338
Br117	Br	-0.000278	-1.095190	-0.061919
Br118	Br	0.499722	-0.595190	0.438081
Br119	Br	-0.000182	-1.129003	-0.435422
Br120	Br	0.499818	-0.629003	0.064578
H121	H	-0.000183	-0.706851	0.026033
H122	H	0.499817	-0.206851	0.526033
H123	H	-0.000125	-0.830511	-0.437331
H124	H	0.499875	-0.330511	0.062669
