data_functionalizedCrystal
_audit_creation_method	'MofGen! by Chris Wilmer'
_symmetry_space_group_name_H-M	'P1'
_symmetry_Int_Tables_number	1
_symmetry_cell_setting	triclinic
loop_
_symmetry_equiv_pos_as_xyz
  x,y,z
_cell_length_a	14.971486
_cell_length_b	16.992695
_cell_length_c	13.448316
_cell_angle_alpha	89.993283
_cell_angle_beta	89.998199
_cell_angle_gamma	87.141176
loop_
_atom_site_label
_atom_site_type_symbol
_atom_site_fract_x
_atom_site_fract_y
_atom_site_fract_z
O1	O	1.194127	0.102190	-0.082578
O2	O	1.694127	0.602190	0.417422
O3	O	0.934587	0.114427	-0.082605
O4	O	1.434587	0.614427	0.417395
O5	O	1.063317	-0.005835	-0.082584
O6	O	1.563317	0.494165	0.417416
O7	O	1.065398	0.222452	-0.082599
O8	O	1.565398	0.722452	0.417401
O9	O	1.063299	-0.005843	0.082800
O10	O	1.563299	0.494157	0.582800
O11	O	0.934569	0.114420	0.082779
O12	O	1.434569	0.614420	0.582779
O13	O	1.194110	0.102182	0.082806
O14	O	1.694110	0.602182	0.582806
Cu15	Cu	1.064338	0.108300	0.097893
Cu16	Cu	1.564338	0.608300	0.597893
Cu17	Cu	1.064359	0.108309	-0.097692
Cu18	Cu	1.564359	0.608309	0.402308
O19	O	1.065380	0.222445	0.082785
O20	O	1.565380	0.722445	0.582785
C21	C	0.901215	0.113876	0.000083
C22	C	1.401215	0.613876	0.500083
C23	C	0.801803	0.112236	0.000073
C24	C	1.301803	0.612236	0.500073
C25	C	0.749541	0.182887	0.000070
C26	C	1.249541	0.682887	0.500070
C27	C	0.656133	0.181341	0.000085
C28	C	1.156133	0.681341	0.500085
C29	C	0.614988	0.109144	0.000096
C30	C	1.114988	0.609144	0.500096
C31	C	0.667257	0.038488	0.000102
C32	C	1.167257	0.538488	0.500102
C33	C	0.760663	0.040034	0.000095
C34	C	1.260663	0.540034	0.500095
C35	C	0.472568	0.035269	0.000116
C36	C	0.972568	0.535269	0.500116
C37	C	0.379155	0.033723	0.000122
C38	C	0.879155	0.533723	0.500122
C39	C	0.368038	0.176577	0.000106
C40	C	0.868038	0.676577	0.500106
C41	C	0.461445	0.178123	0.000099
C42	C	0.961445	0.678123	0.500099
C43	C	0.513707	0.107466	0.000103
C44	C	1.013707	0.607466	0.500103
C45	C	1.060631	-0.035054	0.000108
C46	C	1.560631	0.464946	0.500108
C47	C	1.052644	-0.122105	0.000107
C48	C	1.552644	0.377895	0.500107
C49	C	1.129708	-0.172274	0.000116
C50	C	1.629708	0.327726	0.500116
C51	C	1.122198	-0.254067	0.000106
C52	C	1.622198	0.245933	0.500106
C53	C	1.037623	-0.285691	0.000093
C54	C	1.537623	0.214309	0.500093
C55	C	0.960553	-0.235517	0.000081
C56	C	1.460553	0.264483	0.500081
C57	C	0.968064	-0.153724	0.000084
C58	C	1.468064	0.346276	0.500084
C59	C	1.006493	-0.529318	0.000076
C60	C	1.506493	-0.029318	0.500076
C61	C	0.998988	-0.611117	0.000076
C62	C	1.498988	-0.111117	0.500076
C63	C	1.160634	-0.629662	0.000099
C64	C	1.660634	-0.129662	0.500099
C65	C	1.168138	-0.547867	0.000108
C66	C	1.668138	-0.047867	0.500108
C67	C	1.091068	-0.497700	0.000090
C68	C	1.591068	0.002300	0.500090
N69	N	1.029945	-0.369297	0.000086
N70	N	1.529945	0.130703	0.500086
N71	N	1.098747	-0.414095	0.000091
N72	N	1.598747	0.085905	0.500091
C73	C	1.227482	0.102733	0.000115
C74	C	1.727482	0.602733	0.500115
C75	C	1.326894	0.104373	0.000119
C76	C	1.826894	0.604373	0.500119
C77	C	1.068066	0.251664	0.000091
C78	C	1.568066	0.751664	0.500091
C79	C	1.076053	0.338715	0.000085
C80	C	1.576053	0.838715	0.500085
N81	N	1.064329	0.108294	0.235457
N82	N	1.564329	0.608294	0.735457
N83	N	1.064374	0.108310	-0.235257
N84	N	1.564374	0.608310	0.264743
C85	C	1.121351	0.055064	0.287507
C86	C	1.621351	0.555064	0.787507
C87	C	1.121357	0.055063	0.391611
C88	C	1.621357	0.555063	0.891611
C89	C	1.064344	0.108297	0.443662
C90	C	1.564344	0.608297	0.943662
C91	C	1.007316	0.161530	0.391605
C92	C	1.507316	0.661530	0.891605
C93	C	1.007307	0.161526	0.287504
C94	C	1.507307	0.661526	0.787504
C95	C	1.007341	0.161535	0.608585
C96	C	1.507341	0.661535	1.108585
C97	C	1.007352	0.161540	0.712694
C98	C	1.507352	0.661540	1.212694
C99	C	1.121392	0.055072	0.712692
C100	C	1.621392	0.555072	1.212692
C101	C	1.121382	0.055068	0.608591
C102	C	1.621382	0.555068	1.108591
C103	C	1.064355	0.108302	0.556541
C104	C	1.564355	0.608302	1.056541
H105	H	0.783034	0.241679	0.000060
H106	H	1.283034	0.741679	0.500060
C107	C	0.544638	0.262473	-0.084942
C108	C	1.044638	0.762473	0.415058
C109	C	0.598689	0.259004	0.000070
C110	C	1.098689	0.759004	0.500070
H111	H	0.509172	0.310420	-0.084946
H112	H	1.009172	0.810420	0.415054
H113	H	0.581306	0.260105	-0.142606
H114	H	1.081306	0.760105	0.357394
H115	H	0.506767	0.219253	-0.084916
H116	H	1.006767	0.719253	0.415084
H117	H	0.636565	0.302222	0.000041
H118	H	1.136565	0.802222	0.500041
H119	H	0.562017	0.261381	0.057750
H120	H	1.062017	0.761381	0.557750
H121	H	0.960901	0.204881	0.566209
H122	H	1.460901	0.704881	1.066209
H123	H	1.184952	-0.294912	0.000115
H124	H	1.684952	0.205088	0.500115
C125	C	0.280560	-0.050879	0.085167
C126	C	0.780560	0.449121	0.585167
C127	C	0.333928	-0.045638	0.000146
C128	C	0.833928	0.454362	0.500146
H129	H	0.252637	-0.099872	0.085178
H130	H	0.752637	0.400128	0.585178
H131	H	0.316770	-0.047306	0.142825
H132	H	0.816770	0.452694	0.642825
H133	H	0.236070	-0.009018	0.085147
H134	H	0.736070	0.490982	0.585147
H135	H	0.378422	-0.087496	0.000170
H136	H	0.878422	0.412504	0.500170
H137	H	0.297715	-0.049218	-0.057527
H138	H	0.797715	0.450782	0.442473
C139	C	1.327164	-0.574418	0.000129
C140	C	1.827164	-0.074418	0.500129
C141	C	1.261106	-0.513109	0.000123
C142	C	1.761106	-0.013109	0.500123
H143	H	1.384558	-0.552957	0.000137
H144	H	1.884558	-0.052957	0.500137
H145	H	1.320863	-0.605940	0.057794
H146	H	1.820863	-0.105940	0.557794
H147	H	1.320879	-0.605927	-0.057553
H148	H	1.820879	-0.105927	0.442447
H149	H	1.267388	-0.481603	0.057808
H150	H	1.767388	0.018397	0.557808
H151	H	1.267410	-0.481574	-0.057548
H152	H	1.767410	0.018426	0.442452
H153	H	0.891690	-0.261271	0.000065
H154	H	1.391690	0.238729	0.500065
C155	C	0.474179	-0.106095	0.000111
C156	C	0.974179	0.393905	0.500111
C157	C	0.530016	-0.042397	0.000110
C158	C	1.030016	0.457603	0.500110
H159	H	0.509647	-0.154040	0.000096
H160	H	1.009647	0.345960	0.500096
H161	H	0.437524	-0.103735	0.057787
H162	H	0.937524	0.396265	0.557787
H163	H	0.437508	-0.103713	-0.057560
H164	H	0.937508	0.396287	0.442440
H165	H	0.566683	-0.044776	0.057786
H166	H	1.066683	0.455224	0.557786
H167	H	0.566686	-0.044758	-0.057571
H168	H	1.066686	0.455242	0.442429
C169	C	0.798907	-0.081243	-0.084924
C170	C	1.298907	0.418757	0.415076
C171	C	0.818115	-0.037626	0.000090
C172	C	1.318115	0.462374	0.500090
H173	H	0.834381	-0.129186	-0.084925
H174	H	1.334381	0.370814	0.415075
H175	H	0.737398	-0.092497	-0.084911
H176	H	1.237398	0.407503	0.415089
H177	H	0.811931	-0.051630	-0.142593
H178	H	1.311931	0.448370	0.357407
H179	H	0.805085	-0.067236	0.057760
H180	H	1.305085	0.432764	0.557760
H181	H	0.879639	-0.026374	0.000086
H182	H	1.379639	0.473626	0.500086
C183	C	1.269801	-0.162890	-0.084893
C184	C	1.769801	0.337110	0.415107
C185	C	1.222675	-0.137514	0.000124
C186	C	1.722675	0.362486	0.500124
H187	H	1.327194	-0.141427	-0.084893
H188	H	1.827194	0.358573	0.415107
H189	H	1.276356	-0.218775	-0.084886
H190	H	1.776356	0.281225	0.415114
H191	H	1.237818	-0.145663	-0.142560
H192	H	1.737818	0.354337	0.357440
H193	H	1.254656	-0.154746	0.057791
H194	H	1.754656	0.345254	0.557791
H195	H	1.216124	-0.081617	0.000125
H196	H	1.716124	0.418383	0.500125
H197	H	0.325482	0.234108	0.000107
H198	H	0.825482	0.734108	0.500107
H199	H	1.167810	0.011725	0.566210
H200	H	1.667810	0.511725	1.066210
H201	H	0.494942	0.236912	0.000080
H202	H	0.994942	0.736912	0.500080
H203	H	0.905310	-0.112878	0.000077
H204	H	1.405310	0.387122	0.500077
C205	C	1.245974	-0.732388	-0.084918
C206	C	1.745974	-0.232388	0.415082
C207	C	1.245347	-0.684806	0.000104
C208	C	1.745347	-0.184806	0.500104
H209	H	1.298278	-0.766428	-0.084919
H210	H	1.798278	-0.266428	0.415081
H211	H	1.194537	-0.762926	-0.084915
H212	H	1.694537	-0.262926	0.415085
H213	H	1.245547	-0.700078	-0.142582
H214	H	1.745547	-0.200078	0.357418
H215	H	1.245768	-0.717116	0.057768
H216	H	1.745768	-0.217116	0.557768
H217	H	1.296797	-0.654266	0.000110
H218	H	1.796797	-0.154266	0.500110
H219	H	1.167788	0.011718	0.433989
H220	H	1.667788	0.511718	0.933989
C221	C	0.839954	-0.584573	0.000024
C222	C	1.339954	-0.084573	0.500024
C223	C	0.906016	-0.645879	0.000047
C224	C	1.406016	-0.145879	0.500047
H225	H	0.782562	-0.606037	-0.000001
H226	H	1.282562	-0.106037	0.499999
H227	H	0.846226	-0.553064	0.057695
H228	H	1.346226	-0.053064	0.557695
H229	H	0.846266	-0.553051	-0.057651
H230	H	1.346266	-0.053051	0.442349
H231	H	0.899709	-0.677398	0.057726
H232	H	1.399709	-0.177398	0.557726
H233	H	0.899742	-0.677401	-0.057631
H234	H	1.399742	-0.177401	0.442369
H235	H	0.633749	-0.020297	0.000126
H236	H	1.133749	0.479703	0.500126
C237	C	0.921158	-0.426587	-0.084959
C238	C	1.421158	0.073413	0.415041
C239	C	0.921775	-0.474185	0.000062
C240	C	1.421775	0.025815	0.500062
H241	H	0.868850	-0.392553	-0.084968
H242	H	1.368850	0.107447	0.415032
H243	H	0.972591	-0.396044	-0.084946
H244	H	1.472591	0.103956	0.415054
H245	H	0.921601	-0.458886	-0.142623
H246	H	1.421601	0.041114	0.357377
H247	H	0.921339	-0.441886	0.057727
H248	H	1.421339	0.058114	0.557727
H249	H	0.870329	-0.504731	0.000058
H250	H	1.370329	-0.004731	0.500058
C251	C	1.234067	-0.050180	0.297973
C252	C	1.734067	0.449820	0.797973
C253	C	1.184021	-0.003456	0.230297
C254	C	1.684021	0.496544	0.730297
H255	H	1.272751	-0.086312	0.262654
H256	H	1.772751	0.413688	0.762654
H257	H	1.268577	-0.017491	0.338561
H258	H	1.768577	0.482509	0.838561
H259	H	1.194811	-0.078436	0.338591
H260	H	1.694811	0.421564	0.838591
H261	H	1.223277	0.024804	0.189684
H262	H	1.723277	0.524804	0.689684
H263	H	1.149508	-0.036149	0.189692
H264	H	1.649508	0.463851	0.689692
C265	C	1.164251	-0.080608	0.744743
C266	C	1.664251	0.419392	1.244743
C267	C	1.184081	-0.003447	0.769895
C268	C	1.684081	0.496553	1.269895
H269	H	1.202959	-0.116729	0.780056
H270	H	1.702959	0.383271	1.280056
H271	H	1.103956	-0.089213	0.761823
H272	H	1.603956	0.410787	1.261823
H273	H	1.172404	-0.088213	0.675292
H274	H	1.672404	0.411787	1.175292
H275	H	1.175921	0.004161	0.839345
H276	H	1.675921	0.504161	1.339345
H277	H	1.244390	0.005162	0.752821
H278	H	1.744390	0.505162	1.252821
C279	C	0.894595	0.266754	0.702244
C280	C	1.394595	0.766754	1.202244
C281	C	0.944666	0.220040	0.769911
C282	C	1.444666	0.720040	1.269911
H283	H	0.855888	0.302863	0.737571
H284	H	1.355888	0.802863	1.237571
H285	H	0.933829	0.295028	0.661637
H286	H	1.433829	0.795028	1.161637
H287	H	0.860099	0.234049	0.661646
H288	H	1.360099	0.734049	1.161646
H289	H	0.979167	0.252745	0.810505
H290	H	1.479167	0.752745	1.310505
H291	H	0.905427	0.191764	0.810536
H292	H	1.405427	0.691764	1.310536
C293	C	0.886812	0.178371	0.508701
C294	C	1.386812	0.678371	1.008701
C295	C	0.944647	0.220044	0.448823
C296	C	1.444647	0.720044	0.948823
H297	H	0.848128	0.214498	0.544028
H298	H	1.348128	0.714498	1.044028
H299	H	0.852302	0.145689	0.468103
H300	H	1.352302	0.645689	0.968103
H301	H	0.920786	0.146671	0.554594
H302	H	1.420786	0.646671	1.054594
H303	H	0.910673	0.251740	0.402925
H304	H	1.410673	0.751740	0.902925
H305	H	0.979161	0.252739	0.489424
H306	H	1.479161	0.752739	0.989424
C307	C	0.894594	0.266772	0.297955
C308	C	1.394594	0.766772	0.797955
C309	C	0.944631	0.220042	0.230286
C310	C	1.444631	0.720042	0.730286
H311	H	0.855902	0.302899	0.262630
H312	H	1.355902	0.802899	0.762630
H313	H	0.860092	0.234086	0.338568
H314	H	1.360092	0.734086	0.838568
H315	H	0.933856	0.295033	0.338548
H316	H	1.433856	0.795033	0.838548
H317	H	0.905369	0.191777	0.189698
H318	H	1.405369	0.691777	0.689698
H319	H	0.979135	0.252733	0.189656
H320	H	1.479135	0.752733	0.689656
