data_functionalizedCrystal
_audit_creation_method	'MofGen! by Chris Wilmer'
_symmetry_space_group_name_H-M	'P1'
_symmetry_Int_Tables_number	1
_symmetry_cell_setting	triclinic
loop_
_symmetry_equiv_pos_as_xyz
  x,y,z
_cell_length_a	12.827893
_cell_length_b	12.827892
_cell_length_c	12.827893
_cell_angle_alpha	90.007263
_cell_angle_beta	90.003786
_cell_angle_gamma	90.015362
loop_
_atom_site_label
_atom_site_type_symbol
_atom_site_fract_x
_atom_site_fract_y
_atom_site_fract_z
Zn1	Zn	1.597510	-0.416216	0.590848
Zn2	Zn	2.097510	0.083784	1.090848
Zn3	Zn	1.597451	-0.590924	0.416109
Zn4	Zn	2.097451	-0.090924	0.916109
Zn5	Zn	1.422798	-0.416198	0.416122
Zn6	Zn	1.922798	0.083802	0.916122
Zn7	Zn	1.422737	-0.590915	0.590808
Zn8	Zn	1.922737	-0.090915	1.090808
O9	O	1.510124	-0.503563	0.503472
O10	O	2.010124	-0.003563	1.003472
O11	O	1.743738	-0.439402	0.567680
O12	O	2.243738	0.060598	1.067680
O13	O	1.574285	-0.567743	0.269874
O14	O	2.074285	-0.067743	0.769874
O15	O	1.446025	-0.269964	0.439322
O16	O	1.946025	0.230036	0.939322
O17	O	1.743695	-0.567760	0.439299
O18	O	2.243695	-0.067760	0.939299
O19	O	1.574384	-0.269977	0.567693
O20	O	2.074384	0.230023	1.067693
O21	O	1.445968	-0.439372	0.269884
O22	O	1.945968	0.060628	0.769884
O23	O	1.276554	-0.439363	0.439283
O24	O	1.776554	0.060637	0.939283
O25	O	1.445919	-0.567745	0.737050
O26	O	1.945919	-0.067745	1.237050
O27	O	1.276509	-0.567727	0.567625
O28	O	1.776509	-0.067727	1.067625
O29	O	1.574324	-0.439393	0.737079
O30	O	2.074324	0.060607	1.237079
O31	O	1.574224	-0.737159	0.439261
O32	O	2.074224	-0.237159	0.939261
O33	O	1.445862	-0.737152	0.567612
O34	O	1.945862	-0.237152	1.067612
C35	C	1.238614	-0.503543	0.503452
C36	C	1.738614	-0.003543	1.003452
C37	C	1.122461	-0.503560	0.503468
C38	C	1.622461	-0.003560	1.003468
C39	C	1.070681	-0.567177	0.566878
C40	C	1.570681	-0.067177	1.066878
C41	C	0.950631	-0.567196	0.566896
C42	C	1.450631	-0.067196	1.066896
C43	C	1.510059	-0.775073	0.503453
C44	C	2.010059	-0.275073	1.003453
C45	C	1.510126	-0.891226	0.503480
C46	C	2.010126	-0.391226	1.003480
C47	C	1.573719	-0.942980	0.440039
C48	C	2.073719	-0.442980	0.940039
C49	C	1.573791	-1.063030	0.440065
C50	C	2.073791	-0.563030	0.940065
C51	C	1.782694	-0.503584	0.503492
C52	C	2.282694	-0.003584	1.003492
C53	C	1.898847	-0.503593	0.503501
C54	C	2.398847	-0.003593	1.003501
C55	C	1.510121	-0.503570	0.776042
C56	C	2.010121	-0.003570	1.276042
C57	C	1.510120	-0.503573	0.892195
C58	C	2.010120	-0.003573	1.392195
C59	C	1.510218	-0.230993	0.503513
C60	C	2.010218	0.269007	1.003513
C61	C	1.510258	-0.114840	0.503531
C62	C	2.010258	0.385160	1.003531
C63	C	1.573652	-0.440069	0.943994
C64	C	2.073652	0.059931	1.443994
C65	C	1.573653	-0.440070	1.064045
C66	C	2.073653	0.059930	1.564045
C67	C	1.510119	-0.503580	1.231962
C68	C	2.010119	-0.003580	1.731962
C69	C	1.510120	-0.503577	1.115809
C70	C	2.010120	-0.003577	1.615809
H71	H	0.943370	-0.449128	0.449207
H72	H	1.443370	0.050872	0.949207
O73	O	1.129690	-0.639292	0.638781
O74	O	1.629690	-0.139292	1.138781
H75	H	1.108798	-0.721309	0.620759
H76	H	1.608798	-0.221309	1.120759
H77	H	1.455739	-0.935795	0.557819
H78	H	1.955739	-0.435795	1.057819
O79	O	1.438131	-1.055892	0.575475
O80	O	1.938131	-0.555892	1.075475
H81	H	1.356124	-1.076852	0.557491
H82	H	1.856124	-0.576852	1.057491
H83	H	1.628116	-0.898413	0.385707
H84	H	2.128116	-0.398413	0.885707
H85	H	1.628232	-1.107537	0.385748
H86	H	2.128232	-0.607537	0.885748
O87	O	1.063457	-0.431447	0.431559
O88	O	1.563457	0.068553	0.931559
H89	H	1.013731	-0.378410	0.478464
H90	H	1.513731	0.121590	0.978464
H91	H	1.628040	-0.385696	0.899465
H92	H	2.128040	0.114304	1.399465
O93	O	1.645689	-0.368028	1.123037
O94	O	2.145689	0.131972	1.623037
H95	H	1.634371	-0.379320	1.208071
H96	H	2.134371	0.120680	1.708071
H97	H	1.455729	-0.557952	1.071270
H98	H	1.955729	-0.057952	1.571270
H99	H	1.455722	-0.557935	0.936725
H100	H	1.955722	-0.057935	1.436725
O101	O	0.891607	-0.639387	0.638729
O102	O	1.391607	-0.139387	1.138729
H103	H	0.912485	-0.721375	0.620616
H104	H	1.412485	-0.221375	1.120616
