data_functionalizedCrystal
_audit_creation_method	'MofGen! by Chris Wilmer'
_symmetry_space_group_name_H-M	'P1'
_symmetry_Int_Tables_number	1
_symmetry_cell_setting	triclinic
loop_
_symmetry_equiv_pos_as_xyz
  x,y,z
_cell_length_a	18.050589
_cell_length_b	18.050591
_cell_length_c	15.296720
_cell_angle_alpha	99.657105
_cell_angle_beta	99.646980
_cell_angle_gamma	90.024669
loop_
_atom_site_label
_atom_site_type_symbol
_atom_site_fract_x
_atom_site_fract_y
_atom_site_fract_z
Zn1	Zn	-0.368396	1.062586	-0.510205
Zn2	Zn	-0.035063	1.395920	-0.176872
Zn3	Zn	0.298270	1.729253	0.156461
Zn4	Zn	-0.471110	1.083992	-0.359365
Zn5	Zn	-0.137777	1.417326	-0.026032
Zn6	Zn	0.195557	1.750659	0.307302
Zn7	Zn	-0.346930	0.959902	-0.359358
Zn8	Zn	-0.013596	1.293235	-0.026025
Zn9	Zn	0.319737	1.626569	0.307309
Zn10	Zn	-0.492534	0.938361	-0.510154
Zn11	Zn	-0.159201	1.271694	-0.176820
Zn12	Zn	0.174133	1.605028	0.156513
O13	O	-0.419743	1.011210	-0.434770
O14	O	-0.086409	1.344544	-0.101437
O15	O	0.246924	1.677877	0.231896
O16	O	-0.382040	1.169347	-0.490221
O17	O	-0.048706	1.502680	-0.156887
O18	O	0.284627	1.836014	0.176446
O19	O	-0.436687	1.085505	-0.233128
O20	O	-0.103354	1.418838	0.100205
O21	O	0.229979	1.752172	0.433538
O22	O	-0.245855	0.973580	-0.379387
O23	O	0.087478	1.306913	-0.046053
O24	O	0.420811	1.640246	0.287280
O25	O	-0.457503	1.185074	-0.379399
O26	O	-0.124169	1.518407	-0.046066
O27	O	0.209164	1.851741	0.287268
O28	O	-0.261627	1.049022	-0.490214
O29	O	0.071706	1.382355	-0.156880
O30	O	0.405040	1.715688	0.176453
O31	O	-0.345453	0.994336	-0.233123
O32	O	-0.012119	1.327670	0.100210
O33	O	0.321214	1.661003	0.433544
O34	O	-0.366227	0.853123	-0.379337
O35	O	-0.032893	1.186457	-0.046003
O36	O	0.300440	1.519790	0.287330
O37	O	-0.494017	0.936866	-0.636396
O38	O	-0.160684	1.270200	-0.303063
O39	O	0.172650	1.603533	0.030271
O40	O	-0.473201	0.837297	-0.490126
O41	O	-0.139868	1.170631	-0.156792
O42	O	0.193465	1.503964	0.176541
O43	O	-0.402814	1.028134	-0.636434
O44	O	-0.069480	1.361467	-0.303101
O45	O	0.263853	1.694801	0.030233
O46	O	-0.577874	1.064618	-0.379349
O47	O	-0.244541	1.397951	-0.046015
O48	O	0.088793	1.731284	0.287318
O49	O	-0.593614	0.957623	-0.490132
O50	O	-0.260281	1.290956	-0.156799
O51	O	0.073053	1.624289	0.176534
C52	C	-0.419710	0.818265	-0.434725
C53	C	-0.086377	1.151598	-0.101392
C54	C	0.246957	1.484931	0.231941
C55	C	-0.419717	0.735719	-0.434727
C56	C	-0.086384	1.069052	-0.101394
C57	C	0.246950	1.402385	0.231939
C58	C	-0.612693	1.011123	-0.434755
C59	C	-0.279359	1.344456	-0.101422
C60	C	0.053974	1.677790	0.231911
C61	C	-0.695242	1.011149	-0.434779
C62	C	-0.361908	1.344482	-0.101446
C63	C	-0.028575	1.677816	0.231887
C64	C	-0.361513	0.495457	-0.374623
C65	C	-0.028180	0.828791	-0.041290
C66	C	0.305154	1.162124	0.292044
C67	C	-0.355150	0.533158	-0.456948
C68	C	-0.021816	0.866491	-0.123615
C69	C	0.311517	1.199824	0.209719
C70	C	-0.419765	0.438588	-0.434801
C71	C	-0.086432	0.771921	-0.101468
C72	C	0.246901	1.105254	0.231865
C73	C	-0.426071	0.547974	-0.352445
C74	C	-0.092737	0.881307	-0.019111
C75	C	0.240596	1.214640	0.314222
C76	C	-0.419739	0.584579	-0.434761
C77	C	-0.086406	0.917912	-0.101427
C78	C	0.246927	1.251245	0.231906
C79	C	-0.413373	0.475195	-0.517170
C80	C	-0.080040	0.808528	-0.183837
C81	C	0.253293	1.141861	0.149497
C82	C	-0.484318	0.490014	-0.412611
C83	C	-0.150985	0.823347	-0.079278
C84	C	0.182349	1.156681	0.254055
C85	C	-0.477988	0.527684	-0.494993
C86	C	-0.144655	0.861017	-0.161660
C87	C	0.188678	1.194351	0.171674
C88	C	-0.419779	0.354486	-0.434823
C89	C	-0.086445	0.687820	-0.101490
C90	C	0.246888	1.021153	0.231843
C91	C	-0.419728	0.668677	-0.434748
C92	C	-0.086394	1.002010	-0.101414
C93	C	0.246939	1.335344	0.231919
C94	C	-0.903276	0.953017	-0.495002
C95	C	-0.569943	1.286350	-0.161669
C96	C	-0.236609	1.619684	0.171664
C97	C	-0.940992	0.946650	-0.412685
C98	C	-0.607659	1.279983	-0.079351
C99	C	-0.274325	1.613316	0.253982
C100	C	-0.846374	1.011220	-0.434791
C101	C	-0.513040	1.344554	-0.101458
C102	C	-0.179707	1.677887	0.231876
C103	C	-0.955741	1.017623	-0.517118
C104	C	-0.622407	1.350956	-0.183785
C105	C	-0.289074	1.684289	0.149548
C106	C	-0.992362	1.011287	-0.434810
C107	C	-0.659028	1.344620	-0.101476
C108	C	-0.325695	1.677953	0.231857
C109	C	-0.882997	1.004824	-0.352430
C110	C	-0.549663	1.338157	-0.019096
C111	C	-0.216330	1.671490	0.314237
C112	C	-0.897749	1.075820	-0.456919
C113	C	-0.564415	1.409154	-0.123585
C114	C	-0.231082	1.742487	0.209748
C115	C	-0.935434	1.069487	-0.374544
C116	C	-0.602101	1.402820	-0.041211
C117	C	-0.268768	1.736153	0.292122
C118	C	-0.762274	1.011180	-0.434781
C119	C	-0.428941	1.344513	-0.101448
C120	C	-0.095607	1.677847	0.231885
C121	C	-1.076458	1.011329	-0.434810
C122	C	-0.743125	1.344662	-0.101477
C123	C	-0.409791	1.677995	0.231857
C124	C	-0.226042	1.011316	-0.434805
C125	C	0.107291	1.344649	-0.101472
C126	C	0.440625	1.677982	0.231861
C127	C	-0.143498	1.011361	-0.434820
C128	C	0.189835	1.344694	-0.101487
C129	C	0.523168	1.678027	0.231847
C130	C	-0.453200	0.977710	-0.670062
C131	C	-0.119866	1.311043	-0.336728
C132	C	0.213467	1.644376	-0.003395
C133	C	-0.467457	0.963434	-0.770329
C134	C	-0.134124	1.296767	-0.436996
C135	C	0.199210	1.630100	-0.103662
C136	C	-0.419776	1.204909	-0.434816
C137	C	-0.086443	1.538243	-0.101483
C138	C	0.246891	1.871576	0.231850
C139	C	-0.419790	1.287452	-0.434836
C140	C	-0.086457	1.620786	-0.101502
C141	C	0.246877	1.954119	0.231831
C142	C	-0.317713	1.113271	-1.053045
C143	C	0.015621	1.446605	-0.719711
C144	C	0.348954	1.779938	-0.386378
C145	C	-0.304319	1.126689	-0.958839
C146	C	0.029015	1.460022	-0.625505
C147	C	0.362348	1.793356	-0.292172
C148	C	-0.345102	1.085876	-0.911707
C149	C	-0.011768	1.419209	-0.578373
C150	C	0.321565	1.752543	-0.245040
C151	C	-0.399282	1.031644	-0.958790
C152	C	-0.065949	1.364977	-0.625456
C153	C	0.267385	1.698310	-0.292123
C154	C	-0.412682	1.018229	-1.053005
C155	C	-0.079348	1.351562	-0.719672
C156	C	0.253985	1.684895	-0.386338
C157	C	-0.440071	0.990833	-0.911667
C158	C	-0.106737	1.324167	-0.578334
C159	C	0.226596	1.657500	-0.245000
C160	C	-0.494251	0.936601	-0.958750
C161	C	-0.160918	1.269934	-0.625417
C162	C	0.172416	1.603268	-0.292083
C163	C	-0.507648	0.923188	-1.052956
C164	C	-0.174314	1.256521	-0.719623
C165	C	0.159019	1.589855	-0.386289
C166	C	-0.466865	0.964001	-1.100088
C167	C	-0.133531	1.297334	-0.766755
C168	C	0.199802	1.630668	-0.433421
C169	C	-0.426671	1.004248	-0.817452
C170	C	-0.093338	1.337582	-0.484118
C171	C	0.239996	1.670915	-0.150785
C172	C	-0.521640	0.909206	-0.817412
C173	C	-0.188307	1.242539	-0.484079
C174	C	0.145027	1.575872	-0.150745
C175	C	-0.535034	0.895788	-0.911618
C176	C	-0.201701	1.229121	-0.578285
C177	C	0.131633	1.562455	-0.244951
C178	C	-0.386362	1.044624	-0.200394
C179	C	-0.053029	1.377957	0.132939
C180	C	0.280304	1.711290	0.466272
C181	C	-0.371896	1.059043	-0.100128
C182	C	-0.038562	1.392377	0.233206
C183	C	0.294771	1.725710	0.566539
H184	H	-0.312239	0.481018	-0.323812
H185	H	0.021094	0.814352	0.009521
H186	H	0.354427	1.147685	0.342855
Br187	Br	-0.485044	0.945796	-1.227945
Br188	Br	-0.151710	1.279129	-0.894612
Br189	Br	0.181623	1.612462	-0.561278
H190	H	-0.551771	0.879034	-1.091289
H191	H	-0.218438	1.212368	-0.757955
H192	H	0.114896	1.545701	-0.424622
Br193	Br	-0.434980	0.600616	-0.236391
Br194	Br	-0.101647	0.933949	0.096942
Br195	Br	0.231686	1.267282	0.430276
H196	H	-0.579148	0.851631	-0.949966
H197	H	-0.245815	1.184964	-0.616633
H198	H	0.087519	1.518298	-0.283300
H199	H	-0.960107	0.892050	-0.393986
H200	H	-0.626774	1.225383	-0.060652
H201	H	-0.293441	1.558717	0.272681
H202	H	-0.407964	0.443701	-0.586821
H203	H	-0.074631	0.777034	-0.253487
H204	H	0.258703	1.110368	0.079846
Br205	Br	-0.560094	0.551497	-0.579877
Br206	Br	-0.226761	0.884830	-0.246544
Br207	Br	0.106573	1.218164	0.086789
Br208	Br	-0.576999	0.853820	-0.753455
Br209	Br	-0.243665	1.187153	-0.420122
Br210	Br	0.089668	1.520487	-0.086789
H211	H	-0.284517	1.146499	-1.091428
H212	H	0.048816	1.479833	-0.758095
H213	H	0.382149	1.813166	-0.424761
H214	H	-0.949692	1.118744	-0.323575
H215	H	-0.616359	1.452078	0.009759
H216	H	-0.283025	1.785411	0.343092
H217	H	-0.300548	0.552196	-0.475716
H218	H	0.032786	0.885529	-0.142382
H219	H	0.366119	1.218862	0.190951
Br220	Br	-0.865898	1.166794	-0.488149
Br221	Br	-0.532565	1.500128	-0.154816
Br222	Br	-0.199232	1.833461	0.178517
Br223	Br	-0.830536	0.995738	-0.236364
Br224	Br	-0.497202	1.329071	0.096970
Br225	Br	-0.163869	1.662405	0.430303
H226	H	-0.538899	0.470949	-0.393830
H227	H	-0.205565	0.804282	-0.060497
H228	H	0.127768	1.137615	0.272837
Br229	Br	-0.230793	1.200289	-0.894946
Br230	Br	0.102540	1.533622	-0.561613
Br231	Br	0.435873	1.866955	-0.228280
H232	H	-0.987306	1.023013	-0.586734
H233	H	-0.653973	1.356346	-0.253401
H234	H	-0.320639	1.689679	0.079933
Br235	Br	-0.353144	1.077848	-0.753565
Br236	Br	-0.019811	1.411182	-0.420231
Br237	Br	0.313523	1.744515	-0.086898
Br238	Br	-0.879253	0.870898	-0.579753
Br239	Br	-0.545920	1.204232	-0.246420
Br240	Br	-0.212586	1.537565	0.086913
H241	H	-0.334193	1.096804	-0.835000
H242	H	-0.000860	1.430138	-0.501666
H243	H	0.332474	1.763471	-0.168333
