data_functionalizedCrystal
_audit_creation_method	'MofGen! by Chris Wilmer'
_symmetry_space_group_name_H-M	'P1'
_symmetry_Int_Tables_number	1
_symmetry_cell_setting	triclinic
loop_
_symmetry_equiv_pos_as_xyz
  x,y,z
_cell_length_a	17.077404
_cell_length_b	15.297327
_cell_length_c	17.077396
_cell_angle_alpha	99.647268
_cell_angle_beta	89.980499
_cell_angle_gamma	99.707136
loop_
_atom_site_label
_atom_site_type_symbol
_atom_site_fract_x
_atom_site_fract_y
_atom_site_fract_z
Zn1	Zn	1.145953	-0.359161	-0.497895
Zn2	Zn	1.123133	-0.510035	-0.389335
Zn3	Zn	1.014680	-0.359192	-0.366647
Zn4	Zn	0.991934	-0.509981	-0.520550
O5	O	1.068925	-0.434592	-0.443607
O6	O	1.252771	-0.379184	-0.483507
O7	O	1.108715	-0.490061	-0.276484
O8	O	1.051163	-0.232941	-0.365082
O9	O	1.236005	-0.490030	-0.403749
O10	O	1.147608	-0.232918	-0.461508
O11	O	1.029035	-0.379238	-0.259815
O12	O	0.901817	-0.379186	-0.387050
O13	O	1.012395	-0.489939	-0.627386
O14	O	0.885105	-0.489970	-0.500121
O15	O	1.125553	-0.379132	-0.610742
O16	O	1.086659	-0.636275	-0.425717
O17	O	0.990268	-0.636236	-0.522120
C18	C	0.864979	-0.434576	-0.443583
C19	C	0.777727	-0.434591	-0.443594
C20	C	0.728043	-0.492363	-0.502403
C21	C	0.646062	-0.492365	-0.502416
C22	C	0.613767	-0.434599	-0.443616
C23	C	0.663458	-0.376820	-0.384804
C24	C	0.745438	-0.376814	-0.384795
C25	C	0.492585	-0.376838	-0.384825
C26	C	0.410599	-0.376844	-0.384833
C27	C	0.393210	-0.492389	-0.502446
C28	C	0.475189	-0.492383	-0.502438
C29	C	0.524875	-0.434605	-0.443624
C30	C	1.033541	-0.668990	-0.478856
C31	C	1.018475	-0.769266	-0.493962
C32	C	1.176925	-1.051885	-0.335910
C33	C	1.191079	-0.957670	-0.321713
C34	C	1.147930	-0.910565	-0.364774
C35	C	1.090623	-0.957683	-0.422034
C36	C	1.076462	-1.051907	-0.436228
C37	C	1.047467	-0.910586	-0.465092
C38	C	0.990160	-0.957705	-0.522352
C39	C	0.976003	-1.051919	-0.536544
C40	C	1.019152	-1.099025	-0.493483
C41	C	1.061628	-0.816363	-0.450898
C42	C	0.961165	-0.816384	-0.551217
C43	C	0.947010	-0.910599	-0.565413
C44	C	1.273666	-0.434609	-0.443632
C45	C	1.360915	-0.434617	-0.443642
C46	C	1.068982	-0.434526	-0.648341
C47	C	1.069007	-0.434498	-0.735587
C48	C	1.104468	-0.199279	-0.408237
C49	C	1.119615	-0.099003	-0.393165
C50	C	1.127930	-0.376795	-0.767910
C51	C	1.127944	-0.376765	-0.849886
C52	C	1.069037	-0.434443	-0.899538
C53	C	1.010108	-0.492147	-0.867209
C54	C	1.010091	-0.492172	-0.785234
C55	C	1.010148	-0.492093	-1.038071
C56	C	1.010165	-0.492070	-1.120052
C57	C	1.128000	-0.376686	-1.102724
C58	C	1.127984	-0.376711	-1.020748
C59	C	1.069055	-0.434417	-0.988425
C60	C	1.068922	-0.434593	-0.239659
C61	C	1.069088	-0.434368	-0.152376
H62	H	0.754331	-0.539406	-0.550283
C63	C	1.163516	-0.806926	-0.349170
N64	N	1.175266	-0.728861	-0.337420
C65	C	0.510712	-0.555934	-0.567117
N66	N	0.537467	-0.603800	-0.615836
C67	C	0.547237	-0.313281	-0.320126
N68	N	0.588400	-0.265415	-0.271392
C69	C	0.945360	-0.555512	-1.174667
N70	N	0.896547	-0.603297	-1.215802
C71	C	0.800090	-0.313262	-0.320099
N72	N	0.841254	-0.265391	-0.271369
H73	H	0.352752	-0.539431	-0.550336
C74	C	0.945325	-0.555577	-1.002518
N75	N	0.896504	-0.603396	-0.975740
H76	H	0.962142	-0.539106	-0.907641
H77	H	0.605612	-0.539410	-0.550304
C78	C	1.254102	-0.905848	-0.258716
N79	N	1.301570	-0.866814	-0.211258
C80	C	1.003582	-1.202667	-0.509093
N81	N	0.991855	-1.280732	-0.520848
H82	H	0.962103	-0.539150	-0.758916
H83	H	1.212046	-1.090247	-0.300851
C84	C	0.375077	-0.313295	-0.320152
N85	N	0.348322	-0.265428	-0.271434
H86	H	0.637157	-0.329781	-0.336930
C87	C	0.913698	-0.764572	-0.598589
N88	N	0.877949	-0.725541	-0.634266
H89	H	1.108287	-0.778007	-0.404277
H90	H	0.929330	-1.090280	-0.583160
C91	C	0.883967	-0.962441	-0.628392
N92	N	0.836482	-1.001490	-0.675825
H93	H	1.175901	-0.329830	-0.727489
C94	C	1.192766	-0.313290	-0.885438
N95	N	1.241592	-0.265477	-0.912215
H96	H	1.175955	-0.329750	-0.980324
C97	C	1.192822	-0.313208	-1.138280
N98	N	1.241646	-0.265401	-1.165066
