data_functionalizedCrystal
_audit_creation_method	'MofGen! by Chris Wilmer'
_symmetry_space_group_name_H-M	'P1'
_symmetry_Int_Tables_number	1
_symmetry_cell_setting	triclinic
loop_
_symmetry_equiv_pos_as_xyz
  x,y,z
_cell_length_a	12.837932
_cell_length_b	11.892095
_cell_length_c	19.288865
_cell_angle_alpha	93.870403
_cell_angle_beta	91.017025
_cell_angle_gamma	94.311455
loop_
_atom_site_label
_atom_site_type_symbol
_atom_site_fract_x
_atom_site_fract_y
_atom_site_fract_z
O1	O	1.381261	0.094032	-0.176516
O2	O	1.881261	0.594032	0.323484
O3	O	1.079497	0.094033	-0.167598
O4	O	1.579497	0.594033	0.332402
O5	O	1.239097	0.094010	-0.071523
O6	O	1.739097	0.594010	0.428477
O7	O	1.221661	0.094055	-0.272591
O8	O	1.721661	0.594055	0.227409
O9	O	1.225790	-0.093995	-0.079520
O10	O	1.725790	0.406005	0.420480
O11	O	1.066189	-0.093973	-0.175595
O12	O	1.566189	0.406027	0.324405
O13	O	1.367954	-0.093973	-0.184513
O14	O	1.867954	0.406027	0.315487
Zn15	Zn	1.214959	-0.123823	-0.181324
Zn16	Zn	1.714959	0.376177	0.318676
Zn17	Zn	1.232491	0.123883	-0.170787
Zn18	Zn	1.732491	0.623883	0.329213
O19	O	1.208354	-0.093951	-0.280588
O20	O	1.708354	0.406049	0.219412
C21	C	1.034236	0.000030	-0.168584
C22	C	1.534236	0.500030	0.331416
C23	C	0.919201	0.000029	-0.159599
C24	C	1.419201	0.500029	0.340401
C25	C	0.769708	0.000010	-0.084506
C26	C	1.269708	0.500010	0.415494
C27	C	0.877795	0.000012	-0.092943
C28	C	1.377795	0.500012	0.407057
C29	C	0.852512	0.000040	-0.217823
C30	C	1.352512	0.500040	0.282177
C31	C	0.744425	0.000037	-0.209386
C32	C	1.244425	0.500037	0.290614
C33	C	0.703027	0.000024	-0.142725
C34	C	1.203027	0.500024	0.357275
C35	C	0.594939	0.000030	-0.134288
C36	C	1.094939	0.500030	0.365712
C37	C	0.569658	0.000049	-0.259168
C38	C	1.069658	0.500049	0.240832
C39	C	0.677745	0.000051	-0.267605
C40	C	1.177745	0.500051	0.232395
N41	N	1.203001	-0.292875	-0.188514
N42	N	1.703001	0.207125	0.311486
C43	C	1.327667	-0.529541	-0.113515
C44	C	1.827667	-0.029541	0.386485
C45	C	1.319316	-0.647882	-0.118547
C46	C	1.819316	-0.147882	0.381453
C47	C	1.177943	-0.647900	-0.203606
C48	C	1.677943	-0.147900	0.296394
C49	C	1.186294	-0.529559	-0.198574
C50	C	1.686294	-0.029559	0.301426
C51	C	1.261160	-0.470384	-0.153528
C52	C	1.761160	0.029616	0.346472
C53	C	1.269515	-0.352041	-0.148500
C54	C	1.769515	0.147959	0.351500
C55	C	1.128138	-0.352061	-0.233555
C56	C	1.628138	0.147939	0.266445
C57	C	1.119787	-0.470402	-0.238587
C58	C	1.619787	0.029598	0.261413
C59	C	1.413214	0.000032	-0.183527
C60	C	1.913214	0.500032	0.316473
C61	C	1.528250	0.000041	-0.192511
C62	C	2.028250	0.500041	0.307489
C63	C	1.231882	0.000004	-0.049607
C64	C	1.731882	0.500004	0.450393
C65	C	1.230197	-0.000006	0.027611
C66	C	1.730197	0.499994	0.527611
N67	N	1.244458	0.292935	-0.163592
N68	N	1.744458	0.792935	0.336408
C69	C	1.215569	0.000058	-0.302504
C70	C	1.715569	0.500058	0.197496
C71	C	1.217254	0.000075	-0.379722
C72	C	1.717254	0.500075	0.120278
C73	C	1.323843	-0.000012	0.065912
C74	C	1.823843	0.499988	0.565912
C75	C	1.322262	0.000006	0.138468
C76	C	1.822262	0.500006	0.638468
C77	C	1.227027	0.000007	0.172719
C78	C	1.727027	0.500007	0.672719
C79	C	1.133369	0.000019	0.134409
C80	C	1.633369	0.500019	0.634409
C81	C	1.134953	0.000013	0.061855
C82	C	1.634953	0.500013	0.561855
C83	C	1.147500	-0.065847	0.283318
C84	C	1.647500	0.434153	0.783318
C85	C	1.145919	-0.065847	0.355870
C86	C	1.645919	0.434153	0.855870
C87	C	1.222136	0.000032	0.396500
C88	C	1.722136	0.500032	0.896500
C89	C	1.299951	0.065898	0.364568
C90	C	1.799951	0.565898	0.864568
C91	C	1.301535	0.065892	0.292014
C92	C	1.801535	0.565892	0.792014
C93	C	1.225298	0.000015	0.251392
C94	C	1.725298	0.500015	0.751392
C95	C	1.314074	0.000048	0.513475
C96	C	1.814074	0.500048	1.013475
C97	C	1.312490	0.000073	0.586032
C98	C	1.812490	0.500073	1.086032
C99	C	1.123593	0.000074	0.581971
C100	C	1.623593	0.500074	1.081971
C101	C	1.125181	0.000061	0.509416
C102	C	1.625181	0.500061	1.009416
C103	C	1.220424	0.000042	0.475172
C104	C	1.720424	0.500042	0.975172
H105	H	1.330477	-0.303861	-0.111824
H106	H	1.830477	0.196139	0.388176
H107	H	1.116983	-0.696096	-0.240276
H108	H	1.616983	-0.196096	0.259724
H109	H	1.388632	-0.481360	-0.076842
H110	H	1.888632	0.018640	0.423158
H111	H	1.073986	-0.303882	-0.266138
H112	H	1.573986	0.196118	0.233862
O113	O	1.033944	0.000013	0.020539
O114	O	1.533944	0.500013	0.520539
H115	H	1.024731	-0.076618	-0.015865
H116	H	1.524731	0.423382	0.484135
O117	O	0.725053	-0.000007	-0.012610
O118	O	1.225053	0.499993	0.487390
H119	H	0.681841	0.076623	-0.002519
H120	H	1.181841	0.576623	0.497481
H121	H	0.886237	0.000040	-0.272096
H122	H	1.386237	0.500040	0.227904
O123	O	1.385450	0.136934	0.257571
O124	O	1.885450	0.636934	0.757571
H125	H	1.348611	0.198773	0.226235
H126	H	1.848611	0.698773	0.726235
H127	H	1.373472	-0.696044	-0.085964
H128	H	1.873472	-0.196044	0.414036
O129	O	1.024171	0.000054	0.468103
O130	O	1.524171	0.500054	0.968103
H131	H	1.041272	0.000058	0.411898
H132	H	1.541272	0.500058	0.911898
H133	H	0.561235	0.000024	-0.080009
H134	H	1.061235	0.500024	0.419991
H135	H	1.058830	-0.518596	-0.275260
H136	H	1.558830	-0.018596	0.224740
O137	O	1.426567	0.000000	0.028977
O138	O	1.926567	0.500000	0.528977
H139	H	1.491421	0.000016	0.067805
H140	H	1.991421	0.500016	0.567805
O141	O	1.423268	-0.000015	0.179792
O142	O	1.923268	0.499985	0.679792
H143	H	1.489760	-0.000038	0.143790
H144	H	1.989760	0.499962	0.643790
O145	O	0.949720	-0.000000	-0.030151
O146	O	1.449720	0.500000	0.469849
H147	H	0.902770	-0.000003	0.017618
H148	H	1.402770	0.499997	0.517618
O149	O	1.382161	0.136971	0.408377
O150	O	1.882161	0.636971	0.908377
H151	H	1.367981	0.125926	0.464194
H152	H	1.867981	0.625926	0.964194
H153	H	1.391627	0.000038	0.485592
H154	H	1.891627	0.500038	0.985592
O155	O	1.413498	0.000057	0.627348
O156	O	1.913498	0.500057	1.127348
H157	H	1.479986	0.000029	0.591343
H158	H	1.979986	0.500029	1.091343
H159	H	1.046051	0.000080	0.609858
H160	H	1.546051	0.500080	1.109858
H161	H	1.082554	-0.119473	0.381864
H162	H	1.582554	0.380527	0.881864
H163	H	1.085432	-0.119501	0.250242
H164	H	1.585432	0.380499	0.750242
H165	H	1.055828	0.000022	0.162301
H166	H	1.555828	0.500022	0.662301
H167	H	0.711466	0.000058	-0.321879
H168	H	1.211466	0.500058	0.178121
O169	O	0.497739	0.000058	-0.321969
O170	O	0.997739	0.500058	0.178031
H171	H	0.415623	0.000047	-0.304906
H172	H	0.915623	0.500047	0.195094
