data_functionalizedCrystal
_audit_creation_method	'MofGen! by Chris Wilmer'
_symmetry_space_group_name_H-M	'P1'
_symmetry_Int_Tables_number	1
_symmetry_cell_setting	triclinic
loop_
_symmetry_equiv_pos_as_xyz
  x,y,z
_cell_length_a	16.956995
_cell_length_b	10.489741
_cell_length_c	15.455313
_cell_angle_alpha	87.307311
_cell_angle_beta	92.484637
_cell_angle_gamma	80.296823
loop_
_atom_site_label
_atom_site_type_symbol
_atom_site_fract_x
_atom_site_fract_y
_atom_site_fract_z
O1	O	1.061804	0.046882	0.072190
O2	O	0.829903	0.091634	0.072179
O3	O	0.951130	-0.116973	0.072180
O4	O	0.940577	0.255489	0.072190
O5	O	0.944198	-0.105090	-0.072082
O6	O	0.822971	0.103517	-0.072083
O7	O	1.054872	0.058765	-0.072072
Cu8	Cu	0.938288	0.082226	-0.085250
Cu9	Cu	0.946487	0.068173	0.085357
O10	O	0.933645	0.267372	-0.072072
C11	C	0.796742	0.099867	0.000046
C12	C	0.708261	0.106679	0.000042
C13	C	0.209255	0.157638	0.000076
C14	C	0.292393	0.151227	0.000075
C15	C	0.342790	0.030897	0.000065
C16	C	0.310045	-0.083030	0.000065
C17	C	0.226908	-0.076619	0.000072
C18	C	0.592379	-0.000837	0.000049
C19	C	0.675521	-0.007240	0.000039
C20	C	0.657863	0.227018	0.000051
C21	C	0.574725	0.233419	0.000053
C22	C	0.541988	0.119492	0.000057
N23	N	0.427771	0.024342	0.000061
N24	N	0.457009	0.126048	0.000067
C25	C	0.946867	-0.158468	0.000049
C26	C	0.944482	-0.299811	0.000051
C27	C	0.867349	-0.358685	0.000053
C28	C	0.900368	-0.449326	-0.071074
C29	C	0.907221	-0.461019	0.071157
C30	C	0.977530	-0.388585	-0.071135
C31	C	0.984376	-0.400272	0.071160
C32	C	1.017450	-0.490891	0.000016
C33	C	1.088033	0.050532	0.000063
C34	C	1.176515	0.043719	0.000073
C35	C	0.937908	0.308867	0.000060
C36	C	0.940293	0.450209	0.000064
N37	N	0.932528	0.092109	-0.205245
C38	C	0.984047	0.003514	-0.250639
C39	C	0.979698	0.010998	-0.341447
C40	C	0.923833	0.107085	-0.386859
C41	C	0.872308	0.195684	-0.341459
C42	C	0.876653	0.188193	-0.250653
C43	C	0.905074	0.139387	-0.658441
C44	C	0.900734	0.146874	-0.749254
C45	C	1.008124	-0.037814	-0.749235
C46	C	1.012468	-0.045292	-0.658427
C47	C	0.960940	0.043303	-0.613035
N48	N	0.919388	0.114741	-0.479680
N49	N	0.965382	0.035641	-0.520216
N50	N	0.952254	0.058279	0.205353
H51	H	0.716553	-0.105232	0.000036
H52	H	1.057958	-0.123533	-0.621454
H53	H	0.319045	0.243991	0.000085
H54	H	0.864842	-0.471464	-0.131210
H55	H	1.021649	-0.061143	-0.378406
Cl56	Cl	1.023411	-0.339384	-0.164078
Cl57	Cl	0.840301	0.250765	-0.601383
H58	H	1.080924	-0.547937	-0.000021
Cl59	Cl	1.072895	-0.149188	-0.806303
H60	H	0.855239	0.225125	-0.786224
H61	H	0.533697	0.331405	0.000063
H62	H	0.826817	0.273916	-0.378439
H63	H	0.200254	-0.169384	0.000072
Cl64	Cl	1.039184	-0.366032	0.164011
H65	H	0.877465	-0.493015	0.131295
Cl66	Cl	0.699024	0.370232	0.000052
H67	H	1.029542	-0.074725	-0.213670
Cl68	Cl	0.145906	0.308919	0.000081
Cl69	Cl	0.551235	-0.144063	0.000075
Cl70	Cl	0.811879	0.299571	-0.193587
H71	H	0.351085	-0.181006	0.000062
H72	H	0.803927	-0.301410	-0.000022
