data_functionalizedCrystal
_audit_creation_method	'MofGen! by Chris Wilmer'
_symmetry_space_group_name_H-M	'P1'
_symmetry_Int_Tables_number	1
_symmetry_cell_setting	triclinic
loop_
_symmetry_equiv_pos_as_xyz
  x,y,z
_cell_length_a	27.731994
_cell_length_b	10.654550
_cell_length_c	9.130313
_cell_angle_alpha	90.000110
_cell_angle_beta	90.005878
_cell_angle_gamma	96.447282
loop_
_atom_site_label
_atom_site_type_symbol
_atom_site_fract_x
_atom_site_fract_y
_atom_site_fract_z
O1	O	0.641870	-0.149086	-0.121587
O2	O	0.501215	-0.171876	-0.121635
O3	O	0.574776	0.022395	-0.121605
O4	O	0.568309	-0.343358	-0.121618
O5	O	0.574776	0.022390	0.121994
O6	O	0.501214	-0.171882	0.121963
O7	O	0.641869	-0.149092	0.122011
Cu8	Cu	0.571541	-0.160487	0.144230
Cu9	Cu	0.571543	-0.160481	-0.143854
O10	O	0.568308	-0.343363	0.121981
C11	C	0.483204	-0.171411	0.000158
C12	C	0.429539	-0.170002	0.000139
C13	C	0.096765	-0.161132	0.132982
C14	C	-0.104927	-0.155776	0.132999
O15	O	-0.131004	-0.155032	0.245928
N16	N	-0.130145	-0.155108	0.000213
C17	C	-0.104937	-0.155771	-0.132586
O18	O	-0.131015	-0.155067	-0.245528
C19	C	0.096754	-0.161118	-0.132601
C20	C	0.121969	-0.161798	0.000193
C21	C	0.121980	-0.161811	0.265765
C22	C	0.172400	-0.163157	0.265760
C23	C	0.197604	-0.163823	0.132971
C24	C	0.172388	-0.163144	0.000187
C25	C	0.121961	-0.161771	-0.265399
C26	C	0.172387	-0.163105	-0.265391
C27	C	0.197602	-0.163785	-0.132597
C28	C	0.248012	-0.165156	-0.132607
N29	N	0.273231	-0.165824	0.000178
C30	C	0.248026	-0.165158	0.132967
C31	C	-0.210828	-0.152966	-0.132569
C32	C	-0.261251	-0.151632	-0.132565
C33	C	-0.261237	-0.151635	0.133020
C34	C	-0.210813	-0.152978	0.133015
C35	C	-0.185610	-0.153634	0.000217
C36	C	0.353911	-0.167985	0.132946
C37	C	0.404335	-0.169336	0.132928
C38	C	0.404316	-0.169326	-0.132656
C39	C	0.353897	-0.167982	-0.132640
C40	C	0.328696	-0.167307	0.000173
O41	O	0.274122	-0.165887	-0.245477
O42	O	0.274114	-0.165834	0.245892
C43	C	0.046345	-0.159786	0.132987
C44	C	0.021130	-0.159107	0.000204
C45	C	0.046334	-0.159773	-0.132585
C46	C	-0.029293	-0.157772	0.000207
C47	C	-0.054497	-0.157106	0.132996
C48	C	-0.029278	-0.157774	0.265782
C49	C	0.021141	-0.159120	0.265776
C50	C	0.021116	-0.159105	-0.265371
C51	C	-0.029304	-0.157761	-0.265354
C52	C	-0.054508	-0.157095	-0.132565
C53	C	0.574301	0.069171	0.000193
C54	C	0.572880	0.208553	0.000187
C55	C	0.659880	-0.149557	0.000215
C56	C	0.713545	-0.150966	0.000224
C57	C	0.568783	-0.390139	0.000180
C58	C	0.570204	-0.529521	0.000176
N59	N	0.571544	-0.160490	0.346853
C60	C	0.616192	0.289882	0.000206
C61	C	0.614854	0.420846	0.000196
C62	C	0.526889	0.389140	0.000153
C63	C	0.528227	0.258179	0.000153
C64	C	0.666978	0.308188	0.000237
C65	C	0.665640	0.439152	0.000227
N66	N	0.571544	-0.160467	-0.346477
C67	C	0.604126	-0.074496	0.423518
C68	C	0.604124	-0.074481	0.576855
C69	C	0.538959	-0.246466	0.576847
C70	C	0.538958	-0.246474	0.423513
C71	C	0.641750	0.024796	0.423524
C72	C	0.641749	0.024811	0.576861
H73	H	0.192926	-0.163703	0.373895
F74	F	0.095163	-0.161105	0.407110
F75	F	0.688109	0.262508	0.137730
H76	H	-0.190287	-0.153534	0.241148
H77	H	-0.281766	-0.151095	0.241142
F78	F	0.685702	0.499674	-0.137239
H79	H	0.630006	0.115534	0.624406
F80	F	0.692942	0.270916	-0.132992
H81	H	0.684776	0.481724	0.102177
F82	F	0.479368	0.441966	0.000112
F83	F	0.504279	-0.337971	0.658447
F84	F	0.690297	-0.001240	0.631279
H85	H	-0.281778	-0.151098	-0.240700
F86	F	0.504275	-0.337985	0.341921
F87	F	0.687615	-0.013247	0.361368
H88	H	-0.190312	-0.153500	-0.240715
H89	H	0.424863	-0.169894	0.241070
F90	F	0.327097	-0.167264	0.274300
H91	H	0.633498	0.120977	0.381904
H92	H	0.101439	-0.161215	-0.373535
H93	H	0.192905	-0.163640	-0.373534
F94	F	-0.056112	-0.157071	0.407106
F95	F	0.327059	-0.167278	-0.273973
H96	H	0.424847	-0.169874	-0.240769
H97	H	0.041667	-0.159674	0.373911
H98	H	-0.049831	-0.157217	-0.373499
F99	F	0.047933	-0.159813	-0.406711
H100	H	0.492958	0.191965	0.000117
