data_functionalizedCrystal
_audit_creation_method	'MofGen! by Chris Wilmer'
_symmetry_space_group_name_H-M	'P1'
_symmetry_Int_Tables_number	1
_symmetry_cell_setting	triclinic
loop_
_symmetry_equiv_pos_as_xyz
  x,y,z
_cell_length_a	8.559649
_cell_length_b	12.837942
_cell_length_c	7.088929
_cell_angle_alpha	83.116986
_cell_angle_beta	95.325015
_cell_angle_gamma	82.303802
loop_
_atom_site_label
_atom_site_type_symbol
_atom_site_fract_x
_atom_site_fract_y
_atom_site_fract_z
O1	O	2.100237	-0.022929	-0.158957
O2	O	1.643086	0.029966	-0.158967
O3	O	1.861526	-0.146578	-0.158950
O4	O	1.881797	0.153615	-0.158973
O5	O	1.890711	-0.170219	0.159027
O6	O	1.672271	0.006325	0.159010
O7	O	2.129422	-0.046570	0.159021
Cu8	Cu	1.903512	-0.022281	0.188049
Cu9	Cu	1.868997	0.005677	-0.187996
O10	O	1.910982	0.129974	0.159004
C11	C	1.598759	0.022154	0.000020
C12	C	1.423195	0.034086	0.000017
C13	C	1.869270	-0.196474	0.000037
C14	C	1.848843	-0.309925	0.000034
C15	C	2.094400	-0.570430	-0.000001
C16	C	2.075215	-0.677028	-0.000004
C17	C	1.791288	-0.629721	0.000009
C18	C	1.810473	-0.523122	0.000013
C19	C	1.962034	-0.493482	0.000011
C20	C	1.981219	-0.386882	0.000028
C21	C	1.697292	-0.339576	0.000028
C22	C	1.678107	-0.446175	0.000024
C23	C	2.173749	-0.038758	0.000029
C24	C	2.349312	-0.050689	0.000020
C25	C	1.903238	0.179870	0.000012
C26	C	1.923664	0.293322	0.000003
N27	N	1.927799	-0.041947	0.452539
N28	N	1.844721	0.025334	-0.452486
H29	H	1.352129	0.115800	0.000000
Br30	Br	2.186907	-0.346657	0.000045
H31	H	2.013918	-0.111668	0.534202
H32	H	2.217809	-0.546298	0.000016
H33	H	1.420367	-0.132396	0.000017
H34	H	2.183001	-0.739677	-0.000020
H35	H	1.667891	-0.653873	-0.000010
Br36	Br	1.472425	-0.486410	0.000003
H37	H	1.589511	-0.276913	0.000052
Br38	Br	1.701211	0.141549	0.411425
