data_functionalizedCrystal
_audit_creation_method	'MofGen! by Chris Wilmer'
_symmetry_space_group_name_H-M	'P1'
_symmetry_Int_Tables_number	1
_symmetry_cell_setting	triclinic
loop_
_symmetry_equiv_pos_as_xyz
  x,y,z
_cell_length_a	21.395362
_cell_length_b	12.594516
_cell_length_c	21.395356
_cell_angle_alpha	89.979423
_cell_angle_beta	89.957023
_cell_angle_gamma	90.031933
loop_
_atom_site_label
_atom_site_type_symbol
_atom_site_fract_x
_atom_site_fract_y
_atom_site_fract_z
Zn1	Zn	0.957917	-0.423318	-0.354617
Zn2	Zn	0.957848	-0.601311	-0.249852
Zn3	Zn	0.853134	-0.423396	-0.249818
Zn4	Zn	0.853128	-0.601304	-0.354557
O5	O	0.905507	-0.512332	-0.302211
O6	O	1.045586	-0.446899	-0.340759
O7	O	0.943931	-0.577745	-0.162170
O8	O	0.867065	-0.274440	-0.263730
O9	O	1.045535	-0.577670	-0.263789
O10	O	0.944049	-0.274382	-0.340725
O11	O	0.866998	-0.447032	-0.162144
O12	O	0.765455	-0.447026	-0.263672
O13	O	0.867055	-0.577658	-0.442243
O14	O	0.765451	-0.577734	-0.340624
O15	O	0.944043	-0.446893	-0.442287
O16	O	0.943926	-0.750256	-0.263731
O17	O	0.866988	-0.750251	-0.340657
C18	C	0.742719	-0.512388	-0.302138
C19	C	0.673078	-0.512438	-0.302122
C20	C	0.905466	-0.788873	-0.302205
C21	C	0.905506	-0.907179	-0.302223
C22	C	0.640379	-0.580588	-0.342130
C23	C	0.574944	-0.580562	-0.342158
C24	C	0.542210	-0.512397	-0.302167
C25	C	0.574917	-0.444234	-0.262155
C26	C	0.640351	-0.444254	-0.262133
C27	C	0.438485	-0.503838	-0.245761
C28	C	0.373052	-0.503825	-0.245782
C29	C	0.340389	-0.512328	-0.302236
C30	C	0.373167	-0.520866	-0.358670
C31	C	0.438602	-0.520886	-0.358648
C32	C	0.471257	-0.512367	-0.302187
C33	C	0.236738	-0.580453	-0.342278
C34	C	0.171301	-0.580420	-0.342307
C35	C	0.171275	-0.444097	-0.262298
C36	C	0.236710	-0.444125	-0.262275
C37	C	0.269438	-0.512309	-0.302264
C38	C	0.863655	-0.976468	-0.344034
C39	C	0.848387	-1.047331	-0.286856
C40	C	0.920831	-1.047114	-0.359410
C41	C	0.890207	-0.976483	-0.245015
C42	C	0.962678	-0.976261	-0.317608
C43	C	0.947431	-1.047092	-0.260391
C44	C	1.068930	-0.512276	-0.302284
C45	C	1.138572	-0.512253	-0.302315
C46	C	0.905556	-0.512266	-0.465634
C47	C	0.905577	-0.512238	-0.535275
C48	C	0.905565	-0.234711	-0.302231
C49	C	0.905590	-0.116406	-0.302239
C50	C	0.865529	-0.444168	-0.567966
C51	C	0.865527	-0.444148	-0.633401
C52	C	0.905584	-0.512187	-0.666144
C53	C	0.945635	-0.580271	-0.633446
C54	C	0.945632	-0.580296	-0.568012
C55	C	0.962037	-0.520529	-0.769850
C56	C	0.962042	-0.520496	-0.835283
C57	C	0.905595	-0.512115	-0.867965
C58	C	0.849141	-0.503745	-0.835206
C59	C	0.849137	-0.503771	-0.769771
C60	C	0.905592	-0.512168	-0.737096
C61	C	0.865540	-0.444020	-0.971607
C62	C	0.865537	-0.444008	-1.037044
C63	C	0.945651	-0.580125	-1.037088
C64	C	0.945649	-0.580143	-0.971652
C65	C	0.905594	-0.512085	-0.938916
C66	C	0.905494	-0.512321	-0.139423
C67	C	0.905594	-0.512049	-0.069782
H68	H	0.667022	-0.636107	-0.374694
H69	H	0.548315	-0.636058	-0.374740
Cl70	Cl	0.808919	-0.928583	-0.398545
Cl71	Cl	0.773796	-1.095524	-0.266769
Cl72	Cl	1.033010	-0.531030	-0.876459
Cl73	Cl	0.815171	-0.358615	-0.526815
Cl74	Cl	1.002131	-1.094671	-0.205752
Cl75	Cl	0.870162	-0.928787	-0.170336
Cl76	Cl	0.815190	-0.358544	-0.674506
Cl77	Cl	0.130193	-0.666096	-0.392612
H78	H	0.465073	-0.496909	-0.199786
H79	H	0.978247	-0.635726	-0.541396
Cl80	Cl	0.479806	-0.531613	-0.429590
Cl81	Cl	1.037249	-0.928028	-0.337720
H82	H	0.144624	-0.388591	-0.229739
H83	H	1.008008	-0.527344	-0.743246
H84	H	0.666974	-0.388755	-0.229553
H85	H	0.933759	-1.078140	-0.407766
Cl86	Cl	0.815184	-0.358470	-0.930450
H87	H	0.263334	-0.388635	-0.229692
H88	H	0.803171	-0.496958	-0.743101
H89	H	0.803176	-0.496914	-0.861814
H90	H	0.548260	-0.388732	-0.229595
Cl91	Cl	0.332113	-0.531549	-0.429646
Cl92	Cl	0.815168	-0.358456	-1.078141
Cl93	Cl	0.996006	-0.665668	-1.078244
Cl94	Cl	0.996003	-0.665714	-0.930554
H95	H	0.263386	-0.635967	-0.374843
H96	H	0.346369	-0.496879	-0.199830
Cl97	Cl	0.995990	-0.665811	-0.674607
