data_functionalizedCrystal
_audit_creation_method	'MofGen! by Chris Wilmer'
_symmetry_space_group_name_H-M	'P1'
_symmetry_Int_Tables_number	1
_symmetry_cell_setting	triclinic
loop_
_symmetry_equiv_pos_as_xyz
  x,y,z
_cell_length_a	12.645331
_cell_length_b	19.805405
_cell_length_c	19.805399
_cell_angle_alpha	90.030709
_cell_angle_beta	89.983868
_cell_angle_gamma	89.974611
loop_
_atom_site_label
_atom_site_type_symbol
_atom_site_fract_x
_atom_site_fract_y
_atom_site_fract_z
Zn1	Zn	1.620599	0.269488	-0.382698
Zn2	Zn	1.620473	0.382679	-0.269506
Zn3	Zn	1.443333	0.269507	-0.269524
Zn4	Zn	1.443268	0.382638	-0.382655
O5	O	1.531918	0.326078	-0.326096
O6	O	1.768929	0.284512	-0.367694
O7	O	1.596951	0.367692	-0.174792
O8	O	1.466928	0.174788	-0.284562
O9	O	1.768837	0.367673	-0.284532
O10	O	1.597164	0.174774	-0.367711
O11	O	1.466806	0.284545	-0.174805
O12	O	1.294977	0.284505	-0.284520
O13	O	1.466816	0.367603	-0.477377
O14	O	1.294929	0.367622	-0.367637
O15	O	1.597100	0.284472	-0.477409
O16	O	1.596887	0.477390	-0.284490
O17	O	1.466695	0.477360	-0.367620
C18	C	1.256489	0.326062	-0.326076
C19	C	1.138659	0.326071	-0.326084
C20	C	1.531799	0.501934	-0.326063
C21	C	1.531845	0.577166	-0.326072
C22	C	1.531965	0.326031	-0.502638
C23	C	1.531985	0.326011	-0.577871
C24	C	0.971089	0.273542	-0.274084
C25	C	1.093649	0.273678	-0.273855
C26	C	1.094125	0.397372	-0.306591
C27	C	0.971526	0.397085	-0.306236
C28	C	0.971501	0.307979	-0.397777
C29	C	1.094107	0.306386	-0.397379
C30	C	1.808424	0.326095	-0.326116
C31	C	1.926254	0.326102	-0.326124
C32	C	1.532067	0.149535	-0.326143
C33	C	1.532130	0.074303	-0.326164
C34	C	1.599702	0.612503	-0.282831
C35	C	1.599747	0.683192	-0.282846
C36	C	1.531929	0.718542	-0.326099
C37	C	1.464069	0.683200	-0.369344
C38	C	1.464030	0.612512	-0.369332
C39	C	1.464225	0.968273	-0.369394
C40	C	1.464267	1.038965	-0.369401
C41	C	1.599942	1.038952	-0.282909
C42	C	1.599903	0.968265	-0.282896
C43	C	1.532048	0.932929	-0.326144
C44	C	1.532001	0.856281	-0.326128
C45	C	1.531969	0.795189	-0.326111
C46	C	1.464238	0.282713	-0.613221
C47	C	1.464253	0.282699	-0.683909
C48	C	1.532020	0.325982	-0.719246
C49	C	1.599770	0.369285	-0.683891
C50	C	1.599749	0.369301	-0.613204
C51	C	1.599854	0.369222	-0.968964
C52	C	1.599871	0.369201	-1.039656
C53	C	1.464357	0.282620	-1.039670
C54	C	1.464337	0.282636	-0.968983
C55	C	1.532082	0.325942	-0.933634
C56	C	1.532064	0.325956	-0.856985
C57	C	1.532044	0.325964	-0.795893
C58	C	1.531933	0.326076	-0.150240
C59	C	1.532119	0.325905	-0.075008
H60	H	0.941636	0.220511	-0.286171
H61	H	1.123278	0.437580	-0.343305
H62	H	1.124786	0.413006	-0.254771
N63	N	1.672918	0.415926	-0.930840
H64	H	1.715854	0.443340	-0.963952
H65	H	1.721991	0.388385	-0.901522
H66	H	0.940613	0.256894	-0.415503
N67	N	1.132653	0.236881	-0.416851
H68	H	1.178786	0.218218	-0.379651
H69	H	1.174914	0.239872	-0.460023
H70	H	1.654942	0.404530	-0.712668
N71	N	1.390846	0.574395	-0.415971
H72	H	1.347887	0.607514	-0.443373
H73	H	1.341798	0.545109	-0.388387
H74	H	1.123760	0.220806	-0.286073
H75	H	1.655197	1.067731	-0.247697
H76	H	1.655123	0.939485	-0.247674
N77	N	1.134684	0.353394	-0.451492
H78	H	1.182734	0.388276	-0.430464
H79	H	1.073005	0.376719	-0.473971
N80	N	1.391179	0.235992	-0.722026
H81	H	1.407694	0.187638	-0.709736
H82	H	1.401492	0.242600	-0.772158
H83	H	1.409043	1.067745	-0.404627
H84	H	1.408973	0.939508	-0.404606
H85	H	0.942506	0.346261	-0.436552
H86	H	1.408855	0.711987	-0.404563
N87	N	0.933583	0.417431	-0.236849
H88	H	0.853724	0.417445	-0.235923
H89	H	0.960536	0.464157	-0.225865
N90	N	1.672815	0.416006	-0.575074
H91	H	1.715748	0.443421	-0.608186
H92	H	1.721891	0.388467	-0.545755
H93	H	0.940248	0.285388	-0.221299
H94	H	1.122934	0.285656	-0.220757
N95	N	1.391156	0.236022	-0.575110
H96	H	1.348241	0.208591	-0.608234
H97	H	1.342063	0.263574	-0.545768
N98	N	1.672846	0.574378	-0.236178
H99	H	1.715841	0.607494	-0.208790
H100	H	1.721860	0.545006	-0.263755
H101	H	0.941866	0.437572	-0.342487
N102	N	1.672935	0.721307	-0.236209
H103	H	1.715886	0.688186	-0.208804
H104	H	1.629828	0.750680	-0.204868
H105	H	1.409193	0.247360	-1.068460
N106	N	1.391259	0.235944	-0.930869
H107	H	1.348345	0.208511	-0.963991
H108	H	1.342167	0.263495	-0.901526
N109	N	1.672966	0.415887	-1.077772
H110	H	1.715878	0.443325	-1.044653
H111	H	1.629789	0.447195	-1.107091
