data_functionalizedCrystal
_audit_creation_method	'MofGen! by Chris Wilmer'
_symmetry_space_group_name_H-M	'P1'
_symmetry_Int_Tables_number	1
_symmetry_cell_setting	triclinic
loop_
_symmetry_equiv_pos_as_xyz
  x,y,z
_cell_length_a	19.077212
_cell_length_b	14.908520
_cell_length_c	19.076919
_cell_angle_alpha	84.570994
_cell_angle_beta	90.114942
_cell_angle_gamma	95.739463
loop_
_atom_site_label
_atom_site_type_symbol
_atom_site_fract_x
_atom_site_fract_y
_atom_site_fract_z
Zn1	Zn	1.042918	-0.329023	0.454770
Zn2	Zn	1.040771	-0.474270	0.343526
Zn3	Zn	0.930156	-0.328546	0.332525
Zn4	Zn	0.918025	-0.486360	0.456780
O5	O	0.982967	-0.404550	0.396900
O6	O	1.141194	-0.343430	0.443776
O7	O	1.030275	-0.449680	0.243509
O8	O	0.951089	-0.201776	0.343296
O9	O	1.139616	-0.450143	0.362045
O10	O	1.033935	-0.202127	0.433109
O11	O	0.949007	-0.342617	0.235427
O12	O	0.829985	-0.354340	0.345245
O13	O	0.930414	-0.470748	0.555071
O14	O	0.821073	-0.470285	0.436535
O15	O	1.022172	-0.355153	0.553594
O16	O	1.018513	-0.602707	0.363995
O17	O	0.928332	-0.611589	0.447202
C18	C	0.799974	-0.413573	0.389915
C19	C	0.721686	-0.417456	0.386944
C20	C	0.280923	-0.445270	0.365669
C21	C	0.354483	-0.441616	0.368454
C22	C	0.392078	-0.384328	0.412478
C23	C	0.356111	-0.330684	0.453712
C24	C	0.282553	-0.334333	0.450922
C25	C	0.612161	-0.367462	0.425389
C26	C	0.685724	-0.363818	0.428177
C27	C	0.684091	-0.474749	0.342918
C28	C	0.610531	-0.478398	0.340135
C29	C	0.574571	-0.424750	0.381367
N30	N	0.467268	-0.380594	0.415328
N31	N	0.499383	-0.428480	0.378513
C32	C	0.971892	-0.640034	0.407026
C33	C	0.967217	-0.740773	0.411384
C34	C	1.052427	-0.920762	0.333006
C35	C	1.048038	-1.015415	0.337098
C36	C	0.954051	-1.024734	0.423665
C37	C	0.958441	-0.930081	0.419573
C38	C	1.007630	-0.878098	0.374241
C39	C	1.012016	-0.783443	0.370145
C40	C	0.918034	-0.792764	0.456715
C41	C	0.913644	-0.887417	0.460808
C42	C	1.166675	-0.395491	0.403913
C43	C	1.244961	-0.391631	0.406902
C44	C	0.975180	-0.414352	0.580602
C45	C	0.971861	-0.418530	0.658885
C46	C	0.994104	-0.168146	0.386751
C47	C	0.998851	-0.067405	0.382426
C48	C	0.990768	-0.394718	0.213912
C49	C	0.994235	-0.390278	0.135624
C50	C	1.018073	-0.360311	0.694894
C51	C	1.014946	-0.364233	0.768449
C52	C	0.965611	-0.426379	0.805992
C53	C	0.919394	-0.484600	0.769978
C54	C	0.922517	-0.480673	0.696424
C55	C	0.951142	-0.444573	1.026056
C56	C	0.948023	-0.448497	1.099614
C57	C	1.043575	-0.328128	1.098080
C58	C	1.046698	-0.324211	1.024526
C59	C	1.000478	-0.382429	0.988517
N60	N	0.962415	-0.430391	0.881177
N61	N	1.003671	-0.378411	0.913333
H62	H	0.253274	-0.290652	0.484496
H63	H	1.086874	-0.273607	0.993962
N64	N	0.573382	-0.309615	0.469871
H65	H	0.521078	-0.320613	0.461426
H66	H	0.589739	-0.243643	0.456701
H67	H	0.873598	-0.929755	0.497718
H68	H	0.881555	-0.758017	0.490289
H69	H	0.386728	-0.284035	0.489554
N70	N	1.093422	-0.265337	1.136917
H71	H	1.083959	-0.277252	1.189210
H72	H	1.086054	-0.200462	1.120861
H73	H	0.913517	-0.491991	0.996747
H74	H	1.084518	-1.050148	0.303522
N75	N	1.071290	-0.293287	0.654403
H76	H	1.100089	-0.257000	0.688379
H77	H	1.045894	-0.251127	0.620988
N78	N	0.894811	-0.515532	1.140111
H79	H	0.866004	-0.551817	1.106140
H80	H	0.862663	-0.481873	1.167803
H81	H	0.383760	-0.485293	0.334877
N82	N	1.065066	-0.727372	0.321253
H83	H	1.092780	-0.768766	0.295754
H84	H	1.098241	-0.687973	0.349496
H85	H	0.879221	-0.535197	0.800552
H86	H	0.914009	-1.067075	0.460577
H87	H	0.884880	-0.528072	0.667106
H88	H	1.092474	-0.878437	0.296089
H89	H	1.052579	-0.316827	0.797764
H90	H	0.250318	-0.491924	0.329824
N91	N	0.569983	-0.540181	0.292649
H92	H	0.579286	-0.604906	0.306772
H93	H	0.585589	-0.522602	0.242239
N94	N	0.722876	-0.532605	0.298445
H95	H	0.775180	-0.521601	0.306889
H96	H	0.712803	-0.516345	0.247066
N97	N	0.726276	-0.302029	0.475664
H98	H	0.692334	-0.268596	0.501360
H99	H	0.759977	-0.256991	0.446399
