data_functionalizedCrystal
_audit_creation_method	'MofGen! by Chris Wilmer'
_symmetry_space_group_name_H-M	'P1'
_symmetry_Int_Tables_number	1
_symmetry_cell_setting	triclinic
loop_
_symmetry_equiv_pos_as_xyz
  x,y,z
_cell_length_a	16.120530
_cell_length_b	19.805405
_cell_length_c	19.805399
_cell_angle_alpha	90.029301
_cell_angle_beta	92.915522
_cell_angle_gamma	87.121765
loop_
_atom_site_label
_atom_site_type_symbol
_atom_site_fract_x
_atom_site_fract_y
_atom_site_fract_z
Zn1	Zn	1.274516	-0.322020	0.435096
Zn2	Zn	1.607850	0.011313	0.768430
Zn3	Zn	1.941183	0.344647	1.101763
Zn4	Zn	1.274411	-0.435204	0.321900
Zn5	Zn	1.607745	-0.101871	0.655234
Zn6	Zn	1.941078	0.231463	0.988567
Zn7	Zn	1.135102	-0.316291	0.316191
Zn8	Zn	1.468436	0.017042	0.649524
Zn9	Zn	1.801769	0.350375	0.982857
Zn10	Zn	1.135057	-0.429423	0.429319
Zn11	Zn	1.468391	-0.096090	0.762653
Zn12	Zn	1.801724	0.237243	1.095986
O13	O	1.204772	-0.375735	0.375627
O14	O	1.538105	-0.042401	0.708960
O15	O	1.871438	0.290932	1.042293
O16	O	1.391168	-0.341851	0.424888
O17	O	1.724501	-0.008517	0.758221
O18	O	2.057834	0.324816	1.091555
O19	O	1.255907	-0.419452	0.226425
O20	O	1.589240	-0.086118	0.559759
O21	O	1.922573	0.247215	0.893092
O22	O	1.153659	-0.222337	0.331992
O23	O	1.486992	0.110996	0.665325
O24	O	1.820325	0.444329	0.998659
O25	O	1.391091	-0.425007	0.341723
O26	O	1.724424	-0.091673	0.675057
O27	O	2.057757	0.241660	1.008390
O28	O	1.256085	-0.226546	0.419351
O29	O	1.589419	0.106787	0.752685
O30	O	1.922752	0.440121	1.086018
O31	O	1.153557	-0.332087	0.222231
O32	O	1.486890	0.001246	0.555564
O33	O	1.820223	0.334579	0.888897
O34	O	1.018431	-0.326482	0.326390
O35	O	1.351764	0.006851	0.659724
O36	O	1.685098	0.340185	0.993057
O37	O	1.153582	-0.415154	0.524803
O38	O	1.486915	-0.081821	0.858137
O39	O	1.820249	0.251513	1.191470
O40	O	1.018398	-0.409599	0.409506
O41	O	1.351731	-0.076266	0.742839
O42	O	1.685065	0.257067	1.076172
O43	O	1.256042	-0.336245	0.529048
O44	O	1.589375	-0.002912	0.862381
O45	O	1.922708	0.330421	1.195714
O46	O	1.255863	-0.529151	0.336122
O47	O	1.589196	-0.195818	0.669455
O48	O	1.922530	0.137516	1.002788
O49	O	1.153480	-0.524904	0.415042
O50	O	1.486814	-0.191571	0.748375
O51	O	1.820147	0.141763	1.081709
C52	C	0.988164	-0.366792	0.366702
C53	C	1.321498	-0.033459	0.700035
C54	C	1.654831	0.299874	1.033369
C55	C	0.895499	-0.362983	0.362900
C56	C	1.228832	-0.029650	0.696233
C57	C	1.562166	0.303684	1.029567
C58	C	1.204678	-0.551587	0.375590
C59	C	1.538011	-0.218253	0.708924
C60	C	1.871345	0.115080	1.042257
C61	C	1.204714	-0.626820	0.375600
C62	C	1.538047	-0.293487	0.708934
C63	C	1.871381	0.039846	1.042267
C64	C	1.258077	-0.664356	0.334554
C65	C	1.591410	-0.331022	0.667887
C66	C	1.924743	0.002311	1.001221
C67	C	1.258112	-0.735045	0.334570
C68	C	1.591445	-0.401712	0.667904
C69	C	1.924779	-0.068379	1.001237
C70	C	1.204780	-0.768199	0.375630
C71	C	1.538113	-0.434865	0.708963
C72	C	1.871447	-0.101532	1.042297
C73	C	1.151415	-0.730658	0.416681
C74	C	1.484749	-0.397325	0.750014
C75	C	1.818082	-0.063992	1.083348
C76	C	1.151385	-0.659970	0.416668
C77	C	1.484718	-0.326637	0.750001
C78	C	1.818051	0.006697	1.083334
C79	C	1.151538	-1.015737	0.416736
C80	C	1.484872	-0.682403	0.750070
C81	C	1.818205	-0.349070	1.083403
C82	C	1.151571	-1.086430	0.416745
C83	C	1.484904	-0.753097	0.750078
C84	C	1.818238	-0.419763	1.083412
C85	C	1.258266	-1.090812	0.334639
C86	C	1.591599	-0.757479	0.667972
C87	C	1.924932	-0.424145	1.001306
C88	C	1.258235	-1.020124	0.334626
C89	C	1.591568	-0.686790	0.667959
C90	C	1.924902	-0.353457	1.001292
C91	C	1.204874	-0.982590	0.375679
C92	C	1.538207	-0.649256	0.709012
C93	C	1.871540	-0.315923	1.042346
C94	C	1.204837	-0.905940	0.375662
C95	C	1.538170	-0.572606	0.708995
C96	C	1.871504	-0.239273	1.042328
C97	C	1.204812	-0.844847	0.375644
C98	C	1.538145	-0.511514	0.708978
C99	C	1.871479	-0.178180	1.042311
C100	C	0.725838	-0.356012	0.355964
C101	C	1.059171	-0.022679	0.689298
C102	C	1.392504	0.310654	1.022631
C103	C	0.684546	-0.395507	0.395339
C104	C	1.017880	-0.062174	0.728672
C105	C	1.351213	0.271160	1.062005
C106	C	0.590141	-0.391628	0.391480
C107	C	0.923474	-0.058295	0.724813
C108	C	1.256808	0.275038	1.058146
C109	C	0.820252	-0.359890	0.359822
C110	C	1.153585	-0.026557	0.693156
C111	C	1.486918	0.306777	1.026489
C112	C	1.422225	-0.384712	0.384587
C113	C	1.755558	-0.051379	0.717920
C114	C	2.088892	0.281954	1.051253
C115	C	1.514890	-0.388538	0.388405
C116	C	1.848224	-0.055205	0.721738
C117	C	2.181557	0.278128	1.055072
C118	C	1.204819	-0.375694	0.552171
C119	C	1.538152	-0.042361	0.885505
C120	C	1.871485	0.290973	1.218838
C121	C	1.204838	-0.375677	0.627404
C122	C	1.538172	-0.042343	0.960738
C123	C	1.871505	0.290990	1.294071
C124	C	1.204889	-0.199197	0.375679
C125	C	1.538222	0.134137	0.709013
C126	C	1.871555	0.467470	1.042346
C127	C	1.204938	-0.123967	0.375702
C128	C	1.538272	0.209367	0.709035
C129	C	1.871605	0.542700	1.042368
C130	C	1.204773	-0.375728	0.199771
C131	C	1.538107	-0.042395	0.533104
C132	C	1.871440	0.290938	0.866438
C133	C	1.204915	-0.375562	0.124545
C134	C	1.538248	-0.042228	0.457878
C135	C	1.871581	0.291105	0.791212
C136	C	1.258190	-0.334587	0.664960
C137	C	1.591524	-0.001253	0.998293
C138	C	1.924857	0.332080	1.331626
C139	C	1.258199	-0.334567	0.735648
C140	C	1.591532	-0.001234	1.068982
C141	C	1.924866	0.332099	1.402315
C142	C	1.204859	-0.375642	0.768781
C143	C	1.538193	-0.042309	1.102114
C144	C	1.871526	0.291025	1.435448
C145	C	1.151501	-0.416734	0.731220
C146	C	1.484835	-0.083400	1.064554
C147	C	1.818168	0.249933	1.397887
C148	C	1.151489	-0.416749	0.660533
C149	C	1.484822	-0.083416	0.993866
C150	C	1.818156	0.249918	1.327199
C151	C	1.151548	-0.416672	1.016296
C152	C	1.484882	-0.083339	1.349629
C153	C	1.818215	0.249994	1.682962
C154	C	1.151566	-0.416656	1.086989
C155	C	1.484900	-0.083322	1.420322
C156	C	1.818233	0.250011	1.753655
C157	C	1.258258	-0.334491	1.091412
C158	C	1.591592	-0.001158	1.424745
C159	C	1.924925	0.332176	1.758078
C160	C	1.258246	-0.334506	1.020724
C161	C	1.591579	-0.001173	1.354057
C162	C	1.924913	0.332160	1.687391
C163	C	1.204885	-0.375595	0.983169
C164	C	1.538219	-0.042262	1.316503
C165	C	1.871552	0.291072	1.649836
C166	C	1.204876	-0.375614	0.906521
C167	C	1.538209	-0.042281	1.239854
C168	C	1.871542	0.291052	1.573187
C169	C	1.204873	-0.375627	0.845429
C170	C	1.538206	-0.042293	1.178762
C171	C	1.871539	0.291040	1.512095
H172	H	1.301502	-0.637367	0.301115
H173	H	1.634835	-0.304034	0.634449
H174	H	1.968169	0.029300	0.967782
Cl175	Cl	1.325310	-0.282941	0.782860
Cl176	Cl	1.658644	0.050393	1.116193
Cl177	Cl	1.991977	0.383726	1.449526
H178	H	1.301718	-1.121381	0.301214
H179	H	1.635051	-0.788048	0.634547
H180	H	1.968385	-0.454714	0.967881
Cl181	Cl	1.084467	-0.468327	0.969094
Cl182	Cl	1.417800	-0.134994	1.302427
Cl183	Cl	1.751133	0.198339	1.635760
H184	H	0.690290	-0.319290	0.319359
H185	H	1.023624	0.014043	0.652692
H186	H	1.356957	0.347376	0.986026
H187	H	1.301564	-0.765604	0.301146
H188	H	1.634898	-0.432270	0.634479
H189	H	1.968231	-0.098937	0.967812
Cl190	Cl	1.084374	-0.772337	0.468303
Cl191	Cl	1.417707	-0.439003	0.801637
Cl192	Cl	1.751040	-0.105670	1.134970
Cl193	Cl	1.325255	-0.282950	0.623315
Cl194	Cl	1.658588	0.050383	0.956648
Cl195	Cl	1.991921	0.383716	1.289981
H196	H	1.301684	-0.301061	0.993751
H197	H	1.635017	0.032272	1.327085
H198	H	1.968350	0.365605	1.660418
Cl199	Cl	1.325338	-0.282833	1.138627
Cl200	Cl	1.658672	0.050500	1.471960
Cl201	Cl	1.992005	0.383834	1.805294
H202	H	1.107933	-0.629409	0.450093
H203	H	1.441266	-0.296076	0.783426
H204	H	1.774599	0.037258	1.116759
H205	H	1.108068	-0.450175	0.758202
H206	H	1.441401	-0.116841	1.091536
H207	H	1.774735	0.216492	1.424869
Cl208	Cl	1.084504	-0.468296	1.128640
Cl209	Cl	1.417838	-0.134962	1.461973
Cl210	Cl	1.751171	0.198371	1.795306
H211	H	1.108143	-1.113421	0.450186
H212	H	1.441476	-0.780088	0.783519
H213	H	1.774810	-0.446754	1.116852
Cl214	Cl	1.325284	-0.978449	0.283006
Cl215	Cl	1.658617	-0.645116	0.616339
Cl216	Cl	1.991950	-0.311783	0.949673
Cl217	Cl	1.084454	-0.968560	0.468345
Cl218	Cl	1.417787	-0.635227	0.801678
Cl219	Cl	1.751120	-0.301893	1.135012
H220	H	1.108036	-0.450201	0.629955
H221	H	1.441369	-0.116868	0.963289
H222	H	1.774703	0.216465	1.296622
Cl223	Cl	0.739429	-0.452204	0.451863
Cl224	Cl	1.072762	-0.118871	0.785197
Cl225	Cl	1.406095	0.214463	1.118530
