data_functionalizedCrystal
_audit_creation_method	'MofGen! by Chris Wilmer'
_symmetry_space_group_name_H-M	'P1'
_symmetry_Int_Tables_number	1
_symmetry_cell_setting	triclinic
loop_
_symmetry_equiv_pos_as_xyz
  x,y,z
_cell_length_a	15.538191
_cell_length_b	15.625429
_cell_length_c	16.176319
_cell_angle_alpha	108.080593
_cell_angle_beta	90.006979
_cell_angle_gamma	66.736792
loop_
_atom_site_label
_atom_site_type_symbol
_atom_site_fract_x
_atom_site_fract_y
_atom_site_fract_z
O1	O	1.249531	-0.292680	-0.018970
O2	O	0.975409	-0.188629	0.012217
O3	O	1.119792	-0.374286	-0.043435
O4	O	1.105148	-0.107022	0.036683
O5	O	1.119775	-0.374281	-0.180927
O6	O	0.975392	-0.188624	-0.125274
O7	O	1.249514	-0.292674	-0.156461
Cu8	Cu	1.112451	-0.240649	-0.153422
Cu9	Cu	1.112471	-0.240655	0.009178
O10	O	1.105131	-0.107017	-0.100809
C11	C	0.940319	-0.177740	-0.053266
C12	C	0.835788	-0.145313	-0.043547
C13	C	0.547575	-0.467467	-0.140106
C14	C	0.449350	-0.436974	-0.130964
C15	C	0.427131	-0.265459	-0.079549
C16	C	0.525357	-0.295938	-0.088691
C17	C	0.585572	-0.396943	-0.118968
C18	C	0.563354	-0.225413	-0.067553
C19	C	0.661571	-0.255890	-0.076689
C20	C	0.721792	-0.356890	-0.106963
C21	C	0.683789	-0.427419	-0.128105
C22	C	0.503137	-0.124409	-0.037270
C23	C	0.541133	-0.053884	-0.016132
C24	C	0.639353	-0.084360	-0.025274
C25	C	0.699574	-0.185361	-0.055548
C26	C	0.677355	-0.013832	-0.004133
C27	C	0.775573	-0.044308	-0.013269
C28	C	0.797791	-0.215837	-0.064684
C29	C	1.119120	-0.407654	-0.122183
C30	C	1.117132	-0.507083	-0.151983
C31	C	1.110612	-0.834097	0.124712
C32	C	1.108739	-0.927524	0.096684
C33	C	1.108721	-0.927505	-0.053200
C34	C	1.110598	-0.834078	-0.025185
C35	C	1.111542	-0.787382	0.063771
C36	C	1.111529	-0.787363	-0.086125
C37	C	1.113401	-0.693942	-0.058112
C38	C	1.114342	-0.647238	0.030841
C39	C	1.113415	-0.693961	0.091784
C40	C	1.110578	-0.834058	-0.175081
C41	C	1.111508	-0.787342	-0.236021
C42	C	1.113387	-0.693923	-0.208009
C43	C	1.114329	-0.647219	-0.119056
C44	C	1.114315	-0.647200	-0.268953
C45	C	1.116187	-0.553779	-0.240940
C46	C	1.116201	-0.553798	-0.091043
C47	C	1.284604	-0.303563	-0.090976
C48	C	1.389135	-0.335990	-0.100690
C49	C	1.105803	-0.073650	-0.022059
C50	C	1.107791	0.025779	0.007747
N51	N	1.112444	-0.240647	-0.267787
C52	C	1.169618	-0.204644	-0.300254
C53	C	1.169628	-0.204651	-0.386803
C54	C	1.112459	-0.240655	-0.440881
C55	C	1.055282	-0.276663	-0.408410
C56	C	1.055278	-0.276663	-0.321864
C57	C	1.055300	-0.276668	-0.757440
C58	C	1.055306	-0.276663	-0.843990
C59	C	1.169650	-0.204656	-0.822378
C60	C	1.169646	-0.204655	-0.735832
C61	C	1.112474	-0.240669	-0.703370
C62	C	1.112465	-0.240663	-0.609524
C63	C	1.112462	-0.240655	-0.534724
N64	N	1.112486	-0.240666	0.123540
H65	H	0.492093	0.028354	0.008523
H66	H	1.216187	-0.175336	-0.413233
H67	H	1.008747	-0.305992	-0.731020
H68	H	1.008750	-0.305984	-0.888020
H69	H	0.801767	-0.381703	-0.114390
H70	H	0.378091	-0.183220	-0.054894
H71	H	0.418418	-0.494411	-0.148178
H72	H	0.628314	0.068407	0.020528
C73	C	1.232550	-0.165050	-0.858092
C74	C	1.340633	-0.213637	-0.860736
C75	C	1.403527	-0.174029	-0.896448
C76	C	1.358338	-0.085834	-0.929516
C77	C	1.250249	-0.037242	-0.926873
C78	C	1.187354	-0.076851	-0.891161
H79	H	1.374091	-0.278928	-0.836257
H80	H	1.483543	-0.210000	-0.898404
H81	H	1.404896	-0.056514	-0.955952
H82	H	1.216791	0.028049	-0.951353
H83	H	1.107339	-0.040879	-0.889205
C84	C	1.107668	-0.978861	-0.151049
C85	C	1.189610	-1.002978	-0.220116
C86	C	1.188553	-1.054325	-0.317967
C87	C	1.105554	-1.081556	-0.346751
C88	C	1.023606	-1.057440	-0.277683
C89	C	1.024663	-1.006092	-0.179832
H90	H	1.251057	-0.982819	-0.198810
H91	H	1.249217	-1.072178	-0.369096
H92	H	1.104772	-1.119567	-0.419187
H93	H	0.962160	-1.077598	-0.298989
H94	H	0.963999	-0.988239	-0.128703
H95	H	0.732821	-0.509668	-0.152765
H96	H	1.116925	-0.515733	-0.290561
H97	H	1.008738	-0.305984	-0.452450
H98	H	0.806509	0.013120	0.003936
C99	C	1.117246	-0.502428	0.006811
C100	C	1.036839	-0.401233	0.057766
C101	C	1.037883	-0.349863	0.155615
C102	C	1.119336	-0.399690	0.202509
C103	C	1.199749	-0.500891	0.151554
C104	C	1.198705	-0.552260	0.053705
H105	H	0.976537	-0.364343	0.023053
H106	H	0.978356	-0.274947	0.193336
H107	H	1.120109	-0.361663	0.274943
H108	H	1.260051	-0.537781	0.186268
H109	H	1.258232	-0.627176	0.015985
H110	H	1.008720	-0.305980	-0.295432
H111	H	1.216167	-0.175318	-0.256225
H112	H	0.846822	-0.298086	-0.089344
C113	C	1.114464	-0.642587	0.189637
C114	C	1.195920	-0.692410	0.236529
C115	C	1.196971	-0.641035	0.334375
C116	C	1.116567	-0.539836	0.385329
C117	C	1.035105	-0.490007	0.338437
C118	C	1.034054	-0.541383	0.240590
H119	H	1.255445	-0.767329	0.198810
H120	H	1.257274	-0.677922	0.369088
H121	H	1.117345	-0.501805	0.457761
H122	H	0.975579	-0.415089	0.376156
H123	H	0.973750	-0.504495	0.205878
C124	C	0.613824	-0.578574	-0.173419
C125	C	0.609482	-0.645133	-0.264771
C126	C	0.675732	-0.756234	-0.298082
C127	C	0.746324	-0.800775	-0.240041
C128	C	0.750669	-0.734215	-0.148682
C129	C	0.684420	-0.623114	-0.115371
H130	H	0.557223	-0.612162	-0.307742
H131	H	0.672515	-0.805506	-0.365712
H132	H	0.795366	-0.883018	-0.264700
H133	H	0.802929	-0.767186	-0.105711
H134	H	0.687637	-0.573842	-0.047742
C135	C	1.232533	-0.165050	-0.676346
C136	C	1.295429	-0.125451	-0.712060
C137	C	1.358320	-0.085848	-0.652575
C138	C	1.358315	-0.085845	-0.557378
C139	C	1.295416	-0.125446	-0.521659
C140	C	1.232525	-0.165049	-0.581144
H141	H	1.295435	-0.125452	-0.782535
H142	H	1.404881	-0.056533	-0.679017
H143	H	1.404870	-0.056529	-0.513344
H144	H	1.295410	-0.125445	-0.451184
H145	H	1.185964	-0.194364	-0.554702
H146	H	0.423163	-0.099598	-0.029829
H147	H	1.109043	-0.910122	-0.197885
H148	H	1.115857	-0.571164	0.053649
H149	H	1.111389	-0.796078	0.197148
H150	H	1.110736	-0.825374	-0.308450
C151	C	1.113265	-0.698575	-0.366799
C152	C	1.030268	-0.725813	-0.395571
C153	C	1.029215	-0.777189	-0.493417
C154	C	1.111159	-0.801326	-0.562490
C155	C	1.194163	-0.774087	-0.533720
C156	C	1.195216	-0.722712	-0.435874
H157	H	0.969602	-0.707945	-0.344437
H158	H	0.967769	-0.797352	-0.514714
H159	H	1.110379	-0.839357	-0.634922
H160	H	1.254829	-0.791955	-0.584854
H161	H	1.256661	-0.702548	-0.414577
H162	H	1.107973	-0.965553	0.146317
