data_functionalizedCrystal
_audit_creation_method	'MofGen! by Chris Wilmer'
_symmetry_space_group_name_H-M	'P1'
_symmetry_Int_Tables_number	1
_symmetry_cell_setting	triclinic
loop_
_symmetry_equiv_pos_as_xyz
  x,y,z
_cell_length_a	17.699097
_cell_length_b	14.044220
_cell_length_c	16.176319
_cell_angle_alpha	89.992517
_cell_angle_beta	89.988988
_cell_angle_gamma	88.238654
loop_
_atom_site_label
_atom_site_type_symbol
_atom_site_fract_x
_atom_site_fract_y
_atom_site_fract_z
O1	O	1.012344	0.119911	-0.068818
O2	O	1.345677	0.453244	0.264515
O3	O	1.679011	0.786577	0.597849
O4	O	0.793042	0.135490	-0.068805
O5	O	1.126375	0.468824	0.264528
O6	O	1.459708	0.802157	0.597862
O7	O	0.899401	-0.010277	-0.068803
O8	O	1.232735	0.323057	0.264530
O9	O	1.566068	0.656390	0.597863
O10	O	0.905985	0.265678	-0.068820
O11	O	1.239318	0.599011	0.264513
O12	O	1.572651	0.932344	0.597847
O13	O	0.899385	-0.010286	0.068690
O14	O	1.232718	0.323047	0.402023
O15	O	1.566051	0.656381	0.735357
O16	O	0.793025	0.135481	0.068688
O17	O	1.126359	0.468814	0.402021
O18	O	1.459692	0.802148	0.735355
O19	O	1.012327	0.119901	0.068675
O20	O	1.345661	0.453235	0.402008
O21	O	1.678994	0.786568	0.735342
Cu22	Cu	0.902675	0.127690	0.081236
Cu23	Cu	1.236008	0.461024	0.414569
Cu24	Cu	1.569341	0.794357	0.747903
Cu25	Cu	0.902694	0.127701	-0.081366
Cu26	Cu	1.236028	0.461035	0.251968
Cu27	Cu	1.569361	0.794368	0.585301
O28	O	0.905968	0.265668	0.068673
O29	O	1.239301	0.599002	0.402007
O30	O	1.572635	0.932335	0.735340
C31	C	0.764798	0.134925	-0.000057
C32	C	1.098131	0.468259	0.333277
C33	C	1.431465	0.801592	0.666610
C34	C	0.680664	0.133244	-0.000051
C35	C	1.013998	0.466577	0.333282
C36	C	1.347331	0.799911	0.666615
C37	C	0.164244	0.122944	-0.075032
C38	C	0.497578	0.456278	0.258302
C39	C	0.830911	0.789611	0.591635
C40	C	0.243297	0.124518	-0.075028
C41	C	0.576630	0.457851	0.258306
C42	C	0.909964	0.791184	0.591639
C43	C	0.282808	0.125301	-0.000077
C44	C	0.616142	0.458634	0.333256
C45	C	0.949475	0.791967	0.666590
C46	C	0.243263	0.124501	0.074875
C47	C	0.576597	0.457834	0.408208
C48	C	0.909930	0.791167	0.741542
C49	C	0.164212	0.122921	0.074870
C50	C	0.497546	0.456254	0.408203
C51	C	0.830879	0.789588	0.741537
C52	C	0.562067	0.130871	0.074896
C53	C	0.895400	0.464205	0.408230
C54	C	1.228733	0.797538	0.741563
C55	C	0.641123	0.132454	0.074895
C56	C	0.974456	0.465787	0.408229
C57	C	1.307790	0.799121	0.741562
C58	C	0.641152	0.132468	-0.075001
C59	C	0.974485	0.465801	0.258332
C60	C	1.307818	0.799135	0.591665
C61	C	0.562101	0.130888	-0.075006
C62	C	0.895434	0.464221	0.258327
C63	C	1.228767	0.797555	0.591660
C64	C	0.522563	0.130083	-0.000055
C65	C	0.855896	0.463417	0.333278
C66	C	1.189229	0.796750	0.666612
C67	C	0.436845	0.128376	-0.000060
C68	C	0.770178	0.461709	0.333273
C69	C	1.103512	0.795042	0.666606
C70	C	0.368524	0.127015	-0.000071
C71	C	0.701858	0.460348	0.333263
C72	C	1.035191	0.793682	0.666596
C73	C	0.896511	-0.045589	-0.000056
C74	C	1.229844	0.287744	0.333277
C75	C	1.563178	0.621077	0.666611
C76	C	0.887915	-0.150796	-0.000055
C77	C	1.221249	0.182538	0.333279
C78	C	1.554582	0.515871	0.666612
C79	C	0.872200	-0.343422	-0.000066
C80	C	1.205533	-0.010089	0.333268
C81	C	1.538867	0.323245	0.666601
C82	C	0.933166	-0.401192	-0.000072
C83	C	1.266499	-0.067859	0.333262
C84	C	1.599833	0.265475	0.666595
C85	C	0.924422	-0.508376	-0.000078
C86	C	1.257755	-0.175042	0.333256
C87	C	1.591088	0.158291	0.666589
C88	C	0.880943	-0.236228	-0.000059
C89	C	1.214276	0.097105	0.333274
C90	C	1.547610	0.430439	0.666607
C91	C	1.040571	0.120466	-0.000075
C92	C	1.373905	0.453800	0.333258
C93	C	1.707238	0.787133	0.666592
C94	C	1.124705	0.122148	-0.000086
C95	C	1.458038	0.455481	0.333248
C96	C	1.791371	0.788814	0.666581
C97	C	0.908858	0.300981	-0.000076
C98	C	1.242191	0.634314	0.333258
C99	C	1.575525	0.967648	0.666591
C100	C	0.917454	0.406188	-0.000083
C101	C	1.250787	0.739521	0.333251
C102	C	1.584121	1.072854	0.666584
N103	N	0.902666	0.127682	0.195601
N104	N	1.236000	0.461015	0.528934
N105	N	1.569333	0.794349	0.862268
N106	N	0.902708	0.127702	-0.195731
N107	N	1.236042	0.461035	0.137602
N108	N	1.569375	0.794369	0.470936
C109	C	0.949780	0.063163	0.238866
C110	C	1.283113	0.396496	0.572199
C111	C	1.616446	0.729829	0.905533
C112	C	0.949783	0.063162	0.325413
C113	C	1.283117	0.396495	0.658746
C114	C	1.616450	0.729828	0.992080
C115	C	0.902677	0.127685	0.368694
C116	C	1.236011	0.461019	0.702027
C117	C	1.569344	0.794352	1.035360
C118	C	0.855559	0.192208	0.325423
C119	C	1.188892	0.525541	0.658756
C120	C	1.522226	0.858874	0.992089
C121	C	0.855552	0.192204	0.238877
C122	C	1.188885	0.525537	0.572210
C123	C	1.522218	0.858870	0.905544
C124	C	0.855586	0.192226	0.674451
C125	C	1.188919	0.525559	1.007784
C126	C	1.522253	0.858892	1.341118
C127	C	0.855598	0.192227	0.761002
C128	C	1.188932	0.525560	1.094336
C129	C	1.522265	0.858893	1.427669
C130	C	0.949818	0.063184	0.760987
C131	C	1.283151	0.396517	1.094320
C132	C	1.616484	0.729850	1.427654
C133	C	0.949811	0.063180	0.674441
C134	C	1.283144	0.396513	1.007775
C135	C	1.616477	0.729846	1.341108
C136	C	0.902690	0.127698	0.631178
C137	C	1.236023	0.461031	0.964511
C138	C	1.569356	0.794365	1.297845
C139	C	0.902685	0.127697	0.537334
C140	C	1.236018	0.461031	0.870667
C141	C	1.569352	0.794364	1.204000
C142	C	0.902685	0.127692	0.462536
C143	C	1.236019	0.461025	0.795870
C144	C	1.569352	0.794358	1.129203
H145	H	0.275487	0.125161	-0.136056
H146	H	0.608820	0.458494	0.197277
H147	H	0.942154	0.791827	0.530610
H148	H	0.817200	0.244741	0.360667
H149	H	1.150534	0.578074	0.694000
H150	H	1.483867	0.911408	1.027333
H151	H	0.991927	-0.370153	-0.000131
H152	H	1.325261	-0.036819	0.333203
H153	H	1.658594	0.296514	0.666536
H154	H	0.988146	0.010625	0.360639
H155	H	1.321479	0.343958	0.693972
H156	H	1.654813	0.677291	1.027306
H157	H	0.988171	0.010642	0.639205
H158	H	1.321505	0.343975	0.972538
H159	H	1.654838	0.677308	1.305872
H160	H	0.988184	0.010646	0.796221
H161	H	1.321517	0.343979	1.129555
H162	H	1.654851	0.677313	1.462888
H163	H	0.817236	0.244771	0.796240
H164	H	1.150570	0.578105	1.129573
H165	H	1.483903	0.911438	1.462907
H166	H	0.529934	0.130255	-0.136039
H167	H	0.863268	0.463589	0.197294
H168	H	1.196601	0.796922	0.530628
H169	H	0.132020	0.122282	0.135899
H170	H	0.465353	0.455615	0.469232
H171	H	0.798686	0.788949	0.802565
H172	H	0.813443	-0.374459	-0.000064
H173	H	1.146777	-0.041126	0.333269
H174	H	1.480110	0.292207	0.666603
H175	H	0.817220	0.244760	0.639232
H176	H	1.150553	0.578094	0.972566
H177	H	1.483887	0.911427	1.305899
H178	H	0.132080	0.122314	-0.136066
H179	H	0.465413	0.455647	0.197268
H180	H	0.798746	0.788980	0.530601
H181	H	0.673353	0.133119	-0.136030
H182	H	1.006686	0.466453	0.197303
H183	H	1.340020	0.799786	0.530636
H184	H	0.673291	0.133092	0.135933
H185	H	1.006624	0.466425	0.469266
H186	H	1.339958	0.799758	0.802600
H187	H	0.817186	0.244740	0.203651
H188	H	1.150520	0.578074	0.536985
H189	H	1.483853	0.911407	0.870318
H190	H	0.529885	0.130202	0.135926
H191	H	0.863218	0.463535	0.469260
H192	H	1.196552	0.796869	0.802593
H193	H	0.275440	0.125132	0.135901
H194	H	0.608773	0.458466	0.469235
H195	H	0.942107	0.791799	0.802568
H196	H	0.988142	0.010624	0.203633
H197	H	1.321476	0.343958	0.536966
H198	H	1.654809	0.677291	0.870299
