data_functionalizedCrystal
_audit_creation_method	'MofGen! by Chris Wilmer'
_symmetry_space_group_name_H-M	'P1'
_symmetry_Int_Tables_number	1
_symmetry_cell_setting	triclinic
loop_
_symmetry_equiv_pos_as_xyz
  x,y,z
_cell_length_a	12.827893
_cell_length_b	19.121063
_cell_length_c	12.827885
_cell_angle_alpha	87.596033
_cell_angle_beta	90.019082
_cell_angle_gamma	92.469061
loop_
_atom_site_label
_atom_site_type_symbol
_atom_site_fract_x
_atom_site_fract_y
_atom_site_fract_z
Zn1	Zn	1.579836	-0.279576	0.608533
Zn2	Zn	2.079836	0.220424	1.108533
Zn3	Zn	1.572237	-0.397043	0.441226
Zn4	Zn	2.072237	0.102957	0.941226
Zn5	Zn	1.405075	-0.279610	0.433810
Zn6	Zn	1.905075	0.220390	0.933810
Zn7	Zn	1.397573	-0.396991	0.615924
Zn8	Zn	1.897573	0.103009	1.115924
O9	O	1.488680	-0.338305	0.524873
O10	O	1.988680	0.161695	1.024873
O11	O	1.725063	-0.295165	0.586351
O12	O	2.225063	0.204835	1.086351
O13	O	1.550022	-0.381501	0.294009
O14	O	2.050022	0.118499	0.794009
O15	O	1.434577	-0.181322	0.450791
O16	O	1.934577	0.318678	0.950791
O17	O	1.719480	-0.381468	0.463431
O18	O	2.219480	0.118532	0.963431
O19	O	1.562973	-0.181296	0.579159
O20	O	2.062973	0.318704	1.079159
O21	O	1.427209	-0.295224	0.288560
O22	O	1.927209	0.204776	0.788560
O23	O	1.257844	-0.295174	0.457957
O24	O	1.757844	0.204826	0.957957
O25	O	1.421791	-0.381379	0.761177
O26	O	1.921791	0.118621	1.261177
O27	O	1.252332	-0.381413	0.591755
O28	O	1.752332	0.118587	1.091755
O29	O	1.555699	-0.295115	0.755748
O30	O	2.055699	0.204885	1.255748
O31	O	1.542747	-0.495320	0.470597
O32	O	2.042747	0.004680	0.970597
O33	O	1.414422	-0.495282	0.598946
O34	O	1.914422	0.004718	1.098946
C35	C	1.217171	-0.338292	0.524854
C36	C	1.717171	0.161708	1.024854
C37	C	1.101017	-0.338303	0.524871
C38	C	1.601017	0.161697	1.024871
C39	C	0.926483	-0.381054	0.591001
C40	C	1.426483	0.118946	1.091001
C41	C	1.046534	-0.381044	0.590985
C42	C	1.546534	0.118956	1.090985
C43	C	1.476974	-0.520785	0.536401
C44	C	1.976974	-0.020785	1.036401
C45	C	1.472062	-0.598850	0.541368
C46	C	1.972062	-0.098850	1.041368
C47	C	1.536618	-0.635522	0.476932
C48	C	2.036618	-0.135522	0.976932
C49	C	1.532005	-0.708873	0.481609
C50	C	2.032005	-0.208873	0.981609
C51	C	1.462829	-0.745551	0.550718
C52	C	1.962829	-0.245551	1.050718
C53	C	1.398270	-0.708874	0.615161
C54	C	1.898270	-0.208874	1.115161
C55	C	1.402890	-0.635524	0.610488
C56	C	1.902890	-0.135524	1.110488
C57	C	1.445540	-0.967020	0.568172
C58	C	1.945540	-0.467020	1.068172
C59	C	1.440923	-1.040375	0.572837
C60	C	1.940923	-0.540375	1.072837
C61	C	1.574660	-1.040369	0.439286
C62	C	2.074660	-0.540369	0.939286
C63	C	1.579269	-0.967018	0.434615
C64	C	2.079269	-0.467018	0.934615
C65	C	1.514714	-0.930347	0.499062
C66	C	2.014714	-0.430347	0.999062
C67	C	1.458109	-0.820528	0.555498
C68	C	1.958109	-0.320528	1.055498
C69	C	1.519440	-0.855372	0.494287
C70	C	2.019440	-0.355372	0.994287
C71	C	1.761249	-0.338318	0.524894
C72	C	2.261249	0.161682	1.024894
C73	C	1.877402	-0.338324	0.524903
C74	C	2.377402	0.161676	1.024903
C75	C	1.488755	-0.338237	0.797439
C76	C	1.988755	0.161763	1.297439
C77	C	1.488787	-0.338209	0.913591
C78	C	1.988787	0.161791	1.413591
C79	C	1.500460	-0.155112	0.513323
C80	C	2.000460	0.344888	1.013323
C81	C	1.505480	-0.077047	0.508401
C82	C	2.005480	0.422953	1.008401
C83	C	1.488668	-0.338321	0.253364
C84	C	1.988668	0.161679	0.753364
C85	C	1.488851	-0.338152	0.137201
C86	C	1.988851	0.161848	0.637201
C87	C	1.555057	-0.295514	0.962688
C88	C	2.055057	0.204486	1.462688
C89	C	1.555092	-0.295483	1.082737
C90	C	2.055092	0.204517	1.582737
H91	H	0.924259	-0.301736	0.468298
H92	H	1.424259	0.198264	0.968298
H93	H	1.432071	-0.374734	0.960432
H94	H	1.932071	0.125266	1.460432
O95	O	1.045119	-0.289837	0.449901
O96	O	1.545119	0.210163	0.949901
H97	H	1.065217	-0.301803	0.368592
H98	H	1.565217	0.198197	0.868592
H99	H	1.611830	-0.258933	1.124970
H100	H	2.111830	0.241067	1.624970
O101	O	1.630179	-0.247121	0.900655
O102	O	2.130179	0.252879	1.400655
H103	H	1.711446	-0.259150	0.922315
H104	H	2.211446	0.240850	1.422315
H105	H	1.401784	-0.850399	0.611764
H106	H	1.901784	-0.350399	1.111764
H107	H	1.592944	-0.605664	0.420652
H108	H	2.092944	-0.105664	0.920652
H109	H	1.350323	-0.605667	0.662960
H110	H	1.850323	-0.105667	1.162960
O111	O	1.601626	-0.748430	0.412105
O112	O	2.101626	-0.248430	0.912105
H113	H	1.650493	-0.710603	0.363254
H114	H	2.150493	-0.210603	0.863254
O115	O	1.413666	-0.386563	1.081283
O116	O	1.913666	0.113437	1.581283
H117	H	1.428015	-0.441698	1.105639
H118	H	1.928015	0.058302	1.605639
O119	O	0.864431	-0.429525	0.665987
O120	O	1.364431	0.070475	1.165987
H121	H	0.779876	-0.421923	0.654239
H122	H	1.279876	0.078077	1.154239
H123	H	1.635597	-0.937156	0.378342
H124	H	2.135597	-0.437156	0.878342
O125	O	1.102444	-0.429496	0.665965
O126	O	1.602444	0.070504	1.165965
H127	H	1.187963	-0.421882	0.654189
H128	H	1.687963	0.078118	1.154189
O129	O	1.644315	-1.079919	0.369808
O130	O	2.144315	-0.579919	0.869808
H131	H	1.629500	-1.137085	0.384678
H132	H	2.129500	-0.637085	0.884678
H133	H	1.384605	-1.070236	0.629132
H134	H	1.884605	-0.570236	1.129132
H135	H	1.392975	-0.937168	0.620645
H136	H	1.892975	-0.437168	1.120645
O137	O	1.323644	-0.748428	0.689691
O138	O	1.823644	-0.248428	1.189691
H139	H	1.331264	-0.805594	0.682104
H140	H	1.831264	-0.305594	1.182104
H141	H	1.575767	-0.825507	0.438022
H142	H	2.075767	-0.325507	0.938022
