data_functionalizedCrystal
_audit_creation_method	'MofGen! by Chris Wilmer'
_symmetry_space_group_name_H-M	'P1'
_symmetry_Int_Tables_number	1
_symmetry_cell_setting	triclinic
loop_
_symmetry_equiv_pos_as_xyz
  x,y,z
_cell_length_a	27.732048
_cell_length_b	19.188930
_cell_length_c	17.666332
_cell_angle_alpha	89.980296
_cell_angle_beta	90.009510
_cell_angle_gamma	97.106284
loop_
_atom_site_label
_atom_site_type_symbol
_atom_site_fract_x
_atom_site_fract_y
_atom_site_fract_z
O1	O	0.060347	-0.925761	0.063200
O2	O	0.560347	-0.425761	0.563200
O3	O	0.068471	-0.722398	0.063149
O4	O	0.568471	-0.222398	0.563149
O5	O	-0.005969	-0.830396	0.063161
O6	O	0.494031	-0.330396	0.563161
O7	O	0.134786	-0.817764	0.063187
O8	O	0.634786	-0.317764	0.563187
O9	O	-0.005970	-0.830384	-0.062735
O10	O	0.494030	-0.330384	0.437265
O11	O	0.068469	-0.722386	-0.062748
O12	O	0.568469	-0.222386	0.437252
O13	O	0.060345	-0.925749	-0.062697
O14	O	0.560345	-0.425749	0.437303
Cu15	Cu	0.064407	-0.824067	-0.074218
Cu16	Cu	0.564407	-0.324067	0.425782
Cu17	Cu	0.064409	-0.824081	0.074670
Cu18	Cu	0.564409	-0.324081	0.574670
O19	O	0.134784	-0.817752	-0.062710
O20	O	0.634784	-0.317752	0.437290
C21	C	-0.023977	-0.830125	0.000211
C22	C	0.476023	-0.330125	0.500211
C23	C	-0.077635	-0.829326	0.000204
C24	C	0.422365	-0.329326	0.500204
C25	C	0.068207	-0.696383	0.000194
C26	C	0.568207	-0.196383	0.500194
C27	C	0.067417	-0.618883	0.000174
C28	C	0.567417	-0.118883	0.500174
C29	C	0.060609	-0.951765	0.000260
C30	C	0.560609	-0.451765	0.500260
C31	C	0.061399	-1.029264	0.000285
C32	C	0.561399	-0.529264	0.500285
C33	C	-0.416270	-0.888119	0.000258
C34	C	0.083730	-0.388119	0.500258
C35	C	-0.617939	-0.885157	0.000268
C36	C	-0.117939	-0.385157	0.500268
O37	O	-0.649030	-0.938918	0.000314
O38	O	-0.149030	-0.438918	0.500314
N39	N	-0.637258	-0.821118	0.000251
N40	N	-0.137258	-0.321118	0.500251
C41	C	-0.606157	-0.757816	0.000237
C42	C	-0.106157	-0.257816	0.500237
O43	O	-0.627217	-0.703280	0.000231
O44	O	-0.127217	-0.203280	0.500231
C45	C	-0.404489	-0.760780	0.000233
C46	C	0.095511	-0.260780	0.500233
C47	C	-0.385173	-0.824822	0.000242
C48	C	0.114827	-0.324822	0.500242
C49	C	-0.396953	-0.952156	0.000268
C50	C	0.103047	-0.452156	0.500268
C51	C	-0.346539	-0.952896	0.000261
C52	C	0.153461	-0.452896	0.500261
C53	C	-0.315441	-0.889599	0.000245
C54	C	0.184559	-0.389599	0.500245
C55	C	-0.334759	-0.825562	0.000235
C56	C	0.165241	-0.325562	0.500235
C57	C	-0.373389	-0.697478	0.000224
C58	C	0.126611	-0.197478	0.500224
C59	C	-0.322969	-0.698225	0.000225
C60	C	0.177031	-0.198225	0.500225
C61	C	-0.303653	-0.762267	0.000234
C62	C	0.196347	-0.262267	0.500234
C63	C	-0.253247	-0.763005	0.000212
C64	C	0.246753	-0.263005	0.500212
N65	N	-0.233928	-0.827043	0.000229
N66	N	0.266072	-0.327043	0.500229
C67	C	-0.265025	-0.890340	0.000245
C68	C	0.234975	-0.390340	0.500245
C69	C	-0.712036	-0.756265	0.000238
C70	C	-0.212036	-0.256265	0.500238
C71	C	-0.762452	-0.755524	0.000238
C72	C	-0.262452	-0.255524	0.500238
C73	C	-0.774231	-0.882865	0.000270
C74	C	-0.274231	-0.382865	0.500270
C75	C	-0.723813	-0.883605	0.000265
C76	C	-0.223813	-0.383605	0.500265
C77	C	-0.692716	-0.820303	0.000254
C78	C	-0.192716	-0.320303	0.500254
C79	C	-0.159151	-0.891889	0.000231
C80	C	0.340849	-0.391889	0.500231
C81	C	-0.108732	-0.892623	0.000221
C82	C	0.391268	-0.392623	0.500221
C83	C	-0.096958	-0.765283	0.000193
C84	C	0.403042	-0.265283	0.500193
C85	C	-0.147373	-0.764549	0.000198
C86	C	0.352627	-0.264549	0.500198
C87	C	-0.178468	-0.827857	0.000220
C88	C	0.321532	-0.327857	0.500220
O89	O	-0.222127	-0.709272	0.000174
O90	O	0.277873	-0.209272	0.500174
O91	O	-0.243956	-0.944868	0.000268
O92	O	0.256044	-0.444868	0.500268
C93	C	-0.466684	-0.887379	0.000265
C94	C	0.033316	-0.387379	0.500265
C95	C	-0.486001	-0.823342	0.000255
C96	C	0.013999	-0.323342	0.500255
C97	C	-0.454904	-0.760045	0.000238
C98	C	0.045096	-0.260045	0.500238
C99	C	-0.536418	-0.822601	0.000254
C100	C	-0.036418	-0.322601	0.500254
C101	C	-0.567515	-0.885898	0.000271
C102	C	-0.067515	-0.385898	0.500271
C103	C	-0.548195	-0.949936	0.000288
C104	C	-0.048195	-0.449936	0.500288
C105	C	-0.497781	-0.950676	0.000281
C106	C	0.002219	-0.450676	0.500281
C107	C	-0.474224	-0.696007	0.000222
C108	C	0.025776	-0.196007	0.500222
C109	C	-0.524638	-0.695272	0.000227
C110	C	-0.024638	-0.195272	0.500227
C111	C	-0.555735	-0.758569	0.000244
C112	C	-0.055735	-0.258569	0.500244
C113	C	0.152793	-0.818023	0.000243
C114	C	0.652793	-0.318023	0.500243
C115	C	0.206450	-0.818821	0.000254
C116	C	0.706450	-0.318821	0.500254
N117	N	0.064405	-0.824062	-0.178937
N118	N	0.564405	-0.324062	0.321063
C119	C	0.111096	-0.573681	0.000194
C120	C	0.611096	-0.073681	0.500194
C121	C	0.110354	-0.500862	0.000202
C122	C	0.610354	-0.000862	0.500202
C123	C	0.065931	-0.473249	0.000205
C124	C	0.565931	0.026751	0.500205
C125	C	0.022246	-0.518461	0.000181
C126	C	0.522246	-0.018461	0.500181
C127	C	0.022990	-0.591278	0.000165
C128	C	0.522990	-0.091278	0.500165
N129	N	0.031975	-0.365489	0.043078
N130	N	0.531975	0.134511	0.543078
N131	N	0.031272	-0.296315	0.043094
N132	N	0.531272	0.203685	0.543094
C133	C	0.063689	-0.253854	0.000251
C134	C	0.563689	0.246146	0.500251
N135	N	0.096842	-0.283179	-0.042600
N136	N	0.596842	0.216821	0.457400
N137	N	0.097547	-0.352360	-0.042613
N138	N	0.597547	0.147640	0.457387
C139	C	0.065120	-0.394291	0.000222
C140	C	0.565120	0.105709	0.500222
C141	C	0.106566	-0.129692	0.000279
C142	C	0.606566	0.370308	0.500279
C143	C	0.105822	-0.056872	0.000282
C144	C	0.605822	0.443128	0.500282
C145	C	0.017714	-0.074473	0.000269
C146	C	0.517714	0.425527	0.500269
C147	C	0.018459	-0.147292	0.000258
C148	C	0.518459	0.352708	0.500258
C149	C	0.062886	-0.174896	0.000267
C150	C	0.562886	0.325104	0.500267
C151	C	0.031454	-0.871914	-0.780982
C152	C	0.531454	-0.371914	-0.280982
C153	C	0.031455	-0.871915	-0.701734
C154	C	0.531455	-0.371915	-0.201734
C155	C	0.064405	-0.824082	-0.662119
C156	C	0.564405	-0.324082	-0.162119
C157	C	0.097363	-0.776255	-0.701757
C158	C	0.597363	-0.276255	-0.201757
C159	C	0.097365	-0.776260	-0.781004
C160	C	0.597365	-0.276260	-0.281004
N161	N	0.070669	-0.762230	-0.537721
N162	N	0.570669	-0.262230	-0.037721
N163	N	0.070665	-0.762227	-0.462440
N164	N	0.570665	-0.262227	0.037560
C165	C	0.064404	-0.824065	-0.423355
C166	C	0.564404	-0.324065	0.076645
N167	N	0.058137	-0.885907	-0.462393
N168	N	0.558137	-0.385907	0.037607
N169	N	0.058139	-0.885909	-0.537681
N170	N	0.558139	-0.385909	-0.037681
C171	C	0.064407	-0.824071	-0.576190
C172	C	0.564407	-0.324071	-0.076190
C173	C	0.031450	-0.871893	-0.297796
C174	C	0.531450	-0.371893	0.202204
C175	C	0.031455	-0.871895	-0.218547
C176	C	0.531455	-0.371895	0.281453
C177	C	0.097361	-0.776229	-0.218572
C178	C	0.597361	-0.276229	0.281428
C179	C	0.097359	-0.776233	-0.297820
C180	C	0.597359	-0.276233	0.202180
C181	C	0.064401	-0.824064	-0.337427
C182	C	0.564401	-0.324064	0.162573
N183	N	0.064407	-0.824091	0.179389
N184	N	0.564407	-0.324091	0.679389
H185	H	-0.184464	-0.943441	0.000251
H186	H	0.315536	-0.443441	0.500251
O187	O	0.129436	-0.729858	-0.663313
O188	O	0.629436	-0.229858	-0.163313
C189	C	0.177267	-0.740682	-0.682669
C190	C	0.677267	-0.240682	-0.182669
H191	H	0.177406	-0.796579	-0.704427
H192	H	0.677406	-0.296579	-0.204427
H193	H	0.201539	-0.732386	-0.630549
H194	H	0.701539	-0.232386	-0.130549
H195	H	0.191534	-0.701834	-0.728682
H196	H	0.691534	-0.201834	-0.228682
O197	O	-0.292832	-0.636668	0.000181
O198	O	0.207168	-0.136668	0.500181
C199	C	-0.320697	-0.579990	0.000194
C200	C	0.179303	-0.079990	0.500194
H201	H	-0.358365	-0.598128	-0.023635
H202	H	0.141635	-0.098128	0.476365
H203	H	-0.302017	-0.535667	-0.036365
H204	H	0.197983	-0.035667	0.463635
H205	H	-0.324241	-0.560346	0.060591
H206	H	0.175759	-0.060346	0.560591
H207	H	-0.012580	-0.628083	0.000150
H208	H	0.487420	-0.128083	0.500150
O209	O	0.149678	-0.156630	0.000307
O210	O	0.649678	0.343370	0.500307
C211	C	0.140968	-0.230594	0.000273
C212	C	0.640968	0.269406	0.500273
H213	H	0.103213	-0.248113	0.024107
H214	H	0.603213	0.251887	0.524107
H215	H	0.169389	-0.252667	0.036817
H216	H	0.669389	0.247333	0.536817
H217	H	0.143261	-0.250812	-0.060131
H218	H	0.643261	0.249188	0.439869
H219	H	-0.686720	-0.704714	0.000229
H220	H	-0.186720	-0.204714	0.500229
O221	O	-0.025397	-0.047542	0.000308
O222	O	0.474603	0.452458	0.500308
C223	C	-0.016688	0.026422	0.000305
C224	C	0.483312	0.526422	0.500305
H225	H	0.021071	0.043919	0.024146
H226	H	0.521071	0.543919	0.524146
H227	H	-0.045103	0.048459	0.036859
H228	H	0.454897	0.548459	0.536859
H229	H	-0.018990	0.046698	-0.060090
H230	H	0.481010	0.546698	0.439910
H231	H	0.004619	-0.910862	-0.813228
H232	H	0.504619	-0.410862	-0.313228
O233	O	-0.020948	-0.491757	0.000155
O234	O	0.479052	0.008243	0.500155
C235	C	-0.059343	-0.547274	0.000155
C236	C	0.440657	-0.047274	0.500155
H237	H	-0.045899	-0.596588	-0.023693
H238	H	0.454101	-0.096588	0.476307
H239	H	-0.090369	-0.532368	-0.036395
H240	H	0.409631	-0.032368	0.463605
H241	H	-0.072807	-0.557756	0.060550
H242	H	0.427193	-0.057756	0.560550
O243	O	0.129391	-0.729861	-0.180018
O244	O	0.629391	-0.229861	0.319982
C245	C	0.159155	-0.766929	-0.134172
C246	C	0.659155	-0.266929	0.365828
H247	H	0.139806	-0.821768	-0.122280
H248	H	0.639806	-0.321768	0.377720
H249	H	0.166856	-0.737703	-0.078457
H250	H	0.666856	-0.237703	0.421543
H251	H	0.194870	-0.771292	-0.164705
H252	H	0.694870	-0.271292	0.335295
H253	H	0.004616	-0.910842	-0.330046
H254	H	0.504616	-0.410842	0.169954
H255	H	-0.093007	-0.944776	0.000226
H256	H	0.406993	-0.444776	0.500226
H257	H	0.124199	-0.737317	-0.813270
H258	H	0.624199	-0.237317	-0.313270
H259	H	0.004622	-0.910841	-0.186281
H260	H	0.504622	-0.410841	0.313719
O261	O	0.148299	-0.013059	0.000333
O262	O	0.648299	0.486941	0.500333
C263	C	0.187668	-0.053043	0.000319
C264	C	0.687668	0.446957	0.500319
H265	H	0.175282	-0.107540	0.024143
H266	H	0.675282	0.392460	0.524143
H267	H	0.218262	-0.025866	0.036882
H268	H	0.718262	0.474134	0.536882
H269	H	0.201294	-0.058055	-0.060077
H270	H	0.701294	0.441945	0.439923
H271	H	0.124190	-0.737289	-0.330088
H272	H	0.624190	-0.237289	0.169912
O273	O	-0.392170	-0.635286	0.000089
O274	O	0.107830	-0.135286	0.500089
C275	C	-0.420999	-0.631029	-0.065099
C276	C	0.079001	-0.131029	0.434901
H277	H	-0.409160	-0.667372	-0.110674
H278	H	0.090840	-0.167372	0.389326
H279	H	-0.416358	-0.574702	-0.086986
H280	H	0.083642	-0.074702	0.413014
H281	H	-0.460790	-0.647568	-0.050350
H282	H	0.039210	-0.147568	0.449650
O283	O	-0.327859	-1.015169	0.000310
O284	O	0.172141	-0.515169	0.500310
C285	C	-0.366125	-1.070870	0.000308
C286	C	0.133875	-0.570870	0.500308
H287	H	-0.400331	-1.051668	0.024138
H288	H	0.099669	-0.551668	0.524138
H289	H	-0.355679	-1.115619	0.036872
H290	H	0.144321	-0.615619	0.536872
H291	H	-0.373307	-1.090363	-0.060085
H292	H	0.126693	-0.590363	0.439915
O293	O	0.154218	-0.600586	0.000107
O294	O	0.654218	-0.100586	0.500107
C295	C	0.157295	-0.642139	-0.065108
C296	C	0.657295	-0.142139	0.434892
H297	H	0.119161	-0.660670	-0.086869
H298	H	0.619161	-0.160670	0.413131
H299	H	0.176455	-0.689631	-0.050437
H300	H	0.676455	-0.189631	0.449563
H301	H	0.178758	-0.609718	-0.110750
H302	H	0.678758	-0.109718	0.389250
O303	O	-0.543422	-0.633074	0.000085
O304	O	-0.043422	-0.133074	0.500085
C305	C	-0.572255	-0.628823	-0.065101
C306	C	-0.072255	-0.128823	0.434899
H307	H	-0.560415	-0.665169	-0.110675
H308	H	-0.060415	-0.165169	0.389325
H309	H	-0.567617	-0.572498	-0.086992
H310	H	-0.067617	-0.072498	0.413008
H311	H	-0.612045	-0.645365	-0.050348
H312	H	-0.112045	-0.145365	0.449652
O313	O	-0.578428	-1.011406	0.000440
O314	O	-0.078428	-0.511406	0.500440
C315	C	-0.607941	-1.014774	0.065638
C316	C	-0.107941	-0.514774	0.565638
H317	H	-0.589394	-0.978872	0.111198
H318	H	-0.089394	-0.478872	0.611198
H319	H	-0.613726	-1.071078	0.087543
H320	H	-0.113726	-0.571078	0.587543
H321	H	-0.644568	-0.997098	0.050897
H322	H	-0.144568	-0.497098	0.550897
H323	H	0.004620	-0.910859	-0.669462
H324	H	0.504620	-0.410859	-0.169462
O325	O	-0.427176	-1.013630	0.000417
O326	O	0.072824	-0.513630	0.500417
C327	C	-0.456696	-1.017026	0.065609
C328	C	0.043304	-0.517026	0.565609
H329	H	-0.438162	-0.981121	0.111178
H330	H	0.061838	-0.481121	0.611178
H331	H	-0.462466	-1.073333	0.087504
H332	H	0.037534	-0.573333	0.587504
H333	H	-0.493328	-0.999371	0.050862
H334	H	0.006672	-0.499371	0.550862
O335	O	-0.804462	-0.944335	0.000426
O336	O	-0.304462	-0.444335	0.500426
C337	C	-0.833976	-0.947698	0.065624
C338	C	-0.333976	-0.447698	0.565624
H339	H	-0.815430	-0.911790	0.111180
H340	H	-0.315430	-0.411790	0.611180
H341	H	-0.839760	-1.003999	0.087535
H342	H	-0.339760	-0.503999	0.587535
H343	H	-0.870604	-0.930025	0.050878
H344	H	-0.370604	-0.430025	0.550878
O345	O	-0.781133	-0.693252	0.000254
O346	O	-0.281133	-0.193252	0.500254
C347	C	-0.742869	-0.637548	0.000222
C348	C	-0.242869	-0.137548	0.500222
H349	H	-0.708656	-0.656751	0.024059
H350	H	-0.208656	-0.156751	0.524059
H351	H	-0.753308	-0.592807	0.036764
H352	H	-0.253308	-0.092807	0.536764
H353	H	-0.735701	-0.618044	-0.060181
H354	H	-0.235701	-0.118044	0.439819
H355	H	-0.017109	-0.184097	0.000246
H356	H	0.482891	0.315903	0.500246
H357	H	0.145923	-0.464051	0.000216
H358	H	0.645923	0.035949	0.500216
H359	H	-0.163101	-0.712400	0.000170
H360	H	0.336899	-0.212400	0.500170
O361	O	-0.066725	-0.703819	0.000313
O362	O	0.433275	-0.203819	0.500313
C363	C	-0.037195	-0.700466	0.065505
C364	C	0.462805	-0.200466	0.565505
H365	H	-0.055731	-0.736378	0.111083
H366	H	0.444269	-0.236378	0.611083
H367	H	-0.031404	-0.644167	0.087386
H368	H	0.468596	-0.144167	0.587386
H369	H	-0.000572	-0.718139	0.050765
H370	H	0.499428	-0.218139	0.550765
O371	O	-0.479101	-1.012949	0.000329
O372	O	0.020899	-0.512949	0.500329
C373	C	-0.517367	-1.068650	0.000326
C374	C	-0.017367	-0.568650	0.500326
H375	H	-0.551574	-1.049449	0.024157
H376	H	-0.051574	-0.549449	0.524157
H377	H	-0.506922	-1.113400	0.036889
H378	H	-0.006922	-0.613400	0.536889
H379	H	-0.524550	-1.088142	-0.060068
H380	H	-0.024550	-0.588142	0.439932
O381	O	-0.444069	-0.634470	0.000302
O382	O	0.055931	-0.134470	0.500302
C383	C	-0.452790	-0.595568	0.065504
C384	C	0.047210	-0.095568	0.565504
H385	H	-0.491066	-0.613144	0.087255
H386	H	0.008934	-0.113144	0.587255
H387	H	-0.449137	-0.537297	0.050820
H388	H	0.050863	-0.037297	0.550820
H389	H	-0.425221	-0.604803	0.111159
H390	H	0.074779	-0.104803	0.611159
H391	H	-0.708089	-0.935754	0.000273
H392	H	-0.208089	-0.435754	0.500273
