data_functionalizedCrystal
_audit_creation_method	'MofGen! by Chris Wilmer'
_symmetry_space_group_name_H-M	'P1'
_symmetry_Int_Tables_number	1
_symmetry_cell_setting	triclinic
loop_
_symmetry_equiv_pos_as_xyz
  x,y,z
_cell_length_a	15.944551
_cell_length_b	15.944551
_cell_length_c	14.421503
_cell_angle_alpha	90.003340
_cell_angle_beta	89.996859
_cell_angle_gamma	83.498738
loop_
_atom_site_label
_atom_site_type_symbol
_atom_site_fract_x
_atom_site_fract_y
_atom_site_fract_z
O1	O	1.114529	0.108320	-0.077017
O2	O	0.869980	0.121677	-0.077040
O3	O	0.998933	-0.007276	-0.077020
O4	O	0.985576	0.237273	-0.077038
O5	O	0.998911	-0.007257	0.077204
O6	O	0.869958	0.121696	0.077183
O7	O	1.114508	0.108340	0.077206
Cu8	Cu	0.992231	0.115020	0.091277
Cu9	Cu	0.992256	0.114997	-0.091110
O10	O	0.985555	0.237293	0.077186
C11	C	0.998367	-0.038561	0.000092
C12	C	0.996705	-0.131807	0.000093
C13	C	0.838675	0.121132	0.000069
C14	C	0.745429	0.119470	0.000060
C15	C	0.912801	-0.346663	0.000072
C16	C	0.951753	-0.407671	0.076117
C17	C	0.993698	-0.302533	0.000085
C18	C	0.951793	-0.407674	-0.075935
C19	C	0.990787	-0.467445	0.000074
C20	C	1.032672	-0.362312	0.076193
C21	C	1.032701	-0.362308	-0.075927
C22	C	1.071711	-0.423298	0.000136
C23	C	0.995372	-0.207530	0.000092
C24	C	0.989119	-0.562446	0.000073
C25	C	0.530572	0.035565	0.000084
C26	C	0.469563	0.074518	-0.075959
C27	C	0.574703	0.116462	0.000071
C28	C	0.469564	0.074556	0.076093
C29	C	0.409790	0.113551	0.000086
C30	C	0.514922	0.155437	-0.076035
C31	C	0.514929	0.155464	0.076086
C32	C	0.453937	0.194476	0.000024
C33	C	0.669705	0.118137	0.000062
C34	C	0.314789	0.111883	0.000089
C35	C	1.145813	0.108885	0.000096
C36	C	1.239059	0.110547	0.000098
C37	C	0.986120	0.268577	0.000072
C38	C	0.987782	0.361823	0.000066
N39	N	0.992219	0.115035	0.219558
N40	N	0.992275	0.114975	-0.219392
C41	C	0.932581	0.174636	0.469202
C42	C	1.008481	0.190943	0.531011
C43	C	0.992240	0.115015	0.408719
C44	C	0.916359	0.098727	0.531005
C45	C	0.992253	0.114997	0.591441
C46	C	1.068178	0.131360	0.469167
C47	C	0.976007	0.039111	0.469156
C48	C	1.051961	0.055386	0.530936
C49	C	0.992231	0.115027	0.303458
C50	C	0.992270	0.114985	0.696700
H51	H	0.845652	-0.313356	0.000141
O52	O	0.538859	0.196293	-0.152723
C53	C	0.578893	0.266830	-0.125596
H54	H	0.604642	0.256735	-0.052213
H55	H	0.531355	0.325866	-0.127429
C56	C	0.620429	0.290167	-0.282747
C57	C	0.652062	0.277765	-0.192619
H58	H	0.665561	0.296916	-0.324092
H59	H	0.593455	0.242648	-0.301024
H60	H	0.580815	0.339363	-0.284262
H61	H	0.691667	0.228565	-0.191104
H62	H	0.679044	0.325277	-0.174343
H63	H	0.420779	0.261683	-0.000023
H64	H	0.917575	-0.427758	-0.140230
H65	H	1.138919	-0.456457	0.000186
O66	O	1.024758	0.267509	0.563544
C67	C	0.956597	0.302548	0.618681
H68	H	0.920412	0.249914	0.645781
H69	H	0.912644	0.348239	0.575193
C70	C	1.034836	0.414847	0.667765
C71	C	0.990398	0.350200	0.701056
H72	H	1.055685	0.444244	0.718576
H73	H	1.080757	0.391242	0.630615
H74	H	0.998202	0.452914	0.631525
H75	H	1.027034	0.312129	0.737285
H76	H	0.944483	0.373799	0.738214
O77	O	0.911008	-0.431570	0.152902
C78	C	0.952963	-0.407350	0.232953
H79	H	0.990834	-0.352994	0.215237
H80	H	0.997420	-0.463217	0.259509
C81	C	0.841066	-0.445615	0.330215
C82	C	0.887575	-0.378848	0.308457
H83	H	0.800733	-0.428037	0.376791
H84	H	0.812801	-0.461935	0.276284
H85	H	0.878122	-0.492165	0.352340
H86	H	0.850520	-0.332304	0.286322
H87	H	0.915832	-0.362520	0.362386
H88	H	1.066897	-0.342186	-0.140214
O89	O	0.538923	0.196136	0.152871
C90	C	0.516060	0.153286	0.232893
H91	H	0.509296	0.084803	0.214680
H92	H	0.453418	0.185060	0.260637
C93	C	0.593152	0.240178	0.329801
C94	C	0.584851	0.156064	0.307433
H95	H	0.635583	0.241894	0.375783
H96	H	0.608553	0.269049	0.275890
H97	H	0.540946	0.266647	0.352916
H98	H	0.637053	0.129600	0.284308
H99	H	0.569461	0.127189	0.361342
O100	O	0.839763	0.082245	0.563251
C101	C	0.785789	0.071506	0.487783
H102	H	0.825190	0.052578	0.423597
H103	H	0.744355	0.133276	0.473823
C104	C	0.681184	0.025151	0.589741
C105	C	0.729577	0.001896	0.510909
H106	H	0.646507	-0.017784	0.604007
H107	H	0.717545	0.032389	0.640587
H108	H	0.646663	0.076627	0.578098
H109	H	0.764104	-0.049573	0.522557
H110	H	0.693220	-0.005352	0.460066
O111	O	0.445702	0.033620	0.152761
C112	C	0.485095	-0.050134	0.152461
H113	H	0.544501	-0.054165	0.107948
H114	H	0.439847	-0.093699	0.122780
C115	C	0.436036	-0.072375	0.307027
C116	C	0.509003	-0.077325	0.252362
H117	H	0.450781	-0.089151	0.368651
H118	H	0.409493	-0.015950	0.307229
H119	H	0.398336	-0.108680	0.282283
H120	H	0.546697	-0.041014	0.277100
H121	H	0.535553	-0.133745	0.252167
H122	H	0.882181	0.225096	0.442096
H123	H	1.132368	0.145205	0.442119
H124	H	1.102474	0.004956	0.557872
O125	O	0.959438	-0.037399	0.436752
C126	C	0.879339	-0.054325	0.468223
H127	H	0.839473	0.007599	0.485603
H128	H	0.887016	-0.095620	0.532876
C129	C	0.884287	-0.176737	0.370440
C130	C	0.835321	-0.100680	0.391779
H131	H	0.857135	-0.205335	0.323289
H132	H	0.938253	-0.165337	0.349240
H133	H	0.890681	-0.211139	0.424324
H134	H	0.828936	-0.066275	0.337899
H135	H	0.781353	-0.112076	0.412969
O136	O	0.570282	-0.044551	-0.000164
C137	C	0.547296	-0.086907	-0.080477
H138	H	0.525303	-0.038694	-0.136235
H139	H	0.493911	-0.126168	-0.063124
C140	C	0.651020	-0.204481	-0.047845
C141	C	0.624016	-0.145266	-0.116330
H142	H	0.698343	-0.240483	-0.069960
H143	H	0.666505	-0.175948	0.006266
H144	H	0.606526	-0.237190	-0.033390
H145	H	0.668506	-0.112551	-0.130775
H146	H	0.608540	-0.173795	-0.170444
H147	H	1.066850	-0.342314	0.140554
H148	H	0.449461	0.040294	-0.140243
