data_functionalizedCrystal
_audit_creation_method	'MofGen! by Chris Wilmer'
_symmetry_space_group_name_H-M	'P1'
_symmetry_Int_Tables_number	1
_symmetry_cell_setting	triclinic
loop_
_symmetry_equiv_pos_as_xyz
  x,y,z
_cell_length_a	12.970454
_cell_length_b	15.698487
_cell_length_c	12.970454
_cell_angle_alpha	89.999559
_cell_angle_beta	60.000396
_cell_angle_gamma	60.000719
loop_
_atom_site_label
_atom_site_type_symbol
_atom_site_fract_x
_atom_site_fract_y
_atom_site_fract_z
Zr1	Zr	1.128534	0.820614	-0.135305
O2	O	1.343619	0.684601	-0.299924
O3	O	0.913447	0.862309	-0.084842
O4	O	1.128535	0.862311	-0.299929
O5	O	1.128532	0.684599	0.084830
O6	O	1.128539	1.002492	-0.299932
O7	O	1.128531	0.684599	-0.084836
O8	O	0.743786	1.002489	0.084821
O9	O	1.513285	0.684602	-0.299923
O10	O	1.001920	0.984708	-0.063320
O11	O	1.001917	0.880092	0.063302
O12	O	1.255156	0.880094	-0.189936
O13	O	1.255153	0.775477	-0.063314
Zr14	Zr	1.128542	1.044186	0.135289
Zr15	Zr	1.128541	1.044187	-0.135309
Zr16	Zr	1.128536	0.820613	0.135294
Zr17	Zr	1.399132	0.820615	-0.135303
Zr18	Zr	0.857945	1.044185	0.135287
O19	O	1.343630	1.002491	0.084826
O20	O	1.343628	1.002493	-0.299930
O21	O	1.343621	0.684599	0.084832
O22	O	0.913458	1.180199	0.299909
O23	O	0.913456	1.180201	-0.084847
O24	O	0.913449	0.862307	0.299915
O25	O	1.128545	1.180202	-0.084846
O26	O	1.128542	1.002489	0.299914
O27	O	1.128538	0.862308	0.299917
O28	O	1.128546	1.180201	0.084821
O29	O	1.513290	0.862312	-0.299926
O30	O	0.743787	1.002488	0.299911
O31	O	0.743792	1.180198	0.299907
O32	O	0.743791	1.180199	0.084818
O33	O	1.513286	0.684601	-0.084833
O34	O	1.513291	0.862311	-0.084836
O35	O	1.001921	0.984706	0.189921
O36	O	1.001924	1.089323	0.063298
O37	O	1.255159	0.984709	-0.063318
O38	O	1.255157	0.880092	0.063304
C39	C	0.790062	0.932399	-0.000011
C40	C	0.675186	0.932399	-0.000012
C41	C	1.128530	0.652745	-0.000003
C42	C	1.128528	0.557832	-0.000001
C43	C	1.128553	0.384047	-0.000013
C44	C	1.128545	0.480751	-0.000009
C45	C	1.467015	0.932401	-0.000005
C46	C	1.581891	0.932401	-0.000004
C47	C	1.128537	0.932402	-0.338485
C48	C	1.128536	0.932403	-0.453361
C49	C	1.128547	1.212055	-0.000013
C50	C	1.128549	1.306968	-0.000015
C51	C	1.128540	0.932398	0.338470
C52	C	1.128541	0.932397	0.453346
C53	C	0.790070	1.212054	-0.000016
C54	C	0.675197	1.306967	-0.000019
C55	C	0.790064	0.932397	0.338467
C56	C	0.675189	0.932396	0.453342
C57	C	0.790072	1.212052	0.338462
C58	C	0.675200	1.306964	0.453335
C59	C	1.467005	0.652748	-0.338477
C60	C	1.581877	0.557836	-0.453351
C61	C	1.467007	0.652746	0.000000
C62	C	1.581880	0.557834	0.000003
C63	C	1.467013	0.932403	-0.338482
C64	C	1.581888	0.932404	-0.453358
C65	C	0.621250	1.296930	-0.066125
C66	C	0.513329	1.386102	-0.066153
C67	C	0.459351	1.485308	-0.000066
C68	C	0.513309	1.495343	0.066042
C69	C	0.621235	1.406172	0.066062
C70	C	0.621256	1.406153	0.441185
C71	C	0.513336	1.495341	0.549111
C72	C	0.459355	1.485338	0.669185
C73	C	0.513309	1.386138	0.681332
C74	C	0.621235	1.296952	0.573408
C75	C	1.635834	0.458647	-0.441201
C76	C	1.743788	0.369459	-0.549126
C77	C	1.797775	0.379463	-0.669200
C78	C	1.743813	0.478662	-0.681347
C79	C	1.635869	0.567848	-0.573423
C80	C	1.635839	0.567870	0.066098
C81	C	1.743789	0.478698	0.066096
C82	C	1.797771	0.379492	0.000006
C83	C	1.743808	0.369457	-0.066097
C84	C	1.635867	0.458628	-0.066102
H85	H	0.665198	1.216159	-0.119956
O86	O	0.460846	1.376292	0.797906
C87	C	0.398357	1.321313	0.811772
H88	H	0.447117	1.272078	0.714618
H89	H	0.275427	1.379083	0.863344
C90	C	0.370402	1.310197	1.007820
C91	C	0.430299	1.249719	0.888493
H92	H	0.390099	1.266038	1.055150
H93	H	0.412497	1.347240	0.998481
H94	H	0.267965	1.358336	1.050780
H95	H	0.532737	1.201591	0.845529
H96	H	0.388223	1.212666	0.897827
O97	O	0.460625	1.591739	0.130407
C98	C	0.309375	1.646577	0.223123
H99	H	0.279860	1.588695	0.247679
H100	H	0.247663	1.699470	0.185264
C101	C	0.303640	1.784311	0.312212
C102	C	0.267392	1.713219	0.342380
H103	H	0.277740	1.825423	0.385773
H104	H	0.405539	1.747368	0.249744
H105	H	0.252210	1.828377	0.280660
H106	H	0.318835	1.669146	0.373915
H107	H	0.165500	1.750156	0.404855
O108	O	0.673846	1.200579	0.585156
C109	C	0.825095	1.145693	0.526661
H110	H	0.854676	1.203539	0.521654
H111	H	0.886814	1.092761	0.427113
C112	C	0.830649	1.008051	0.610153
C113	C	0.866979	1.079099	0.604013
H114	H	0.856488	0.966969	0.657862
H115	H	0.728751	1.045026	0.649558
H116	H	0.882085	0.963951	0.527191
H117	H	0.815530	1.123205	0.686972
H118	H	0.968870	1.042130	0.564623
H119	H	0.469410	1.377912	-0.119985
O120	O	1.795989	0.488557	-0.797896
C121	C	1.725116	0.595228	-0.785497
H122	H	1.680814	0.642818	-0.689275
H123	H	1.631240	0.621472	-0.794137
C124	C	1.888766	0.553559	-1.008446
C125	C	1.834365	0.612010	-0.890267
H126	H	1.956152	0.563912	-1.073076
H127	H	1.936512	0.481693	-1.016801
H128	H	1.810524	0.575436	-1.015628
H129	H	1.912604	0.590124	-0.883081
H130	H	1.786634	0.683873	-0.881914
H131	H	1.591936	0.450442	-0.119921
O132	O	1.583614	0.664217	-0.585184
C133	C	1.609956	0.719089	-0.526690
H134	H	1.704523	0.661232	-0.521666
H135	H	1.508061	0.772035	-0.427149
C136	C	1.532484	0.856719	-0.610218
C137	C	1.648641	0.785659	-0.604056
H138	H	1.556340	0.897787	-0.657936
H139	H	1.514731	0.819754	-0.649622
H140	H	1.447582	0.900831	-0.527261
H141	H	1.733535	0.741540	-0.687010
H142	H	1.666410	0.822619	-0.564667
H143	H	1.787707	0.486889	0.119930
O144	O	1.583444	0.664286	0.130116
C145	C	1.609846	0.719131	0.045256
H146	H	1.623263	0.685083	-0.041730
H147	H	1.713639	0.711704	0.015673
C148	C	1.463872	0.876883	0.216866
C149	C	1.480340	0.835071	0.110032
H150	H	1.383991	0.948401	0.256822
H151	H	1.446088	0.839933	0.274038
H152	H	1.550375	0.870684	0.192197
H153	H	1.393845	0.841258	0.134703
H154	H	1.498106	0.872025	0.052865
H155	H	0.371469	1.557908	-0.000091
H156	H	0.665145	1.414358	0.119900
H157	H	0.665191	1.414318	0.343425
H158	H	0.469417	1.576106	0.539198
H159	H	0.371475	1.557967	0.757053
H160	H	1.885669	0.306833	-0.757069
H161	H	1.591884	0.450481	-0.343440
H162	H	1.787705	0.288695	-0.539211
H163	H	1.885663	0.306892	0.000020
H164	H	1.787776	0.288672	-0.119906
