data_functionalizedCrystal
_audit_creation_method	'MofGen! by Chris Wilmer'
_symmetry_space_group_name_H-M	'P1'
_symmetry_Int_Tables_number	1
_symmetry_cell_setting	triclinic
loop_
_symmetry_equiv_pos_as_xyz
  x,y,z
_cell_length_a	14.519709
_cell_length_b	18.266242
_cell_length_c	14.519709
_cell_angle_alpha	90.007285
_cell_angle_beta	83.680145
_cell_angle_gamma	90.003418
loop_
_atom_site_label
_atom_site_type_symbol
_atom_site_fract_x
_atom_site_fract_y
_atom_site_fract_z
O1	O	1.223873	0.060787	0.120893
O2	O	1.557207	0.394121	0.454226
O3	O	1.890540	0.727454	0.787559
O4	O	0.955396	0.060810	0.135129
O5	O	1.288730	0.394143	0.468463
O6	O	1.622063	0.727476	0.801796
O7	O	1.096753	0.060791	-0.006228
O8	O	1.430087	0.394125	0.327106
O9	O	1.763420	0.727458	0.660439
O10	O	1.082517	0.060806	0.262249
O11	O	1.415850	0.394139	0.595583
O12	O	1.749183	0.727472	0.928916
O13	O	1.096729	-0.060971	-0.006235
O14	O	1.430063	0.272363	0.327098
O15	O	1.763396	0.605696	0.660432
O16	O	0.955372	-0.060952	0.135122
O17	O	1.288706	0.272381	0.468455
O18	O	1.622039	0.605714	0.801789
O19	O	1.223849	-0.060975	0.120885
O20	O	1.557183	0.272359	0.454219
O21	O	1.890516	0.605692	0.787552
Zn22	Zn	1.089607	-0.080296	0.128002
Zn23	Zn	1.422940	0.253038	0.461336
Zn24	Zn	1.756274	0.586371	0.794669
Zn25	Zn	1.089639	0.080131	0.128012
Zn26	Zn	1.422972	0.413464	0.461345
Zn27	Zn	1.756305	0.746798	0.794679
O28	O	1.082493	-0.060956	0.262242
O29	O	1.415826	0.272377	0.595575
O30	O	1.749159	0.605710	0.928909
C31	C	0.921025	-0.000068	0.134462
C32	C	1.254358	0.333265	0.467795
C33	C	1.587691	0.666598	0.801129
C34	C	0.818643	-0.000060	0.132474
C35	C	1.151977	0.333273	0.465807
C36	C	1.485310	0.666607	0.799141
N37	N	1.089592	-0.189783	0.127995
N38	N	1.422926	0.143551	0.461329
N39	N	1.756259	0.476884	0.794662
C40	C	0.443748	-0.000094	0.125154
C41	C	0.777081	0.333240	0.458488
C42	C	1.110414	0.666573	0.791821
C43	C	0.548056	-0.000084	0.127187
C44	C	0.881389	0.333249	0.460520
C45	C	1.214722	0.666583	0.793854
C46	C	0.631192	-0.000076	0.128814
C47	C	0.964526	0.333257	0.462147
C48	C	1.297859	0.666591	0.795481
C49	C	0.735507	-0.000068	0.130847
C50	C	1.068840	0.333265	0.464180
C51	C	1.402173	0.666599	0.797514
C52	C	1.152206	-0.228100	0.065433
C53	C	1.485539	0.105234	0.398767
C54	C	1.818872	0.438567	0.732100
C55	C	1.152211	-0.304745	0.065429
C56	C	1.485545	0.028589	0.398762
C57	C	1.818878	0.361922	0.732096
C58	C	1.089613	-0.343070	0.128003
C59	C	1.422946	-0.009736	0.461336
C60	C	1.756279	0.323597	0.794669
C61	C	1.026988	-0.304743	0.190569
C62	C	1.360321	0.028590	0.523903
C63	C	1.693654	0.361923	0.857236
C64	C	1.026977	-0.228100	0.190566
C65	C	1.360311	0.105233	0.523899
C66	C	1.693644	0.438567	0.857232
N67	N	1.078009	-0.463397	0.209587
N68	N	1.411342	-0.130064	0.542920
N69	N	1.744676	0.203270	0.876253
N70	N	1.078024	-0.536205	0.209587
N71	N	1.411358	-0.202872	0.542920
N72	N	1.744691	0.130462	0.876254
C73	C	1.089639	-0.573992	0.128016
C74	C	1.422972	-0.240659	0.461349
C75	C	1.756305	0.092675	0.794683
N76	N	1.101255	-0.536220	0.046442
N77	N	1.434589	-0.202887	0.379775
N78	N	1.767922	0.130446	0.713108
N79	N	1.101245	-0.463406	0.046442
N80	N	1.434578	-0.130072	0.379775
N81	N	1.767911	0.203261	0.713109
C82	C	1.089617	-0.426177	0.128013
C83	C	1.422950	-0.092843	0.461347
C84	C	1.756283	0.240490	0.794680
C85	C	1.152262	-0.695416	0.065444
C86	C	1.485595	-0.362083	0.398778
C87	C	1.818929	-0.028750	0.732111
C88	C	1.152261	-0.772063	0.065439
C89	C	1.485595	-0.438729	0.398772
C90	C	1.818928	-0.105396	0.732105
C91	C	1.027042	-0.772060	0.190587
C92	C	1.360375	-0.438726	0.523920
C93	C	1.693708	-0.105393	0.857254
C94	C	1.027038	-0.695415	0.190585
C95	C	1.360371	-0.362082	0.523918
C96	C	1.693705	-0.028748	0.857251
C97	C	1.089653	-0.657098	0.128014
C98	C	1.422986	-0.323764	0.461348
C99	C	1.756320	0.009569	0.794681
C100	C	1.258221	-0.000095	0.121553
C101	C	1.591554	0.333238	0.454886
C102	C	1.924888	0.666572	0.788219
C103	C	1.360602	-0.000099	0.123541
C104	C	1.693936	0.333235	0.456874
C105	C	2.027269	0.666568	0.790207
C106	C	1.096078	-0.000090	-0.040591
C107	C	1.429411	0.333244	0.292742
C108	C	1.762744	0.666577	0.626076
C109	C	1.094090	-0.000090	-0.142972
C110	C	1.427423	0.333243	0.190361
C111	C	1.760756	0.666577	0.523694
N112	N	1.089661	0.189618	0.128012
N113	N	1.422994	0.522951	0.461345
N114	N	1.756328	0.856284	0.794679
C115	C	1.086770	-0.000070	-0.517868
C116	C	1.420103	0.333263	-0.184535
C117	C	1.753437	0.666596	0.148799
C118	C	1.088803	-0.000076	-0.413560
C119	C	1.422136	0.333257	-0.080227
C120	C	1.755469	0.666591	0.253107
C121	C	1.090430	-0.000081	-0.330423
C122	C	1.423763	0.333252	0.002910
C123	C	1.757096	0.666586	0.336243
C124	C	1.092463	-0.000085	-0.226109
C125	C	1.425796	0.333248	0.107224
C126	C	1.759129	0.666581	0.440558
C127	C	1.083168	-0.000074	0.296605
C128	C	1.416501	0.333260	0.629939
C129	C	1.749835	0.666593	0.963272
C130	C	1.085156	-0.000069	0.398987
C131	C	1.418490	0.333265	0.732320
C132	C	1.751823	0.666598	1.065653
H133	H	1.203200	-0.335948	0.014482
H134	H	1.536534	-0.002615	0.347815
H135	H	1.869867	0.330718	0.681148
N136	N	0.959503	-0.654089	0.258069
N137	N	1.292836	-0.320755	0.591402
N138	N	1.626169	0.012578	0.924735
H139	H	0.970228	-0.667416	0.323548
H140	H	1.303561	-0.334083	0.656882
H141	H	1.636894	-0.000750	0.990215
H142	H	0.969023	-0.599733	0.248494
H143	H	1.302356	-0.266400	0.581827
H144	H	1.635689	0.066934	0.915161
N145	N	0.959464	-0.346074	0.258056
N146	N	1.292798	-0.012741	0.591389
N147	N	1.626131	0.320593	0.924722
H148	H	0.968973	-0.400442	0.248567
H149	H	1.302306	-0.067109	0.581900
H150	H	1.635639	0.266224	0.915233
H151	H	0.970216	-0.332666	0.323504
H152	H	1.303549	0.000668	0.656838
H153	H	1.636882	0.334001	0.990171
N154	N	1.219732	-0.186771	-0.002055
N155	N	1.553065	0.146562	0.331279
N156	N	1.886398	0.479895	0.664612
H157	H	1.285199	-0.200101	0.008717
H158	H	1.618532	0.133232	0.342050
H159	H	1.951866	0.466566	0.675383
H160	H	1.208930	-0.200139	-0.067503
H161	H	1.542263	0.133195	0.265831
H162	H	1.875596	0.466528	0.599164
N163	N	0.959439	-0.186767	0.258042
N164	N	1.292772	0.146567	0.591376
N165	N	1.626105	0.479900	0.924709
H166	H	0.919778	-0.222672	0.297681
H167	H	1.253112	0.110661	0.631014
H168	H	1.586445	0.443994	0.964348
H169	H	0.994802	-0.154957	0.298894
H170	H	1.328135	0.178376	0.632227
H171	H	1.661469	0.511710	0.965561
N172	N	1.219773	-0.654069	-0.002042
N173	N	1.553107	-0.320735	0.331292
N174	N	1.886440	0.012598	0.664625
H175	H	1.285247	-0.667392	0.008715
H176	H	1.618580	-0.334059	0.342049
H177	H	1.951914	-0.000725	0.675382
H178	H	1.208965	-0.667426	-0.067491
H179	H	1.542298	-0.334093	0.265842
H180	H	1.875631	-0.000760	0.599175
N181	N	1.219813	-0.813394	-0.002027
N182	N	1.553146	-0.480061	0.331307
N183	N	1.886480	-0.146728	0.664640
H184	H	1.259482	-0.777488	-0.041654
H185	H	1.592816	-0.444154	0.291679
H186	H	1.926149	-0.110821	0.625013
H187	H	1.260627	-0.845177	0.033399
H188	H	1.593960	-0.511844	0.366732
H189	H	1.927293	-0.178510	0.700066
N190	N	0.959516	-0.813384	0.258072
N191	N	1.292849	-0.480051	0.591406
N192	N	1.626182	-0.146718	0.924739
H193	H	0.969020	-0.867753	0.248581
H194	H	1.302353	-0.534420	0.581914
H195	H	1.635687	-0.201086	0.915247
H196	H	0.970269	-0.799979	0.323521
H197	H	1.303602	-0.466646	0.656855
H198	H	1.636935	-0.133312	0.990188
