data_functionalizedCrystal
_audit_creation_method	'MofGen! by Chris Wilmer'
_symmetry_space_group_name_H-M	'P1'
_symmetry_Int_Tables_number	1
_symmetry_cell_setting	triclinic
loop_
_symmetry_equiv_pos_as_xyz
  x,y,z
_cell_length_a	16.959455
_cell_length_b	16.959453
_cell_length_c	12.759393
_cell_angle_alpha	90.033968
_cell_angle_beta	90.024019
_cell_angle_gamma	90.018936
loop_
_atom_site_label
_atom_site_type_symbol
_atom_site_fract_x
_atom_site_fract_y
_atom_site_fract_z
Zn1	Zn	1.208441	-0.314665	0.594081
Zn2	Zn	1.208347	-0.446865	0.418391
Zn3	Zn	1.076253	-0.314702	0.418407
Zn4	Zn	1.076235	-0.446803	0.594018
O5	O	1.142319	-0.380759	0.506224
O6	O	1.319040	-0.332212	0.570795
O7	O	1.190793	-0.429374	0.271372
O8	O	1.093835	-0.204086	0.441743
O9	O	1.318970	-0.429339	0.441716
O10	O	1.190953	-0.204059	0.570811
O11	O	1.093744	-0.332274	0.271384
O12	O	0.965640	-0.332215	0.441683
O13	O	1.093804	-0.429234	0.741048
O14	O	0.965626	-0.429269	0.570704
O15	O	1.190935	-0.332153	0.741094
O16	O	1.190775	-0.557467	0.441655
O17	O	1.093712	-0.557422	0.570688
C18	C	0.936953	-0.380740	0.506189
C19	C	0.849096	-0.380751	0.506198
C20	C	0.807806	-0.330147	0.439131
C21	C	0.807833	-0.431361	0.573282
C22	C	0.725287	-0.431370	0.573297
C23	C	0.683997	-0.380766	0.506229
C24	C	0.725252	-0.330153	0.439146
C25	C	0.684025	-0.481976	0.640386
C26	C	0.601474	-0.481987	0.640405
C27	C	0.560183	-0.431386	0.573332
C28	C	0.601443	-0.380772	0.506245
C29	C	0.560153	-0.330168	0.439177
C30	C	0.601412	-0.279556	0.372085
C31	C	0.683960	-0.279552	0.372073
C32	C	0.477634	-0.431391	0.573344
C33	C	0.477599	-0.330173	0.439193
C34	C	1.142253	-0.586125	0.506186
C35	C	1.142297	-0.673982	0.506204
C36	C	1.192953	-1.045385	0.573556
C37	C	1.091905	-1.045529	0.439048
C38	C	1.091876	-0.962984	0.439024
C39	C	1.142385	-0.921635	0.506268
C40	C	1.192924	-0.962831	0.573536
C41	C	1.041333	-0.921781	0.371764
C42	C	1.041301	-0.839230	0.371739
C43	C	1.091815	-0.797879	0.438978
C44	C	1.142356	-0.839081	0.506248
C45	C	1.192865	-0.797732	0.573493
C46	C	1.243411	-0.838932	0.640758
C47	C	1.243437	-0.921481	0.640776
C48	C	1.091788	-0.715331	0.438960
C49	C	1.192836	-0.715178	0.573473
C50	C	1.348487	-0.380778	0.506260
C51	C	1.436344	-0.380787	0.506276
C52	C	1.142378	-0.380683	0.780258
C53	C	1.142403	-0.380651	0.897034
C54	C	1.142407	-0.174591	0.506286
C55	C	1.142444	-0.086734	0.506312
C56	C	1.142305	-0.380777	0.233257
C57	C	1.142433	-0.380587	0.116481
C58	C	1.192983	-0.330092	0.951922
C59	C	1.192997	-0.330058	1.061646
C60	C	1.091848	-0.431147	1.061585
C61	C	1.091831	-0.431177	0.951863
C62	C	1.221303	-0.236801	1.211634
C63	C	1.271895	-0.186250	1.266525
C64	C	1.349022	-0.174133	1.230940
C65	C	1.375571	-0.212578	1.140466
C66	C	1.324983	-0.263135	1.085580
C67	C	1.247846	-0.275238	1.121163
C68	C	1.063533	-0.524435	0.801874
C69	C	1.012948	-0.574997	0.746986
C70	C	0.935820	-0.587122	0.782569
C71	C	0.909274	-0.548691	0.873047
C72	C	0.959859	-0.498129	0.927934
C73	C	1.036986	-0.486002	0.892344
H74	H	0.717650	-0.523173	0.694992
C75	C	1.460419	-0.199249	1.101332
N76	N	1.524327	-0.189205	1.071852
H77	H	1.284532	-0.805256	0.695514
H78	H	1.284588	-0.955033	0.695541
H79	H	0.717561	-0.238347	0.317450
H80	H	0.841457	-0.472557	0.627890
H81	H	0.567888	-0.523199	0.695035
H82	H	0.841402	-0.288943	0.384503
C83	C	0.432253	-0.487058	0.647143
N84	N	0.398073	-0.528991	0.702730
H85	H	1.000145	-0.805689	0.316967
H86	H	0.567782	-0.238351	0.317483
C87	C	1.136456	-0.250117	1.250778
N88	N	1.072548	-0.260148	1.280267
C89	C	1.248404	-0.669701	0.647444
N90	N	1.290258	-0.635448	0.703160
H91	H	1.000209	-0.955453	0.317021
C92	C	0.432186	-0.274503	0.365413
N93	N	0.397982	-0.232570	0.309843
C94	C	1.248550	-1.090705	0.647545
N95	N	1.290426	-1.124842	0.703276
H96	H	1.050780	-1.079201	0.384305
C97	C	1.036193	-0.670014	0.364971
N98	N	0.994317	-0.635883	0.309235
H99	H	1.234161	-0.288948	0.907284
H100	H	1.346600	-0.294440	1.011921
H101	H	1.250272	-0.154947	1.340190
H102	H	1.034572	-0.606297	0.673321
H103	H	1.390214	-0.132972	1.275641
C104	C	1.036219	-0.486722	1.121907
N105	N	0.994319	-0.528582	1.167341
C106	C	0.930652	-0.455849	1.027460
N107	N	0.908654	-0.424003	1.102421
H108	H	0.846471	-0.558566	0.902022
C109	C	0.880179	-0.642747	0.722189
N110	N	0.838268	-0.684639	0.676712
C111	C	1.148380	-0.511101	0.762725
N112	N	1.212287	-0.501064	0.733240
