data_functionalizedCrystal
_audit_creation_method	'MofGen! by Chris Wilmer'
_symmetry_space_group_name_H-M	'P1'
_symmetry_Int_Tables_number	1
_symmetry_cell_setting	triclinic
loop_
_symmetry_equiv_pos_as_xyz
  x,y,z
_cell_length_a	14.044209
_cell_length_b	16.098538
_cell_length_c	17.038272
_cell_angle_alpha	87.079695
_cell_angle_beta	87.850245
_cell_angle_gamma	87.018092
loop_
_atom_site_label
_atom_site_type_symbol
_atom_site_fract_x
_atom_site_fract_y
_atom_site_fract_z
O1	O	-1.276973	0.069156	0.186341
O2	O	-1.000453	0.069180	0.179501
O3	O	-1.137069	0.069161	0.068991
O4	O	-1.140357	0.069174	0.296851
O5	O	-1.129086	-0.069350	0.075419
O6	O	-0.992470	-0.069332	0.185929
O7	O	-1.268990	-0.069356	0.192769
Zn8	Zn	-1.129463	-0.091336	0.190370
Zn9	Zn	-1.139980	0.091160	0.181901
O10	O	-1.132374	-0.069338	0.303279
C11	C	-0.960906	-0.000073	0.179721
C12	C	-0.854960	-0.000064	0.170790
N13	N	-1.122292	-0.215884	0.196149
C14	C	-0.660981	-0.000080	0.154464
C15	C	-0.608456	-0.000079	0.217809
C16	C	-0.500520	-0.000088	0.208725
C17	C	-0.768928	-0.000071	0.163547
C18	C	-1.180301	-0.259477	0.149264
C19	C	-1.175294	-0.346665	0.153315
C20	C	-1.112282	-0.390259	0.204257
C21	C	-1.054266	-0.346660	0.251144
C22	C	-1.059269	-0.259473	0.247088
C23	C	-1.094145	-0.653507	0.218946
C24	C	-1.089149	-0.740699	0.223000
C25	C	-1.210176	-0.740698	0.125171
C26	C	-1.215178	-0.653510	0.121123
C27	C	-1.157158	-0.609919	0.168007
C28	C	-1.107165	-0.479379	0.208401
C29	C	-1.162271	-0.520800	0.163858
C30	C	-0.308537	-0.000099	0.192550
C31	C	-0.414483	-0.000095	0.201486
C32	C	-1.130088	-0.000094	0.042868
C33	C	-1.121169	-0.000093	-0.044549
N34	N	-1.147158	0.215708	0.176115
C35	C	-1.203057	-0.000101	-0.088935
C36	C	-1.194671	-0.000092	-0.171072
C37	C	-1.104396	-0.000082	-0.208823
C38	C	-1.022503	-0.000072	-0.164431
C39	C	-1.030890	-0.000074	-0.082295
C40	C	-1.074767	-0.000068	-0.456654
C41	C	-1.066386	-0.000068	-0.538795
C42	C	-1.238556	-0.000087	-0.545431
C43	C	-1.246935	-0.000095	-0.463293
C44	C	-1.165041	-0.000080	-0.418909
C45	C	-1.095823	-0.000076	-0.292780
C46	C	-1.173616	-0.000080	-0.334953
C47	C	-1.139355	-0.000080	0.329402
C48	C	-1.148274	-0.000076	0.416819
H49	H	-0.624888	-0.000088	0.093414
N50	N	-1.248259	-0.212474	0.094306
H51	H	-1.211096	-0.176316	0.055253
H52	H	-1.294958	-0.176334	0.125678
H53	H	-0.644551	-0.000072	0.278863
N54	N	-0.986443	-0.000055	-0.408788
H55	H	-0.927984	-0.000053	-0.445168
H56	H	-0.983212	-0.051403	-0.372185
N57	N	-1.237896	-0.393684	0.102776
H58	H	-1.278589	-0.352838	0.069904
H59	H	-1.280372	-0.429832	0.137550
N60	N	-1.283142	-0.606492	0.066180
H61	H	-1.319131	-0.647339	0.037092
H62	H	-1.245923	-0.570328	0.027175
H63	H	-1.257412	-0.776198	0.086999
N64	N	-1.021192	-0.787722	0.277955
H65	H	-0.985197	-0.746878	0.307042
H66	H	-0.974554	-0.823914	0.246581
N67	N	-1.039220	-0.526402	0.263356
H68	H	-1.003231	-0.485560	0.292450
H69	H	-0.992575	-0.562589	0.231982
N70	N	-1.031565	-0.606496	0.269507
H71	H	-0.990891	-0.647345	0.302393
H72	H	-1.072925	-0.570306	0.305149
H73	H	-1.002955	-0.382159	0.292618
N74	N	-0.998457	-0.000078	-0.333499
H75	H	-0.947847	-0.000078	-0.292921
H76	H	-0.994188	0.051272	-0.369812
H77	H	-0.992869	-0.000073	-0.569528
N78	N	-0.996697	-0.212451	0.297652
H79	H	-0.956020	-0.253296	0.330539
H80	H	-1.038062	-0.176263	0.333292
H81	H	-1.213572	-0.485303	0.122378
H82	H	-1.276568	-0.000115	-0.058205
H83	H	-1.261353	-0.000101	-0.207208
N84	N	-1.344302	-0.000111	-0.422578
H85	H	-1.394907	-0.000115	-0.463161
H86	H	-1.354494	0.051234	-0.391021
N87	N	-1.270979	-0.000098	-0.294238
H88	H	-1.304187	-0.051451	-0.307603
H89	H	-1.310048	0.051275	-0.312375
N90	N	-0.925134	-0.000068	-0.205145
H91	H	-0.874531	-0.000063	-0.164561
H92	H	-0.920862	0.051279	-0.241461
H93	H	-1.305229	-0.000098	-0.581577
N94	N	-0.942569	-0.000061	-0.034418
H95	H	-0.884107	-0.000055	-0.070795
H96	H	-0.939336	-0.051408	0.002187
