data_functionalizedCrystal
_audit_creation_method	'MofGen! by Chris Wilmer'
_symmetry_space_group_name_H-M	'P1'
_symmetry_Int_Tables_number	1
_symmetry_cell_setting	triclinic
loop_
_symmetry_equiv_pos_as_xyz
  x,y,z
_cell_length_a	18.215407
_cell_length_b	18.215405
_cell_length_c	18.215399
_cell_angle_alpha	89.970050
_cell_angle_beta	89.985640
_cell_angle_gamma	90.020175
loop_
_atom_site_label
_atom_site_type_symbol
_atom_site_fract_x
_atom_site_fract_y
_atom_site_fract_z
Zn1	Zn	1.125061	-0.293025	-0.416070
Zn2	Zn	1.625061	0.206975	0.083930
Zn3	Zn	1.124981	-0.416101	-0.293004
Zn4	Zn	1.624981	0.083899	0.206996
Zn5	Zn	1.002000	-0.293047	-0.293022
Zn6	Zn	1.502000	0.206953	0.206978
Zn7	Zn	1.001964	-0.416048	-0.416034
Zn8	Zn	1.501964	0.083952	0.083966
O9	O	1.063501	-0.354555	-0.354533
O10	O	1.563501	0.145445	0.145467
O11	O	1.228035	-0.309363	-0.399752
O12	O	1.728035	0.190637	0.100248
O13	O	1.108648	-0.399809	-0.190022
O14	O	1.608648	0.100191	0.309978
O15	O	1.018373	-0.190060	-0.309367
O16	O	1.518373	0.309940	0.190633
O17	O	1.227976	-0.399787	-0.309336
O18	O	1.727976	0.100213	0.190664
O19	O	1.108786	-0.190043	-0.399769
O20	O	1.608786	0.309957	0.100231
O21	O	1.018295	-0.309402	-0.190035
O22	O	1.518295	0.190598	0.309965
O23	O	0.899011	-0.309351	-0.309333
O24	O	1.399011	0.190649	0.190667
O25	O	1.018312	-0.399697	-0.519023
O26	O	1.518312	0.100303	-0.019023
O27	O	0.898985	-0.399720	-0.399709
O28	O	1.398985	0.100280	0.100291
O29	O	1.108751	-0.309312	-0.519049
O30	O	1.608751	0.190688	-0.019049
O31	O	1.108613	-0.519078	-0.309302
O32	O	1.608613	-0.019078	0.190698
O33	O	1.018234	-0.519040	-0.399692
O34	O	1.518234	-0.019040	0.100308
C35	C	0.872295	-0.354533	-0.354520
C36	C	1.372295	0.145467	0.145480
C37	C	0.790496	-0.354541	-0.354532
C38	C	1.290496	0.145459	0.145468
C39	C	0.602332	-0.307554	-0.401685
C40	C	1.102332	0.192446	0.098315
C41	C	0.525473	-0.307560	-0.401688
C42	C	1.025473	0.192440	0.098312
C43	C	0.525423	-0.401577	-0.307393
C44	C	1.025423	0.098423	0.192607
C45	C	0.602280	-0.401567	-0.307387
C46	C	1.102280	0.098433	0.192613
C47	C	0.640733	-0.354556	-0.354538
C48	C	1.140733	0.145444	0.145462
C49	C	0.487017	-0.354573	-0.354546
C50	C	0.987017	0.145427	0.145454
C51	C	0.403683	-0.354580	-0.354548
C52	C	0.903683	0.145420	0.145452
C53	C	0.724072	-0.354548	-0.354534
C54	C	1.224072	0.145452	0.145466
C55	C	1.063431	-0.545762	-0.354507
C56	C	1.563431	-0.045762	0.145493
C57	C	1.063468	-0.627560	-0.354521
C58	C	1.563468	-0.127560	0.145479
C59	C	1.110568	-0.815685	-0.401657
C60	C	1.610568	-0.315685	0.098343
C61	C	1.110595	-0.892543	-0.401671
C62	C	1.610595	-0.392543	0.098329
C63	C	1.016526	-0.892674	-0.307454
C64	C	1.516526	-0.392674	0.192546
C65	C	1.016496	-0.815817	-0.307444
C66	C	1.516496	-0.315817	0.192556
C67	C	1.063521	-0.777324	-0.354545
C68	C	1.563521	-0.277324	0.145455
C69	C	1.063578	-0.931040	-0.354568
C70	C	1.563578	-0.431040	0.145432
C71	C	1.063606	-1.014374	-0.354583
C72	C	1.563606	-0.514374	0.145417
C73	C	1.063492	-0.693985	-0.354531
C74	C	1.563492	-0.193985	0.145469
C75	C	1.255454	-0.354579	-0.354546
C76	C	1.755454	0.145421	0.145454
C77	C	1.337253	-0.354588	-0.354552
C78	C	1.837253	0.145412	0.145448
C79	C	1.063536	-0.354497	-0.546486
C80	C	1.563536	0.145503	-0.046486
C81	C	1.063551	-0.354471	-0.628284
C82	C	1.563551	0.145529	-0.128284
C83	C	1.063592	-0.162602	-0.354574
C84	C	1.563592	0.337398	0.145426
C85	C	1.063631	-0.080803	-0.354592
C86	C	1.563631	0.419197	0.145408
C87	C	1.016544	-0.307365	-0.816486
C88	C	1.516544	0.192635	-0.316486
C89	C	1.016557	-0.307350	-0.893345
C90	C	1.516557	0.192650	-0.393345
C91	C	1.110646	-0.401490	-0.893321
C92	C	1.610646	0.098510	-0.393321
C93	C	1.110629	-0.401508	-0.816463
C94	C	1.610629	0.098492	-0.316463
C95	C	1.063579	-0.354441	-0.778048
C96	C	1.563579	0.145559	-0.278048
C97	C	1.063609	-0.354409	-0.931764
C98	C	1.563609	0.145591	-0.431764
C99	C	1.063623	-0.354393	-1.015098
C100	C	1.563623	0.145607	-0.515098
C101	C	1.063564	-0.354458	-0.694709
C102	C	1.563564	0.145542	-0.194709
C103	C	1.063509	-0.354561	-0.163326
C104	C	1.563509	0.145439	0.336674
C105	C	1.063637	-0.354379	-0.081528
C106	C	1.563637	0.145621	0.418472
H107	H	0.633547	-0.439842	-0.268990
H108	H	1.133547	0.060158	0.231010
H109	H	0.978255	-0.269016	-0.924638
H110	H	1.478255	0.230984	-0.424638
C111	C	0.483236	-0.255862	-0.453554
C112	C	0.983236	0.244138	0.046446
H113	H	0.517147	-0.227869	-0.481636
H114	H	1.017147	0.272131	0.018364
H115	H	0.453252	-0.223764	-0.425464
H116	H	0.953252	0.276236	0.074536
H117	H	0.453259	-0.284062	-0.485574
H118	H	0.953259	0.215938	0.014426
C119	C	0.964788	-0.255600	-0.774229
C120	C	1.464788	0.244400	-0.274229
H121	H	0.971517	-0.262347	-0.722949
H122	H	1.471517	0.237653	-0.222949
H123	H	0.915340	-0.266363	-0.786820
H124	H	1.415340	0.233637	-0.286820
H125	H	0.975587	-0.206149	-0.786840
H126	H	1.475587	0.293851	-0.286840
H127	H	1.148858	-0.784346	-0.440011
H128	H	1.648858	-0.284346	0.059989
C129	C	0.964743	-0.773617	-0.255616
C130	C	1.464743	-0.273617	0.244384
H131	H	0.936748	-0.807548	-0.227559
H132	H	1.436748	-0.307548	0.272441
H133	H	0.932649	-0.743640	-0.283735
H134	H	1.432649	-0.243640	0.216265
H135	H	0.992911	-0.743636	-0.223572
H136	H	1.492911	-0.243636	0.276428
H137	H	1.148933	-0.439847	-0.785166
H138	H	1.648933	0.060153	-0.285166
C139	C	1.162409	-0.453251	-0.935576
C140	C	1.662409	0.046749	-0.435576
H141	H	1.190416	-0.481294	-0.901674
H142	H	1.690416	0.018706	-0.401674
H143	H	1.194491	-0.425090	-0.965564
H144	H	1.694491	0.074910	-0.465564
H145	H	1.134250	-0.485311	-0.965550
H146	H	1.634250	0.014689	-0.465550
C147	C	0.644628	-0.255839	-0.453543
C148	C	1.144628	0.244161	0.046457
H149	H	0.610747	-0.227843	-0.481617
H150	H	1.110747	0.272157	0.018383
H151	H	0.674615	-0.284022	-0.485559
H152	H	1.174615	0.215978	0.014441
H153	H	0.674606	-0.223733	-0.425438
H154	H	1.174606	0.276267	0.074562
H155	H	0.494105	-0.439852	-0.269005
H156	H	0.994105	0.060148	0.230995
H157	H	1.148904	-0.923773	-0.440036
H158	H	1.648904	-0.423773	0.059964
H159	H	0.978241	-0.924024	-0.269105
H160	H	1.478241	-0.424024	0.230895
