data_functionalizedCrystal
_audit_creation_method	'MofGen! by Chris Wilmer'
_symmetry_space_group_name_H-M	'P1'
_symmetry_Int_Tables_number	1
_symmetry_cell_setting	triclinic
loop_
_symmetry_equiv_pos_as_xyz
  x,y,z
_cell_length_a	12.837943
_cell_length_b	14.519709
_cell_length_c	11.295483
_cell_angle_alpha	94.101713
_cell_angle_beta	85.461227
_cell_angle_gamma	89.254542
loop_
_atom_site_label
_atom_site_type_symbol
_atom_site_fract_x
_atom_site_fract_y
_atom_site_fract_z
O1	O	1.382869	0.234188	-0.099009
O2	O	1.081042	0.222343	-0.099016
O3	O	1.239958	0.094719	-0.099002
O4	O	1.223954	0.361812	-0.099023
O5	O	1.226000	0.105910	0.099048
O6	O	1.067084	0.233533	0.099034
O7	O	1.368911	0.245379	0.099040
Cu8	Cu	1.216723	0.240478	0.117121
Cu9	Cu	1.233230	0.227244	-0.117096
O10	O	1.209996	0.373002	0.099026
C11	C	1.035435	0.223937	0.000008
C12	C	0.920336	0.212002	0.000006
C13	C	0.679643	0.355473	0.000011
C14	C	0.571497	0.344264	0.000010
C15	C	0.595894	0.178377	0.000011
C16	C	0.704041	0.189586	0.000012
C17	C	0.745911	0.278137	0.000011
C18	C	0.854060	0.289344	0.000003
C19	C	0.878455	0.123458	0.000013
C20	C	0.770308	0.112249	0.000011
C21	C	1.232233	0.065890	0.000023
C22	C	1.229997	-0.036684	0.000024
C23	C	1.221771	-0.412293	-0.000007
C24	C	1.224055	-0.307787	0.000002
C25	C	1.225884	-0.224492	0.000010
C26	C	1.228169	-0.119979	0.000016
C27	C	1.414518	0.243785	0.000014
C28	C	1.529618	0.255719	0.000008
C29	C	1.217721	0.401831	-0.000001
C30	C	1.219957	0.504405	-0.000010
N31	N	1.205121	0.249786	0.281856
N32	N	1.244841	0.217929	-0.281831
C33	C	1.328362	0.150873	0.531156
C34	C	1.319601	0.157915	0.655819
C35	C	1.178834	0.270905	0.655847
C36	C	1.187595	0.263863	0.531184
C37	C	1.262362	0.203847	0.468843
C38	C	1.271127	0.196811	0.344178
C39	C	1.130356	0.309795	0.344208
C40	C	1.121596	0.316837	0.468871
H41	H	0.713735	0.427575	0.000008
H42	H	0.517545	0.407240	0.000014
H43	H	0.561777	0.106288	0.000111
O44	O	1.066091	0.361214	0.283803
C45	C	0.961289	0.338862	0.314257
H46	H	0.954981	0.308430	0.404771
H47	H	0.934077	0.286157	0.244100
C48	C	0.899841	0.464131	0.208854
C49	C	0.892091	0.426760	0.320030
H50	H	0.857154	0.518349	0.212410
H51	H	0.970447	0.479188	0.188332
H52	H	0.877165	0.420201	0.150402
H53	H	0.914779	0.470686	0.378477
H54	H	0.821487	0.411713	0.340562
H55	H	0.736201	0.040154	0.000026
H56	H	1.117954	0.319762	0.706621
H57	H	1.332009	0.147945	0.293421
H58	H	1.060719	0.365699	0.519643
O59	O	0.942973	0.048428	0.000061
C60	C	1.047409	0.077303	0.000022
H61	H	1.049058	0.152231	0.037524
H62	H	1.085364	0.071194	-0.094996
C63	C	1.105965	-0.076144	0.031618
C64	C	1.107991	0.015881	0.077687
H65	H	1.143337	-0.114034	0.079519
H66	H	1.035605	-0.095600	0.031639
H67	H	1.137592	-0.081223	-0.047563
H68	H	1.076352	0.020960	0.156860
H69	H	1.178347	0.035336	0.077680
H70	H	1.389247	0.102012	0.480398
O71	O	1.383825	0.106420	0.716167
C72	C	1.451670	0.051921	0.634405
H73	H	1.459160	0.084824	0.545540
H74	H	1.418806	-0.020320	0.621156
C75	C	1.550859	0.005118	0.792179
C76	C	1.560065	0.045534	0.683036
H77	H	1.617721	0.001174	0.822177
H78	H	1.505148	0.041832	0.847264
H79	H	1.523468	-0.055079	0.781123
H80	H	1.587443	0.105734	0.694095
H81	H	1.605783	0.008830	0.627953
H82	H	0.888149	0.361447	0.000004
