data_functionalizedCrystal
_audit_creation_method	'MofGen! by Chris Wilmer'
_symmetry_space_group_name_H-M	'P1'
_symmetry_Int_Tables_number	1
_symmetry_cell_setting	triclinic
loop_
_symmetry_equiv_pos_as_xyz
  x,y,z
_cell_length_a	14.044220
_cell_length_b	12.503552
_cell_length_c	14.519709
_cell_angle_alpha	86.474774
_cell_angle_beta	88.434511
_cell_angle_gamma	93.839891
loop_
_atom_site_label
_atom_site_type_symbol
_atom_site_fract_x
_atom_site_fract_y
_atom_site_fract_z
O1	O	1.263541	0.089211	0.217493
O2	O	1.763541	0.589211	0.717493
O3	O	0.987560	0.089238	0.209467
O4	O	1.487560	0.589238	0.709467
O5	O	1.132867	0.089214	0.079832
O6	O	1.632867	0.589214	0.579832
O7	O	1.118234	0.089235	0.347128
O8	O	1.618234	0.589235	0.847128
O9	O	1.121926	-0.089427	0.089590
O10	O	1.621926	0.410573	0.589590
O11	O	0.976619	-0.089403	0.219225
O12	O	1.476619	0.410597	0.719225
O13	O	1.252600	-0.089430	0.227250
O14	O	1.752600	0.410570	0.727250
Cu15	Cu	1.113611	-0.105728	0.224128
Cu16	Cu	1.613611	0.394272	0.724128
Cu17	Cu	1.126549	0.105535	0.212589
Cu18	Cu	1.626549	0.605535	0.712589
O19	O	1.107293	-0.089406	0.356885
O20	O	1.607293	0.410594	0.856885
C21	C	0.946769	-0.000079	0.210833
C22	C	1.446769	0.499921	0.710833
C23	C	0.841526	-0.000069	0.200356
C24	C	1.341526	0.499931	0.700356
N25	N	1.104517	-0.254319	0.232245
N26	N	1.604517	0.245681	0.732245
C27	C	0.648831	-0.000092	0.181202
C28	C	1.148831	0.499908	0.681202
C29	C	0.591324	-0.000091	0.255510
C30	C	1.091324	0.499909	0.755510
C31	C	0.484102	-0.000104	0.244853
C32	C	0.984102	0.499896	0.744853
C33	C	0.756063	-0.000079	0.191858
C34	C	1.256063	0.499921	0.691858
C35	C	1.149022	-0.526760	0.192523
C36	C	1.649022	-0.026760	0.692523
C37	C	1.091149	-0.473426	0.244185
C38	C	1.591149	0.026574	0.744185
C39	C	1.098589	-0.351504	0.237540
C40	C	1.598589	0.148496	0.737540
C41	C	1.141583	-0.648693	0.199167
C42	C	1.641583	-0.148693	0.699167
C43	C	1.293391	-0.000111	0.225884
C44	C	1.793391	0.499889	0.725884
C45	C	1.398634	-0.000114	0.236361
C46	C	1.898634	0.499886	0.736361
C47	C	1.126715	-0.000107	0.050296
C48	C	1.626715	0.499893	0.550296
C49	C	1.124671	-0.000107	-0.052250
C50	C	1.624671	0.499893	0.447750
N51	N	1.135650	0.254127	0.204466
N52	N	1.635650	0.754127	0.704466
C53	C	1.117148	-0.000078	-0.427754
C54	C	1.617148	0.499922	0.072246
C55	C	1.119237	-0.000087	-0.323277
C56	C	1.619237	0.499913	0.176723
C57	C	1.120909	-0.000094	-0.240005
C58	C	1.620909	0.499906	0.259995
C59	C	1.122999	-0.000100	-0.135522
C60	C	1.622999	0.499900	0.364478
C61	C	1.113446	-0.000083	0.386421
C62	C	1.613446	0.499917	0.886421
C63	C	1.115490	-0.000076	0.488967
C64	C	1.615490	0.499924	0.988967
H65	H	0.622617	-0.000080	0.327131
H66	H	1.122617	0.499920	0.827131
C67	C	1.016673	-0.535441	0.310688
C68	C	1.516673	-0.035441	0.810688
N69	N	0.960585	-0.582156	0.360781
N70	N	1.460585	-0.082156	0.860781
C71	C	0.606558	-0.000097	0.084451
C72	C	1.106558	0.499903	0.584451
N73	N	0.574707	-0.000096	0.011579
N74	N	1.074707	0.499904	0.511579
C75	C	1.223494	-0.464745	0.126027
C76	C	1.723494	0.035255	0.626027
N77	N	1.279584	-0.418023	0.075940
N78	N	1.779584	0.081977	0.575940
