data_functionalizedCrystal
_audit_creation_method	'MofGen! by Chris Wilmer'
_symmetry_space_group_name_H-M	'P1'
_symmetry_Int_Tables_number	1
_symmetry_cell_setting	triclinic
loop_
_symmetry_equiv_pos_as_xyz
  x,y,z
_cell_length_a	14.519731
_cell_length_b	12.996460
_cell_length_c	16.109304
_cell_angle_alpha	90.003335
_cell_angle_beta	83.575745
_cell_angle_gamma	90.005673
loop_
_atom_site_label
_atom_site_type_symbol
_atom_site_fract_x
_atom_site_fract_y
_atom_site_fract_z
O1	O	1.223626	0.085562	0.109071
O2	O	1.473626	0.335562	0.359071
O3	O	1.723626	0.585562	0.609071
O4	O	1.973626	0.835562	0.859071
O5	O	0.955124	0.085563	0.121887
O6	O	1.205124	0.335563	0.371887
O7	O	1.455124	0.585563	0.621887
O8	O	1.705124	0.835563	0.871887
O9	O	1.096749	0.085563	-0.005538
O10	O	1.346749	0.335563	0.244462
O11	O	1.596749	0.585563	0.494462
O12	O	1.846749	0.835563	0.744462
O13	O	1.082000	0.085562	0.236497
O14	O	1.332000	0.335562	0.486497
O15	O	1.582000	0.585562	0.736497
O16	O	1.832000	0.835562	0.986497
O17	O	1.096735	-0.085570	-0.005545
O18	O	1.346735	0.164430	0.244455
O19	O	1.596735	0.414430	0.494455
O20	O	1.846735	0.664430	0.744455
O21	O	0.955109	-0.085571	0.121880
O22	O	1.205109	0.164429	0.371880
O23	O	1.455109	0.414429	0.621880
O24	O	1.705109	0.664429	0.871880
O25	O	1.223611	-0.085571	0.109064
O26	O	1.473611	0.164429	0.359064
O27	O	1.723611	0.414429	0.609064
O28	O	1.973611	0.664429	0.859064
Cu29	Cu	1.089359	-0.101197	0.115471
Cu30	Cu	1.339359	0.148803	0.365471
Cu31	Cu	1.589359	0.398803	0.615471
Cu32	Cu	1.839359	0.648803	0.865471
Cu33	Cu	1.089376	0.101189	0.115480
Cu34	Cu	1.339376	0.351189	0.365480
Cu35	Cu	1.589376	0.601189	0.615480
Cu36	Cu	1.839376	0.851189	0.865480
O37	O	1.081986	-0.085572	0.236490
O38	O	1.331986	0.164428	0.486490
O39	O	1.581986	0.414428	0.736490
O40	O	1.831986	0.664428	0.986490
C41	C	0.920759	-0.000003	0.121283
C42	C	1.170759	0.249997	0.371283
C43	C	1.420759	0.499997	0.621283
C44	C	1.670759	0.749997	0.871283
C45	C	0.818382	-0.000003	0.119484
C46	C	1.068382	0.249997	0.369484
C47	C	1.318382	0.499997	0.619484
C48	C	1.568382	0.749997	0.869484
N49	N	1.089353	-0.243544	0.115465
N50	N	1.339353	0.006456	0.365465
N51	N	1.589353	0.256456	0.615465
N52	N	1.839353	0.506456	0.865465
C53	C	0.735241	0.000001	0.118022
C54	C	0.985241	0.250001	0.368022
C55	C	1.235241	0.500001	0.618022
C56	C	1.485241	0.750001	0.868022
C57	C	0.630936	0.000002	0.116194
C58	C	0.880936	0.250002	0.366194
C59	C	1.130936	0.500002	0.616194
C60	C	1.380936	0.750002	0.866194
C61	C	0.547800	0.000002	0.114744
C62	C	0.797800	0.250002	0.364744
C63	C	1.047800	0.500002	0.614744
C64	C	1.297800	0.750002	0.864744
C65	C	0.443489	0.000004	0.112918
C66	C	0.693489	0.250004	0.362918
C67	C	0.943489	0.500004	0.612918
C68	C	1.193489	0.750004	0.862918
C69	C	1.089375	-0.663358	0.115481
C70	C	1.339375	-0.413358	0.365481
C71	C	1.589375	-0.163358	0.615481
C72	C	1.839375	0.086642	0.865481
C73	C	1.089366	-0.546553	0.115479
C74	C	1.339366	-0.296553	0.365479
C75	C	1.589366	-0.046553	0.615479
C76	C	1.839366	0.203447	0.865479
C77	C	1.089365	-0.453455	0.115474
C78	C	1.339365	-0.203455	0.365474
C79	C	1.589365	0.046545	0.615474
C80	C	1.839365	0.296545	0.865474
C81	C	1.089355	-0.336642	0.115471
C82	C	1.339355	-0.086642	0.365471
C83	C	1.589355	0.163358	0.615471
C84	C	1.839355	0.413358	0.865471
C85	C	1.257976	-0.000002	0.109668
C86	C	1.507976	0.249998	0.359668
C87	C	1.757976	0.499998	0.609668
C88	C	2.007976	0.749998	0.859668
C89	C	1.360353	0.000004	0.111468
C90	C	1.610353	0.250004	0.361468
C91	C	1.860353	0.500004	0.611468
C92	C	2.110353	0.750004	0.861468
C93	C	1.096144	-0.000001	-0.036518
C94	C	1.346144	0.249999	0.213482
C95	C	1.596144	0.499999	0.463482
C96	C	1.846144	0.749999	0.713482
C97	C	1.094352	0.000006	-0.128816
C98	C	1.344352	0.250006	0.121184
C99	C	1.594352	0.500006	0.371184
C100	C	1.844352	0.750006	0.621184
N101	N	1.089389	0.243536	0.115480
N102	N	1.339389	0.493536	0.365480
N103	N	1.589389	0.743536	0.615480
N104	N	1.839389	0.993536	0.865480
C105	C	1.090218	0.093287	-0.341157
C106	C	1.340218	0.343287	-0.091157
C107	C	1.590218	0.593287	0.158843
C108	C	1.840218	0.843287	0.408843
C109	C	1.088525	0.093286	-0.427880
C110	C	1.338525	0.343286	-0.177880
C111	C	1.588525	0.593286	0.072120
C112	C	1.838525	0.843286	0.322120
C113	C	1.088514	-0.093293	-0.427885
C114	C	1.338514	0.156707	-0.177885
C115	C	1.588514	0.406707	0.072115
C116	C	1.838514	0.656707	0.322115
C117	C	1.090200	-0.093291	-0.341163
C118	C	1.340200	0.156709	-0.091163
C119	C	1.590200	0.406709	0.158837
C120	C	1.840200	0.656709	0.408837
C121	C	1.091057	0.000002	-0.297802
C122	C	1.341057	0.250002	-0.047802
C123	C	1.591057	0.500002	0.202198
C124	C	1.841057	0.750002	0.452198
C125	C	1.087678	-0.000001	-0.471247
C126	C	1.337678	0.249999	-0.221247
C127	C	1.587678	0.499999	0.028753
C128	C	1.837678	0.749999	0.278753
C129	C	1.085843	-0.000003	-0.565276
C130	C	1.335843	0.249997	-0.315276
C131	C	1.585843	0.499997	-0.065276
C132	C	1.835843	0.749997	0.184724
C133	C	1.092891	0.000004	-0.203766
C134	C	1.342891	0.250004	0.046234
C135	C	1.592891	0.500004	0.296234
C136	C	1.842891	0.750004	0.546234
C137	C	1.082591	-0.000005	0.267469
C138	C	1.332591	0.249995	0.517469
C139	C	1.582591	0.499995	0.767469
C140	C	1.832591	0.749995	1.017469
C141	C	1.084383	-0.000005	0.359768
C142	C	1.334383	0.249995	0.609768
C143	C	1.584383	0.499995	0.859768
C144	C	1.834383	0.749995	1.109768
H145	H	1.090913	0.169252	-0.305855
H146	H	1.340913	0.419252	-0.055855
H147	H	1.590913	0.669252	0.194145
H148	H	1.840913	0.919252	0.444145
C149	C	1.087578	-0.195910	-0.475582
C150	C	1.337578	0.054090	-0.225582
C151	C	1.587578	0.304090	0.024418
C152	C	1.837578	0.554090	0.274418
H153	H	1.088310	-0.251467	-0.437337
H154	H	1.338310	-0.001467	-0.187337
H155	H	1.588310	0.248533	0.062663
H156	H	1.838310	0.498533	0.312663
H157	H	1.140666	-0.199790	-0.515670
H158	H	1.390666	0.050210	-0.265670
H159	H	1.640666	0.300210	-0.015670
H160	H	1.890666	0.550210	0.234330
H161	H	1.033166	-0.199789	-0.503153
H162	H	1.283166	0.050211	-0.253153
H163	H	1.533166	0.300211	-0.003153
H164	H	1.783166	0.550211	0.246847
C165	C	1.091118	-0.195907	-0.293464
C166	C	1.341118	0.054093	-0.043464
C167	C	1.591118	0.304093	0.206536
C168	C	1.841118	0.554093	0.456536
H169	H	1.092233	-0.182542	-0.235604
H170	H	1.342233	0.067458	0.014396
H171	H	1.592233	0.317458	0.264396
H172	H	1.842233	0.567458	0.514396
H173	H	1.144584	-0.234244	-0.313929
H174	H	1.394584	0.015756	-0.063929
H175	H	1.644584	0.265756	0.186071
H176	H	1.894584	0.515756	0.436071
H177	H	1.037084	-0.234234	-0.301420
H178	H	1.287084	0.015766	-0.051420
H179	H	1.537084	0.265766	0.198580
H180	H	1.787084	0.515766	0.448580
H181	H	1.087841	0.169248	-0.463176
H182	H	1.337841	0.419248	-0.213176
H183	H	1.587841	0.669248	0.036824
H184	H	1.837841	0.919248	0.286824
