data_functionalizedCrystal
_audit_creation_method	'MofGen! by Chris Wilmer'
_symmetry_space_group_name_H-M	'P1'
_symmetry_Int_Tables_number	1
_symmetry_cell_setting	triclinic
loop_
_symmetry_equiv_pos_as_xyz
  x,y,z
_cell_length_a	15.297475
_cell_length_b	18.050589
_cell_length_c	15.299448
_cell_angle_alpha	80.303230
_cell_angle_beta	69.206248
_cell_angle_gamma	80.331321
loop_
_atom_site_label
_atom_site_type_symbol
_atom_site_fract_x
_atom_site_fract_y
_atom_site_fract_z
Zn1	Zn	1.512797	-0.401579	-0.771514
Zn2	Zn	2.012797	0.098421	-0.271514
Zn3	Zn	1.485738	-0.544075	-0.615983
Zn4	Zn	1.985738	-0.044075	-0.115983
Zn5	Zn	1.330345	-0.401557	-0.589141
Zn6	Zn	1.830345	0.098443	-0.089141
Zn7	Zn	1.357220	-0.507370	-0.744596
Zn8	Zn	1.857220	-0.007370	-0.244596
O9	O	1.421525	-0.463645	-0.680308
O10	O	1.921525	0.036355	-0.180308
O11	O	1.639350	-0.435852	-0.773382
O12	O	2.139350	0.064148	-0.273382
O13	O	1.442554	-0.540522	-0.482274
O14	O	1.942554	-0.040522	0.017726
O15	O	1.354625	-0.297642	-0.613365
O16	O	1.854625	0.202358	-0.113365
O17	O	1.619470	-0.540544	-0.659114
O18	O	2.119470	-0.040544	-0.159114
O19	O	1.488672	-0.297658	-0.747354
O20	O	1.988672	0.202342	-0.247354
O21	O	1.328387	-0.435815	-0.462553
O22	O	1.828387	0.064185	0.037447
O23	O	1.203768	-0.400222	-0.587263
O24	O	1.703768	0.099778	-0.087263
O25	O	1.400429	-0.477984	-0.878315
O26	O	1.900429	0.022016	-0.378315
O27	O	1.223513	-0.477962	-0.701475
O28	O	1.723513	0.022038	-0.201475
O29	O	1.514731	-0.400260	-0.898092
O30	O	2.014731	0.099740	-0.398092
O31	O	1.468612	-0.643124	-0.633012
O32	O	1.968612	-0.143124	-0.133012
O33	O	1.374191	-0.616157	-0.727503
O34	O	1.874191	-0.116157	-0.227503
C35	C	1.179896	-0.435107	-0.638536
C36	C	1.679896	0.064893	-0.138536
C37	C	1.076530	-0.422914	-0.620687
C38	C	1.576530	0.077086	-0.120687
C39	C	0.826316	-0.550798	-0.807876
C40	C	1.326316	-0.050798	-0.307876
C41	C	0.923433	-0.562260	-0.824643
C42	C	1.423433	-0.062260	-0.324643
C43	C	0.961712	-0.527424	-0.773656
C44	C	1.461712	-0.027424	-0.273656
C45	C	0.902864	-0.481125	-0.705898
C46	C	1.402864	0.018875	-0.205898
C47	C	0.805737	-0.469666	-0.689125
C48	C	1.305737	0.030334	-0.189125
C49	C	0.941133	-0.446293	-0.654904
C50	C	1.441133	0.053707	-0.154904
C51	C	0.882285	-0.399994	-0.587147
C52	C	1.382285	0.100006	-0.087147
C53	C	0.785168	-0.388537	-0.570377
C54	C	1.285168	0.111463	-0.070377
C55	C	0.746889	-0.423372	-0.621364
C56	C	1.246889	0.076628	-0.121364
C57	C	1.038261	-0.457751	-0.671678
C58	C	1.538261	0.042249	-0.171678
C59	C	1.017682	-0.376620	-0.552927
C60	C	1.517682	0.123380	-0.052927
C61	C	0.920565	-0.365158	-0.536160
C62	C	1.420565	0.134842	-0.036160
C63	C	1.421410	-0.656586	-0.680274
C64	C	1.921410	-0.156586	-0.180274
C65	C	1.421451	-0.739133	-0.680305
C66	C	1.921451	-0.239133	-0.180305
C67	C	1.370162	-0.923956	-0.731678
C68	C	1.870162	-0.423956	-0.231678
C69	C	1.332793	-0.980715	-0.642897
C70	C	1.832793	-0.480715	-0.142897
C71	C	1.421545	-0.890273	-0.680332
C72	C	1.921545	-0.390273	-0.180332
C73	C	1.458961	-0.980600	-0.769131
C74	C	1.958961	-0.480600	-0.269131
C75	C	1.421635	-1.036266	-0.680367
C76	C	1.921635	-0.536266	-0.180367
C77	C	1.384124	-0.945945	-0.591499
C78	C	1.884124	-0.445945	-0.091499
C79	C	1.510341	-0.945823	-0.717797
C80	C	2.010341	-0.445823	-0.217797
C81	C	1.472994	-1.002571	-0.628963
C82	C	1.972994	-0.502571	-0.128963
C83	C	1.421491	-0.806170	-0.680314
C84	C	1.921491	-0.306170	-0.180314
C85	C	1.421687	-1.120369	-0.680376
C86	C	1.921687	-0.620369	-0.180376
C87	C	1.664098	-0.492295	-0.722245
C88	C	2.164098	0.007705	-0.222245
C89	C	1.767468	-0.504504	-0.740115
C90	C	2.267468	-0.004504	-0.240115
C91	C	1.463596	-0.435030	-0.922893
C92	C	1.963596	0.064970	-0.422893
C93	C	1.481524	-0.422836	-1.026268
C94	C	1.981524	0.077164	-0.526268
C95	C	1.421669	-0.269952	-0.680368
C96	C	1.921669	0.230048	-0.180368
C97	C	1.421731	-0.187411	-0.680394
C98	C	1.921731	0.312589	-0.180394
C99	C	1.549458	-0.376639	-1.085128
C100	C	2.049458	0.123361	-0.585128
C101	C	1.566295	-0.365171	-1.182253
C102	C	2.066295	0.134829	-0.682253
C103	C	1.515204	-0.399904	-1.220528
C104	C	2.015204	0.100096	-0.720528
C105	C	1.447273	-0.446107	-1.161668
C106	C	1.947273	0.053893	-0.661668
C107	C	1.430429	-0.457571	-1.064533
C108	C	1.930429	0.042429	-0.564533
C109	C	1.396175	-0.480837	-1.199933
C110	C	1.896175	0.019163	-0.699933
C111	C	1.328244	-0.527039	-1.141074
C112	C	1.828244	-0.027039	-0.641074
C113	C	1.311404	-0.538502	-1.043949
C114	C	1.811404	-0.038502	-0.543949
C115	C	1.362495	-0.503768	-1.005673
C116	C	1.862495	-0.003768	-0.505673
C117	C	1.413018	-0.469373	-1.297068
C118	C	1.913018	0.030627	-0.797068
C119	C	1.293989	-0.550305	-1.276474
C120	C	1.793989	-0.050305	-0.776474
C121	C	1.277153	-0.561773	-1.179349
C122	C	1.777153	-0.061773	-0.679349
C123	C	1.379671	-0.492102	-0.438677
C124	C	1.879671	0.007898	0.061323
C125	C	1.361924	-0.504108	-0.335333
C126	C	1.861924	-0.004108	0.164667
H127	H	0.971340	-0.599959	-0.879809
H128	H	1.471340	-0.099959	-0.379809
H129	H	0.667809	-0.414041	-0.607718
H130	H	1.167809	0.085959	-0.107718
O131	O	1.609827	-0.925359	-0.759694
O132	O	2.109827	-0.425359	-0.259694
H133	H	1.640737	-0.939032	-0.833397
H134	H	2.140737	-0.439032	-0.333397
H135	H	1.621606	-0.327554	-1.230170
H136	H	2.121606	0.172446	-0.730170
O137	O	1.604550	-0.339178	-1.043840
O138	O	2.104550	0.160822	-0.543840
H139	H	1.654615	-0.305122	-1.101083
H140	H	2.154615	0.194878	-0.601083
O141	O	1.342138	-0.925587	-0.491993
O142	O	1.842138	-0.425587	0.008007
H143	H	1.279204	-0.883295	-0.485980
H144	H	1.779204	-0.383295	0.014020
H145	H	0.872637	-0.327461	-0.480991
H146	H	1.372637	0.172539	0.019009
O147	O	0.721691	-0.338611	-0.497285
O148	O	1.221691	0.161389	0.002715
H149	H	0.684691	-0.290747	-0.531353
H150	H	1.184691	0.209253	-0.031353
H151	H	1.048847	-0.348255	-0.511407
H152	H	1.548847	0.151745	-0.011407
O153	O	1.312493	-0.878854	-0.789077
O154	O	1.812493	-0.378854	-0.289077
H155	H	1.238835	-0.892652	-0.757772
H156	H	1.738835	-0.392652	-0.257772
O157	O	1.238877	-0.587767	-1.317748
O158	O	1.738877	-0.087767	-0.817748
H159	H	1.188799	-0.621809	-1.260501
H160	H	1.688799	-0.121809	-0.760501
H161	H	1.348793	-0.513105	-0.926588
H162	H	1.848793	-0.013105	-0.426588
H163	H	0.795138	-0.579161	-0.849377
H164	H	1.295138	-0.079161	-0.349377
H165	H	1.257745	-0.996300	-0.611235
H166	H	1.757745	-0.496300	-0.111235
H167	H	1.256087	-0.576121	-0.996026
H168	H	1.756087	-0.076121	-0.496026
H169	H	1.221842	-0.599391	-1.131412
H170	H	1.721842	-0.099391	-0.631412
H171	H	1.490570	-0.996061	-0.844214
H172	H	1.990570	-0.496061	-0.344214
H173	H	1.040790	-0.536759	-0.787312
H174	H	1.540790	-0.036759	-0.287312
H175	H	1.516475	-1.036482	-0.585497
H176	H	2.016475	-0.536482	-0.085497
H177	H	1.528915	-0.390564	-1.299612
H178	H	2.028915	0.109436	-0.799612
O179	O	1.101734	-0.507671	-0.744767
O180	O	1.601734	-0.007671	-0.244767
H181	H	1.080279	-0.565632	-0.725480
H182	H	1.580279	-0.065632	-0.225480
O183	O	1.486279	-0.419545	-1.360557
O184	O	1.986279	0.080455	-0.860557
H185	H	1.556032	-0.443104	-1.354544
H186	H	2.056032	0.056896	-0.854544
