data_functionalizedCrystal
_audit_creation_method	'MofGen! by Chris Wilmer'
_symmetry_space_group_name_H-M	'P1'
_symmetry_Int_Tables_number	1
_symmetry_cell_setting	triclinic
loop_
_symmetry_equiv_pos_as_xyz
  x,y,z
_cell_length_a	11.169417
_cell_length_b	19.805405
_cell_length_c	19.805399
_cell_angle_alpha	90.029301
_cell_angle_beta	90.015281
_cell_angle_gamma	90.027289
loop_
_atom_site_label
_atom_site_type_symbol
_atom_site_fract_x
_atom_site_fract_y
_atom_site_fract_z
Zn1	Zn	1.834774	-0.269463	0.382634
Zn2	Zn	1.834623	-0.382651	0.269442
Zn3	Zn	1.634076	-0.269483	0.269467
Zn4	Zn	1.634012	-0.382617	0.382598
O5	O	1.734371	-0.326054	0.326035
O6	O	2.002704	-0.284484	0.367624
O7	O	1.807984	-0.367662	0.174729
O8	O	1.660790	-0.174764	0.284505
O9	O	2.002593	-0.367643	0.284462
O10	O	1.808242	-0.174749	0.367648
O11	O	1.660643	-0.284518	0.174747
O12	O	1.466118	-0.284485	0.284469
O13	O	1.660679	-0.367584	0.477319
O14	O	1.466070	-0.367604	0.367586
O15	O	1.808179	-0.284450	0.477346
O16	O	1.807922	-0.477363	0.284427
O17	O	1.660533	-0.477338	0.367562
C18	C	1.422547	-0.326043	0.326027
C19	C	1.289147	-0.326055	0.326039
C20	C	1.734236	-0.501910	0.326003
C21	C	1.734288	-0.577142	0.326011
C22	C	1.811108	-0.612477	0.282768
C23	C	1.811159	-0.683165	0.282783
C24	C	1.734383	-0.718517	0.326038
C25	C	1.657560	-0.683178	0.369286
C26	C	1.657516	-0.612490	0.369274
C27	C	1.657737	-0.968251	0.369336
C28	C	1.657785	-1.038943	0.369343
C29	C	1.811380	-1.038925	0.282845
C30	C	1.811336	-0.968238	0.282833
C31	C	1.734518	-0.932905	0.326083
C32	C	1.734465	-0.856256	0.326067
C33	C	1.734429	-0.795164	0.326051
C34	C	2.047414	-0.326065	0.326044
C35	C	2.180814	-0.326069	0.326048
C36	C	1.734439	-0.326011	0.502578
C37	C	1.734467	-0.325993	0.577810
C38	C	1.734540	-0.149511	0.326083
C39	C	1.734611	-0.074279	0.326103
C40	C	1.734373	-0.326047	0.150179
C41	C	1.734577	-0.325875	0.074948
C42	C	1.811272	-0.282703	0.613169
C43	C	1.811285	-0.282683	0.683858
C44	C	1.734497	-0.325958	0.719186
C45	C	1.657684	-0.369249	0.683822
C46	C	1.657666	-0.369265	0.613134
C47	C	1.657752	-0.369186	0.968895
C48	C	1.657778	-0.369169	1.039587
C49	C	1.811370	-0.282605	1.039618
C50	C	1.811352	-0.282620	0.968931
C51	C	1.734535	-0.325909	0.933573
C52	C	1.734521	-0.325929	0.856925
C53	C	1.734516	-0.325942	0.795833
H54	H	1.873623	-0.583697	0.247542
O55	O	1.574859	-0.415921	0.721926
H56	H	1.521439	-0.446021	0.685461
H57	H	1.595112	-0.404510	0.584346
H58	H	1.595053	-0.711967	0.404508
O59	O	1.574883	-0.930139	0.415974
H60	H	1.513848	-0.897979	0.385639
H61	H	1.873713	-0.711931	0.247570
H62	H	1.595220	-0.404445	0.940115
H63	H	1.873805	-0.247466	0.584410
H64	H	1.873830	-0.247434	0.712644
H65	H	1.873850	-0.939457	0.247609
O66	O	1.894273	-1.077034	0.236213
H67	H	1.881429	-1.132126	0.243496
H68	H	1.595266	-1.067725	0.404572
H69	H	1.594963	-0.583722	0.404487
O70	O	1.574940	-0.415841	1.077690
H71	H	1.587869	-0.408561	1.132783
H72	H	1.873914	-0.247354	1.068415
O73	O	1.894173	-0.235947	0.930825
H74	H	1.947577	-0.205837	0.967289
