data_functionalizedCrystal
_audit_creation_method	'MofGen! by Chris Wilmer'
_symmetry_space_group_name_H-M	'P1'
_symmetry_Int_Tables_number	1
_symmetry_cell_setting	triclinic
loop_
_symmetry_equiv_pos_as_xyz
  x,y,z
_cell_length_a	12.759401
_cell_length_b	21.395362
_cell_length_c	12.759393
_cell_angle_alpha	89.961682
_cell_angle_beta	89.981425
_cell_angle_gamma	90.030217
loop_
_atom_site_label
_atom_site_type_symbol
_atom_site_fract_x
_atom_site_fract_y
_atom_site_fract_z
Zn1	Zn	1.606145	-0.249394	-0.593936
Zn2	Zn	2.106145	0.250606	-0.093936
Zn3	Zn	1.605993	-0.354186	-0.418235
Zn4	Zn	2.105993	0.145814	0.081765
Zn5	Zn	1.430447	-0.249428	-0.418275
Zn6	Zn	1.930447	0.250572	0.081725
Zn7	Zn	1.430389	-0.354139	-0.593876
Zn8	Zn	1.930389	0.145861	-0.093876
O9	O	1.518243	-0.301787	-0.506081
O10	O	2.018243	0.198213	-0.006081
O11	O	1.753146	-0.263301	-0.570637
O12	O	2.253146	0.236699	-0.070637
O13	O	1.582667	-0.340324	-0.271219
O14	O	2.082667	0.159676	0.228781
O15	O	1.453841	-0.161745	-0.441618
O16	O	1.953841	0.338255	0.058382
O17	O	1.753034	-0.340292	-0.441551
O18	O	2.253034	0.159708	0.058449
O19	O	1.582926	-0.161721	-0.570675
O20	O	2.082926	0.338279	-0.070675
O21	O	1.453694	-0.263358	-0.271248
O22	O	1.953694	0.236642	0.228752
O23	O	1.283418	-0.263312	-0.441560
O24	O	1.783418	0.236688	0.058440
O25	O	1.453743	-0.340210	-0.740905
O26	O	1.953743	0.159790	-0.240905
O27	O	1.283376	-0.340242	-0.570574
O28	O	1.783376	0.159758	-0.070574
O29	O	1.582870	-0.263255	-0.740949
O30	O	2.082870	0.236745	-0.240949
O31	O	1.582611	-0.441858	-0.441493
O32	O	2.082611	0.058142	0.058507
O33	O	1.453596	-0.441823	-0.570536
O34	O	1.953596	0.058177	-0.070536
C35	C	1.245276	-0.301776	-0.506066
C36	C	1.745276	0.198224	-0.006066
C37	C	1.128499	-0.301786	-0.506084
C38	C	1.628499	0.198214	-0.006084
C39	C	1.073696	-0.261770	-0.573403
C40	C	1.573696	0.238230	-0.073403
C41	C	0.963972	-0.261776	-0.573410
C42	C	1.463972	0.238224	-0.073410
C43	C	0.963864	-0.341821	-0.438776
C44	C	1.463864	0.158179	0.061224
C45	C	1.073586	-0.341811	-0.438765
C46	C	1.573586	0.158189	0.061235
C47	C	1.518109	-0.464574	-0.506027
C48	C	2.018109	0.035426	-0.006027
C49	C	1.518148	-0.534216	-0.506039
C50	C	2.018148	-0.034216	-0.006039
C51	C	1.585324	-0.566859	-0.573287
C52	C	2.085324	-0.066859	-0.073287
C53	C	1.585360	-0.632294	-0.573313
C54	C	2.085360	-0.132294	-0.073313
C55	C	1.518233	-0.665084	-0.506071
C56	C	2.018233	-0.165084	-0.006071
C57	C	1.451044	-0.632433	-0.438819
C58	C	1.951044	-0.132433	0.061181
C59	C	1.451001	-0.566998	-0.438802
C60	C	1.951001	-0.066998	0.061198
C61	C	1.510059	-0.768802	-0.411434
C62	C	2.010059	-0.268802	0.088566
C63	C	1.510109	-0.834235	-0.411448
C64	C	2.010109	-0.334235	0.088552
C65	C	1.518357	-0.866905	-0.506122
C66	C	2.018357	-0.366905	-0.006122
C67	C	1.526578	-0.834134	-0.600785
C68	C	2.026578	-0.334134	-0.100785
C69	C	1.526535	-0.768699	-0.600768
C70	C	2.026535	-0.268699	-0.100768
C71	C	1.518271	-0.736036	-0.506082
C72	C	2.018271	-0.236036	-0.006082
C73	C	1.585577	-0.970501	-0.573404
C74	C	2.085577	-0.470501	-0.073404
C75	C	1.585606	-1.035937	-0.573431
C76	C	2.085606	-0.535937	-0.073431
C77	C	1.451295	-1.036074	-0.438928
C78	C	1.951295	-0.536074	0.061072
C79	C	1.451260	-0.970639	-0.438910
C80	C	1.951260	-0.470639	0.061090
C81	C	1.518407	-0.937856	-0.506146
C82	C	2.018407	-0.437856	-0.006146
C83	C	1.792277	-0.301798	-0.506096
C84	C	2.292277	0.198202	-0.006096
C85	C	1.909053	-0.301803	-0.506103
C86	C	2.409053	0.198197	-0.006103
C87	C	1.518317	-0.301723	-0.780114
C88	C	2.018317	0.198277	-0.280114
C89	C	1.518348	-0.301696	-0.896891
C90	C	2.018348	0.198304	-0.396891
C91	C	1.518407	-0.138363	-0.506158
C92	C	2.018407	0.361637	-0.006158
C93	C	1.518477	-0.068722	-0.506191
C94	C	2.018477	0.431278	-0.006191
C95	C	1.451216	-0.261613	-0.951767
C96	C	1.951216	0.238387	-0.451767
C97	C	1.451240	-0.261594	-1.061492
C98	C	1.951240	0.238406	-0.561492
C99	C	1.585538	-0.341743	-1.061453
C100	C	2.085538	0.158257	-0.561453
C101	C	1.585508	-0.341765	-0.951731
C102	C	2.085508	0.158235	-0.451731
C103	C	1.518231	-0.301805	-0.233113
C104	C	2.018231	0.198195	0.266887
C105	C	1.518403	-0.301655	-0.116337
C106	C	2.018403	0.198345	0.383663
H107	H	1.639995	-0.540169	-0.628037
H108	H	2.139995	-0.040169	-0.128037
C109	C	1.134097	-0.217736	-0.647447
C110	C	1.634097	0.282264	-0.147447
N111	N	1.179587	-0.184566	-0.703216
N112	N	1.679587	0.315434	-0.203216
C113	C	1.535648	-0.870065	-0.704935
C114	C	2.035648	-0.370065	-0.204935
N115	N	1.542479	-0.897132	-0.783379
N116	N	2.042479	-0.397132	-0.283379
C117	C	0.903450	-0.385850	-0.364736
C118	C	1.403450	0.114150	0.135264
N119	N	0.857946	-0.419015	-0.308970
N120	N	1.357946	0.080985	0.191030
C121	C	1.659179	-0.385953	-1.121787
C122	C	2.159179	0.114047	-0.621787
N123	N	1.714565	-0.419302	-1.167229
N124	N	2.214565	0.080698	-0.667229
H125	H	1.396530	-0.228986	-0.907120
H126	H	1.896530	0.271014	-0.407120
C127	C	0.903693	-0.217757	-0.647469
C128	C	1.403693	0.282243	-0.147469
N129	N	0.858292	-0.184599	-0.703254
N130	N	1.358292	0.315401	-0.203254
H131	H	1.640054	-0.658878	-0.628086
H132	H	2.140054	-0.158878	-0.128086
H133	H	1.503422	-0.860912	-0.334368
H134	H	2.003422	-0.360912	0.165632
C135	C	1.377396	-0.217495	-1.121851
C136	C	1.877396	0.282505	-0.621851
N137	N	1.321774	-0.184277	-1.167313
N138	N	1.821774	0.315723	-0.667313
C139	C	1.377354	-0.934729	-0.364937
C140	C	1.877354	-0.434729	0.135063
N141	N	1.321678	-0.907683	-0.309223
N142	N	1.821678	-0.407683	0.190777
H143	H	1.118208	-0.374398	-0.383940
H144	H	1.618208	0.125602	0.116060
C145	C	1.535569	-0.732654	-0.704895
C146	C	2.035569	-0.232654	-0.204895
N147	N	1.542368	-0.705504	-0.783326
N148	N	2.042368	-0.205504	-0.283326
C149	C	1.659424	-0.934437	-0.647379
C150	C	2.159424	-0.434437	-0.147379
N151	N	1.715043	-0.907276	-0.703101
N152	N	2.215043	-0.407276	-0.203101
C153	C	1.501006	-0.732871	-0.307276
C154	C	2.001006	-0.232871	0.192724
N155	N	1.494194	-0.705809	-0.228826
N156	N	1.994194	-0.205809	0.271174
H157	H	1.640309	-1.062514	-0.628197
H158	H	2.140309	-0.562514	-0.128197
H159	H	1.396386	-0.659134	-0.384073
H160	H	1.896386	-0.159134	0.115927
H161	H	1.640177	-0.374408	-0.907049
H162	H	2.140177	0.125592	-0.407049
C163	C	1.377439	-1.072139	-0.364976
C164	C	1.877439	-0.572139	0.135024
N165	N	1.321802	-1.099306	-0.309279
N166	N	1.821802	-0.599306	0.190721
C167	C	1.377095	-0.531090	-0.364825
C168	C	1.877095	-0.031090	0.135175
N169	N	1.321428	-0.504042	-0.309105
N170	N	1.821428	-0.004042	0.190895
