data_functionalizedCrystal
_audit_creation_method	'MofGen! by Chris Wilmer'
_symmetry_space_group_name_H-M	'P1'
_symmetry_Int_Tables_number	1
_symmetry_cell_setting	triclinic
loop_
_symmetry_equiv_pos_as_xyz
  x,y,z
_cell_length_a	15.538191
_cell_length_b	14.750779
_cell_length_c	16.109301
_cell_angle_alpha	77.359896
_cell_angle_beta	114.633213
_cell_angle_gamma	82.427828
loop_
_atom_site_label
_atom_site_type_symbol
_atom_site_fract_x
_atom_site_fract_y
_atom_site_fract_z
O1	O	1.229538	0.079829	0.245842
O2	O	0.955249	0.079832	0.149834
O3	O	1.099931	0.079821	0.321144
O4	O	1.084856	0.079840	0.074532
O5	O	1.140831	-0.079833	0.369568
O6	O	0.996149	-0.079822	0.198257
O7	O	1.270438	-0.079824	0.294266
Zn8	Zn	1.139787	-0.105171	0.253950
Zn9	Zn	1.085900	0.105179	0.190150
O10	O	1.125756	-0.079813	0.122955
C11	C	0.940600	0.000005	0.164000
C12	C	0.836017	0.000006	0.134080
C13	C	0.548320	-0.000003	0.431336
C14	C	0.450045	-0.000000	0.403199
C15	C	0.427550	0.000012	0.244937
C16	C	0.525827	0.000005	0.273062
C17	C	0.586204	-0.000002	0.366262
C18	C	0.563711	0.000006	0.207989
C19	C	0.661978	0.000003	0.236110
C20	C	0.722360	-0.000001	0.329305
C21	C	0.684471	-0.000005	0.394384
C22	C	0.503330	0.000019	0.114787
C23	C	0.541214	0.000020	0.049713
C24	C	0.639484	0.000011	0.077837
C25	C	0.699867	0.000007	0.171032
C26	C	0.677373	0.000015	0.012758
C27	C	0.775640	0.000012	0.040880
C28	C	0.798133	0.000005	0.199153
N29	N	1.176571	-0.248730	0.297494
C30	C	0.946393	-0.600531	0.025038
C31	C	0.972175	-0.701032	0.055548
C32	C	1.100317	-0.701004	0.207209
C33	C	1.074543	-0.600501	0.176714
C34	C	0.997580	-0.550272	0.085627
C35	C	1.125730	-0.550243	0.237303
C36	C	1.099960	-0.449748	0.206808
C37	C	1.023003	-0.399512	0.115724
C38	C	0.971810	-0.449778	0.055132
C39	C	1.202697	-0.600473	0.328387
C40	C	1.253884	-0.550215	0.388976
C41	C	1.228110	-0.449719	0.358484
C42	C	1.151153	-0.399483	0.267400
C43	C	1.279303	-0.399453	0.419076
C44	C	1.253533	-0.298959	0.388581
C45	C	1.125383	-0.298988	0.236905
C46	C	1.285086	0.000004	0.280098
C47	C	1.389668	0.000010	0.310017
C48	C	1.119771	-0.000007	0.376147
C49	C	1.117941	-0.000008	0.467891
N50	N	1.049124	0.248737	0.146614
C51	C	1.105916	0.000016	0.067952
C52	C	1.107744	0.000024	-0.023794
C53	C	1.199531	0.000006	0.714762
C54	C	1.197802	0.000014	0.800960
C55	C	1.026146	0.000012	0.729325
C56	C	1.027874	0.000011	0.643128
C57	C	1.114571	0.000003	0.635851
C58	C	1.111114	0.000012	0.808246
C59	C	1.109239	0.000021	0.901704
C60	C	1.116446	-0.000003	0.542386
H61	H	0.597485	-0.000014	0.507230
H62	H	0.419205	0.000000	0.456196
H63	H	0.955561	0.000017	0.735262
F64	F	0.398745	0.000023	0.084859
F65	F	0.937441	0.000015	0.559135
H66	H	0.847298	-0.000006	0.275048
H67	H	1.223678	-0.682302	0.353211
H68	H	1.316550	-0.591123	0.463139
F69	F	0.826944	0.000002	0.359233
F70	F	0.363282	0.000025	0.145748
F71	F	1.182227	-0.754470	0.304147
F72	F	0.476945	0.000033	-0.049476
H73	H	1.002025	-0.317683	0.090894
H74	H	1.341972	-0.440363	0.493236
H75	H	1.295217	-0.258038	0.437919
H76	H	1.270125	0.000002	0.708842
F77	F	0.889889	-0.396318	-0.041809
F78	F	1.043461	-0.245529	0.139964
H79	H	0.733636	-0.000016	0.470278
H80	H	0.628197	0.000030	-0.063128
F81	F	0.815961	0.000015	-0.028379
H82	H	1.266985	0.000019	0.865208
H83	H	0.930486	-0.741947	0.006200
F84	F	0.864471	-0.547071	-0.071903
