data_functionalizedCrystal
_audit_creation_method	'MofGen! by Chris Wilmer'
_symmetry_space_group_name_H-M	'P1'
_symmetry_Int_Tables_number	1
_symmetry_cell_setting	triclinic
loop_
_symmetry_equiv_pos_as_xyz
  x,y,z
_cell_length_a	12.759401
_cell_length_b	25.639240
_cell_length_c	12.759393
_cell_angle_alpha	90.043413
_cell_angle_beta	90.018802
_cell_angle_gamma	90.032402
loop_
_atom_site_label
_atom_site_type_symbol
_atom_site_fract_x
_atom_site_fract_y
_atom_site_fract_z
Zn1	Zn	1.606120	-0.208129	0.593906
Zn2	Zn	2.106120	0.291871	1.093906
Zn3	Zn	1.605960	-0.295575	0.418188
Zn4	Zn	2.105960	0.204425	0.918188
Zn5	Zn	1.430423	-0.208155	0.418244
Zn6	Zn	1.930423	0.291845	0.918244
Zn7	Zn	1.430355	-0.295535	0.593827
Zn8	Zn	1.930355	0.204465	1.093827
O9	O	1.518215	-0.251848	0.506041
O10	O	2.018215	0.248152	1.006041
O11	O	1.753120	-0.219735	0.570607
O12	O	2.253120	0.280265	1.070607
O13	O	1.582636	-0.284005	0.271174
O14	O	2.082636	0.215995	0.771174
O15	O	1.453825	-0.134986	0.441603
O16	O	1.953825	0.365014	0.941603
O17	O	1.753002	-0.283981	0.441507
O18	O	2.253002	0.216019	0.941507
O19	O	1.582909	-0.134967	0.570661
O20	O	2.082909	0.365033	1.070661
O21	O	1.453670	-0.219778	0.271215
O22	O	1.953670	0.280222	0.771215
O23	O	1.283393	-0.219740	0.441526
O24	O	1.783393	0.280260	0.941526
O25	O	1.453710	-0.283913	0.740859
O26	O	1.953710	0.216087	1.240859
O27	O	1.283343	-0.283938	0.570526
O28	O	1.783343	0.216062	1.070526
O29	O	1.582843	-0.219696	0.740917
O30	O	2.082843	0.280304	1.240917
O31	O	1.582570	-0.368735	0.441430
O32	O	2.082570	0.131265	0.941430
O33	O	1.453554	-0.368705	0.570472
O34	O	1.953554	0.131295	1.070472
C35	C	1.245247	-0.251837	0.506024
C36	C	1.745247	0.248163	1.006024
C37	C	1.128471	-0.251845	0.506042
C38	C	1.628471	0.248155	1.006042
C39	C	0.963879	-0.218385	0.439000
C40	C	1.463879	0.281615	0.939000
C41	C	1.073603	-0.218374	0.438989
C42	C	1.573603	0.281626	0.938989
C43	C	1.073609	-0.285326	0.573116
C44	C	1.573609	0.214674	1.073116
C45	C	0.963887	-0.285334	0.573131
C46	C	1.463887	0.214666	1.073131
C47	C	0.909017	-0.184915	0.371936
C48	C	1.409017	0.315085	0.871936
C49	C	0.963871	-0.151433	0.304862
C50	C	1.463871	0.348567	0.804862
C51	C	1.073595	-0.151422	0.304852
C52	C	1.573595	0.348578	0.804852
C53	C	1.128465	-0.184893	0.371915
C54	C	1.628465	0.315107	0.871915
C55	C	1.518066	-0.387691	0.505959
C56	C	2.018066	0.112309	1.005959
C57	C	1.518099	-0.445805	0.505959
C58	C	2.018099	0.054195	1.005959
C59	C	1.585462	-0.806120	0.573363
C60	C	2.085462	-0.306120	1.073363
C61	C	1.585493	-0.860724	0.573385
C62	C	2.085493	-0.360724	1.073385
O63	O	1.642591	-0.888920	0.630610
O64	O	2.142591	-0.388920	1.130610
N65	N	1.518361	-0.888087	0.506143
N66	N	2.018361	-0.388087	1.006143
C67	C	1.451185	-0.860843	0.438883
C68	C	1.951185	-0.360843	0.938883
O69	O	1.394086	-0.889132	0.381691
O70	O	1.894086	-0.389132	0.881691
C71	C	1.451150	-0.806240	0.438868
C72	C	1.951150	-0.306240	0.938868
C73	C	1.518294	-0.778880	0.506106
C74	C	2.018294	-0.278880	1.006106
C75	C	1.652600	-0.778759	0.640597
C76	C	2.152600	-0.278759	1.140597
C77	C	1.652570	-0.724159	0.640574
C78	C	2.152570	-0.224159	1.140574
C79	C	1.585402	-0.696919	0.573317
C80	C	2.085402	-0.196919	1.073317
C81	C	1.518264	-0.724279	0.506083
C82	C	2.018264	-0.224279	1.006083
C83	C	1.383970	-0.778997	0.371614
C84	C	1.883970	-0.278997	0.871614
C85	C	1.383939	-0.724390	0.371605
C86	C	1.883939	-0.224390	0.871605
C87	C	1.451084	-0.697030	0.438843
C88	C	1.951084	-0.197030	0.938843
C89	C	1.451066	-0.642439	0.438803
C90	C	1.951066	-0.142439	0.938803
N91	N	1.518199	-0.615075	0.506045
N92	N	2.018199	-0.115075	1.006045
C93	C	1.585367	-0.642315	0.573302
C94	C	2.085367	-0.142315	1.073302
C95	C	1.451263	-0.975514	0.438921
C96	C	1.951263	-0.475514	0.938921
C97	C	1.451303	-1.030116	0.438931
C98	C	1.951303	-0.530116	0.938931
C99	C	1.585610	-1.029993	0.573434
C100	C	2.085610	-0.529993	1.073434
C101	C	1.585575	-0.975390	0.573419
C102	C	2.085575	-0.475390	1.073419
C103	C	1.518396	-0.948151	0.506163
C104	C	2.018396	-0.448151	1.006163
C105	C	1.585300	-0.527650	0.573248
C106	C	2.085300	-0.027650	1.073248
C107	C	1.585267	-0.473045	0.573216
C108	C	2.085267	0.026955	1.073216
C109	C	1.450957	-0.473173	0.438717
C110	C	1.950957	0.026827	0.938717
C111	C	1.450993	-0.527773	0.438745
C112	C	1.950993	-0.027773	0.938745
C113	C	1.518168	-0.555011	0.506019
C114	C	2.018168	-0.055011	1.006019
O115	O	1.393994	-0.614208	0.381610
O116	O	1.893994	-0.114208	0.881610
O117	O	1.642447	-0.614020	0.630494
O118	O	2.142447	-0.114020	1.130494
C119	C	1.792248	-0.251860	0.506059
C120	C	2.292248	0.248140	1.006059
C121	C	1.909025	-0.251864	0.506067
C122	C	2.409025	0.248136	1.006067
C123	C	1.518287	-0.251798	0.780075
C124	C	2.018287	0.248202	1.280075
C125	C	1.518317	-0.251776	0.896852
C126	C	2.018317	0.248224	1.396852
C127	C	1.518392	-0.115475	0.506147
C128	C	2.018392	0.384525	1.006147
C129	C	1.518468	-0.057361	0.506192
C130	C	2.018468	0.442639	1.006192
C131	C	1.518203	-0.251861	0.233074
C132	C	2.018203	0.248139	0.733074
C133	C	1.518376	-0.251736	0.116298
C134	C	2.018376	0.248264	0.616298
C135	C	1.451132	-0.285180	1.061410
C136	C	1.951132	0.214820	1.561410
C137	C	1.451099	-0.285200	0.951686
C138	C	1.951099	0.214800	1.451686
C139	C	1.585565	-0.218327	0.951747
C140	C	2.085565	0.281673	1.451747
C141	C	1.585591	-0.218306	1.061469
C142	C	2.085591	0.281694	1.561469
C143	C	1.383917	-0.318610	1.116239
C144	C	1.883917	0.181390	1.616239
C145	C	1.316667	-0.352058	1.061351
C146	C	1.816667	0.147942	1.561351
C147	C	1.316635	-0.352077	0.951626
C148	C	1.816635	0.147923	1.451626
C149	C	1.383852	-0.318648	0.896790
C150	C	1.883852	0.181352	1.396790
H151	H	1.639948	-0.450770	0.627970
H152	H	2.139948	0.049230	1.127970
F153	F	1.379544	-0.556893	0.367169
F154	F	1.879544	-0.056893	0.867169
F155	F	1.656796	-0.556631	0.644847
F156	F	2.156796	-0.056631	1.144847
H157	H	1.261934	-0.379271	1.106005
H158	H	1.761934	0.120729	1.606005
F159	F	1.383809	-0.318668	0.780011
F160	F	1.883809	0.181332	1.280011
F161	F	1.312436	-0.695404	0.300020
F162	F	1.812436	-0.195404	0.800020
H163	H	1.640290	-0.191111	0.907091
H164	H	2.140290	0.308889	1.407091
H165	H	1.118255	-0.124156	0.250246
H166	H	1.618255	0.375844	0.750246
F167	F	0.905474	-0.115809	0.233503
F168	F	1.405474	0.384191	0.733503
H169	H	1.707296	-0.800932	0.695372
H170	H	2.207296	-0.300932	1.195372
F171	F	1.245055	-0.387670	0.893213
F172	F	1.745055	0.112330	1.393213
H173	H	0.819674	-0.184921	0.371935
H174	H	1.319674	0.315079	0.871935
F175	F	1.657138	-0.182699	1.119888
F176	F	2.157138	0.317301	1.619888
F177	F	0.905503	-0.320966	0.644514
F178	F	1.405503	0.179034	1.144514
H179	H	1.396639	-1.052389	0.384167
H180	H	1.896639	-0.552389	0.884167
F181	F	1.245244	-0.184877	0.371905
F182	F	1.745244	0.315123	0.871905
H183	H	1.640301	-1.052182	0.628200
H184	H	2.140301	-0.552182	1.128200
F185	F	1.132008	-0.320948	0.644479
F186	F	1.632008	0.179052	1.144479
F187	F	1.657037	-0.946276	0.644984
F188	F	2.157037	-0.446276	1.144984
H189	H	1.707242	-0.701885	0.695329
H190	H	2.207242	-0.201885	1.195329
F191	F	1.312501	-0.808105	0.300050
F192	F	1.812501	-0.308105	0.800050
F193	F	1.379764	-0.946529	0.367328
F194	F	1.879764	-0.446529	0.867328
H195	H	1.396272	-0.450986	0.383954
H196	H	1.896272	0.049014	0.883954
F197	F	1.383949	-0.318594	1.233016
F198	F	1.883949	0.181406	1.733016
