data_functionalizedCrystal
_audit_creation_method	'MofGen! by Chris Wilmer'
_symmetry_space_group_name_H-M	'P1'
_symmetry_Int_Tables_number	1
_symmetry_cell_setting	triclinic
loop_
_symmetry_equiv_pos_as_xyz
  x,y,z
_cell_length_a	29.839131
_cell_length_b	13.897449
_cell_length_c	13.897441
_cell_angle_alpha	90.020722
_cell_angle_beta	89.965828
_cell_angle_gamma	89.958747
loop_
_atom_site_label
_atom_site_type_symbol
_atom_site_fract_x
_atom_site_fract_y
_atom_site_fract_z
Zn1	Zn	-0.178845	-1.474523	-0.545405
Zn2	Zn	0.321155	-0.974523	-0.045405
Zn3	Zn	-0.253979	-1.474356	-0.384094
Zn4	Zn	0.246021	-0.974356	0.115906
Zn5	Zn	-0.178864	-1.313218	-0.384118
Zn6	Zn	0.321136	-0.813218	0.115882
Zn7	Zn	-0.253949	-1.313127	-0.545341
Zn8	Zn	0.246051	-0.813127	-0.045341
O9	O	-0.216409	-1.393806	-0.464739
O10	O	0.283591	-0.893806	0.035261
O11	O	-0.188817	-1.609483	-0.524024
O12	O	0.311183	-1.109483	-0.024024
O13	O	-0.244035	-1.452949	-0.249115
O14	O	0.255965	-0.952949	0.250885
O15	O	-0.115994	-1.334724	-0.405550
O16	O	0.384006	-0.834724	0.094450
O17	O	-0.244017	-1.609360	-0.405509
O18	O	0.255983	-1.109360	0.094491
O19	O	-0.115981	-1.453234	-0.524047
O20	O	0.384019	-0.953234	-0.024047
O21	O	-0.188848	-1.334562	-0.249133
O22	O	0.311152	-0.834562	0.250867
O23	O	-0.188819	-1.178225	-0.405487
O24	O	0.311181	-0.678225	0.094513
O25	O	-0.243966	-1.334569	-0.680331
O26	O	0.256034	-0.834569	-0.180331
O27	O	-0.243984	-1.178158	-0.523937
O28	O	0.256016	-0.678158	-0.023937
O29	O	-0.188788	-1.453145	-0.680378
O30	O	0.311212	-0.953145	-0.180378
O31	O	-0.316842	-1.452861	-0.405447
O32	O	0.183158	-0.952861	0.094553
O33	O	-0.316820	-1.334407	-0.523914
O34	O	0.183180	-0.834407	-0.023914
C35	C	-0.216400	-1.143192	-0.464708
C36	C	0.283600	-0.643192	0.035292
C37	C	-0.216407	-1.035978	-0.464718
C38	C	0.283593	-0.535978	0.035282
C39	C	-0.216406	-0.839683	-0.464736
C40	C	0.283594	-0.339683	0.035264
C41	C	-0.216406	-0.948915	-0.464723
C42	C	0.283594	-0.448915	0.035277
C43	C	-0.333132	-1.393632	-0.464692
C44	C	0.166868	-0.893632	0.035308
C45	C	-0.383066	-1.393646	-0.464703
C46	C	0.116934	-0.893646	0.035297
C47	C	-0.692708	-1.455598	-0.403144
C48	C	-0.192708	-0.955598	0.096856
C49	C	-0.880381	-1.455717	-0.403181
C50	C	-0.380381	-0.955717	0.096819
O51	O	-0.904645	-1.508252	-0.350804
O52	O	-0.404645	-1.008252	0.149196
N53	N	-0.903851	-1.394006	-0.464812
N54	N	-0.403851	-0.894006	0.035188
C55	C	-0.880400	-1.332266	-0.526443
C56	C	-0.380400	-0.832266	-0.026443
O57	O	-0.904669	-1.279788	-0.578872
O58	O	-0.404669	-0.779788	-0.078872
C59	C	-0.692728	-1.332153	-0.526409
C60	C	-0.192728	-0.832153	-0.026409
C61	C	-0.669260	-1.393860	-0.464767
C62	C	-0.169260	-0.893860	0.035233
C63	C	-0.669241	-1.517301	-0.341507
C64	C	-0.169241	-1.017301	0.158493
C65	C	-0.622326	-1.517267	-0.341495
C66	C	-0.122326	-1.017267	0.158505
C67	C	-0.598878	-1.455529	-0.403119
C68	C	-0.098878	-0.955529	0.096881
C69	C	-0.622345	-1.393826	-0.464755
C70	C	-0.122345	-0.893826	0.035245
C71	C	-0.669277	-1.270418	-0.588044
C72	C	-0.169277	-0.770418	-0.088044
C73	C	-0.622356	-1.270397	-0.588032
C74	C	-0.122356	-0.770397	-0.088032
C75	C	-0.598889	-1.332105	-0.526390
C76	C	-0.098889	-0.832105	-0.026390
C77	C	-0.551981	-1.332055	-0.526366
C78	C	-0.051981	-0.832055	-0.026366
N79	N	-0.528512	-1.393765	-0.464735
N80	N	-0.028512	-0.893765	0.035265
C81	C	-0.551960	-1.455502	-0.403111
C82	C	-0.051960	-0.955502	0.096889
C83	C	-0.978930	-1.332329	-0.526454
C84	C	-0.478930	-0.832329	-0.026454
C85	C	-1.025848	-1.332356	-0.526462
C86	C	-0.525848	-0.832356	-0.026462
C87	C	-1.025827	-1.455808	-0.403201
C88	C	-0.525827	-0.955808	0.096799
C89	C	-0.978908	-1.455775	-0.403190
C90	C	-0.478908	-0.955775	0.096810
C91	C	-0.955461	-1.394039	-0.464823
C92	C	-0.455461	-0.894039	0.035177
C93	C	-0.453434	-1.455426	-0.403089
C94	C	0.046566	-0.955426	0.096911
C95	C	-0.406514	-1.455383	-0.403080
C96	C	0.093486	-0.955383	0.096920
C97	C	-0.406540	-1.331935	-0.526343
C98	C	0.093460	-0.831935	-0.026343
C99	C	-0.453455	-1.331974	-0.526350
C100	C	0.046545	-0.831974	-0.026350
C101	C	-0.476901	-1.393727	-0.464720
C102	C	0.023099	-0.893727	0.035280
O103	O	-0.527689	-1.279554	-0.578723
O104	O	-0.027689	-0.779554	-0.078723
O105	O	-0.527683	-1.507988	-0.350706
O106	O	-0.027683	-1.007988	0.149294
C107	C	-0.739624	-1.455632	-0.403156
C108	C	-0.239624	-0.955632	0.096844
C109	C	-0.763091	-1.393929	-0.464792
C110	C	-0.263091	-0.893929	0.035208
C111	C	-0.739643	-1.332191	-0.526416
C112	C	-0.239643	-0.832191	-0.026416
C113	C	-0.810009	-1.393955	-0.464800
C114	C	-0.310009	-0.893955	0.035200
C115	C	-0.833457	-1.455693	-0.403176
C116	C	-0.333457	-0.955693	0.096824
C117	C	-0.809987	-1.517403	-0.341545
C118	C	-0.309987	-1.017403	0.158455
C119	C	-0.763072	-1.517369	-0.341532
C120	C	-0.263072	-1.017369	0.158468
C121	C	-0.763113	-1.270481	-0.588047
C122	C	-0.263113	-0.770481	-0.088047
C123	C	-0.810028	-1.270519	-0.588054
C124	C	-0.310028	-0.770519	-0.088054
C125	C	-0.833476	-1.332256	-0.526430
C126	C	-0.333476	-0.832256	-0.026430
C127	C	-0.099231	-1.394007	-0.464809
C128	C	0.400769	-0.894007	0.035191
C129	C	-0.049296	-1.394093	-0.464838
C130	C	0.450704	-0.894093	0.035162
C131	C	-0.216371	-1.393865	-0.716333
C132	C	0.283629	-0.893865	-0.216333
C133	C	-0.216355	-1.393891	-0.823547
C134	C	0.283645	-0.893891	-0.323547
C135	C	-0.216415	-0.645399	-0.464762
C136	C	0.283585	-0.145399	0.035238
C137	C	-0.216411	-0.752613	-0.464748
C138	C	0.283589	-0.252613	0.035252
C139	C	-0.216343	-1.393910	-0.910616
C140	C	0.283657	-0.893910	-0.410616
C141	C	-0.216322	-1.393938	-1.019849
C142	C	0.283678	-0.893938	-0.519849
C143	C	-0.216414	-1.393803	-0.214125
C144	C	0.283586	-0.893803	0.285875
C145	C	-0.216304	-1.393965	-0.106912
C146	C	0.283696	-0.893965	0.393088
H147	H	-0.472518	-1.505713	-0.352906
H148	H	0.027482	-1.005713	0.147094
Br149	Br	-0.374669	-1.539133	-0.319415
Br150	Br	0.125331	-1.039133	0.180585
Br151	Br	-0.590484	-1.601031	-0.257848
Br152	Br	-0.090484	-1.101031	0.242152
H153	H	-0.829087	-1.567669	-0.291366
H154	H	-0.329087	-1.067669	0.208634
Br155	Br	-0.701114	-1.186677	-0.671717
Br156	Br	-0.201114	-0.686677	-0.171717
H157	H	-0.603268	-1.220125	-0.638225
H158	H	-0.103268	-0.720125	-0.138225
H159	H	-0.829131	-1.220261	-0.638249
H160	H	-0.329131	-0.720261	-0.138249
Br161	Br	-0.485305	-1.248204	-0.609984
Br162	Br	0.014695	-0.748204	-0.109984
Br163	Br	-0.731231	-1.601122	-0.257873
Br164	Br	-0.231231	-1.101122	0.242127
H165	H	-0.387441	-1.281666	-0.576514
H166	H	0.112559	-0.781666	-0.076514
Br167	Br	-0.947064	-1.539523	-0.319529
Br168	Br	-0.447064	-1.039523	0.180471
H169	H	-0.744025	-1.220208	-0.638230
H170	H	-0.244025	-0.720208	-0.138230
H171	H	-1.044926	-1.506077	-0.353025
H172	H	-0.544926	-1.006077	0.146975
Br173	Br	-1.057691	-1.248592	-0.610108
Br174	Br	-0.557691	-0.748592	-0.110108
Br175	Br	-0.947116	-1.248535	-0.610108
Br176	Br	-0.447116	-0.748535	-0.110108
H177	H	-0.688328	-1.567580	-0.291326
H178	H	-0.188328	-1.067580	0.208674
