data_functionalizedCrystal
_audit_creation_method	'MofGen! by Chris Wilmer'
_symmetry_space_group_name_H-M	'P1'
_symmetry_Int_Tables_number	1
_symmetry_cell_setting	triclinic
loop_
_symmetry_equiv_pos_as_xyz
  x,y,z
_cell_length_a	17.699104
_cell_length_b	17.699083
_cell_length_c	16.776229
_cell_angle_alpha	89.992455
_cell_angle_beta	89.991971
_cell_angle_gamma	83.287266
loop_
_atom_site_label
_atom_site_type_symbol
_atom_site_fract_x
_atom_site_fract_y
_atom_site_fract_z
O1	O	1.004069	0.095788	-0.066306
O2	O	1.337402	0.429121	0.267027
O3	O	1.670735	0.762455	0.600361
O4	O	0.783692	0.108224	-0.066304
O5	O	1.117026	0.441557	0.267029
O6	O	1.450359	0.774891	0.600363
O7	O	0.900107	-0.008183	-0.066298
O8	O	1.233440	0.325151	0.267035
O9	O	1.566773	0.658484	0.600369
O10	O	0.887654	0.212195	-0.066312
O11	O	1.220988	0.545528	0.267021
O12	O	1.554321	0.878861	0.600355
O13	O	0.900091	-0.008190	0.066278
O14	O	1.233425	0.325143	0.399612
O15	O	1.566758	0.658477	0.732945
O16	O	0.783677	0.108217	0.066272
O17	O	1.117010	0.441550	0.399606
O18	O	1.450344	0.774884	0.732939
O19	O	1.004053	0.095781	0.066271
O20	O	1.337386	0.429114	0.399604
O21	O	1.670720	0.762448	0.732937
Zn22	Zn	0.893863	0.101998	0.087321
Zn23	Zn	1.227196	0.435331	0.420654
Zn24	Zn	1.560529	0.768664	0.753988
Zn25	Zn	0.893883	0.102007	-0.087354
Zn26	Zn	1.227216	0.435340	0.245979
Zn27	Zn	1.560550	0.768674	0.579312
O28	O	0.887639	0.212188	0.066264
O29	O	1.220972	0.545521	0.399598
O30	O	1.554306	0.878854	0.732931
C31	C	0.755488	0.107772	-0.000016
C32	C	1.088821	0.441105	0.333318
C33	C	1.422155	0.774439	0.666651
C34	C	0.671471	0.106427	-0.000015
C35	C	1.004804	0.439761	0.333319
C36	C	1.338137	0.773094	0.666652
C37	C	0.146600	0.167171	-0.000027
C38	C	0.479933	0.500504	0.333306
C39	C	0.813266	0.833838	0.666640
C40	C	0.225543	0.168430	-0.000029
C41	C	0.558877	0.501764	0.333304
C42	C	0.892210	0.835097	0.666637
C43	C	0.274161	0.100095	-0.000025
C44	C	0.607494	0.433428	0.333309
C45	C	0.940828	0.766762	0.666642
C46	C	0.243831	0.030496	-0.000026
C47	C	0.577165	0.363829	0.333307
C48	C	0.910498	0.697163	0.666641
C49	C	0.164889	0.029238	-0.000029
C50	C	0.498222	0.362571	0.333304
C51	C	0.831555	0.695905	0.666637
C52	C	0.562197	0.035569	-0.000014
C53	C	0.895531	0.368903	0.333320
C54	C	1.228864	0.702236	0.666653
C55	C	0.641144	0.036833	-0.000008
C56	C	0.974478	0.370166	0.333325
C57	C	1.307811	0.703500	0.666659
C58	C	0.622852	0.174762	-0.000014
C59	C	0.956185	0.508095	0.333320
C60	C	1.289519	0.841428	0.666653
C61	C	0.543909	0.173503	-0.000017
C62	C	0.877243	0.506837	0.333316
C63	C	1.210576	0.840170	0.666650
C64	C	0.513587	0.103905	-0.000022
C65	C	0.846920	0.437238	0.333311
C66	C	1.180253	0.770572	0.666644
C67	C	0.427987	0.102541	-0.000021
C68	C	0.761320	0.435874	0.333312
C69	C	1.094653	0.769207	0.666645
C70	C	0.359759	0.101459	-0.000020
C71	C	0.693093	0.434792	0.333313
C72	C	1.026426	0.768125	0.666647
C73	C	0.899653	-0.036383	-0.000010
C74	C	1.232986	0.296950	0.333324
C75	C	1.566319	0.630283	0.666657
C76	C	0.898314	-0.120402	-0.000009
C77	C	1.231647	0.212932	0.333324
C78	C	1.564981	0.546265	0.666657
C79	C	0.966647	-0.169017	-0.000009
C80	C	1.299980	0.164316	0.333325
C81	C	1.633314	0.497649	0.666658
C82	C	0.965385	-0.247961	-0.000016
C83	C	1.298718	0.085373	0.333318
C84	C	1.632051	0.418706	0.666651
C85	C	0.895789	-0.278287	-0.000018
C86	C	1.229122	0.055047	0.333316
C87	C	1.562455	0.388380	0.666649
C88	C	0.827451	-0.229665	-0.000021
C89	C	1.160784	0.103669	0.333313
C90	C	1.494118	0.437002	0.666646
C91	C	0.828714	-0.150723	-0.000019
C92	C	1.162047	0.182611	0.333314
C93	C	1.495381	0.515944	0.666647
C94	C	0.822356	-0.548028	-0.000027
C95	C	1.155689	-0.214695	0.333306
C96	C	1.489022	0.118639	0.666640
C97	C	0.821098	-0.626976	-0.000026
C98	C	1.154431	-0.293643	0.333307
C99	C	1.487764	0.039690	0.666641
C100	C	0.959026	-0.645266	-0.000024
C101	C	1.292360	-0.311933	0.333310
C102	C	1.625693	0.021401	0.666643
C103	C	0.960289	-0.566324	-0.000022
C104	C	1.293623	-0.232991	0.333311
C105	C	1.626956	0.100342	0.666644
C106	C	0.891952	-0.517709	-0.000029
C107	C	1.225285	-0.184376	0.333304
C108	C	1.558618	0.148958	0.666637
C109	C	0.893321	-0.432110	-0.000023
C110	C	1.226655	-0.098776	0.333310
C111	C	1.559988	0.234557	0.666643
C112	C	0.894419	-0.363885	-0.000018
C113	C	1.227752	-0.030551	0.333315
C114	C	1.561085	0.302782	0.666649
C115	C	1.032258	0.096233	-0.000020
C116	C	1.365591	0.429566	0.333314
C117	C	1.698924	0.762899	0.666647
C118	C	1.116275	0.097578	-0.000026
C119	C	1.449608	0.430911	0.333308
C120	C	1.782941	0.764244	0.666641
C121	C	0.888093	0.240388	-0.000026
C122	C	1.221426	0.573722	0.333308
C123	C	1.554759	0.907055	0.666641
C124	C	0.889431	0.324406	-0.000031
C125	C	1.222765	0.657740	0.333302
C126	C	1.556098	0.991073	0.666635
N127	N	0.893854	0.101991	0.206532
N128	N	1.227188	0.435324	0.539865
N129	N	1.560521	0.768658	0.873199
N130	N	0.893897	0.102008	-0.206566
N131	N	1.227231	0.435341	0.126768
N132	N	1.560564	0.768675	0.460101
C133	C	0.945418	0.050467	0.248252
C134	C	1.278751	0.383800	0.581585
C135	C	1.612085	0.717134	0.914919
C136	C	0.945422	0.050466	0.331704
C137	C	1.278756	0.383800	0.665037
C138	C	1.612089	0.717133	0.998371
C139	C	0.893866	0.101994	0.373435
C140	C	1.227199	0.435327	0.706768
C141	C	1.560532	0.768660	1.040102
C142	C	0.842296	0.153520	0.331709
C143	C	1.175630	0.486853	0.665043
C144	C	1.508963	0.820187	0.998376
C145	C	0.842289	0.153516	0.248259
C146	C	1.175622	0.486850	0.581592
C147	C	1.508956	0.820183	0.914925
C148	C	0.842324	0.153535	0.668257
C149	C	1.175657	0.486868	1.001590
C150	C	1.508990	0.820202	1.334923
C151	C	0.842336	0.153536	0.751713
C152	C	1.175670	0.486869	1.085046
C153	C	1.509003	0.820203	1.418380
C154	C	0.945457	0.050485	0.751702
C155	C	1.278790	0.383818	1.085035
C156	C	1.612124	0.717152	1.418369
C157	C	0.945450	0.050481	0.668251
C158	C	1.278783	0.383815	1.001585
C159	C	1.612116	0.717148	1.334918
C160	C	0.893878	0.102004	0.626533
C161	C	1.227211	0.435338	0.959866
C162	C	1.560545	0.768671	1.293200
C163	C	0.893873	0.102004	0.536045
C164	C	1.227206	0.435337	0.869378
C165	C	1.560540	0.768670	1.202711
C166	C	0.893874	0.101999	0.463922
C167	C	1.227207	0.435332	0.797255
C168	C	1.560540	0.768666	1.130588
H169	H	0.680728	-0.018817	-0.000006
H170	H	1.014061	0.314516	0.333327
H171	H	1.347395	0.647849	0.666660
Br172	Br	1.058126	-0.313937	-0.000015
Br173	Br	1.391459	0.019396	0.333318
Br174	Br	1.724793	0.352729	0.666651
Br175	Br	0.309811	-0.062246	-0.000024
Br176	Br	0.643145	0.271087	0.333309
Br177	Br	0.976478	0.604421	0.666642
Br178	Br	0.726640	-0.668132	-0.000028
Br179	Br	1.059973	-0.334799	0.333306
Br180	Br	1.393307	-0.001466	0.666639
Br181	Br	0.729612	-0.482060	-0.000042
Br182	Br	1.062945	-0.148727	0.333291
Br183	Br	1.396278	0.184606	0.666625
H184	H	1.016961	-0.541638	-0.000017
H185	H	1.350295	-0.208304	0.333317
H186	H	1.683628	0.125029	0.666650
H187	H	0.140200	-0.027432	-0.000030
H188	H	0.473534	0.305901	0.333303
H189	H	0.806867	0.639234	0.666637
Br190	Br	0.772337	0.223458	0.611643
Br191	Br	1.105671	0.556792	0.944977
Br192	Br	1.439004	0.890125	1.278310
Br193	Br	0.772319	0.223447	0.388341
Br194	Br	1.105652	0.556780	0.721674
Br195	Br	1.438986	0.890113	1.055008
H196	H	0.647550	0.231432	-0.000013
H197	H	0.980883	0.564765	0.333321
H198	H	1.314216	0.898099	0.666654
Br199	Br	0.477932	0.266247	-0.000019
Br200	Br	0.811265	0.599580	0.333315
Br201	Br	1.144599	0.932914	0.666648
Br202	Br	1.061104	-0.127869	0.000005
Br203	Br	1.394437	0.205464	0.333339
Br204	Br	1.727770	0.538798	0.666672
Br205	Br	0.772363	0.223471	0.808348
Br206	Br	1.105696	0.556805	1.141682
Br207	Br	1.439029	0.890138	1.475015
H208	H	1.014670	-0.684858	-0.000022
H209	H	1.348003	-0.351525	0.333312
H210	H	1.681337	-0.018192	0.666645
H211	H	0.800300	0.195471	0.214291
H212	H	1.133633	0.528805	0.547624
H213	H	1.466966	0.862138	0.880958
H214	H	0.770785	-0.254362	-0.000027
H215	H	1.104118	0.078971	0.333306
H216	H	1.437451	0.412304	0.666639
H217	H	0.107020	0.222818	-0.000025
H218	H	0.440353	0.556151	0.333309
H219	H	0.773687	0.889484	0.666642
H220	H	0.773070	-0.111140	-0.000020
H221	H	1.106404	0.222193	0.333313
H222	H	1.439737	0.555527	0.666647
H223	H	0.250230	0.225100	-0.000038
H224	H	0.583563	0.558433	0.333296
H225	H	0.916896	0.891767	0.666629
Br226	Br	1.015425	-0.019446	0.611619
Br227	Br	1.348759	0.313887	0.944952
Br228	Br	1.682092	0.647220	1.278286
Br229	Br	1.015398	-0.019462	0.191626
Br230	Br	1.348731	0.313872	0.524959
Br231	Br	1.682064	0.647205	0.858292
Br232	Br	0.521054	-0.058885	-0.000045
Br233	Br	0.854388	0.274448	0.333289
Br234	Br	1.187721	0.607781	0.666622
Br235	Br	1.015448	-0.019443	0.808323
Br236	Br	1.348781	0.313891	1.141657
Br237	Br	1.682115	0.647224	1.474990
H238	H	0.987409	0.008511	0.365672
H239	H	1.320742	0.341845	0.699005
H240	H	1.654076	0.675178	1.032339
