data_functionalizedCrystal
_audit_creation_method	'MofGen! by Chris Wilmer'
_symmetry_space_group_name_H-M	'P1'
_symmetry_Int_Tables_number	1
_symmetry_cell_setting	triclinic
loop_
_symmetry_equiv_pos_as_xyz
  x,y,z
_cell_length_a	15.944551
_cell_length_b	15.944551
_cell_length_c	15.021413
_cell_angle_alpha	89.996935
_cell_angle_beta	90.002826
_cell_angle_gamma	83.498738
loop_
_atom_site_label
_atom_site_type_symbol
_atom_site_fract_x
_atom_site_fract_y
_atom_site_fract_z
O1	O	-1.114529	-0.108321	-0.073941
O2	O	-0.781196	0.225012	0.259392
O3	O	-0.447862	0.558346	0.592726
O4	O	-0.869979	-0.121677	-0.073964
O5	O	-0.536646	0.211656	0.259370
O6	O	-0.203313	0.544990	0.592703
O7	O	-0.998932	0.007276	-0.073944
O8	O	-0.665599	0.340609	0.259390
O9	O	-0.332265	0.673943	0.592723
O10	O	-0.985576	-0.237274	-0.073961
O11	O	-0.652243	0.096060	0.259372
O12	O	-0.318909	0.429393	0.592706
O13	O	-0.998912	0.007257	0.074121
O14	O	-0.665578	0.340591	0.407454
O15	O	-0.332245	0.673924	0.740787
O16	O	-0.869959	-0.121695	0.074101
O17	O	-0.536625	0.211638	0.407434
O18	O	-0.203292	0.544971	0.740767
O19	O	-1.114508	-0.108339	0.074123
O20	O	-0.781175	0.224994	0.407456
O21	O	-0.447842	0.558327	0.740790
Zn22	Zn	-0.992230	-0.115020	0.097620
Zn23	Zn	-0.658897	0.218313	0.430954
Zn24	Zn	-0.325564	0.551646	0.764287
Zn25	Zn	-0.992257	-0.114996	-0.097461
Zn26	Zn	-0.658924	0.218337	0.235873
Zn27	Zn	-0.325591	0.551671	0.569206
O28	O	-0.985555	-0.237292	0.074103
O29	O	-0.652222	0.096041	0.407437
O30	O	-0.318889	0.429374	0.740770
C31	C	-0.838675	-0.121132	0.000066
C32	C	-0.505342	0.212202	0.333399
C33	C	-0.172008	0.545535	0.666732
C34	C	-0.745429	-0.119470	0.000057
C35	C	-0.412096	0.213864	0.333391
C36	C	-0.078762	0.547197	0.666724
C37	C	-1.145813	-0.108885	0.000092
C38	C	-0.812479	0.224449	0.333425
C39	C	-0.479146	0.557782	0.666758
C40	C	-1.239059	-0.110547	0.000094
C41	C	-0.905725	0.222786	0.333428
C42	C	-0.572392	0.556120	0.666761
C43	C	-0.998367	0.038561	0.000089
C44	C	-0.665034	0.371894	0.333422
C45	C	-0.331701	0.705227	0.666755
C46	C	-0.996705	0.131807	0.000089
C47	C	-0.663372	0.465140	0.333422
C48	C	-0.330038	0.798473	0.666756
C49	C	-0.530572	-0.035565	0.000081
C50	C	-0.197239	0.297768	0.333414
C51	C	0.136094	0.631102	0.666747
C52	C	-0.469562	-0.074518	-0.072926
C53	C	-0.136229	0.258815	0.260408
C54	C	0.197104	0.592148	0.593741
C55	C	-0.574703	-0.116462	0.000068
C56	C	-0.241370	0.216871	0.333402
C57	C	0.091964	0.550204	0.666735
C58	C	-0.469564	-0.074556	0.073054
C59	C	-0.136231	0.258778	0.406387
C60	C	0.197102	0.592111	0.739721
C61	C	-0.409790	-0.113551	0.000083
C62	C	-0.076457	0.219782	0.333416
C63	C	0.256876	0.553115	0.666749
C64	C	-0.514921	-0.155438	-0.072998
C65	C	-0.181588	0.177896	0.260335
C66	C	0.151745	0.511229	0.593668
C67	C	-0.514930	-0.155464	0.073047
C68	C	-0.181596	0.177870	0.406380
C69	C	0.151737	0.511203	0.739714
C70	C	-0.453937	-0.194476	0.000023
C71	C	-0.120604	0.138857	0.333356
C72	C	0.212729	0.472191	0.666690
C73	C	-0.669705	-0.118137	0.000059
C74	C	-0.336372	0.215197	0.333393
C75	C	-0.003039	0.548530	0.666726
C76	C	-0.314789	-0.111883	0.000085
C77	C	0.018544	0.221450	0.333418
C78	C	0.351877	0.554783	0.666752
C79	C	-0.986120	-0.268577	0.000069
C80	C	-0.652787	0.064756	0.333402
C81	C	-0.319453	0.398090	0.666736
C82	C	-0.987782	-0.361823	0.000063
C83	C	-0.654449	-0.028490	0.333396
C84	C	-0.321116	0.304844	0.666730
N85	N	-0.992218	-0.115036	0.230758
N86	N	-0.658885	0.218297	0.564091
N87	N	-0.325551	0.551630	0.897425
C88	C	-0.912801	0.346663	0.000069
C89	C	-0.579467	0.679997	0.333402
C90	C	-0.246134	1.013330	0.666736
C91	C	-0.951753	0.407672	0.073077
C92	C	-0.618420	0.741005	0.406410
C93	C	-0.285086	1.074338	0.739744
C94	C	-0.993698	0.302533	0.000082
C95	C	-0.660365	0.635866	0.333415
C96	C	-0.327031	0.969199	0.666748
C97	C	-0.951792	0.407673	-0.072903
C98	C	-0.618459	0.741006	0.260431
C99	C	-0.285126	1.074340	0.593764
C100	C	-0.990787	0.467445	0.000071
C101	C	-0.657454	0.800779	0.333404
C102	C	-0.324120	1.134112	0.666738
C103	C	-1.032672	0.362313	0.073150
C104	C	-0.699339	0.695646	0.406484
C105	C	-0.366006	1.028979	0.739817
C106	C	-1.032700	0.362308	-0.072895
C107	C	-0.699367	0.695641	0.260438
C108	C	-0.366034	1.028974	0.593772
C109	C	-1.071711	0.423298	0.000131
C110	C	-0.738378	0.756632	0.333464
C111	C	-0.405045	1.089965	0.666798
C112	C	-0.995372	0.207530	0.000089
C113	C	-0.662039	0.540864	0.333422
C114	C	-0.328706	0.874197	0.666755
C115	C	-0.989119	0.562446	0.000070
C116	C	-0.655785	0.895780	0.333404
C117	C	-0.322452	1.229113	0.666737
N118	N	-0.992276	-0.114973	-0.230598
N119	N	-0.658943	0.218360	0.102735
N120	N	-0.325610	0.551693	0.436068
C121	C	-0.932581	-0.174636	0.470432
C122	C	-0.599248	0.158697	0.803765
C123	C	-0.265914	0.492031	1.137099
C124	C	-1.008481	-0.190943	0.529772
C125	C	-0.675148	0.142390	0.863105
C126	C	-0.341815	0.475723	1.196439
C127	C	-0.992239	-0.115015	0.412365
C128	C	-0.658906	0.218318	0.745698
C129	C	-0.325573	0.551651	1.079031
C130	C	-0.916360	-0.098727	0.529766
C131	C	-0.583026	0.234606	0.863100
C132	C	-0.249693	0.567940	1.196433
C133	C	-0.992253	-0.114997	0.587789
C134	C	-0.658920	0.218336	0.921122
C135	C	-0.325587	0.551670	1.254456
C136	C	-1.068178	-0.131360	0.470398
C137	C	-0.734845	0.201973	0.803732
C138	C	-0.401511	0.535307	1.137065
C139	C	-0.976006	-0.039111	0.470387
C140	C	-0.642673	0.294222	0.803721
C141	C	-0.309340	0.627556	1.137054
C142	C	-1.051962	-0.055386	0.529701
C143	C	-0.718628	0.277947	0.863034
C144	C	-0.385295	0.611281	1.196368
C145	C	-0.992230	-0.115028	0.311307
C146	C	-0.658897	0.218305	0.644641
C147	C	-0.325564	0.551639	0.977974
C148	C	-0.992271	-0.114984	0.688844
C149	C	-0.658938	0.218350	1.022177
C150	C	-0.325605	0.551683	1.355511
H151	H	-0.563905	0.031573	-0.000005
H152	H	-0.230572	0.364906	0.333328
H153	H	0.102762	0.698240	0.666662
H154	H	-0.449461	-0.040295	-0.134642
H155	H	-0.116127	0.293039	0.198691
H156	H	0.217206	0.626372	0.532024
H157	H	-0.917574	0.427758	-0.134630
H158	H	-0.584241	0.761091	0.198704
H159	H	-0.250907	1.094424	0.532037
H160	H	-0.882181	-0.225096	0.444409
H161	H	-0.548847	0.108237	0.777742
H162	H	-0.215514	0.441570	1.111075
H163	H	-0.534918	-0.189621	-0.134787
H164	H	-0.201584	0.143713	0.198547
H165	H	0.131749	0.477046	0.531880
H166	H	-1.066851	0.342314	0.134941
H167	H	-0.733518	0.675648	0.468274
H168	H	-0.400184	1.008981	0.801607
H169	H	-1.022224	-0.255126	0.555856
H170	H	-0.688891	0.078208	0.889190
H171	H	-0.355557	0.411541	1.222523
H172	H	-0.420779	-0.261683	-0.000023
H173	H	-0.087445	0.071650	0.333311
H174	H	0.245888	0.404984	0.666644
H175	H	-0.917528	0.427772	0.134794
H176	H	-0.584195	0.761106	0.468127
H177	H	-0.250861	1.094439	0.801460
H178	H	-1.138919	0.456457	0.000178
H179	H	-0.805585	0.789790	0.333512
H180	H	-0.472252	1.123124	0.666845
H181	H	-1.066896	0.342185	-0.134615
H182	H	-0.733562	0.675518	0.198719
H183	H	-0.400229	1.008852	0.532052
H184	H	-0.845652	0.313356	0.000136
H185	H	-0.512319	0.646689	0.333469
H186	H	-0.178986	0.980022	0.666802
H187	H	-1.132368	-0.145206	0.444430
H188	H	-0.799035	0.188128	0.777764
H189	H	-0.465701	0.521461	1.111097
H190	H	-1.102474	-0.004956	0.555561
H191	H	-0.769141	0.328378	0.888894
H192	H	-0.435807	0.661711	1.222228
H193	H	-0.852184	-0.084959	0.555847
H194	H	-0.518850	0.248374	0.889180
H195	H	-0.185517	0.581708	1.222513
H196	H	-0.535052	-0.189659	0.134767
H197	H	-0.201719	0.143674	0.468100
H198	H	0.131614	0.477007	0.801433
H199	H	-0.449470	-0.040332	0.134773
H200	H	-0.116136	0.293001	0.468106
H201	H	0.217197	0.626334	0.801440
H202	H	-0.962240	0.025051	0.444283
H203	H	-0.628907	0.358384	0.777616
H204	H	-0.295573	0.691718	1.110949
