data_functionalizedCrystal
_audit_creation_method	'MofGen! by Chris Wilmer'
_symmetry_space_group_name_H-M	'P1'
_symmetry_Int_Tables_number	1
_symmetry_cell_setting	triclinic
loop_
_symmetry_equiv_pos_as_xyz
  x,y,z
_cell_length_a	14.519731
_cell_length_b	10.540510
_cell_length_c	13.596369
_cell_angle_alpha	89.996501
_cell_angle_beta	89.994584
_cell_angle_gamma	84.101082
loop_
_atom_site_label
_atom_site_type_symbol
_atom_site_fract_x
_atom_site_fract_y
_atom_site_fract_z
O1	O	1.224741	0.166531	-0.081788
O2	O	1.724741	0.666531	0.418212
O3	O	0.956370	0.186098	-0.081789
O4	O	1.456370	0.686098	0.418211
O5	O	1.096693	-0.008456	-0.081788
O6	O	1.596693	0.491544	0.418212
O7	O	1.084418	0.361086	-0.081789
O8	O	1.584418	0.861086	0.418211
O9	O	1.096678	-0.008467	0.081795
O10	O	1.596678	0.491533	0.581795
O11	O	0.956356	0.186088	0.081794
O12	O	1.456356	0.686088	0.581794
O13	O	1.224727	0.166521	0.081795
O14	O	1.724727	0.666521	0.581795
Zn15	Zn	1.090539	0.176303	0.107767
Zn16	Zn	1.590539	0.676303	0.607767
Zn17	Zn	1.090558	0.176316	-0.107761
Zn18	Zn	1.590558	0.676316	0.392239
O19	O	1.084404	0.361075	0.081794
O20	O	1.584404	0.861075	0.581794
C21	C	0.921999	0.185176	0.000002
C22	C	1.421999	0.685176	0.500002
C23	C	0.819604	0.182429	0.000002
C24	C	1.319604	0.682429	0.500002
C25	C	0.736448	0.180197	-0.000002
C26	C	1.236448	0.680197	0.499998
C27	C	0.632125	0.177407	-0.000002
C28	C	1.132125	0.677407	0.499998
C29	C	0.548974	0.175193	-0.000002
C30	C	1.048974	0.675193	0.499998
C31	C	0.444644	0.172404	-0.000005
C32	C	0.944644	0.672404	0.499995
C33	C	1.095771	-0.055756	0.000001
C34	C	1.595771	0.444244	0.500001
C35	C	1.093034	-0.196678	-0.000005
C36	C	1.593034	0.303322	0.499995
C37	C	1.190516	-0.415118	0.000370
C38	C	1.690516	0.084882	0.500370
C39	C	1.193435	-0.268552	-0.000003
C40	C	1.693435	0.231448	0.499997
C41	C	1.041647	-0.240912	-0.093417
C42	C	1.541647	0.259088	0.406583
C43	C	1.039439	-0.387650	-0.093490
C44	C	1.539439	0.112350	0.406510
C45	C	1.037332	-0.387449	0.092535
C46	C	1.537332	0.112551	0.592535
C47	C	1.042094	-0.241156	0.093764
C48	C	1.542094	0.258844	0.593764
C49	C	1.259098	0.167443	0.000001
C50	C	1.759098	0.667443	0.500001
C51	C	1.361493	0.170190	-0.000004
C52	C	1.861493	0.670190	0.499996
C53	C	1.085326	0.408375	0.000002
C54	C	1.585326	0.908375	0.500002
C55	C	1.088063	0.549297	0.000002
C56	C	1.588063	1.049297	0.500002
N57	N	1.090533	0.176293	0.254859
N58	N	1.590533	0.676293	0.754859
N59	N	1.090571	0.176316	-0.254853
N60	N	1.590571	0.676316	0.245147
C61	C	1.090557	0.176318	0.656150
C62	C	1.590557	0.676318	1.156150
C63	C	1.090547	0.176315	0.544498
C64	C	1.590547	0.676315	1.044498
C65	C	1.090545	0.176306	0.455508
C66	C	1.590545	0.676306	0.955508
C67	C	1.090535	0.176301	0.343849
C68	C	1.590535	0.676301	0.843849
H69	H	1.233642	-0.239619	0.066957
H70	H	1.733642	0.260381	0.566957
H71	H	0.964346	-0.409886	-0.097722
H72	H	1.464346	0.090114	0.402278
N73	N	1.088928	-0.200532	-0.185508
N74	N	1.588928	0.299468	0.314492
H75	H	1.087924	-0.104589	-0.186577
H76	H	1.587924	0.395411	0.313423
H77	H	1.155166	-0.240604	-0.186376
H78	H	1.655166	0.259396	0.313624
N79	N	1.091611	-0.203760	0.185308
N80	N	1.591611	0.296240	0.685308
H81	H	1.146811	-0.158194	0.166132
H82	H	1.646811	0.341806	0.666132
H83	H	1.047877	-0.145295	0.226749
H84	H	1.547877	0.354705	0.726749
N85	N	1.079357	-0.444076	0.186329
N86	N	1.579357	0.055924	0.686329
H87	H	1.030553	-0.484120	0.225138
H88	H	1.530553	0.015880	0.725138
H89	H	1.131717	-0.511270	0.169706
H90	H	1.631717	-0.011270	0.669706
N91	N	1.242327	-0.471206	0.089109
N92	N	1.742327	0.028794	0.589109
H93	H	1.199894	-0.520234	0.129933
H94	H	1.699894	-0.020234	0.629933
H95	H	1.297367	-0.530590	0.066750
H96	H	1.797367	-0.030590	0.566750
N97	N	1.242036	-0.473261	-0.087863
N98	N	1.742036	0.026739	0.412137
H99	H	1.210269	-0.439683	-0.150081
H100	H	1.710269	0.060317	0.349919
H101	H	1.307777	-0.449930	-0.086982
H102	H	1.807777	0.050070	0.413018
H103	H	0.967734	-0.192776	-0.096890
H104	H	1.467734	0.307224	0.403110
N105	N	0.944985	-0.175228	0.101224
N106	N	1.444985	0.324772	0.601224
H107	H	0.932580	-0.115324	0.043668
H108	H	1.432580	0.384676	0.543668
H109	H	0.899172	-0.241125	0.100416
H110	H	1.399172	0.258875	0.600416
H111	H	1.074569	-0.428216	-0.163316
H112	H	1.574569	0.071784	0.336684
N113	N	0.937481	-0.415773	0.093376
N114	N	1.437481	0.084227	0.593376
H115	H	0.925126	-0.469307	0.034142
H116	H	1.425126	0.030693	0.534142
H117	H	0.924853	-0.463820	0.155389
H118	H	1.424853	0.036180	0.655389
H119	H	1.233887	-0.240551	-0.067080
H120	H	1.733887	0.259449	0.432920
