data_functionalizedCrystal
_audit_creation_method	'MofGen! by Chris Wilmer'
_symmetry_space_group_name_H-M	'P1'
_symmetry_Int_Tables_number	1
_symmetry_cell_setting	triclinic
loop_
_symmetry_equiv_pos_as_xyz
  x,y,z
_cell_length_a	16.959455
_cell_length_b	12.594516
_cell_length_c	16.959447
_cell_angle_alpha	90.026014
_cell_angle_beta	90.014322
_cell_angle_gamma	90.015119
loop_
_atom_site_label
_atom_site_type_symbol
_atom_site_fract_x
_atom_site_fract_y
_atom_site_fract_z
Zn1	Zn	1.208394	-0.423808	0.446932
Zn2	Zn	1.208321	-0.601815	0.314764
Zn3	Zn	1.076223	-0.423841	0.314770
Zn4	Zn	1.076192	-0.601735	0.446902
O5	O	1.142282	-0.512800	0.380842
O6	O	1.318995	-0.447440	0.429410
O7	O	1.190780	-0.578253	0.204154
O8	O	1.093799	-0.274891	0.332317
O9	O	1.318942	-0.578221	0.332306
O10	O	1.190905	-0.274866	0.429416
O11	O	1.093728	-0.447497	0.204158
O12	O	0.965608	-0.447420	0.332287
O13	O	1.093746	-0.578086	0.557517
O14	O	0.965585	-0.578118	0.429365
O15	O	1.190875	-0.447363	0.557539
O16	O	1.190750	-0.750750	0.332277
O17	O	1.093675	-0.750692	0.429359
C18	C	0.936916	-0.512765	0.380824
C19	C	0.849060	-0.512775	0.380835
C20	C	0.477571	-0.444690	0.330400
C21	C	0.477597	-0.580998	0.431330
C22	C	0.560142	-0.580982	0.431325
C23	C	0.601407	-0.512821	0.380856
C24	C	0.560125	-0.444674	0.330391
C25	C	0.601430	-0.649135	0.481783
C26	C	0.683981	-0.649123	0.481779
C27	C	0.725247	-0.580956	0.431314
C28	C	0.683960	-0.512806	0.380848
C29	C	0.725224	-0.444644	0.330379
C30	C	0.683939	-0.376488	0.279916
C31	C	0.601391	-0.376507	0.279926
C32	C	0.807795	-0.580937	0.431304
C33	C	0.807778	-0.444629	0.330371
C34	C	1.142223	-0.789341	0.380831
C35	C	1.142270	-0.907646	0.380853
C36	C	1.089514	-1.047670	0.433629
C37	C	1.161573	-0.976764	0.453020
C38	C	1.070218	-0.976980	0.361497
C39	C	1.214496	-1.047526	0.400311
C40	C	1.123093	-1.047748	0.308754
C41	C	1.195202	-0.976875	0.328118
C42	C	1.348451	-0.512836	0.380861
C43	C	1.436307	-0.512851	0.380869
C44	C	1.142315	-0.512712	0.587010
C45	C	1.142329	-0.512674	0.674867
C46	C	1.142364	-0.235179	0.380870
C47	C	1.142398	-0.116873	0.380882
C48	C	1.142295	-0.512811	0.175476
C49	C	1.142434	-0.512548	0.087620
C50	C	1.091853	-0.580623	1.046334
C51	C	1.192994	-0.444501	1.046352
C52	C	1.192973	-0.444523	0.963806
C53	C	1.142392	-0.512598	0.922520
C54	C	1.091832	-0.580650	0.963780
C55	C	1.243538	-0.376480	0.922540
C56	C	1.243519	-0.376501	0.839989
C57	C	1.192934	-0.444571	0.798701
C58	C	1.142371	-0.512625	0.839967
C59	C	1.091790	-0.580699	0.798681
C60	C	1.041223	-0.648749	0.839944
C61	C	1.041247	-0.648720	0.922493
C62	C	1.192910	-0.444600	0.716153
C63	C	1.091769	-0.580726	0.716127
H64	H	0.841406	-0.636432	0.472387
H65	H	1.234083	-0.389198	0.682560
H66	H	0.443994	-0.636498	0.472415
H67	H	1.284723	-0.321064	0.956161
C68	C	0.852434	-0.370584	0.275485
C69	C	0.798608	-0.310925	0.231284
C70	C	0.839715	-0.242717	0.180708
H71	H	0.884658	-0.324160	0.305686
H72	H	0.884599	-0.411217	0.240946
H73	H	0.766456	-0.270296	0.265818
H74	H	0.766381	-0.357322	0.201067
H75	H	0.871880	-0.283349	0.146169
H76	H	0.871938	-0.196300	0.210915
H77	H	0.803200	-0.202237	0.150706
C78	C	0.432896	-0.370580	0.275582
C79	C	0.486705	-0.310870	0.231397
C80	C	0.445578	-0.242579	0.180899
H81	H	0.400672	-0.411122	0.241024
H82	H	0.400728	-0.324199	0.305863
H83	H	0.518859	-0.357245	0.201119
H84	H	0.518930	-0.270306	0.265934
H85	H	0.413411	-0.196198	0.211180
H86	H	0.413356	-0.283130	0.146346
H87	H	0.482081	-0.202051	0.150918
H88	H	1.000080	-0.704125	0.956097
H89	H	1.050681	-0.636024	1.079934
C90	C	1.298443	-0.302498	0.795334
C91	C	1.342729	-0.242859	0.849160
C92	C	1.393323	-0.174665	0.808053
H93	H	1.332933	-0.343106	0.763119
H94	H	1.268226	-0.256068	0.763160
H95	H	1.372944	-0.289283	0.881321
H96	H	1.308260	-0.202229	0.881378
H97	H	1.363106	-0.128235	0.775879
H98	H	1.427807	-0.215281	0.775839
H99	H	1.423372	-0.134185	0.844567
H100	H	1.275501	-1.078387	0.416766
H101	H	1.044901	-1.078751	0.478282
C102	C	0.556488	-0.723021	0.536543
C103	C	0.475359	-0.708421	0.525765
C104	C	0.433930	-0.776458	0.576207
H105	H	0.569906	-0.794558	0.524932
H106	H	0.569991	-0.707523	0.589688
H107	H	0.461861	-0.723926	0.472633
H108	H	0.461918	-0.636898	0.537382
H109	H	0.447434	-0.760960	0.629351
H110	H	0.447355	-0.847991	0.564592
H111	H	0.378881	-0.766554	0.568906
H112	H	1.177851	-0.945587	0.514005
H113	H	0.717547	-0.320996	0.238821
H114	H	1.000044	-0.704180	0.806319
C115	C	1.254951	-0.935735	0.268728
C116	C	1.330298	-0.971649	0.289375
C117	C	1.385362	-0.933759	0.234694
H118	H	1.241825	-0.961090	0.217625
H119	H	1.254325	-0.860306	0.268746
H120	H	1.330922	-1.047063	0.289349
H121	H	1.343448	-0.946297	0.340469
H122	H	1.384736	-0.858329	0.234711
H123	H	1.372229	-0.959116	0.183593
H124	H	1.436492	-0.958113	0.248699
H125	H	0.567769	-0.321019	0.238841
C126	C	1.101200	-1.089305	0.227490
C127	C	1.025604	-1.053651	0.207512
C128	C	1.005396	-1.091926	0.132662
H129	H	1.138121	-1.064038	0.189796
H130	H	1.101836	-1.164731	0.227966
H131	H	1.024973	-0.978240	0.207029
H132	H	0.988666	-1.078915	0.245185
H133	H	1.006032	-1.167352	0.133139
H134	H	1.042322	-1.066656	0.094975
H135	H	0.954100	-1.067748	0.119100
H136	H	1.009231	-0.945986	0.345113
H137	H	1.234179	-0.389083	1.079972
C138	C	0.728659	-0.723151	0.536656
C139	C	0.674852	-0.782828	0.580869
C140	C	0.715981	-0.851020	0.631438
H141	H	0.760853	-0.769565	0.506450
H142	H	0.760856	-0.682506	0.571188
H143	H	0.642668	-0.823470	0.546341
H144	H	0.642656	-0.736442	0.611091
H145	H	0.748178	-0.810375	0.665970
H146	H	0.748174	-0.897427	0.601226
H147	H	0.679479	-0.891512	0.661448
C148	C	1.036827	-0.654762	0.671448
C149	C	0.992567	-0.714367	0.725255
C150	C	0.941957	-0.782593	0.684126
H151	H	1.002320	-0.614178	0.639243
H152	H	1.067030	-0.701213	0.639261
H153	H	0.962366	-0.667922	0.757428
H154	H	1.027053	-0.754973	0.757462
H155	H	0.972160	-0.829043	0.651939
H156	H	0.907455	-0.742000	0.651923
H157	H	0.911926	-0.823049	0.720628
