data_functionalizedCrystal
_audit_creation_method	'MofGen! by Chris Wilmer'
_symmetry_space_group_name_H-M	'P1'
_symmetry_Int_Tables_number	1
_symmetry_cell_setting	triclinic
loop_
_symmetry_equiv_pos_as_xyz
  x,y,z
_cell_length_a	16.956995
_cell_length_b	23.532357
_cell_length_c	16.053802
_cell_angle_alpha	92.543277
_cell_angle_beta	87.607939
_cell_angle_gamma	79.441381
loop_
_atom_site_label
_atom_site_type_symbol
_atom_site_fract_x
_atom_site_fract_y
_atom_site_fract_z
O1	O	1.061232	0.021053	-0.069490
O2	O	0.828911	0.041055	-0.069482
O3	O	0.952097	-0.052181	-0.069469
O4	O	0.938046	0.114290	-0.069503
O5	O	0.945317	-0.047069	0.069389
O6	O	0.822131	0.046167	0.069377
O7	O	1.054452	0.026165	0.069368
Zn8	Zn	0.937214	0.036978	0.091419
Zn9	Zn	0.946148	0.030242	-0.091532
O10	O	0.931265	0.119402	0.069356
C11	C	0.795804	0.044635	-0.000051
C12	C	0.707259	0.047680	-0.000047
C13	C	0.948355	-0.070827	-0.000037
C14	C	0.947298	-0.133999	-0.000029
C15	C	0.207774	0.070456	-0.000083
C16	C	0.290973	0.067591	-0.000082
C17	C	0.342499	0.013810	-0.000065
C18	C	0.310825	-0.037110	-0.000057
C19	C	0.227628	-0.034244	-0.000064
C20	C	0.592387	-0.000374	-0.000047
C21	C	0.675589	-0.003236	-0.000037
C22	C	0.655731	0.101465	-0.000064
C23	C	0.572533	0.104326	-0.000066
C24	C	0.540866	0.053407	-0.000063
N25	N	0.427542	0.010880	-0.000061
N26	N	0.455825	0.056337	-0.000073
C27	C	0.944362	-0.528514	-0.075766
C28	C	0.943357	-0.587870	-0.075770
O29	O	0.945954	-0.620933	-0.140143
N30	N	0.939163	-0.614773	-0.000080
C31	C	0.935965	-0.582315	0.075621
O32	O	0.932305	-0.610649	0.140001
C33	C	0.936964	-0.522959	0.075624
C34	C	0.941166	-0.496061	-0.000071
C35	C	0.948563	-0.501614	-0.151455
C36	C	0.949569	-0.442262	-0.151450
C37	C	0.946373	-0.409809	-0.075756
C38	C	0.942172	-0.436709	-0.000066
C39	C	0.933760	-0.490502	0.151324
C40	C	0.934758	-0.431142	0.151321
C41	C	0.938961	-0.404243	0.075626
C42	C	0.939982	-0.344904	0.075633
N43	N	0.944176	-0.318000	-0.000057
C44	C	0.947372	-0.350453	-0.075752
C45	C	0.933867	-0.706967	0.075607
C46	C	0.932874	-0.766323	0.075604
C47	C	0.940264	-0.771873	-0.075788
C48	C	0.941263	-0.712517	-0.075784
C49	C	0.938061	-0.680064	-0.000084
C50	C	0.949484	-0.225809	-0.075735
C51	C	0.950493	-0.166452	-0.075724
C52	C	0.943098	-0.160907	0.075667
C53	C	0.942094	-0.220259	0.075656
C54	C	0.945284	-0.252709	-0.000052
O55	O	0.937385	-0.311804	0.139973
O56	O	0.951021	-0.322111	-0.140121
C57	C	1.087558	0.022585	-0.000064
C58	C	1.176104	0.019540	-0.000073
C59	C	0.935007	0.138047	-0.000078
C60	C	0.936065	0.201220	-0.000091
N61	N	0.931124	0.041574	0.216279
N62	N	0.952245	0.025641	-0.216392
C63	C	0.983558	0.001914	0.259978
C64	C	0.979305	0.005134	0.347385
C65	C	0.922620	0.048017	0.391090
C66	C	0.870180	0.087679	0.347384
C67	C	0.874430	0.084456	0.259980
C68	C	0.904055	0.062080	0.652498
C69	C	0.899810	0.065301	0.739909
C70	C	1.008935	-0.017244	0.739903
C71	C	1.013183	-0.020462	0.652496
C72	C	0.960740	0.019198	0.608798
N73	N	0.918273	0.051311	0.480433
N74	N	0.965084	0.015902	0.519457
H75	H	0.165825	0.114250	-0.000091
N76	N	0.363467	-0.092042	-0.000050
N77	N	0.437748	-0.094595	-0.000044
H78	H	0.474927	-0.133391	-0.000037
H79	H	1.051631	-0.049534	0.775489
H80	H	0.831731	0.116750	0.224400
N81	N	0.931472	-0.397990	0.228648
N82	N	0.872642	-0.394859	0.279325
H83	H	0.870320	-0.371446	0.333937
N84	N	0.560064	-0.052392	-0.000027
N85	N	0.573145	-0.085603	0.058519
H86	H	0.550317	-0.122345	0.058536
N87	N	0.728227	-0.058173	-0.000002
N88	N	0.722718	-0.090746	0.058540
H89	H	0.759895	-0.129543	0.058570
H90	H	1.022001	-0.027160	0.382964
H91	H	1.059341	-0.055380	0.616913
N92	N	0.195288	-0.086259	-0.000060
N93	N	0.241301	-0.134275	-0.000046
H94	H	0.218464	-0.171013	-0.000046
N95	N	0.812284	0.131489	0.392023
N96	N	0.813415	0.183740	0.382239
H97	H	0.772526	0.214683	0.413763
N98	N	0.841895	0.109108	0.784541
N99	N	0.795071	0.144512	0.745517
H100	H	0.754169	0.175448	0.777038
H101	H	0.861355	0.094374	0.616926
H102	H	0.930339	-0.512393	0.212963
H103	H	0.316754	0.109051	-0.000098
N104	N	0.954793	-0.138987	-0.153056
N105	N	0.957645	-0.167974	-0.220633
H106	H	0.960681	-0.148579	-0.275248
N107	N	0.953846	-0.414779	-0.228765
N108	N	0.954737	-0.361784	-0.228766
H109	H	0.957756	-0.342376	-0.283372
N110	N	0.937808	-0.247731	0.152982
N111	N	0.934956	-0.218746	0.220560
H112	H	0.931920	-0.238142	0.275175
N113	N	0.943512	-0.805019	-0.153118
N114	N	0.947254	-0.780998	-0.220699
H115	H	0.949547	-0.804408	-0.275311
H116	H	0.951162	-0.528031	-0.213098
N117	N	0.519913	0.159267	-0.000080
N118	N	0.548201	0.204725	-0.000088
H119	H	0.511038	0.243529	-0.000095
N120	N	1.041428	-0.041898	0.215311
N121	N	1.018740	-0.077863	0.166562
H122	H	1.059601	-0.108809	0.135006
H123	H	0.940500	-0.134474	0.137296
N124	N	0.930598	-0.673828	0.152945
N125	N	0.926853	-0.697862	0.220515
H126	H	0.924542	-0.674460	0.275136
H127	H	0.681524	0.142921	-0.000067
N128	N	0.952758	-0.258943	-0.153076
N129	N	1.011587	-0.262065	-0.203751
H130	H	1.013905	-0.285466	-0.258374
N131	N	0.945567	-0.685044	-0.153104
N132	N	1.004171	-0.701435	-0.203783
H133	H	1.007211	-0.682035	-0.258394
N134	N	0.928598	-0.793789	0.152932
N135	N	0.925750	-0.764800	0.220507
H136	H	0.922728	-0.784195	0.275124
