data_functionalizedCrystal
_audit_creation_method	'MofGen! by Chris Wilmer'
_symmetry_space_group_name_H-M	'P1'
_symmetry_Int_Tables_number	1
_symmetry_cell_setting	triclinic
loop_
_symmetry_equiv_pos_as_xyz
  x,y,z
_cell_length_a	14.971494
_cell_length_b	14.971486
_cell_length_c	14.048226
_cell_angle_alpha	90.012352
_cell_angle_beta	90.000040
_cell_angle_gamma	96.384290
loop_
_atom_site_label
_atom_site_type_symbol
_atom_site_fract_x
_atom_site_fract_y
_atom_site_fract_z
O1	O	1.186934	-0.116606	-0.079149
O2	O	1.686934	0.383394	0.420851
O3	O	0.926535	-0.130557	-0.079153
O4	O	1.426535	0.369443	0.420847
O5	O	1.063714	0.006618	-0.079144
O6	O	1.563714	0.506618	0.420856
O7	O	1.049755	-0.253782	-0.079158
O8	O	1.549755	0.246218	0.420842
O9	O	1.063715	0.006643	0.079177
O10	O	1.563715	0.506643	0.579177
O11	O	0.926536	-0.130533	0.079168
O12	O	1.426536	0.369467	0.579168
O13	O	1.186935	-0.116581	0.079173
O14	O	1.686935	0.383419	0.579173
Zn15	Zn	1.056735	-0.123553	0.104307
Zn16	Zn	1.556735	0.376447	0.604307
Zn17	Zn	1.056734	-0.123586	-0.104288
Zn18	Zn	1.556734	0.376414	0.395712
O19	O	1.049756	-0.253757	0.079163
O20	O	1.549756	0.246243	0.579163
C21	C	0.893211	-0.129920	0.000007
C22	C	1.393211	0.370080	0.500007
C23	C	0.793914	-0.128046	0.000005
C24	C	1.293914	0.371954	0.500005
N25	N	1.056734	-0.123601	-0.246649
N26	N	1.556734	0.376399	0.253351
C27	C	1.063090	0.039955	0.000016
C28	C	1.563090	0.539955	0.500016
C29	C	1.061219	0.139252	0.000015
C30	C	1.561219	0.639252	0.500015
C31	C	1.220259	-0.117219	0.000010
C32	C	1.720259	0.382781	0.500010
C33	C	1.319556	-0.119092	0.000006
C34	C	1.819556	0.380908	0.500006
C35	C	1.747270	-0.127150	0.086307
C36	C	2.247270	0.372850	0.586307
C37	C	1.653971	-0.125384	0.086308
C38	C	2.153971	0.374616	0.586308
C39	C	1.607317	-0.124520	0.000006
C40	C	2.107317	0.375480	0.500006
C41	C	1.653968	-0.125413	-0.086302
C42	C	2.153968	0.374587	0.413698
C43	C	1.747266	-0.127174	-0.086302
C44	C	2.247266	0.372826	0.413698
C45	C	1.459505	-0.121747	-0.086296
C46	C	1.959505	0.378253	0.413704
C47	C	1.366200	-0.119988	-0.086296
C48	C	1.866200	0.380012	0.413704
C49	C	1.366210	-0.119957	0.086315
C50	C	1.866210	0.380043	0.586315
C51	C	1.459508	-0.121717	0.086315
C52	C	1.959508	0.378283	0.586315
C53	C	1.506152	-0.122612	0.000006
C54	C	2.006152	0.377388	0.500006
C55	C	1.050380	-0.287094	0.000001
C56	C	1.550380	0.212906	0.500001
C57	C	1.052250	-0.386391	-0.000004
C58	C	1.552250	0.113609	0.499996
C59	C	1.141808	0.196476	0.000018
C60	C	1.641808	0.696476	0.500018
C61	C	1.140045	0.289775	0.000008
C62	C	1.640045	0.789775	0.500008
C63	C	1.057692	0.325850	0.000003
C64	C	1.557692	0.825850	0.500003
C65	C	0.977097	0.268619	-0.000002
C66	C	1.477097	0.768619	0.499998
C67	C	0.978861	0.175322	0.000001
C68	C	1.478861	0.675322	0.500001
C69	C	0.973426	0.463082	-0.000006
C70	C	1.473426	0.963082	0.499994
C71	C	0.971662	0.556386	-0.000007
C72	C	1.471662	1.056386	0.499993
C73	C	1.134610	0.577535	0.000002
C74	C	1.634610	1.077535	0.500002
C75	C	1.136374	0.484238	0.000004
C76	C	1.636374	0.984238	0.500004
C77	C	1.055779	0.427014	0.000001
C78	C	1.555779	0.927014	0.500001
C79	C	1.117598	-0.062918	-0.703484
C80	C	1.617598	0.437082	-0.203484
C81	C	1.117594	-0.062928	-0.603826
C82	C	1.617594	0.437072	-0.103826
C83	C	1.056737	-0.123555	-0.554019
C84	C	1.556737	0.376445	-0.054019
C85	C	0.995875	-0.184169	-0.603874
C86	C	1.495875	0.315831	-0.103874
C87	C	0.995876	-0.184155	-0.703529
C88	C	1.495876	0.315845	-0.203529
C89	C	0.995879	-0.184197	-0.396159
C90	C	1.495879	0.315803	0.103841
C91	C	0.995879	-0.184213	-0.296497
C92	C	1.495879	0.315787	0.203503
C93	C	1.117597	-0.062971	-0.296456
C94	C	1.617597	0.437029	0.203544
C95	C	1.117597	-0.062956	-0.396112
C96	C	1.617597	0.437044	0.103888
C97	C	1.056736	-0.123572	-0.445960
C98	C	1.556736	0.376428	0.054040
N99	N	1.056743	-0.123530	0.246668
N100	N	1.556743	0.376470	0.746668
H101	H	1.785248	-0.127861	0.156584
H102	H	2.285248	0.372139	0.656584
H103	H	1.785242	-0.127905	-0.156578
H104	H	2.285242	0.372095	0.343422
C105	C	1.450152	-0.121505	0.256935
C106	C	1.950152	0.378495	0.756935
C107	C	1.510793	-0.122667	0.181178
C108	C	2.010793	0.377333	0.681178
H109	H	1.481816	-0.122084	0.315499
H110	H	1.981816	0.377916	0.815499
H111	H	1.407001	-0.172936	0.253349
H112	H	1.907001	0.327064	0.753349
H113	H	1.420525	-0.068696	0.253341
H114	H	1.920525	0.431304	0.753341
H115	H	1.540415	-0.175479	0.184768
H116	H	2.040415	0.324521	0.684768
H117	H	1.553960	-0.071231	0.184766
H118	H	2.053960	0.428769	0.684766
C119	C	0.874161	-0.203124	-0.815601
C120	C	1.374161	0.296876	-0.315601
C121	C	0.928982	-0.250783	-0.758325
C122	C	1.428982	0.249217	-0.258325
H123	H	0.832858	-0.244258	-0.849423
H124	H	1.332858	0.255742	-0.349423
H125	H	0.910404	-0.167023	-0.859521
H126	H	1.410404	0.332977	-0.359521
H127	H	0.842030	-0.165778	-0.776697
H128	H	1.342030	0.334222	-0.276697
H129	H	0.961118	-0.288124	-0.797230
H130	H	1.461118	0.211876	-0.297230
H131	H	0.892734	-0.286898	-0.714400
H132	H	1.392734	0.213102	-0.214400
H133	H	1.616000	-0.124639	0.156584
H134	H	2.116000	0.375361	0.656584
H135	H	1.167146	-0.013573	-0.563240
H136	H	1.667146	0.486427	-0.063240
H137	H	1.167156	-0.013594	-0.436665
H138	H	1.667156	0.486406	0.063335
H139	H	1.167151	-0.013615	-0.255864
H140	H	1.667151	0.486385	0.244136
C141	C	0.976352	-0.305925	-0.184479
C142	C	1.476352	0.194075	0.315521
C143	C	0.928976	-0.250852	-0.241753
C144	C	1.428976	0.249148	0.258247
H145	H	0.935045	-0.347068	-0.150690
H146	H	1.435045	0.152932	0.349310
H147	H	1.012590	-0.269834	-0.140530
H148	H	1.512590	0.230166	0.359470
H149	H	1.013540	-0.338234	-0.223380
H150	H	1.513540	0.161766	0.276620
H151	H	0.891793	-0.218537	-0.202851
H152	H	1.391793	0.281463	0.297149
H153	H	0.892723	-0.286947	-0.285707
H154	H	1.392723	0.213053	0.214293
C155	C	1.574389	-0.046916	-0.186450
C156	C	2.074389	0.453084	0.313550
C157	C	1.510774	-0.122733	-0.181170
C158	C	2.010774	0.377267	0.318830
H159	H	1.606034	-0.047527	-0.245024
H160	H	2.106034	0.452473	0.254976
H161	H	1.615523	-0.047686	-0.135061
H162	H	2.115523	0.452314	0.364939
H163	H	1.544748	0.005886	-0.182863
H164	H	2.044748	0.505886	0.317137
H165	H	1.540416	-0.175535	-0.184750
H166	H	2.040416	0.324465	0.315250
H167	H	1.469634	-0.121971	-0.232574
H168	H	1.969634	0.378029	0.267426
H169	H	0.946316	-0.233554	-0.436742
H170	H	1.446316	0.266446	0.063258
H171	H	1.200234	0.624132	0.000001
H172	H	1.700234	1.124132	0.500001
C173	C	0.875135	0.649046	0.081369
C174	C	1.375135	1.149046	0.581369
C175	C	0.881136	0.596036	-0.000018
C176	C	1.381136	1.096036	0.499982
H177	H	0.819244	0.673517	0.081362
H178	H	1.319244	1.173517	0.581362
H179	H	0.922873	0.696476	0.081370
H180	H	1.422873	1.196476	0.581370
H181	H	0.879205	0.613090	0.136573
H182	H	1.379205	1.113090	0.636573
H183	H	0.877073	0.631994	-0.055222
H184	H	1.377073	1.131994	0.444778
H185	H	0.833385	0.548599	-0.000027
H186	H	1.333385	1.048599	0.499973
H187	H	1.205669	0.336363	0.000012
H188	H	1.705669	0.836363	0.500012
H189	H	1.328216	-0.119286	-0.156571
H190	H	1.828216	0.380714	0.343429
H191	H	1.203433	0.454869	0.000015
H192	H	1.703433	0.954869	0.500015
C193	C	1.223204	-0.117210	0.162969
C194	C	1.723204	0.382790	0.662969
C195	C	1.314945	-0.118952	0.181189
C196	C	1.814945	0.381048	0.681189
H197	H	1.191555	-0.116583	0.221538
H198	H	1.691555	0.383417	0.721538
H199	H	1.201145	-0.169047	0.127522
H200	H	1.701145	0.330953	0.627522
H201	H	1.214694	-0.064807	0.127500
H202	H	1.714694	0.435193	0.627500
H203	H	1.323455	-0.171358	0.216651
H204	H	1.823455	0.328642	0.716651
H205	H	1.337011	-0.067110	0.216650
H206	H	1.837011	0.432890	0.716650
C207	C	0.812177	0.451543	-0.000006
C208	C	1.312177	0.951543	0.499994
C209	C	0.884834	0.400179	-0.000008
C210	C	1.384834	0.900179	0.499992
H211	H	0.757487	0.412707	0.000001
H212	H	1.257487	0.912707	0.500001
H213	H	0.814876	0.488357	-0.055214
H214	H	1.314876	0.988357	0.444786
H215	H	0.814886	0.488388	0.055206
H216	H	1.314886	0.988388	0.555206
H217	H	0.882129	0.363339	-0.055224
H218	H	1.382129	0.863339	0.444776
H219	H	0.882134	0.363349	0.055206
H220	H	1.382134	0.863349	0.555206
H221	H	0.910044	0.297998	-0.000012
H222	H	1.410044	0.797998	0.499988
H223	H	0.913237	0.128731	-0.000001
H224	H	1.413237	0.628731	0.499999
H225	H	1.615975	-0.124704	-0.156571
H226	H	2.115975	0.375296	0.343429
C227	C	0.874167	-0.203168	-0.491798
C228	C	1.374167	0.296832	0.008202
C229	C	0.928981	-0.250810	-0.549122
C230	C	1.428981	0.249190	-0.049122
H231	H	0.832874	-0.244313	-0.457994
H232	H	1.332874	0.255687	0.042006
H233	H	0.842032	-0.165818	-0.530659
H234	H	1.342032	0.334182	-0.030659
H235	H	0.910422	-0.167074	-0.447853
H236	H	1.410422	0.332926	0.052147
H237	H	0.892725	-0.286899	-0.593073
H238	H	1.392725	0.213101	-0.093073
H239	H	0.961118	-0.288176	-0.510258
H240	H	1.461118	0.211824	-0.010258
H241	H	1.208869	0.167111	0.000027
H242	H	1.708869	0.667111	0.500027
H243	H	1.167158	-0.013553	-0.744031
H244	H	1.667158	0.486447	-0.244031
