data_functionalizedCrystal
_audit_creation_method	'MofGen! by Chris Wilmer'
_symmetry_space_group_name_H-M	'P1'
_symmetry_Int_Tables_number	1
_symmetry_cell_setting	triclinic
loop_
_symmetry_equiv_pos_as_xyz
  x,y,z
_cell_length_a	9.065215
_cell_length_b	12.503572
_cell_length_c	9.065218
_cell_angle_alpha	86.422702
_cell_angle_beta	94.984675
_cell_angle_gamma	86.430164
loop_
_atom_site_label
_atom_site_type_symbol
_atom_site_fract_x
_atom_site_fract_y
_atom_site_fract_z
O1	O	-1.968797	0.089298	0.207917
O2	O	-1.468797	0.589298	0.707917
O3	O	-1.539512	0.089304	0.225667
O4	O	-1.039512	0.589304	0.725667
O5	O	-1.763027	0.089299	0.002150
O6	O	-1.263027	0.589299	0.502150
O7	O	-1.745281	0.089303	0.431434
O8	O	-1.245281	0.589303	0.931434
O9	O	-1.746218	-0.089343	0.018988
O10	O	-1.246218	0.410657	0.518988
O11	O	-1.522702	-0.089338	0.242505
O12	O	-1.022702	0.410662	0.742505
O13	O	-1.951987	-0.089343	0.224755
O14	O	-1.451987	0.410657	0.724755
Cu15	Cu	-1.735810	-0.105652	0.235168
Cu16	Cu	-1.235810	0.394348	0.735168
Cu17	Cu	-1.755689	0.105612	0.215255
Cu18	Cu	-1.255689	0.605612	0.715255
O19	O	-1.728472	-0.089338	0.448272
O20	O	-1.228472	0.410662	0.948272
C21	C	-1.476120	-0.000016	0.232381
C22	C	-0.976120	0.499984	0.732381
C23	C	-1.312278	-0.000014	0.227283
C24	C	-0.812278	0.499986	0.727283
N25	N	-1.721839	-0.254244	0.249173
N26	N	-1.221839	0.245756	0.749173
C27	C	-1.701287	-0.473359	0.269787
C28	C	-1.201287	0.026641	0.769787
C29	C	-1.790219	-0.526688	0.180629
C30	C	-1.290219	-0.026688	0.680629
C31	C	-1.778783	-0.648611	0.192099
C32	C	-1.278783	-0.148611	0.692099
C33	C	-1.712721	-0.351425	0.258319
C34	C	-1.212721	0.148575	0.758319
C35	C	-1.015379	-0.000020	0.218041
C36	C	-0.515379	0.499980	0.718041
C37	C	-1.179223	-0.000013	0.223138
C38	C	-0.679223	0.499987	0.723138
C39	C	-1.752917	-0.000020	-0.044418
C40	C	-1.252917	0.499980	0.455582
C41	C	-1.747818	-0.000015	-0.208261
C42	C	-1.247818	0.499985	0.291739
N43	N	-1.769672	0.254204	0.201238
N44	N	-1.269672	0.754204	0.701238
C45	C	-1.738582	-0.000017	0.494840
C46	C	-1.238582	0.499983	0.994840
C47	C	-1.743682	-0.000015	0.658683
C48	C	-1.243682	0.499985	1.158683
H49	H	-1.874944	-0.480777	0.095685
H50	H	-1.374944	0.019223	0.595685
O51	O	-1.589089	-0.534167	0.382323
O52	O	-1.089089	-0.034167	0.882323
H53	H	-1.525701	-0.476296	0.445876
H54	H	-1.025701	0.023704	0.945876
