data_functionalizedCrystal
_audit_creation_method	'MofGen! by Chris Wilmer'
_symmetry_space_group_name_H-M	'P1'
_symmetry_Int_Tables_number	1
_symmetry_cell_setting	triclinic
loop_
_symmetry_equiv_pos_as_xyz
  x,y,z
_cell_length_a	16.109301
_cell_length_b	8.559649
_cell_length_c	14.586319
_cell_angle_alpha	89.997976
_cell_angle_beta	89.999213
_cell_angle_gamma	76.620073
loop_
_atom_site_label
_atom_site_type_symbol
_atom_site_fract_x
_atom_site_fract_y
_atom_site_fract_z
O1	O	1.090046	0.205389	-0.076179
O2	O	0.846355	0.230950	-0.076193
O3	O	0.989670	-0.014444	-0.076183
O4	O	0.946731	0.450783	-0.076188
O5	O	0.989661	-0.014447	0.076297
O6	O	0.846347	0.230946	0.076288
O7	O	1.090037	0.205386	0.076302
Cu8	Cu	0.968191	0.218165	0.090218
Cu9	Cu	0.968201	0.218170	-0.090108
O10	O	0.946722	0.450779	0.076293
C11	C	0.815442	0.229912	0.000046
C12	C	0.723344	0.226808	0.000040
C13	C	0.492255	0.365202	0.000050
C14	C	0.405721	0.362273	0.000056
C15	C	0.444145	0.071122	0.000054
C16	C	0.530677	0.074053	0.000055
C17	C	0.554729	0.221098	0.000048
C18	C	0.381663	0.215238	0.000053
C19	C	0.287840	0.212061	0.000060
C20	C	0.648558	0.224275	0.000043
C21	C	0.992919	-0.073977	0.000055
C22	C	1.002605	-0.251362	0.000051
C23	C	1.120950	0.206423	0.000062
C24	C	1.213048	0.209527	0.000061
C25	C	0.943473	0.510312	0.000052
C26	C	0.933787	0.687697	0.000051
N27	N	0.968190	0.218161	0.217050
N28	N	0.968210	0.218161	-0.216940
C29	C	1.031666	0.109538	0.452060
C30	C	1.031669	0.109534	0.548041
C31	C	0.904727	0.326790	0.548043
C32	C	0.904722	0.326785	0.452063
C33	C	0.968196	0.218161	0.404074
C34	C	0.968204	0.218162	0.596035
C35	C	0.968206	0.218158	0.700102
C36	C	0.968193	0.218162	0.300001
H37	H	0.354857	0.479618	0.000059
H38	H	0.424550	-0.048597	0.000066
H39	H	1.083349	0.021087	0.412990
O40	O	1.081806	-0.350784	0.000098
C41	C	1.143844	-0.258511	0.000071
H42	H	1.114869	-0.134071	0.028932
H43	H	1.200271	-0.320127	0.044344
H44	H	1.166556	-0.246720	-0.073082
O45	O	0.854609	-0.212824	-0.000081
C46	C	0.809995	-0.241801	-0.079066
H47	H	0.838409	-0.368274	-0.105387
H48	H	0.739888	-0.229872	-0.061311
H49	H	0.815611	-0.150689	-0.134368
O50	O	0.843107	0.432161	0.405302
C51	C	0.856727	0.408886	0.310298
H52	H	0.895908	0.281857	0.297195
H53	H	0.792635	0.426632	0.273821
H54	H	0.892650	0.499345	0.283055
H55	H	0.511835	0.484935	0.000051
O56	O	1.093409	0.003960	0.594512
C57	C	1.149414	-0.091937	0.531571
H58	H	1.146165	-0.026420	0.463152
H59	H	1.217363	-0.116277	0.559298
H60	H	1.130003	-0.210658	0.521366
H61	H	0.853049	0.415232	0.587125
H62	H	0.581547	-0.043302	0.000056
