data_functionalizedCrystal
_audit_creation_method	'MofGen! by Chris Wilmer'
_symmetry_space_group_name_H-M	'P1'
_symmetry_Int_Tables_number	1
_symmetry_cell_setting	triclinic
loop_
_symmetry_equiv_pos_as_xyz
  x,y,z
_cell_length_a	14.971506
_cell_length_b	10.654551
_cell_length_c	14.048226
_cell_angle_alpha	89.996418
_cell_angle_beta	89.993237
_cell_angle_gamma	84.053875
loop_
_atom_site_label
_atom_site_type_symbol
_atom_site_fract_x
_atom_site_fract_y
_atom_site_fract_z
O1	O	1.187828	0.163780	-0.079161
O2	O	0.927536	0.183352	-0.079161
O3	O	1.063666	-0.009237	-0.079162
O4	O	1.051698	0.356369	-0.079161
O5	O	1.063649	-0.009248	0.079160
O6	O	0.927520	0.183340	0.079160
O7	O	1.187811	0.163768	0.079160
Zn8	Zn	1.057663	0.173553	0.104297
Zn9	Zn	1.057685	0.173568	-0.104298
O10	O	1.051681	0.356357	0.079161
C11	C	0.894199	0.182466	-0.000000
C12	C	0.794888	0.179830	-0.000000
C13	C	1.062779	-0.056031	-0.000003
C14	C	1.060149	-0.195446	-0.000009
C15	C	0.357167	0.282910	-0.000010
C16	C	0.450481	0.285378	-0.000014
C17	C	0.507085	0.172224	-0.000010
C18	C	0.470371	0.056596	-0.000012
C19	C	0.377059	0.054130	-0.000014
C20	C	0.664862	0.061744	-0.000004
C21	C	0.758180	0.064210	0.000001
C22	C	0.738284	0.292992	-0.000003
C23	C	0.644972	0.290526	-0.000006
C24	C	0.608264	0.174897	-0.000006
C25	C	1.058924	-0.260939	-0.086309
C26	C	1.056446	-0.391933	-0.086304
C27	C	1.056420	-0.391931	0.086306
C28	C	1.058893	-0.260938	0.086301
C29	C	1.058943	-0.260942	-0.185964
C30	C	1.056464	-0.391936	-0.185960
C31	C	1.221148	0.164654	-0.000003
C32	C	1.320459	0.167291	-0.000009
C33	C	1.052569	0.403151	0.000000
C34	C	1.055198	0.542567	0.000000
N35	N	1.057654	0.173542	0.246658
N36	N	1.057700	0.173569	-0.246659
C37	C	1.117952	0.088299	0.296476
C38	C	1.117958	0.088298	0.396133
C39	C	1.057670	0.173547	0.445971
C40	C	0.997366	0.258794	0.396147
C41	C	0.997356	0.258788	0.296491
C42	C	0.997392	0.258803	0.603861
C43	C	0.997402	0.258812	0.703524
C44	C	1.117993	0.088313	0.703503
C45	C	1.117984	0.088307	0.603847
C46	C	1.057681	0.173556	0.554030
H47	H	0.311086	0.375053	-0.000006
H48	H	0.347173	-0.040019	-0.000015
F49	F	1.182132	-0.002428	0.449153
H50	H	1.167079	0.018897	0.563270
H51	H	0.480363	0.379526	-0.000024
H52	H	1.059885	-0.207618	0.156574
H53	H	1.055396	-0.445270	0.156577
F54	F	0.978160	-0.199582	-0.235982
H55	H	0.598887	0.382665	-0.000003
F56	F	1.144212	-0.223193	-0.226383
H57	H	0.991233	-0.420808	-0.216891
H58	H	1.118280	-0.438881	-0.224223
H59	H	0.634978	-0.032413	-0.000008
F60	F	1.182124	-0.002431	0.243444
F61	F	1.182173	-0.002413	0.756527
H62	H	0.516465	-0.035535	-0.000014
F63	F	0.933234	0.349544	0.756558
F64	F	0.933207	0.349533	0.550845
F65	F	0.933198	0.349519	0.449189
F66	F	0.933177	0.349512	0.243472
F67	F	0.818421	-0.056220	-0.000001
F68	F	0.777351	0.416054	0.000004
