data_functionalizedCrystal
_audit_creation_method	'MofGen! by Chris Wilmer'
_symmetry_space_group_name_H-M	'P1'
_symmetry_Int_Tables_number	1
_symmetry_cell_setting	triclinic
loop_
_symmetry_equiv_pos_as_xyz
  x,y,z
_cell_length_a	6.817900
_cell_length_b	7.190334
_cell_length_c	19.453103
_cell_angle_alpha	91.599339
_cell_angle_beta	78.290822
_cell_angle_gamma	60.611776
loop_
_atom_site_label
_atom_site_type_symbol
_atom_site_fract_x
_atom_site_fract_y
_atom_site_fract_z
V1	V	-4.214586	0.665981	0.096059
O2	O	-4.207232	0.652283	-0.005769
O3	O	-4.156443	0.662407	0.191578
O4	O	-4.251923	0.955990	0.094076
O5	O	-4.111091	0.356667	0.092408
V6	V	-4.688367	0.628865	0.083939
O7	O	-4.497215	0.747397	0.122646
O8	O	-4.855936	0.547449	0.057353
O9	O	-4.523303	0.632439	-0.011580
O10	O	-4.813118	0.642563	0.185767
O11	O	-4.909259	0.938178	0.087590
O12	O	-4.427823	0.338856	0.085923
C13	C	-3.996300	0.652154	0.214879
C14	C	-4.030620	0.651165	0.292964
C15	C	-4.118105	1.026646	0.090502
C16	C	-4.231951	1.268192	0.089493
C17	C	-4.346787	0.642686	-0.034877
C18	C	-4.291709	0.643689	-0.112961
C19	C	-4.231670	0.661366	0.333202
C20	C	-4.263928	0.660458	0.406572
C21	C	-4.095103	0.649307	0.439699
C22	C	-3.894030	0.639117	0.399452
C23	C	-3.861789	0.640046	0.326084
N24	N	-3.947478	0.517871	0.546185
N25	N	-3.978117	0.516985	0.615881
C26	C	-4.192236	0.646511	0.660751
N27	N	-4.374578	0.776932	0.633291
N28	N	-4.343937	0.777809	0.563588
C29	C	-4.130044	0.648299	0.519253
C30	C	-4.428279	0.655731	0.780545
C31	C	-4.460537	0.654837	0.853917
C32	C	-4.090622	0.633473	0.846794
C33	C	-4.058381	0.634390	0.773425
C34	C	-4.227212	0.645509	0.740305
H35	H	-4.369156	0.670434	0.306241
O36	O	-4.592017	0.666169	0.748314
C37	C	-4.678021	0.493934	0.660361
C38	C	-4.492381	0.481819	0.696815
H39	H	-4.597523	0.344930	0.618706
H40	H	-4.827280	0.500956	0.701688
H41	H	-4.746669	0.644994	0.633667
H42	H	-4.423547	0.330773	0.723506
H43	H	-4.343258	0.474916	0.655457
H44	H	-4.624267	0.663158	0.886679
H45	H	-4.427653	0.668764	0.439341
H46	H	-3.953167	0.624407	0.873766
O47	O	-3.666697	0.630501	0.286980
C48	C	-3.507825	0.804787	0.209189
C49	C	-3.728955	0.815906	0.253461
H50	H	-3.558084	0.954645	0.182065
H51	H	-3.392667	0.796800	0.245437
H52	H	-3.409008	0.654580	0.167246
H53	H	-3.827959	0.966099	0.295407
H54	H	-3.843944	0.823776	0.217167
H55	H	-3.894659	0.626070	0.740662
O56	O	-3.729906	0.627898	0.431641
C57	C	-3.459514	0.428783	0.501157
C58	C	-3.645305	0.441186	0.464721
H59	H	-3.391095	0.277863	0.527924
H60	H	-3.310133	0.421507	0.459814
H61	H	-3.539902	0.577912	0.542750
H62	H	-3.565128	0.292094	0.423132
H63	H	-3.794661	0.448569	0.506105
