data_functionalizedCrystal
_audit_creation_method	'MofGen! by Chris Wilmer'
_symmetry_space_group_name_H-M	'P1'
_symmetry_Int_Tables_number	1
_symmetry_cell_setting	triclinic
loop_
_symmetry_equiv_pos_as_xyz
  x,y,z
_cell_length_a	12.759401
_cell_length_b	25.639240
_cell_length_c	12.759393
_cell_angle_alpha	90.043160
_cell_angle_beta	90.020938
_cell_angle_gamma	90.034283
loop_
_atom_site_label
_atom_site_type_symbol
_atom_site_fract_x
_atom_site_fract_y
_atom_site_fract_z
Zn1	Zn	1.606135	-0.208104	0.593928
Zn2	Zn	1.605970	-0.295549	0.418209
Zn3	Zn	1.430433	-0.208132	0.418263
Zn4	Zn	1.430370	-0.295513	0.593846
O5	O	1.518227	-0.251825	0.506061
O6	O	1.753134	-0.219708	0.570630
O7	O	1.582643	-0.283980	0.271195
O8	O	1.453836	-0.134963	0.441622
O9	O	1.753013	-0.283953	0.441530
O10	O	1.582923	-0.134943	0.570682
O11	O	1.453676	-0.219755	0.271235
O12	O	1.283404	-0.219720	0.441543
O13	O	1.453728	-0.283891	0.740878
O14	O	1.283357	-0.283918	0.570543
O15	O	1.582861	-0.219672	0.740938
O16	O	1.582581	-0.368710	0.441451
O17	O	1.453568	-0.368683	0.570491
C18	C	1.245260	-0.251818	0.506041
C19	C	1.128483	-0.251828	0.506057
C20	C	1.073624	-0.285307	0.573121
C21	C	0.963900	-0.285309	0.573142
C22	C	0.963903	-0.218352	0.439024
C23	C	1.073625	-0.218347	0.439010
C24	C	1.518078	-0.387667	0.505979
C25	C	1.518111	-0.445781	0.505979
C26	C	1.585476	-0.806095	0.573384
C27	C	1.585507	-0.860699	0.573406
O28	O	1.642606	-0.888894	0.630631
N29	N	1.518373	-0.888064	0.506163
C30	C	1.451196	-0.860821	0.438902
O31	O	1.394095	-0.889110	0.381710
C32	C	1.451160	-0.806217	0.438887
C33	C	1.518306	-0.778856	0.506126
C34	C	1.652616	-0.778734	0.640619
C35	C	1.652586	-0.724133	0.640596
C36	C	1.585416	-0.696894	0.573338
C37	C	1.518276	-0.724255	0.506103
C38	C	1.383979	-0.778975	0.371632
C39	C	1.383948	-0.724368	0.371623
C40	C	1.451094	-0.697007	0.438863
C41	C	1.451077	-0.642416	0.438822
N42	N	1.518211	-0.615052	0.506065
C43	C	1.585381	-0.642291	0.573323
C44	C	1.451274	-0.975491	0.438941
C45	C	1.451314	-1.030094	0.438950
C46	C	1.585624	-1.029969	0.573455
C47	C	1.585589	-0.975365	0.573440
C48	C	1.518408	-0.948127	0.506183
C49	C	1.585314	-0.527626	0.573269
C50	C	1.585281	-0.473020	0.573237
C51	C	1.450967	-0.473150	0.438736
C52	C	1.451003	-0.527751	0.438764
C53	C	1.518180	-0.554987	0.506039
O54	O	1.394004	-0.614186	0.381629
O55	O	1.642462	-0.613995	0.630516
C56	C	1.792260	-0.251831	0.506083
C57	C	1.909037	-0.251834	0.506092
C58	C	1.518306	-0.251774	0.780095
C59	C	1.518339	-0.251753	0.896872
C60	C	1.518405	-0.115452	0.506167
C61	C	1.518480	-0.057337	0.506212
C62	C	1.518209	-0.251837	0.233094
C63	C	1.518379	-0.251711	0.116318
C64	C	1.585584	-0.218309	0.951766
C65	C	1.585602	-0.218286	1.061491
C66	C	1.451127	-0.285156	1.061415
C67	C	1.451105	-0.285176	0.951693
H68	H	1.640008	-0.549795	0.628058
O69	O	1.386167	-0.948977	0.373540
C70	C	1.372067	-0.887432	0.231604
C71	C	1.445918	-0.917413	0.305617
H72	H	1.420347	-0.861914	0.176655
H73	H	1.317098	-0.861836	0.279716
H74	H	1.324074	-0.916384	0.183600
H75	H	1.493979	-0.888499	0.353637
H76	H	1.500817	-0.943017	0.257445
H77	H	1.396281	-0.450964	0.383972
O78	O	1.126867	-0.317769	0.638406
C79	C	1.160449	-0.343271	0.817014
C80	C	1.100110	-0.306468	0.743195
H81	H	1.138821	-0.334155	0.901750
H82	H	1.248307	-0.337517	0.805577
H83	H	1.138834	-0.385417	0.798352
H84	H	1.121637	-0.264308	0.761812
H85	H	1.012266	-0.312268	0.754645
O86	O	1.650847	-0.185887	0.898349
C87	C	1.710356	-0.156250	0.729352
C88	C	1.636414	-0.193007	0.789711
H89	H	1.698697	-0.161986	0.641508
H90	H	1.795090	-0.165427	0.750852
H91	H	1.691970	-0.114094	0.751024
H92	H	1.654706	-0.235176	0.768073
H93	H	1.551702	-0.183785	0.768207
H94	H	1.118293	-0.191082	0.384397
O95	O	1.650540	-0.446523	0.638659
C96	C	1.783802	-0.452172	0.772029
C97	C	1.709938	-0.482242	0.698011
H98	H	1.831861	-0.481038	0.820018
H99	H	1.735575	-0.426617	0.826983
H100	H	1.838707	-0.426593	0.723819
H101	H	1.655018	-0.507850	0.746136
H102	H	1.758231	-0.507763	0.643054
O103	O	1.650773	-0.185742	1.114859
C104	C	1.665027	-0.115144	1.238829
C105	C	1.591101	-0.151964	1.178439
H106	H	1.616812	-0.087833	1.290264
H107	H	1.713052	-0.091223	1.180839
H108	H	1.719962	-0.139149	1.290147
H109	H	1.536102	-0.127999	1.127120
H110	H	1.543150	-0.175887	1.236486
H111	H	0.919239	-0.312570	0.627754
H112	H	1.396389	-0.312369	1.106065
H113	H	1.707259	-0.701859	0.695351
O114	O	1.717972	-0.805108	0.705990
C115	C	1.851153	-0.799202	0.839427
C116	C	1.777195	-0.769274	0.765434
H117	H	1.899038	-0.770244	0.887522
H118	H	1.906206	-0.824746	0.791300
H119	H	1.802903	-0.824780	0.894293
H120	H	1.825360	-0.743669	0.710553
H121	H	1.722138	-0.743764	0.813626
H122	H	1.640264	-0.953091	0.628192
O123	O	1.385893	-0.317741	0.898408
C124	C	1.334725	-0.406679	0.864792
C125	C	1.408656	-0.369863	0.925185
H126	H	1.353087	-0.448827	0.886435
H127	H	1.346261	-0.400995	0.776942
H128	H	1.250031	-0.397464	0.886344
H129	H	1.493378	-0.379056	0.903720
H130	H	1.397028	-0.375555	1.013020
O131	O	1.318648	-0.805465	0.306286
C132	C	1.185453	-0.799802	0.172851
C133	C	1.259376	-0.769740	0.246822
H134	H	1.137528	-0.770931	0.124740
H135	H	1.130434	-0.825352	0.220997
H136	H	1.233733	-0.825385	0.118000
H137	H	1.211181	-0.744128	0.301688
H138	H	1.314398	-0.744223	0.198611
H139	H	0.919225	-0.191094	0.384436
H140	H	1.640316	-1.052157	0.628222
O141	O	1.385998	-1.056588	0.373591
C142	C	1.252823	-1.050934	0.240136
C143	C	1.326730	-1.020867	0.314114
H144	H	1.204901	-1.022067	0.192014
H145	H	1.197800	-1.076485	0.288276
H146	H	1.301114	-1.076517	0.185295
H147	H	1.278523	-0.995256	0.368970
H148	H	1.381756	-0.995350	0.265908
H149	H	1.329238	-0.702194	0.316856
H150	H	1.396336	-0.550030	0.384003
