data_functionalizedCrystal
_audit_creation_method	'MofGen! by Chris Wilmer'
_symmetry_space_group_name_H-M	'P1'
_symmetry_Int_Tables_number	1
_symmetry_cell_setting	triclinic
loop_
_symmetry_equiv_pos_as_xyz
  x,y,z
_cell_length_a	33.510554
_cell_length_b	33.509711
_cell_length_c	33.506470
_cell_angle_alpha	60.004186
_cell_angle_beta	60.008358
_cell_angle_gamma	59.994760
loop_
_atom_site_label
_atom_site_type_symbol
_atom_site_fract_x
_atom_site_fract_y
_atom_site_fract_z
O1	O	0.055430	-0.583081	0.487524
O2	O	0.020931	-0.453975	0.392819
O3	O	0.102693	-0.535652	0.392731
O4	O	-0.026332	-0.501404	0.487613
O5	O	0.129823	-0.508526	0.419767
O6	O	0.048062	-0.426850	0.419856
O7	O	0.082561	-0.555956	0.514561
Cu8	Cu	0.067789	-0.488926	0.469677
Cu9	Cu	0.035703	-0.521005	0.437703
O10	O	0.000799	-0.474279	0.514649
N11	N	0.090357	-0.466366	0.492168
N12	N	0.013139	-0.543569	0.415212
C13	C	0.143028	-0.279707	0.544737
C14	C	0.143165	-0.413746	0.678712
C15	C	0.143043	-0.413725	0.544739
C16	C	0.277090	-0.413694	0.544637
C17	C	0.157791	-0.323929	0.559462
C18	C	0.157869	-0.398994	0.634489
C19	C	0.232865	-0.398963	0.559407
C20	C	0.157801	-0.398982	0.559463
C21	C	0.124237	-0.223419	0.525994
C22	C	0.124262	-0.432490	0.525997
C23	C	0.176583	-0.380217	0.578205
C24	C	0.358938	-0.399566	0.501510
C25	C	0.410104	-0.416609	0.484423
C26	C	0.410135	-0.499402	0.515995
C27	C	0.358969	-0.482358	0.533084
C28	C	0.136554	-0.197822	0.475693
C29	C	0.119469	-0.146653	0.458657
C30	C	0.077755	-0.146680	0.542223
C31	C	0.094840	-0.197850	0.559260
C32	C	0.073954	-0.420144	0.538396
C33	C	0.056884	-0.437203	0.521352
C34	C	0.140427	-0.478952	0.479524
C35	C	0.157498	-0.461894	0.496561
C36	C	0.074158	-0.420182	0.760618
C37	C	0.057149	-0.437256	0.811786
C38	C	0.140732	-0.479014	0.811717
C39	C	0.157740	-0.461942	0.760547
C40	C	0.124452	-0.432525	0.734999
C41	C	0.333372	-0.432439	0.525839
C42	C	-0.020612	-0.577650	0.170305
C43	C	-0.020943	-0.788098	0.380897
C44	C	-0.020912	-0.577638	0.380991
C45	C	-0.231336	-0.577418	0.380585
C46	C	-0.129735	-0.611383	0.346870
C47	C	-0.054722	-0.611464	0.347017
C48	C	-0.073450	-0.630202	0.328195
C49	C	-0.087616	-0.712029	0.371239
C50	C	-0.070599	-0.763199	0.388315
C51	C	0.012191	-0.763282	0.356872
C52	C	-0.004828	-0.712113	0.339795
C53	C	-0.155381	-0.623711	0.397158
C54	C	-0.206547	-0.606601	0.414133
C55	C	-0.206417	-0.564839	0.330529
C56	C	-0.155251	-0.581949	0.313554
C57	C	-0.067051	-0.561160	0.334643
C58	C	-0.050026	-0.544131	0.351759
C59	C	-0.008343	-0.627704	0.393612
C60	C	-0.025368	-0.644736	0.376502
C61	C	-0.066922	-0.561168	0.246303
C62	C	-0.049794	-0.544141	0.195134
C63	C	-0.008048	-0.627719	0.195183
C64	C	-0.025175	-0.644745	0.246352
C65	C	-0.054614	-0.611468	0.271911
C66	C	-0.054732	-0.686488	0.346980
C67	C	-0.002117	-0.558258	0.114025
C68	C	-0.002879	-0.844379	0.399940
C69	C	-0.002504	-0.558243	0.399473
C70	C	-0.287615	-0.558285	0.398601
N71	N	0.434975	-0.466279	0.491900
O72	O	0.591199	-0.470749	0.375150
O73	O	0.591395	-0.565767	0.504116
O74	O	0.591311	-0.565550	0.422329
O75	O	0.591283	-0.470966	0.456937
O76	O	0.510024	-0.538522	0.449509
O77	O	0.510108	-0.538739	0.531297
O78	O	0.509913	-0.443721	0.402330
Cu79	Cu	0.502588	-0.488762	0.469295
Cu80	Cu	0.598719	-0.520726	0.437151
O81	O	0.509997	-0.443938	0.484117
N82	N	0.666332	-0.543209	0.414541
N83	N	0.090323	-0.121809	0.492157
O84	O	-0.026342	0.034503	0.487582
O85	O	0.102626	0.034543	0.392540
O86	O	0.020797	0.034507	0.392812
O87	O	0.055487	0.034539	0.487310
O88	O	0.047933	-0.046785	0.419900
O89	O	0.129763	-0.046749	0.419628
O90	O	0.000794	-0.046789	0.514670
Cu91	Cu	0.067756	-0.054192	0.469623
Cu92	Cu	0.035664	0.041946	0.437588
O93	O	0.082623	-0.046753	0.514399
N94	N	0.013091	0.109564	0.415054
N95	N	0.090671	-0.466416	0.836606
O96	O	0.086120	-0.583065	0.992910
O97	O	-0.008880	-0.454051	0.992954
O98	O	-0.008658	-0.535864	0.992931
O99	O	0.085897	-0.501252	0.992933
O100	O	0.018407	-0.508749	0.911642
O101	O	0.018185	-0.426936	0.911665
O102	O	0.113185	-0.555949	0.911621
Cu103	Cu	0.068156	-0.488967	0.904221
Cu104	Cu	0.036148	-0.521034	1.000355
O105	O	0.112963	-0.474136	0.911644
N106	N	0.013633	-0.543590	1.067970
C107	C	0.031262	-0.424144	0.393290
C108	C	0.132513	-0.525291	0.393180
C109	C	0.072229	-0.585787	0.514090
C110	C	-0.029022	-0.484640	0.514200
C111	C	0.550775	-0.565338	0.533954
C112	C	0.550672	-0.565070	0.432670
C113	C	0.550530	-0.444149	0.372492
C114	C	0.550635	-0.444418	0.473776
C115	C	0.132408	-0.005998	0.392963
C116	C	0.031106	-0.006142	0.393333
C117	C	-0.029021	-0.006147	0.514213
C118	C	0.072314	-0.006104	0.513878
C119	C	-0.008430	-0.424240	0.952316
C120	C	-0.008150	-0.525550	0.952271
C121	C	0.112735	-0.585760	0.952260
C122	C	0.112461	-0.484444	0.952286
H123	H	0.016194	-0.427197	0.832639
H124	H	0.550826	-0.595166	0.570996
O125	O	0.021505	-0.375019	0.353885
H126	H	-0.009648	-0.368126	0.345013
O127	O	0.151811	-0.474639	0.952284
H128	H	0.184265	-0.478904	0.919147
O129	O	-0.078108	-0.474975	0.553667
H130	H	-0.095198	-0.501385	0.564054
O131	O	0.021266	-0.006147	0.354003
H132	H	0.047627	-0.039275	0.343614
H133	H	-0.134369	-0.571905	0.272603
H134	H	0.550685	-0.594783	0.425263
O135	O	0.181599	-0.534950	0.353710
H136	H	0.205544	-0.572749	0.367582
H137	H	0.046887	-0.396202	0.562361
O138	O	0.081988	-0.634911	0.553496
H139	H	0.119796	-0.658799	0.539558
O140	O	-0.047940	-0.375162	0.952339
H141	H	-0.080365	-0.380209	0.985476
O142	O	0.550460	-0.404633	0.323430
H143	H	0.550451	-0.418457	0.299462
H144	H	0.550629	-0.414708	0.481180
O145	O	0.181364	-0.005679	0.353336
H146	H	0.205325	-0.005588	0.367108
H147	H	0.430920	-0.389838	0.464614
O148	O	-0.047483	-0.535342	0.952225
H149	H	-0.080706	-0.502315	0.952229
H150	H	-0.066059	-0.006159	0.544050
H151	H	0.142562	-0.622811	0.952240
H152	H	0.079744	-0.006095	0.543566
H153	H	0.167840	-0.502959	0.832516
O154	O	0.038253	-0.388448	0.733063
H155	H	0.014952	-0.408765	0.742897
O156	O	0.211989	-0.475250	0.732915
H157	H	0.232276	-0.498566	0.759279
H158	H	0.167497	-0.502899	0.455559
O159	O	0.002624	-0.423895	0.534724
H160	H	-0.017621	-0.400590	0.558063
H161	H	0.338156	-0.509129	0.552896
O162	O	0.211759	-0.475211	0.483196
H163	H	0.232003	-0.498527	0.459870
H164	H	0.430973	-0.540048	0.521891
H165	H	0.021953	-0.691318	0.320042
H166	H	0.338097	-0.358917	0.495611
H167	H	0.160490	-0.218637	0.448603
H168	H	0.053825	-0.125861	0.569312
O169	O	0.132753	-0.119038	0.404402
H170	H	0.156070	-0.145416	0.384133
H171	H	-0.059824	-0.503179	0.174290
O172	O	0.081484	-0.225427	0.613519
H173	H	0.095229	-0.215615	0.630306
O174	O	-0.098671	-0.525273	0.273868
H175	H	-0.132431	-0.501937	0.263980
O176	O	0.023699	-0.663613	0.167621
H177	H	0.003381	-0.686892	0.177406
O178	O	-0.011899	-0.699001	0.273973
H179	H	0.011444	-0.719277	0.247603
O180	O	-0.063235	-0.489883	0.338379
H181	H	-0.049369	-0.473193	0.298036
O182	O	0.023315	-0.663590	0.425413
H183	H	0.029022	-0.701429	0.431142
H184	H	-0.090949	-0.534065	0.310634
H185	H	0.052828	-0.784146	0.351024
O186	O	-0.012070	-0.698991	0.389839
H187	H	0.011206	-0.719268	0.413212
H188	H	-0.097376	-0.783993	0.408060
H189	H	-0.134607	-0.647683	0.424287
O190	O	-0.141442	-0.684391	0.378989
H191	H	-0.161447	-0.710751	0.398726
H192	H	-0.227429	-0.616637	0.455084
H193	H	-0.227194	-0.540877	0.303400
