data_functionalizedCrystal
_audit_creation_method	'MofGen! by Chris Wilmer'
_symmetry_space_group_name_H-M	'P1'
_symmetry_Int_Tables_number	1
_symmetry_cell_setting	triclinic
loop_
_symmetry_equiv_pos_as_xyz
  x,y,z
_cell_length_a	18.101398
_cell_length_b	18.050589
_cell_length_c	18.101390
_cell_angle_alpha	89.971488
_cell_angle_beta	89.975319
_cell_angle_gamma	90.023488
loop_
_atom_site_label
_atom_site_type_symbol
_atom_site_fract_x
_atom_site_fract_y
_atom_site_fract_z
Zn1	Zn	1.132138	-0.295725	-0.418861
Zn2	Zn	1.382138	-0.045725	-0.168861
Zn3	Zn	1.632138	0.204275	0.081139
Zn4	Zn	1.882138	0.454275	0.331139
Zn5	Zn	1.132040	-0.419930	-0.295029
Zn6	Zn	1.382040	-0.169930	-0.045029
Zn7	Zn	1.632040	0.080070	0.204971
Zn8	Zn	1.882040	0.330070	0.454971
Zn9	Zn	1.008297	-0.295749	-0.295023
Zn10	Zn	1.258297	-0.045749	-0.045023
Zn11	Zn	1.508297	0.204251	0.204977
Zn12	Zn	1.758297	0.454251	0.454977
Zn13	Zn	1.008254	-0.419867	-0.418818
Zn14	Zn	1.258254	-0.169867	-0.168818
Zn15	Zn	1.508254	0.080133	0.081182
Zn16	Zn	1.758254	0.330133	0.331182
O17	O	1.070182	-0.357818	-0.356933
O18	O	1.320182	-0.107818	-0.106933
O19	O	1.570182	0.142182	0.143067
O20	O	1.820182	0.392182	0.393067
O21	O	1.235758	-0.312217	-0.402456
O22	O	1.485758	-0.062217	-0.152456
O23	O	1.735758	0.187783	0.097544
O24	O	1.985758	0.437783	0.347544
O25	O	1.115601	-0.403494	-0.191396
O26	O	1.365601	-0.153494	0.058604
O27	O	1.615601	0.096506	0.308604
O28	O	1.865601	0.346506	0.558604
O29	O	1.024783	-0.191821	-0.311465
O30	O	1.274783	0.058179	-0.061465
O31	O	1.524783	0.308179	0.188535
O32	O	1.774783	0.558179	0.438535
O33	O	1.235686	-0.403471	-0.311477
O34	O	1.485686	-0.153471	-0.061477
O35	O	1.735686	0.096529	0.188523
O36	O	1.985686	0.346529	0.438523
O37	O	1.115770	-0.191803	-0.402449
O38	O	1.365770	0.058197	-0.152449
O39	O	1.615770	0.308197	0.097551
O40	O	1.865770	0.558197	0.347551
O41	O	1.024688	-0.312258	-0.191391
O42	O	1.274688	-0.062258	0.058609
O43	O	1.524688	0.187742	0.308609
O44	O	1.774688	0.437742	0.558609
O45	O	0.904658	-0.312197	-0.311423
O46	O	1.154658	-0.062197	-0.061423
O47	O	1.404658	0.187803	0.188577
O48	O	1.654658	0.437803	0.438577
O49	O	1.024711	-0.403363	-0.522457
O50	O	1.274711	-0.153363	-0.272457
O51	O	1.524711	0.096637	-0.022457
O52	O	1.774711	0.346637	0.227543
O53	O	0.904627	-0.403386	-0.402375
O54	O	1.154627	-0.153386	-0.152375
O55	O	1.404627	0.096614	0.097625
O56	O	1.654627	0.346614	0.347625
O57	O	1.115729	-0.312156	-0.522489
O58	O	1.365729	-0.062156	-0.272489
O59	O	1.615729	0.187844	-0.022489
O60	O	1.865729	0.437844	0.227511
O61	O	1.115560	-0.523847	-0.311435
O62	O	1.365560	-0.273847	-0.061435
O63	O	1.615560	-0.023847	0.188565
O64	O	1.865560	0.226153	0.438565
O65	O	1.024616	-0.523800	-0.402382
O66	O	1.274616	-0.273800	-0.152382
O67	O	1.524616	-0.023800	0.097618
O68	O	1.774616	0.226200	0.347618
C69	C	0.877772	-0.357788	-0.356894
C70	C	1.127772	-0.107788	-0.106894
C71	C	1.377772	0.142212	0.143106
C72	C	1.627772	0.392212	0.393106
C73	C	0.795458	-0.357793	-0.356895
C74	C	1.045458	-0.107793	-0.106895
C75	C	1.295458	0.142207	0.143105
C76	C	1.545458	0.392207	0.393105
C77	C	0.496367	-0.357839	-0.356957
C78	C	0.746367	-0.107839	-0.106957
C79	C	0.996367	0.142161	0.143043
C80	C	1.246367	0.392161	0.393043
C81	C	0.527687	-0.300178	-0.300012
C82	C	0.777687	-0.050178	-0.050012
C83	C	1.027687	0.199822	0.199988
C84	C	1.277687	0.449822	0.449988
C85	C	0.613305	-0.300333	-0.299769
C86	C	0.863305	-0.050333	-0.049769
C87	C	1.113305	0.199667	0.200231
C88	C	1.363305	0.449667	0.450231
C89	C	0.644749	-0.357815	-0.356927
C90	C	0.894749	-0.107815	-0.106927
C91	C	1.144749	0.142185	0.143073
C92	C	1.394749	0.392185	0.393073
C93	C	0.613635	-0.436048	-0.335608
C94	C	0.863635	-0.186048	-0.085608
C95	C	1.113635	0.063952	0.164392
C96	C	1.363635	0.313952	0.414392
C97	C	0.527990	-0.435728	-0.335212
C98	C	0.777990	-0.185728	-0.085212
C99	C	1.027990	0.064272	0.164788
C100	C	1.277990	0.314272	0.414788
C101	C	0.527981	-0.337947	-0.435355
C102	C	0.777981	-0.087947	-0.185355
C103	C	1.027981	0.162053	0.064645
C104	C	1.277981	0.412053	0.314645
C105	C	0.613632	-0.336205	-0.434927
C106	C	0.863632	-0.086205	-0.184927
C107	C	1.113632	0.163795	0.065073
C108	C	1.363632	0.413795	0.315073
C109	C	0.728609	-0.357807	-0.356910
C110	C	0.978609	-0.107807	-0.106910
C111	C	1.228609	0.142193	0.143090
C112	C	1.478609	0.392193	0.393090
C113	C	0.412507	-0.357853	-0.356972
C114	C	0.662507	-0.107853	-0.106972
C115	C	0.912507	0.142147	0.143028
C116	C	1.162507	0.392147	0.393028
C117	C	1.070093	-0.550770	-0.356921
C118	C	1.320093	-0.300770	-0.106921
C119	C	1.570093	-0.050770	0.143079
C120	C	1.820093	0.199230	0.393079
C121	C	1.070122	-0.633316	-0.356940
C122	C	1.320122	-0.383316	-0.106940
C123	C	1.570122	-0.133316	0.143060
C124	C	1.820122	0.116684	0.393060
C125	C	1.020715	-0.832768	-0.406380
C126	C	1.270715	-0.582768	-0.156380
C127	C	1.520715	-0.332768	0.093620
C128	C	1.770715	-0.082768	0.343620
C129	C	1.002663	-0.882213	-0.338801
C130	C	1.252663	-0.632213	-0.088801
C131	C	1.502663	-0.382213	0.161199
C132	C	1.752663	-0.132213	0.411199
C133	C	1.070195	-0.784446	-0.356950
C134	C	1.320195	-0.534446	-0.106950
C135	C	1.570195	-0.284446	0.143050
C136	C	1.820195	-0.034446	0.393050
C137	C	1.088284	-0.882083	-0.424536
C138	C	1.338284	-0.632083	-0.174536
C139	C	1.588284	-0.382083	0.075464
C140	C	1.838284	-0.132083	0.325464
C141	C	1.070264	-0.930431	-0.356965
C142	C	1.320264	-0.680431	-0.106965
C143	C	1.570264	-0.430431	0.143035
C144	C	1.820264	-0.180431	0.393035
C145	C	1.052107	-0.832803	-0.289335
C146	C	1.302107	-0.582803	-0.039335
C147	C	1.552107	-0.332803	0.210665
C148	C	1.802107	-0.082803	0.460665
C149	C	1.137760	-0.832669	-0.375116
C150	C	1.387760	-0.582669	-0.125116
C151	C	1.637760	-0.332669	0.124884
C152	C	1.887760	-0.082669	0.374884
C153	C	1.119733	-0.882092	-0.307491
C154	C	1.369733	-0.632092	-0.057491
C155	C	1.619733	-0.382092	0.192509
C156	C	1.869733	-0.132092	0.442509
C157	C	1.070154	-0.700348	-0.356942
C158	C	1.320154	-0.450348	-0.106942
C159	C	1.570154	-0.200348	0.143058
C160	C	1.820154	0.049652	0.393058
C161	C	1.070306	-1.014528	-0.356965
C162	C	1.320306	-0.764528	-0.106965
C163	C	1.570306	-0.514528	0.143035
C164	C	1.820306	-0.264528	0.393035
C165	C	1.263344	-0.357849	-0.356972
C166	C	1.513344	-0.107849	-0.106972
C167	C	1.763344	0.142151	0.143028
C168	C	2.013344	0.392151	0.393028
C169	C	1.345658	-0.357862	-0.356989
C170	C	1.595658	-0.107862	-0.106989
C171	C	1.845658	0.142138	0.143011
C172	C	2.095658	0.392138	0.393011
C173	C	1.070226	-0.357750	-0.550095
C174	C	1.320226	-0.107750	-0.300095
C175	C	1.570226	0.142250	-0.050095
C176	C	1.820226	0.392250	0.199905
C177	C	1.070245	-0.357721	-0.632409
C178	C	1.320245	-0.107721	-0.382409
C179	C	1.570245	0.142279	-0.132409
C180	C	1.820245	0.392279	0.117591
C181	C	1.070292	-0.164112	-0.356961
C182	C	1.320292	0.085888	-0.106961
C183	C	1.570292	0.335888	0.143039
C184	C	1.820292	0.585888	0.393039
C185	C	1.070339	-0.081566	-0.356974
C186	C	1.320339	0.168434	-0.106974
C187	C	1.570339	0.418434	0.143026
C188	C	1.820339	0.668434	0.393026
C189	C	1.070285	-0.357675	-0.931500
C190	C	1.320285	-0.107675	-0.681500
C191	C	1.570285	0.142325	-0.431500
C192	C	1.820285	0.392325	-0.181500
C193	C	1.127739	-0.300492	-0.900195
C194	C	1.377739	-0.050492	-0.650195
C195	C	1.627739	0.199508	-0.400195
C196	C	1.877739	0.449508	-0.150195
C197	C	1.127560	-0.300280	-0.814577
C198	C	1.377560	-0.050280	-0.564577
C199	C	1.627560	0.199720	-0.314577
C200	C	1.877560	0.449720	-0.064577
C201	C	1.070266	-0.357698	-0.783117
C202	C	1.320266	-0.107698	-0.533117
C203	C	1.570266	0.142302	-0.283117
C204	C	1.820266	0.392302	-0.033117
C205	C	0.992248	-0.336428	-0.814182
C206	C	1.242248	-0.086428	-0.564182
C207	C	1.492248	0.163572	-0.314182
C208	C	1.742248	0.413572	-0.064182
C209	C	0.992592	-0.336000	-0.899828
C210	C	1.242592	-0.086000	-0.649828
C211	C	1.492592	0.164000	-0.399828
C212	C	1.742592	0.414000	-0.149828
C213	C	1.090162	-0.436274	-0.899920
C214	C	1.340162	-0.186274	-0.649920
C215	C	1.590162	0.063726	-0.399920
C216	C	1.840162	0.313726	-0.149920
C217	C	1.091874	-0.435873	-0.814270
C218	C	1.341874	-0.185873	-0.564270
C219	C	1.591874	0.064127	-0.314270
C220	C	1.841874	0.314127	-0.064270
C221	C	1.070250	-0.357712	-0.699258
C222	C	1.320250	-0.107712	-0.449258
C223	C	1.570250	0.142288	-0.199258
C224	C	1.820250	0.392288	0.050742
C225	C	1.070296	-0.357659	-1.015360
C226	C	1.320296	-0.107659	-0.765360
C227	C	1.570296	0.142341	-0.515360
C228	C	1.820296	0.392341	-0.265360
C229	C	1.070181	-0.357832	-0.164522
C230	C	1.320181	-0.107832	0.085478
C231	C	1.570181	0.142168	0.335478
C232	C	1.820181	0.392168	0.585478
C233	C	1.070306	-0.357651	-0.082209
C234	C	1.320306	-0.107651	0.167791
C235	C	1.570306	0.142349	0.417791
C236	C	1.820306	0.392349	0.667791
H237	H	0.507727	-0.379945	-0.477785
H238	H	0.757727	-0.129945	-0.227785
H239	H	1.007727	0.120055	0.022215
H240	H	1.257727	0.370055	0.272215
C241	C	0.641159	-0.495647	-0.389879
C242	C	0.891159	-0.245647	-0.139879
C243	C	1.141159	0.004353	0.110121
C244	C	1.391159	0.254353	0.360121
N245	N	0.661895	-0.540537	-0.430754
N246	N	0.911895	-0.290537	-0.180754
N247	N	1.161895	-0.040537	0.069246
N248	N	1.411895	0.209463	0.319246
H249	H	0.978810	-0.811110	-0.448122
H250	H	1.228810	-0.561110	-0.198122
H251	H	1.478810	-0.311110	0.051878
H252	H	1.728810	-0.061110	0.301878
C253	C	0.640940	-0.318103	-0.221289
C254	C	0.890940	-0.068103	0.028711
C255	C	1.140940	0.181897	0.278711
C256	C	1.390940	0.431897	0.528711
N257	N	0.661755	-0.331491	-0.162176
N258	N	0.911755	-0.081491	0.087824
N259	N	1.161755	0.168509	0.337824
N260	N	1.411755	0.418509	0.587824
C261	C	1.214882	-0.803235	-0.395906
C262	C	1.464882	-0.553235	-0.145906
C263	C	1.714882	-0.303235	0.104094
C264	C	1.964882	-0.053235	0.354094
N265	N	1.272969	-0.781060	-0.411574
N266	N	1.522969	-0.531060	-0.161574
N267	N	1.772969	-0.281060	0.088426
N268	N	2.022969	-0.031060	0.338426
C269	C	0.642558	-0.459231	-0.259014
C270	C	0.892558	-0.209231	-0.009014
C271	C	1.142558	0.040769	0.240986
C272	C	1.392558	0.290769	0.490986
N273	N	0.664341	-0.476687	-0.201320
N274	N	0.914341	-0.226687	0.048680
N275	N	1.164341	0.023313	0.298680
N276	N	1.414341	0.273313	0.548680
C277	C	1.031382	-0.803683	-0.212106
C278	C	1.281382	-0.553683	0.037894
C279	C	1.531382	-0.303683	0.287894
C280	C	1.781382	-0.053683	0.537894
N281	N	1.015769	-0.781748	-0.153938
N282	N	1.265769	-0.531748	0.096062
N283	N	1.515769	-0.281748	0.346062
N284	N	1.765769	-0.031748	0.596062
H285	H	0.975742	-0.278544	-0.919813
H286	H	1.225742	-0.028544	-0.669813
H287	H	1.475742	0.221456	-0.419813
H288	H	1.725742	0.471456	-0.169813
H289	H	0.507270	-0.480145	-0.374880
H290	H	0.757270	-0.230145	-0.124880
H291	H	1.007270	0.019855	0.125120
H292	H	1.257270	0.269855	0.375120
C293	C	0.932791	-0.389813	-0.927804
C294	C	1.182791	-0.139813	-0.677804
C295	C	1.432791	0.110187	-0.427804
C296	C	1.682791	0.360187	-0.177804
N297	N	0.887745	-0.430340	-0.948872
N298	N	1.137745	-0.180340	-0.698872
N299	N	1.387745	0.069660	-0.448872
N300	N	1.637745	0.319660	-0.198872
C301	C	0.925513	-0.911612	-0.318046
C302	C	1.175513	-0.661612	-0.068046
C303	C	1.425513	-0.411612	0.181954
C304	C	1.675513	-0.161612	0.431954
N305	N	0.867402	-0.933754	-0.302418
N306	N	1.117402	-0.683754	-0.052418
N307	N	1.367402	-0.433754	0.197582
N308	N	1.617402	-0.183754	0.447582
H309	H	0.506406	-0.281892	-0.454739
H310	H	0.756406	-0.031892	-0.204739
H311	H	1.006406	0.218108	0.045261
H312	H	1.256406	0.468108	0.295261
C313	C	1.108917	-0.911327	-0.501744
C314	C	1.358917	-0.661327	-0.251744
C315	C	1.608917	-0.411327	-0.001744
C316	C	1.858917	-0.161327	0.248256
N317	N	1.124452	-0.933350	-0.559899
N318	N	1.374452	-0.683350	-0.309899
N319	N	1.624452	-0.433350	-0.059899
N320	N	1.874452	-0.183350	0.190101
H321	H	1.161606	-0.903613	-0.265648
H322	H	1.411606	-0.653613	-0.015648
H323	H	1.661606	-0.403613	0.234352
H324	H	1.911606	-0.153613	0.484352
H325	H	0.948278	-0.376795	-0.793803
H326	H	1.198278	-0.126795	-0.543803
H327	H	1.448278	0.123205	-0.293803
H328	H	1.698278	0.373205	-0.043803
H329	H	1.185412	-0.313600	-0.793575
H330	H	1.435412	-0.063600	-0.543575
H331	H	1.685412	0.186400	-0.293575
H332	H	1.935412	0.436400	-0.043575
C333	C	1.206154	-0.318267	-0.928030
C334	C	1.456154	-0.068267	-0.678030
C335	C	1.706154	0.181733	-0.428030
C336	C	1.956154	0.431733	-0.178030
N337	N	1.265218	-0.331660	-0.948996
N338	N	1.515218	-0.081660	-0.698996
N339	N	1.765218	0.168340	-0.448996
N340	N	2.015218	0.418340	-0.198996
C341	C	1.033632	-0.493834	-0.927273
C342	C	1.283632	-0.243834	-0.677273
C343	C	1.533632	0.006166	-0.427273
C344	C	1.783632	0.256166	-0.177273
N345	N	0.991052	-0.537183	-0.947880
N346	N	1.241052	-0.287183	-0.697880
N347	N	1.491052	-0.037183	-0.447880
N348	N	1.741052	0.212817	-0.197880
C349	C	0.498564	-0.317732	-0.221990
C350	C	0.748564	-0.067732	0.028010
C351	C	0.998564	0.182268	0.278010
C352	C	1.248564	0.432268	0.528010
N353	N	0.476626	-0.330956	-0.163225
N354	N	0.726626	-0.080956	0.086775
N355	N	0.976626	0.169044	0.336775
N356	N	1.226626	0.419044	0.586775
C357	C	1.110189	-0.222265	-0.929279
C358	C	1.360189	0.027735	-0.679279
C359	C	1.610189	0.277735	-0.429279
C360	C	1.860189	0.527735	-0.179279
N361	N	1.096967	-0.163346	-0.951186
N362	N	1.346967	0.086654	-0.701186
N363	N	1.596967	0.336654	-0.451186
N364	N	1.846967	0.586654	-0.201186
H365	H	0.507978	-0.452597	-0.277900
H366	H	0.757978	-0.202597	-0.027900
H367	H	1.007978	0.047403	0.222100
H368	H	1.257978	0.297403	0.472100
H369	H	0.633973	-0.278634	-0.451002
H370	H	0.883973	-0.028634	-0.201002
H371	H	1.133973	0.221366	0.048998
H372	H	1.383973	0.471366	0.298998
H373	H	0.635039	-0.375141	-0.479629
H374	H	0.885039	-0.125141	-0.229629
H375	H	1.135039	0.124859	0.020371
H376	H	1.385039	0.374859	0.270371
H377	H	1.114403	-0.242052	-0.794098
H378	H	1.364403	0.007948	-0.544098
H379	H	1.614403	0.257948	-0.294098
H380	H	1.864403	0.507948	-0.044098
H381	H	0.975092	-0.279611	-0.792738
H382	H	1.225092	-0.029611	-0.542738
H383	H	1.475092	0.220389	-0.292738
H384	H	1.725092	0.470389	-0.042738
H385	H	1.146055	-0.455640	-0.921571
H386	H	1.396055	-0.205640	-0.671571
H387	H	1.646055	0.044360	-0.421571
H388	H	1.896055	0.294360	-0.171571
C389	C	1.039447	-0.496526	-0.785344
C390	C	1.289447	-0.246526	-0.535344
C391	C	1.539447	0.003474	-0.285344
C392	C	1.789447	0.253474	-0.035344
N393	N	0.999951	-0.542208	-0.763559
N394	N	1.249951	-0.292208	-0.513559
N395	N	1.499951	-0.042208	-0.263559
N396	N	1.749951	0.207792	-0.013559
C397	C	0.641728	-0.221957	-0.317810
C398	C	0.891728	0.028043	-0.067810
C399	C	1.141728	0.278043	0.182190
C400	C	1.391728	0.528043	0.432190
N401	N	0.663132	-0.162920	-0.331395
N402	N	0.913132	0.087080	-0.081395
N403	N	1.163132	0.337080	0.168605
N404	N	1.413132	0.587080	0.418605
C405	C	0.499890	-0.221564	-0.317861
C406	C	0.749890	0.028436	-0.067861
C407	C	0.999890	0.278436	0.182139
C408	C	1.249890	0.528436	0.432139
N409	N	0.478948	-0.162350	-0.331305
N410	N	0.728948	0.087650	-0.081305
N411	N	0.978948	0.337650	0.168695
N412	N	1.228948	0.587650	0.418695
C413	C	1.169436	-0.457545	-0.786837
C414	C	1.419436	-0.207545	-0.536837
C415	C	1.669436	0.042455	-0.286837
C416	C	1.919436	0.292455	-0.036837
N417	N	1.227855	-0.473867	-0.766168
N418	N	1.477855	-0.223867	-0.516168
N419	N	1.727855	0.026133	-0.266168
N420	N	1.977855	0.276133	-0.016168
