data_functionalizedCrystal
_audit_creation_method	'MofGen! by Chris Wilmer'
_symmetry_space_group_name_H-M	'P1'
_symmetry_Int_Tables_number	1
_symmetry_cell_setting	triclinic
loop_
_symmetry_equiv_pos_as_xyz
  x,y,z
_cell_length_a	10.654541
_cell_length_b	10.654562
_cell_length_c	9.730223
_cell_angle_alpha	90.005668
_cell_angle_beta	90.000200
_cell_angle_gamma	95.512984
loop_
_atom_site_label
_atom_site_type_symbol
_atom_site_fract_x
_atom_site_fract_y
_atom_site_fract_z
O1	O	0.176467	-1.667828	-0.114380
O2	O	0.193256	-1.302352	-0.114363
O3	O	0.002122	-1.493495	-0.114363
O4	O	0.367601	-1.476685	-0.114379
O5	O	0.002133	-1.493482	0.114217
O6	O	0.193267	-1.302339	0.114217
O7	O	0.176477	-1.667816	0.114200
Zn8	Zn	0.184874	-1.485076	0.150501
Zn9	Zn	0.184860	-1.485092	-0.150663
O10	O	0.367611	-1.476673	0.114201
C11	C	-0.044671	-1.492255	-0.000074
C12	C	-0.184114	-1.488564	-0.000076
C13	C	0.192025	-1.255548	-0.000070
C14	C	0.188327	-1.116105	-0.000064
C15	C	0.177708	-1.714620	-0.000095
C16	C	0.181406	-1.854062	-0.000111
C17	C	-0.212075	-1.717127	-0.000069
C18	C	-0.291564	-1.829670	-0.000063
C19	C	-0.422582	-1.826194	-0.000067
C20	C	-0.474113	-1.710164	-0.000082
C21	C	-0.394623	-1.597621	-0.000088
C22	C	-0.263604	-1.601109	-0.000080
C23	C	-0.366663	-1.369061	-0.000105
C24	C	-0.235645	-1.372534	-0.000091
C25	C	-0.418194	-1.253031	-0.000119
C26	C	-0.338704	-1.140485	-0.000115
C27	C	-0.207679	-1.143966	-0.000110
C28	C	-0.156156	-1.259991	-0.000097
C29	C	0.414404	-1.477913	-0.000091
C30	C	0.553848	-1.481603	-0.000098
N31	N	0.184883	-1.485074	0.356037
C32	C	0.186608	-1.050568	0.124525
C33	C	0.183143	-0.919546	0.124502
C34	C	0.183122	-0.919609	-0.124709
C35	C	0.186578	-1.050630	-0.124684
C36	C	0.188357	-1.116043	0.249145
C37	C	0.186639	-1.050505	0.373744
C38	C	0.183174	-0.919483	0.373721
C39	C	0.181427	-0.853999	0.249100
N40	N	0.184841	-1.485104	-0.356200
C41	C	0.261761	-1.561902	0.427969
C42	C	0.261737	-1.561921	0.571852
C43	C	0.107954	-1.408272	0.571858
C44	C	0.107972	-1.408261	0.427978
C45	C	0.338672	-1.638715	0.356028
C46	C	0.415557	-1.715549	0.427960
C47	C	0.415533	-1.715568	0.571843
C48	C	0.338624	-1.638753	0.643794
H49	H	-0.105394	-1.719969	-0.000047
H50	H	-0.249593	-1.924140	-0.000039
H51	H	0.191182	-1.222727	0.249178
Br52	Br	-0.651925	-1.705449	-0.000195
H53	H	0.045373	-1.345698	0.369410
Br54	Br	-0.530466	-1.978930	-0.000077
Br55	Br	-0.596005	-1.248311	-0.000226
Br56	Br	0.188991	-1.139375	0.542863
Br57	Br	-0.408645	-0.983032	-0.000157
H58	H	0.181766	-0.866127	0.475175
Br59	Br	-0.099810	-0.991220	-0.000134
H60	H	0.178603	-0.747312	0.249091
Br61	Br	0.021654	-1.264723	-0.000074
H62	H	0.045340	-1.345731	0.630452
H63	H	0.181703	-0.866281	-0.226169
H64	H	0.187984	-1.103991	-0.226135
H65	H	0.338703	-1.638705	0.238871
Br66	Br	0.519912	-1.819808	0.330318
Br67	Br	0.519862	-1.819853	0.669463
H68	H	0.338599	-1.638786	0.760953
