data_functionalizedCrystal
_audit_creation_method	'MofGen! by Chris Wilmer'
_symmetry_space_group_name_H-M	'P1'
_symmetry_Int_Tables_number	1
_symmetry_cell_setting	triclinic
loop_
_symmetry_equiv_pos_as_xyz
  x,y,z
_cell_length_a	14.044220
_cell_length_b	19.188930
_cell_length_c	12.503572
_cell_angle_alpha	93.506241
_cell_angle_beta	86.164750
_cell_angle_gamma	88.166830
loop_
_atom_site_label
_atom_site_type_symbol
_atom_site_fract_x
_atom_site_fract_y
_atom_site_fract_z
O1	O	1.262485	0.164589	-0.089229
O2	O	1.762485	0.664589	0.410771
O3	O	0.986542	0.158515	-0.089255
O4	O	1.486542	0.658515	0.410745
O5	O	1.132475	0.060411	-0.089220
O6	O	1.632475	0.560411	0.410780
O7	O	1.116552	0.262693	-0.089264
O8	O	1.616552	0.762693	0.410736
O9	O	1.121500	0.067803	0.089419
O10	O	1.621500	0.567803	0.589419
O11	O	0.975567	0.165907	0.089384
O12	O	1.475567	0.665907	0.589384
O13	O	1.251510	0.171980	0.089411
O14	O	1.751510	0.671980	0.589411
Cu15	Cu	1.112536	0.169618	0.105709
Cu16	Cu	1.612536	0.669618	0.605709
Cu17	Cu	1.125516	0.160877	-0.105553
Cu18	Cu	1.625516	0.660877	0.394447
O19	O	1.105577	0.270084	0.089376
O20	O	1.605577	0.770084	0.589376
C21	C	0.945752	0.159553	0.000061
C22	C	1.445752	0.659553	0.500061
C23	C	0.840559	0.151624	0.000052
C24	C	1.340559	0.651624	0.500052
C25	C	1.126472	0.038063	0.000102
C26	C	1.626472	0.538063	0.500102
C27	C	1.124923	-0.039541	0.000112
C28	C	1.624923	0.460459	0.500112
C29	C	0.647956	0.137129	0.000077
C30	C	1.147956	0.637129	0.500077
C31	C	0.590090	0.193363	0.000069
C32	C	1.090090	0.693363	0.500069
C33	C	0.482920	0.185298	0.000083
C34	C	0.982920	0.685298	0.500083
C35	C	0.755137	0.145193	0.000063
C36	C	1.255137	0.645193	0.500063
C37	C	1.210552	-0.078939	0.000125
C38	C	1.710552	0.421061	0.500125
C39	C	1.209099	-0.151857	0.000108
C40	C	1.709099	0.348143	0.500108
C41	C	1.122010	-0.185374	0.000098
C42	C	1.622010	0.314626	0.500098
C43	C	1.036370	-0.145968	0.000079
C44	C	1.536370	0.354032	0.500079
C45	C	1.037826	-0.073051	0.000086
C46	C	1.537826	0.426949	0.500086
N47	N	1.051706	-0.295160	0.060886
N48	N	1.551706	0.204840	0.560886
N49	N	1.050328	-0.364427	0.060882
N50	N	1.550328	0.135573	0.560882
C51	C	1.117616	-0.405067	0.000076
C52	C	1.617616	0.094933	0.500076
N53	N	1.186348	-0.373823	-0.060712
N54	N	1.686348	0.126177	0.439288
N55	N	1.187729	-0.304548	-0.060704
N56	N	1.687729	0.195452	0.439296
C57	C	1.120421	-0.264440	0.000091
C58	C	1.620421	0.235560	0.500091
C59	C	1.201676	-0.523532	0.000069
C60	C	1.701676	-0.023532	0.500069
C61	C	1.200219	-0.596451	0.000045
C62	C	1.700219	-0.096451	0.500045
C63	C	1.027487	-0.590560	0.000028
C64	C	1.527487	-0.090560	0.500028
C65	C	1.028947	-0.517642	0.000041
C66	C	1.528947	-0.017642	0.500041
C67	C	1.116043	-0.484132	0.000067
C68	C	1.616043	0.015868	0.500067
C69	C	1.292301	0.170943	0.000092
C70	C	1.792301	0.670943	0.500092
C71	C	1.397493	0.178872	0.000094
C72	C	1.897493	0.678872	0.500094
C73	C	1.111580	0.292433	0.000051
C74	C	1.611580	0.792433	0.500051
C75	C	1.113129	0.370037	0.000034
C76	C	1.613129	0.870037	0.500034
N77	N	1.103414	0.175766	0.254299
N78	N	1.603414	0.675766	0.754299
N79	N	1.134645	0.154724	-0.254143
N80	N	1.634645	0.654724	0.245857
C81	C	1.089995	0.184816	0.473411
C82	C	1.589995	0.684816	0.973411
C83	C	1.148061	0.145676	0.526752
C84	C	1.648061	0.645676	1.026752
C85	C	1.140595	0.150712	0.648673
C86	C	1.640595	0.650712	1.148673
C87	C	1.097461	0.179782	0.351478
C88	C	1.597461	0.679782	0.851478
H89	H	0.617011	0.082933	0.000094
H90	H	1.117011	0.582933	0.500094
C91	C	0.631892	0.266583	0.000029
C92	C	1.131892	0.766583	0.500029
H93	H	0.699485	0.262470	0.000010
H94	H	1.199485	0.762470	0.500010
H95	H	0.607183	0.293811	0.062314
H96	H	1.107183	0.793811	0.562314
H97	H	0.614811	0.288635	-0.062285
H98	H	1.114811	0.788635	0.437715
C99	C	1.306355	-0.042082	0.000134
C100	C	1.806355	0.457918	0.500134
H101	H	1.357146	-0.075995	0.000129
H102	H	1.857146	0.424005	0.500129
H103	H	1.306692	-0.011187	0.062428
H104	H	1.806692	0.488813	0.562428
H105	H	1.314339	-0.016335	-0.062170
H106	H	1.814339	0.483665	0.437830
H107	H	1.278831	-0.183941	0.000114
H108	H	1.778831	0.316059	0.500114
C109	C	1.015277	0.235196	0.535409
C110	C	1.515277	0.735196	1.035409
H111	H	1.020007	0.232018	0.610407
H112	H	1.520007	0.732018	1.110407
H113	H	0.953139	0.222991	0.517055
H114	H	1.453139	0.722991	1.017055
H115	H	1.026605	0.281666	0.517033
H116	H	1.526605	0.781666	1.017033
C117	C	0.940575	-0.182833	0.000073
C118	C	1.440575	0.317167	0.500073
H119	H	0.951970	-0.231902	0.000082
H120	H	1.451970	0.268098	0.500082
H121	H	0.909155	-0.172245	-0.062225
H122	H	1.409155	0.327755	0.437775
H123	H	0.901503	-0.167101	0.062374
H124	H	1.401503	0.332899	0.562374
C125	C	0.943630	-0.029712	0.000081
C126	C	1.443630	0.470288	0.500081
H127	H	0.891552	-0.060113	0.000078
H128	H	1.391552	0.439887	0.500078
H129	H	0.944434	-0.003710	-0.062208
H130	H	1.444434	0.496290	0.437792
H131	H	0.936782	0.001421	0.062391
H132	H	1.436782	0.501421	0.562391
H133	H	0.956578	-0.617849	0.000015
H134	H	1.456578	-0.117849	0.500015
H135	H	1.203381	0.108386	0.480852
H136	H	1.703381	0.608386	0.980852
C137	C	1.297476	-0.486668	0.000085
C138	C	1.797476	0.013332	0.500085
H139	H	1.348269	-0.520579	0.000075
H140	H	1.848269	-0.020579	0.500075
H141	H	1.297809	-0.455778	0.062386
H142	H	1.797809	0.044222	0.562386
H143	H	1.305460	-0.460914	-0.062213
H144	H	1.805460	0.039086	0.437787
H145	H	0.959218	-0.485563	0.000036
H146	H	1.459218	0.014437	0.500036
C147	C	1.294416	-0.639789	0.000062
C148	C	1.794416	-0.139789	0.500062
H149	H	1.346491	-0.609385	0.000089
H150	H	1.846491	-0.109385	0.500089
H151	H	1.301274	-0.670926	-0.062236
H152	H	1.801274	-0.170926	0.437764
H153	H	1.293601	-0.665786	0.062363
H154	H	1.793601	-0.165786	0.562363
