data_functionalizedCrystal
_audit_creation_method	'MofGen! by Chris Wilmer'
_symmetry_space_group_name_H-M	'P1'
_symmetry_Int_Tables_number	1
_symmetry_cell_setting	triclinic
loop_
_symmetry_equiv_pos_as_xyz
  x,y,z
_cell_length_a	23.532407
_cell_length_b	23.532409
_cell_length_c	22.610064
_cell_angle_alpha	90.007112
_cell_angle_beta	89.997161
_cell_angle_gamma	82.849119
loop_
_atom_site_label
_atom_site_type_symbol
_atom_site_fract_x
_atom_site_fract_y
_atom_site_fract_z
O1	O	0.755264	0.069127	-0.049107
O2	O	1.255264	0.569127	0.450893
O3	O	0.589401	0.079130	-0.049124
O4	O	1.089401	0.579130	0.450876
O5	O	0.677333	-0.008803	-0.049116
O6	O	1.177333	0.491197	0.450884
O7	O	0.667331	0.157060	-0.049115
O8	O	1.167331	0.657060	0.450885
O9	O	0.677318	-0.008790	0.049254
O10	O	1.177318	0.491210	0.549254
O11	O	0.589385	0.079143	0.049245
O12	O	1.089385	0.579143	0.549245
O13	O	0.755248	0.069140	0.049262
O14	O	1.255248	0.569140	0.549262
Zn15	Zn	0.672314	0.074143	0.064872
Zn16	Zn	1.172314	0.574143	0.564872
Zn17	Zn	0.672335	0.074127	-0.064734
Zn18	Zn	1.172335	0.574127	0.435266
O19	O	0.667316	0.157073	0.049254
O20	O	1.167316	0.657073	0.549254
C21	C	0.568177	0.078882	0.000059
C22	C	1.068177	0.578882	0.500059
C23	C	0.504960	0.078116	0.000052
C24	C	1.004960	0.578116	0.500052
C25	C	0.105857	0.125349	0.000079
C26	C	0.605857	0.625349	0.500079
C27	C	0.046457	0.124638	0.000083
C28	C	0.546457	0.624638	0.500083
O29	O	0.009713	0.168424	0.000104
O30	O	0.509713	0.668424	0.500104
N31	N	0.023830	0.072362	0.000081
N32	N	0.523830	0.572362	0.500081
C33	C	0.060608	0.020794	0.000083
C34	C	0.560608	0.520794	0.500083
O35	O	0.035908	-0.023737	0.000083
O36	O	0.535908	0.476263	0.500083
C37	C	0.120007	0.021506	0.000083
C38	C	0.620007	0.521506	0.500083
C39	C	0.142630	0.073785	0.000078
C40	C	0.642630	0.573785	0.500078
C41	C	0.128481	0.177625	0.000075
C42	C	0.628481	0.677625	0.500075
C43	C	0.187877	0.178336	0.000070
C44	C	0.687877	0.678336	0.500070
C45	C	0.224649	0.126772	0.000069
C46	C	0.724649	0.626772	0.500069
C47	C	0.202026	0.074496	0.000074
C48	C	0.702026	0.574496	0.500074
C49	C	0.156783	-0.030062	0.000089
C50	C	0.656783	0.469938	0.500089
C51	C	0.216185	-0.029345	0.000090
C52	C	0.716185	0.470655	0.500090
C53	C	0.238808	0.022934	0.000085
C54	C	0.738808	0.522934	0.500085
C55	C	0.298195	0.023643	0.000068
C56	C	0.798195	0.523643	0.500068
N57	N	0.320821	0.075920	0.000070
N58	N	0.820821	0.575920	0.500070
C59	C	0.284049	0.127484	0.000070
C60	C	0.784049	0.627484	0.500070
C61	C	-0.064135	0.019302	0.000082
C62	C	0.435865	0.519302	0.500082
C63	C	-0.123533	0.018589	0.000078
C64	C	0.376467	0.518589	0.500078
C65	C	-0.137679	0.122434	0.000079
C66	C	0.362321	0.622434	0.500079
C67	C	-0.078280	0.123146	0.000079
C68	C	0.421720	0.623146	0.500079
C69	C	-0.041508	0.071578	0.000084
C70	C	0.458492	0.571578	0.500084
C71	C	0.408785	0.128974	0.000060
C72	C	0.908785	0.628974	0.500060
C73	C	0.468187	0.129680	0.000052
C74	C	0.968187	0.629680	0.500052
C75	C	0.482329	0.025836	0.000055
C76	C	0.982329	0.525836	0.500055
C77	C	0.422932	0.025129	0.000059
C78	C	0.922932	0.525129	0.500059
C79	C	0.386161	0.076702	0.000063
C80	C	0.886161	0.576702	0.500063
O81	O	0.334973	-0.020119	0.000049
O82	O	0.834973	0.479881	0.500049
O83	O	0.308757	0.172007	0.000078
O84	O	0.808757	0.672007	0.500078
C85	C	0.677071	-0.030013	0.000067
C86	C	1.177071	0.469987	0.500067
C87	C	0.676304	-0.093230	0.000063
C88	C	1.176304	0.406770	0.500063
C89	C	0.673054	-0.366482	-0.053561
C90	C	1.173054	0.133518	0.446439
C91	C	0.673765	-0.307081	-0.053561
C92	C	1.173765	0.192919	0.446439
O93	O	0.674161	-0.276363	-0.099162
O94	O	1.174161	0.223637	0.400838
N95	N	0.674109	-0.277372	0.000061
N96	N	1.174109	0.222628	0.500061
C97	C	0.673747	-0.307067	0.053687
C98	C	1.173747	0.192933	0.553687
O99	O	0.674105	-0.276343	0.099296
O100	O	1.174105	0.223657	0.599296
C101	C	0.673040	-0.366467	0.053686
C102	C	1.173040	0.133533	0.553686
C103	C	0.672690	-0.396172	0.000060
C104	C	1.172690	0.103828	0.500060
C105	C	0.672705	-0.396187	-0.107182
C106	C	1.172705	0.103813	0.392818
C107	C	0.671992	-0.455583	-0.107182
C108	C	1.171992	0.044417	0.392818
C109	C	0.671628	-0.485274	-0.053560
C110	C	1.171628	0.014726	0.446440
C111	C	0.671977	-0.455568	0.000061
C112	C	1.171977	0.044432	0.500061
C113	C	0.672682	-0.396161	0.107311
C114	C	1.172682	0.103839	0.607311
C115	C	0.671974	-0.455565	0.107306
C116	C	1.171974	0.044435	0.607306
C117	C	0.671625	-0.485270	0.053680
C118	C	1.171625	0.014730	0.553680
C119	C	0.670901	-0.544655	0.053682
C120	C	1.170901	-0.044655	0.553682
N121	N	0.670557	-0.574364	0.000060
N122	N	1.170557	-0.074364	0.500060
C123	C	0.670921	-0.544673	-0.053561
C124	C	1.170921	-0.044673	0.446439
C125	C	0.675234	-0.182324	0.053684
C126	C	1.175234	0.317676	0.553684
C127	C	0.675937	-0.122925	0.053685
C128	C	1.175937	0.377075	0.553685
C129	C	0.675957	-0.122943	-0.053563
C130	C	1.175957	0.377057	0.446437
C131	C	0.675249	-0.182343	-0.053563
C132	C	1.175249	0.317657	0.446437
C133	C	0.674890	-0.212033	0.000062
C134	C	1.174890	0.287967	0.500062
C135	C	0.669424	-0.669409	-0.053556
C136	C	1.169424	-0.169409	0.446444
C137	C	0.668709	-0.728810	-0.053551
C138	C	1.168709	-0.228810	0.446449
C139	C	0.668692	-0.728787	0.053696
C140	C	1.168692	-0.228787	0.553696
C141	C	0.669404	-0.669391	0.053691
C142	C	1.169404	-0.169391	0.553691
C143	C	0.669772	-0.639703	0.000060
C144	C	1.169772	-0.139703	0.500060
O145	O	0.670508	-0.575412	0.099260
O146	O	1.170508	-0.075412	0.599260
O147	O	0.670570	-0.575406	-0.099163
O148	O	1.170570	-0.075406	0.400837
C149	C	0.776472	0.069388	0.000078
C150	C	1.276472	0.569388	0.500078
C151	C	0.839689	0.070154	0.000081
C152	C	1.339689	0.570154	0.500081
C153	C	0.667579	0.178283	0.000070
C154	C	1.167579	0.678283	0.500070
C155	C	0.668345	0.241500	0.000070
C156	C	1.168345	0.741500	0.500070
N157	N	0.672305	0.074155	0.153324
N158	N	1.172305	0.574155	0.653324
N159	N	0.672349	0.074111	-0.153186
N160	N	1.172349	0.574111	0.346814
C161	C	0.711273	0.035196	0.561969
C162	C	1.211273	0.535196	1.061969
C163	C	0.711276	0.035192	0.623889
C164	C	1.211276	0.535192	1.123889
O165	O	0.744384	0.002076	0.655911
O166	O	1.244384	0.502076	1.155911
N167	N	0.672334	0.074115	0.654862
N168	N	1.172334	0.574115	1.154862
C169	C	0.633384	0.113041	0.623911
C170	C	1.133384	0.613041	1.123911
O171	O	0.600261	0.146147	0.655941
O172	O	1.100261	0.646147	1.155941
C173	C	0.633378	0.113042	0.561992
C174	C	1.133378	0.613042	1.061992
C175	C	0.672326	0.074120	0.531023
C176	C	1.172326	0.574120	1.031023
C177	C	0.750218	-0.003724	0.531000
C178	C	1.250218	0.496276	1.031000
C179	C	0.750215	-0.003719	0.469085
C180	C	1.250215	0.496281	0.969085
C181	C	0.711268	0.035206	0.438138
C182	C	1.211268	0.535206	0.938138
C183	C	0.672324	0.074125	0.469107
C184	C	1.172324	0.574125	0.969107
C185	C	0.594425	0.151965	0.531042
C186	C	1.094425	0.651965	1.031042
C187	C	0.594423	0.151962	0.469119
C188	C	1.094423	0.651962	0.969119
C189	C	0.633371	0.113040	0.438150
C190	C	1.133371	0.613040	0.938150
C191	C	0.633375	0.113054	0.376245
C192	C	1.133375	0.613054	0.876245
N193	N	0.672316	0.074131	0.345273
N194	N	1.172316	0.574131	0.845273
C195	C	0.711263	0.035207	0.376219
C196	C	1.211263	0.535207	0.876219
C197	C	0.633397	0.113035	0.753944
C198	C	1.133397	0.613035	1.253944
C199	C	0.633404	0.113037	0.815862
C200	C	1.133404	0.613037	1.315862
C201	C	0.711296	0.035187	0.815836
C202	C	1.211296	0.535187	1.315836
C203	C	0.711291	0.035188	0.753918
C204	C	1.211291	0.535188	1.253918
C205	C	0.672338	0.074112	0.722972
C206	C	1.172338	0.574112	1.222972
C207	C	0.711256	0.035220	0.246192
C208	C	1.211256	0.535220	0.746192
C209	C	0.711251	0.035230	0.184271
C210	C	1.211251	0.535230	0.684271
C211	C	0.633358	0.113078	0.184302
C212	C	1.133358	0.613078	0.684302
C213	C	0.633364	0.113071	0.246218
C214	C	1.133364	0.613071	0.746218
C215	C	0.672315	0.074137	0.277161
C216	C	1.172315	0.574137	0.777161
O217	O	0.600282	0.146151	0.344184
O218	O	1.100282	0.646151	0.844184
O219	O	0.744376	0.002101	0.344182
O220	O	1.244376	0.502101	0.844182
H221	H	0.404512	-0.017441	0.000054
H222	H	0.904512	0.482559	0.500054
H223	H	0.669724	-0.645245	-0.097228
H224	H	1.169724	-0.145245	0.402772
H225	H	0.246123	-0.071339	0.000094
H226	H	0.746123	0.428661	0.500094
H227	H	0.673003	-0.372020	-0.150849
H228	H	1.173003	0.127980	0.349151
Cl229	Cl	0.760255	-0.013745	0.714992
Cl230	Cl	1.260255	0.486255	1.214992
H231	H	0.676211	-0.098742	0.097352
H232	H	1.176211	0.401258	0.597352
Cl233	Cl	0.760257	-0.013747	0.854753
Cl234	Cl	1.260257	0.486253	1.354753
H235	H	0.512279	-0.016146	0.000052
H236	H	1.012279	0.483854	0.500052
Cl237	Cl	0.668268	-0.766150	-0.120971
Cl238	Cl	1.168268	-0.266150	0.379029
H239	H	0.671712	-0.479764	-0.150849
H240	H	1.171712	0.020236	0.349151
Cl241	Cl	-0.151966	-0.047136	0.000069
Cl242	Cl	0.348034	0.452864	0.500069
H243	H	0.676251	-0.098758	-0.097224
H244	H	1.176251	0.401242	0.402776
H245	H	-0.034198	-0.022693	0.000081
H246	H	0.465802	0.477307	0.500081
H247	H	0.138374	-0.072634	0.000093
H248	H	0.638374	0.427366	0.500093
H249	H	0.781933	-0.035423	0.556192
H250	H	1.281933	0.464577	1.056192
H251	H	0.098546	0.219617	0.000077
H252	H	0.598546	0.719617	0.500077
Cl253	Cl	0.362568	0.193810	0.000065
Cl254	Cl	0.862568	0.693810	0.500065
Cl255	Cl	0.674776	-0.219642	0.121105
Cl256	Cl	1.174776	0.280358	0.621105
Cl257	Cl	0.674812	-0.219681	-0.120981
Cl258	Cl	1.174812	0.280319	0.379019
H259	H	0.672972	-0.371986	0.150979
H260	H	1.172972	0.128014	0.650979
Cl261	Cl	0.671525	-0.492886	0.174725
Cl262	Cl	1.171525	0.007114	0.674725
Cl263	Cl	0.669843	-0.632046	0.121107
Cl264	Cl	1.169843	-0.132046	0.621107
H265	H	0.668394	-0.752971	0.097353
H266	H	1.168394	-0.252971	0.597353
Cl267	Cl	0.760219	-0.013703	0.145342
Cl268	Cl	1.260219	0.486297	0.645342
H269	H	0.742973	0.003516	0.271379
H270	H	1.242973	0.503516	0.771379
Cl271	Cl	0.799176	-0.052654	0.430159
Cl272	Cl	1.299176	0.447346	0.930159
H273	H	-0.059865	0.165717	0.000079
H274	H	0.440135	0.665717	0.500079
Cl275	Cl	-0.183919	0.187258	0.000082
Cl276	Cl	0.316081	0.687258	0.500082
Cl277	Cl	0.584447	0.161977	0.854788
Cl278	Cl	1.084447	0.661977	1.354788
Cl279	Cl	0.584427	0.161977	0.715047
Cl280	Cl	1.084427	0.661977	1.215047
Cl281	Cl	0.545458	0.200896	0.569962
Cl282	Cl	1.045458	0.700896	1.069962
Cl283	Cl	0.545450	0.200897	0.430221
Cl284	Cl	1.045450	0.700897	0.930221
H285	H	0.601654	0.144770	0.271433
H286	H	1.101654	0.644770	0.771433
Cl287	Cl	0.584398	0.162010	0.145388
Cl288	Cl	1.084398	0.662010	0.645388
H289	H	0.206291	0.220907	0.000066
H290	H	0.706291	0.720907	0.500066
Cl291	Cl	0.496623	0.195408	0.000045
Cl292	Cl	0.996623	0.695408	0.500045
