data_functionalizedCrystal
_audit_creation_method	'MofGen! by Chris Wilmer'
_symmetry_space_group_name_H-M	'P1'
_symmetry_Int_Tables_number	1
_symmetry_cell_setting	triclinic
loop_
_symmetry_equiv_pos_as_xyz
  x,y,z
_cell_length_a	16.974829
_cell_length_b	15.625429
_cell_length_c	15.455313
_cell_angle_alpha	74.616881
_cell_angle_beta	83.671566
_cell_angle_gamma	82.694513
loop_
_atom_site_label
_atom_site_type_symbol
_atom_site_fract_x
_atom_site_fract_y
_atom_site_fract_z
O1	O	1.057882	0.105116	-0.179446
O2	O	0.827145	0.120368	-0.168047
O3	O	0.946730	-0.016297	-0.133456
O4	O	0.938297	0.241782	-0.214037
O5	O	0.939891	-0.008514	0.008838
O6	O	0.820306	0.128151	-0.025753
O7	O	1.051043	0.112899	-0.037152
Cu8	Cu	0.935050	0.121236	-0.018460
Cu9	Cu	0.943138	0.112031	-0.186739
O10	O	0.931458	0.249565	-0.071743
C11	C	0.794160	0.123823	-0.094688
C12	C	0.706065	0.122512	-0.088092
C13	C	0.209781	0.115614	-0.042649
C14	C	0.292555	0.116846	-0.048848
C15	C	0.337672	0.113213	-0.129511
C16	C	0.300008	0.108356	-0.203983
C17	C	0.217234	0.107131	-0.197785
C18	C	0.585628	0.116429	-0.156366
C19	C	0.668408	0.117653	-0.162558
C20	C	0.660949	0.126144	-0.007422
C21	C	0.578175	0.124913	-0.001230
C22	C	0.540518	0.120061	-0.075703
N23	N	0.422281	0.114470	-0.135848
N24	N	0.455909	0.118811	-0.069367
C25	C	0.942252	-0.045420	-0.051852
C26	C	0.939088	-0.143793	-0.020694
C27	C	0.947297	-0.488542	-0.306010
C28	C	0.944319	-0.580976	-0.276706
C29	C	0.936864	-0.572478	-0.121586
C30	C	0.939845	-0.480042	-0.150878
C31	C	0.945060	-0.438081	-0.243090
C32	C	0.937609	-0.429581	-0.087958
C33	C	0.940586	-0.337152	-0.117248
C34	C	0.945799	-0.295184	-0.209456
C35	C	0.948037	-0.345652	-0.272380
C36	C	0.932387	-0.471542	0.004254
C37	C	0.930151	-0.421081	0.067173
C38	C	0.933134	-0.328651	0.037884
C39	C	0.938347	-0.286683	-0.054324
C40	C	0.930895	-0.278183	0.100808
C41	C	0.933872	-0.185754	0.071518
C42	C	0.941324	-0.194254	-0.083614
C43	C	1.084028	0.109444	-0.110513
C44	C	1.172123	0.110755	-0.117114
C45	C	0.935937	0.278688	-0.153349
C46	C	0.939101	0.377060	-0.184512
N47	N	0.929367	0.127709	0.099899
N48	N	0.948827	0.105551	-0.305096
C49	C	0.980190	0.069670	0.159980
C50	C	0.975899	0.074574	0.249547
C51	C	0.920790	0.137521	0.279028
C52	C	0.869963	0.195563	0.218940
C53	C	0.874250	0.190654	0.129376
C54	C	0.902286	0.158684	0.545252
C55	C	0.898005	0.163590	0.634822
C56	C	1.003941	0.042599	0.665424
C57	C	1.008226	0.037700	0.575856
C58	C	0.957396	0.095738	0.515777
N59	N	0.916405	0.142537	0.370579
N60	N	0.961777	0.090718	0.424230
H61	H	0.541448	0.127852	0.064461
H62	H	0.825088	0.246813	0.242949
H63	H	0.832864	0.237915	0.080457
O64	O	0.548975	0.111592	-0.228605
C65	C	0.509065	0.033870	-0.206066
H66	H	0.496005	0.011789	-0.129924
H67	H	0.450697	0.048473	-0.239846
H68	H	0.548218	-0.021498	-0.230204
H69	H	1.045324	-0.004654	0.714349
O70	O	0.712311	0.114252	-0.240907
C71	C	0.752669	0.191464	-0.272731
H72	H	0.759247	0.220916	-0.214176
H73	H	0.814196	0.173268	-0.304600
H74	H	0.717202	0.242643	-0.325150
H75	H	1.053100	-0.013557	0.551856
O76	O	0.852881	0.215158	0.487005
C77	C	0.803312	0.271755	0.532240
H78	H	0.832802	0.276112	0.593519
H79	H	0.793594	0.341165	0.484851
H80	H	0.743460	0.243755	0.554928
O81	O	0.946585	-0.630087	-0.337764
C82	C	1.013592	-0.694178	-0.327056
H83	H	1.032759	-0.707827	-0.255840
H84	H	0.997659	-0.758623	-0.338966
H85	H	1.064540	-0.667912	-0.377703
H86	H	0.173052	0.118577	0.023035
H87	H	0.691618	0.130096	0.053209
H88	H	0.336748	0.105404	-0.269662
O89	O	0.180781	0.102370	-0.270195
C90	C	0.238347	0.099450	-0.342728
H91	H	0.299084	0.073507	-0.315780
H92	H	0.221368	0.053109	-0.381961
H93	H	0.241136	0.169370	-0.389093
O94	O	0.931696	-0.613329	-0.032037
C95	C	0.861242	-0.656141	-0.008896
H96	H	0.841186	-0.670215	-0.071335
H97	H	0.872982	-0.721675	0.044177
H98	H	0.812588	-0.611156	0.019183
O99	O	1.025360	0.018163	0.307779
C100	C	1.074913	-0.038454	0.262555
H101	H	1.079443	-0.005622	0.187175
H102	H	1.136811	-0.050812	0.288317
H103	H	1.048558	-0.104709	0.275605
H104	H	0.323212	0.120801	0.011791
O105	O	0.946265	-0.153490	-0.173193
C106	C	0.879327	-0.168275	-0.211720
H107	H	0.828438	-0.183957	-0.157224
H108	H	0.859995	-0.105916	-0.265634
H109	H	0.895418	-0.226904	-0.243457
H110	H	0.853126	0.214853	0.658819
O111	O	0.948664	-0.205401	-0.238065
C112	C	0.953768	-0.179192	-0.332944
H113	H	0.929122	-0.231071	-0.359420
H114	H	0.917589	-0.111796	-0.356390
H115	H	1.018719	-0.173516	-0.359745
H116	H	0.952291	-0.311486	-0.347468
H117	H	0.951551	-0.454376	-0.381099
O118	O	0.929454	-0.561314	0.032862
C119	C	0.924385	-0.587532	0.127741
H120	H	0.898947	-0.528065	0.155346
H121	H	0.883769	-0.643292	0.152912
H122	H	0.986339	-0.612439	0.151686
O123	O	0.925790	-0.318802	0.190413
C124	C	0.924477	-0.254446	0.239668
H125	H	0.902658	-0.186008	0.196615
H126	H	0.882608	-0.272357	0.303242
H127	H	0.987100	-0.252932	0.258976
O128	O	0.924947	-0.461786	0.156757
C129	C	0.854922	-0.426220	0.198343
H130	H	0.810040	-0.396040	0.145992
H131	H	0.828284	-0.481594	0.253307
H132	H	0.869818	-0.372268	0.229357
O133	O	1.033601	0.008446	0.131303
C134	C	0.992679	-0.048892	0.099745
H135	H	0.931837	-0.014031	0.079437
H136	H	1.028576	-0.066564	0.038931
H137	H	0.984534	-0.112445	0.155347
H138	H	0.932034	-0.144665	0.122754
