data_functionalizedCrystal
_audit_creation_method	'MofGen! by Chris Wilmer'
_symmetry_space_group_name_H-M	'P1'
_symmetry_Int_Tables_number	1
_symmetry_cell_setting	triclinic
loop_
_symmetry_equiv_pos_as_xyz
  x,y,z
_cell_length_a	6.817900
_cell_length_b	12.908942
_cell_length_c	12.200875
_cell_angle_alpha	94.778059
_cell_angle_beta	107.143593
_cell_angle_gamma	100.860556
loop_
_atom_site_label
_atom_site_type_symbol
_atom_site_fract_x
_atom_site_fract_y
_atom_site_fract_z
V1	V	-4.054744	-0.146091	-0.357022
O2	O	-4.055669	0.006774	-0.350882
O3	O	-3.992658	-0.289438	-0.353948
O4	O	-4.024666	-0.143952	-0.513019
O5	O	-4.023440	-0.139719	-0.190710
V6	V	-4.537771	-0.127794	-0.337206
O7	O	-4.317090	-0.186228	-0.400489
O8	O	-4.725622	-0.087658	-0.293739
O9	O	-4.376650	0.015552	-0.340280
O10	O	-4.654243	-0.280660	-0.343346
O11	O	-4.686472	-0.134167	-0.503518
O12	O	-4.344643	-0.129933	-0.181209
C13	C	-3.833737	-0.324379	-0.348153
C14	C	-3.864384	-0.441567	-0.346680
C15	C	-3.874565	-0.138797	-0.551063
C16	C	-3.931165	-0.137996	-0.678587
C17	C	-4.286580	-0.672526	-0.355337
C18	C	-4.315385	-0.782635	-0.353953
C19	C	-3.950805	-0.771898	-0.342538
C20	C	-3.922000	-0.661789	-0.343921
C21	C	-4.089895	-0.612107	-0.350319
C22	C	-4.061083	-0.501995	-0.351695
C23	C	-3.696510	-0.491260	-0.340287
C24	C	-3.725315	-0.601369	-0.338904
C25	C	-4.034753	-0.136532	-0.912068
C26	C	-3.977101	-0.137346	-0.782143
C27	C	-4.198912	0.050488	-0.346072
C28	C	-4.147504	0.167675	-0.347552
C29	C	-4.158085	-0.135092	-0.143159
C30	C	-4.080723	-0.135887	-0.015633
H31	H	-4.423279	-0.632072	-0.360529
O32	O	-4.506383	-0.841249	-0.358618
C33	C	-4.561766	-0.803217	-0.262697
H34	H	-4.413294	-0.759765	-0.190022
H35	H	-4.647122	-0.873238	-0.230892
H36	H	-4.669664	-0.745897	-0.289611
O37	O	-4.224000	-0.453650	-0.357705
C38	C	-4.169744	-0.375894	-0.259115
H39	H	-4.041095	-0.395987	-0.185739
H40	H	-4.314368	-0.374570	-0.230701
H41	H	-4.109899	-0.294250	-0.281179
O42	O	-3.787762	-0.820145	-0.336528
C43	C	-3.718275	-0.804315	-0.433121
H44	H	-3.850901	-0.787227	-0.506559
H45	H	-3.670810	-0.879115	-0.463106
H46	H	-3.576929	-0.733807	-0.407809
O47	O	-3.562001	-0.649494	-0.332526
C48	C	-3.395610	-0.604972	-0.229626
H49	H	-3.410365	-0.521761	-0.199001
H50	H	-3.238763	-0.599526	-0.246875
H51	H	-3.403153	-0.657626	-0.159794
H52	H	-3.536350	-0.442054	-0.336200
