data_functionalizedCrystal
_audit_creation_method	'MofGen! by Chris Wilmer'
_symmetry_space_group_name_H-M	'P1'
_symmetry_Int_Tables_number	1
_symmetry_cell_setting	triclinic
loop_
_symmetry_equiv_pos_as_xyz
  x,y,z
_cell_length_a	14.044220
_cell_length_b	14.044220
_cell_length_c	7.540329
_cell_angle_alpha	90.001925
_cell_angle_beta	89.995368
_cell_angle_gamma	93.188878
loop_
_atom_site_label
_atom_site_type_symbol
_atom_site_fract_x
_atom_site_fract_y
_atom_site_fract_z
O1	O	0.230166	1.277166	-0.147301
O2	O	0.730166	1.777166	0.352699
O3	O	0.221860	1.000494	-0.147345
O4	O	0.721860	1.500494	0.352655
O5	O	0.087677	1.134677	-0.147306
O6	O	0.587677	1.634677	0.352694
O7	O	0.364349	1.142983	-0.147340
O8	O	0.864349	1.642983	0.352660
O9	O	0.087675	1.134668	0.147659
O10	O	0.587675	1.634668	0.647659
O11	O	0.221858	1.000486	0.147620
O12	O	0.721858	1.500486	0.647620
O13	O	0.230163	1.277157	0.147664
O14	O	0.730163	1.777157	0.647664
Cu15	Cu	0.226010	1.138820	0.174575
Cu16	Cu	0.726010	1.638820	0.674575
Cu17	Cu	0.226013	1.138831	-0.174256
Cu18	Cu	0.726013	1.638831	0.325744
O19	O	0.364346	1.142974	0.147625
O20	O	0.864346	1.642974	0.647625
C21	C	0.218223	0.964868	0.000131
C22	C	0.718223	1.464868	0.500131
C23	C	0.207379	0.858725	0.000115
C24	C	0.707379	1.358725	0.500115
C25	C	0.187553	0.664388	0.000153
C26	C	0.687553	1.164388	0.500153
C27	C	0.264467	0.613258	0.000151
C28	C	0.764467	1.113258	0.500151
C29	C	0.253435	0.505122	0.000172
C30	C	0.753435	1.005122	0.500172
C31	C	0.198583	0.772534	0.000132
C32	C	0.698583	1.272534	0.500132
C33	C	0.052054	1.131037	0.000176
C34	C	0.552054	1.631037	0.500176
C35	C	-0.054088	1.120193	0.000177
C36	C	0.445912	1.620193	0.500177
C37	C	-0.248426	1.100366	0.000148
C38	C	0.251574	1.600366	0.500148
C39	C	-0.299556	1.177281	0.000155
C40	C	0.200444	1.677281	0.500155
C41	C	-0.407692	1.166249	0.000139
C42	C	0.092308	1.666249	0.500139
C43	C	-0.140280	1.111397	0.000164
C44	C	0.359720	1.611397	0.500164
C45	C	0.399969	1.146614	0.000138
C46	C	0.899969	1.646614	0.500138
C47	C	0.506112	1.157459	0.000126
C48	C	1.006112	1.657459	0.500126
C49	C	0.233800	1.312783	0.000183
C50	C	0.733800	1.812783	0.500183
C51	C	0.244645	1.418926	0.000188
C52	C	0.744645	1.918926	0.500188
N53	N	0.226008	1.138820	0.419923
N54	N	0.726008	1.638820	0.919923
N55	N	0.226009	1.138838	-0.419604
N56	N	0.726009	1.638838	0.080396
H57	H	-0.285863	1.026239	0.000132
H58	H	0.214137	1.526239	0.500132
C59	C	0.364619	0.663828	0.000126
C60	C	0.864619	1.163828	0.500126
C61	C	0.375661	0.773535	0.000104
C62	C	0.875661	1.273535	0.500104
C63	C	0.475810	0.824109	0.000078
C64	C	0.975810	1.324109	0.500078
C65	C	0.564916	0.764976	0.000075
C66	C	1.064916	1.264976	0.500075
C67	C	0.553877	0.655263	0.000097
C68	C	1.053877	1.155263	0.500097
C69	C	0.453729	0.604688	0.000123
C70	C	0.953729	1.104688	0.500123
H71	H	0.309697	0.817314	0.000106
H72	H	0.809697	1.317314	0.500106
H73	H	0.483981	0.905327	0.000062
H74	H	0.983981	1.405327	0.500062
H75	H	0.639052	0.802414	0.000056
H76	H	1.139052	1.302414	0.500056
H77	H	0.619841	0.611483	0.000095
H78	H	1.119841	1.111483	0.500095
H79	H	0.445557	0.523471	0.000139
H80	H	0.945557	1.023471	0.500139
C81	C	0.087407	0.613818	0.000156
C82	C	0.587407	1.113818	0.500156
C83	C	0.076375	0.504110	0.000162
C84	C	0.576375	1.004110	0.500162
C85	C	-0.023769	0.453527	0.000155
C86	C	0.476231	0.953527	0.500155
C87	C	-0.112881	0.512652	0.000142
C88	C	0.387119	1.012652	0.500142
C89	C	-0.101852	0.622366	0.000136
C90	C	0.398148	1.122366	0.500136
C91	C	-0.001708	0.672949	0.000143
C92	C	0.498292	1.172949	0.500143
H93	H	0.142344	0.460337	0.000171
H94	H	0.642344	0.960337	0.500171
H95	H	-0.031933	0.372309	0.000159
H96	H	0.468067	0.872309	0.500159
H97	H	-0.187014	0.475207	0.000137
H98	H	0.312986	0.975207	0.500137
H99	H	-0.167821	0.666139	0.000126
H100	H	0.332179	1.166139	0.500126
H101	H	0.006456	0.754167	0.000138
H102	H	0.506456	1.254167	0.500138
H103	H	-0.262117	1.251414	0.000048
H104	H	0.237883	1.751414	0.500048
