data_functionalizedCrystal
_audit_creation_method	'MofGen! by Chris Wilmer'
_symmetry_space_group_name_H-M	'P1'
_symmetry_Int_Tables_number	1
_symmetry_cell_setting	triclinic
loop_
_symmetry_equiv_pos_as_xyz
  x,y,z
_cell_length_a	17.699104
_cell_length_b	17.699083
_cell_length_c	12.376457
_cell_angle_alpha	78.736074
_cell_angle_beta	101.253092
_cell_angle_gamma	83.287266
loop_
_atom_site_label
_atom_site_type_symbol
_atom_site_fract_x
_atom_site_fract_y
_atom_site_fract_z
O1	O	0.081201	1.018599	-0.093846
O2	O	0.414535	1.351932	0.239487
O3	O	0.747868	1.685266	0.572821
O4	O	0.093648	0.798227	-0.093884
O5	O	0.426981	1.131560	0.239450
O6	O	0.760314	1.464894	0.572783
O7	O	-0.022762	0.914629	-0.093854
O8	O	0.310571	1.247963	0.239480
O9	O	0.643905	1.581296	0.572813
O10	O	0.197611	0.902197	-0.093876
O11	O	0.530944	1.235530	0.239457
O12	O	0.864278	1.568863	0.572791
O13	O	0.006301	0.885539	0.094151
O14	O	0.339634	1.218872	0.427484
O15	O	0.672968	1.552206	0.760818
O16	O	0.122711	0.769137	0.094121
O17	O	0.456044	1.102470	0.427455
O18	O	0.789377	1.435804	0.760788
O19	O	0.110264	0.989509	0.094159
O20	O	0.443597	1.322842	0.427492
O21	O	0.776931	1.656175	0.760825
Zn22	Zn	0.121102	0.874704	0.123990
Zn23	Zn	0.454435	1.208038	0.457323
Zn24	Zn	0.787768	1.541371	0.790656
Zn25	Zn	0.082810	0.913032	-0.123715
Zn26	Zn	0.416143	1.246365	0.209619
Zn27	Zn	0.749477	1.579698	0.542952
O28	O	0.226674	0.873107	0.094129
O29	O	0.560007	1.206440	0.427462
O30	O	0.893340	1.539773	0.760795
C31	C	0.107732	0.755486	0.000114
C32	C	0.441066	1.088819	0.333447
C33	C	0.774399	1.422152	0.666781
C34	C	0.106392	0.671470	0.000100
C35	C	0.439725	1.004803	0.333434
C36	C	0.773058	1.338136	0.666767
C37	C	-0.036427	0.899636	0.000149
C38	C	0.296906	1.232969	0.333482
C39	C	0.630239	1.566303	0.666815
C40	C	-0.120444	0.898291	0.000149
C41	C	0.212889	1.231624	0.333482
C42	C	0.546222	1.564958	0.666816
C43	C	0.174723	0.622855	0.000094
C44	C	0.508057	0.956188	0.333427
C45	C	0.841390	1.289522	0.666760
C46	C	0.173463	0.543909	0.000108
C47	C	0.506797	0.877243	0.333442
C48	C	0.840130	1.210576	0.666775
C49	C	0.103870	0.513581	0.000122
C50	C	0.437203	0.846915	0.333455
C51	C	0.770536	1.180248	0.666788
C52	C	0.035533	0.562202	0.000132
C53	C	0.368866	0.895535	0.333465
C54	C	0.702200	1.228868	0.666798
C55	C	0.036795	0.641145	0.000125
C56	C	0.370128	0.974478	0.333458
C57	C	0.703462	1.307811	0.666792
C58	C	0.030442	0.243834	0.000160
C59	C	0.363776	0.577167	0.333493
C60	C	0.697109	0.910501	0.666827
C61	C	0.029185	0.164885	0.000163
C62	C	0.362518	0.498219	0.333497
C63	C	0.695852	0.831552	0.666830
C64	C	0.167110	0.146599	0.000144
C65	C	0.500444	0.479932	0.333477
C66	C	0.833777	0.813265	0.666810
C67	C	0.168372	0.225541	0.000137
C68	C	0.501706	0.558875	0.333470
C69	C	0.835039	0.892208	0.666804
C70	C	0.100037	0.274154	0.000153
C71	C	0.433371	0.607487	0.333486
C72	C	0.766704	0.940821	0.666819
C73	C	0.101405	0.359755	0.000139
C74	C	0.434738	0.693089	0.333472
C75	C	0.768071	1.026422	0.666806
C76	C	0.102500	0.427983	0.000127
C77	C	0.435833	0.761316	0.333461
C78	C	0.769167	1.094649	0.666794
C79	C	-0.645319	0.959038	0.000127
C80	C	-0.311985	1.292372	0.333461
C81	C	0.021348	1.625705	0.666794
C82	C	-0.566373	0.960296	0.000137
C83	C	-0.233040	1.293629	0.333471
C84	C	0.100293	1.626962	0.666804
C85	C	-0.517757	0.891962	0.000128
C86	C	-0.184424	1.225295	0.333462
C87	C	0.148909	1.558629	0.666795
C88	C	-0.548088	0.822364	0.000121
C89	C	-0.214755	1.155698	0.333454
C90	C	0.118578	1.489031	0.666787
C91	C	-0.627031	0.821106	0.000118
C92	C	-0.293698	1.154440	0.333452
C93	C	0.039636	1.487773	0.666785
C94	C	-0.229721	0.827436	0.000131
C95	C	0.103613	1.160769	0.333464
C96	C	0.436946	1.494102	0.666798
C97	C	-0.150774	0.828700	0.000130
C98	C	0.182560	1.162033	0.333463
C99	C	0.515893	1.495366	0.666796
C100	C	-0.169063	0.966625	0.000150
C101	C	0.164270	1.299958	0.333483
C102	C	0.497604	1.633292	0.666817
C103	C	-0.248006	0.965367	0.000148
C104	C	0.085328	1.298701	0.333481
C105	C	0.418661	1.632034	0.666815
C106	C	-0.278329	0.895769	0.000146
C107	C	0.055004	1.229103	0.333479
C108	C	0.388338	1.562436	0.666813
C109	C	-0.363930	0.894406	0.000137
C110	C	-0.030597	1.227739	0.333470
C111	C	0.302736	1.561073	0.666804
C112	C	-0.432159	0.893325	0.000129
C113	C	-0.098825	1.226659	0.333463
C114	C	0.234508	1.559992	0.666796
C115	C	0.240339	0.888100	0.000124
C116	C	0.573672	1.221434	0.333457
C117	C	0.907005	1.554767	0.666790
C118	C	0.324355	0.889446	0.000116
C119	C	0.657688	1.222780	0.333449
C120	C	0.991021	1.556113	0.666783
C121	C	0.096179	1.032250	0.000158
C122	C	0.429512	1.365584	0.333492
C123	C	0.762846	1.698917	0.666825
C124	C	0.097519	1.116268	0.000165
C125	C	0.430852	1.449601	0.333498
C126	C	0.764185	1.782934	0.666832
N127	N	0.147234	0.848552	0.293041
N128	N	0.480567	1.181886	0.626375
N129	N	0.813901	1.515219	0.959708
N130	N	0.056672	0.939190	-0.292766
N131	N	0.390005	1.272523	0.040567
N132	N	0.723338	1.605856	0.373900
C133	C	-0.004005	0.999897	0.648065
C134	C	0.329328	1.333230	0.981398
C135	C	0.662662	1.666563	1.314732
C136	C	-0.022295	1.018196	0.529730
C137	C	0.311038	1.351530	0.863063
C138	C	0.644371	1.684863	1.196397
C139	C	0.020085	0.975787	0.470552
C140	C	0.353419	1.309120	0.803885
C141	C	0.686752	1.642453	1.137219
C142	C	0.080760	0.915075	0.529721
C143	C	0.414093	1.248408	0.863054
C144	C	0.747426	1.581741	1.196387
C145	C	0.099056	0.896777	0.648067
C146	C	0.432389	1.230111	0.981401
C147	C	0.765722	1.563444	1.314734
C148	C	0.123146	0.872667	0.470554
C149	C	0.456479	1.206001	0.803888
C150	C	0.789813	1.539334	1.137221
C151	C	0.183820	0.811955	0.529723
C152	C	0.517154	1.145289	0.863056
C153	C	0.850487	1.478622	1.196390
C154	C	0.202113	0.793661	0.648058
C155	C	0.535446	1.126994	0.981392
C156	C	0.868780	1.460327	1.314725
C157	C	0.159733	0.836070	0.707236
C158	C	0.493066	1.169404	1.040570
C159	C	0.826399	1.502737	1.373903
C160	C	0.104850	0.890965	0.352208
C161	C	0.438183	1.224298	0.685541
C162	C	0.771517	1.557631	1.018874
C163	C	0.207911	0.787845	0.352210
C164	C	0.541244	1.121178	0.685543
C165	C	0.874578	1.454512	1.018877
C166	C	0.226201	0.769546	0.470545
C167	C	0.559534	1.102879	0.803878
C168	C	0.892868	1.436212	1.137212
H169	H	0.231394	0.647541	0.000082
H170	H	0.564728	0.980875	0.333415
H171	H	0.898061	1.314208	0.666749
O172	O	0.267573	0.728191	0.711854
O173	O	0.600906	1.061524	1.045187
O174	O	0.934239	1.394858	1.378520
H175	H	0.244115	0.683119	0.765793
H176	H	0.577448	1.016453	1.099127
H177	H	0.910781	1.349786	1.432460
O178	O	0.039398	0.956432	0.288410
O179	O	0.372732	1.289765	0.621743
O180	O	0.706065	1.623098	0.955076
H181	H	-0.005677	0.932966	0.234509
H182	H	0.327656	1.266299	0.567842
H183	H	0.660989	1.599633	0.901176
H184	H	0.005191	0.990689	0.374198
H185	H	0.338524	1.324022	0.707531
H186	H	0.671857	1.657356	1.040865
H187	H	0.242423	0.753313	0.304028
H188	H	0.575756	1.086646	0.637361
H189	H	0.909089	1.419979	0.970695
H190	H	0.275604	0.720113	0.518735
H191	H	0.608937	1.053446	0.852068
H192	H	0.942271	1.386779	1.185402
H193	H	-0.254402	0.770767	0.000116
H194	H	0.078931	1.104100	0.333449
H195	H	0.412265	1.437434	0.666783
O196	O	-0.045879	0.132170	0.000199
O197	O	0.287455	0.465504	0.333533
O198	O	0.620788	0.798837	0.666866
H199	H	-0.090563	0.163558	-0.076412
H200	H	0.242770	0.496892	0.256922
H201	H	0.576104	0.830225	0.590255
H202	H	-0.025200	0.283405	0.000174
H203	H	0.308133	0.616739	0.333507
H204	H	0.641466	0.950072	0.666841
H205	H	-0.508498	0.766725	0.000120
H206	H	-0.175164	1.100058	0.333453
H207	H	0.158169	1.433391	0.666787
O208	O	0.240824	0.094164	0.000151
O209	O	0.574157	0.427497	0.333484
O210	O	0.907490	0.760830	0.666818
H211	H	0.228262	0.034171	0.000175
H212	H	0.561595	0.367504	0.333508
H213	H	0.894928	0.700838	0.666841
H214	H	0.229106	0.504330	0.000102
H215	H	0.562439	0.837663	0.333435
H216	H	0.895772	1.170996	0.666768
O217	O	-0.659743	0.746045	0.000116
O218	O	-0.326410	1.079378	0.333449
O219	O	0.006923	1.412712	0.666782
H220	H	-0.707121	0.754026	-0.076505
H221	H	-0.373788	1.087360	0.256829
H222	H	-0.040454	1.420693	0.590162
H223	H	-0.111191	0.773050	0.000125
H224	H	0.222143	1.106384	0.333458
H225	H	0.555476	1.439717	0.666792
O226	O	-0.533665	1.035359	0.000124
O227	O	-0.200331	1.368692	0.333458
O228	O	0.133002	1.702025	0.666791
H229	H	-0.580736	1.082667	0.000107
H230	H	-0.247403	1.416000	0.333441
H231	H	0.085930	1.749334	0.666774
H232	H	0.174622	0.821169	0.803595
H233	H	0.507955	1.154502	1.136928
H234	H	0.841289	1.487836	1.470261
H235	H	0.225042	0.250230	0.000121
H236	H	0.558375	0.583564	0.333454
H237	H	0.891709	0.916897	0.666788
O238	O	-0.039531	0.529496	0.000150
O239	O	0.293802	0.862830	0.333483
O240	O	0.627135	1.196163	0.666817
H241	H	-0.028932	0.466436	0.000143
H242	H	0.304401	0.799770	0.333476
H243	H	0.637734	1.133103	0.666810
H244	H	-0.684899	1.014685	0.000125
H245	H	-0.351565	1.348019	0.333459
H246	H	-0.018232	1.681352	0.666792
O247	O	-0.036905	0.693586	0.000129
O248	O	0.296428	1.026919	0.333462
O249	O	0.629762	1.360252	0.666795
H250	H	-0.085512	0.659238	0.000129
H251	H	0.247821	0.992571	0.333462
H252	H	0.581154	1.325904	0.666795
H253	H	-0.287587	1.021013	0.000149
H254	H	0.045746	1.354346	0.333483
H255	H	0.379080	1.687679	0.666816
H256	H	-0.144367	1.023298	0.000137
H257	H	0.188966	1.356631	0.333470
H258	H	0.522299	1.689964	0.666803
O259	O	-0.087738	1.083667	0.465911
O260	O	0.245596	1.417000	0.799244
O261	O	0.578929	1.750334	1.132578
H262	H	-0.114141	1.110077	0.526939
H263	H	0.219193	1.443411	0.860272
H264	H	0.552526	1.776744	1.193605
H265	H	-0.038502	1.034425	0.696255
H266	H	0.294831	1.367759	1.029589
H267	H	0.628164	1.701092	1.362922
