data_functionalizedCrystal
_audit_creation_method	'MofGen! by Chris Wilmer'
_symmetry_space_group_name_H-M	'P1'
_symmetry_Int_Tables_number	1
_symmetry_cell_setting	triclinic
loop_
_symmetry_equiv_pos_as_xyz
  x,y,z
_cell_length_a	16.625548
_cell_length_b	16.120484
_cell_length_c	16.120339
_cell_angle_alpha	89.785998
_cell_angle_beta	92.864476
_cell_angle_gamma	92.926626
loop_
_atom_site_label
_atom_site_type_symbol
_atom_site_fract_x
_atom_site_fract_y
_atom_site_fract_z
Zn1	Zn	1.193860	-0.306880	-0.486962
Zn2	Zn	1.527194	0.026454	-0.153628
Zn3	Zn	1.860527	0.359787	0.179705
Zn4	Zn	1.193026	-0.453082	-0.354948
Zn5	Zn	1.526360	-0.119749	-0.021615
Zn6	Zn	1.859693	0.213584	0.311719
Zn7	Zn	1.065453	-0.314050	-0.347919
Zn8	Zn	1.398786	0.019283	-0.014586
Zn9	Zn	1.732120	0.352616	0.318747
Zn10	Zn	1.051827	-0.445897	-0.493959
Zn11	Zn	1.385160	-0.112564	-0.160625
Zn12	Zn	1.718494	0.220770	0.172708
O13	O	1.126042	-0.379977	-0.420947
O14	O	1.459375	-0.046644	-0.087614
O15	O	1.792708	0.286689	0.245720
O16	O	1.306581	-0.326280	-0.469463
O17	O	1.639915	0.007054	-0.136130
O18	O	1.973248	0.340387	0.197204
O19	O	1.181457	-0.440647	-0.237649
O20	O	1.514790	-0.107314	0.095684
O21	O	1.848124	0.226019	0.429017
O22	O	1.088538	-0.196735	-0.360494
O23	O	1.421872	0.136599	-0.027161
O24	O	1.755205	0.469932	0.306173
O25	O	1.305968	-0.433694	-0.372473
O26	O	1.639302	-0.100361	-0.039140
O27	O	1.972635	0.232973	0.294194
O28	O	1.182879	-0.191466	-0.462648
O29	O	1.516212	0.141867	-0.129314
O30	O	1.849545	0.475200	0.204019
O31	O	1.087729	-0.338501	-0.232485
O32	O	1.421063	-0.005168	0.100848
O33	O	1.754396	0.328165	0.434181
O34	O	0.950814	-0.331534	-0.367279
O35	O	1.284147	0.001799	-0.033945
O36	O	1.617481	0.335133	0.299388
O37	O	1.065314	-0.421448	-0.609397
O38	O	1.398648	-0.088114	-0.276064
O39	O	1.731981	0.245219	0.057270
O40	O	0.940803	-0.428401	-0.474573
O41	O	1.274136	-0.095068	-0.141240
O42	O	1.607470	0.238266	0.192093
O43	O	1.169666	-0.319312	-0.604256
O44	O	1.502999	0.014021	-0.270923
O45	O	1.836333	0.347354	0.062411
O46	O	1.168244	-0.568494	-0.379258
O47	O	1.501578	-0.235160	-0.045924
O48	O	1.834911	0.098173	0.287409
O49	O	1.064506	-0.563215	-0.481388
O50	O	1.397839	-0.229881	-0.148055
O51	O	1.731172	0.103452	0.185278
C52	C	0.916553	-0.379967	-0.420923
C53	C	1.249886	-0.046633	-0.087590
C54	C	1.583219	0.286700	0.245744
C55	C	0.826930	-0.379981	-0.420934
C56	C	1.160264	-0.046648	-0.087600
C57	C	1.493597	0.286686	0.245733
C58	C	0.498753	-0.379985	-0.420969
C59	C	0.832086	-0.046651	-0.087636
C60	C	1.165419	0.286682	0.245697
C61	C	0.590062	-0.379981	-0.420957
C62	C	0.923395	-0.046648	-0.087623
C63	C	1.256729	0.286685	0.245710
C64	C	0.662838	-0.379983	-0.420951
C65	C	0.996172	-0.046650	-0.087618
C66	C	1.329505	0.286683	0.245716
C67	C	0.754154	-0.379979	-0.420939
C68	C	1.087487	-0.046646	-0.087606
C69	C	1.420820	0.286688	0.245727
C70	C	1.114827	-0.596025	-0.431863
C71	C	1.448160	-0.262692	-0.098530
C72	C	1.781493	0.070642	0.234803
C73	C	1.110102	-0.688450	-0.436561
C74	C	1.443435	-0.355117	-0.103228
C75	C	1.776768	-0.021783	0.230106
C76	C	1.101478	-0.857670	-0.445155
C77	C	1.434812	-0.524337	-0.111822
C78	C	1.768145	-0.191004	0.221512
C79	C	1.150749	-0.901443	-0.396752
C80	C	1.484082	-0.568110	-0.063419
C81	C	1.817416	-0.234776	0.269914
C82	C	1.145951	-0.995603	-0.401534
C83	C	1.479284	-0.662270	-0.068201
C84	C	1.812618	-0.328936	0.265132
C85	C	1.106275	-0.763502	-0.440374
C86	C	1.439609	-0.430168	-0.107041
C87	C	1.772942	-0.096835	0.226292
C88	C	1.336349	-0.379989	-0.420971
C89	C	1.669682	-0.046655	-0.087638
C90	C	2.003015	0.286678	0.245695
C91	C	1.425969	-0.379993	-0.420982
C92	C	1.759302	-0.046660	-0.087648
C93	C	2.092636	0.286673	0.245685
C94	C	1.116063	-0.368779	-0.637843
C95	C	1.449397	-0.035445	-0.304509
C96	C	1.782730	0.297888	0.028824
C97	C	1.111811	-0.364007	-0.730271
C98	C	1.445144	-0.030673	-0.396937
C99	C	1.778478	0.302660	-0.063604
C100	C	1.137321	-0.163085	-0.410006
C101	C	1.470655	0.170249	-0.076673
C102	C	1.803988	0.503582	0.256660
C103	C	1.142128	-0.070658	-0.405344
C104	C	1.475462	0.262675	-0.072011
C105	C	1.808795	0.596009	0.261323
C106	C	1.136031	-0.391072	-0.204892
C107	C	1.469364	-0.057739	0.128441
C108	C	1.802697	0.275594	0.461775
C109	C	1.140451	-0.395610	-0.112453
C110	C	1.473785	-0.062277	0.220881
C111	C	1.807118	0.271057	0.554214
C112	C	1.103737	-0.355727	0.100481
C113	C	1.437070	-0.022393	0.433814
C114	C	1.770403	0.310940	0.767148
C115	C	1.148523	-0.403887	0.056790
C116	C	1.481857	-0.070554	0.390124
C117	C	1.815190	0.262779	0.723457
C118	C	1.144031	-0.399280	-0.037385
C119	C	1.477364	-0.065947	0.295948
C120	C	1.810697	0.267386	0.629282
C121	C	1.108228	-0.360333	0.194665
C122	C	1.441562	-0.026999	0.527999
C123	C	1.774895	0.306334	0.861332
H124	H	1.055696	-0.890910	-0.490181
H125	H	1.389029	-0.557577	-0.156848
H126	H	1.722363	-0.224243	0.176486
C127	C	1.204877	-0.464268	0.101797
C128	C	1.538211	-0.130934	0.435131
C129	C	1.871544	0.202399	0.768464
H130	H	1.232390	-0.493876	0.061999
H131	H	1.565723	-0.160543	0.395332
H132	H	1.899056	0.172790	0.728665
H133	H	1.173983	-0.502356	0.134000
H134	H	1.507317	-0.169023	0.467333
H135	H	1.840650	0.164310	0.800666
H136	H	1.243036	-0.433813	0.137154
H137	H	1.576369	-0.100480	0.470487
H138	H	1.909703	0.232854	0.803821
C139	C	1.212579	-0.856543	-0.335896
C140	C	1.545912	-0.523210	-0.002563
C141	C	1.879246	-0.189877	0.330770
H142	H	1.207721	-0.798230	-0.340610
H143	H	1.541054	-0.464897	-0.007277
H144	H	1.874388	-0.131564	0.326056
H145	H	1.265487	-0.870028	-0.348795
H146	H	1.598820	-0.536695	-0.015462
H147	H	1.932153	-0.203362	0.317871
H148	H	1.202654	-0.873661	-0.280727
H149	H	1.535988	-0.540327	0.052607
H150	H	1.869321	-0.206994	0.385940
C151	C	1.047377	-0.295364	0.055470
C152	C	1.380710	0.037970	0.388803
C153	C	1.714043	0.371303	0.722136
H154	H	1.051709	-0.300158	-0.002839
H155	H	1.385042	0.033176	0.330494
H156	H	1.718375	0.366509	0.663827
H157	H	1.062339	-0.240074	0.072306
H158	H	1.395672	0.093259	0.405640
H159	H	1.729006	0.426592	0.738973
H160	H	0.993302	-0.308635	0.069157
H161	H	1.326636	0.024698	0.402490
H162	H	1.659969	0.358032	0.735823
