data_functionalizedCrystal
_audit_creation_method	'MofGen! by Chris Wilmer'
_symmetry_space_group_name_H-M	'P1'
_symmetry_Int_Tables_number	1
_symmetry_cell_setting	triclinic
loop_
_symmetry_equiv_pos_as_xyz
  x,y,z
_cell_length_a	13.339070
_cell_length_b	15.538191
_cell_length_c	12.376457
_cell_angle_alpha	96.760679
_cell_angle_beta	75.589755
_cell_angle_gamma	81.450694
loop_
_atom_site_label
_atom_site_type_symbol
_atom_site_fract_x
_atom_site_fract_y
_atom_site_fract_z
O1	O	1.207811	0.419051	-0.094003
O2	O	0.934051	0.362493	-0.094002
O3	O	1.124222	0.267570	-0.094008
O4	O	1.017640	0.513974	-0.093997
O5	O	1.076708	0.291259	0.094005
O6	O	0.886537	0.386182	0.094011
O7	O	1.160297	0.442740	0.094010
Zn8	Zn	1.015874	0.418223	0.123862
Zn9	Zn	1.078475	0.387011	-0.123854
O10	O	0.970126	0.537663	0.094016
C11	C	0.876113	0.364784	0.000004
C12	C	0.774268	0.336307	0.000004
C13	C	0.328171	0.557731	-0.000004
C14	C	0.423859	0.584490	-0.000007
C15	C	0.511466	0.522446	-0.000004
C16	C	0.503376	0.433640	0.000002
C17	C	0.407681	0.406878	-0.000004
C18	C	0.590975	0.371593	-0.000004
C19	C	0.582885	0.282786	0.000002
C20	C	0.487198	0.256029	-0.000003
C21	C	0.399592	0.318072	-0.000006
C22	C	0.686670	0.398355	0.000002
C23	C	0.766179	0.247501	0.000002
C24	C	0.670491	0.220743	0.000005
C25	C	1.111617	0.247233	-0.000005
C26	C	1.144835	0.151340	-0.000017
C27	C	0.814845	-0.222695	0.000009
C28	C	0.846079	-0.312797	0.000011
C29	C	1.021762	-0.289322	0.000010
C30	C	0.990545	-0.199217	0.000002
C31	C	0.887085	-0.165911	0.000003
C32	C	1.062785	-0.142432	-0.000004
C33	C	1.031568	-0.052334	-0.000006
C34	C	0.928112	-0.019021	-0.000002
C35	C	0.855868	-0.075813	0.000001
C36	C	1.166243	-0.175739	0.000003
C37	C	1.238482	-0.118955	-0.000003
C38	C	1.207268	-0.028856	-0.000013
C39	C	1.103812	0.004457	-0.000009
C40	C	1.279512	0.027936	-0.000015
C41	C	1.248295	0.118034	-0.000017
C42	C	1.072595	0.094555	-0.000011
C43	C	1.218236	0.440449	0.000001
C44	C	1.320083	0.468926	-0.000006
C45	C	0.982732	0.558000	0.000011
C46	C	0.949516	0.653893	0.000015
N47	N	0.973157	0.439525	0.292922
N48	N	1.121201	0.365704	-0.292914
C49	C	1.220367	0.316238	0.647899
C50	C	1.250259	0.301327	0.529558
C51	C	1.180986	0.335875	0.470393
C52	C	1.081816	0.385337	0.529581
C53	C	1.051923	0.400255	0.647933
C54	C	1.012543	0.419892	0.470427
C55	C	0.913372	0.469354	0.529615
C56	C	0.883485	0.484269	0.647955
C57	C	0.952758	0.449721	0.707120
C58	C	1.042435	0.404974	0.352075
C59	C	0.873991	0.488991	0.352109
C60	C	0.844099	0.503902	0.470450
H61	H	0.430441	0.656795	-0.000021
H62	H	1.276763	0.288119	0.696079
O63	O	1.357207	0.247974	0.465719
H64	H	1.400351	0.226448	0.526739
O65	O	1.213219	0.319791	0.342754
H66	H	1.157205	0.284053	0.311573
O67	O	1.326214	0.179282	-0.000036
H68	H	1.296836	0.230547	0.076599
O69	O	1.149379	0.351614	0.288234
H70	H	1.211570	0.384261	0.310928
O71	O	0.920516	0.465815	0.834764
H72	H	0.985350	0.433484	0.865955
H73	H	0.256840	0.608236	-0.000016
H74	H	0.802739	0.524552	0.696146
O75	O	0.737144	0.557259	0.534290
H76	H	0.728006	0.561832	0.626520
H77	H	0.817584	0.517125	0.303938
H78	H	0.589378	0.544238	-0.000009
O79	O	0.695383	0.494136	0.000017
H80	H	0.677311	0.515517	-0.076607
H81	H	0.837512	0.196979	-0.000000
H82	H	0.988350	0.121673	-0.000019
O83	O	1.391092	-0.007989	0.000002
H84	H	1.428893	-0.058136	-0.076625
O85	O	0.661753	0.124962	0.000011
H86	H	0.738739	0.086310	0.000024
H87	H	0.321671	0.296290	-0.000003
H88	H	0.480620	0.183715	-0.000011
O89	O	0.894427	0.078156	0.000000
H90	H	0.943473	0.097325	-0.076637
O91	O	0.744279	-0.039877	0.000000
H92	H	0.699284	-0.094498	0.000008
O93	O	0.703256	-0.186759	0.000008
H94	H	0.658261	-0.241380	0.000016
O95	O	0.768161	-0.374050	0.000007
H96	H	0.690980	-0.335750	-0.000002
H97	H	1.105999	-0.316452	0.000014
H98	H	1.191658	-0.249105	-0.000005
H99	H	1.322719	-0.146085	0.000002
