data_functionalizedCrystal
_audit_creation_method	'MofGen! by Chris Wilmer'
_symmetry_space_group_name_H-M	'P1'
_symmetry_Int_Tables_number	1
_symmetry_cell_setting	triclinic
loop_
_symmetry_equiv_pos_as_xyz
  x,y,z
_cell_length_a	6.817900
_cell_length_b	11.102233
_cell_length_c	17.982968
_cell_angle_alpha	94.235148
_cell_angle_beta	102.451960
_cell_angle_gamma	108.604751
loop_
_atom_site_label
_atom_site_type_symbol
_atom_site_fract_x
_atom_site_fract_y
_atom_site_fract_z
V1	V	-4.041370	-0.177030	-0.237552
O2	O	-4.001741	0.007282	-0.233026
O3	O	-4.018625	-0.349843	-0.235932
O4	O	-3.987553	-0.174845	-0.341155
O5	O	-4.033028	-0.168928	-0.127074
V6	V	-4.522376	-0.154921	-0.224338
O7	O	-4.308151	-0.225529	-0.266540
O8	O	-4.705793	-0.106422	-0.195351
O9	O	-4.321915	0.017892	-0.225959
O10	O	-4.679402	-0.339234	-0.228864
O11	O	-4.648115	-0.163024	-0.334816
O12	O	-4.352987	-0.157107	-0.120735
C13	C	-3.870042	-0.391955	-0.232185
C14	C	-3.932696	-0.533235	-0.231551
C15	C	-4.203887	-0.738848	-0.234449
C16	C	-4.145022	-0.606102	-0.235050
C17	C	-3.779222	-0.593119	-0.227441
C18	C	-3.838086	-0.725862	-0.226835
C19	C	-4.415080	-0.746343	-0.238846
C20	C	-4.356215	-0.613597	-0.239447
C21	C	-3.830406	-0.168725	-0.366408
C22	C	-3.867858	-0.168082	-0.451104
C23	C	-4.068318	-0.174148	-0.494776
C24	C	-4.103496	-0.173542	-0.574356
C25	C	-3.938215	-0.166880	-0.610264
C26	C	-3.737736	-0.160809	-0.566586
C27	C	-3.702556	-0.161406	-0.487006
C28	C	-3.879606	-0.158402	-0.887523
C29	C	-3.914804	-0.157810	-0.967109
C30	C	-4.280545	-0.170539	-0.974873
C31	C	-4.245366	-0.171136	-0.895293
C32	C	-4.044888	-0.165058	-0.851621
C33	C	-4.006745	-0.165712	-0.765331
C34	C	-3.976359	-0.166235	-0.696554
C35	C	-4.133841	0.059997	-0.229703
C36	C	-4.050425	0.201276	-0.230343
C37	C	-4.173477	-0.163231	-0.095479
C38	C	-4.115263	-0.163868	-0.010782
H39	H	-4.451723	-0.594659	-0.294858
Br40	Br	-3.430483	-0.153154	-0.427734
Br41	Br	-3.629788	-0.807112	-0.221231
H42	H	-4.202918	-0.179582	-0.465546
Br43	Br	-3.690478	-0.148770	-1.015842
Br44	Br	-3.513420	-0.151764	-0.615318
H45	H	-4.443785	-0.175482	-1.010440
H46	H	-4.266724	-0.178475	-0.609910
H47	H	-3.606335	-0.533779	-0.224585
Br48	Br	-3.607550	-0.150189	-0.828268
Br49	Br	-4.469691	-0.180189	-0.846566
H50	H	-4.372163	-0.560089	-0.185731
Br51	Br	-4.526240	-0.787506	-0.152110
Br52	Br	-4.606756	-0.843300	-0.332950
