data_functionalizedCrystal
_audit_creation_method	'MofGen! by Chris Wilmer'
_symmetry_space_group_name_H-M	'P1'
_symmetry_Int_Tables_number	1
_symmetry_cell_setting	triclinic
loop_
_symmetry_equiv_pos_as_xyz
  x,y,z
_cell_length_a	14.395555
_cell_length_b	12.970454
_cell_length_c	12.970454
_cell_angle_alpha	59.999776
_cell_angle_beta	89.999695
_cell_angle_gamma	60.001554
loop_
_atom_site_label
_atom_site_type_symbol
_atom_site_fract_x
_atom_site_fract_y
_atom_site_fract_z
Zr1	Zr	0.894875	1.128565	-0.135328
O2	O	0.746552	1.343648	-0.299949
O3	O	0.940344	0.913477	-0.084863
O4	O	0.940345	1.128566	-0.299953
O5	O	0.746550	1.128559	0.084808
O6	O	1.093212	1.128574	-0.299957
O7	O	0.746551	1.128558	-0.084859
O8	O	1.093210	0.743818	0.084801
O9	O	0.746552	1.513315	-0.299950
O10	O	1.073819	1.001954	-0.063343
O11	O	0.959735	1.001948	0.063280
O12	O	0.959736	1.255189	-0.189962
O13	O	0.845653	1.255184	-0.063339
Zr14	Zr	1.138679	1.128579	0.135264
Zr15	Zr	1.138680	1.128577	-0.135335
Zr16	Zr	0.894873	1.128566	0.135270
Zr17	Zr	0.894875	1.399165	-0.135330
Zr18	Zr	1.138679	0.857979	0.135265
O19	O	1.093210	1.343667	0.084798
O20	O	1.093212	1.343665	-0.299958
O21	O	0.746550	1.343650	0.084807
O22	O	1.287001	0.913496	0.299885
O23	O	1.287004	0.913494	-0.084872
O24	O	0.940341	0.913479	0.299894
O25	O	1.287004	1.128585	-0.084873
O26	O	1.093208	1.128577	0.299889
O27	O	0.940341	1.128570	0.299893
O28	O	1.287003	1.128586	0.084794
O29	O	0.940345	1.513325	-0.299955
O30	O	1.093208	0.743819	0.299891
O31	O	1.287001	0.743829	0.299886
O32	O	1.287003	0.743828	0.084796
O33	O	0.746551	1.513316	-0.084861
O34	O	0.940344	1.513326	-0.084866
O35	O	1.073817	1.001955	0.189897
O36	O	1.187901	1.001960	0.063274
O37	O	1.073819	1.255195	-0.063345
O38	O	0.959735	1.255190	0.063279
C39	C	1.016777	0.790093	-0.000031
C40	C	1.016777	0.675216	-0.000030
C41	C	0.711813	1.128557	-0.000024
C42	C	0.608311	1.128551	-0.000022
C43	C	0.609925	0.990476	0.069014
C44	C	0.516909	1.059501	0.119054
C45	C	0.516899	1.059532	-0.050025
C46	C	0.516658	1.197577	0.050087
C47	C	0.516663	1.197588	-0.119057
C48	C	0.423629	1.266714	-0.069048
C49	C	1.321740	1.128587	-0.000040
C50	C	1.425242	1.128592	-0.000043
C51	C	1.016779	1.128570	-0.338510
C52	C	1.016780	1.128569	-0.453386
C53	C	1.016777	1.467051	-0.000034
C54	C	1.016777	1.581928	-0.000035
C55	C	1.016775	1.128574	0.338445
C56	C	1.016774	1.128574	0.453321
C57	C	1.321740	0.790108	-0.000039
C58	C	1.425242	0.675236	-0.000041
C59	C	1.016775	0.790094	0.338447
C60	C	1.016774	0.675218	0.453324
C61	C	1.321738	0.790110	0.338439
C62	C	1.425239	0.675239	0.453313
C63	C	0.711815	1.467034	-0.338504
C64	C	0.608314	1.581905	-0.453378
C65	C	0.711813	1.467036	-0.000026
C66	C	0.608311	1.581907	-0.000024
C67	C	1.016779	1.467049	-0.338512
C68	C	1.016780	1.581925	-0.453388
C69	C	1.473848	0.527806	0.093434
C70	C	1.571089	0.419857	0.093437
C71	C	1.619727	0.459341	-0.000032
C72	C	1.571113	0.606786	-0.093517
C73	C	1.473868	0.714732	-0.093523
C74	C	1.473852	0.527809	0.507259
C75	C	1.571113	0.419859	0.615183
C76	C	1.619755	0.459341	0.669165
C77	C	1.571137	0.606786	0.615209
C78	C	1.473883	0.714733	0.507282
C79	C	0.559710	1.729335	-0.507333
C80	C	0.462470	1.837285	-0.615281
C81	C	0.413832	1.797802	-0.669267
C82	C	0.462446	1.650357	-0.615306
C83	C	0.559688	1.542410	-0.507365
C84	C	0.559704	1.542378	0.093461
C85	C	0.462463	1.650297	0.093489
C86	C	0.413826	1.797745	0.000025
C87	C	0.462442	1.837274	-0.093465
C88	C	0.559686	1.729356	-0.093487
H89	H	0.689680	0.873721	0.127473
Cl90	Cl	1.742018	0.323616	0.804850
Cl91	Cl	1.632296	0.656397	0.683094
H92	H	1.698907	0.371430	-0.000015
H93	H	1.610728	0.638915	-0.169617
H94	H	0.515982	1.001146	0.219713
H95	H	1.434306	0.834776	0.463372
H96	H	1.434260	0.495634	0.463321
H97	H	0.515989	1.001150	-0.092307
Cl98	Cl	0.517928	1.287610	0.115546
H99	H	0.344001	1.383564	-0.127424
Cl100	Cl	1.412773	0.900073	-0.211051
H101	H	0.599295	1.761511	-0.463389
Cl102	Cl	0.401372	2.022630	-0.683090
H103	H	0.599250	1.422367	-0.463438
Cl104	Cl	0.291573	1.933397	0.000068
H105	H	0.334651	1.885713	-0.757160
H106	H	1.610680	0.299811	0.659103
H107	H	0.422830	1.618229	-0.659277
Cl108	Cl	1.632188	0.234511	0.210974
H109	H	0.517633	1.255894	-0.219695
H110	H	1.434259	0.495630	0.169551
H111	H	0.599288	1.422325	0.169571
H112	H	0.422891	1.618083	0.169620
Cl113	Cl	0.620774	1.779076	-0.211032
H114	H	0.422828	1.957339	-0.169560
