data_functionalizedCrystal
_audit_creation_method	'MofGen! by Chris Wilmer'
_symmetry_space_group_name_H-M	'P1'
_symmetry_Int_Tables_number	1
_symmetry_cell_setting	triclinic
loop_
_symmetry_equiv_pos_as_xyz
  x,y,z
_cell_length_a	12.837943
_cell_length_b	12.837938
_cell_length_c	10.268362
_cell_angle_alpha	89.998027
_cell_angle_beta	90.005847
_cell_angle_gamma	94.828790
loop_
_atom_site_label
_atom_site_type_symbol
_atom_site_fract_x
_atom_site_fract_y
_atom_site_fract_z
O1	O	-1.402321	-0.272140	0.108260
O2	O	-1.099188	-0.258697	0.108269
O3	O	-1.244033	-0.113852	0.108265
O4	O	-1.257476	-0.416985	0.108264
O5	O	-1.244047	-0.113846	-0.108335
O6	O	-1.099201	-0.258691	-0.108332
O7	O	-1.402335	-0.272135	-0.108340
Cu8	Cu	-1.250769	-0.265412	-0.128114
Cu9	Cu	-1.250753	-0.265419	0.128042
O10	O	-1.257489	-0.416980	-0.108337
C11	C	-1.060125	-0.254153	-0.000030
C12	C	-0.943710	-0.240608	-0.000027
C13	C	-1.239499	-0.074780	-0.000032
C14	C	-1.225954	0.041635	-0.000023
C15	C	-1.441397	-0.276679	-0.000038
C16	C	-1.557812	-0.290223	-0.000033
N17	N	-1.250788	-0.265408	-0.308279
C18	C	-0.718836	-0.403437	-0.000046
C19	C	-0.609453	-0.390716	-0.000044
C20	C	-0.615561	-0.202445	-0.000029
C21	C	-0.724943	-0.215166	-0.000031
C22	C	-0.776577	-0.315666	-0.000038
C23	C	-0.885961	-0.328386	-0.000031
C24	C	-0.892067	-0.140116	-0.000026
C25	C	-0.782685	-0.127395	-0.000023
C26	C	-1.388784	0.266510	0.000013
C27	C	-1.376063	0.375892	0.000022
C28	C	-1.187792	0.369785	0.000013
C29	C	-1.200513	0.260402	0.000004
C30	C	-1.301013	0.208769	0.000002
C31	C	-1.313733	0.099384	-0.000016
C32	C	-1.125462	0.093279	-0.000016
C33	C	-1.112741	0.202661	-0.000007
C34	C	-1.262024	0.543948	-0.000022
C35	C	-1.275570	0.427534	0.000020
N36	N	-1.250742	-0.265416	0.308208
C37	C	-1.250749	-0.265416	0.426050
C38	C	-1.250767	-0.265414	0.573888
H39	H	-0.927999	-0.410218	-0.000039
H40	H	-0.562444	-0.462189	-0.000054
H41	H	-1.105970	0.411844	0.000028
H42	H	-1.447537	0.422901	0.000035
N43	N	-0.774538	-0.511824	-0.000051
H44	H	-0.819779	-0.521296	0.080243
H45	H	-0.721299	-0.565433	-0.000099
N46	N	-1.497174	0.210814	-0.000011
H47	H	-1.506650	0.165555	0.080273
H48	H	-1.506570	0.165636	-0.080368
N49	N	-0.559847	-0.094064	-0.000050
H50	H	-0.514585	-0.084592	0.080236
H51	H	-0.613078	-0.040445	-0.000100
H52	H	-0.740630	-0.045571	-0.000033
N53	N	-1.004351	0.258354	-0.000000
H54	H	-1.009609	0.336410	0.000008
H55	H	-0.965480	0.237908	-0.080304
N56	N	-1.030790	0.030996	-0.000033
H57	H	-1.031860	-0.014531	0.080255
H58	H	-0.965249	0.080374	-0.000081
H59	H	-0.939092	-0.068646	-0.000010
H60	H	-1.395564	0.057346	-0.000022
