data_functionalizedCrystal
_audit_creation_method	'MofGen! by Chris Wilmer'
_symmetry_space_group_name_H-M	'P1'
_symmetry_Int_Tables_number	1
_symmetry_cell_setting	triclinic
loop_
_symmetry_equiv_pos_as_xyz
  x,y,z
_cell_length_a	18.215407
_cell_length_b	13.034595
_cell_length_c	18.215399
_cell_angle_alpha	82.837891
_cell_angle_beta	90.017368
_cell_angle_gamma	82.837389
loop_
_atom_site_label
_atom_site_type_symbol
_atom_site_fract_x
_atom_site_fract_y
_atom_site_fract_z
Zn1	Zn	1.162317	-0.416037	0.453339
Zn2	Zn	1.662317	0.083963	0.953339
Zn3	Zn	1.177868	-0.590763	0.345926
Zn4	Zn	1.677868	-0.090763	0.845926
Zn5	Zn	1.039252	-0.416062	0.330294
Zn6	Zn	1.539252	0.083938	0.830294
Zn7	Zn	1.054852	-0.590696	0.468950
Zn8	Zn	1.554852	-0.090696	0.968950
O9	O	1.108572	-0.503389	0.399627
O10	O	1.608572	-0.003389	0.899627
O11	O	1.267366	-0.439232	0.439099
O12	O	1.767366	0.060768	0.939099
O13	O	1.159460	-0.567627	0.240872
O14	O	1.659460	-0.067627	0.740872
O15	O	1.042540	-0.269850	0.333541
O16	O	1.542540	0.230150	0.833541
O17	O	1.278791	-0.567603	0.360183
O18	O	1.778791	-0.067603	0.860183
O19	O	1.132956	-0.269832	0.423941
O20	O	1.632956	0.230168	0.923941
O21	O	1.057619	-0.439275	0.229387
O22	O	1.557619	0.060725	0.729387
O23	O	0.938336	-0.439210	0.348678
O24	O	1.438336	0.060790	0.848678
O25	O	1.069128	-0.567488	0.569860
O26	O	1.569128	-0.067488	1.069860
O27	O	0.949797	-0.567513	0.450548
O28	O	1.449797	-0.067513	0.950548
O29	O	1.148082	-0.439167	0.558391
O30	O	1.648082	0.060833	1.058391
O31	O	1.174586	-0.736963	0.375321
O32	O	1.674586	-0.236963	0.875321
O33	O	1.084207	-0.736913	0.465706
O34	O	1.584207	-0.236913	0.965706
C35	C	0.917363	-0.503357	0.399612
C36	C	1.417363	-0.003357	0.899612
C37	C	0.835565	-0.503369	0.399625
C38	C	1.335565	-0.003369	0.899625
C39	C	0.641434	-0.436664	0.440803
C40	C	1.141434	0.063336	0.940803
C41	C	0.564576	-0.436673	0.440806
C42	C	1.064576	0.063327	0.940806
C43	C	0.576466	-0.570144	0.358467
C44	C	1.076466	-0.070144	0.858467
C45	C	0.653322	-0.570129	0.358461
C46	C	1.153322	-0.070129	0.858461
C47	C	0.685804	-0.503391	0.399632
C48	C	1.185804	-0.003391	0.899632
C49	C	0.532090	-0.503415	0.399643
C50	C	1.032090	-0.003415	0.899643
C51	C	0.448757	-0.503425	0.399646
C52	C	0.948757	-0.003425	0.899646
C53	C	0.769142	-0.503379	0.399628
C54	C	1.269142	-0.003379	0.899628
C55	C	1.132797	-0.774848	0.423920
C56	C	1.632797	-0.274848	0.923920
C57	C	1.143228	-0.890980	0.434337
C58	C	1.643228	-0.390980	0.934337
C59	C	1.103186	-0.942847	0.394224
C60	C	1.603186	-0.442847	0.894224
C61	C	1.113966	-1.062875	0.404989
C62	C	1.613966	-0.562875	0.904989
C63	C	1.300528	-0.503422	0.399644
C64	C	1.800528	-0.003422	0.899644
C65	C	1.382328	-0.503436	0.399651
C66	C	1.882328	-0.003436	0.899651
C67	C	1.108611	-0.503317	0.591574
C68	C	1.608611	-0.003317	1.091574
C69	C	1.108627	-0.503287	0.673370
C70	C	1.608627	-0.003287	1.173370
C71	C	1.084273	-0.230871	0.375256
C72	C	1.584273	0.269129	0.875256
C73	C	1.073919	-0.114739	0.364870
C74	C	1.573919	0.385261	0.864870
C75	C	1.108570	-0.503386	0.208421
C76	C	1.608570	-0.003386	0.708421
C77	C	1.108670	-0.503122	0.126599
C78	C	1.608670	-0.003122	0.626599
C79	C	1.149750	-0.436407	0.855588
C80	C	1.649750	0.063593	1.355588
C81	C	1.149756	-0.436377	0.932444
C82	C	1.649756	0.063623	1.432444
C83	C	1.067542	-0.570004	0.944376
C84	C	1.567542	-0.070004	1.444376
C85	C	1.067532	-0.570029	0.867521
C86	C	1.567532	-0.070029	1.367521
C87	C	1.108641	-0.503232	0.823129
C88	C	1.608641	-0.003232	1.323129
C89	C	1.108656	-0.503177	0.976840
C90	C	1.608656	-0.003177	1.476840
C91	C	1.108663	-0.503144	1.060171
C92	C	1.608663	-0.003144	1.560171
C93	C	1.108633	-0.503263	0.739792
C94	C	1.608633	-0.003263	1.239792
H95	H	0.550009	-0.624482	0.324948
H96	H	1.050009	-0.124482	0.824948
H97	H	1.183230	-0.381960	0.958867
H98	H	1.683230	0.118040	1.458867
F99	F	1.023797	-0.641094	0.991628
F100	F	1.523797	-0.141094	1.491628
H101	H	1.034051	-0.624445	0.841093
H102	H	1.534051	-0.124445	1.341093
H103	H	0.667878	-0.382317	0.474325
H104	H	1.167878	0.117683	0.974325
F105	F	0.517357	-0.365651	0.484624
F106	F	1.017357	0.134349	0.984624
H107	H	0.689449	-0.624468	0.324931
H108	H	1.189449	-0.124468	0.824931
F109	F	1.018679	-1.056646	0.309556
F110	F	1.518679	-0.556646	0.809556
F111	F	1.047949	-0.884747	0.338914
F112	F	1.547949	-0.384747	0.838914
H113	H	1.156233	-1.107325	0.447302
H114	H	1.656233	-0.607325	0.947302
H115	H	1.185492	-0.935434	0.476647
H116	H	1.685492	-0.435434	0.976647
H117	H	1.183221	-0.382014	0.819445
H118	H	1.683221	0.117986	1.319445
