data_functionalizedCrystal
_audit_creation_method	'MofGen! by Chris Wilmer'
_symmetry_space_group_name_H-M	'P1'
_symmetry_Int_Tables_number	1
_symmetry_cell_setting	triclinic
loop_
_symmetry_equiv_pos_as_xyz
  x,y,z
_cell_length_a	9.798715
_cell_length_b	17.699083
_cell_length_c	17.699083
_cell_angle_alpha	83.283015
_cell_angle_beta	89.995964
_cell_angle_gamma	90.002347
loop_
_atom_site_label
_atom_site_type_symbol
_atom_site_fract_x
_atom_site_fract_y
_atom_site_fract_z
O1	O	0.113302	-1.004075	-0.095710
O2	O	0.446636	-0.670742	0.237624
O3	O	0.779969	-0.337408	0.570957
O4	O	0.113347	-0.783697	-0.108162
O5	O	0.446681	-0.450363	0.225171
O6	O	0.780014	-0.117030	0.558505
O7	O	0.113312	-0.900112	0.008253
O8	O	0.446645	-0.566779	0.341587
O9	O	0.779978	-0.233445	0.674920
O10	O	0.113338	-0.887660	-0.212125
O11	O	0.446672	-0.554326	0.121208
O12	O	0.780005	-0.220993	0.454542
O13	O	-0.113671	-0.900104	0.008254
O14	O	0.219663	-0.566770	0.341587
O15	O	0.552996	-0.233437	0.674920
O16	O	-0.113635	-0.783688	-0.108162
O17	O	0.219699	-0.450355	0.225172
O18	O	0.553032	-0.117021	0.558505
O19	O	-0.113680	-1.004066	-0.095709
O20	O	0.219654	-0.670733	0.237624
O21	O	0.552987	-0.337400	0.570957
Zn22	Zn	-0.149696	-0.893876	-0.101936
Zn23	Zn	0.183638	-0.560543	0.231398
Zn24	Zn	0.516971	-0.227209	0.564731
Zn25	Zn	0.149363	-0.893887	-0.101936
Zn26	Zn	0.482697	-0.560554	0.231398
Zn27	Zn	0.816030	-0.227221	0.564731
O28	O	-0.113644	-0.887651	-0.212125
O29	O	0.219689	-0.554318	0.121209
O30	O	0.553023	-0.220984	0.454542
C31	C	-0.000138	-0.755495	-0.107716
C32	C	0.333195	-0.422162	0.225618
C33	C	0.666529	-0.088829	0.558951
C34	C	-0.000121	-0.671477	-0.106377
C35	C	0.333212	-0.338144	0.226956
C36	C	0.666546	-0.004811	0.560290
N37	N	-0.353795	-0.893874	-0.101935
N38	N	-0.020462	-0.560540	0.231399
N39	N	0.312871	-0.227207	0.564732
C40	C	-0.000180	-0.899662	0.036451
C41	C	0.333154	-0.566328	0.369784
C42	C	0.666487	-0.232995	0.703117
C43	C	-0.000180	-0.898323	0.120469
C44	C	0.333153	-0.564990	0.453802
C45	C	0.666487	-0.231656	0.787135
C46	C	-0.421587	-0.942756	-0.052842
C47	C	-0.088254	-0.609422	0.280491
C48	C	0.245079	-0.276089	0.613825
C49	C	-0.578750	-0.942768	-0.052839
C50	C	-0.245417	-0.609434	0.280494
C51	C	0.087917	-0.276101	0.613827
N52	N	0.353463	-0.893896	-0.101930
N53	N	0.686796	-0.560562	0.231403
N54	N	1.020130	-0.227229	0.564736
C55	C	-0.000191	-1.032268	-0.096156
C56	C	0.333142	-0.698934	0.237178
C57	C	0.666475	-0.365601	0.570511
C58	C	-0.000199	-1.116286	-0.097494
C59	C	0.333134	-0.782953	0.235839
C60	C	0.666467	-0.449619	0.569172
C61	C	-0.000113	-0.622856	-0.174710
C62	C	0.333220	-0.289523	0.158623
C63	C	0.666553	0.043810	0.491956
C64	C	-0.000131	-0.543913	-0.173448
C65	C	0.333202	-0.210580	0.159885
C66	C	0.666536	0.122754	0.493218
C67	C	-0.000147	-0.513592	-0.103852
C68	C	0.333186	-0.180259	0.229482
C69	C	0.666520	0.153074	0.562815
C70	C	-0.000159	-0.562219	-0.035513
C71	C	0.333174	-0.228886	0.297820
C72	C	0.666508	0.104447	0.631154
C73	C	-0.000151	-0.641161	-0.036776
C74	C	0.333182	-0.307828	0.296557
C75	C	0.666516	0.025505	0.629890
C76	C	-0.000193	-0.243856	-0.030418
C77	C	0.333140	0.089477	0.302915
C78	C	0.666473	0.422810	0.636249
C79	C	-0.000197	-0.164908	-0.029160
C80	C	0.333136	0.168425	0.304173
C81	C	0.666469	0.501758	0.637507
C82	C	-0.000174	-0.146608	-0.167090
C83	C	0.333160	0.186725	0.166243
C84	C	0.666493	0.520058	0.499577
C85	C	-0.000165	-0.225550	-0.168353
C86	C	0.333168	0.107783	0.164980
C87	C	0.666501	0.441117	0.498314
C88	C	-0.000185	-0.274170	-0.100015
C89	C	0.333149	0.059163	0.233319
C90	C	0.666482	0.392496	0.566652
C91	C	-0.000168	-0.359769	-0.101384
C92	C	0.333165	-0.026436	0.231949
C93	C	0.666499	0.306897	0.565282
C94	C	-0.000154	-0.427995	-0.102481
C95	C	0.333179	-0.094661	0.230852
C96	C	0.666513	0.238672	0.564185
C97	C	-0.000150	-0.888102	-0.240322
C98	C	0.333184	-0.554768	0.093011
C99	C	0.666517	-0.221435	0.426345
C100	C	-0.000141	-0.889440	-0.324340
C101	C	0.333193	-0.556107	0.008993
C102	C	0.666526	-0.222773	0.342327
C103	C	-0.000196	-0.966656	0.169090
C104	C	0.333138	-0.633323	0.502423
C105	C	0.666471	-0.299990	0.835756
C106	C	-0.000183	-0.965394	0.248033
C107	C	0.333150	-0.632061	0.581366
C108	C	0.666483	-0.298727	0.914700
C109	C	-0.000165	-0.895798	0.278354
C110	C	0.333168	-0.562464	0.611687
C111	C	0.666502	-0.229131	0.945020
C112	C	-0.000145	-0.827459	0.229727
C113	C	0.333188	-0.494126	0.563060
C114	C	0.666522	-0.160792	0.896393
C115	C	-0.000148	-0.828722	0.150785
C116	C	0.333186	-0.495389	0.484118
C117	C	0.666519	-0.162055	0.817451
C118	C	-0.000133	-0.822364	0.548090
C119	C	0.333200	-0.489030	0.881423
C120	C	0.666534	-0.155697	1.214756
C121	C	-0.000134	-0.821106	0.627038
C122	C	0.333199	-0.487773	0.960371
C123	C	0.666532	-0.154439	1.293704
C124	C	-0.000169	-0.959036	0.645338
C125	C	0.333165	-0.625703	0.978671
C126	C	0.666498	-0.292369	1.312004
C127	C	-0.000171	-0.960299	0.566396
C128	C	0.333162	-0.626966	0.899729
C129	C	0.666495	-0.293632	1.233063
C130	C	-0.000144	-0.891961	0.517776
C131	C	0.333189	-0.558627	0.851109
C132	C	0.666523	-0.225294	1.184442
C133	C	-0.000155	-0.893330	0.432177
C134	C	0.333178	-0.559997	0.765510
C135	C	0.666512	-0.226664	1.098843
C136	C	-0.000164	-0.894427	0.363951
C137	C	0.333169	-0.561094	0.697285
C138	C	0.666503	-0.227761	1.030618
H139	H	-0.363278	-0.984594	-0.010811
H140	H	-0.029944	-0.651261	0.322523
H141	H	0.303389	-0.317927	0.655856
H142	H	-0.000134	-0.773078	0.111198
H143	H	0.333199	-0.439745	0.444531
H144	H	0.666532	-0.106411	0.777864
C145	C	-0.432551	-0.837336	-0.158704
C146	C	-0.099218	-0.504003	0.174629
C147	C	0.234115	-0.170670	0.507962
H148	H	-0.369639	-0.806660	-0.189499
H149	H	-0.036306	-0.473327	0.143835
H150	H	0.297028	-0.139994	0.477168
H151	H	-0.488299	-0.864621	-0.190063
H152	H	-0.154966	-0.531288	0.143271
H153	H	0.178367	-0.197954	0.476604
H154	H	-0.488286	-0.805832	-0.131567
H155	H	-0.154953	-0.472498	0.201766
H156	H	0.178380	-0.139165	0.535099
C157	C	-0.000095	-0.656202	-0.251268
C158	C	0.333238	-0.322869	0.082066
C159	C	0.666572	0.010464	0.415399
H160	H	-0.000105	-0.615936	-0.291783
H161	H	0.333228	-0.282603	0.041550
H162	H	0.666561	0.050731	0.374884
H163	H	0.079061	-0.686613	-0.254630
H164	H	0.412395	-0.353280	0.078704
H165	H	0.745728	-0.019946	0.412037
H166	H	-0.079256	-0.686620	-0.254627
H167	H	0.254077	-0.353287	0.078706
H168	H	0.587411	-0.019953	0.412040
C169	C	-0.000118	-0.490433	-0.248615
C170	C	0.333215	-0.157100	0.084718
C171	C	0.666549	0.176234	0.418052
H172	H	-0.000090	-0.519797	-0.290244
H173	H	0.333243	-0.186464	0.043089
H174	H	0.666576	0.146869	0.376422
H175	H	-0.079276	-0.459262	-0.250994
H176	H	0.254058	-0.125929	0.082340
H177	H	0.587391	0.207404	0.415673
H178	H	0.079042	-0.459253	-0.250987
H179	H	0.412375	-0.125920	0.082347
H180	H	0.745708	0.207414	0.415680
H181	H	-0.000146	-0.250232	-0.225025
H182	H	0.333187	0.083101	0.108308
H183	H	0.666520	0.416434	0.441641
H184	H	-0.637048	-0.984620	-0.010812
H185	H	-0.303715	-0.651287	0.322522
H186	H	0.029619	-0.317954	0.655855
C187	C	-0.000187	-1.040559	0.301516
C188	C	0.333146	-0.707226	0.634849
C189	C	0.666480	-0.373892	0.968183
H190	H	-0.000161	-1.029841	0.352874
H191	H	0.333172	-0.696508	0.686207
H192	H	0.666506	-0.363175	1.019540
H193	H	-0.079344	-1.069105	0.292349
H194	H	0.253989	-0.735771	0.625682
H195	H	0.587322	-0.402438	0.959016
H196	H	0.078973	-1.069100	0.292328
H197	H	0.412306	-0.735766	0.625662
H198	H	0.745640	-0.402433	0.958995
C199	C	-0.000171	-0.093124	-0.242262
C200	C	0.333163	0.240209	0.091071
C201	C	0.666496	0.573543	0.424405
H202	H	-0.000193	-0.041766	-0.231546
H203	H	0.333140	0.291567	0.101787
H204	H	0.666473	0.624901	0.435121
H205	H	0.078990	-0.102296	-0.270805
H206	H	0.412323	0.231037	0.062529
H207	H	0.745656	0.564371	0.395862
H208	H	-0.079328	-0.102309	-0.270805
H209	H	0.254006	0.231025	0.062528
H210	H	0.587339	0.564358	0.395862
H211	H	-0.000191	-0.537526	0.021154
H212	H	0.333142	-0.204193	0.354487
H213	H	0.666475	0.129141	0.687820
C214	C	-0.000228	-0.131557	0.047400
C215	C	0.333105	0.201776	0.380733
C216	C	0.666438	0.535110	0.714066
H217	H	-0.000252	-0.171819	0.087919
H218	H	0.333081	0.161514	0.421252
H219	H	0.666414	0.494848	0.754586
H220	H	0.078922	-0.101139	0.050763
H221	H	0.412255	0.232195	0.384096
H222	H	0.745588	0.565528	0.717430
H223	H	-0.079396	-0.101145	0.050750
H224	H	0.253938	0.232188	0.384083
H225	H	0.587271	0.565521	0.717417
C226	C	-0.000205	-0.297328	0.044751
C227	C	0.333128	0.036005	0.378084
C228	C	0.666462	0.369338	0.711418
H229	H	-0.000201	-0.267962	0.086379
H230	H	0.333132	0.065372	0.419712
H231	H	0.666466	0.398705	0.753045
H232	H	-0.079357	-0.328507	0.047128
H233	H	0.253976	0.004826	0.380461
H234	H	0.587309	0.338159	0.713795
H235	H	0.078960	-0.328501	0.047128
H236	H	0.412293	0.004833	0.380461
H237	H	0.745627	0.338166	0.713794
H238	H	-0.000219	-1.023330	0.144409
H239	H	0.333114	-0.689997	0.477742
H240	H	0.666447	-0.356663	0.811076
C241	C	-0.000146	-0.694644	0.038390
C242	C	0.333187	-0.361311	0.371724
C243	C	0.666521	-0.027978	0.705057
H244	H	-0.000142	-0.665282	0.080021
H245	H	0.333192	-0.331948	0.413354
H246	H	0.666525	0.001385	0.746688
H247	H	-0.079294	-0.725826	0.040767
H248	H	0.254039	-0.392493	0.374101
H249	H	0.587372	-0.059160	0.707434
H250	H	0.079023	-0.725813	0.040762
H251	H	0.412356	-0.392480	0.374095
H252	H	0.745690	-0.059146	0.707428
H253	H	-0.000193	-1.016971	0.541714
H254	H	0.333140	-0.683638	0.875047
H255	H	0.666474	-0.350305	1.208380
H256	H	-0.000184	-1.014680	0.684934
H257	H	0.333149	-0.681347	1.018268
H258	H	0.666483	-0.348013	1.351601
H259	H	-0.000122	-0.764429	0.651721
H260	H	0.333211	-0.431096	0.985054
H261	H	0.666545	-0.097762	1.318388
H262	H	-0.000111	-0.766718	0.508512
H263	H	0.333222	-0.433385	0.841845
H264	H	0.666556	-0.100052	1.175179
H265	H	-0.000121	-0.770792	0.254420
H266	H	0.333212	-0.437459	0.587753
H267	H	0.666545	-0.104126	0.921087
H268	H	-0.588248	-0.852046	-0.143966
H269	H	-0.254914	-0.518713	0.189368
H270	H	0.078419	-0.185380	0.522701
