data_functionalizedCrystal
_audit_creation_method	'MofGen! by Chris Wilmer'
_symmetry_space_group_name_H-M	'P1'
_symmetry_Int_Tables_number	1
_symmetry_cell_setting	triclinic
loop_
_symmetry_equiv_pos_as_xyz
  x,y,z
_cell_length_a	19.188930
_cell_length_b	14.519709
_cell_length_c	13.596369
_cell_angle_alpha	90.006934
_cell_angle_beta	90.019208
_cell_angle_gamma	83.412462
loop_
_atom_site_label
_atom_site_type_symbol
_atom_site_fract_x
_atom_site_fract_y
_atom_site_fract_z
O1	O	-0.926555	-0.115137	-0.082110
O2	O	-0.426555	0.384863	0.417890
O3	O	-0.723299	-0.130636	-0.082043
O4	O	-0.223299	0.369364	0.417957
O5	O	-0.830316	0.011385	-0.082069
O6	O	-0.330316	0.511385	0.417931
O7	O	-0.819538	-0.257158	-0.082083
O8	O	-0.319538	0.242842	0.417917
O9	O	-0.830306	0.011393	0.081514
O10	O	-0.330306	0.511393	0.581514
O11	O	-0.723289	-0.130629	0.081540
O12	O	-0.223289	0.369371	0.581540
O13	O	-0.926545	-0.115130	0.081473
O14	O	-0.426545	0.384870	0.581473
Zn15	Zn	-0.824915	-0.122878	0.107479
Zn16	Zn	-0.324915	0.377122	0.607479
Zn17	Zn	-0.824929	-0.122888	-0.108049
Zn18	Zn	-0.324929	0.377112	0.391951
O19	O	-0.819528	-0.257151	0.081500
O20	O	-0.319528	0.242849	0.581500
C21	C	-0.697281	-0.130131	-0.000242
C22	C	-0.197281	0.369869	0.499758
C23	C	-0.619771	-0.128624	-0.000217
C24	C	-0.119771	0.371376	0.499783
C25	C	-0.952563	-0.115635	-0.000329
C26	C	-0.452563	0.384365	0.499671
C27	C	-1.030073	-0.117142	-0.000361
C28	C	-0.530073	0.382858	0.499639
C29	C	-0.575144	-0.211957	-0.000236
C30	C	-0.075144	0.288043	0.499764
C31	C	-0.502315	-0.210542	-0.000247
C32	C	-0.002315	0.289458	0.499753
C33	C	-0.474117	-0.125788	-0.000258
C34	C	0.025883	0.374212	0.499742
C35	C	-0.518754	-0.042444	-0.000232
C36	C	-0.018754	0.457556	0.499768
C37	C	-0.591581	-0.043861	-0.000212
C38	C	-0.091581	0.456139	0.499788
N39	N	-0.365910	-0.061007	-0.055968
N40	N	0.134090	0.438993	0.444032
N41	N	-0.296726	-0.059666	-0.055990
N42	N	0.203274	0.440334	0.444010
C43	C	-0.254693	-0.121511	-0.000318
C44	C	0.245307	0.378489	0.499682
N45	N	-0.284455	-0.184762	0.055365
N46	N	0.215545	0.315238	0.555365
N47	N	-0.353645	-0.186106	0.055382
N48	N	0.146355	0.313894	0.555382
C49	C	-0.395149	-0.124241	-0.000280
C50	C	0.104851	0.375759	0.499720
C51	C	-0.131096	-0.203315	-0.000348
C52	C	0.368904	0.296685	0.499652
C53	C	-0.058266	-0.201896	-0.000352
C54	C	0.441734	0.298104	0.499648
C55	C	-0.074706	-0.033796	-0.000348
C56	C	0.425294	0.466204	0.499652
C57	C	-0.147535	-0.035217	-0.000333
C58	C	0.352465	0.464783	0.499667
C59	C	-0.175725	-0.119980	-0.000338
C60	C	0.324275	0.380020	0.499662
C61	C	-0.829809	0.045746	-0.000277
C62	C	-0.329809	0.545746	0.499723
C63	C	-0.828304	0.148118	-0.000276
C64	C	-0.328304	0.648118	0.499724
C65	C	-0.820035	-0.291511	-0.000294
C66	C	-0.320035	0.208489	0.499706
C67	C	-0.821541	-0.393883	-0.000302
C68	C	-0.321541	0.106117	0.499698
N69	N	-0.824911	-0.122871	0.254571
N70	N	-0.324911	0.377129	0.754571
C71	C	-0.822762	0.522979	-0.000300
C72	C	-0.322762	1.022979	0.499700
C73	C	-0.824301	0.418681	-0.000293
C74	C	-0.324301	0.918681	0.499707
C75	C	-0.825533	0.335552	-0.000287
C76	C	-0.325533	0.835552	0.499713
C77	C	-0.827072	0.231247	-0.000282
C78	C	-0.327072	0.731247	0.499718
N79	N	-0.824939	-0.122888	-0.255140
N80	N	-0.324939	0.377112	0.244860
C81	C	-0.824928	-0.122889	0.655862
C82	C	-0.324928	0.377111	1.155862
C83	C	-0.824921	-0.122887	0.544210
C84	C	-0.324921	0.377113	1.044210
C85	C	-0.824920	-0.122880	0.455220
C86	C	-0.324920	0.377120	0.955220
C87	C	-0.824912	-0.122877	0.343561
C88	C	-0.324912	0.377123	0.843561
H89	H	-0.598091	-0.280978	-0.000242
H90	H	-0.098091	0.219022	0.499758
C91	C	-0.453967	-0.301122	-0.000329
C92	C	0.046033	0.198878	0.499671
C93	C	-0.494243	-0.375655	-0.000353
C94	C	0.005757	0.124345	0.499647
C95	C	-0.449732	-0.459111	-0.000446
C96	C	0.050268	0.040889	0.499554
H97	H	-0.425175	-0.304200	0.056688
H98	H	0.074825	0.195800	0.556688
H99	H	-0.425252	-0.304104	-0.057409
H100	H	0.074748	0.195896	0.442591
H101	H	-0.522947	-0.372675	0.056721
H102	H	-0.022947	0.127325	0.556721
H103	H	-0.523034	-0.372609	-0.057367
H104	H	-0.023034	0.127391	0.442633
H105	H	-0.421016	-0.462092	-0.057526
H106	H	0.078984	0.037908	0.442474
H107	H	-0.420942	-0.462178	0.056573
H108	H	0.079058	0.037822	0.556573
H109	H	-0.477052	-0.509691	-0.000471
H110	H	0.022948	-0.009691	0.499529
H111	H	-0.154049	-0.272334	-0.000337
H112	H	0.345951	0.227666	0.499663
C113	C	-0.196027	0.055232	-0.000125
C114	C	0.303973	0.555232	0.499875
C115	C	-0.238275	0.059346	0.084057
C116	C	0.261725	0.559346	0.584057
C117	C	-0.282949	0.142663	0.084291
C118	C	0.217051	0.642663	0.584291
H119	H	-0.224864	0.058256	-0.057096
H120	H	0.275136	0.558256	0.442904
H121	H	-0.168830	0.105941	-0.000081
H122	H	0.331170	0.605941	0.499919
H123	H	-0.265470	0.008652	0.084005
H124	H	0.234530	0.508652	0.584005
H125	H	-0.209457	0.056339	0.141042
H126	H	0.290543	0.556339	0.641042
H127	H	-0.255752	0.193371	0.084335
H128	H	0.244248	0.693371	0.584335
H129	H	-0.311782	0.145679	0.027316
H130	H	0.188218	0.645679	0.527316
H131	H	-0.311615	0.145469	0.141412
H132	H	0.188385	0.645469	0.641412
H133	H	-0.495790	0.026564	-0.000255
H134	H	0.004210	0.526564	0.499745
C135	C	-0.639922	0.046720	-0.000248
C136	C	-0.139922	0.546720	0.499752
C137	C	-0.599644	0.121250	-0.000281
C138	C	-0.099644	0.621250	0.499719
C139	C	-0.644153	0.204708	-0.000331
C140	C	-0.144153	0.704708	0.499669
H141	H	-0.668671	0.049795	0.056786
H142	H	-0.168671	0.549795	0.556786
H143	H	-0.668682	0.049707	-0.057311
H144	H	-0.168682	0.549707	0.442689
H145	H	-0.570897	0.118265	0.056776
H146	H	-0.070897	0.618265	0.556776
H147	H	-0.570897	0.118206	-0.057311
H148	H	-0.070897	0.618206	0.442689
H149	H	-0.672913	0.207695	-0.057394
H150	H	-0.172913	0.707695	0.442606
H151	H	-0.672900	0.207773	0.056705
H152	H	-0.172900	0.707773	0.556705
H153	H	-0.616831	0.255286	-0.000362
H154	H	-0.116831	0.755286	0.499638
C155	C	-0.009926	-0.292479	-0.000421
C156	C	0.490074	0.207521	0.499579
C157	C	-0.050206	-0.367007	-0.000448
C158	C	0.449794	0.132993	0.499552
C159	C	-0.005699	-0.450466	-0.000525
C160	C	0.494301	0.049534	0.499475
H161	H	0.018860	-0.295554	0.056602
H162	H	0.518860	0.204446	0.556602
H163	H	0.018796	-0.295468	-0.057495
H164	H	0.518796	0.204532	0.442505
H165	H	-0.078916	-0.364020	0.056620
H166	H	0.421084	0.135980	0.556620
H167	H	-0.078991	-0.363963	-0.057467
H168	H	0.421009	0.136037	0.442533
H169	H	0.023023	-0.453455	-0.057599
H170	H	0.523023	0.046545	0.442401
H171	H	0.023085	-0.453531	0.056500
H172	H	0.523085	0.046469	0.556500
H173	H	-0.033022	-0.501044	-0.000552
H174	H	0.466978	-0.001044	0.499448
C175	C	-0.044236	0.058320	-0.000307
C176	C	0.455764	0.558320	0.499693
C177	C	-0.098911	0.130999	-0.000266
C178	C	0.401089	0.630999	0.499734
C179	C	-0.070865	0.215871	-0.000211
C180	C	0.429135	0.715871	0.499789
H181	H	-0.016197	0.062497	-0.057342
H182	H	0.483803	0.562497	0.442658
H183	H	-0.016168	0.062419	0.056755
H184	H	0.483832	0.562419	0.556755
H185	H	-0.126967	0.126902	-0.057323
H186	H	0.373033	0.626902	0.442677
H187	H	-0.126954	0.126852	0.056765
H188	H	0.373046	0.626852	0.556765
H189	H	-0.042798	0.219970	0.056851
H190	H	0.457202	0.719970	0.556851
H191	H	-0.042827	0.220039	-0.057247
H192	H	0.457173	0.720039	0.442753
H193	H	-0.107958	0.265194	-0.000174
H194	H	0.392042	0.765194	0.499826
