data_functionalizedCrystal
_audit_creation_method	'MofGen! by Chris Wilmer'
_symmetry_space_group_name_H-M	'P1'
_symmetry_Int_Tables_number	1
_symmetry_cell_setting	triclinic
loop_
_symmetry_equiv_pos_as_xyz
  x,y,z
_cell_length_a	12.594516
_cell_length_b	19.805407
_cell_length_c	19.805399
_cell_angle_alpha	90.019573
_cell_angle_beta	89.979203
_cell_angle_gamma	89.983947
loop_
_atom_site_label
_atom_site_type_symbol
_atom_site_fract_x
_atom_site_fract_y
_atom_site_fract_z
Zn1	Zn	-0.423767	-1.034784	-0.382752
Zn2	Zn	0.076233	-0.534784	0.117248
Zn3	Zn	-0.601760	-1.034720	-0.269577
Zn4	Zn	-0.101760	-0.534720	0.230423
Zn5	Zn	-0.423796	-0.921599	-0.269576
Zn6	Zn	0.076204	-0.421599	0.230424
Zn7	Zn	-0.601704	-0.921583	-0.382723
Zn8	Zn	-0.101704	-0.421583	0.117277
O9	O	-0.512757	-0.978172	-0.326157
O10	O	-0.012757	-0.478172	0.173843
O11	O	-0.447389	-1.129492	-0.367751
O12	O	0.052611	-0.629492	0.132249
O13	O	-0.578189	-1.019694	-0.174860
O14	O	-0.078189	-0.519694	0.325140
O15	O	-0.274846	-0.936647	-0.284601
O16	O	0.225154	-0.436647	0.215399
O17	O	-0.578160	-1.129445	-0.284602
O18	O	-0.078160	-0.629445	0.215398
O19	O	-0.274825	-1.019804	-0.367750
O20	O	0.225175	-0.519804	0.132250
O21	O	-0.447439	-0.936584	-0.174860
O22	O	0.052561	-0.436584	0.325140
O23	O	-0.447385	-0.826880	-0.284573
O24	O	0.052615	-0.326880	0.215427
O25	O	-0.578064	-0.936620	-0.477444
O26	O	-0.078064	-0.436620	0.022556
O27	O	-0.578092	-0.826869	-0.367702
O28	O	-0.078092	-0.326869	0.132298
O29	O	-0.447335	-1.019788	-0.477464
O30	O	0.052665	-0.519788	0.022536
O31	O	-0.750698	-1.019678	-0.284574
O32	O	-0.250698	-0.519678	0.215426
O33	O	-0.750657	-0.936557	-0.367703
O34	O	-0.250657	-0.436557	0.132297
C35	C	-0.512736	-0.802316	-0.326135
C36	C	-0.012736	-0.302316	0.173865
C37	C	-0.512753	-0.727084	-0.326142
C38	C	-0.012753	-0.227084	0.173858
C39	C	-0.789298	-0.978127	-0.326150
C40	C	-0.289298	-0.478127	0.173850
C41	C	-0.907603	-0.978170	-0.326170
C42	C	-0.407603	-0.478170	0.173830
C43	C	-0.512690	-0.978209	-0.502700
C44	C	-0.012690	-0.478209	-0.002700
C45	C	-0.512661	-0.978226	-0.577932
C46	C	-0.012661	-0.478226	-0.077932
C47	C	-0.976872	-0.932956	-0.371352
C48	C	-0.476872	-0.432956	0.128648
C49	C	-1.047728	-0.916467	-0.309590
C50	C	-0.547728	-0.416467	0.190410
C51	C	-1.047546	-0.994721	-0.387943
C52	C	-0.547546	-0.494721	0.112057
C53	C	-0.976901	-0.961649	-0.264375
C54	C	-0.476901	-0.461649	0.235625
C55	C	-0.976712	-1.039931	-0.342770
C56	C	-0.476712	-0.539931	0.157230
C57	C	-1.047536	-1.023465	-0.280965
C58	C	-0.547536	-0.523465	0.219035
C59	C	-0.235136	-0.978235	-0.326178
C60	C	0.264864	-0.478235	0.173822
C61	C	-0.116830	-0.978261	-0.326188
C62	C	0.383170	-0.478261	0.173812
C63	C	-0.512778	-1.154714	-0.326179
C64	C	-0.012778	-0.654714	0.173821
C65	C	-0.512787	-1.229946	-0.326189
C66	C	-0.012787	-0.729946	0.173811
C67	C	-0.580915	-0.691751	-0.369357
C68	C	-0.080915	-0.191751	0.130643
C69	C	-0.580917	-0.621063	-0.369366
C70	C	-0.080917	-0.121063	0.130634
C71	C	-0.512762	-0.585708	-0.326157
C72	C	-0.012762	-0.085708	0.173843
C73	C	-0.444592	-0.621045	-0.282940
C74	C	0.055408	-0.121045	0.217060
C75	C	-0.444586	-0.691733	-0.282934
C76	C	0.055414	-0.191733	0.217066
C77	C	-0.444615	-0.335972	-0.282962
C78	C	0.055385	0.164028	0.217038
C79	C	-0.444629	-0.265280	-0.282970
C80	C	0.055371	0.234720	0.217030
C81	C	-0.580947	-0.265302	-0.369394
C82	C	-0.080947	0.234698	0.130606
C83	C	-0.580941	-0.335989	-0.369389
C84	C	-0.080941	0.164011	0.130611
C85	C	-0.512768	-0.371321	-0.326175
C86	C	-0.012768	0.128679	0.173825
C87	C	-0.512765	-0.447969	-0.326166
C88	C	-0.012765	0.052031	0.173834
C89	C	-0.512769	-0.509061	-0.326162
C90	C	-0.012769	-0.009061	0.173838
C91	C	-0.444587	-1.021533	-0.613288
C92	C	0.055413	-0.521533	-0.113288
C93	C	-0.444556	-1.021539	-0.683976
C94	C	0.055444	-0.521539	-0.183976
C95	C	-0.512605	-0.978242	-0.719307
C96	C	-0.012605	-0.478242	-0.219307
C97	C	-0.580683	-0.934931	-0.683947
C98	C	-0.080683	-0.434931	-0.183947
C99	C	-0.580707	-0.934921	-0.613259
C100	C	-0.080707	-0.434921	-0.113259
C101	C	-0.580583	-0.934969	-0.969020
C102	C	-0.080583	-0.434969	-0.469020
C103	C	-0.580556	-0.934984	-1.039712
C104	C	-0.080556	-0.434984	-0.539712
C105	C	-0.444432	-1.021588	-1.039737
C106	C	0.055568	-0.521588	-0.539737
C107	C	-0.444457	-1.021578	-0.969050
C108	C	0.055543	-0.521578	-0.469050
C109	C	-0.512530	-0.978264	-0.933695
C110	C	-0.012530	-0.478264	-0.433695
C111	C	-0.512561	-0.978256	-0.857046
C112	C	-0.012561	-0.478256	-0.357046
C113	C	-0.512580	-0.978253	-0.795955
C114	C	-0.012580	-0.478253	-0.295955
C115	C	-0.512747	-0.978173	-0.150301
C116	C	-0.012747	-0.478173	0.349699
C117	C	-0.512475	-0.978288	-0.075069
C118	C	-0.012475	-0.478288	0.424931
H119	H	-0.945843	-0.894652	-0.409505
H120	H	-0.445843	-0.394652	0.090495
H121	H	-1.078577	-1.008682	-0.440176
H122	H	-0.578577	-0.508682	0.059824
H123	H	-0.636423	-0.592298	-0.404556
H124	H	-0.136423	-0.092298	0.095444
H125	H	-0.945498	-1.092106	-0.356826
H126	H	-0.445498	-0.592106	0.143174
C127	C	-0.369646	-0.226391	-0.235443
C128	C	0.130354	0.273609	0.264557
H129	H	-0.329035	-0.257556	-0.209710
H130	H	0.170965	0.242444	0.290290
H131	H	-0.410299	-0.198797	-0.205908
H132	H	0.089701	0.301203	0.294092
H133	H	-0.323331	-0.198834	-0.261396
H134	H	0.176669	0.301166	0.238604
H135	H	-1.078946	-0.864280	-0.295564
H136	H	-0.578946	-0.364280	0.204436
H137	H	-0.636444	-0.364771	-0.404572
H138	H	-0.136444	0.135229	0.095428
H139	H	-0.636419	-0.720532	-0.404541
H140	H	-0.136419	-0.220532	0.095459
H141	H	-0.389075	-0.720500	-0.247748
H142	H	0.110925	-0.220500	0.252252
H143	H	-0.945998	-0.947627	-0.212128
H144	H	-0.445998	-0.447627	0.287872
H145	H	-1.078369	-1.061740	-0.242720
H146	H	-0.578369	-0.561740	0.257280
H147	H	-0.636453	-0.236527	-0.404584
H148	H	-0.136453	0.263473	0.095416
C149	C	-0.369647	-0.374828	-0.235417
C150	C	0.130353	0.125172	0.264583
H151	H	-0.329071	-0.343646	-0.209678
H152	H	0.170929	0.156354	0.290322
H153	H	-0.323314	-0.402424	-0.261347
H154	H	0.176686	0.097576	0.238653
H155	H	-0.410315	-0.402381	-0.205879
H156	H	0.089685	0.097619	0.294121
C157	C	-0.369680	-1.069180	-0.722865
C158	C	0.130320	-0.569180	-0.222865
H159	H	-0.329166	-1.094971	-0.691699
H160	H	0.170834	-0.594971	-0.191699
H161	H	-0.323286	-1.043307	-0.750439
H162	H	0.176714	-0.543307	-0.250439
H163	H	-0.410399	-1.098666	-0.750442
H164	H	0.089601	-0.598666	-0.250442
H165	H	-0.389094	-0.592254	-0.247761
H166	H	0.110906	-0.092254	0.252239
H167	H	-0.389176	-1.056792	-0.584526
H168	H	0.110824	-0.556792	-0.084526
C169	C	-0.369599	-1.069202	-0.930189
C170	C	0.130401	-0.569202	-0.430189
H171	H	-0.329043	-1.094991	-0.961370
H172	H	0.170957	-0.594991	-0.461370
H173	H	-0.410323	-1.098680	-0.902614
H174	H	0.089677	-0.598680	-0.402614
H175	H	-0.323228	-1.043309	-0.902616
H176	H	0.176772	-0.543309	-0.402616
C177	C	-0.655406	-0.887350	-1.078575
C178	C	-0.155406	-0.387350	-0.578575
H179	H	-0.695944	-0.861547	-1.047396
H180	H	-0.195944	-0.361547	-0.547396
H181	H	-0.701778	-0.913232	-1.106152
H182	H	-0.201778	-0.413232	-0.606152
H183	H	-0.614662	-0.857875	-1.106148
H184	H	-0.114662	-0.357875	-0.606148
C185	C	-0.369545	-1.069228	-1.078629
C186	C	0.130455	-0.569228	-0.578629
H187	H	-0.379265	-1.063031	-1.125788
H188	H	0.120735	-0.563031	-0.625788
H189	H	-0.385136	-1.114699	-1.067052
H190	H	0.114864	-0.614699	-0.567052
H191	H	-0.298029	-1.059335	-1.067046
H192	H	0.201971	-0.559335	-0.567046
H193	H	-0.636028	-0.899710	-0.940243
H194	H	-0.136028	-0.399710	-0.440243
H195	H	-0.636086	-0.899675	-0.712719
H196	H	-0.136086	-0.399675	-0.212719
C197	C	-0.655615	-0.887300	-0.574368
C198	C	-0.155615	-0.387300	-0.074368
H199	H	-0.696154	-0.861524	-0.605532
H200	H	-0.196154	-0.361524	-0.105532
H201	H	-0.614928	-0.857810	-0.546782
H202	H	-0.114928	-0.357810	-0.046782
H203	H	-0.702001	-0.913195	-0.546802
H204	H	-0.202001	-0.413195	-0.046802
