data_functionalizedCrystal
_audit_creation_method	'MofGen! by Chris Wilmer'
_symmetry_space_group_name_H-M	'P1'
_symmetry_Int_Tables_number	1
_symmetry_cell_setting	triclinic
loop_
_symmetry_equiv_pos_as_xyz
  x,y,z
_cell_length_a	13.897447
_cell_length_b	29.839134
_cell_length_c	13.897441
_cell_angle_alpha	89.964316
_cell_angle_beta	90.029327
_cell_angle_gamma	89.988103
loop_
_atom_site_label
_atom_site_type_symbol
_atom_site_fract_x
_atom_site_fract_y
_atom_site_fract_z
Zn1	Zn	-0.384180	-0.686831	0.545774
Zn2	Zn	-0.050847	-0.353497	0.879108
Zn3	Zn	0.282486	-0.020164	1.212441
Zn4	Zn	-0.545502	-0.686779	0.384479
Zn5	Zn	-0.212169	-0.353446	0.717813
Zn6	Zn	0.121165	-0.020112	1.051146
Zn7	Zn	-0.384201	-0.611701	0.384451
Zn8	Zn	-0.050868	-0.278368	0.717784
Zn9	Zn	0.282465	0.054966	1.051117
Zn10	Zn	-0.545414	-0.611690	0.545690
Zn11	Zn	-0.212080	-0.278357	0.879023
Zn12	Zn	0.121253	0.054977	1.212357
O13	O	-0.464824	-0.649250	0.465099
O14	O	-0.131491	-0.315917	0.798432
O15	O	0.201842	0.017417	1.131765
O16	O	-0.405608	-0.749691	0.524426
O17	O	-0.072275	-0.416358	0.857759
O18	O	0.261058	-0.083024	1.191092
O19	O	-0.524151	-0.676803	0.249494
O20	O	-0.190818	-0.343469	0.582827
O21	O	0.142516	-0.010136	0.916160
O22	O	-0.249217	-0.621693	0.405874
O23	O	0.084116	-0.288360	0.739207
O24	O	0.417450	0.044973	1.072541
O25	O	-0.524131	-0.749653	0.405923
O26	O	-0.190797	-0.416320	0.739256
O27	O	0.142536	-0.082986	1.072589
O28	O	-0.249202	-0.676891	0.524398
O29	O	0.084132	-0.343558	0.857731
O30	O	0.417465	-0.010224	1.191064
O31	O	-0.405644	-0.621643	0.249473
O32	O	-0.072311	-0.288310	0.582806
O33	O	0.261023	0.045024	0.916139
O34	O	-0.405558	-0.548832	0.405792
O35	O	-0.072225	-0.215499	0.739125
O36	O	0.261109	0.117834	1.072459
O37	O	-0.523980	-0.621675	0.680683
O38	O	-0.190647	-0.288341	1.014016
O39	O	0.142687	0.044992	1.347349
O40	O	-0.524000	-0.548824	0.524254
O41	O	-0.190667	-0.215491	0.857587
O42	O	0.142666	0.117842	1.190920
O43	O	-0.405523	-0.676880	0.680745
O44	O	-0.072189	-0.343547	1.014078
O45	O	0.261144	-0.010214	1.347412
O46	O	-0.680472	-0.676792	0.405841
O47	O	-0.347139	-0.343459	0.739174
O48	O	-0.013805	-0.010125	1.072508
O49	O	-0.680407	-0.621624	0.524282
O50	O	-0.347074	-0.288291	0.857615
O51	O	-0.013740	0.045042	1.190948
C52	C	-0.464773	-0.532528	0.465011
C53	C	-0.131439	-0.199194	0.798345
C54	C	0.201894	0.134139	1.131678
C55	C	-0.464774	-0.482593	0.464997
C56	C	-0.131440	-0.149260	0.798330
C57	C	0.201893	0.184073	1.131663
C58	C	-0.403053	-0.125998	0.403508
C59	C	-0.069720	0.207336	0.736841
C60	C	0.263614	0.540669	1.070174
C61	C	-0.403028	-0.313671	0.403461
C62	C	-0.069695	0.019663	0.736794
C63	C	0.263638	0.352996	1.070128
O64	O	-0.350474	-0.337928	0.351112
O65	O	-0.017141	-0.004595	0.684446
O66	O	0.316193	0.328738	1.017779
N67	N	-0.464787	-0.337148	0.465036
N68	N	-0.131454	-0.003815	0.798369
N69	N	0.201879	0.329519	1.131702
C70	C	-0.526552	-0.313704	0.526631
C71	C	-0.193219	0.019629	0.859964
C72	C	0.140115	0.352962	1.193298
O73	O	-0.579074	-0.337979	0.579010
O74	O	-0.245741	-0.004646	0.912343
O75	O	0.087593	0.328687	1.245677
C76	C	-0.526571	-0.126032	0.526681
C77	C	-0.193238	0.207301	0.860015
C78	C	0.140096	0.540635	1.193348
C79	C	-0.464815	-0.102557	0.465096
C80	C	-0.131482	0.230776	0.798429
C81	C	0.201852	0.564110	1.131763
C82	C	-0.341301	-0.102523	0.341928
C83	C	-0.007968	0.230811	0.675261
C84	C	0.325365	0.564144	1.008594
C85	C	-0.341312	-0.055607	0.341936
C86	C	-0.007978	0.277726	0.675270
C87	C	0.325355	0.611059	1.008603
C88	C	-0.403074	-0.032167	0.403525
C89	C	-0.069741	0.301167	0.736858
C90	C	0.263593	0.634500	1.070191
C91	C	-0.464826	-0.055642	0.465104
C92	C	-0.131492	0.277692	0.798438
C93	C	0.201841	0.611025	1.131771
C94	C	-0.588330	-0.102589	0.588281
C95	C	-0.254997	0.230744	0.921614
C96	C	0.078336	0.564078	1.254947
C97	C	-0.588328	-0.055668	0.588290
C98	C	-0.254994	0.277665	0.921623
C99	C	0.078339	0.610999	1.254956
C100	C	-0.526572	-0.032193	0.526704
C101	C	-0.193239	0.301140	0.860037
C102	C	0.140095	0.634474	1.193371
C103	C	-0.526598	0.014714	0.526701
C104	C	-0.193265	0.348048	0.860034
C105	C	0.140069	0.681381	1.193368
N106	N	-0.464839	0.038192	0.465127
N107	N	-0.131506	0.371525	0.798460
N108	N	0.201827	0.704858	1.131793
C109	C	-0.403077	0.014751	0.403538
C110	C	-0.069744	0.348084	0.736872
C111	C	0.263589	0.681418	1.070205
C112	C	-0.526539	-0.412235	0.526599
C113	C	-0.193206	-0.078901	0.859932
C114	C	0.140128	0.254432	1.193265
C115	C	-0.526536	-0.459153	0.526585
C116	C	-0.193202	-0.125819	0.859918
C117	C	0.140131	0.207514	1.193252
C118	C	-0.403011	-0.459116	0.403416
C119	C	-0.069677	-0.125783	0.736750
C120	C	0.263656	0.207551	1.070083
C121	C	-0.403019	-0.412197	0.403426
C122	C	-0.069686	-0.078864	0.736759
C123	C	0.263647	0.254469	1.070092
C124	C	-0.464780	-0.388757	0.465024
C125	C	-0.131447	-0.055424	0.798357
C126	C	0.201886	0.277909	1.131691
C127	C	-0.403104	0.113277	0.403560
C128	C	-0.069771	0.446610	0.736893
C129	C	0.263562	0.779944	1.070227
C130	C	-0.403123	0.160197	0.403571
C131	C	-0.069790	0.493530	0.736905
C132	C	0.263543	0.826863	1.070238
C133	C	-0.526644	0.160156	0.526743
C134	C	-0.193311	0.493489	0.860076
C135	C	0.140022	0.826822	1.193410
C136	C	-0.526630	0.113240	0.526729
C137	C	-0.193296	0.446574	0.860062
C138	C	0.140037	0.779907	1.193396
C139	C	-0.464852	0.089802	0.465134
C140	C	-0.131519	0.423135	0.798467
C141	C	0.201815	0.756469	1.131801
O142	O	-0.579117	0.039001	0.579030
O143	O	-0.245784	0.372334	0.912364
O144	O	0.087549	0.705667	1.245697
O145	O	-0.350548	0.039034	0.351182
O146	O	-0.017215	0.372368	0.684515
O147	O	0.316119	0.705701	1.017849
C148	C	-0.403043	-0.172913	0.403499
C149	C	-0.069709	0.160420	0.736832
C150	C	0.263624	0.493754	1.070166
C151	C	-0.464794	-0.196388	0.465079
C152	C	-0.131461	0.136945	0.798412
C153	C	0.201873	0.470279	1.131746
C154	C	-0.526556	-0.172947	0.526667
C155	C	-0.193223	0.160386	0.860000
C156	C	0.140110	0.493719	1.193334
C157	C	-0.464791	-0.243306	0.465065
C158	C	-0.131457	0.090027	0.798399
C159	C	0.201876	0.423361	1.131732
C160	C	-0.403029	-0.266746	0.403477
C161	C	-0.069695	0.066587	0.736810
C162	C	0.263638	0.399920	1.070144
C163	C	-0.341270	-0.243269	0.341902
C164	C	-0.007937	0.090064	0.675236
C165	C	0.325397	0.423398	1.008569
C166	C	-0.341280	-0.196354	0.341911
C167	C	-0.007947	0.136980	0.675244
C168	C	0.325386	0.470313	1.008577
C169	C	-0.588315	-0.196425	0.588242
C170	C	-0.254982	0.136909	0.921575
C171	C	0.078352	0.470242	1.254908
C172	C	-0.588300	-0.243340	0.588228
C173	C	-0.254967	0.089993	0.921561
C174	C	0.078366	0.423326	1.254894
C175	C	-0.526538	-0.266781	0.526639
C176	C	-0.193205	0.066553	0.859973
C177	C	0.140128	0.399886	1.193306
C178	C	-0.715439	-0.649214	0.465076
C179	C	-0.382105	-0.315880	0.798410
C180	C	-0.048772	0.017453	1.131743
C181	C	-0.822653	-0.649239	0.465099
C182	C	-0.489319	-0.315906	0.798432
C183	C	-0.155986	0.017428	1.131766
C184	C	-0.909722	-0.649261	0.465121
C185	C	-0.576389	-0.315927	0.798454
C186	C	-0.243056	0.017406	1.131788
C187	C	-1.018955	-0.649292	0.465146
C188	C	-0.685621	-0.315959	0.798479
C189	C	-0.352288	0.017374	1.131812
C190	C	-0.213231	-0.649299	0.465142
C191	C	0.120102	-0.315966	0.798475
C192	C	0.453435	0.017368	1.131809
C193	C	-0.106017	-0.649320	0.465161
C194	C	0.227316	-0.315987	0.798494
C195	C	0.560649	0.017347	1.131827
C196	C	-0.464739	-0.649282	0.716692
C197	C	-0.131406	-0.315949	1.050025
C198	C	0.201928	0.017385	1.383358
C199	C	-0.464703	-0.649296	0.823906
C200	C	-0.131369	-0.315962	1.157239
C201	C	0.201964	0.017371	1.490572
C202	C	-0.464874	0.233571	0.465171
C203	C	-0.131540	0.566905	0.798504
C204	C	0.201793	0.900238	1.131837
C205	C	-0.464885	0.183637	0.465160
C206	C	-0.131552	0.516970	0.798493
C207	C	0.201781	0.850304	1.131826
C208	C	-0.464840	-0.649244	0.214484
C209	C	-0.131506	-0.315911	0.547818
C210	C	0.201827	0.017422	0.881151
C211	C	-0.464604	-0.649318	0.107271
C212	C	-0.131271	-0.315984	0.440604
C213	C	0.202062	0.017349	0.773938
C214	C	-0.464638	-0.649308	1.020201
C215	C	-0.131304	-0.315974	1.353534
C216	C	0.202029	0.017359	1.686868
C217	C	-0.464677	-0.649300	0.910968
C218	C	-0.131343	-0.315966	1.244302
C219	C	0.201990	0.017367	1.577635
H220	H	-0.576933	0.179250	0.576883
H221	H	-0.243600	0.512583	0.910217
H222	H	0.089734	0.845916	1.243550
N223	N	-0.274679	-0.127794	0.275486
N224	N	0.058654	0.205539	0.608819
N225	N	0.391987	0.538872	0.942152
H226	H	-0.313821	-0.147240	0.230707
H227	H	0.019513	0.186093	0.564040
H228	H	0.352846	0.519426	0.897374
H229	H	-0.230023	-0.147253	0.314808
H230	H	0.103310	0.186081	0.648142
H231	H	0.436643	0.519414	0.981475
H232	H	-0.290984	-0.262363	0.291751
H233	H	0.042349	0.070971	0.625085
H234	H	0.375682	0.404304	0.958418
H235	H	-0.290991	-0.177245	0.291762
H236	H	0.042342	0.156089	0.625096
H237	H	0.375675	0.489422	0.958429
N238	N	-0.336516	0.185516	0.337141
N239	N	-0.003183	0.518849	0.670474
N240	N	0.330150	0.852182	1.003808
H241	H	-0.297389	0.163544	0.298127
H242	H	0.035945	0.496877	0.631461
H243	H	0.369278	0.830211	0.964794
H244	H	-0.291926	0.204968	0.376481
H245	H	0.041408	0.538301	0.709814
H246	H	0.374741	0.871634	1.043147
H247	H	-0.352795	0.094199	0.353408
H248	H	-0.019461	0.427532	0.686742
H249	H	0.313872	0.760866	1.020075
N250	N	-0.593171	-0.386957	0.593028
N251	N	-0.259838	-0.053624	0.926361
N252	N	0.073496	0.279709	1.259694
H253	H	-0.554040	-0.367509	0.637811
H254	H	-0.220707	-0.034176	0.971145
H255	H	0.112627	0.299157	1.304478
H256	H	-0.632278	-0.408982	0.631957
H257	H	-0.298945	-0.075649	0.965291
H258	H	0.034389	0.257684	1.298624
H259	H	-0.638609	-0.177344	0.638396
H260	H	-0.305276	0.155989	0.971730
H261	H	0.028057	0.489322	1.305063
N262	N	-0.654924	-0.127904	0.654716
N263	N	-0.321591	0.205430	0.988049
N264	N	0.011742	0.538763	1.321382
H265	H	-0.699586	-0.147355	0.615452
H266	H	-0.366253	0.185978	0.948785
H267	H	-0.032920	0.519311	1.282118
H268	H	-0.693976	-0.105902	0.693723
H269	H	-0.360643	0.227431	1.027056
H270	H	-0.027310	0.560764	1.360390
H271	H	-0.638619	-0.036586	0.638455
H272	H	-0.305286	0.296748	0.971788
H273	H	0.028048	0.630081	1.305121
N274	N	-0.274687	-0.030287	0.275535
N275	N	0.058646	0.303046	0.608868
N276	N	0.391980	0.636379	0.942202
H277	H	-0.313822	-0.010800	0.230765
H278	H	0.019512	0.322533	0.564099
H279	H	0.352845	0.655866	0.897432
H280	H	-0.235569	-0.052287	0.236589
H281	H	0.097764	0.281046	0.569922
H282	H	0.431098	0.614380	0.903256
N283	N	-0.336413	-0.386880	0.337002
N284	N	-0.003080	-0.053546	0.670336
N285	N	0.330254	0.279787	1.003669
H286	H	-0.297292	-0.408853	0.297986
H287	H	0.036041	-0.075519	0.631319
H288	H	0.369375	0.257814	0.964652
H289	H	-0.291816	-0.367431	0.376343
H290	H	0.041517	-0.034098	0.709677
H291	H	0.374850	0.299235	1.043010
N292	N	-0.593247	0.087918	0.593139
N293	N	-0.259913	0.421251	0.926473
N294	N	0.073420	0.754584	1.259806
H295	H	-0.632377	0.109888	0.632153
H296	H	-0.299043	0.443222	0.965486
H297	H	0.034290	0.776555	1.298820
H298	H	-0.554030	0.068436	0.637844
H299	H	-0.220696	0.401770	0.971178
H300	H	0.112637	0.735103	1.304511
N301	N	-0.654920	-0.268657	0.654649
N302	N	-0.321587	0.064676	0.987982
N303	N	0.011746	0.398010	1.321316
H304	H	-0.694043	-0.246684	0.693664
H305	H	-0.360710	0.086650	1.026997
H306	H	-0.027377	0.419983	1.360330
H307	H	-0.615704	-0.288139	0.699353
H308	H	-0.282371	0.045194	1.032686
H309	H	0.050963	0.378528	1.366020
H310	H	-0.352722	-0.478209	0.353268
H311	H	-0.019389	-0.144876	0.686601
H312	H	0.313944	0.188457	1.019934
H313	H	-0.576834	-0.478262	0.576724
H314	H	-0.243501	-0.144929	0.910057
H315	H	0.089833	0.188405	1.243391
