data_functionalizedCrystal
_audit_creation_method	'MofGen! by Chris Wilmer'
_symmetry_space_group_name_H-M	'P1'
_symmetry_Int_Tables_number	1
_symmetry_cell_setting	triclinic
loop_
_symmetry_equiv_pos_as_xyz
  x,y,z
_cell_length_a	15.944551
_cell_length_b	17.038272
_cell_length_c	14.421503
_cell_angle_alpha	90.004327
_cell_angle_beta	89.996859
_cell_angle_gamma	87.305147
loop_
_atom_site_label
_atom_site_type_symbol
_atom_site_fract_x
_atom_site_fract_y
_atom_site_fract_z
O1	O	1.121728	0.100827	-0.077015
O2	O	1.621728	0.600827	0.422985
O3	O	0.878066	0.113259	-0.077039
O4	O	1.378066	0.613259	0.422961
O5	O	0.998449	-0.006773	-0.077020
O6	O	1.498449	0.493227	0.422980
O7	O	1.001345	0.220859	-0.077034
O8	O	1.501345	0.720859	0.422966
O9	O	0.998429	-0.006755	0.077204
O10	O	1.498429	0.493245	0.577204
O11	O	0.878046	0.113277	0.077185
O12	O	1.378046	0.613277	0.577185
O13	O	1.121708	0.100845	0.077208
O14	O	1.621708	0.600845	0.577208
Cu15	Cu	0.999875	0.107062	0.091278
Cu16	Cu	1.499875	0.607062	0.591278
Cu17	Cu	0.999899	0.107041	-0.091109
Cu18	Cu	1.499899	0.607041	0.408891
O19	O	1.001325	0.220877	0.077189
O20	O	1.501325	0.720877	0.577189
C21	C	0.846725	0.112752	0.000070
C22	C	1.346725	0.612752	0.500070
C23	C	0.753369	0.111205	0.000062
C24	C	1.253369	0.611205	0.500062
C25	C	0.995805	-0.035893	0.000092
C26	C	1.495805	0.464107	0.500092
C27	C	0.987945	-0.122688	0.000091
C28	C	1.487945	0.377312	0.500091
C29	C	0.532936	0.033105	0.000085
C30	C	1.032936	0.533105	0.500085
C31	C	0.474515	0.069363	-0.075958
C32	C	0.974515	0.569363	0.424042
C33	C	0.582443	0.108405	0.000073
C34	C	1.082443	0.608405	0.500073
C35	C	0.474519	0.069398	0.076094
C36	C	0.974519	0.569398	0.576094
C37	C	0.417337	0.105696	0.000088
C38	C	0.917337	0.605696	0.500088
C39	C	0.525252	0.144684	-0.076033
C40	C	1.025252	0.644684	0.423967
C41	C	0.525261	0.144709	0.076088
C42	C	1.025261	0.644709	0.576088
C43	C	0.466862	0.181022	0.000027
C44	C	0.966862	0.681022	0.500027
C45	C	0.677557	0.109964	0.000063
C46	C	1.177557	0.609964	0.500063
C47	C	0.322225	0.104143	0.000090
C48	C	0.822225	0.604143	0.500090
C49	C	1.060103	-0.172781	0.000098
C50	C	1.560103	0.327219	0.500098
C51	C	1.052713	-0.254334	0.000089
C52	C	1.552713	0.245666	0.500089
C53	C	0.973165	-0.285792	0.000078
C54	C	1.473165	0.214208	0.500078
C55	C	0.901002	-0.235693	0.000068
C56	C	1.401002	0.264307	0.500068
C57	C	0.908393	-0.154142	0.000071
C58	C	1.408393	0.345858	0.500071
C59	C	0.947056	-0.531558	0.000063
C60	C	1.447056	-0.031558	0.500063
C61	C	0.939671	-0.613115	0.000063
C62	C	1.439671	-0.113115	0.500063
C63	C	1.091383	-0.631751	0.000083
C64	C	1.591383	-0.131751	0.500083
C65	C	1.098766	-0.550197	0.000091
C66	C	1.598766	-0.050197	0.500091
C67	C	1.026603	-0.500105	0.000075
C68	C	1.526603	-0.000105	0.500075
C69	C	0.965610	-0.369152	0.000071
C70	C	1.465610	0.130848	0.500071
C71	C	1.034159	-0.416747	0.000076
C72	C	1.534159	0.083253	0.500076
C73	C	1.153049	0.101352	0.000097
C74	C	1.653049	0.601352	0.500097
C75	C	1.246405	0.102899	0.000100
C76	C	1.746405	0.602899	0.500100
C77	C	1.003969	0.249997	0.000076
C78	C	1.503969	0.749997	0.500076
C79	C	1.011829	0.336792	0.000071
C80	C	1.511829	0.836792	0.500071
N81	N	0.999865	0.107077	0.219560
N82	N	1.499865	0.607077	0.719560
N83	N	0.999916	0.107021	-0.219390
N84	N	1.499916	0.607021	0.280610
C85	C	0.944187	0.162555	0.469205
C86	C	1.444187	0.662555	0.969205
C87	C	1.021171	0.177734	0.531013
C88	C	1.521171	0.677734	1.031013
C89	C	0.999884	0.107058	0.408721
C90	C	1.499884	0.607058	0.908721
C91	C	0.922921	0.091897	0.531006
C92	C	1.422921	0.591897	1.031006
C93	C	0.999895	0.107042	0.591442
C94	C	1.499895	0.607042	1.091442
C95	C	1.076908	0.122272	0.469169
C96	C	1.576908	0.622272	0.969169
C97	C	0.978606	0.036405	0.469156
C98	C	1.478606	0.536405	0.969156
C99	C	1.055642	0.051554	0.530937
C100	C	1.555642	0.551554	1.030937
C101	C	0.999876	0.107070	0.303460
C102	C	1.499876	0.607070	0.803460
C103	C	0.999912	0.107030	0.696701
C104	C	1.499912	0.607030	1.196701
H105	H	0.561807	-0.029389	-0.000006
H106	H	1.061807	0.470611	0.499994
H107	H	1.142019	0.135160	0.442121
H108	H	1.642019	0.635160	0.942121
O109	O	1.118111	-0.010620	0.566627
O110	O	1.618111	0.489380	1.066627
H111	H	1.100948	-0.069081	0.540746
H112	H	1.600948	0.430919	1.040746
H113	H	0.849634	-0.113356	0.000064
H114	H	1.349634	0.386644	0.500064
O115	O	0.428852	0.263885	-0.000032
O116	O	0.928852	0.763885	0.499968
H117	H	0.389886	0.273346	0.063121
H118	H	0.889886	0.773346	0.563121
O119	O	1.130544	-0.308359	0.000112
O120	O	1.630544	0.191641	0.500112
H121	H	1.168356	-0.297172	-0.062732
H122	H	1.668356	0.202828	0.437268
O123	O	0.853870	-0.647051	0.000058
O124	O	1.353870	-0.147051	0.500058
H125	H	0.846890	-0.683775	-0.062794
H126	H	1.346890	-0.183775	0.437206
O127	O	0.815204	-0.269624	0.000054
O128	O	1.315204	0.230376	0.500054
H129	H	0.766270	-0.221087	0.000040
H130	H	1.266270	0.278913	0.500040
O131	O	1.119958	-0.382825	0.000083
O132	O	1.619958	0.117175	0.500083
H133	H	1.126942	-0.346116	0.062947
H134	H	1.626942	0.153884	0.562947
H135	H	0.547520	0.176502	-0.140391
H136	H	1.047520	0.676502	0.359609
H137	H	0.888296	-0.490782	0.000051
H138	H	1.388296	0.009218	0.500051
O139	O	0.881868	0.224763	0.433285
O140	O	1.381868	0.724763	0.933285
H141	H	0.899741	0.283349	0.458060
H142	H	1.399741	0.783349	0.958060
H143	H	0.857830	0.079082	0.558171
H144	H	1.357830	0.579082	1.058171
O145	O	0.444859	0.027170	-0.161106
O146	O	0.944859	0.527170	0.338894
H147	H	0.471460	-0.034212	-0.160946
H148	H	0.971460	0.465788	0.339054
O149	O	1.145902	-0.138851	0.000101
O150	O	1.645902	0.361149	0.500101
H151	H	1.194835	-0.187389	0.000093
H152	H	1.694835	0.312611	0.500093
O153	O	0.879815	-0.403088	0.000080
O154	O	1.379815	0.096912	0.500080
H155	H	0.872828	-0.439807	-0.062775
H156	H	1.372828	0.060193	0.437225
H157	H	1.039179	0.237476	0.558183
H158	H	1.539179	0.737476	1.058183
H159	H	0.960576	-0.023318	0.441965
H160	H	1.460576	0.476682	0.941965
H161	H	0.547656	0.176539	0.140376
H162	H	1.047656	0.676539	0.640376
O163	O	1.184563	-0.516263	0.000102
O164	O	1.684563	-0.016263	0.500102
H165	H	1.191560	-0.479550	-0.062751
H166	H	1.691560	0.020450	0.437249
H167	H	0.452149	0.037543	0.140380
H168	H	0.952149	0.537543	0.640380
O169	O	1.169214	-0.685776	0.000093
O170	O	1.669214	-0.185776	0.500093
H171	H	1.150715	-0.747769	0.000083
H172	H	1.650715	-0.247769	0.500083
