data_functionalizedCrystal
_audit_creation_method	'MofGen! by Chris Wilmer'
_symmetry_space_group_name_H-M	'P1'
_symmetry_Int_Tables_number	1
_symmetry_cell_setting	triclinic
loop_
_symmetry_equiv_pos_as_xyz
  x,y,z
_cell_length_a	18.050589
_cell_length_b	11.169417
_cell_length_c	11.169409
_cell_angle_alpha	89.978351
_cell_angle_beta	90.032850
_cell_angle_gamma	89.973557
loop_
_atom_site_label
_atom_site_type_symbol
_atom_site_fract_x
_atom_site_fract_y
_atom_site_fract_z
Zn1	Zn	-0.295635	-1.834813	0.678597
Zn2	Zn	0.204365	-1.334813	1.178597
Zn3	Zn	-0.419850	-1.834640	0.477912
Zn4	Zn	0.080150	-1.334640	0.977912
Zn5	Zn	-0.295674	-1.634099	0.477925
Zn6	Zn	0.204326	-1.134099	0.977925
Zn7	Zn	-0.419783	-1.634044	0.678550
Zn8	Zn	0.080217	-1.134044	1.178550
O9	O	-0.357735	-1.734399	0.578246
O10	O	0.142265	-1.234399	1.078246
O11	O	-0.312123	-2.002740	0.651990
O12	O	0.187877	-1.502740	1.151990
O13	O	-0.403422	-1.807988	0.309964
O14	O	0.096578	-1.307988	0.809964
O15	O	-0.191744	-1.660820	0.504569
O16	O	0.308256	-1.160820	1.004569
O17	O	-0.403383	-2.002613	0.504547
O18	O	0.096617	-1.502613	1.004547
O19	O	-0.191715	-1.808284	0.652002
O20	O	0.308285	-1.308284	1.152002
O21	O	-0.312190	-1.660652	0.309973
O22	O	0.187810	-1.160652	0.809973
O23	O	-0.312126	-1.466142	0.504524
O24	O	0.187874	-0.966142	1.004524
O25	O	-0.403271	-1.660726	0.846506
O26	O	0.096729	-1.160726	1.346506
O27	O	-0.403309	-1.466102	0.651923
O28	O	0.096691	-0.966102	1.151923
O29	O	-0.312059	-1.808230	0.846540
O30	O	0.187941	-1.308230	1.346540
O31	O	-0.523765	-1.807935	0.504502
O32	O	-0.023765	-1.307935	1.004502
O33	O	-0.523717	-1.660558	0.651910
O34	O	-0.023717	-1.160558	1.151910
C35	C	-0.357715	-1.422574	0.578221
C36	C	0.142285	-0.922574	1.078221
C37	C	-0.357724	-1.289174	0.578238
C38	C	0.142276	-0.789174	1.078238
C39	C	-0.550688	-1.734254	0.578226
C40	C	-0.050688	-1.234254	1.078226
C41	C	-0.633233	-1.734302	0.578258
C42	C	-0.133233	-1.234302	1.078258
C43	C	-0.832684	-1.654237	0.658390
C44	C	-0.332684	-1.154237	1.158390
C45	C	-0.882135	-1.624974	0.548874
C46	C	-0.382135	-1.124974	1.048874
C47	C	-0.784364	-1.734420	0.578273
C48	C	-0.284364	-1.234420	1.078273
C49	C	-0.881995	-1.763742	0.687802
C50	C	-0.381995	-1.263742	1.187802
C51	C	-0.930349	-1.734532	0.578298
C52	C	-0.430349	-1.234532	1.078298
C53	C	-0.832727	-1.705099	0.468699
C54	C	-0.332727	-1.205099	0.968699
C55	C	-0.832582	-1.843918	0.607701
C56	C	-0.332582	-1.343918	1.107701
C57	C	-0.882011	-1.814697	0.498109
C58	C	-0.382011	-1.314697	0.998109
C59	C	-0.700265	-1.734353	0.578261
C60	C	-0.200265	-1.234353	1.078261
C61	C	-1.014445	-1.734599	0.578298
C62	C	-0.514445	-1.234599	1.078298
C63	C	-0.164030	-1.734577	0.578292
C64	C	0.335970	-1.234577	1.078292
C65	C	-0.081484	-1.734653	0.578312
C66	C	0.418516	-1.234653	1.078312
C67	C	-0.357653	-1.734491	0.891289
C68	C	0.142347	-1.234491	1.391289
C69	C	-0.357618	-1.734531	1.024689
C70	C	0.142382	-1.234531	1.524689
C71	C	-0.357749	-1.047441	0.578264
C72	C	0.142251	-0.547441	1.078264
C73	C	-0.357736	-1.180841	0.578251
C74	C	0.142264	-0.680841	1.078251
C75	C	-0.357764	-1.734376	0.266421
C76	C	0.142236	-1.234376	0.766421
C77	C	-0.357590	-1.734570	0.133022
C78	C	0.142410	-1.234570	0.633022
H79	H	-0.811026	-1.586330	0.726047
H80	H	-0.311026	-1.086330	1.226047
F81	F	-0.910583	-1.504002	0.516342
F82	F	-0.410583	-1.004002	1.016342
H83	H	-0.903532	-1.882552	0.430289
H84	H	-0.403532	-1.382552	0.930289
H85	H	-0.810802	-1.936444	0.632621
H86	H	-0.310802	-1.436444	1.132621
H87	H	-0.811175	-1.680236	0.376056
H88	H	-0.311175	-1.180236	0.876056
F89	F	-0.910285	-1.796100	0.808857
F90	F	-0.410285	-1.296100	1.308857
