data_functionalizedCrystal
_audit_creation_method	'MofGen! by Chris Wilmer'
_symmetry_space_group_name_H-M	'P1'
_symmetry_Int_Tables_number	1
_symmetry_cell_setting	triclinic
loop_
_symmetry_equiv_pos_as_xyz
  x,y,z
_cell_length_a	6.817900
_cell_length_b	16.015202
_cell_length_c	16.015572
_cell_angle_alpha	60.347627
_cell_angle_beta	104.485554
_cell_angle_gamma	104.489019
loop_
_atom_site_label
_atom_site_type_symbol
_atom_site_fract_x
_atom_site_fract_y
_atom_site_fract_z
V1	V	-3.988171	-0.038675	-0.257231
O2	O	-3.988553	0.098577	-0.295264
O3	O	-3.928282	-0.169707	-0.214184
O4	O	-3.928264	0.004358	-0.388255
O5	O	-3.988571	-0.076693	-0.119988
V6	V	-4.474779	-0.027273	-0.245831
O7	O	-4.242663	-0.063688	-0.282237
O8	O	-4.670485	-0.002260	-0.220825
O9	O	-4.311462	0.103759	-0.288878
O10	O	-4.591794	-0.164525	-0.207799
O11	O	-4.591776	0.010745	-0.383075
O12	O	-4.311480	-0.070306	-0.114807
C13	C	-3.770861	-0.202975	-0.199472
C14	C	-3.803104	-0.309822	-0.165150
C15	C	-4.064930	-0.591624	-0.469790
C16	C	-4.095227	-0.692026	-0.437524
C17	C	-4.032914	-0.719852	-0.270531
C18	C	-4.002620	-0.619451	-0.302783
C19	C	-4.018629	-0.555345	-0.402414
C20	C	-3.956319	-0.583172	-0.235407
C21	C	-3.926017	-0.482780	-0.267657
C22	C	-3.942016	-0.418667	-0.367283
C23	C	-3.988327	-0.454952	-0.434664
C24	C	-3.940296	-0.647280	-0.135776
C25	C	-3.893996	-0.611000	-0.068400
C26	C	-3.863708	-0.510607	-0.100650
C27	C	-3.879706	-0.446494	-0.200276
C28	C	-3.817397	-0.474321	-0.033269
C29	C	-3.787095	-0.373929	-0.065519
C30	C	-3.849405	-0.346102	-0.232526
C31	C	-3.770837	0.019062	-0.421516
C32	C	-3.803064	0.053380	-0.528358
C33	C	-4.064990	-0.251222	-0.810205
C34	C	-4.095279	-0.218944	-0.910605
C35	C	-4.032934	-0.051950	-0.938411
C36	C	-4.002628	-0.084214	-0.838012
C37	C	-4.018663	-0.183851	-0.773916
C38	C	-3.956301	-0.016843	-0.801723
C39	C	-3.926009	-0.049105	-0.701332
C40	C	-3.942045	-0.148737	-0.637231
C41	C	-3.988371	-0.216112	-0.673526
C42	C	-3.940282	0.082793	-0.865820
C43	C	-3.893954	0.150164	-0.829531
C44	C	-3.863647	0.117903	-0.729139
C45	C	-3.879683	0.018271	-0.665037
C46	C	-3.817321	0.185278	-0.692844
C47	C	-3.787030	0.153017	-0.592454
C48	C	-3.849391	-0.013991	-0.564647
C49	C	-4.132225	0.137022	-0.303586
C50	C	-4.079219	0.243869	-0.337914
C51	C	-4.132249	-0.085015	-0.081540
C52	C	-4.079261	-0.119328	0.025301
H53	H	-4.132922	-0.721558	-0.492398
H54	H	-3.804292	0.266402	-0.745045
H55	H	-3.862494	-0.293903	-0.313656
H56	H	-4.019892	0.029174	-0.990611
H57	H	-4.078019	-0.539425	-0.550920
H58	H	-4.078020	-0.332355	-0.758013
H59	H	-4.001400	-0.297246	-0.621334
H60	H	-3.917302	-0.336921	-0.393539
H61	H	-3.880912	0.231289	-0.881731
H62	H	-3.804349	-0.526531	0.047851
H63	H	-4.001417	-0.402753	-0.515794
H64	H	-3.749381	-0.344390	-0.010654
H65	H	-4.132995	-0.273813	-0.940145
H66	H	-4.019878	-0.772061	-0.189411
H67	H	-3.964918	0.109058	-0.947563
H68	H	-3.964956	-0.729025	-0.109521
H69	H	-3.749306	0.207877	-0.562907
H70	H	-3.880960	-0.663209	0.012720
H71	H	-3.862421	-0.095125	-0.512455
H72	H	-3.917384	-0.175003	-0.555487
