data_functionalizedCrystal
_audit_creation_method	'MofGen! by Chris Wilmer'
_symmetry_space_group_name_H-M	'P1'
_symmetry_Int_Tables_number	1
_symmetry_cell_setting	triclinic
loop_
_symmetry_equiv_pos_as_xyz
  x,y,z
_cell_length_a	17.077404
_cell_length_b	19.077068
_cell_length_c	17.077396
_cell_angle_alpha	92.266197
_cell_angle_beta	89.982756
_cell_angle_gamma	92.327269
loop_
_atom_site_label
_atom_site_type_symbol
_atom_site_fract_x
_atom_site_fract_y
_atom_site_fract_z
Zn1	Zn	1.187457	-0.280191	-0.456376
Zn2	Zn	1.520790	0.053142	-0.123042
Zn3	Zn	1.854124	0.386476	0.210291
Zn4	Zn	1.182084	-0.397897	-0.330374
Zn5	Zn	1.515418	-0.064563	0.002959
Zn6	Zn	1.848751	0.268770	0.336292
Zn7	Zn	1.056193	-0.280218	-0.325125
Zn8	Zn	1.389526	0.053116	0.008209
Zn9	Zn	1.722859	0.386449	0.341542
Zn10	Zn	1.050874	-0.397853	-0.461596
Zn11	Zn	1.384207	-0.064520	-0.128263
Zn12	Zn	1.717540	0.268814	0.205071
O13	O	1.119152	-0.339040	-0.393368
O14	O	1.452485	-0.005706	-0.060034
O15	O	1.785819	0.327627	0.273299
O16	O	1.296591	-0.295812	-0.439673
O17	O	1.629924	0.037521	-0.106340
O18	O	1.963257	0.370855	0.226993
O19	O	1.165362	-0.382315	-0.219832
O20	O	1.498695	-0.048982	0.113501
O21	O	1.832029	0.284351	0.446834
O22	O	1.078080	-0.181723	-0.338154
O23	O	1.411413	0.151610	-0.004820
O24	O	1.744746	0.484944	0.328513
O25	O	1.292644	-0.382290	-0.347101
O26	O	1.625977	-0.048956	-0.013768
O27	O	1.959310	0.284377	0.319566
O28	O	1.174519	-0.181704	-0.434583
O29	O	1.507852	0.151630	-0.101250
O30	O	1.841185	0.484963	0.232084
O31	O	1.072870	-0.295857	-0.215975
O32	O	1.406203	0.037476	0.117358
O33	O	1.739537	0.370809	0.450691
O34	O	0.945641	-0.295815	-0.343216
O35	O	1.278974	0.037518	-0.009882
O36	O	1.612307	0.370852	0.323451
O37	O	1.069014	-0.382216	-0.570749
O38	O	1.402348	-0.048882	-0.237416
O39	O	1.735681	0.284451	0.095917
O40	O	0.941733	-0.382241	-0.443481
O41	O	1.275066	-0.048908	-0.110147
O42	O	1.608399	0.284425	0.223186
O43	O	1.169361	-0.295770	-0.566914
O44	O	1.502695	0.037563	-0.233580
O45	O	1.836028	0.370897	0.099753
O46	O	1.160205	-0.496382	-0.352163
O47	O	1.493538	-0.163048	-0.018830
O48	O	1.826871	0.170285	0.314503
O49	O	1.063805	-0.496350	-0.448571
O50	O	1.397138	-0.163016	-0.115238
O51	O	1.730471	0.170317	0.218096
C52	C	0.915205	-0.339027	-0.393345
C53	C	1.248538	-0.005693	-0.060012
C54	C	1.581871	0.327640	0.273321
C55	C	0.827954	-0.339038	-0.393355
C56	C	1.161288	-0.005705	-0.060022
C57	C	1.494621	0.327628	0.273311
C58	C	0.784947	-0.384108	-0.445486
C59	C	1.118280	-0.050775	-0.112152
C60	C	1.451614	0.282558	0.221181
C61	C	0.702966	-0.384110	-0.445498
C62	C	1.036300	-0.050777	-0.112165
C63	C	1.369633	0.282557	0.221168
C64	C	0.663995	-0.339044	-0.393376
C65	C	0.997328	-0.005711	-0.060043
C66	C	1.330661	0.327622	0.273290
C67	C	0.707008	-0.293969	-0.341243
C68	C	1.040341	0.039364	-0.007910
C69	C	1.373675	0.372697	0.325423
C70	C	0.788987	-0.293965	-0.341235
C71	C	1.122321	0.039369	-0.007902
C72	C	1.455654	0.372702	0.325432
C73	C	0.536137	-0.293983	-0.341263
C74	C	0.869471	0.039350	-0.007929
C75	C	1.202804	0.372683	0.325404
C76	C	0.454153	-0.293988	-0.341270
C77	C	0.787486	0.039345	-0.007936
C78	C	1.120819	0.372678	0.325397
C79	C	0.450117	-0.384128	-0.445526
C80	C	0.783450	-0.050795	-0.112193
C81	C	1.116783	0.282538	0.221141
C82	C	0.532096	-0.384124	-0.445518
C83	C	0.865429	-0.050790	-0.112185
C84	C	1.198762	0.282543	0.221149
C85	C	0.575103	-0.339049	-0.393384
C86	C	0.908437	-0.005716	-0.060050
C87	C	1.241770	0.327617	0.273283
C88	C	1.110866	-0.521903	-0.401520
C89	C	1.444199	-0.188570	-0.068187
C90	C	1.777532	0.144763	0.265146
C91	C	1.107393	-0.600133	-0.405034
C92	C	1.440726	-0.266800	-0.071701
C93	C	1.774059	0.066533	0.261632
C94	C	1.155990	-0.636879	-0.356533
C95	C	1.489324	-0.303546	-0.023199
C96	C	1.822657	0.029787	0.310134
C97	C	1.152728	-0.710384	-0.359842
C98	C	1.486062	-0.377051	-0.026509
C99	C	1.819395	-0.043718	0.306824
C100	C	1.100864	-0.747143	-0.411651
C101	C	1.434198	-0.413809	-0.078317
C102	C	1.767531	-0.080476	0.255016
C103	C	1.052265	-0.710392	-0.460158
C104	C	1.385598	-0.377058	-0.126824
C105	C	1.718932	-0.043725	0.206509
C106	C	1.055531	-0.636888	-0.456851
C107	C	1.388865	-0.303554	-0.123518
C108	C	1.722198	0.029779	0.209815
C109	C	1.085713	-0.966977	-0.426921
C110	C	1.419046	-0.633643	-0.093587
C111	C	1.752379	-0.300310	0.239746
C112	C	1.082448	-1.040486	-0.430222
C113	C	1.415782	-0.707153	-0.096888
C114	C	1.749115	-0.373819	0.236445
C115	C	1.182913	-1.040474	-0.329907
C116	C	1.516247	-0.707140	0.003426
C117	C	1.849580	-0.373807	0.336760
C118	C	1.186172	-0.966968	-0.326602
C119	C	1.519505	-0.633635	0.006731
C120	C	1.852838	-0.300302	0.340065
C121	C	1.137575	-0.930224	-0.375112
C122	C	1.470908	-0.596890	-0.041779
C123	C	1.804242	-0.263557	0.291555
N124	N	1.097527	-0.822277	-0.415033
N125	N	1.430861	-0.488944	-0.081700
N126	N	1.764194	-0.155610	0.251634
N127	N	1.140917	-0.855091	-0.371733
N128	N	1.474250	-0.521757	-0.038399
N129	N	1.807583	-0.188424	0.294934
C130	C	1.323896	-0.339053	-0.393391
C131	C	1.657229	-0.005720	-0.060057
C132	C	1.990562	0.327614	0.273276
C133	C	1.411145	-0.339059	-0.393400
C134	C	1.744478	-0.005725	-0.060067
C135	C	2.077812	0.327608	0.273266
C136	C	1.119194	-0.338985	-0.598110
C137	C	1.452527	-0.005652	-0.264776
C138	C	1.785860	0.327682	0.068557
C139	C	1.119212	-0.338962	-0.685358
C140	C	1.452545	-0.005628	-0.352025
C141	C	1.785878	0.327705	-0.018692
C142	C	1.127492	-0.155462	-0.385200
C143	C	1.460825	0.177872	-0.051867
C144	C	1.794158	0.511205	0.281466
C145	C	1.131046	-0.077232	-0.381720
C146	C	1.464379	0.256102	-0.048387
C147	C	1.797712	0.589435	0.284947
C148	C	1.071067	-0.293938	-0.724339
C149	C	1.404400	0.039396	-0.391006
C150	C	1.737733	0.372729	-0.057673
C151	C	1.071080	-0.293922	-0.806319
C152	C	1.404413	0.039412	-0.472986
C153	C	1.737747	0.372745	-0.139653
C154	C	1.119243	-0.338927	-0.849316
C155	C	1.452577	-0.005593	-0.515983
C156	C	1.785910	0.327740	-0.182650
C157	C	1.167390	-0.383956	-0.810330
C158	C	1.500724	-0.050623	-0.476997
C159	C	1.834057	0.282711	-0.143663
C160	C	1.167372	-0.383975	-0.728352
C161	C	1.500706	-0.050642	-0.395018
C162	C	1.834039	0.282692	-0.061685
C163	C	1.167426	-0.383912	-0.981198
C164	C	1.500760	-0.050579	-0.647865
C165	C	1.834093	0.282755	-0.314531
C166	C	1.167446	-0.383892	-1.063182
C167	C	1.500779	-0.050559	-0.729849
C168	C	1.834113	0.282774	-0.396515
C169	C	1.071134	-0.293859	-1.059166
C170	C	1.404468	0.039475	-0.725832
C171	C	1.737801	0.372808	-0.392499
C172	C	1.071116	-0.293878	-0.977187
C173	C	1.404449	0.039456	-0.643854
C174	C	1.737783	0.372789	-0.310521
C175	C	1.119264	-0.338906	-0.938207
C176	C	1.452598	-0.005573	-0.604873
C177	C	1.785931	0.327761	-0.271540
C178	C	1.119158	-0.339043	-0.189420
C179	C	1.452491	-0.005710	0.143913
C180	C	1.785824	0.327624	0.477247
C181	C	1.119301	-0.338868	-0.102163
C182	C	1.452634	-0.005535	0.231171
C183	C	1.785967	0.327799	0.564504
H184	H	0.675271	-0.257273	-0.298808
H185	H	1.008604	0.076060	0.034526
H186	H	1.341938	0.409393	0.367859
C187	C	1.018125	-0.244384	-0.849194
C188	C	1.351458	0.088949	-0.515861
C189	C	1.684792	0.422283	-0.182527
N190	N	0.978239	-0.207068	-0.881487
N191	N	1.311573	0.126265	-0.548153
N192	N	1.644906	0.459598	-0.214820
C193	C	1.018166	-0.244331	-1.102046
C194	C	1.351499	0.089003	-0.768713
C195	C	1.684832	0.422336	-0.435380
N196	N	0.978273	-0.207027	-1.134347
N197	N	1.311606	0.126306	-0.801014
N198	N	1.644939	0.459640	-0.467681
H199	H	1.031901	-0.257227	-0.942181
H200	H	1.365234	0.076106	-0.608848
H201	H	1.698568	0.409439	-0.275514
H202	H	1.010039	-0.740326	-0.502345
H203	H	1.343373	-0.406993	-0.169011
H204	H	1.676706	-0.073659	0.164322
H205	H	1.015959	-0.606970	-0.496348
H206	H	1.349292	-0.273636	-0.163014
H207	H	1.682626	0.059697	0.170319
C208	C	0.411285	-0.244412	-0.283935
C209	C	0.744619	0.088922	0.049398
C210	C	1.077952	0.422255	0.382731
N211	N	0.378998	-0.207069	-0.240751
N212	N	0.712331	0.126264	0.092583
N213	N	1.045665	0.459598	0.425916
H214	H	0.824003	-0.257260	-0.298789
H215	H	1.157337	0.076073	0.034544
H216	H	1.490670	0.409406	0.367878
C217	C	1.236368	-1.080899	-0.276552
C218	C	1.569702	-0.747565	0.056781
C219	C	1.903035	-0.414232	0.390115
N220	N	1.276634	-1.111347	-0.236364
N221	N	1.609968	-0.778014	0.096969
N222	N	1.943301	-0.444680	0.430302
H223	H	1.206665	-0.420539	-1.098188
H224	H	1.539998	-0.087206	-0.764855
H225	H	1.873331	0.246127	-0.431521
H226	H	1.198220	-0.606956	-0.314341
H227	H	1.531553	-0.273622	0.018992
H228	H	1.864887	0.059711	0.352325
H229	H	1.206641	-0.420573	-0.949462
H230	H	1.539974	-0.087239	-0.616129
H231	H	1.873308	0.246094	-0.282796
C232	C	1.032294	-0.926567	-0.480324
C233	C	1.365628	-0.593234	-0.146991
C234	C	1.698961	-0.259901	0.186343
N235	N	0.992072	-0.896128	-0.520565
N236	N	1.325406	-0.562795	-0.187231
N237	N	1.658739	-0.229462	0.146102
H238	H	1.206602	-0.420604	-0.845345
H239	H	1.539935	-0.087270	-0.512012
H240	H	1.873268	0.246063	-0.178678
H241	H	1.206583	-0.420633	-0.696614
H242	H	1.539916	-0.087300	-0.363281
H243	H	1.873250	0.246034	-0.029948
H244	H	1.192301	-0.740300	-0.320346
H245	H	1.525634	-0.406966	0.012987
H246	H	1.858968	-0.073633	0.346320
C247	C	1.243206	-0.926540	-0.269589
C248	C	1.576539	-0.593206	0.063745
C249	C	1.909873	-0.259873	0.397078
N250	N	1.286156	-0.896089	-0.226636
N251	N	1.619489	-0.562756	0.106697
N252	N	1.952822	-0.229422	0.440031
H253	H	1.040224	-1.070412	-0.472424
H254	H	1.373557	-0.737079	-0.139091
H255	H	1.706890	-0.403746	0.194243
C256	C	0.574963	-0.433702	-0.502851
C257	C	0.908296	-0.100369	-0.169518
C258	C	1.241629	0.232965	0.163816
N259	N	0.607250	-0.471044	-0.546036
N260	N	0.940583	-0.137711	-0.212703
N261	N	1.273917	0.195623	0.120630
C262	C	1.018082	-0.244428	-0.677050
C263	C	1.351415	0.088906	-0.343717
C264	C	1.684749	0.422239	-0.010383
N265	N	0.978170	-0.207137	-0.641434
N266	N	1.311503	0.126196	-0.308100
N267	N	1.644836	0.459529	0.025233
H268	H	0.415096	-0.420827	-0.487978
H269	H	0.748429	-0.087494	-0.154645
H270	H	1.081762	0.245839	0.178689
C271	C	0.583444	-0.244401	-0.283910
C272	C	0.916777	0.088933	0.049423
C273	C	1.250111	0.422266	0.382756
N274	N	0.619075	-0.207059	-0.240710
N275	N	0.952408	0.126274	0.092624
N276	N	1.285742	0.459608	0.425957
H277	H	0.816671	-0.420808	-0.487927
H278	H	1.150005	-0.087475	-0.154594
H279	H	1.483338	0.245858	0.178739
H280	H	0.667953	-0.420811	-0.487948
H281	H	1.001286	-0.087478	-0.154614
H282	H	1.334620	0.245856	0.178719
