data_functionalizedCrystal
_audit_creation_method	'MofGen! by Chris Wilmer'
_symmetry_space_group_name_H-M	'P1'
_symmetry_Int_Tables_number	1
_symmetry_cell_setting	triclinic
loop_
_symmetry_equiv_pos_as_xyz
  x,y,z
_cell_length_a	12.759401
_cell_length_b	18.101389
_cell_length_c	12.759400
_cell_angle_alpha	89.985079
_cell_angle_beta	90.014999
_cell_angle_gamma	89.984066
loop_
_atom_site_label
_atom_site_type_symbol
_atom_site_fract_x
_atom_site_fract_y
_atom_site_fract_z
Zn1	Zn	1.606228	-0.418691	-0.418365
Zn2	Zn	2.106228	0.081309	0.081635
Zn3	Zn	1.606131	-0.294857	-0.594032
Zn4	Zn	2.106131	0.205143	-0.094032
Zn5	Zn	1.430539	-0.294870	-0.418369
Zn6	Zn	1.930539	0.205130	0.081631
Zn7	Zn	1.430519	-0.418664	-0.594003
Zn8	Zn	1.930519	0.081336	-0.094003
O9	O	1.518354	-0.356770	-0.506192
O10	O	2.018354	0.143230	-0.006192
O11	O	1.753237	-0.402270	-0.441677
O12	O	2.253237	0.097730	0.058323
O13	O	1.582806	-0.191226	-0.570745
O14	O	2.082806	0.308774	-0.070745
O15	O	1.453893	-0.311312	-0.271348
O16	O	1.953893	0.188688	0.228652
O17	O	1.753165	-0.311290	-0.570740
O18	O	2.253165	0.188710	-0.070740
O19	O	1.582971	-0.402283	-0.271344
O20	O	2.082971	0.097717	0.228656
O21	O	1.453799	-0.191236	-0.441686
O22	O	1.953799	0.308764	0.058314
O23	O	1.283515	-0.311286	-0.441658
O24	O	1.783515	0.188714	0.058342
O25	O	1.453860	-0.522300	-0.570690
O26	O	1.953860	-0.022300	-0.070690
O27	O	1.283501	-0.402236	-0.570695
O28	O	1.783501	0.097764	-0.070695
O29	O	1.582953	-0.522320	-0.441649
O30	O	2.082953	-0.022320	0.058351
O31	O	1.582787	-0.311263	-0.741050
O32	O	2.082787	0.188737	-0.241050
O33	O	1.453766	-0.402224	-0.741028
O34	O	1.953766	0.097776	-0.241028
C35	C	1.245387	-0.356760	-0.506174
C36	C	1.745387	0.143240	-0.006174
C37	C	1.128610	-0.356773	-0.506192
C38	C	1.628610	0.143227	-0.006192
C39	C	1.073786	-0.404220	-0.439111
C40	C	1.573786	0.095780	0.060889
C41	C	0.964062	-0.404224	-0.439121
C42	C	1.464062	0.095776	0.060879
C43	C	0.963996	-0.309334	-0.573304
C44	C	1.463996	0.190666	-0.073304
C45	C	1.073718	-0.309326	-0.573287
C46	C	1.573718	0.190674	-0.073287
C47	C	1.518415	-0.549932	-0.506166
C48	C	2.018415	-0.049932	-0.006166
C49	C	1.518441	-0.632247	-0.506155
C50	C	2.018441	-0.132247	-0.006155
C51	C	1.518502	-0.931338	-0.505958
C52	C	2.018502	-0.431338	-0.005958
C53	C	1.437001	-0.900000	-0.586889
C54	C	1.937001	-0.400000	-0.086889
C55	C	1.437221	-0.814382	-0.587264
C56	C	1.937221	-0.314382	-0.087264
C57	C	1.518471	-0.782955	-0.506055
C58	C	2.018471	-0.282955	-0.006055
C59	C	1.629172	-0.814051	-0.536108
C60	C	2.129172	-0.314051	-0.036108
C61	C	1.628718	-0.899696	-0.536639
C62	C	2.128718	-0.399696	-0.036639
C63	C	1.490265	-0.899760	-0.394794
C64	C	1.990265	-0.399760	0.105206
C65	C	1.487802	-0.814109	-0.395436
C66	C	1.987802	-0.314109	0.104564
C67	C	1.518460	-0.699096	-0.506109
C68	C	2.018460	-0.199096	-0.006109
C69	C	1.518520	-1.015197	-0.505907
C70	C	2.018520	-0.515197	-0.005907
C71	C	1.792388	-0.356781	-0.506211
C72	C	2.292388	0.143219	-0.006211
C73	C	1.909164	-0.356786	-0.506219
C74	C	2.409164	0.143214	-0.006219
C75	C	1.518293	-0.356755	-0.779160
C76	C	2.018293	0.143245	-0.279160
C77	C	1.518362	-0.356773	-0.895936
C78	C	2.018362	0.143227	-0.395936
C79	C	1.518354	-0.164360	-0.506143
C80	C	2.018354	0.335640	-0.006143
C81	C	1.518532	-0.082046	-0.505858
C82	C	2.018532	0.417954	-0.005858
C83	C	1.585682	-0.309486	-1.060506
C84	C	2.085682	0.190514	-0.560506
C85	C	1.585619	-0.309463	-0.950782
C86	C	2.085619	0.190537	-0.450782
C87	C	1.451156	-0.404105	-0.950821
C88	C	1.951156	0.095895	-0.450821
C89	C	1.451215	-0.404124	-1.060543
C90	C	1.951215	0.095876	-0.560543
C91	C	1.518445	-0.356802	-0.232159
C92	C	2.018445	0.143198	0.267841
C93	C	1.518484	-0.356816	-0.115382
C94	C	2.018484	0.143184	0.384618
H95	H	0.919429	-0.442859	-0.384495
H96	H	1.419429	0.057141	0.115505
Cl97	Cl	1.142790	-0.463863	-0.354758
Cl98	Cl	1.642790	0.036137	0.145242
H99	H	1.640337	-0.270923	-0.906104
H100	H	2.140337	0.229077	-0.406104
H101	H	1.396389	-0.442623	-0.906160
H102	H	1.896389	0.057377	-0.406160
H103	H	1.396489	-0.442666	-1.105225
H104	H	1.896489	0.057334	-0.605225
H105	H	0.919290	-0.270706	-0.627931
H106	H	1.419290	0.229294	-0.127931
Cl107	Cl	1.465438	-0.933289	-0.713315
Cl108	Cl	1.965438	-0.433289	-0.213315
Cl109	Cl	1.142646	-0.249667	-0.657614
Cl110	Cl	1.642646	0.250333	-0.157614
H111	H	1.355133	-0.793357	-0.568458
H112	H	1.855133	-0.293357	-0.068458
H113	H	1.354666	-0.920593	-0.568275
H114	H	1.854666	-0.420593	-0.068275
H115	H	1.640457	-0.270965	-1.105153
H116	H	2.140457	0.229035	-0.605153
Cl117	Cl	1.466068	-0.782755	-0.714467
Cl118	Cl	1.966068	-0.282755	-0.214467
H119	H	1.406336	-0.793785	-0.372774
H120	H	1.906336	-0.293785	0.127226
H121	H	1.652652	-0.919680	-0.617901
H122	H	2.152652	-0.419680	-0.117901
Cl123	Cl	1.725596	-0.931707	-0.449523
Cl124	Cl	2.225596	-0.431707	0.050477
H125	H	1.653519	-0.792609	-0.616506
H126	H	2.153519	-0.292609	-0.116506
Cl127	Cl	1.725451	-0.782628	-0.447961
Cl128	Cl	2.225451	-0.282628	0.052039
H129	H	1.410943	-0.921353	-0.367414
H130	H	1.910943	-0.421353	0.132586
H131	H	1.542830	-0.792717	-0.331938
H132	H	2.042830	-0.292717	0.168062
H133	H	1.549627	-0.920027	-0.334497
H134	H	2.049627	-0.420027	0.165503
