data_functionalizedCrystal
_audit_creation_method	'MofGen! by Chris Wilmer'
_symmetry_space_group_name_H-M	'P1'
_symmetry_Int_Tables_number	1
_symmetry_cell_setting	triclinic
loop_
_symmetry_equiv_pos_as_xyz
  x,y,z
_cell_length_a	17.077404
_cell_length_b	18.050589
_cell_length_c	17.077395
_cell_angle_alpha	89.976617
_cell_angle_beta	89.984359
_cell_angle_gamma	90.028446
loop_
_atom_site_label
_atom_site_type_symbol
_atom_site_fract_x
_atom_site_fract_y
_atom_site_fract_z
Zn1	Zn	1.199996	-0.295664	-0.443864
Zn2	Zn	1.699996	0.204336	0.056136
Zn3	Zn	1.199899	-0.419859	-0.312606
Zn4	Zn	1.699899	0.080141	0.187394
Zn5	Zn	1.068736	-0.295688	-0.312612
Zn6	Zn	1.568736	0.204312	0.187388
Zn7	Zn	1.068683	-0.419817	-0.443830
Zn8	Zn	1.568683	0.080183	0.056170
O9	O	1.134329	-0.357757	-0.378228
O10	O	1.634329	0.142243	0.121772
O11	O	1.309830	-0.312146	-0.426464
O12	O	1.809830	0.187854	0.073536
O13	O	1.182482	-0.403414	-0.202760
O14	O	1.682482	0.096586	0.297240
O15	O	1.086211	-0.191760	-0.330039
O16	O	1.586211	0.308240	0.169961
O17	O	1.309759	-0.403392	-0.330030
O18	O	1.809759	0.096608	0.169970
O19	O	1.182646	-0.191743	-0.426469
O20	O	1.682646	0.308257	0.073531
O21	O	1.086117	-0.312186	-0.202764
O22	O	1.586117	0.187814	0.297236
O23	O	0.958882	-0.312146	-0.330006
O24	O	1.458882	0.187854	0.169994
O25	O	1.086120	-0.403321	-0.553681
O26	O	1.586120	0.096679	-0.053681
O27	O	0.958843	-0.403344	-0.426412
O28	O	1.458843	0.096656	0.073588
O29	O	1.182595	-0.312106	-0.553706
O30	O	1.682595	0.187894	-0.053706
O31	O	1.182431	-0.523778	-0.329997
O32	O	1.682431	-0.023778	0.170003
O33	O	1.086027	-0.523748	-0.426407
O34	O	1.586027	-0.023748	0.073593
C35	C	0.930381	-0.357744	-0.378206
C36	C	1.430381	0.142256	0.121794
C37	C	0.843131	-0.357756	-0.378216
C38	C	1.343131	0.142244	0.121784
C39	C	0.802141	-0.405314	-0.428333
C40	C	1.302141	0.094686	0.071667
C41	C	0.720161	-0.405316	-0.428346
C42	C	1.220161	0.094684	0.071654
C43	C	0.679172	-0.357762	-0.378236
C44	C	1.179172	0.142238	0.121764
C45	C	0.720167	-0.310199	-0.328116
C46	C	1.220167	0.189801	0.171884
C47	C	0.802146	-0.310194	-0.328108
C48	C	1.302146	0.189806	0.171892
C49	C	0.549297	-0.310213	-0.328135
C50	C	1.049297	0.189787	0.171865
C51	C	0.467313	-0.310219	-0.328142
C52	C	0.967313	0.189781	0.171858
C53	C	0.467312	-0.405335	-0.428373
C54	C	0.967312	0.094665	0.071627
C55	C	0.549291	-0.405330	-0.428365
C56	C	1.049291	0.094670	0.071635
C57	C	0.590281	-0.357767	-0.378244
C58	C	1.090281	0.142233	0.121756
C59	C	1.134234	-0.550709	-0.378215
C60	C	1.634234	-0.050709	0.121785
C61	C	1.134265	-0.633255	-0.378236
C62	C	1.634265	-0.133255	0.121764
C63	C	1.081892	-0.832716	-0.430645
C64	C	1.581892	-0.332716	0.069355
C65	C	1.062762	-0.882156	-0.359016
C66	C	1.562762	-0.382156	0.140984
C67	C	1.134342	-0.784385	-0.378246
C68	C	1.634342	-0.284385	0.121754
C69	C	1.153511	-0.882027	-0.449883
C70	C	1.653511	-0.382027	0.050117
C71	C	1.134415	-0.930370	-0.378262
C72	C	1.634415	-0.430370	0.121738
C73	C	1.115174	-0.832738	-0.306579
C74	C	1.615174	-0.332738	0.193421
C75	C	1.205957	-0.832604	-0.397495
C76	C	1.705957	-0.332604	0.102505
C77	C	1.186854	-0.882022	-0.325816
C78	C	1.686854	-0.382022	0.174184
C79	C	1.134298	-0.700287	-0.378238
C80	C	1.634298	-0.200287	0.121762
C81	C	1.134459	-1.014467	-0.378262
C82	C	1.634459	-0.514467	0.121738
C83	C	1.339073	-0.357771	-0.378250
C84	C	1.839073	0.142229	0.121750
C85	C	1.426323	-0.357777	-0.378260
C86	C	1.926323	0.142223	0.121740
C87	C	1.134362	-0.357707	-0.582972
C88	C	1.634362	0.142293	-0.082972
C89	C	1.134377	-0.357685	-0.670222
C90	C	1.634377	0.142315	-0.170222
C91	C	1.134445	-0.164051	-0.378258
C92	C	1.634445	0.335949	0.121742
C93	C	1.134495	-0.081506	-0.378271
C94	C	1.634495	0.418494	0.121729
C95	C	1.184698	-0.310089	-1.046051
C96	C	1.684698	0.189911	-0.546051
C97	C	1.184682	-0.310115	-0.964070
C98	C	1.684682	0.189885	-0.464070
C99	C	1.134441	-0.357615	-0.923071
C100	C	1.634441	0.142385	-0.423071
C101	C	1.084219	-0.405097	-0.964057
C102	C	1.584219	0.094903	-0.464057
C103	C	1.084240	-0.405074	-1.046036
C104	C	1.584240	0.094926	-0.546036
C105	C	1.084178	-0.405140	-0.793187
C106	C	1.584178	0.094860	-0.293187
C107	C	1.084157	-0.405162	-0.711202
C108	C	1.584157	0.094838	-0.211202
C109	C	1.184621	-0.310181	-0.711221
C110	C	1.684621	0.189819	-0.211221
C111	C	1.184641	-0.310158	-0.793200
C112	C	1.684641	0.189842	-0.293200
C113	C	1.134418	-0.357639	-0.834180
C114	C	1.634418	0.142361	-0.334180
C115	C	1.134340	-0.357754	-0.174280
C116	C	1.634340	0.142246	0.325720
C117	C	1.134478	-0.357566	-0.087031
C118	C	1.634478	0.142434	0.412969
H119	H	0.835508	-0.444040	-0.469136
H120	H	1.335508	0.055960	0.030864
F121	F	0.983644	-0.910603	-0.337736
F122	F	1.483644	-0.410603	0.162264
F123	F	0.676541	-0.259584	-0.274790
F124	F	1.176541	0.240416	0.225210
H125	H	1.231240	-0.903536	-0.281460
H126	H	1.731240	-0.403536	0.218540
H127	H	1.098920	-0.811177	-0.245986
H128	H	1.598920	-0.311177	0.254014
F129	F	0.423690	-0.259610	-0.274806
F130	F	0.923690	0.240390	0.225194
H131	H	0.582669	-0.271476	-0.287328
H132	H	1.082669	0.228524	0.212672
F133	F	1.030688	-0.455720	-0.667569
F134	F	1.530688	0.044280	-0.167569
F135	F	0.845770	-0.259574	-0.274767
F136	F	1.345770	0.240426	0.225233
F137	F	1.030725	-0.455677	-0.836799
F138	F	1.530725	0.044323	-0.336799
F139	F	1.285054	-0.804135	-0.418800
F140	F	1.785054	-0.304135	0.081200
F141	F	1.174664	-0.910329	-0.529059
F142	F	1.674664	-0.410329	-0.029059
F143	F	1.238165	-0.259525	-1.089678
F144	F	1.738165	0.240475	-0.589678
F145	F	1.030790	-0.455608	-1.089649
F146	F	1.530790	0.044392	-0.589649
F147	F	1.238134	-0.259583	-0.920460
F148	F	1.738134	0.240417	-0.420460
H149	H	1.225549	-0.271476	-0.826580
H150	H	1.725549	0.228524	-0.326580
F151	F	1.023834	-0.804416	-0.488483
F152	F	1.523834	-0.304416	0.011517
H153	H	1.043316	-0.443776	-0.930669
H154	H	1.543316	0.056224	-0.430669
F155	F	0.676540	-0.455933	-0.481689
F156	F	1.176540	0.044067	0.018311
F157	F	0.592913	-0.455947	-0.481692
F158	F	1.092913	0.044053	0.018308
H159	H	0.433934	-0.444060	-0.469186
H160	H	0.933934	0.055940	0.030814
F161	F	1.238091	-0.259663	-0.667607
F162	F	1.738091	0.240337	-0.167607
