data_functionalizedCrystal
_audit_creation_method	'MofGen! by Chris Wilmer'
_symmetry_space_group_name_H-M	'P1'
_symmetry_Int_Tables_number	1
_symmetry_cell_setting	triclinic
loop_
_symmetry_equiv_pos_as_xyz
  x,y,z
_cell_length_a	11.169417
_cell_length_b	11.169416
_cell_length_c	11.169406
_cell_angle_alpha	89.956706
_cell_angle_beta	90.032821
_cell_angle_gamma	89.996714
loop_
_atom_site_label
_atom_site_type_symbol
_atom_site_fract_x
_atom_site_fract_y
_atom_site_fract_z
Zn1	Zn	-1.835139	-0.477586	-0.678638
Zn2	Zn	-1.335139	0.022414	-0.178638
Zn3	Zn	-1.835007	-0.678380	-0.477970
Zn4	Zn	-1.335007	-0.178380	0.022030
Zn5	Zn	-1.634385	-0.477703	-0.477965
Zn6	Zn	-1.134385	0.022297	0.022035
Zn7	Zn	-1.634451	-0.678219	-0.678608
Zn8	Zn	-1.134451	-0.178219	-0.178608
O9	O	-1.734746	-0.577972	-0.578295
O10	O	-1.234746	-0.077972	-0.078295
O11	O	-2.003071	-0.504240	-0.652033
O12	O	-1.503071	-0.004240	-0.152033
O13	O	-1.808312	-0.651876	-0.310019
O14	O	-1.308312	-0.151876	0.189981
O15	O	-1.661043	-0.309738	-0.504596
O16	O	-1.161043	0.190262	-0.004596
O17	O	-2.002975	-0.651762	-0.504603
O18	O	-1.502975	-0.151762	-0.004603
O19	O	-1.808536	-0.309652	-0.652029
O20	O	-1.308536	0.190348	-0.152029
O21	O	-1.660916	-0.504440	-0.310016
O22	O	-1.160916	-0.004440	0.189984
O23	O	-1.466444	-0.504284	-0.504567
O24	O	-0.966444	-0.004284	-0.004567
O25	O	-1.661154	-0.651489	-0.846562
O26	O	-1.161154	-0.151489	-0.346562
O27	O	-1.466492	-0.651602	-0.651978
O28	O	-0.966492	-0.151602	-0.151978
O29	O	-1.808599	-0.504084	-0.846584
O30	O	-1.308599	-0.004084	-0.346584
O31	O	-1.808375	-0.846308	-0.504574
O32	O	-1.308375	-0.346308	-0.004574
O33	O	-1.661027	-0.846190	-0.651982
O34	O	-1.161027	-0.346190	-0.151982
C35	C	-1.422921	-0.577939	-0.578270
C36	C	-0.922921	-0.077939	-0.078270
C37	C	-1.289521	-0.577954	-0.578287
C38	C	-0.789521	-0.077954	-0.078287
C39	C	-1.734727	-0.889797	-0.578302
C40	C	-1.234727	-0.389797	-0.078302
C41	C	-1.734828	-1.023197	-0.578345
C42	C	-1.234828	-0.523197	-0.078345
C43	C	-1.734899	-0.577755	-0.891338
C44	C	-1.234899	-0.077755	-0.391338
C45	C	-1.734964	-0.577663	-1.024738
C46	C	-1.234964	-0.077663	-0.524738
C47	C	-1.047788	-0.577994	-0.578313
C48	C	-0.547788	-0.077994	-0.078313
C49	C	-1.181188	-0.577974	-0.578301
C50	C	-0.681188	-0.077974	-0.078301
C51	C	-1.734797	-0.264930	-0.578315
C52	C	-1.234797	0.235070	-0.078315
C53	C	-1.734819	-0.131530	-0.578323
C54	C	-1.234819	0.368470	-0.078323
C55	C	-1.734662	-0.578101	-0.266470
C56	C	-1.234662	-0.078101	0.233530
C57	C	-1.734829	-0.577856	-0.133071
C58	C	-1.234829	-0.077856	0.366929
