data_functionalizedCrystal
_audit_creation_method	'MofGen! by Chris Wilmer'
_symmetry_space_group_name_H-M	'P1'
_symmetry_Int_Tables_number	1
_symmetry_cell_setting	triclinic
loop_
_symmetry_equiv_pos_as_xyz
  x,y,z
_cell_length_a	11.026607
_cell_length_b	9.130307
_cell_length_c	10.967829
_cell_angle_alpha	102.131191
_cell_angle_beta	96.380563
_cell_angle_gamma	90.001089
loop_
_atom_site_label
_atom_site_type_symbol
_atom_site_fract_x
_atom_site_fract_y
_atom_site_fract_z
O1	O	1.614518	0.253931	0.523509
O2	O	1.260716	0.238887	0.463896
O3	O	1.445777	0.201017	0.313886
O4	O	1.429457	0.291800	0.673519
O5	O	1.445771	-0.042582	0.313883
O6	O	1.260710	-0.004713	0.463893
O7	O	1.614512	0.010331	0.523505
Cu8	Cu	1.437610	-0.019434	0.493699
Cu9	Cu	1.437618	0.268651	0.493703
O10	O	1.429451	0.048200	0.673516
C11	C	1.215410	0.114312	0.452898
C12	C	1.080423	0.106038	0.420114
N13	N	1.437614	-0.222057	0.493698
C14	C	1.007371	0.128889	0.510635
C15	C	0.867855	0.120338	0.476754
C16	C	1.601554	-0.255564	0.360927
C17	C	1.683531	-0.348983	0.294547
C18	C	1.683544	-0.502316	0.294549
C19	C	1.601567	-0.562232	0.360935
C20	C	1.519589	-0.468813	0.427315
C21	C	1.519588	-0.315478	0.427309
C22	C	1.355646	-0.435308	0.560076
C23	C	1.355637	-0.281973	0.560084
C24	C	1.273669	-0.495225	0.626462
C25	C	1.191695	-0.401804	0.692851
C26	C	1.191687	-0.248462	0.692848
C27	C	1.273659	-0.188554	0.626463
C28	C	1.659818	0.134910	0.534504
C29	C	1.794805	0.143193	0.567288
C30	C	1.444586	0.067418	0.267128
C31	C	1.441032	0.032258	0.127805
N32	N	1.437623	0.471273	0.493697
C33	C	1.439451	0.142776	0.065698
C34	C	1.435777	0.106439	-0.078299
C35	C	1.430642	0.181803	0.720274
C36	C	1.434196	0.216973	0.859597
H37	H	1.048117	0.154776	0.613216
F38	F	1.433983	-0.052408	-0.148130
F39	F	1.273663	-0.025364	0.626460
H40	H	0.827115	0.094479	0.374165
F41	F	1.435942	0.375820	-0.070579
H42	H	1.124926	-0.172407	0.746896
F43	F	1.439238	-0.126581	0.057969
H44	H	0.835543	0.169080	0.669877
H45	H	1.039677	0.080181	0.317532
F46	F	1.273676	-0.658418	0.626457
H47	H	1.440811	0.264295	0.119131
H48	H	1.601562	-0.130711	0.360931
H49	H	1.750293	-0.578381	0.240491
F50	F	1.770770	-0.285210	0.223893
H51	H	1.601572	-0.687088	0.360920
F52	F	1.104452	-0.465581	0.763488
