data_functionalizedCrystal
_audit_creation_method	'MofGen! by Chris Wilmer'
_symmetry_space_group_name_H-M	'P1'
_symmetry_Int_Tables_number	1
_symmetry_cell_setting	triclinic
loop_
_symmetry_equiv_pos_as_xyz
  x,y,z
_cell_length_a	19.188930
_cell_length_b	14.044191
_cell_length_c	13.101039
_cell_angle_alpha	86.337551
_cell_angle_beta	93.345801
_cell_angle_gamma	88.168279
loop_
_atom_site_label
_atom_site_type_symbol
_atom_site_fract_x
_atom_site_fract_y
_atom_site_fract_z
O1	O	0.164780	1.262238	-0.085186
O2	O	0.158702	0.986294	-0.085198
O3	O	0.060600	1.132228	-0.085172
O4	O	0.262881	1.116304	-0.085213
O5	O	0.067651	1.121757	0.085256
O6	O	0.165753	0.975824	0.085229
O7	O	0.171831	1.251767	0.085242
Zn8	Zn	0.169912	1.112133	0.112295
Zn9	Zn	0.160621	1.125929	-0.112251
O10	O	0.269933	1.105834	0.085215
C11	C	0.159568	0.945756	0.000014
C12	C	0.151637	0.840563	0.000010
C13	C	0.193385	0.590103	0.000012
C14	C	0.137150	0.647965	0.000022
C15	C	0.145213	0.755136	0.000016
C16	C	0.185324	0.482922	0.000019
C17	C	0.038081	1.126477	0.000045
C18	C	-0.039523	1.124928	0.000054
C19	C	-0.078919	1.210558	0.000062
C20	C	-0.151837	1.209104	0.000046
C21	C	-0.185356	1.122015	0.000041
C22	C	-0.145951	1.036374	0.000027
C23	C	-0.073034	1.037831	0.000033
N24	N	-0.295258	1.051882	0.058038
N25	N	-0.364526	1.050504	0.058034
C26	C	-0.405049	1.117621	0.000020
N27	N	-0.373687	1.186182	-0.057977
N28	N	-0.304413	1.187562	-0.057969
C29	C	-0.264421	1.120426	0.000034
C30	C	-0.523512	1.201681	0.000010
C31	C	-0.596432	1.200224	-0.000013
C32	C	-0.590543	1.027491	-0.000022
C33	C	-0.517625	1.028951	-0.000009
C34	C	-0.484114	1.116048	0.000011
C35	C	0.292451	1.111585	-0.000004
C36	C	0.370055	1.113134	-0.000019
C37	C	0.170964	1.292306	0.000027
C38	C	0.178895	1.397499	0.000024
N39	N	0.176252	1.102725	0.265541
N40	N	0.154275	1.135344	-0.265498
C41	C	0.184885	1.089925	0.474582
C42	C	0.145645	1.148141	0.525468
C43	C	0.150448	1.141019	0.641785
C44	C	0.180082	1.097046	0.358254
H45	H	0.082947	0.617018	-0.000039
H46	H	0.108443	1.203332	0.481676
O47	O	0.258095	0.626860	0.000032
C48	C	0.382088	0.593792	-0.000080
C49	C	0.308849	0.552022	-0.000072
H50	H	0.423141	0.533308	-0.000187
H51	H	0.391668	0.635096	0.071253
H52	H	0.385669	0.643912	-0.071394
H53	H	0.305216	0.501862	0.071193
H54	H	0.299300	0.510775	-0.071453
O55	O	0.229188	1.023963	0.526772
C56	C	0.261338	0.857101	0.559824
C57	C	0.211107	0.931697	0.500657
H58	H	0.246748	0.782489	0.538716
H59	H	0.257347	0.862937	0.645697
H60	H	0.317146	0.870666	0.538809
H61	H	0.155279	0.918180	0.521586
H62	H	0.215159	0.925842	0.414798
O63	O	-0.046480	1.295247	0.000030
C64	C	-0.060017	1.466412	0.000112
C65	C	-0.096845	1.370571	0.000125
H66	H	-0.100719	1.527336	0.000211
H67	H	-0.028991	1.475866	-0.071225
H68	H	-0.023064	1.466977	0.071422
H69	H	-0.133831	1.369939	-0.071137
H70	H	-0.127826	1.361155	0.071510
O71	O	-0.190156	1.292273	-0.000120
C72	C	-0.279577	1.396270	-0.088360
C73	C	-0.236221	1.302068	-0.088315
H74	H	-0.316842	1.404211	-0.159647
H75	H	-0.243137	1.458812	-0.088411
H76	H	-0.310885	1.395495	-0.017003
H77	H	-0.204909	1.302750	-0.159660
H78	H	-0.272698	1.239567	-0.088211
H79	H	-0.040958	0.968099	0.000026
O80	O	-0.178592	0.951844	-0.000113
C81	C	-0.261113	0.855360	-0.088449
C82	C	-0.224210	0.951143	-0.088400
H83	H	-0.297993	0.854754	-0.159833
H84	H	-0.292209	0.845964	-0.017175
H85	H	-0.220412	0.794418	-0.088404
H86	H	-0.264864	1.012143	-0.088481
H87	H	-0.193101	0.960456	-0.159668
H88	H	-0.496226	1.272601	0.000022
O89	O	-0.623203	0.942972	0.000014
C90	C	-0.732928	0.864179	-0.000077
C91	C	-0.696025	0.959964	-0.000086
H92	H	-0.791812	0.877885	-0.000180
H93	H	-0.714252	0.817476	0.071261
H94	H	-0.720036	0.826264	-0.071387
H95	H	-0.708900	0.997959	0.071175
H96	H	-0.714704	1.006598	-0.071471
O97	O	-0.634633	1.283481	-0.000143
C98	C	-0.665641	1.436076	-0.088448
C99	C	-0.622329	1.341838	-0.088417
H100	H	-0.655719	1.483275	-0.159821
H101	H	-0.649806	1.474630	-0.017163
H102	H	-0.723508	1.420054	-0.088412
H103	H	-0.564451	1.357776	-0.088489
H104	H	-0.638222	1.303311	-0.159696
H105	H	-0.485548	0.959222	-0.000011
