data_functionalizedCrystal
_audit_creation_method	'MofGen! by Chris Wilmer'
_symmetry_space_group_name_H-M	'P1'
_symmetry_Int_Tables_number	1
_symmetry_cell_setting	triclinic
loop_
_symmetry_equiv_pos_as_xyz
  x,y,z
_cell_length_a	18.050589
_cell_length_b	17.077404
_cell_length_c	18.050583
_cell_angle_alpha	89.979917
_cell_angle_beta	90.028091
_cell_angle_gamma	89.972675
loop_
_atom_site_label
_atom_site_type_symbol
_atom_site_fract_x
_atom_site_fract_y
_atom_site_fract_z
Zn1	Zn	-0.295652	-1.200015	0.419972
Zn2	Zn	0.204348	-0.700015	0.919972
Zn3	Zn	-0.419857	-1.199913	0.295791
Zn4	Zn	0.080143	-0.699913	0.795791
Zn5	Zn	-0.295683	-1.068750	0.295792
Zn6	Zn	0.204317	-0.568750	0.795792
Zn7	Zn	-0.419803	-1.068702	0.419936
Zn8	Zn	0.080197	-0.568702	0.919936
O9	O	-0.357749	-1.134345	0.357873
O10	O	0.142251	-0.634345	0.857873
O11	O	-0.312138	-1.309848	0.403514
O12	O	0.187862	-0.809848	0.903514
O13	O	-0.403420	-1.182491	0.191867
O14	O	0.096580	-0.682491	0.691867
O15	O	-0.191754	-1.086225	0.312280
O16	O	0.308246	-0.586225	0.812280
O17	O	-0.403390	-1.309773	0.312279
O18	O	0.096610	-0.809773	0.812279
O19	O	-0.191731	-1.182665	0.403514
O20	O	0.308269	-0.682665	0.903514
O21	O	-0.312191	-1.086126	0.191867
O22	O	0.187809	-0.586126	0.691867
O23	O	-0.312138	-0.958897	0.312245
O24	O	0.187862	-0.458897	0.812245
O25	O	-0.403298	-1.086144	0.523865
O26	O	0.096702	-0.586144	1.023865
O27	O	-0.403328	-0.958862	0.403453
O28	O	0.096672	-0.458862	0.903453
O29	O	-0.312085	-1.182619	0.523892
O30	O	0.187915	-0.682619	1.023892
O31	O	-0.523774	-1.182445	0.312244
O32	O	-0.023774	-0.682445	0.812244
O33	O	-0.523734	-1.086045	0.403452
O34	O	-0.023734	-0.586045	0.903452
C35	C	-0.357731	-0.930397	0.357846
C36	C	0.142269	-0.430397	0.857846
C37	C	-0.357742	-0.843147	0.357852
C38	C	0.142258	-0.343147	0.857852
C39	C	-0.405295	-0.802160	0.405266
C40	C	0.094705	-0.302160	0.905266
C41	C	-0.405296	-0.720179	0.405275
C42	C	0.094704	-0.220179	0.905275
C43	C	-0.357745	-0.679188	0.357866
C44	C	0.142255	-0.179188	0.857866
C45	C	-0.310186	-0.720181	0.310449
C46	C	0.189814	-0.220181	0.810449
C47	C	-0.310183	-0.802160	0.310444
C48	C	0.189817	-0.302160	0.810444
C49	C	-0.310198	-0.549311	0.310461
C50	C	0.189802	-0.049311	0.810461
C51	C	-0.310202	-0.467327	0.310465
C52	C	0.189798	0.032673	0.810465
C53	C	-0.405310	-0.467330	0.405293
C54	C	0.094690	0.032670	0.905293
C55	C	-0.405307	-0.549309	0.405288
C56	C	0.094693	-0.049309	0.905288
C57	C	-0.357749	-0.590297	0.357870
C58	C	0.142251	-0.090297	0.857870
C59	C	-0.550701	-1.134250	0.357860
C60	C	-0.050701	-0.634250	0.857860
C61	C	-0.633246	-1.134282	0.357880
C62	C	-0.133246	-0.634282	0.857880
C63	C	-0.832703	-1.081911	0.407462
C64	C	-0.332703	-0.581911	0.907462
C65	C	-0.882148	-1.062778	0.339694
C66	C	-0.382148	-0.562778	0.839694
C67	C	-0.784377	-1.134359	0.357890
C68	C	-0.284377	-0.634359	0.857890
C69	C	-0.882013	-1.153531	0.425665
C70	C	-0.382013	-0.653531	0.925665
C71	C	-0.930362	-1.134432	0.357905
C72	C	-0.430362	-0.634432	0.857905
C73	C	-0.832735	-1.115188	0.290086
C74	C	-0.332735	-0.615188	0.790086
C75	C	-0.832596	-1.205974	0.376103
C76	C	-0.332596	-0.705974	0.876103
C77	C	-0.882019	-1.186868	0.308288
C78	C	-0.382019	-0.686868	0.808288
C79	C	-0.700279	-1.134315	0.357882
C80	C	-0.200279	-0.634315	0.857882
C81	C	-1.014458	-1.134476	0.357905
C82	C	-0.514458	-0.634476	0.857905
C83	C	-0.164043	-1.134462	0.357901
C84	C	0.335957	-0.634462	0.857901
C85	C	-0.081497	-1.134511	0.357913
C86	C	0.418503	-0.634511	0.857913
C87	C	-0.357682	-1.134388	0.551578
C88	C	0.142318	-0.634388	1.051578
C89	C	-0.357654	-1.134406	0.634124
C90	C	0.142346	-0.634406	1.134124
C91	C	-0.357762	-0.339089	0.357892
C92	C	0.142238	0.160911	0.857892
C93	C	-0.357755	-0.426339	0.357880
C94	C	0.142245	0.073661	0.857880
C95	C	-0.357761	-1.134348	0.164920
C96	C	0.142239	-0.634348	0.664920
C97	C	-0.357580	-1.134482	0.082375
C98	C	0.142420	-0.634482	0.582375
C99	C	-0.308002	-1.186918	0.882964
C100	C	0.191998	-0.686918	1.382964
C101	C	-0.375766	-1.206072	0.833556
C102	C	0.124234	-0.706072	1.333556
C103	C	-0.357607	-1.134456	0.931245
C104	C	0.142393	-0.634456	1.431245
C105	C	-0.289870	-1.115314	0.833571
C106	C	0.210130	-0.615314	1.333571
C107	C	-0.357626	-1.134433	0.785259
C108	C	0.142374	-0.634433	1.285259
C109	C	-0.425406	-1.153648	0.882924
C110	C	0.074594	-0.653648	1.382924
C111	C	-0.339465	-1.062857	0.882943
C112	C	0.160535	-0.562857	1.382943
C113	C	-0.407275	-1.081984	0.833557
C114	C	0.092725	-0.581984	1.333557
C115	C	-0.357594	-1.134472	1.015343
C116	C	0.142406	-0.634472	1.515343
C117	C	-0.357646	-1.134418	0.701163
C118	C	0.142354	-0.634418	1.201163
H119	H	-0.271467	-0.686800	0.271851
H120	H	0.228533	-0.186800	0.771851
H121	H	-0.266097	-1.231326	0.904657
H122	H	0.233903	-0.731326	1.404657
H123	H	-0.391122	-1.266613	0.811860
H124	H	0.108878	-0.766613	1.311860
O125	O	-0.263970	-0.841857	0.264311
O126	O	0.236030	-0.341857	0.764311
C127	C	-0.221990	-0.788100	0.222478
C128	C	0.278010	-0.288100	0.722478
H129	H	-0.252407	-0.729647	0.219860
H130	H	0.247593	-0.229647	0.719860
H131	H	-0.213999	-0.811764	0.163976
H132	H	0.286001	-0.311764	0.663976
H133	H	-0.165619	-0.779421	0.249768
H134	H	0.334381	-0.279421	0.749768
H135	H	-0.444031	-0.582682	0.443889
H136	H	0.055969	-0.082682	0.943889
O137	O	-0.806897	-1.028818	0.457319
O138	O	-0.306897	-0.528818	0.957319
C139	C	-0.832165	-0.953431	0.437851
C140	C	-0.332165	-0.453431	0.937851
H141	H	-0.846057	-0.951997	0.376251
H142	H	-0.346057	-0.451997	0.876251
H143	H	-0.787028	-0.908620	0.450193
H144	H	-0.287028	-0.408620	0.950193
H145	H	-0.883842	-0.938716	0.471368
H146	H	-0.383842	-0.438716	0.971368
O147	O	-0.493719	-1.173075	0.908796
O148	O	0.006281	-0.673075	1.408796
C149	C	-0.492879	-1.172872	0.986902
C150	C	0.007121	-0.672872	1.486902
H151	H	-0.433693	-1.181626	1.007367
H152	H	0.066307	-0.681626	1.507367
H153	H	-0.529321	-1.222382	1.008463
H154	H	-0.029321	-0.722382	1.508463
H155	H	-0.514942	-1.114445	1.008033
H156	H	-0.014942	-0.614445	1.508033
H157	H	-0.903659	-1.169717	0.482976
H158	H	-0.403659	-0.669717	0.982976
O159	O	-0.908207	-0.990573	0.321419
O160	O	-0.408207	-0.490573	0.821419
C161	C	-0.952239	-0.961476	0.379746
C162	C	-0.452239	-0.461476	0.879746
H163	H	-0.973828	-1.012428	0.414362
H164	H	-0.473828	-0.512428	0.914362
H165	H	-1.000998	-0.927312	0.355878
H166	H	-0.500998	-0.427312	0.855878
H167	H	-0.917498	-0.921161	0.416164
H168	H	-0.417498	-0.421161	0.916164
O169	O	-0.806900	-1.095769	0.221747
O170	O	-0.306900	-0.595769	0.721747
C171	C	-0.728794	-1.095951	0.222567
C172	C	-0.228794	-0.595951	0.722567
H173	H	-0.708322	-1.087173	0.281738
H174	H	-0.208322	-0.587173	0.781738
H175	H	-0.707293	-1.046446	0.186067
H176	H	-0.207293	-0.546446	0.686067
H177	H	-0.707609	-1.154379	0.200560
H178	H	-0.207609	-0.654379	0.700560
O179	O	-0.321250	-0.990635	0.908891
O180	O	0.178750	-0.490635	1.408891
C181	C	-0.380117	-0.960924	0.951832
C182	C	0.119883	-0.460924	1.451832
H183	H	-0.433929	-0.990943	0.934938
H184	H	0.066071	-0.490943	1.434938
H185	H	-0.385303	-0.895153	0.942315
H186	H	0.114697	-0.395153	1.442315
H187	H	-0.368723	-0.972651	1.012966
H188	H	0.131277	-0.472651	1.512966
O189	O	-0.907662	-1.239730	0.258129
O190	O	-0.407662	-0.739730	0.758129
C191	C	-0.882402	-1.219275	0.186803
C192	C	-0.382402	-0.719275	0.686803
H193	H	-0.868673	-1.154143	0.185331
H194	H	-0.368673	-0.654143	0.685331
H195	H	-0.927482	-1.232500	0.144365
H196	H	-0.427482	-0.732500	0.644365
H197	H	-0.830629	-1.254642	0.173037
H198	H	-0.330629	-0.754642	0.673037
O199	O	-0.457485	-1.029134	0.807868
O200	O	0.042515	-0.529134	1.307868
C201	C	-0.528788	-1.049585	0.833166
C202	C	-0.028788	-0.549585	1.333166
H203	H	-0.530202	-1.114713	0.846968
H204	H	-0.030202	-0.614713	1.346968
H205	H	-0.571247	-1.036380	0.788082
H206	H	-0.071247	-0.536380	1.288082
H207	H	-0.542572	-1.014200	0.884903
H208	H	-0.042572	-0.514200	1.384903
H209	H	-0.810816	-1.266489	0.391526
H210	H	-0.310816	-0.766489	0.891526
O211	O	-0.263950	-0.427433	0.264532
O212	O	0.236050	0.072567	0.764532
C213	C	-0.216034	-0.380085	0.306927
C214	C	0.283966	0.119915	0.806927
H215	H	-0.242324	-0.367809	0.363149
H216	H	0.257676	0.132191	0.863149
H217	H	-0.206013	-0.322432	0.276704
H218	H	0.293987	0.177568	0.776704
H219	H	-0.161022	-0.411727	0.315210
H220	H	0.338978	0.088273	0.815210
O221	O	-0.221467	-1.096095	0.807797
O222	O	0.278533	-0.596095	1.307797
C223	C	-0.169344	-1.151586	0.832957
C224	C	0.330656	-0.651586	1.332957
H225	H	-0.191343	-1.181482	0.884956
H226	H	0.308657	-0.681482	1.384956
H227	H	-0.114899	-1.120844	0.846280
H228	H	0.385101	-0.620844	1.346280
H229	H	-0.159640	-1.197300	0.787981
H230	H	0.340360	-0.697300	1.287981
H231	H	-0.444019	-0.835529	0.443870
H232	H	0.055981	-0.335529	0.943870
H233	H	-0.444032	-0.433954	0.443904
H234	H	0.055968	0.066046	0.943904
O235	O	-0.451568	-0.680485	0.451349
O236	O	0.048432	-0.180485	0.951349
C237	C	-0.493530	-0.734244	0.493198
C238	C	0.006470	-0.234244	0.993198
H239	H	-0.496052	-0.792668	0.462772
H240	H	0.003948	-0.292668	0.962772
H241	H	-0.552057	-0.710538	0.501007
H242	H	-0.052057	-0.210538	1.001007
H243	H	-0.466415	-0.742997	0.549653
H244	H	0.033585	-0.242997	1.049653
H245	H	-0.271464	-0.582681	0.271855
H246	H	0.228536	-0.082681	0.771855
