data_functionalizedCrystal
_audit_creation_method	'MofGen! by Chris Wilmer'
_symmetry_space_group_name_H-M	'P1'
_symmetry_Int_Tables_number	1
_symmetry_cell_setting	triclinic
loop_
_symmetry_equiv_pos_as_xyz
  x,y,z
_cell_length_a	10.654550
_cell_length_b	12.837943
_cell_length_c	11.295483
_cell_angle_alpha	94.538773
_cell_angle_beta	94.136004
_cell_angle_gamma	90.343078
loop_
_atom_site_label
_atom_site_type_symbol
_atom_site_fract_x
_atom_site_fract_y
_atom_site_fract_z
O1	O	0.319125	-1.384729	-0.098998
O2	O	0.302983	-1.082808	-0.099005
O3	O	0.129073	-1.240710	-0.098997
O4	O	0.493035	-1.226827	-0.099006
O5	O	0.144321	-1.226841	0.099053
O6	O	0.318232	-1.068938	0.099045
O7	O	0.334374	-1.370860	0.099052
Cu8	Cu	0.327695	-1.218633	0.117132
Cu9	Cu	0.309662	-1.235034	-0.117085
O10	O	0.508284	-1.212958	0.099044
C11	C	0.305155	-1.037213	0.000019
C12	C	0.288892	-0.922019	0.000016
C13	C	0.089788	-1.232756	0.000027
C14	C	-0.049989	-1.229706	0.000022
N15	N	0.340379	-1.207104	0.281868
C16	C	-0.119329	-1.322676	0.000028
C17	C	-0.250663	-1.319805	0.000020
C18	C	-0.243306	-1.130985	0.000005
C19	C	-0.111974	-1.133858	0.000005
C20	C	-0.057343	-1.418525	0.000046
C21	C	-0.126683	-1.511502	0.000053
C22	C	-0.258018	-1.508631	0.000045
C23	C	-0.320013	-1.412782	0.000029
C24	C	0.547569	-1.220912	0.000018
C25	C	0.687345	-1.223962	0.000014
C26	C	0.332202	-1.416454	0.000025
C27	C	0.348464	-1.531648	0.000020
C28	C	0.484398	-0.682466	0.000028
C29	C	0.469123	-0.574230	0.000026
C30	C	0.243071	-0.597310	0.000019
C31	C	0.258345	-0.705546	0.000021
C32	C	0.379012	-0.748119	0.000024
C33	C	0.394285	-0.856358	0.000017
C34	C	0.168234	-0.879435	0.000018
C35	C	0.152960	-0.771199	0.000017
N36	N	0.296969	-1.246571	-0.281821
C37	C	0.205592	-1.329560	0.531164
C38	C	0.215188	-1.320855	0.655827
C39	C	0.369157	-1.180985	0.655860
C40	C	0.359562	-1.189690	0.531196
C41	C	0.277778	-1.263981	0.468853
C42	C	0.268191	-1.272690	0.344187
C43	C	0.422153	-1.132816	0.344222
C44	C	0.431748	-1.124111	0.468886
H45	H	0.049596	-1.420873	0.000056
H46	H	0.492538	-0.891019	0.000021
C47	C	0.110349	-0.550458	0.000030
N48	N	0.010381	-0.515168	0.000038
H49	H	0.554940	-0.520778	0.000033
C50	C	0.020233	-0.724355	0.000012
N51	N	-0.079740	-0.689074	0.000004
C52	C	0.459079	-1.099247	0.724459
N53	N	0.526801	-1.037674	0.776130
H54	H	-0.314472	-1.584339	0.000038
H55	H	0.480936	-1.079420	0.293475
H56	H	0.498332	-1.063622	0.519660
H57	H	0.082422	-0.932903	0.000007
C58	C	0.115637	-1.411283	0.462583
N59	N	0.047879	-1.472838	0.410930
C60	C	-0.464486	-1.409629	0.000013
N61	N	-0.573302	-1.407256	0.000007
C62	C	0.617130	-0.729300	0.000023
N63	N	0.717106	-0.764573	0.000020
C64	C	-0.311504	-1.025557	0.000007
N65	N	-0.362870	-0.946146	0.000016
C66	C	0.178224	-1.354408	0.275611
N67	N	0.110454	-1.415956	0.223963
C68	C	0.135773	-1.392994	0.724364
N69	N	0.075951	-1.447330	0.775987
H70	H	-0.076201	-1.589541	0.000036
H71	H	-0.055516	-1.058153	0.000001
