data_functionalizedCrystal
_audit_creation_method	'MofGen! by Chris Wilmer'
_symmetry_space_group_name_H-M	'P1'
_symmetry_Int_Tables_number	1
_symmetry_cell_setting	triclinic
loop_
_symmetry_equiv_pos_as_xyz
  x,y,z
_cell_length_a	14.853566
_cell_length_b	13.930277
_cell_length_c	16.992695
_cell_angle_alpha	90.004629
_cell_angle_beta	87.151319
_cell_angle_gamma	90.004369
loop_
_atom_site_label
_atom_site_type_symbol
_atom_site_fract_x
_atom_site_fract_y
_atom_site_fract_z
O1	O	1.203597	0.079768	0.102374
O2	O	0.941999	0.079784	0.114571
O3	O	1.071749	0.079769	-0.005671
O4	O	1.073847	0.079784	0.222616
O5	O	1.071730	-0.079893	-0.005674
O6	O	0.941980	-0.079878	0.114568
O7	O	1.203578	-0.079894	0.102371
Zn8	Zn	1.072776	-0.105235	0.108469
Zn9	Zn	1.072801	0.105126	0.108473
O10	O	1.073828	-0.079878	0.222614
C11	C	0.908362	-0.000045	0.114017
C12	C	0.808161	-0.000039	0.112361
C13	C	0.384492	0.086975	0.105360
C14	C	0.384492	-0.087094	0.105358
C15	C	0.478636	-0.087091	0.106913
C16	C	0.525712	-0.000053	0.107692
C17	C	0.478645	0.086981	0.106918
C18	C	0.525710	-0.174124	0.107696
C19	C	0.619860	-0.174124	0.109251
C20	C	0.666938	-0.087086	0.110026
C21	C	0.619865	-0.000048	0.109250
C22	C	0.666941	0.086990	0.110029
C23	C	0.619869	0.174029	0.109248
C24	C	0.525723	0.174020	0.107692
C25	C	0.761085	-0.087077	0.111582
C26	C	0.761093	0.086996	0.111587
N27	N	1.072765	-0.248802	0.108467
C28	C	1.015344	-0.701064	0.161695
C29	C	1.130283	-0.701047	0.055244
C30	C	1.130272	-0.600551	0.055242
C31	C	1.072797	-0.550307	0.108468
C32	C	1.015333	-0.600559	0.161696
C33	C	1.187742	-0.550292	0.002020
C34	C	1.187734	-0.449790	0.002016
C35	C	1.130254	-0.399544	0.055239
C36	C	1.072786	-0.449802	0.108468
C37	C	1.015312	-0.399558	0.161694
C38	C	0.957839	-0.449814	0.214921
C39	C	0.957853	-0.550313	0.214918
C40	C	1.130240	-0.299046	0.055241
C41	C	1.015301	-0.299053	0.161695
C42	C	1.237215	-0.000063	0.102925
C43	C	1.337416	-0.000062	0.104581
C44	C	1.069042	-0.000062	-0.034888
C45	C	1.060991	-0.000061	-0.121941
N46	N	1.072819	0.248692	0.108469
C47	C	1.138667	-0.000067	-0.172097
C48	C	1.131097	-0.000058	-0.253892
C49	C	1.045851	-0.000049	-0.285529
C50	C	0.968170	-0.000040	-0.235367
C51	C	0.975740	-0.000043	-0.153573
C52	C	1.014475	-0.000034	-0.529161
C53	C	1.006910	-0.000034	-0.610961
C54	C	1.169838	-0.000049	-0.629481
C55	C	1.177401	-0.000058	-0.547685
C56	C	1.099720	-0.000044	-0.497529
N57	N	1.038112	-0.000042	-0.369136
N58	N	1.107460	-0.000044	-0.413924
C59	C	1.076535	-0.000045	0.251830
C60	C	1.084586	-0.000040	0.338883
H61	H	0.658178	-0.244997	0.109886
C62	C	0.812861	-0.182806	0.112422
H63	H	0.771341	-0.234643	0.111727
H64	H	0.846017	-0.186432	0.158713
H65	H	0.853160	-0.186413	0.067323
C66	C	0.473943	0.269751	0.106842
H67	H	0.411130	0.257280	0.105813
H68	H	0.492949	0.305516	0.061407
H69	H	0.485791	0.305511	0.152797
H70	H	1.194349	-0.000064	-0.294727
H71	H	0.968494	-0.258150	0.205035
H72	H	1.234530	-0.408878	-0.041324
H73	H	1.177082	-0.741959	0.011913
H74	H	0.911062	-0.591238	0.258254
H75	H	0.346163	0.157840	0.104721
C76	C	0.671659	0.269764	0.110106
H77	H	0.734470	0.257296	0.111144
H78	H	0.652647	0.305533	0.155541
H79	H	0.659823	0.305519	0.064152
H80	H	0.487374	-0.244985	0.107066
H81	H	0.346157	-0.157956	0.104729
C82	C	1.232438	-0.000076	-0.137304
H83	H	1.277613	-0.000069	-0.178893
H84	H	1.238774	-0.055754	-0.105785
H85	H	1.238783	0.055608	-0.105778
H86	H	0.951221	-0.000023	-0.488334
C87	C	1.193450	-0.243768	-0.003301
H88	H	1.227680	-0.288086	-0.035001
H89	H	1.233003	-0.204548	0.024968
H90	H	1.158659	-0.204578	-0.036001
H91	H	0.968548	-0.741985	0.205030
C92	C	0.894622	-0.394539	0.273467
H93	H	0.902850	-0.327489	0.265839
H94	H	0.908177	-0.411002	0.325819
H95	H	0.833833	-0.411013	0.264848
C96	C	1.255282	-0.000054	-0.684649
H97	H	1.307134	-0.000065	-0.654091
H98	H	1.255723	0.055624	-0.716937
H99	H	1.255711	-0.055738	-0.716944
H100	H	1.234541	-0.591204	-0.041311
C101	C	1.271171	-0.000055	-0.512890
H102	H	1.316350	-0.000047	-0.554477
H103	H	1.277508	-0.055731	-0.481369
H104	H	1.277512	0.055632	-0.481366
H105	H	0.799416	0.157873	0.112219
H106	H	0.937490	-0.000043	-0.636716
H107	H	0.898761	-0.000028	-0.261132
H108	H	0.912489	-0.000038	-0.112736
