data_functionalizedCrystal
_audit_creation_method	'MofGen! by Chris Wilmer'
_symmetry_space_group_name_H-M	'P1'
_symmetry_Int_Tables_number	1
_symmetry_cell_setting	triclinic
loop_
_symmetry_equiv_pos_as_xyz
  x,y,z
_cell_length_a	19.077105
_cell_length_b	19.076919
_cell_length_c	21.395361
_cell_angle_alpha	92.266553
_cell_angle_beta	87.726871
_cell_angle_gamma	90.076224
loop_
_atom_site_label
_atom_site_type_symbol
_atom_site_fract_x
_atom_site_fract_y
_atom_site_fract_z
Zn1	Zn	1.058234	-0.440387	-0.303112
Zn2	Zn	1.391568	-0.107053	0.030221
Zn3	Zn	1.724901	0.226280	0.363555
Zn4	Zn	1.062862	-0.322870	-0.403852
Zn5	Zn	1.396196	0.010464	-0.070519
Zn6	Zn	1.729529	0.343797	0.262815
Zn7	Zn	0.945453	-0.318181	-0.294719
Zn8	Zn	1.278787	0.015152	0.038615
Zn9	Zn	1.612120	0.348486	0.371948
Zn10	Zn	0.940684	-0.435622	-0.403474
Zn11	Zn	1.274017	-0.102289	-0.070141
Zn12	Zn	1.607351	0.231044	0.263193
O13	O	1.001809	-0.379265	-0.351289
O14	O	1.335142	-0.045932	-0.017956
O15	O	1.668475	0.287402	0.315378
O16	O	1.157180	-0.428754	-0.320146
O17	O	1.490513	-0.095421	0.013187
O18	O	1.823846	0.237913	0.346521
O19	O	1.051221	-0.223917	-0.386021
O20	O	1.384554	0.109417	-0.052687
O21	O	1.717887	0.442750	0.280646
O22	O	0.960473	-0.334424	-0.208157
O23	O	1.293806	-0.001090	0.125176
O24	O	1.627140	0.332243	0.458509
O25	O	1.160580	-0.342415	-0.394159
O26	O	1.493913	-0.009081	-0.060826
O27	O	1.827246	0.324252	0.272507
O28	O	1.043333	-0.424208	-0.214324
O29	O	1.376666	-0.090874	0.119010
O30	O	1.709999	0.242459	0.452343
O31	O	0.964961	-0.220472	-0.305841
O32	O	1.298294	0.112861	0.027492
O33	O	1.631627	0.446195	0.360826
O34	O	0.846489	-0.329804	-0.305474
O35	O	1.179823	0.003530	0.027859
O36	O	1.513156	0.336863	0.361192
O37	O	0.952345	-0.534585	-0.393515
O38	O	1.285678	-0.201252	-0.060182
O39	O	1.619011	0.132081	0.273151
O40	O	0.842985	-0.416087	-0.385377
O41	O	1.176319	-0.082754	-0.052043
O42	O	1.509652	0.250579	0.281290
O43	O	1.038708	-0.538086	-0.319780
O44	O	1.372042	-0.204752	0.013554
O45	O	1.705375	0.128581	0.346887
O46	O	1.046596	-0.337795	-0.491476
O47	O	1.379929	-0.004461	-0.158143
O48	O	1.713263	0.328872	0.175190
O49	O	0.956832	-0.420634	-0.491199
O50	O	1.290166	-0.087300	-0.157866
O51	O	1.623499	0.246033	0.175468
C52	C	0.819241	-0.371920	-0.344474
C53	C	1.152574	-0.038587	-0.011141
C54	C	1.485908	0.294747	0.322192
C55	C	0.741137	-0.368795	-0.341575
C56	C	1.074471	-0.035461	-0.008241
C57	C	1.407804	0.297872	0.325092
C58	C	0.702641	-0.412179	-0.381871
C59	C	1.035974	-0.078846	-0.048538
C60	C	1.369308	0.254488	0.284796
C61	C	0.629254	-0.409245	-0.379138
C62	C	0.962587	-0.075912	-0.045805
C63	C	1.295921	0.257421	0.287528
C64	C	0.594365	-0.362924	-0.336112
C65	C	0.927698	-0.029591	-0.002778
C66	C	1.261031	0.303743	0.330555
C67	C	0.632866	-0.319538	-0.295811
C68	C	0.966200	0.013795	0.037523
C69	C	1.299533	0.347129	0.370856
C70	C	0.706252	-0.322475	-0.298541
C71	C	1.039585	0.010858	0.034792
C72	C	1.372919	0.344191	0.368126
C73	C	0.375079	-0.349333	-0.323476
C74	C	0.708412	-0.015999	0.009857
C75	C	1.041746	0.317334	0.343191
C76	C	0.301688	-0.346397	-0.320750
C77	C	0.635022	-0.013064	0.012583
C78	C	0.968355	0.320270	0.345916
C79	C	0.298081	-0.436106	-0.404077
C80	C	0.631414	-0.102773	-0.070744
C81	C	0.964748	0.230561	0.262589
C82	C	0.371468	-0.439036	-0.406806
C83	C	0.704801	-0.105703	-0.073473
C84	C	1.038135	0.227631	0.259861
C85	C	0.409963	-0.395653	-0.366503
C86	C	0.743296	-0.062319	-0.033170
C87	C	1.076630	0.271014	0.300164
N88	N	0.519352	-0.359923	-0.333319
N89	N	0.852685	-0.026590	0.000015
N90	N	1.186018	0.306744	0.333348
N91	N	0.484975	-0.398658	-0.369294
N92	N	0.818308	-0.065325	-0.035960
N93	N	1.151641	0.268009	0.297373
C94	C	0.994478	-0.562544	-0.357542
C95	C	1.327812	-0.229211	-0.024208
C96	C	1.661145	0.104122	0.309125
C97	C	0.991355	-0.640647	-0.360206
C98	C	1.324688	-0.307314	-0.026873
C99	C	1.658021	0.026019	0.306461
C100	C	1.034850	-0.679164	-0.323069
C101	C	1.368183	-0.345830	0.010264
C102	C	1.701516	-0.012497	0.343597
C103	C	1.031906	-0.752549	-0.325570
C104	C	1.365240	-0.419216	0.007763
C105	C	1.698573	-0.085883	0.341097
C106	C	0.985471	-0.787417	-0.365211
C107	C	1.318804	-0.454084	-0.031878
C108	C	1.652137	-0.120750	0.301455
C109	C	0.941971	-0.748895	-0.402349
C110	C	1.275304	-0.415562	-0.069016
C111	C	1.608637	-0.082229	0.264317
C112	C	0.944911	-0.675511	-0.399845
C113	C	1.278245	-0.342178	-0.066512
C114	C	1.611578	-0.008844	0.266822
C115	C	0.971851	-1.006697	-0.376815
C116	C	1.305184	-0.673364	-0.043482
C117	C	1.638518	-0.340030	0.289852
C118	C	0.968915	-1.080087	-0.379318
C119	C	1.302249	-0.746753	-0.045985
C120	C	1.635582	-0.413420	0.287348
C121	C	1.058850	-1.083735	-0.302538
C122	C	1.392184	-0.750402	0.030796
C123	C	1.725517	-0.417069	0.364129
C124	C	1.061790	-1.010350	-0.300039
C125	C	1.395123	-0.677016	0.033294
C126	C	1.728456	-0.343683	0.366627
C127	C	1.018287	-0.971834	-0.337175
C128	C	1.351621	-0.638501	-0.003842
C129	C	1.684954	-0.305168	0.329492
N130	N	0.982462	-0.862429	-0.367770
N131	N	1.315795	-0.529096	-0.034437
N132	N	1.649129	-0.195762	0.298897
N133	N	1.021293	-0.896824	-0.334613
N134	N	1.354626	-0.563490	-0.001279
N135	N	1.687959	-0.230157	0.332054
C136	C	1.185089	-0.386639	-0.358131
C137	C	1.518422	-0.053306	-0.024798
C138	C	1.851756	0.280028	0.308536
C139	C	1.263192	-0.389781	-0.361047
C140	C	1.596525	-0.056448	-0.027713
C141	C	1.929859	0.276885	0.305620
C142	C	1.001717	-0.379222	-0.514072
C143	C	1.335051	-0.045889	-0.180739
C144	C	1.668384	0.287445	0.152595
C145	C	1.001742	-0.379230	-0.583714
C146	C	1.335075	-0.045897	-0.250381
C147	C	1.668408	0.287437	0.082952
C148	C	1.009151	-0.196700	-0.345017
C149	C	1.342484	0.136633	-0.011684
C150	C	1.675817	0.469967	0.321649
C151	C	1.012411	-0.118603	-0.342181
C152	C	1.345744	0.214730	-0.008848
C153	C	1.679077	0.548064	0.324485
C154	C	1.048520	-0.336143	-0.616554
C155	C	1.381853	-0.002810	-0.283221
C156	C	1.715186	0.330523	0.050112
C157	C	1.048552	-0.336160	-0.681991
C158	C	1.381885	-0.002827	-0.348658
C159	C	1.715218	0.330506	-0.015325
C160	C	1.001794	-0.379256	-0.714585
C161	C	1.335127	-0.045923	-0.381252
C162	C	1.668460	0.287411	-0.047919
C163	C	0.955012	-0.422351	-0.681738
C164	C	1.288345	-0.089018	-0.348404
C165	C	1.621679	0.244315	-0.015071
C166	C	0.954986	-0.422338	-0.616302
C167	C	1.288319	-0.089005	-0.282969
C168	C	1.621653	0.244328	0.050364
C169	C	0.938302	-0.382224	-0.816131
C170	C	1.271635	-0.048891	-0.482798
C171	C	1.604968	0.284443	-0.149465
C172	C	0.938327	-0.382232	-0.881566
C173	C	1.271660	-0.048899	-0.548232
C174	C	1.604993	0.284435	-0.214899
C175	C	1.001874	-0.379301	-0.916411
C176	C	1.335207	-0.045967	-0.583077
C177	C	1.668540	0.287366	-0.249744
C178	C	1.065398	-0.376346	-0.885813
C179	C	1.398732	-0.043013	-0.552480
C180	C	1.732065	0.290320	-0.219146
C181	C	1.065372	-0.376333	-0.820378
C182	C	1.398706	-0.043000	-0.487044
C183	C	1.732039	0.290334	-0.153711
C184	C	1.001817	-0.379275	-0.785539
C185	C	1.335150	-0.045942	-0.452206
C186	C	1.668483	0.287391	-0.118873
C187	C	1.048690	-0.336230	-1.020205
C188	C	1.382024	-0.002897	-0.686872
C189	C	1.715357	0.330436	-0.353538
C190	C	1.048723	-0.336252	-1.085644
C191	C	1.382057	-0.002919	-0.752310
C192	C	1.715390	0.330414	-0.418977
C193	C	0.955178	-0.422439	-1.085388
C194	C	1.288511	-0.089106	-0.752055
C195	C	1.621844	0.244227	-0.418722
C196	C	0.955151	-0.422421	-1.019951
C197	C	1.288484	-0.089088	-0.686618
C198	C	1.621817	0.244246	-0.353285
C199	C	1.001906	-0.379313	-0.987364
C200	C	1.335240	-0.045980	-0.654030
C201	C	1.668573	0.287354	-0.320697
C202	C	1.001919	-0.379324	-0.187872
C203	C	1.335252	-0.045991	0.145461
C204	C	1.668585	0.287343	0.478795
C205	C	1.001966	-0.379349	-0.118233
C206	C	1.335299	-0.046016	0.215100
C207	C	1.668632	0.287317	0.548434
H208	H	0.604454	-0.281825	-0.260775
H209	H	0.937787	0.051509	0.072558
H210	H	1.271120	0.384842	0.405892
H211	H	0.917109	-0.457532	-1.111926
H212	H	1.250442	-0.124199	-0.778593
H213	H	1.583776	0.209135	-0.445259
H214	H	0.936439	-0.975347	-0.407063
H215	H	1.269772	-0.642014	-0.073730
H216	H	1.603105	-0.308680	0.259603
O217	O	1.133880	-0.373152	-0.787371
O218	O	1.467213	-0.039819	-0.454038
O219	O	1.800547	0.293515	-0.120705
H220	H	1.166560	-0.419254	-0.802687
H221	H	1.499893	-0.085920	-0.469354
H222	H	1.833226	0.247413	-0.136020
O223	O	0.904680	-0.468874	-0.984523
O224	O	1.238013	-0.135541	-0.651190
O225	O	1.571346	0.197792	-0.317856
H226	H	0.872162	-0.498837	-1.018179
H227	H	1.205496	-0.165504	-0.684845
H228	H	1.538829	0.167830	-0.351512
O229	O	0.869816	-0.385418	-0.914567
O230	O	1.203149	-0.052084	-0.581233
O231	O	1.536483	0.281249	-0.247900
H232	H	0.825624	-0.387468	-0.879346
H233	H	1.158957	-0.054135	-0.546012
H234	H	1.492291	0.279198	-0.212679
O235	O	0.747779	-0.275675	-0.255086
O236	O	1.081112	0.057658	0.078247
O237	O	1.414446	0.390992	0.411581
H238	H	0.711191	-0.242964	-0.224714
H239	H	1.044525	0.090370	0.108620
H240	H	1.377858	0.423703	0.441953
H241	H	1.117144	-0.373959	-0.914183
H242	H	1.450478	-0.040626	-0.580849
H243	H	1.783811	0.292707	-0.247516
H244	H	1.072665	-0.650780	-0.290791
H245	H	1.405998	-0.317446	0.042542
H246	H	1.739332	0.015887	0.375876
O247	O	1.099178	-0.289777	-1.121069
O248	O	1.432511	0.043556	-0.787736
O249	O	1.765844	0.376890	-0.454402
H250	H	1.131678	-0.259796	-1.087412
H251	H	1.465011	0.073538	-0.754079
H252	H	1.798345	0.406871	-0.420745
H253	H	1.086764	-0.301131	-0.993671
H254	H	1.420097	0.032202	-0.660338
H255	H	1.753430	0.365536	-0.327004
O256	O	1.099001	-0.289681	-0.717424
O257	O	1.432334	0.043653	-0.384091
O258	O	1.765667	0.376986	-0.050757
H259	H	1.131504	-0.259699	-0.683770
H260	H	1.464837	0.073634	-0.350436
H261	H	1.798171	0.406967	-0.017103
H262	H	0.399870	-0.476755	-0.441844
H263	H	0.733203	-0.143421	-0.108511
H264	H	1.066536	0.189912	0.224822
O265	O	0.869758	-0.385381	-0.778549
O266	O	1.203091	-0.052048	-0.445216
O267	O	1.536425	0.281285	-0.111883
H268	H	0.825591	-0.387425	-0.810816
H269	H	1.158925	-0.054091	-0.477483
H270	H	1.492258	0.279242	-0.144150
H271	H	1.067326	-0.783906	-0.295331
H272	H	1.400660	-0.450573	0.038002
H273	H	1.733993	-0.117240	0.371336
O274	O	0.264060	-0.296410	-0.274358
O275	O	0.597394	0.036924	0.058976
O276	O	0.930727	0.370257	0.392309
H277	H	0.206564	-0.301643	-0.279245
H278	H	0.539898	0.031691	0.054088
H279	H	0.873231	0.365024	0.387422
H280	H	0.916942	-0.457441	-0.708280
H281	H	1.250276	-0.124108	-0.374947
H282	H	1.583609	0.209225	-0.041613
O283	O	0.904519	-0.468798	-0.580875
O284	O	1.237852	-0.135465	-0.247541
O285	O	1.571185	0.197869	0.085792
H286	H	0.872003	-0.498764	-0.614529
H287	H	1.205337	-0.165431	-0.281196
H288	H	1.538670	0.167902	0.052137
H289	H	0.731042	-0.449897	-0.416910
H290	H	1.064376	-0.116563	-0.083577
H291	H	1.397709	0.216770	0.249757
O292	O	0.256583	-0.482878	-0.447577
O293	O	0.589917	-0.149544	-0.114244
O294	O	0.923250	0.183789	0.219089
H295	H	0.268481	-0.538620	-0.439343
H296	H	0.601814	-0.205286	-0.106010
H297	H	0.935147	0.128047	0.227323
O298	O	0.891879	-0.786500	-0.445101
O299	O	1.225213	-0.453166	-0.111767
O300	O	1.558546	-0.119833	0.221566
H301	H	0.921965	-0.821185	-0.479298
H302	H	1.255298	-0.487852	-0.145964
H303	H	1.588631	-0.154519	0.187369
O304	O	1.111877	-0.972741	-0.257287
O305	O	1.445210	-0.639408	0.076047
O306	O	1.778543	-0.306075	0.409380
H307	H	1.141626	-1.011854	-0.231880
H308	H	1.474960	-0.678520	0.101453
H309	H	1.808293	-0.345187	0.434786
H310	H	0.597913	-0.444573	-0.411952
H311	H	0.931247	-0.111240	-0.078619
H312	H	1.264580	0.222094	0.254714
H313	H	0.909486	-0.644151	-0.430079
H314	H	1.242819	-0.310818	-0.096746
H315	H	1.576152	0.022515	0.236588
O316	O	1.098958	-0.289659	-0.581409
O317	O	1.432291	0.043674	-0.248076
O318	O	1.765625	0.377007	0.085258
H319	H	1.089167	-0.234020	-0.591675
H320	H	1.422501	0.099313	-0.258342
H321	H	1.755834	0.432647	0.074992
O322	O	0.416596	-0.302521	-0.280028
O323	O	0.749930	0.030812	0.053306
O324	O	1.083263	0.364146	0.386639
H325	H	0.380005	-0.269807	-0.249662
H326	H	0.713338	0.063527	0.083671
H327	H	1.046671	0.396860	0.417005
H328	H	1.094267	-1.115102	-0.272303
H329	H	1.427600	-0.781769	0.061030
H330	H	1.760933	-0.448436	0.394364
H331	H	0.931100	-1.108474	-0.411600
H332	H	1.264433	-0.775141	-0.078267
H333	H	1.597766	-0.441807	0.255066
