data_functionalizedCrystal
_audit_creation_method	'MofGen! by Chris Wilmer'
_symmetry_space_group_name_H-M	'P1'
_symmetry_Int_Tables_number	1
_symmetry_cell_setting	triclinic
loop_
_symmetry_equiv_pos_as_xyz
  x,y,z
_cell_length_a	27.354012
_cell_length_b	27.353283
_cell_length_c	27.349551
_cell_angle_alpha	60.005606
_cell_angle_beta	60.011434
_cell_angle_gamma	59.993282
loop_
_atom_site_label
_atom_site_type_symbol
_atom_site_fract_x
_atom_site_fract_y
_atom_site_fract_z
O1	O	0.067635	-0.714267	0.597330
O2	O	0.567635	-0.214267	1.097330
O3	O	0.025429	-0.556105	0.481282
O4	O	0.525429	-0.056105	0.981282
O5	O	0.125575	-0.656186	0.481214
O6	O	0.625575	-0.156186	0.981214
O7	O	-0.032512	-0.614186	0.597397
O8	O	0.467488	-0.114186	1.097397
O9	O	0.158797	-0.622968	0.514367
O10	O	0.658797	-0.122968	1.014367
O11	O	0.058650	-0.522887	0.514434
O12	O	0.558650	-0.022887	1.014434
O13	O	0.100856	-0.681048	0.630482
O14	O	0.600856	-0.181048	1.130482
Zn15	Zn	0.085028	-0.596693	0.577722
Zn16	Zn	0.585028	-0.096693	1.077722
Zn17	Zn	0.041257	-0.640460	0.534042
Zn18	Zn	0.541257	-0.140460	1.034042
O19	O	0.000709	-0.580967	0.630549
O20	O	0.500709	-0.080967	1.130549
N21	N	0.114901	-0.566828	0.607534
N22	N	0.614901	-0.066828	1.107534
N23	N	0.011389	-0.670331	0.504229
N24	N	0.511389	-0.170331	1.004229
C25	C	0.179404	-0.338196	0.672015
C26	C	0.679404	0.161804	1.172015
C27	C	0.179501	-0.502386	0.836160
C28	C	0.679501	-0.002386	1.336160
C29	C	0.179415	-0.502363	0.671996
C30	C	0.679415	-0.002363	1.171996
C31	C	0.343611	-0.502373	0.671960
C32	C	0.843611	-0.002373	1.171960
C33	C	0.197478	-0.392371	0.690061
C34	C	0.697478	0.107629	1.190061
C35	C	0.197534	-0.484321	0.781984
C36	C	0.697534	0.015679	1.281984
C37	C	0.289434	-0.484312	0.690032
C38	C	0.789434	0.015688	1.190032
C39	C	0.197486	-0.484308	0.690051
C40	C	0.697486	0.015692	1.190051
C41	C	0.156398	-0.269238	0.649045
C42	C	0.656398	0.230762	1.149045
C43	C	0.156418	-0.525342	0.649015
C44	C	0.656418	-0.025342	1.149015
C45	C	0.220484	-0.461329	0.713032
C46	C	0.720484	0.038671	1.213032
C47	C	0.443889	-0.485097	0.619172
C48	C	0.943889	0.014903	1.119172
C49	C	0.506571	-0.505993	0.598266
C50	C	1.006571	-0.005993	1.098266
C51	C	0.506589	-0.607412	0.636940
C52	C	1.006589	-0.107412	1.136940
C53	C	0.443909	-0.586515	0.657848
C54	C	0.943909	-0.086515	1.157848
C55	C	0.171510	-0.237888	0.587422
C56	C	0.671510	0.262112	1.087422
C57	C	0.150593	-0.175201	0.566543
C58	C	0.650593	0.324799	1.066543
C59	C	0.099458	-0.175218	0.668913
C60	C	0.599458	0.324782	1.168913
C61	C	0.120375	-0.237905	0.689792
C62	C	0.620375	0.262095	1.189792
C63	C	0.094789	-0.510201	0.664176
C64	C	0.594789	-0.010201	1.164176
C65	C	0.073888	-0.531091	0.643278
C66	C	0.573888	-0.031091	1.143278
C67	C	0.176239	-0.582263	0.592072
C68	C	0.676239	-0.082263	1.092072
C69	C	0.197142	-0.561373	0.612963
C70	C	0.697142	-0.061373	1.112963
C71	C	0.094933	-0.510244	0.936476
C72	C	0.594933	-0.010244	1.436476
C73	C	0.074073	-0.531151	0.999161
C74	C	0.574073	-0.031151	1.499161
C75	C	0.176453	-0.582335	0.999126
C76	C	0.676453	-0.082335	1.499126
C77	C	0.197312	-0.561429	0.936439
C78	C	0.697312	-0.061429	1.436439
C79	C	0.156551	-0.525382	0.905116
C80	C	0.656551	-0.025382	1.405116
C81	C	0.412561	-0.525357	0.648961
C82	C	0.912561	-0.025357	1.148961
C83	C	-0.098513	-0.688235	0.485867
C84	C	0.401487	-0.188235	0.985867
C85	C	-0.006461	-0.688368	0.394066
C86	C	0.493539	-0.188368	0.894066
C87	C	-0.006645	-0.780264	0.486040
C88	C	0.493355	-0.280264	0.986040
C89	C	-0.006630	-0.688361	0.486097
C90	C	0.493370	-0.188361	0.986097
C91	C	-0.029562	-0.711308	0.463018
C92	C	0.470438	-0.211308	0.963018
N93	N	0.537030	-0.566846	0.607436
N94	N	1.037030	-0.066846	1.107436
O95	O	0.741877	-0.576849	0.459995
O96	O	1.241877	-0.076849	0.959995
O97	O	0.742050	-0.693241	0.618010
O98	O	1.242050	-0.193241	1.118010
O99	O	0.741986	-0.692977	0.517791
O100	O	1.241986	-0.192977	1.017791
O101	O	0.741941	-0.577114	0.560214
O102	O	1.241941	-0.077114	1.060214
O103	O	0.642405	-0.659839	0.551046
O104	O	1.142405	-0.159839	1.051046
O105	O	0.642469	-0.660104	0.651265
O106	O	1.142469	-0.160104	1.151265
O107	O	0.642296	-0.543712	0.493251
O108	O	1.142296	-0.043712	0.993251
Zn109	Zn	0.626572	-0.596646	0.577538
Zn110	Zn	1.126572	-0.096646	1.077538
Zn111	Zn	0.757774	-0.640307	0.533723
Zn112	Zn	1.257774	-0.140307	1.033723
O113	O	0.642360	-0.543976	0.593469
O114	O	1.142360	-0.043976	1.093469
N115	N	0.847316	-0.670107	0.503818
N116	N	1.347316	-0.170107	1.003818
N117	N	0.114877	-0.144758	0.607577
N118	N	0.614877	0.355242	1.107577
O119	O	-0.032498	0.060193	0.597441
O120	O	0.467502	0.560193	1.097441
O121	O	0.125523	0.060193	0.481067
O122	O	0.625523	0.560193	0.981067
O123	O	0.025289	0.060179	0.481345
O124	O	0.525289	0.560179	0.981345
O125	O	0.067736	0.060207	0.597163
O126	O	0.567736	0.560207	1.097163
O127	O	0.058511	-0.039410	0.514543
O128	O	0.558511	0.460590	1.014543
O129	O	0.158745	-0.039397	0.514265
O130	O	0.658745	0.460603	1.014265
O131	O	0.000724	-0.039396	0.630638
O132	O	0.500724	0.460604	1.130638
Zn133	Zn	0.085009	-0.055208	0.577722
Zn134	Zn	0.585009	0.444792	1.077722
Zn135	Zn	0.041238	0.076005	0.533983
Zn136	Zn	0.541238	0.576005	1.033983
O137	O	0.100958	-0.039382	0.630360
O138	O	0.600958	0.460618	1.130360
N139	N	0.011362	0.165555	0.504130
N140	N	0.511362	0.665555	1.004130
N141	N	0.115121	-0.566884	1.029592
N142	N	0.615121	-0.066884	1.529592
O143	O	0.104990	-0.714248	1.234528
O144	O	0.604990	-0.214248	1.734528
O145	O	-0.011371	-0.556177	1.234539
O146	O	0.488629	-0.056177	1.734539
O147	O	-0.011103	-0.656395	1.234497
O148	O	0.488897	-0.156395	1.734497
O149	O	0.104722	-0.614030	1.234569
O150	O	0.604722	-0.114030	1.734569
O151	O	0.022090	-0.623190	1.134913
O152	O	0.522090	-0.123190	1.634913
O153	O	0.021822	-0.522972	1.134954
O154	O	0.521822	-0.022972	1.634954
O155	O	0.138182	-0.681044	1.134943
O156	O	0.638182	-0.181044	1.634943
Zn157	Zn	0.085272	-0.596736	1.119137
Zn158	Zn	0.585272	-0.096736	1.619137
Zn159	Zn	0.041539	-0.640484	1.250344
Zn160	Zn	0.541539	-0.140484	1.750344
O161	O	0.137914	-0.580826	1.134984
O162	O	0.637914	-0.080826	1.634984
N163	N	0.011689	-0.670343	1.339890
N164	N	0.511689	-0.170343	1.839890
C165	C	0.038085	-0.519567	0.481870
C166	C	0.538085	-0.019567	0.981870
C167	C	0.162104	-0.643505	0.481786
C168	C	0.662104	-0.143505	0.981786
C169	C	0.088200	-0.717587	0.629893
C170	C	0.588200	-0.217587	1.129893
C171	C	-0.035819	-0.593649	0.629977
C172	C	0.464181	-0.093649	1.129977
C173	C	0.692280	-0.692701	0.654545
C174	C	1.192280	-0.192701	1.154545
C175	C	0.692203	-0.692374	0.530435
C176	C	1.192203	-0.192374	1.030435
C177	C	0.692063	-0.544251	0.456717
C178	C	1.192063	-0.044251	0.956717
C179	C	0.692144	-0.544580	0.580825
C180	C	1.192144	-0.044580	1.080825
C181	C	0.162000	0.010521	0.481600
C182	C	0.662000	0.510521	0.981600
C183	C	0.037914	0.010381	0.481984
C184	C	0.537914	0.510381	0.981984
C185	C	-0.035795	0.010399	0.630065
C186	C	0.464205	0.510399	1.130065
C187	C	0.088333	0.010415	0.629722
C188	C	0.588333	0.510415	1.129722
C189	C	-0.010799	-0.519660	1.184747
C190	C	0.489201	-0.019660	1.684747
C191	C	-0.010461	-0.643761	1.184677
C192	C	0.489539	-0.143761	1.684677
C193	C	0.137610	-0.717561	1.184734
C194	C	0.637610	-0.217561	1.684734
C195	C	0.137280	-0.593452	1.184783
C196	C	0.637280	-0.093452	1.684783
H197	H	0.023897	-0.518815	1.024687
H198	H	0.523897	-0.018815	1.524687
Cl199	Cl	0.024172	-0.449421	0.425597
Cl200	Cl	0.524172	0.050579	0.925597
H201	H	0.692005	-0.507708	0.411338
H202	H	1.192005	-0.007708	0.911338
H203	H	0.207509	-0.652460	0.445301
H204	H	0.707509	-0.152460	0.945301
H205	H	-0.047330	-0.474261	1.184750
H206	H	0.452670	0.025739	1.684750
Cl207	Cl	0.231923	0.010947	0.425048
Cl208	Cl	0.731923	0.510947	0.925048
H209	H	0.692323	-0.729239	0.699929
H210	H	1.192323	-0.229239	1.199929
H211	H	-0.081177	0.010398	0.666600
H212	H	0.418823	0.510398	1.166600
H213	H	-0.081227	-0.584696	0.666460
H214	H	0.418773	-0.084696	1.166460
Cl215	Cl	0.102114	-0.787731	0.686168
Cl216	Cl	0.602114	-0.287731	1.186168
Cl217	Cl	0.692232	-0.748572	0.516420
Cl218	Cl	1.192232	-0.248572	1.016420
Cl219	Cl	0.692126	-0.488385	0.594836
Cl220	Cl	1.192126	0.011615	1.094836
Cl221	Cl	0.043685	-0.464924	0.897104
Cl222	Cl	0.543685	0.035076	1.397104
Cl223	Cl	0.023887	0.010374	0.425806
Cl224	Cl	0.523887	0.510374	0.925806
Cl225	Cl	0.193461	-0.579464	1.184810
Cl226	Cl	0.693461	-0.079464	1.684810
Cl227	Cl	0.102358	0.010428	0.685898
Cl228	Cl	0.602358	0.510428	1.185898
Cl229	Cl	0.194016	-0.787650	1.184726
Cl230	Cl	0.694016	-0.287650	1.684726
Cl231	Cl	0.227699	-0.627641	1.038501
Cl232	Cl	0.727699	-0.127641	1.538501
Cl233	Cl	0.274780	-0.580464	0.897019
Cl234	Cl	0.774780	-0.080464	1.397019
Cl235	Cl	-0.066619	-0.657726	1.184581
Cl236	Cl	0.433381	-0.157726	1.684581
H237	H	0.023705	-0.518748	0.655609
H238	H	0.523705	-0.018748	1.155609
Cl239	Cl	0.227442	-0.627569	0.546756
Cl240	Cl	0.727442	-0.127569	1.046756
Cl241	Cl	0.274620	-0.580409	0.593906
Cl242	Cl	0.774620	-0.080409	1.093906
Cl243	Cl	0.043589	-0.464902	0.709493
Cl244	Cl	0.543589	0.035098	1.209493
H245	H	0.532110	-0.657210	0.644171
H246	H	1.032110	-0.157210	1.144171
Cl247	Cl	0.545960	-0.455380	0.560815
Cl248	Cl	1.045960	0.044620	1.060815
Cl249	Cl	0.404481	-0.408210	0.608001
Cl250	Cl	0.904481	0.091790	1.108001
Cl251	Cl	0.216797	-0.277275	0.536194
Cl252	Cl	0.716797	0.222725	1.036194
Cl253	Cl	0.404529	-0.637133	0.695298
Cl254	Cl	0.904529	-0.137133	1.195298
H255	H	0.070133	-0.149706	0.702094
H256	H	0.570133	0.350294	1.202094
Cl257	Cl	0.169588	-0.135787	0.489069
Cl258	Cl	0.669588	0.364213	0.989069
H259	H	0.108067	-0.263426	0.739970
H260	H	0.608067	0.236574	1.239970
