data_functionalizedCrystal
_audit_creation_method	'MofGen! by Chris Wilmer'
_symmetry_space_group_name_H-M	'P1'
_symmetry_Int_Tables_number	1
_symmetry_cell_setting	triclinic
loop_
_symmetry_equiv_pos_as_xyz
  x,y,z
_cell_length_a	18.101398
_cell_length_b	18.050589
_cell_length_c	18.101389
_cell_angle_alpha	89.985984
_cell_angle_beta	89.975673
_cell_angle_gamma	90.023488
loop_
_atom_site_label
_atom_site_type_symbol
_atom_site_fract_x
_atom_site_fract_y
_atom_site_fract_z
Zn1	Zn	1.132136	-0.295831	-0.418861
Zn2	Zn	1.632136	0.204169	0.081139
Zn3	Zn	1.132038	-0.420005	-0.295029
Zn4	Zn	1.632038	0.079995	0.204971
Zn5	Zn	1.008295	-0.295823	-0.295023
Zn6	Zn	1.508295	0.204177	0.204977
Zn7	Zn	1.008252	-0.419974	-0.418818
Zn8	Zn	1.508252	0.080026	0.081182
O9	O	1.070180	-0.357908	-0.356933
O10	O	1.570180	0.142092	0.143067
O11	O	1.235756	-0.312320	-0.402456
O12	O	1.735756	0.187680	0.097544
O13	O	1.115600	-0.403542	-0.191396
O14	O	1.615600	0.096458	0.308604
O15	O	1.024782	-0.191900	-0.311465
O16	O	1.524782	0.308100	0.188535
O17	O	1.235684	-0.403550	-0.311477
O18	O	1.735684	0.096450	0.188523
O19	O	1.115767	-0.191905	-0.402449
O20	O	1.615767	0.308095	0.097551
O21	O	1.024687	-0.312306	-0.191391
O22	O	1.524687	0.187694	0.308609
O23	O	0.904656	-0.312276	-0.311423
O24	O	1.404656	0.187724	0.188577
O25	O	1.024708	-0.403496	-0.522457
O26	O	1.524708	0.096504	-0.022457
O27	O	0.904625	-0.403488	-0.402375
O28	O	1.404625	0.096512	0.097625
O29	O	1.115725	-0.312289	-0.522489
O30	O	1.615725	0.187711	-0.022489
O31	O	1.115558	-0.523926	-0.311435
O32	O	1.615558	-0.023926	0.188565
O33	O	1.024613	-0.523902	-0.402382
O34	O	1.524613	-0.023902	0.097618
C35	C	0.877770	-0.357878	-0.356894
C36	C	1.377770	0.142122	0.143106
C37	C	0.795455	-0.357883	-0.356895
C38	C	1.295455	0.142117	0.143105
C39	C	0.496364	-0.357930	-0.356957
C40	C	0.996364	0.142070	0.143043
C41	C	0.527685	-0.300254	-0.300012
C42	C	1.027685	0.199746	0.199988
C43	C	0.613303	-0.300409	-0.299769
C44	C	1.113303	0.199591	0.200231
C45	C	0.644747	-0.357906	-0.356927
C46	C	1.144747	0.142094	0.143073
C47	C	0.613633	-0.436133	-0.335608
C48	C	1.113633	0.063867	0.164392
C49	C	0.527988	-0.435813	-0.335212
C50	C	1.027988	0.064187	0.164788
C51	C	0.527978	-0.338057	-0.435355
C52	C	1.027978	0.161943	0.064645
C53	C	0.613629	-0.336315	-0.434927
C54	C	1.113629	0.163685	0.065073
C55	C	0.728606	-0.357897	-0.356910
C56	C	1.228606	0.142103	0.143090
C57	C	0.412505	-0.357943	-0.356972
C58	C	0.912505	0.142057	0.143028
C59	C	1.070091	-0.550860	-0.356921
C60	C	1.570091	-0.050860	0.143079
C61	C	1.070120	-0.633406	-0.356940
C62	C	1.570120	-0.133406	0.143060
C63	C	1.020713	-0.832871	-0.406380
C64	C	1.520713	-0.332871	0.093620
C65	C	1.002661	-0.882299	-0.338801
C66	C	1.502661	-0.382299	0.161199
C67	C	1.070193	-0.784537	-0.356950
C68	C	1.570193	-0.284537	0.143050
C69	C	1.088281	-0.882191	-0.424536
C70	C	1.588281	-0.382191	0.075464
C71	C	1.070262	-0.930522	-0.356965
C72	C	1.570262	-0.430522	0.143035
C73	C	1.052106	-0.832877	-0.289335
C74	C	1.552106	-0.332877	0.210665
C75	C	1.137757	-0.832765	-0.375116
C76	C	1.637757	-0.332765	0.124884
C77	C	1.119731	-0.882170	-0.307491
C78	C	1.619731	-0.382170	0.192509
C79	C	1.070151	-0.700438	-0.356942
C80	C	1.570151	-0.200438	0.143058
C81	C	1.070304	-1.014618	-0.356965
C82	C	1.570304	-0.514618	0.143035
C83	C	1.263342	-0.357939	-0.356972
C84	C	1.763342	0.142061	0.143028
C85	C	1.345656	-0.357952	-0.356989
C86	C	1.845656	0.142048	0.143011
C87	C	1.070223	-0.357890	-0.550095
C88	C	1.570223	0.142110	-0.050095
C89	C	1.070241	-0.357882	-0.632409
C90	C	1.570241	0.142118	-0.132409
C91	C	1.070290	-0.164203	-0.356961
C92	C	1.570290	0.335797	0.143039
C93	C	1.070337	-0.081657	-0.356974
C94	C	1.570337	0.418343	0.143026
C95	C	1.070284	-0.357742	-0.931500
C96	C	1.570284	0.142258	-0.431500
C97	C	1.012822	-0.414945	-0.900155
C98	C	1.512822	0.085055	-0.400155
C99	C	1.012977	-0.415210	-0.814536
C100	C	1.512977	0.084790	-0.314536
C101	C	1.070262	-0.357811	-0.783117
C102	C	1.570262	0.142189	-0.283117
C103	C	1.148289	-0.379062	-0.814225
C104	C	1.648289	0.120938	-0.314225
C105	C	1.147969	-0.379437	-0.899870
C106	C	1.647969	0.120563	-0.399870
C107	C	1.050399	-0.279163	-0.899918
C108	C	1.550399	0.220837	-0.399918
C109	C	1.048663	-0.279616	-0.814267
C110	C	1.548663	0.220384	-0.314267
C111	C	1.070255	-0.357849	-0.699258
C112	C	1.570255	0.142151	-0.199258
C113	C	1.070297	-0.357706	-1.015360
C114	C	1.570297	0.142294	-0.515360
C115	C	1.070180	-0.357873	-0.164522
C116	C	1.570180	0.142127	0.335478
C117	C	1.070305	-0.357672	-0.082209
C118	C	1.570305	0.142328	0.417791
H119	H	0.634341	-0.242399	-0.313131
H120	H	1.134341	0.257601	0.186869
H121	H	0.955117	-0.401912	-0.793503
H122	H	1.455117	0.098088	-0.293503
Cl123	Cl	1.108573	-0.210321	-0.781259
Cl124	Cl	1.608573	0.289679	-0.281259
H125	H	0.978808	-0.811224	-0.448122
H126	H	1.478808	-0.311224	0.051878
Cl127	Cl	0.914492	-0.915890	-0.315079
Cl128	Cl	1.414492	-0.415890	0.184921
H129	H	1.192234	-0.339582	-0.920607
H130	H	1.692234	0.160418	-0.420607
H131	H	1.161604	-0.903680	-0.265648
H132	H	1.661604	-0.403680	0.234352
Cl133	Cl	0.495922	-0.210415	-0.320411
Cl134	Cl	0.995922	0.289585	0.179589
Cl135	Cl	1.225903	-0.799146	-0.398867
Cl136	Cl	1.725903	-0.299146	0.101133
Cl137	Cl	1.216169	-0.316760	-0.782811
Cl138	Cl	1.716169	0.183240	-0.282811
H139	H	1.036768	-0.811305	-0.232168
H140	H	1.536768	-0.311305	0.267832
Cl141	Cl	1.111859	-0.915638	-0.512771
Cl142	Cl	1.611859	-0.415638	-0.012771
Cl143	Cl	0.646692	-0.462609	-0.248076
Cl144	Cl	1.146692	0.037391	0.251924
Cl145	Cl	0.496706	-0.402913	-0.500864
Cl146	Cl	0.996706	0.097087	-0.000864
H147	H	0.506136	-0.313242	-0.242258
H148	H	1.006136	0.186758	0.257742
Cl149	Cl	0.644888	-0.320686	-0.210078
Cl150	Cl	1.144888	0.179314	0.289922
H151	H	0.994491	-0.259803	-0.921503
H152	H	1.494491	0.240197	-0.421503
Cl153	Cl	1.032845	-0.504313	-0.933448
Cl154	Cl	1.532845	-0.004313	-0.433448
Cl155	Cl	0.497089	-0.461831	-0.246726
Cl156	Cl	0.997089	0.038169	0.253274
H157	H	0.954788	-0.401782	-0.920740
H158	H	1.454788	0.098218	-0.420740
Cl159	Cl	0.495994	-0.504407	-0.396449
Cl160	Cl	0.995994	-0.004407	0.103551
H161	H	0.634000	-0.480257	-0.375787
H162	H	1.134000	0.019743	0.124213
Cl163	Cl	1.033289	-0.505128	-0.782915
Cl164	Cl	1.533289	-0.005128	-0.282915
Cl165	Cl	0.494673	-0.251518	-0.465281
Cl166	Cl	0.994673	0.248482	0.034719
Cl167	Cl	1.173992	-0.468124	-0.930733
Cl168	Cl	1.673992	0.031876	-0.430733
H169	H	0.991242	-0.263592	-0.793934
H170	H	1.491242	0.236408	-0.293934
H171	H	1.165437	-0.435894	-0.792787
H172	H	1.665437	0.064106	-0.292787
H173	H	0.633970	-0.278749	-0.451002
H174	H	1.133970	0.221251	0.048998
Cl175	Cl	0.646673	-0.396451	-0.503946
Cl176	Cl	1.146673	0.103549	-0.003946
H177	H	1.092252	-0.236544	-0.920191
H178	H	1.592252	0.263456	-0.420191
