data_functionalizedCrystal
_audit_creation_method	'MofGen! by Chris Wilmer'
_symmetry_space_group_name_H-M	'P1'
_symmetry_Int_Tables_number	1
_symmetry_cell_setting	triclinic
loop_
_symmetry_equiv_pos_as_xyz
  x,y,z
_cell_length_a	25.639239
_cell_length_b	17.077404
_cell_length_c	17.077396
_cell_angle_alpha	89.980499
_cell_angle_beta	90.031074
_cell_angle_gamma	89.961089
loop_
_atom_site_label
_atom_site_type_symbol
_atom_site_fract_x
_atom_site_fract_y
_atom_site_fract_z
Zn1	Zn	-0.208148	-1.199968	0.443829
Zn2	Zn	-0.295585	-1.199839	0.312557
Zn3	Zn	-0.208166	-1.068700	0.312576
Zn4	Zn	-0.295554	-1.068632	0.443780
O5	O	-0.251863	-1.134285	0.378185
O6	O	-0.219752	-1.309798	0.426427
O7	O	-0.284010	-1.182418	0.202712
O8	O	-0.134998	-1.086196	0.330016
O9	O	-0.283992	-1.309703	0.329982
O10	O	-0.134985	-1.182638	0.426446
O11	O	-0.219783	-1.086071	0.202727
O12	O	-0.219753	-0.958844	0.329969
O13	O	-0.283939	-1.086080	0.553634
O14	O	-0.283957	-0.958794	0.426364
O15	O	-0.219722	-1.182572	0.553669
O16	O	-0.368746	-1.182352	0.329935
O17	O	-0.368724	-1.085954	0.426345
C18	C	-0.251854	-0.930337	0.378164
C19	C	-0.251862	-0.843087	0.378173
C20	C	-0.387706	-1.134153	0.378150
C21	C	-0.445820	-1.134168	0.378160
C22	C	-0.251825	-1.134333	0.582930
C23	C	-0.251808	-1.134353	0.670180
C24	C	-0.806182	-1.184610	0.328071
C25	C	-0.860787	-1.184641	0.328081
O26	O	-0.889023	-1.227391	0.285454
N27	N	-0.888102	-1.134423	0.378237
C28	C	-0.860811	-1.084177	0.428392
O29	O	-0.889059	-1.041467	0.471056
C30	C	-0.806208	-1.084151	0.428385
C31	C	-0.778895	-1.134367	0.378220
C32	C	-0.778869	-1.234822	0.277910
C33	C	-0.724269	-1.234790	0.277899
C34	C	-0.696981	-1.184547	0.328048
C35	C	-0.724294	-1.134335	0.378209
C36	C	-0.778917	-1.033910	0.478543
C37	C	-0.724310	-1.033889	0.478532
C38	C	-0.696997	-1.084104	0.428367
C39	C	-0.642406	-1.084060	0.428346
N40	N	-0.615090	-1.134278	0.378190
C41	C	-0.642378	-1.184521	0.328041
C42	C	-0.975482	-1.084236	0.428404
C43	C	-1.030084	-1.084258	0.428408
C44	C	-1.030056	-1.184722	0.328098
C45	C	-0.975452	-1.184696	0.328091
C46	C	-0.948166	-1.134454	0.378248
C47	C	-0.527713	-1.184450	0.328020
C48	C	-0.473107	-1.184412	0.328011
C49	C	-0.473140	-1.083951	0.428324
C50	C	-0.527741	-1.083986	0.428331
C51	C	-0.555026	-1.134242	0.378176
O52	O	-0.614135	-1.041334	0.470954
O53	O	-0.614123	-1.227232	0.285392
C54	C	-0.115490	-1.134439	0.378239
C55	C	-0.057376	-1.134505	0.378261
C56	C	-0.251873	-1.339029	0.378208
C57	C	-0.251877	-1.426279	0.378217
C58	C	-0.285344	-0.802092	0.428285
C59	C	-0.285345	-0.720111	0.428298
C60	C	-0.251867	-0.679128	0.378194
C61	C	-0.218382	-0.720129	0.328079
C62	C	-0.218378	-0.802108	0.328071
C63	C	-0.218392	-0.549259	0.328098
C64	C	-0.218396	-0.467275	0.328105
C65	C	-0.285358	-0.467262	0.428325
C66	C	-0.285355	-0.549241	0.428317
C67	C	-0.251871	-0.590237	0.378201
C68	C	-0.251864	-1.134283	0.174238
C69	C	-0.251733	-1.134415	0.086988
C70	C	-0.218368	-1.184598	0.711190
C71	C	-0.218350	-1.184608	0.793170
C72	C	-0.251777	-1.134375	0.834139
C73	C	-0.285219	-1.084124	0.793123
C74	C	-0.285233	-1.084111	0.711144
C75	C	-0.285187	-1.084156	0.963994
C76	C	-0.285174	-1.084169	1.045978
C77	C	-0.218304	-1.184652	1.046019
C78	C	-0.218319	-1.184639	0.964040
C79	C	-0.251762	-1.134389	0.923030
H80	H	-0.450871	-1.225303	0.287158
H81	H	-0.191073	-1.225566	1.079414
Cl82	Cl	-0.438826	-1.020795	0.491369
H83	H	-0.191121	-0.686754	0.287287
Cl84	Cl	-0.176346	-1.247755	0.659694
H85	H	-1.052283	-1.225636	0.287266
Cl86	Cl	-0.327273	-1.020941	0.659589
Cl87	Cl	-0.562005	-1.247629	0.264967
Cl88	Cl	-0.176332	-1.247811	0.844722
Cl89	Cl	-0.176300	-1.247794	0.912537
H90	H	-0.801081	-1.275740	0.237072
Cl91	Cl	-0.327190	-1.021010	1.097481
H92	H	-0.702034	-1.275682	0.237052
H93	H	-0.312607	-0.835454	0.469084
Cl94	Cl	-0.327446	-0.415725	0.491338
Cl95	Cl	-0.690011	-0.970724	0.541592
H96	H	-0.191129	-0.433908	0.287315
Cl97	Cl	-0.327230	-1.020982	0.912439
Cl98	Cl	-0.327239	-1.020971	0.844628
Cl99	Cl	-0.176297	-0.600796	0.265094
H100	H	-0.953217	-1.225586	0.287242
Cl101	Cl	-0.327438	-0.668577	0.491299
Cl102	Cl	-1.064413	-1.021118	0.491466
H103	H	-0.953267	-1.043317	0.469246
H104	H	-0.801146	-0.993016	0.519390
Cl105	Cl	-0.176285	-0.853646	0.265072
H106	H	-0.549980	-1.043099	0.469182
H107	H	-0.312619	-0.582607	0.469112
