data_functionalizedCrystal
_audit_creation_method	'MofGen! by Chris Wilmer'
_symmetry_space_group_name_H-M	'P1'
_symmetry_Int_Tables_number	1
_symmetry_cell_setting	triclinic
loop_
_symmetry_equiv_pos_as_xyz
  x,y,z
_cell_length_a	19.805407
_cell_length_b	18.050590
_cell_length_c	19.805399
_cell_angle_alpha	89.972574
_cell_angle_beta	89.979591
_cell_angle_gamma	90.020493
loop_
_atom_site_label
_atom_site_type_symbol
_atom_site_fract_x
_atom_site_fract_y
_atom_site_fract_z
Zn1	Zn	1.034773	-0.295638	-0.382736
Zn2	Zn	1.534773	0.204362	0.117264
Zn3	Zn	1.034703	-0.419830	-0.269548
Zn4	Zn	1.534703	0.080170	0.230452
Zn5	Zn	0.921587	-0.295663	-0.269558
Zn6	Zn	1.421587	0.204337	0.230442
Zn7	Zn	0.921566	-0.419795	-0.382693
Zn8	Zn	1.421566	0.080205	0.117307
O9	O	0.978157	-0.357732	-0.326134
O10	O	1.478157	0.142268	0.173866
O11	O	1.129480	-0.312117	-0.367734
O12	O	1.629480	0.187883	0.132266
O13	O	1.019678	-0.403384	-0.174832
O14	O	1.519678	0.096616	0.325168
O15	O	0.936639	-0.191735	-0.284594
O16	O	1.436639	0.308265	0.215406
O17	O	1.129429	-0.403360	-0.284576
O18	O	1.629429	0.096640	0.215424
O19	O	1.019796	-0.191717	-0.367745
O20	O	1.519796	0.308283	0.132255
O21	O	0.936572	-0.312159	-0.174840
O22	O	1.436572	0.187841	0.325160
O23	O	0.826868	-0.312125	-0.284553
O24	O	1.326868	0.187875	0.215447
O25	O	0.936604	-0.403300	-0.477415
O26	O	1.436604	0.096700	0.022585
O27	O	0.826853	-0.403324	-0.367672
O28	O	1.326853	0.096676	0.132328
O29	O	1.019776	-0.312083	-0.477446
O30	O	1.519776	0.187917	0.022554
O31	O	1.019657	-0.523750	-0.284534
O32	O	1.519657	-0.023750	0.215466
O33	O	0.936536	-0.523724	-0.367661
O34	O	1.436536	-0.023724	0.132339
C35	C	0.802301	-0.357724	-0.326109
C36	C	1.302301	0.142276	0.173891
C37	C	0.727069	-0.357739	-0.326115
C38	C	1.227069	0.142261	0.173885
C39	C	0.978105	-0.550684	-0.326107
C40	C	1.478105	-0.050684	0.173893
C41	C	0.978145	-0.633230	-0.326118
C42	C	1.478145	-0.133230	0.173882
C43	C	0.265308	-0.310310	-0.369527
C44	C	0.765308	0.189690	0.130473
C45	C	0.335997	-0.310311	-0.369522
C46	C	0.835997	0.189689	0.130478
C47	C	0.371308	-0.357743	-0.326155
C48	C	0.871308	0.142257	0.173845
C49	C	0.335926	-0.405181	-0.282796
C50	C	0.835926	0.094819	0.217204
C51	C	0.265239	-0.405183	-0.282805
C52	C	0.765239	0.094817	0.217195
C53	C	0.621000	-0.405176	-0.282760
C54	C	1.121000	0.094824	0.217240
C55	C	0.691692	-0.405169	-0.282753
C56	C	1.191692	0.094831	0.217247
C57	C	0.691757	-0.310304	-0.369477
C58	C	1.191757	0.189696	0.130523
C59	C	0.621070	-0.310306	-0.369486
C60	C	1.121070	0.189694	0.130514
C61	C	0.585695	-0.357747	-0.326129
C62	C	1.085695	0.142253	0.173871
C63	C	0.509047	-0.357746	-0.326136
C64	C	1.009047	0.142254	0.173864
C65	C	0.447955	-0.357741	-0.326145
C66	C	0.947955	0.142259	0.173855
C67	C	1.023440	-0.832667	-0.280976
C68	C	1.523440	-0.332667	0.219024
C69	C	1.039973	-0.882000	-0.342751
C70	C	1.539973	-0.382000	0.157249
C71	C	0.978183	-0.784360	-0.326145
C72	C	1.478183	-0.284360	0.173855
C73	C	0.961720	-0.882108	-0.264397
C74	C	1.461720	-0.382108	0.235603
C75	C	0.978222	-0.930345	-0.326165
C76	C	1.478222	-0.430345	0.173835
C77	C	0.994748	-0.832606	-0.387952
C78	C	1.494748	-0.332606	0.112048
C79	C	0.916466	-0.832709	-0.309557
C80	C	1.416466	-0.332709	0.190443
C81	C	0.932975	-0.882020	-0.371374
C82	C	1.432975	-0.382020	0.128626
C83	C	0.978163	-0.700262	-0.326132
C84	C	1.478163	-0.200262	0.173868
C85	C	0.978242	-1.014441	-0.326185
C86	C	1.478242	-0.514441	0.173815
C87	C	1.154700	-0.357740	-0.326158
C88	C	1.654700	0.142260	0.173842
C89	C	1.229932	-0.357743	-0.326169
C90	C	1.729932	0.142257	0.173831
C91	C	0.978195	-0.357685	-0.502676
C92	C	1.478195	0.142315	-0.002676
C93	C	0.978211	-0.357665	-0.577908
C94	C	1.478211	0.142335	-0.077908
C95	C	0.978228	-0.164026	-0.326175
C96	C	1.478228	0.335974	0.173825
C97	C	0.978258	-0.081480	-0.326193
C98	C	1.478258	0.418520	0.173807
C99	C	1.021520	-0.310166	-0.613270
C100	C	1.521520	0.189834	-0.113270
C101	C	1.021527	-0.310144	-0.683958
C102	C	1.521527	0.189856	-0.183958
C103	C	0.978228	-0.357626	-0.719284
C104	C	1.478228	0.142374	-0.219284
C105	C	0.934915	-0.405128	-0.683917
C106	C	1.434915	0.094872	-0.183917
C107	C	0.934905	-0.405145	-0.613230
C108	C	1.434905	0.094855	-0.113230
C109	C	0.934953	-0.405058	-0.968991
C110	C	1.434953	0.094942	-0.468991
C111	C	0.934968	-0.405039	-1.039683
C112	C	1.434968	0.094961	-0.539683
C113	C	1.021575	-0.310058	-1.039719
C114	C	1.521575	0.189942	-0.539719
C115	C	1.021565	-0.310075	-0.969032
C116	C	1.521565	0.189925	-0.469032
C117	C	0.978250	-0.357573	-0.933672
C118	C	1.478250	0.142427	-0.433672
C119	C	0.978242	-0.357595	-0.857023
C120	C	1.478242	0.142405	-0.357023
C121	C	0.978239	-0.357609	-0.795931
C122	C	1.478239	0.142391	-0.295931
C123	C	0.978158	-0.357725	-0.150278
C124	C	1.478158	0.142275	0.349722
C125	C	0.978273	-0.357535	-0.075046
C126	C	1.478273	0.142465	0.424954
H127	H	0.236563	-0.271681	-0.404837
H128	H	0.736563	0.228319	0.095163
C129	C	1.075161	-0.803381	-0.229431
C130	C	1.575161	-0.303381	0.270569
N131	N	1.114119	-0.781319	-0.190611
N132	N	1.614119	-0.281319	0.309389
C133	C	1.110505	-0.911259	-0.361722
C134	C	1.610505	-0.411259	0.138278
N135	N	1.163630	-0.933295	-0.376005
N136	N	1.663630	-0.433295	0.123995
H137	H	0.720440	-0.443796	-0.247438
H138	H	1.220440	0.056204	0.252562
C139	C	0.374908	-0.258125	-0.417213
C140	C	0.874908	0.241875	0.082787
N141	N	0.404215	-0.218814	-0.453135
N142	N	0.904215	0.281186	0.046865
H143	H	0.592206	-0.443803	-0.247454
H144	H	1.092206	0.056197	0.252546
H145	H	0.720568	-0.271677	-0.404782
H146	H	1.220568	0.228323	0.095218
C147	C	0.887329	-0.457270	-1.078540
C148	C	1.387329	0.042730	-0.578540
N149	N	0.851448	-0.496609	-1.107807
N150	N	1.351448	0.003391	-0.607807
H151	H	0.592324	-0.271679	-0.404797
H152	H	1.092324	0.228321	0.095203
C153	C	0.374771	-0.457354	-0.235089
C154	C	0.874771	0.042646	0.264911
N155	N	0.404028	-0.496648	-0.199153
N156	N	0.904028	0.003352	0.300847
C157	C	0.226325	-0.457362	-0.235106
C158	C	0.726325	0.042638	0.264894
N159	N	0.197016	-0.496665	-0.199179
N160	N	0.697016	0.003335	0.300821
H161	H	1.008637	-0.810954	-0.440225
H162	H	1.508637	-0.310954	0.059775
C163	C	0.887302	-0.457306	-0.930104
C164	C	1.387302	0.042694	-0.430104
N165	N	0.851408	-0.496660	-0.900811
N166	N	1.351408	0.003340	-0.400811
C167	C	1.069216	-0.257799	-1.078622
C168	C	1.569216	0.242201	-0.578622
N169	N	1.105097	-0.218438	-1.107922
N170	N	1.605097	0.281562	-0.607922
H171	H	0.894719	-0.903554	-0.409625
H172	H	1.394719	-0.403554	0.090375
H173	H	0.864271	-0.811040	-0.295495
H174	H	1.364271	-0.311040	0.204505
H175	H	0.899632	-0.443816	-0.584440
H176	H	1.399632	0.056184	-0.084440
H177	H	0.947779	-0.903852	-0.212170
H178	H	1.447779	-0.403852	0.287830
C179	C	1.069153	-0.257930	-0.574418
C180	C	1.569153	0.242070	-0.074418
N181	N	1.105028	-0.218582	-0.545157
N182	N	1.605028	0.281418	-0.045157
H183	H	1.056795	-0.271467	-0.712747
H184	H	1.556795	0.228533	-0.212747
C185	C	0.887279	-0.457351	-0.722778
C186	C	1.387279	0.042649	-0.222778
N187	N	0.851398	-0.496687	-0.752047
N188	N	1.351398	0.003313	-0.252047
C189	C	1.069195	-0.257838	-0.930178
C190	C	1.569195	0.242162	-0.430178
N191	N	1.105067	-0.218489	-0.900914
N192	N	1.605067	0.281511	-0.400914
