data_functionalizedCrystal
_audit_creation_method	'MofGen! by Chris Wilmer'
_symmetry_space_group_name_H-M	'P1'
_symmetry_Int_Tables_number	1
_symmetry_cell_setting	triclinic
loop_
_symmetry_equiv_pos_as_xyz
  x,y,z
_cell_length_a	16.120490
_cell_length_b	16.120484
_cell_length_c	13.033109
_cell_angle_alpha	79.614285
_cell_angle_beta	99.697676
_cell_angle_gamma	90.164100
loop_
_atom_site_label
_atom_site_type_symbol
_atom_site_fract_x
_atom_site_fract_y
_atom_site_fract_z
Zn1	Zn	1.322070	-0.470475	0.704627
Zn2	Zn	1.822070	0.029525	1.204627
Zn3	Zn	1.298746	-0.591644	0.536093
Zn4	Zn	1.798746	-0.091644	1.036093
Zn5	Zn	1.165129	-0.443648	0.518236
Zn6	Zn	1.665129	0.056352	1.018236
Zn7	Zn	1.175829	-0.602317	0.703662
Zn8	Zn	1.675829	-0.102317	1.203662
O9	O	1.240443	-0.527021	0.615655
O10	O	1.740443	-0.027021	1.115655
O11	O	1.436097	-0.493308	0.690147
O12	O	1.936097	0.006692	1.190147
O13	O	1.266782	-0.556318	0.385590
O14	O	1.766782	-0.056318	0.885590
O15	O	1.191230	-0.330093	0.535892
O16	O	1.691230	0.169907	1.035892
O17	O	1.418961	-0.582330	0.566326
O18	O	1.918961	-0.082330	1.066326
O19	O	1.306534	-0.349803	0.672832
O20	O	1.806534	0.150197	1.172832
O21	O	1.168614	-0.447586	0.372471
O22	O	1.668614	0.052414	0.872471
O23	O	1.049427	-0.457936	0.534956
O24	O	1.549427	0.042064	1.034956
O25	O	1.209468	-0.600522	0.851924
O26	O	1.709468	-0.100522	1.351924
O27	O	1.057289	-0.574509	0.671188
O28	O	1.557289	-0.074509	1.171188
O29	O	1.316910	-0.503658	0.852633
O30	O	1.816910	-0.003658	1.352633
O31	O	1.277157	-0.710173	0.565391
O32	O	1.777157	-0.210173	1.065391
O33	O	1.186851	-0.718015	0.688503
O34	O	1.686851	-0.218015	1.188503
C35	C	1.022990	-0.514470	0.601031
C36	C	1.522990	-0.014470	1.101031
C37	C	0.929963	-0.509124	0.594801
C38	C	1.429963	-0.009124	1.094801
C39	C	1.230659	-0.744464	0.628805
C40	C	1.730659	-0.244464	1.128805
C41	C	1.226554	-0.837495	0.634471
C42	C	1.726554	-0.337495	1.134471
C43	C	0.722094	-0.554747	0.647971
C44	C	1.222094	-0.054747	1.147971
C45	C	0.759649	-0.499371	0.583426
C46	C	1.259649	0.000629	1.083426
C47	C	0.854421	-0.504799	0.589757
C48	C	1.354421	-0.004799	1.089757
C49	C	0.627314	-0.549319	0.641641
C50	C	1.127314	-0.049319	1.141641
C51	C	1.219065	-1.007826	0.644838
C52	C	1.719065	-0.507826	1.144838
C53	C	1.261973	-1.045386	0.586499
C54	C	1.761973	-0.545386	1.086499
C55	C	1.257807	-1.140164	0.592267
C56	C	1.757807	-0.640164	1.092267
C57	C	1.223231	-0.913039	0.639071
C58	C	1.723231	-0.413039	1.139071
C59	C	1.458746	-0.539621	0.630336
C60	C	1.958746	-0.039621	1.130336
C61	C	1.551774	-0.544990	0.636593
C62	C	2.051774	-0.044990	1.136593
C63	C	1.266984	-0.556273	0.891762
C64	C	1.766984	-0.056273	1.391762
C65	C	1.278294	-0.568739	1.009422
C66	C	1.778294	-0.068739	1.509422
C67	C	1.250290	-0.308733	0.602478
C68	C	1.750290	0.191267	1.102478
C69	C	1.254487	-0.215711	0.596863
C70	C	1.754487	0.284289	1.096863
C71	C	1.214056	-0.497825	0.340621
C72	C	1.714056	0.002175	0.840621
C73	C	1.202919	-0.485133	0.222958
C74	C	1.702919	0.014867	0.722958
C75	C	1.234765	-0.520498	1.055388
C76	C	1.734765	-0.020498	1.555388
C77	C	1.246454	-0.533380	1.176996
C78	C	1.746454	-0.033380	1.676996
H79	H	0.761116	-0.606229	0.707979
H80	H	1.261116	-0.106229	1.207979
H81	H	1.301837	-1.006361	0.532220
H82	H	1.801837	-0.506361	1.032220
H83	H	1.188842	-0.469663	1.004711
H84	H	1.688842	0.030337	1.504711
N85	N	0.707965	-0.431170	0.503928
N86	N	1.207965	0.068830	1.003928
H87	H	0.646608	-0.436911	0.510615
H88	H	1.146608	0.063089	1.010615
H89	H	0.715329	-0.436951	0.430080
H90	H	1.215329	0.063049	0.930080
N91	N	1.166258	-1.059507	0.716729
N92	N	1.666258	-0.559507	1.216729
H93	H	1.170730	-1.120867	0.710703
H94	H	1.670730	-0.620867	1.210703
H95	H	1.105559	-1.039144	0.695259
H96	H	1.605559	-0.539144	1.195259
N97	N	1.307278	-0.600735	1.244106
N98	N	1.807278	-0.100735	1.744106
H99	H	1.307004	-0.600393	1.321466
H100	H	1.807004	-0.100393	1.821466
H101	H	1.365803	-0.589136	1.228076
H102	H	1.865803	-0.089136	1.728076
H103	H	1.156994	-0.434293	1.172286
H104	H	1.656994	0.065707	1.672286
H105	H	1.324214	-0.619577	1.060099
H106	H	1.824214	-0.119577	1.560099
