data_functionalizedCrystal
_audit_creation_method	'MofGen! by Chris Wilmer'
_symmetry_space_group_name_H-M	'P1'
_symmetry_Int_Tables_number	1
_symmetry_cell_setting	triclinic
loop_
_symmetry_equiv_pos_as_xyz
  x,y,z
_cell_length_a	13.339070
_cell_length_b	11.792241
_cell_length_c	12.376457
_cell_angle_alpha	101.354533
_cell_angle_beta	75.589755
_cell_angle_gamma	99.911355
loop_
_atom_site_label
_atom_site_type_symbol
_atom_site_fract_x
_atom_site_fract_y
_atom_site_fract_z
O1	O	1.364732	0.554298	-0.094048
O2	O	1.069793	0.479486	-0.094041
O3	O	1.224419	0.353927	-0.094037
O4	O	1.210107	0.679857	-0.094053
O5	O	1.185776	0.385262	0.093974
O6	O	1.031151	0.510821	0.093970
O7	O	1.326090	0.585633	0.093963
Zn8	Zn	1.172485	0.553202	0.123817
Zn9	Zn	1.223398	0.511917	-0.123896
O10	O	1.171464	0.711191	0.093958
C11	C	1.012713	0.482516	-0.000035
C12	C	0.900204	0.444848	-0.000032
C13	C	0.537024	0.737736	-0.000064
C14	C	0.642733	0.773131	-0.000070
C15	C	0.707105	0.691063	-0.000060
C16	C	0.665760	0.573595	-0.000045
C17	C	0.560044	0.538195	-0.000047
C18	C	0.730125	0.491522	-0.000044
C19	C	0.688780	0.374054	-0.000028
C20	C	0.583073	0.338661	-0.000030
C21	C	0.518700	0.420728	-0.000040
C22	C	0.835841	0.526922	-0.000041
C23	C	0.858861	0.327381	-0.000025
C24	C	0.753152	0.291986	-0.000018
C25	C	1.204198	0.327027	-0.000032
C26	C	1.201507	0.200184	-0.000033
C27	C	1.196562	-0.032056	-0.000052
C28	C	1.199310	0.097178	-0.000042
C29	C	1.383170	0.582602	-0.000046
C30	C	1.495681	0.620269	-0.000057
C31	C	1.191685	0.738092	-0.000049
C32	C	1.194378	0.864933	-0.000056
N33	N	1.137745	0.581379	0.292874
N34	N	1.258146	0.483733	-0.292953
C35	C	1.338788	0.418302	0.647865
C36	C	1.363097	0.398579	0.529526
C37	C	1.306760	0.444277	0.470357
C38	C	1.226112	0.509702	0.529539
C39	C	1.201806	0.529435	0.647890
C40	C	1.169779	0.555410	0.470382
C41	C	1.089130	0.620835	0.529564
C42	C	1.064828	0.640564	0.647903
C43	C	1.121164	0.594866	0.707072
C44	C	1.194085	0.535677	0.352031
C45	C	1.057103	0.646810	0.352056
C46	C	1.032794	0.666533	0.470396
H47	H	0.484605	0.804541	-0.000082
C48	C	0.728430	0.944806	0.096524
C49	C	0.688199	0.902236	-0.000110
H50	H	0.756511	1.024510	0.096486
H51	H	0.674198	0.937813	0.162084
H52	H	0.781881	0.900973	0.096524
H53	H	0.634742	0.946063	-0.000106
H54	H	0.742437	0.909237	-0.065687
H55	H	1.326556	0.428215	0.374000
H56	H	1.011231	0.684024	0.303882
C57	C	0.393400	0.299598	-0.096684
C58	C	0.402500	0.381821	-0.000038
H59	H	0.321661	0.275578	-0.096677
H60	H	0.426534	0.333532	-0.162236
H61	H	0.425818	0.233911	-0.096669
H62	H	0.370089	0.447512	-0.000057
H63	H	0.369352	0.347889	0.065531
C64	C	1.010966	0.235321	-0.096657
C65	C	0.929610	0.237162	-0.000013
H66	H	1.054651	0.179633	-0.096646
H67	H	0.982725	0.214728	-0.162210
H68	H	1.050708	0.310352	-0.096646
H69	H	0.889864	0.162132	-0.000028
H70	H	0.957853	0.257748	0.065557
C71	C	0.899821	0.774392	0.458542
C72	C	0.944146	0.738448	0.535456
H73	H	0.845089	0.818780	0.498710
H74	H	0.951699	0.820910	0.412377
H75	H	0.872600	0.707858	0.412389
H76	H	0.971375	0.804982	0.581604
H77	H	0.892259	0.691929	0.581640
C78	C	0.667494	0.120315	-0.096665
C79	C	0.707702	0.162864	-0.000014
H80	H	0.639441	0.040600	-0.096664
H81	H	0.614037	0.164127	-0.096660
H82	H	0.721742	0.127347	-0.162220
H83	H	0.653451	0.155841	0.065542
H84	H	0.761163	0.119039	-0.000008
H85	H	0.549416	0.243008	-0.000030
C86	C	1.259938	0.351554	0.315707
C87	C	1.282712	0.463722	0.287031
H88	H	1.314650	0.307117	0.275586
H89	H	1.253501	0.356811	0.394655
H90	H	1.196224	0.314655	0.296307
H91	H	1.346422	0.500624	0.306439
H92	H	1.289161	0.458468	0.208065
H93	H	1.428760	0.345312	0.481344
H94	H	1.384655	0.381108	0.696048
C95	C	1.016343	0.810544	0.780984
C96	C	0.976186	0.712488	0.712960
H97	H	0.961618	0.854948	0.821140
H98	H	1.046409	0.786147	0.833148
H99	H	1.068225	0.857048	0.734790
H100	H	0.924309	0.665980	0.759155
H101	H	0.946103	0.736885	0.660790
C102	C	1.160928	0.562624	0.876585
C103	C	1.094450	0.616556	0.837157
H104	H	1.144441	0.576022	0.956895
H105	H	1.152154	0.481129	0.849826
H106	H	1.231277	0.594161	0.849787
H107	H	1.024101	0.585012	0.863949
H108	H	1.103215	0.698066	0.863928
C109	C	0.884672	0.671338	-0.096703
C110	C	0.823301	0.729970	-0.000062
H111	H	0.956407	0.695370	-0.096702
H112	H	0.869264	0.589646	-0.096684
H113	H	0.869976	0.689254	-0.162265
H114	H	0.837991	0.712048	0.065500
H115	H	0.838715	0.811681	-0.000071
H116	H	0.869493	0.622565	-0.000049
