data_functionalizedCrystal
_audit_creation_method	'MofGen! by Chris Wilmer'
_symmetry_space_group_name_H-M	'P1'
_symmetry_Int_Tables_number	1
_symmetry_cell_setting	triclinic
loop_
_symmetry_equiv_pos_as_xyz
  x,y,z
_cell_length_a	16.992694
_cell_length_b	8.559649
_cell_length_c	16.053802
_cell_angle_alpha	92.204030
_cell_angle_beta	87.249047
_cell_angle_gamma	80.223444
loop_
_atom_site_label
_atom_site_type_symbol
_atom_site_fract_x
_atom_site_fract_y
_atom_site_fract_z
O1	O	1.023824	0.329978	-0.069320
O2	O	0.795762	0.326287	-0.069345
O3	O	0.929885	0.098096	-0.069329
O4	O	0.889700	0.558168	-0.069335
O5	O	0.922506	0.110601	0.069529
O6	O	0.788383	0.338792	0.069513
O7	O	1.016444	0.342483	0.069538
Zn8	Zn	0.901242	0.342623	0.091572
Zn9	Zn	0.910964	0.326147	-0.091379
O10	O	0.882321	0.570673	0.069523
C11	C	0.763145	0.327794	0.000081
C12	C	0.676954	0.313635	0.000072
C13	C	0.618488	0.450242	0.000071
C14	C	0.537502	0.436931	0.000082
C15	C	0.514985	0.287010	0.000089
C16	C	0.573459	0.150392	0.000093
C17	C	0.654442	0.163706	0.000087
C18	C	0.274709	0.231830	0.000112
C19	C	0.193719	0.218527	0.000115
C20	C	0.157768	0.505067	0.000106
C21	C	0.238755	0.518367	0.000096
C22	C	0.297221	0.381749	0.000104
N23	N	0.432206	0.273399	0.000099
N24	N	0.379998	0.395362	0.000100
C25	C	0.929241	0.045208	0.000098
C26	C	0.938306	-0.131015	0.000095
C27	C	1.049061	0.340975	0.000110
C28	C	1.135252	0.355134	0.000114
C29	C	0.882965	0.623562	0.000093
C30	C	0.873901	0.799784	0.000091
N31	N	0.894612	0.353867	0.216432
N32	N	0.917601	0.314891	-0.216239
C33	C	0.951698	0.256811	0.260132
C34	C	0.947067	0.264692	0.347539
C35	C	0.885353	0.369639	0.391243
C36	C	0.828261	0.466699	0.347536
C37	C	0.832890	0.458808	0.260132
C38	C	0.865138	0.404060	0.652650
C39	C	0.860515	0.411947	0.740061
C40	C	0.979321	0.209937	0.740057
C41	C	0.983946	0.202063	0.652651
C42	C	0.926852	0.299117	0.608952
N43	N	0.880619	0.377701	0.480586
N44	N	0.931583	0.291046	0.519610
H45	H	0.489901	0.548171	0.000080
C46	C	1.043313	0.099103	0.518668
C47	C	1.051452	0.085890	0.604614
H48	H	1.084895	0.027151	0.489015
H49	H	0.992975	0.074680	0.504582
H50	H	1.046561	0.204438	0.504120
H51	H	1.048198	-0.019443	0.619163
H52	H	1.101803	0.110302	0.618707
H53	H	0.810257	0.497414	0.775641
C54	C	1.118194	0.136591	0.766955
C55	C	1.042069	0.103239	0.788091
H56	H	1.156930	0.070716	0.796612
H57	H	1.129774	0.116876	0.708652
H58	H	1.119505	0.244800	0.781280
H59	H	1.040756	-0.004967	0.773760
H60	H	1.030485	0.122942	0.846407
H61	H	0.818650	0.483089	0.617077
H62	H	1.000384	-0.206593	0.000108
C63	C	0.195080	0.800264	0.000102
C64	C	0.263502	0.683166	0.000096
H65	H	0.210360	0.902004	0.000106
H66	H	0.166809	0.784756	-0.048316
H67	H	0.161674	0.793461	0.048530
H68	H	0.296905	0.689962	-0.048335
H69	H	0.291785	0.698680	0.048519
C70	C	0.574809	0.732134	0.000072
C71	C	0.643234	0.615042	0.000065
H72	H	0.590086	0.833876	0.000075
H73	H	0.546538	0.716623	-0.048346
H74	H	0.541404	0.725327	0.048500
H75	H	0.676635	0.621842	-0.048367
H76	H	0.671517	0.630559	0.048488
H77	H	0.778008	0.552143	0.383125
C78	C	0.772094	0.724997	0.233199
C79	C	0.770143	0.565501	0.212091
H80	H	0.733357	0.790860	0.203536
H81	H	0.760503	0.744707	0.291501
H82	H	0.823744	0.747597	0.218861
H83	H	0.718494	0.542898	0.226434
H84	H	0.781728	0.545782	0.153776
C85	C	0.085537	0.070895	0.000126
C86	C	0.168966	0.053722	0.000129
H87	H	0.070257	-0.030844	0.000129
H88	H	0.062318	0.131942	0.048542
H89	H	0.067458	0.123213	-0.048304
H90	H	0.187045	0.001415	0.048563
H91	H	0.192194	-0.007349	-0.048292
C92	C	0.049616	0.649895	-0.071269
C93	C	0.093499	0.655228	0.000107
H94	H	0.009936	0.742600	-0.071262
H95	H	0.084520	0.644782	-0.119686
H96	H	0.024620	0.558697	-0.071257
H97	H	0.118499	0.746421	0.000091
H98	H	0.058589	0.660357	0.048535
H99	H	0.322304	0.120586	0.000119
H100	H	0.555119	0.028324	0.000110
C101	C	0.713813	-0.082849	-0.071299
C102	C	0.718715	0.013546	0.000082
H103	H	0.753496	-0.175548	-0.071300
H104	H	0.662367	-0.112233	-0.071288
H105	H	0.722265	-0.026143	-0.119717
H106	H	0.710257	-0.043156	0.048501
H107	H	0.770173	0.042928	0.000079
C108	C	0.784657	-0.008850	-0.071313
C109	C	0.790097	-0.098214	0.000075
H110	H	0.732917	0.054120	-0.071324
H111	H	0.823841	0.058168	-0.071303
H112	H	0.793509	-0.078239	-0.119726
H113	H	0.781250	-0.028824	0.048489
H114	H	0.750901	-0.165238	0.000073
C115	C	1.068661	0.057915	0.268917
C116	C	1.019536	0.141445	0.212097
H117	H	1.110538	-0.013318	0.239262
H118	H	1.090865	0.130603	0.302997
H119	H	1.037895	-0.000212	0.303019
H120	H	1.050301	0.199581	0.177999
H121	H	0.997331	0.068747	0.178003
H122	H	0.993551	0.185660	0.383119
