data_functionalizedCrystal
_audit_creation_method	'MofGen! by Chris Wilmer'
_symmetry_space_group_name_H-M	'P1'
_symmetry_Int_Tables_number	1
_symmetry_cell_setting	triclinic
loop_
_symmetry_equiv_pos_as_xyz
  x,y,z
_cell_length_a	13.897441
_cell_length_b	19.077105
_cell_length_c	13.897448
_cell_angle_alpha	87.716080
_cell_angle_beta	90.028012
_cell_angle_gamma	92.319171
loop_
_atom_site_label
_atom_site_type_symbol
_atom_site_fract_x
_atom_site_fract_y
_atom_site_fract_z
Zn1	Zn	-0.604607	-1.076030	0.443322
Zn2	Zn	-0.443311	-1.075949	0.604639
Zn3	Zn	-0.436849	-0.958327	0.436874
Zn4	Zn	-0.598091	-0.958310	0.598085
O5	O	-0.520715	-1.017154	0.520730
O6	O	-0.588643	-1.174511	0.470163
O7	O	-0.307471	-1.060320	0.582429
O8	O	-0.459125	-0.973982	0.302750
O9	O	-0.470139	-1.174451	0.588682
O10	O	-0.582376	-1.060458	0.307487
O11	O	-0.302723	-0.973903	0.459173
O12	O	-0.452806	-0.859834	0.452817
O13	O	-0.733939	-0.973953	0.577511
O14	O	-0.571270	-0.859821	0.571259
O15	O	-0.738726	-1.060441	0.463808
O16	O	-0.463821	-1.060303	0.738749
O17	O	-0.577537	-0.973874	0.733934
C18	C	-0.510631	-0.834290	0.510628
C19	C	-0.506339	-0.756059	0.506329
C20	C	-0.520695	-1.017097	0.771341
C21	C	-0.520722	-1.017137	0.878557
C22	C	-0.772311	-1.017204	0.520648
C23	C	-0.879526	-1.017226	0.520613
C24	C	-1.075822	-1.017245	0.520548
C25	C	-0.966589	-1.017232	0.520587
C26	C	-0.270100	-1.017145	0.520745
C27	C	-0.162893	-1.017260	0.520516
C28	C	-0.530839	-1.200733	0.530873
C29	C	-0.535153	-1.278963	0.535195
C30	C	-0.565904	-0.719318	0.566068
C31	C	-0.561877	-0.645813	0.562017
C32	C	-0.498279	-0.609049	0.498229
C33	C	-0.438712	-0.645795	0.438483
C34	C	-0.442745	-0.719300	0.442531
C35	C	-0.479619	-0.389214	0.479497
C36	C	-0.475588	-0.315704	0.475456
C37	C	-0.598755	-0.315727	0.598988
C38	C	-0.602778	-0.389232	0.603034
C39	C	-0.543215	-0.425972	0.543285
N40	N	-0.494159	-0.533915	0.494088
N41	N	-0.547340	-0.501105	0.547421
C42	C	-0.520795	-1.017206	1.074856
C43	C	-0.520758	-1.017166	0.965622
C44	C	-0.520768	-1.017225	1.269141
C45	C	-0.520818	-1.017240	1.161928
H46	H	-0.610380	-0.615902	0.610664
H47	H	-0.386933	-0.615857	0.386542
O48	O	-0.384781	-0.754883	0.384469
C49	C	-0.262224	-0.747108	0.261482
C50	C	-0.327798	-0.706724	0.327203
H51	H	-0.216151	-0.708189	0.215151
H52	H	-0.213534	-0.781475	0.307555
H53	H	-0.308499	-0.781567	0.213037
H54	H	-0.281599	-0.672227	0.375659
H55	H	-0.376493	-0.672402	0.281072
O56	O	-0.413857	-0.279882	0.413547
C57	C	-0.353160	-0.166632	0.352480
C58	C	-0.423079	-0.207113	0.422659
H59	H	-0.360606	-0.107792	0.359808
H60	H	-0.276106	-0.180988	0.370076
H61	H	-0.371055	-0.181157	0.275543
H62	H	-0.405272	-0.192611	0.499620
H63	H	-0.500114	-0.192754	0.404979
H64	H	-0.654564	-0.419160	0.654979
O65	O	-0.627769	-0.754919	0.628057
C66	C	-0.749473	-0.747174	0.750189
C67	C	-0.679467	-0.706773	0.680018
H68	H	-0.791275	-0.708266	0.792233
H69	H	-0.801938	-0.781594	0.707906
H70	H	-0.706977	-0.781581	0.802428
H71	H	-0.721883	-0.672328	0.627764
H72	H	-0.627001	-0.672397	0.722364
H73	H	-0.431111	-0.419118	0.430852
H74	H	-0.647250	-0.285805	0.647631
