data_functionalizedCrystal
_audit_creation_method	'MofGen! by Chris Wilmer'
_symmetry_space_group_name_H-M	'P1'
_symmetry_Int_Tables_number	1
_symmetry_cell_setting	triclinic
loop_
_symmetry_equiv_pos_as_xyz
  x,y,z
_cell_length_a	12.594517
_cell_length_b	12.759400
_cell_length_c	12.759393
_cell_angle_alpha	90.030742
_cell_angle_beta	89.978324
_cell_angle_gamma	89.985516
loop_
_atom_site_label
_atom_site_type_symbol
_atom_site_fract_x
_atom_site_fract_y
_atom_site_fract_z
Zn1	Zn	1.627281	0.418218	-0.594080
Zn2	Zn	1.627175	0.593935	-0.418400
Zn3	Zn	1.449284	0.418270	-0.418408
Zn4	Zn	1.449271	0.593855	-0.594030
O5	O	1.538253	0.506070	-0.506229
O6	O	1.776212	0.441539	-0.570792
O7	O	1.603538	0.570687	-0.271380
O8	O	1.472945	0.271242	-0.441736
O9	O	1.776135	0.570637	-0.441721
O10	O	1.603719	0.271204	-0.570800
O11	O	1.472842	0.441627	-0.271386
O12	O	1.300336	0.441550	-0.441688
O13	O	1.472924	0.570502	-0.741058
O14	O	1.300327	0.570552	-0.570717
O15	O	1.603707	0.441462	-0.741094
O16	O	1.603526	0.740945	-0.441673
O17	O	1.472821	0.740887	-0.570708
C18	C	1.538189	0.779037	-0.506208
C19	C	1.538260	0.895814	-0.506233
C20	C	1.261712	0.506049	-0.506199
C21	C	1.143406	0.506065	-0.506210
C22	C	1.538325	0.505968	-0.780263
C23	C	1.538357	0.505924	-0.897040
C24	C	1.074127	0.435805	-0.436165
C25	C	1.003318	0.531640	-0.410323
C26	C	1.003416	0.410277	-0.532070
C27	C	1.074155	0.601950	-0.480318
C28	C	1.074259	0.480522	-0.602110
C29	C	1.003483	0.576424	-0.576304
C30	C	1.815873	0.506091	-0.506261
C31	C	1.934179	0.506101	-0.506275
C32	C	1.538345	0.232036	-0.506274
C33	C	1.538384	0.115260	-0.506294
C34	C	1.606393	0.950671	-0.439119
C35	C	1.606459	1.060395	-0.439151
C36	C	1.470248	1.060394	-0.573415
C37	C	1.470188	0.950672	-0.573387
C38	C	1.674465	0.895812	-0.371965
C39	C	1.742603	0.950670	-0.304844
C40	C	1.742668	1.060394	-0.304877
C41	C	1.674595	1.115260	-0.372030
C42	C	1.470313	0.573049	-1.061610
C43	C	1.470280	0.573087	-0.951885
C44	C	1.606463	0.438711	-0.951924
C45	C	1.606490	0.438668	-1.061646
C46	C	1.402239	0.640224	-1.116450
C47	C	1.334131	0.707436	-1.061573
C48	C	1.334098	0.707474	-0.951849
C49	C	1.402173	0.640300	-0.897001
C50	C	1.538241	0.506095	-0.233262
C51	C	1.538416	0.505843	-0.116486
H52	H	1.105146	0.376446	-0.376858
N53	N	0.964801	0.651042	-0.650663
N54	N	0.988913	0.642420	-0.745316
H55	H	0.961591	0.695120	-0.797830
H56	H	1.105444	0.458866	-0.683158
N57	N	0.964434	0.308634	-0.559465
N58	N	0.987074	0.231185	-0.503834
H59	H	0.959545	0.159397	-0.523172
N60	N	1.402286	0.640200	-1.228529
N61	N	1.424532	0.722138	-1.277485
H62	H	1.424570	0.722124	-1.356641
H63	H	1.105099	0.682996	-0.458382
H64	H	1.674416	0.806470	-0.371928
N65	N	1.264592	0.776030	-1.117609
N66	N	1.264627	0.775986	-1.215574
H67	H	1.215512	0.824431	-1.255150
N68	N	1.812136	0.894615	-0.236268
N69	N	1.812070	0.796650	-0.236246
H70	H	1.861180	0.757060	-0.187813
N71	N	1.676037	0.370006	-1.117712
N72	N	1.668996	0.273065	-1.105475
H73	H	1.718109	0.224565	-1.145074
N74	N	1.675986	0.370090	-0.895902
N75	N	1.638542	0.303163	-0.834681
H76	H	1.687645	0.254698	-0.795116
N77	N	1.400570	0.894633	-0.641922
N78	N	1.332732	0.833493	-0.604874
H79	H	1.283562	0.793915	-0.653279
H80	H	0.972159	0.553267	-0.329250
H81	H	1.798157	1.105056	-0.250231
H82	H	1.674662	1.204605	-0.372059
H83	H	1.414825	1.105075	-0.628087
N84	N	1.264513	0.776120	-0.895809
N85	N	1.203738	0.836084	-0.944790
H86	H	1.154592	0.884570	-0.905215
N87	N	1.402146	0.640313	-0.784920
N88	N	1.379918	0.558370	-0.735964
H89	H	1.379902	0.558380	-0.656807
