data_functionalizedCrystal
_audit_creation_method	'MofGen! by Chris Wilmer'
_symmetry_space_group_name_H-M	'P1'
_symmetry_Int_Tables_number	1
_symmetry_cell_setting	triclinic
loop_
_symmetry_equiv_pos_as_xyz
  x,y,z
_cell_length_a	13.635800
_cell_length_b	21.969182
_cell_length_c	19.551595
_cell_angle_alpha	76.442714
_cell_angle_beta	78.339497
_cell_angle_gamma	60.644101
loop_
_atom_site_label
_atom_site_type_symbol
_atom_site_fract_x
_atom_site_fract_y
_atom_site_fract_z
V1	V	2.051312	-0.218267	0.097421
O2	O	2.106419	-0.213694	-0.003928
O3	O	1.967111	-0.217177	0.192444
O4	O	2.070891	-0.313278	0.096253
O5	O	2.001921	-0.116928	0.092929
V6	V	2.295227	-0.206097	0.085259
O7	O	2.177215	-0.244963	0.124098
O8	O	2.394423	-0.179402	0.058582
O9	O	2.267825	-0.207188	-0.009765
O10	O	2.298818	-0.210671	0.186608
O11	O	2.403316	-0.307437	0.089750
O12	O	2.164045	-0.111087	0.086427
V13	V	2.551312	-0.218267	0.097421
O14	O	2.606419	-0.213694	-0.003928
O15	O	2.467111	-0.217177	0.192444
O16	O	2.570891	-0.313278	0.096253
O17	O	2.501921	-0.116928	0.092929
V18	V	2.795227	-0.206097	0.085259
O19	O	2.677215	-0.244963	0.124098
O20	O	2.894423	-0.179402	0.058582
O21	O	2.767825	-0.207188	-0.009765
O22	O	2.798818	-0.210671	0.186608
O23	O	2.903316	-0.307437	0.089750
O24	O	2.664045	-0.111087	0.086427
C25	C	1.873599	-0.213838	0.215599
C26	C	1.845690	-0.213579	0.293284
C27	C	2.005979	-0.336423	0.092896
C28	C	2.062232	-0.414097	0.092569
C29	C	1.923002	-0.216964	0.333341
C30	C	1.896799	-0.216733	0.406337
C31	C	1.793282	-0.213111	0.439274
C32	C	1.715967	-0.209728	0.399212
C33	C	1.742173	-0.209965	0.326218
C34	C	2.073321	-0.460827	0.156448
C35	C	2.126184	-0.533812	0.156148
C36	C	2.167938	-0.560062	0.091967
C37	C	2.156851	-0.513321	0.028080
C38	C	2.103998	-0.440339	0.028382
C39	C	2.205261	-0.665543	0.040185
C40	C	2.258106	-0.738524	0.039886
C41	C	2.330960	-0.785164	0.091035
C42	C	2.350945	-0.758814	0.142494
C43	C	2.298092	-0.685832	0.142795
C44	C	2.225251	-0.639198	0.091633
C45	C	2.399369	-0.911033	0.154593
C46	C	2.452240	-0.984019	0.154291
C47	C	2.482897	-0.963526	0.026221
C48	C	2.430036	-0.890543	0.026525
C49	C	2.388270	-0.864301	0.090713
C50	C	2.193005	-0.210525	-0.032915
C51	C	2.210534	-0.210788	-0.110600
C52	C	2.560624	-0.087939	0.089786
C53	C	2.493992	-0.010264	0.090109
C54	C	2.305755	-0.207463	-0.150654
C55	C	2.322300	-0.207800	-0.223633
C56	C	2.243629	-0.211476	-0.256552
C57	C	2.148391	-0.214797	-0.216489
C58	C	2.131844	-0.214453	-0.143513
C59	C	2.236952	-0.255856	-0.362824
C60	C	2.253506	-0.256204	-0.435798
C61	C	2.294661	-0.212533	-0.481635
C62	C	2.319283	-0.168523	-0.454487
C63	C	2.302735	-0.168179	-0.381511
C64	C	2.261562	-0.211848	-0.335682
C65	C	2.407826	-0.209572	-0.600821
C66	C	2.424364	-0.209905	-0.673801
C67	C	2.250458	-0.216909	-0.666655
C68	C	2.233918	-0.216570	-0.593678
C69	C	2.312608	-0.212904	-0.560764
C70	C	2.373599	-0.213838	0.215599
C71	C	2.345690	-0.213579	0.293284
C72	C	2.060624	-0.087939	0.089786
C73	C	1.993992	-0.010264	0.090109
C74	C	2.505979	-0.336423	0.092896
C75	C	2.562232	-0.414097	0.092569
C76	C	2.693005	-0.210525	-0.032915
C77	C	2.710534	-0.210788	-0.110600
C78	C	1.875820	0.022647	0.093755
C79	C	1.813199	0.095631	0.094050
C80	C	1.868753	0.135703	0.090704
C81	C	1.986937	0.102788	0.087056
C82	C	2.049556	0.029806	0.086756
C83	C	2.679146	-0.454149	0.095912
C84	C	2.732018	-0.527131	0.095597
C85	C	2.667973	-0.560060	0.091943
C86	C	2.551050	-0.520002	0.088598
C87	C	2.498181	-0.447020	0.088908
C88	C	2.805717	-0.207405	-0.150656
C89	C	2.822192	-0.207640	-0.223652
C90	C	2.743487	-0.211264	-0.256588
C91	C	2.648295	-0.214645	-0.216527
C92	C	2.631817	-0.214404	-0.143534
H93	H	2.007293	-0.219909	0.306533
H94	H	1.679208	-0.207204	0.293608
H95	H	2.369831	-0.204476	-0.123861
H96	H	2.186401	-0.219900	-0.693458
H97	H	1.716970	0.122420	0.097020
H98	H	1.771957	-0.212918	0.498710
H99	H	1.959765	-0.219486	0.438945
H100	H	1.817751	0.195128	0.090957
H101	H	2.516899	-0.984898	-0.026037
H102	H	2.233462	-0.292043	-0.457895
H103	H	2.410262	-0.796788	0.184146
H104	H	1.631682	-0.206779	0.426040
H105	H	2.190853	-0.534698	-0.024177
H106	H	2.135211	-0.571867	0.208167
H107	H	2.032157	0.135426	0.084330
H108	H	2.145780	0.003015	0.083791
H109	H	2.731311	-0.427349	0.098890
H110	H	2.145938	-0.627573	-0.001469
H111	H	2.461272	-1.022068	0.206311
H112	H	2.827222	-0.559738	0.098324
H113	H	2.365363	-0.889666	0.206858
H114	H	2.711036	-0.619487	0.091691
H115	H	2.498915	-0.546823	0.085623
H116	H	2.094972	-0.402289	-0.023637
H117	H	2.501903	-0.207193	-0.706413
H118	H	2.399839	-0.205088	-0.256252
H119	H	2.584218	-0.217594	-0.243355
H120	H	2.756918	-0.211458	-0.316025
H121	H	2.039322	-0.439466	0.208714
H122	H	2.869815	-0.204455	-0.123849
H123	H	2.899709	-0.204888	-0.256260
H124	H	2.314371	-0.664382	0.184694
H125	H	2.322781	-0.132343	-0.359412
H126	H	2.352793	-0.132962	-0.491807
H127	H	2.421003	-0.852493	-0.025492
H128	H	2.203426	-0.291414	-0.325509
H129	H	2.241823	-0.759972	-0.002014
H130	H	2.471897	-0.206584	-0.574022
H131	H	2.156380	-0.219278	-0.561065
H132	H	2.084337	-0.217789	-0.243297
H133	H	2.054306	-0.217166	-0.110901
H134	H	2.402980	-0.414414	0.086187
H135	H	1.830566	-0.009970	0.096479
H136	H	2.554312	-0.217165	-0.110924
