data_functionalizedCrystal
_audit_creation_method	'MofGen! by Chris Wilmer'
_symmetry_space_group_name_H-M	'P1'
_symmetry_Int_Tables_number	1
_symmetry_cell_setting	triclinic
loop_
_symmetry_equiv_pos_as_xyz
  x,y,z
_cell_length_a	27.732048
_cell_length_b	27.732064
_cell_length_c	9.482900
_cell_angle_alpha	99.261060
_cell_angle_beta	80.794297
_cell_angle_gamma	82.646039
loop_
_atom_site_label
_atom_site_type_symbol
_atom_site_fract_x
_atom_site_fract_y
_atom_site_fract_z
O1	O	0.648508	0.049904	-0.120695
O2	O	0.507718	0.058647	-0.120737
O3	O	0.582482	-0.016121	-0.120721
O4	O	0.573744	0.124672	-0.120712
O5	O	0.567295	-0.000873	0.121068
O6	O	0.492531	0.073894	0.121052
O7	O	0.633321	0.065152	0.121094
Cu8	Cu	0.561540	0.070915	0.143150
Cu9	Cu	0.579500	0.052883	-0.142794
O10	O	0.558558	0.139920	0.121077
C11	C	0.482118	0.066087	0.000152
C12	C	0.428464	0.065533	0.000135
C13	C	0.574704	-0.026504	0.000169
C14	C	0.574149	-0.080159	0.000156
C15	C	0.526183	-0.457233	0.000136
C16	C	0.528229	-0.255573	0.000134
O17	O	0.491013	-0.224325	0.000065
N18	N	0.572563	-0.236445	0.000147
C19	C	0.616389	-0.267736	0.000151
O20	O	0.654145	-0.246840	0.000147
C21	C	0.614342	-0.469396	0.000142
C22	C	0.570005	-0.488520	0.000144
C23	C	0.481850	-0.476358	0.000136
C24	C	0.481338	-0.526770	0.000144
C25	C	0.525160	-0.558057	0.000152
C26	C	0.569494	-0.538932	0.000152
C27	C	0.658168	-0.500686	0.000136
C28	C	0.657653	-0.551104	0.000130
C29	C	0.613316	-0.570228	0.000131
C30	C	0.612804	-0.620630	0.000168
N31	N	0.568470	-0.639758	0.000155
C32	C	0.524648	-0.608472	0.000147
C33	C	0.617459	-0.161861	0.000159
C34	C	0.617971	-0.111446	0.000164
C35	C	0.529812	-0.099287	0.000144
C36	C	0.529300	-0.149702	0.000150
C37	C	0.573126	-0.180989	0.000146
C38	C	0.523577	-0.714340	0.000166
C39	C	0.523069	-0.764756	0.000180
C40	C	0.611228	-0.776911	0.000192
C41	C	0.611736	-0.726499	0.000185
C42	C	0.567907	-0.695214	0.000167
O43	O	0.650002	-0.651907	0.000221
O44	O	0.486900	-0.629379	0.000119
C45	C	0.526695	-0.406822	0.000127
C46	C	0.571028	-0.387697	0.000127
C47	C	0.614850	-0.418983	0.000135
C48	C	0.571540	-0.337282	0.000132
C49	C	0.527718	-0.305995	0.000124
C50	C	0.483384	-0.325124	0.000111
C51	C	0.482873	-0.375535	0.000119
C52	C	0.659184	-0.399855	0.000149
C53	C	0.659692	-0.349443	0.000142
C54	C	0.615870	-0.318156	0.000134
C55	C	0.089647	0.106241	0.000200
C56	C	-0.112013	0.104190	0.000213
O57	O	-0.143271	0.141415	0.000279
N58	N	-0.131139	0.059855	0.000208
C59	C	-0.099847	0.016030	0.000209
O60	O	-0.120743	-0.021726	0.000220
C61	C	0.101812	0.018081	0.000207
C62	C	0.120936	0.062418	0.000197
C63	C	0.108772	0.150574	0.000193
C64	C	0.159184	0.151086	0.000182
C65	C	0.190473	0.107264	0.000178
C66	C	0.171348	0.062930	0.000186
C67	C	0.133102	-0.025743	0.000218
C68	C	0.183519	-0.025226	0.000221
C69	C	0.202643	0.019111	0.000212
C70	C	0.253049	0.019620	0.000171
N71	N	0.272175	0.063955	0.000177
C72	C	0.240887	0.107777	0.000180
C73	C	-0.205721	0.014956	0.000207
C74	C	-0.256136	0.014443	0.000205
C75	C	-0.268298	0.102604	0.000212
C76	C	-0.217882	0.103116	0.000204
C77	C	-0.186595	0.059291	0.000213
C78	C	0.346758	0.108848	0.000156
C79	C	0.397176	0.109355	0.000138
C80	C	0.409334	0.021195	0.000139
C81	C	0.358920	0.020687	0.000148
C82	C	0.327633	0.064518	0.000162
O83	O	0.284334	-0.017584	0.000123
O84	O	0.261790	0.145529	0.000202
C85	C	0.039235	0.105729	0.000212
C86	C	0.020110	0.061395	0.000219
C87	C	0.051399	0.017573	0.000216
C88	C	-0.030304	0.060882	0.000217
C89	C	-0.061592	0.104704	0.000221
C90	C	-0.042466	0.149039	0.000226
C91	C	0.007946	0.149551	0.000215
C92	C	0.032272	-0.026762	0.000211
C93	C	-0.018141	-0.027270	0.000220
C94	C	-0.049429	0.016552	0.000224
C95	C	0.658922	0.057712	0.000202
C96	C	0.712576	0.058265	0.000209
C97	C	0.566335	0.150303	0.000184
C98	C	0.566891	0.203957	0.000188
N99	N	0.548911	0.083598	0.344267
N100	N	0.592132	0.040197	-0.343911
C101	C	0.575771	0.056622	0.416473
C102	C	0.565268	0.067177	0.583888
H103	H	0.486963	-0.780324	0.000188
C104	C	0.666741	-0.090414	0.000176
H105	H	0.692765	-0.116272	0.000166
H106	H	0.663482	-0.065682	0.084492
H107	H	0.674069	-0.076320	-0.084153
H108	H	-0.202316	0.139219	0.000205
C109	C	-0.277167	-0.034328	0.000190
H110	H	-0.311673	-0.028363	0.000176
H111	H	-0.271698	-0.047039	0.084503
H112	H	-0.261110	-0.057670	-0.084142
H113	H	0.117540	-0.061847	0.000227
H114	H	0.622905	0.009283	0.593971
C115	C	0.507332	0.125349	0.428172
H116	H	0.491838	0.140900	0.361161
H117	H	0.520918	0.149023	0.487561
H118	H	0.483581	0.111874	0.487538
H119	H	-0.033705	-0.063378	0.000216
C120	C	0.434103	-0.396567	0.000104
H121	H	0.408082	-0.370709	0.000085
H122	H	0.426770	-0.410663	0.084418
H123	H	0.437365	-0.421297	-0.084227
H124	H	0.083301	0.186262	0.000201
C125	C	0.523695	0.108937	0.667793
H126	H	0.522091	0.110556	0.769307
H127	H	0.493001	0.102444	0.642929
H128	H	0.530353	0.139578	0.642922
C129	C	0.475366	-0.679933	0.000157
H130	H	0.448892	-0.698549	0.000172
H131	H	0.479021	-0.665331	-0.084159
H132	H	0.468437	-0.654696	0.084486
C133	C	0.432568	-0.547802	0.000125
H134	H	0.406547	-0.521944	0.000104
H135	H	0.425235	-0.561899	0.084437
H136	H	0.435832	-0.572532	-0.084208
C137	C	0.418212	0.158126	0.000128
H138	H	0.452719	0.152157	0.000106
H139	H	0.402159	0.181472	0.084445
H140	H	0.412741	0.170833	-0.084200
C141	C	0.665670	-0.196270	0.000174
H142	H	0.692142	-0.177651	0.000199
H143	H	0.672605	-0.221508	-0.084140
H144	H	0.662007	-0.210869	0.084505
H145	H	0.446163	-0.450890	0.000124
H146	H	0.321289	0.144539	0.000171
C147	C	0.480531	-0.170736	0.000130
H148	H	0.454509	-0.144879	0.000116
H149	H	0.473200	-0.184836	0.084439
H150	H	0.483795	-0.195465	-0.084206
C151	C	0.028975	0.198323	0.000219
H152	H	0.003115	0.224346	0.000236
H153	H	0.053682	0.195044	-0.084096
H154	H	0.043094	0.205675	0.084549
H155	H	0.606542	0.025710	0.354351
C156	C	0.481610	-0.064867	0.000115
H157	H	0.488270	-0.032105	0.000103
H158	H	0.458113	-0.065308	0.084416
H159	H	0.468718	-0.075950	-0.084229
H160	H	0.174750	0.187189	0.000173
H161	H	0.694272	-0.485125	0.000133
H162	H	0.693343	-0.576577	0.000119
C163	C	0.660505	-0.705460	0.000201
H164	H	0.686530	-0.731315	0.000204
H165	H	0.657243	-0.680725	0.084510
H166	H	0.667833	-0.691369	-0.084135
C167	C	-0.302720	0.150808	0.000223
H168	H	-0.284113	0.177290	0.000221
H169	H	-0.327932	0.157752	0.084541
H170	H	-0.317345	0.147123	-0.084104
C171	C	0.659429	-0.811333	0.000193
H172	H	0.652772	-0.844096	0.000181
H173	H	0.672335	-0.800256	0.084506
H174	H	0.682917	-0.810889	-0.084139
C175	C	-0.171310	-0.033255	0.000201
H176	H	-0.189925	-0.059730	0.000182
H177	H	-0.156682	-0.029577	0.084515
H178	H	-0.146098	-0.040206	-0.084130
C179	C	0.435182	-0.290703	0.000092
H180	H	0.441843	-0.257941	0.000075
H181	H	0.411687	-0.291143	0.084400
H182	H	0.422286	-0.301785	-0.084245
H183	H	0.695798	-0.333877	0.000152
H184	H	0.694870	-0.425325	0.000154
H185	H	0.208991	-0.060914	0.000229
C186	C	0.337884	-0.028083	0.000143
H187	H	0.363740	-0.054108	0.000143
H188	H	0.323758	-0.035433	-0.084164
H189	H	0.313181	-0.024797	0.084481
C190	C	0.443755	-0.027007	0.000128
H191	H	0.425149	-0.053488	0.000120
H192	H	0.458384	-0.023320	0.084440
H193	H	0.468966	-0.033955	-0.084205
H194	H	-0.067950	0.184721	0.000223
C195	C	0.066684	-0.074970	0.000195
H196	H	0.048069	-0.101445	0.000182
H197	H	0.081316	-0.071292	0.084503
H198	H	0.091893	-0.081920	-0.084142
