data_functionalizedCrystal
_audit_creation_method	'MofGen! by Chris Wilmer'
_symmetry_space_group_name_H-M	'P1'
_symmetry_Int_Tables_number	1
_symmetry_cell_setting	triclinic
loop_
_symmetry_equiv_pos_as_xyz
  x,y,z
_cell_length_a	17.077404
_cell_length_b	19.121063
_cell_length_c	17.077396
_cell_angle_alpha	92.407870
_cell_angle_beta	89.982756
_cell_angle_gamma	92.469213
loop_
_atom_site_label
_atom_site_type_symbol
_atom_site_fract_x
_atom_site_fract_y
_atom_site_fract_z
Zn1	Zn	1.186680	-0.279604	-0.457151
Zn2	Zn	1.180980	-0.397062	-0.331476
Zn3	Zn	1.055415	-0.279630	-0.325901
Zn4	Zn	1.049770	-0.397019	-0.462698
O5	O	1.118211	-0.338329	-0.394306
O6	O	1.295770	-0.295192	-0.440492
O7	O	1.164301	-0.381514	-0.220891
O8	O	1.077575	-0.181342	-0.338657
O9	O	1.291583	-0.381488	-0.348159
O10	O	1.174015	-0.181323	-0.435086
O11	O	1.072049	-0.295237	-0.216795
O12	O	0.944820	-0.295195	-0.344035
O13	O	1.067954	-0.381414	-0.571807
O14	O	0.940672	-0.381440	-0.444539
O15	O	1.168541	-0.295150	-0.567733
O16	O	1.158828	-0.495341	-0.353537
O17	O	1.062428	-0.495309	-0.449945
C18	C	0.914264	-0.338316	-0.394284
C19	C	0.827014	-0.338328	-0.394294
C20	C	0.783881	-0.383303	-0.446549
C21	C	0.701901	-0.383305	-0.446562
C22	C	0.663054	-0.338334	-0.394315
C23	C	0.706193	-0.293353	-0.342057
C24	C	0.788172	-0.293349	-0.342049
C25	C	0.535322	-0.293367	-0.342077
C26	C	0.453337	-0.293372	-0.342084
C27	C	0.449051	-0.383323	-0.446590
C28	C	0.531030	-0.383319	-0.446581
C29	C	0.574163	-0.338339	-0.394323
C30	C	1.109418	-0.520809	-0.402965
C31	C	1.105728	-0.598875	-0.406696
C32	C	1.154223	-0.635544	-0.358296
C33	C	1.150758	-0.708895	-0.361809
C34	C	1.098792	-0.745576	-0.413719
C35	C	1.050294	-0.708902	-0.462125
C36	C	1.053764	-0.635553	-0.458615
C37	C	1.085804	-0.967046	-0.426829
C38	C	1.082336	-1.040401	-0.430334
C39	C	1.182801	-1.040389	-0.330019
C40	C	1.186263	-0.967038	-0.326510
C41	C	1.137769	-0.930370	-0.374919
C42	C	1.095246	-0.820553	-0.417310
C43	C	1.141319	-0.855395	-0.371332
C44	C	1.322955	-0.338342	-0.394329
C45	C	1.410205	-0.338348	-0.394339
C46	C	1.118253	-0.338274	-0.599048
C47	C	1.118271	-0.338251	-0.686297
C48	C	1.127061	-0.155136	-0.385631
C49	C	1.130832	-0.077070	-0.381934
C50	C	1.070251	-0.293321	-0.725153
C51	C	1.070265	-0.293305	-0.807133
C52	C	1.118303	-0.338216	-0.850255
C53	C	1.166325	-0.383151	-0.811393
C54	C	1.166307	-0.383170	-0.729415
C55	C	1.166361	-0.383107	-0.982261
C56	C	1.166381	-0.383087	-1.064245
C57	C	1.070319	-0.293243	-1.059979
C58	C	1.070301	-0.293262	-0.978001
C59	C	1.118324	-0.338196	-0.939145
C60	C	1.118217	-0.338332	-0.190359
C61	C	1.118361	-0.338158	-0.103101
H62	H	0.562657	-0.419942	-0.489121
H63	H	1.040028	-1.070265	-0.472619
N64	N	0.997199	-0.746358	-0.515147
N65	N	0.953901	-0.713607	-0.558354
H66	H	0.916398	-0.740058	-0.595801
H67	H	0.413928	-0.419945	-0.489143
N68	N	1.207304	-0.598089	-0.305259
N69	N	1.250599	-0.630842	-0.262049
H70	H	1.288090	-0.604392	-0.224591
N71	N	1.036281	-0.929592	-0.476282
N72	N	1.065815	-0.888618	-0.524373
H73	H	1.030840	-0.862165	-0.559305
H74	H	0.421711	-0.256744	-0.299549
H75	H	1.190247	-0.738748	-0.322396
H76	H	1.205498	-0.419658	-1.099352
H77	H	1.014275	-0.605697	-0.498028
H78	H	1.205416	-0.419751	-0.697779
N79	N	1.239347	-0.929582	-0.273478
N80	N	1.282643	-0.962331	-0.230266
H81	H	1.320133	-0.935879	-0.192808
N82	N	1.194387	-0.817919	-0.318305
N83	N	1.168721	-0.777041	-0.266311
H84	H	1.206198	-0.750567	-0.228857
N85	N	0.579371	-0.247409	-0.288700
N86	N	0.544679	-0.207257	-0.242056
H87	H	0.575788	-0.174800	-0.204358
H88	H	1.031159	-0.256722	-0.838766
N89	N	1.021185	-0.247432	-0.681121
N90	N	0.978316	-0.207318	-0.715828
H91	H	0.943661	-0.174906	-0.684732
H92	H	1.222284	-1.070251	-0.290609
N93	N	1.021277	-0.247340	-1.099677
N94	N	1.021300	-0.247325	-1.172871
H95	H	0.986670	-0.214903	-1.200912
H96	H	1.052934	-0.850427	-0.459573
N97	N	1.021232	-0.247378	-0.933963
N98	N	0.978358	-0.207264	-0.968663
H99	H	0.943700	-0.174859	-0.937562
N100	N	0.657855	-0.429247	-0.499949
N101	N	0.692548	-0.469397	-0.546593
H102	H	0.661441	-0.501845	-0.584302
N103	N	1.215415	-0.429014	-0.942582
N104	N	1.258305	-0.469109	-0.981090
H105	H	1.292951	-0.501529	-0.953067
H106	H	1.205435	-0.419722	-0.846509
H107	H	0.815504	-0.419926	-0.489093
N108	N	0.666514	-0.247405	-0.288699
N109	N	0.622934	-0.202684	-0.314284
H110	H	0.594912	-0.170232	-0.276598
H111	H	0.823290	-0.256721	-0.299501
