data_functionalizedCrystal
_audit_creation_method	'MofGen! by Chris Wilmer'
_symmetry_space_group_name_H-M	'P1'
_symmetry_Int_Tables_number	1
_symmetry_cell_setting	triclinic
loop_
_symmetry_equiv_pos_as_xyz
  x,y,z
_cell_length_a	12.827892
_cell_length_b	12.827893
_cell_length_c	12.827885
_cell_angle_alpha	90.021379
_cell_angle_beta	89.970214
_cell_angle_gamma	89.986589
loop_
_atom_site_label
_atom_site_type_symbol
_atom_site_fract_x
_atom_site_fract_y
_atom_site_fract_z
Zn1	Zn	-0.416038	-1.597672	-0.590902
Zn2	Zn	-0.082704	-1.264338	-0.257569
Zn3	Zn	0.250629	-0.931005	0.075765
Zn4	Zn	-0.590815	-1.597565	-0.416162
Zn5	Zn	-0.257482	-1.264232	-0.082829
Zn6	Zn	0.075852	-0.930898	0.250504
Zn7	Zn	-0.416083	-1.422912	-0.416170
Zn8	Zn	-0.082749	-1.089579	-0.082837
Zn9	Zn	0.250584	-0.756246	0.250497
Zn10	Zn	-0.590731	-1.422898	-0.590857
Zn11	Zn	-0.257398	-1.089565	-0.257523
Zn12	Zn	0.075935	-0.756232	0.075810
O13	O	-0.503417	-1.510262	-0.503523
O14	O	-0.170083	-1.176928	-0.170189
O15	O	0.163250	-0.843595	0.163144
O16	O	-0.439238	-1.743893	-0.567738
O17	O	-0.105905	-1.410560	-0.234405
O18	O	0.227428	-1.077227	0.098928
O19	O	-0.567690	-1.574358	-0.269927
O20	O	-0.234357	-1.241025	0.063406
O21	O	0.098976	-0.907692	0.396739
O22	O	-0.269841	-1.446145	-0.439371
O23	O	0.063493	-1.112812	-0.106037
O24	O	0.396826	-0.779478	0.227296
O25	O	-0.567647	-1.743815	-0.439358
O26	O	-0.234313	-1.410482	-0.106025
O27	O	0.099020	-1.077149	0.227309
O28	O	-0.269808	-1.574540	-0.567746
O29	O	0.063526	-1.241207	-0.234412
O30	O	0.396859	-0.907873	0.098921
O31	O	-0.439315	-1.446042	-0.269933
O32	O	-0.105982	-1.112708	0.063401
O33	O	0.227352	-0.779375	0.396734
O34	O	-0.439234	-1.276674	-0.439327
O35	O	-0.105901	-0.943341	-0.105993
O36	O	0.227433	-0.610008	0.227340
O37	O	-0.567504	-1.446121	-0.737099
O38	O	-0.234171	-1.112788	-0.403765
O39	O	0.099163	-0.779454	-0.070432
O40	O	-0.567548	-1.276664	-0.567668
O41	O	-0.234214	-0.943331	-0.234335
O42	O	0.099119	-0.609997	0.098999
O43	O	-0.439157	-1.574526	-0.737132
O44	O	-0.105824	-1.241193	-0.403799
O45	O	0.227509	-0.907859	-0.070466
O46	O	-0.737040	-1.574345	-0.439314
O47	O	-0.403707	-1.241011	-0.105980
O48	O	-0.070373	-0.907678	0.227353
O49	O	-0.736978	-1.446018	-0.567661
O50	O	-0.403645	-1.112684	-0.234327
O51	O	-0.070312	-0.779351	0.099006
C52	C	-0.503387	-1.238752	-0.503494
C53	C	-0.170054	-0.905419	-0.170160
C54	C	0.163279	-0.572085	0.163173
C55	C	-0.503400	-1.122599	-0.503506
C56	C	-0.170066	-0.789265	-0.170173
C57	C	0.163267	-0.455932	0.163161
C58	C	-0.774927	-1.510196	-0.503504
C59	C	-0.441593	-1.176863	-0.170171
C60	C	-0.108260	-0.843530	0.163162
C61	C	-0.891080	-1.510264	-0.503531
C62	C	-0.557746	-1.176931	-0.170198
C63	C	-0.224413	-0.843597	0.163135
C64	C	-0.566991	-1.070837	-0.566914
C65	C	-0.233658	-0.737503	-0.233581
C66	C	0.099676	-0.404170	0.099753
C67	C	-0.567005	-0.950786	-0.566928
C68	C	-0.233672	-0.617453	-0.233595
C69	C	0.099661	-0.284120	0.099738
C70	C	-0.942860	-1.573840	-0.440092
C71	C	-0.609527	-1.240506	-0.106758
C72	C	-0.276194	-0.907173	0.226575
C73	C	-1.062910	-1.573911	-0.440118
C74	C	-0.729577	-1.240578	-0.106785
C75	C	-0.396244	-0.907244	0.226548
C76	C	-0.230846	-1.510356	-0.503564
C77	C	0.102487	-1.177023	-0.170231
C78	C	0.435820	-0.843689	0.163103
C79	C	-0.114693	-1.510396	-0.503582
C80	C	0.218640	-1.177063	-0.170248
C81	C	0.551973	-0.843729	0.163085
C82	C	-0.503316	-1.510334	-0.776093
C83	C	-0.169983	-1.177001	-0.442760
C84	C	0.163350	-0.843667	-0.109426
C85	C	-0.503274	-1.510365	-0.892246
C86	C	-0.169940	-1.177031	-0.558913
C87	C	0.163393	-0.843698	-0.225580
C88	C	-0.503438	-0.782832	-0.503544
C89	C	-0.170105	-0.449499	-0.170211
C90	C	0.163228	-0.116165	0.163123
C91	C	-0.503426	-0.898985	-0.503532
C92	C	-0.170092	-0.565652	-0.170198
C93	C	0.163241	-0.232318	0.163135
C94	C	-0.439737	-1.446890	-0.944034
C95	C	-0.106404	-1.113556	-0.610700
C96	C	0.226930	-0.780223	-0.277367
C97	C	-0.439691	-1.446920	-1.064084
C98	C	-0.106358	-1.113587	-0.730751
C99	C	0.226975	-0.780253	-0.397418
C100	C	-0.503441	-1.510250	-0.232013
C101	C	-0.170108	-1.176917	0.101321
C102	C	0.163225	-0.843584	0.434654
C103	C	-0.503190	-1.510422	-0.115860
C104	C	-0.169856	-1.177089	0.217473
C105	C	0.163477	-0.843755	0.550806
H106	H	-0.621419	-1.115398	-0.621193
H107	H	-0.288086	-0.782064	-0.287859
H108	H	0.045248	-0.448731	0.045474
H109	H	-0.557584	-1.564772	-1.071331
H110	H	-0.224251	-1.231439	-0.737998
H111	H	0.109082	-0.898105	-0.404664
H112	H	-1.107441	-1.628338	-0.385802
H113	H	-0.774107	-1.295004	-0.052469
H114	H	-0.440774	-0.961671	0.280864
H115	H	-0.621451	-0.906272	-0.621211
H116	H	-0.288118	-0.572938	-0.287878
H117	H	0.045216	-0.239605	0.045456
H118	H	-0.448984	-0.943493	-0.449239
H119	H	-0.115651	-0.610159	-0.115906
H120	H	0.217683	-0.276826	0.217427
H121	H	-0.385379	-1.392520	-0.899494
H122	H	-0.052046	-1.059187	-0.566161
H123	H	0.281288	-0.725853	-0.232827
H124	H	-0.448964	-1.078038	-0.449235
H125	H	-0.115630	-0.744704	-0.115902
H126	H	0.217703	-0.411371	0.217431
H127	H	-1.070171	-1.455959	-0.557894
H128	H	-0.736838	-1.122626	-0.224561
H129	H	-0.403504	-0.789293	0.108773
H130	H	-0.935625	-1.455892	-0.557868
H131	H	-0.602292	-1.122558	-0.224535
H132	H	-0.268958	-0.789225	0.108799
H133	H	-0.898317	-1.628221	-0.385762
H134	H	-0.564984	-1.294888	-0.052429
H135	H	-0.231651	-0.961555	0.280905
H136	H	-0.385291	-1.392581	-1.108620
H137	H	-0.051958	-1.059248	-0.775287
H138	H	0.281376	-0.725915	-0.441953
H139	H	-0.557637	-1.564729	-0.936786
H140	H	-0.224303	-1.231396	-0.603453
H141	H	0.109030	-0.898062	-0.270119
