data_functionalizedCrystal
_audit_creation_method	'MofGen! by Chris Wilmer'
_symmetry_space_group_name_H-M	'P1'
_symmetry_Int_Tables_number	1
_symmetry_cell_setting	triclinic
loop_
_symmetry_equiv_pos_as_xyz
  x,y,z
_cell_length_a	6.817900
_cell_length_b	14.125369
_cell_length_c	14.125465
_cell_angle_alpha	96.221150
_cell_angle_beta	100.398878
_cell_angle_gamma	100.397648
loop_
_atom_site_label
_atom_site_type_symbol
_atom_site_fract_x
_atom_site_fract_y
_atom_site_fract_z
V1	V	-3.975802	-0.132288	-0.299601
O2	O	-3.980353	0.007207	-0.294287
O3	O	-3.912214	-0.263123	-0.297177
O4	O	-3.912227	-0.129880	-0.430437
O5	O	-3.980341	-0.126958	-0.160104
V6	V	-4.463364	-0.115647	-0.282961
O7	O	-4.228200	-0.168792	-0.336101
O8	O	-4.661164	-0.079143	-0.246461
O9	O	-4.303746	0.015188	-0.285384
O10	O	-4.576210	-0.255142	-0.288275
O11	O	-4.576223	-0.120977	-0.422458
O12	O	-4.303733	-0.118055	-0.152124
C13	C	-3.754011	-0.295029	-0.292354
C14	C	-3.783206	-0.401986	-0.291245
C15	C	-3.754026	-0.125063	-0.462340
C16	C	-3.783229	-0.123960	-0.569297
C17	C	-3.836757	-0.121937	-0.765126
C18	C	-4.021778	-0.125995	-0.817436
C19	C	-4.051564	-0.124870	-0.926402
C20	C	-3.806964	-0.123063	-0.656150
C21	C	-4.021785	-0.650121	-0.293315
C22	C	-3.836760	-0.597814	-0.289250
C23	C	-3.806963	-0.488845	-0.290360
C24	C	-4.051590	-0.759100	-0.292205
C25	C	-4.125291	0.047089	-0.290205
C26	C	-4.075333	0.154045	-0.291320
C27	C	-4.125276	-0.122874	-0.120217
C28	C	-4.075312	-0.123973	-0.013258
H29	H	-3.700736	-0.117619	-0.802176
C30	C	-3.631404	-0.692603	-0.199476
C31	C	-3.653108	-0.647826	-0.283413
H32	H	-3.518021	-0.723473	-0.195868
H33	H	-3.751395	-0.739741	-0.201893
H34	H	-3.610041	-0.644954	-0.143742
H35	H	-3.674486	-0.695475	-0.339148
H36	H	-3.533088	-0.600683	-0.281004
C37	C	-4.139928	-0.131856	-0.667598
C38	C	-4.205433	-0.131845	-0.767427
H39	H	-4.253308	-0.135478	-0.636725
H40	H	-4.043000	-0.073714	-0.640544
H41	H	-4.079081	-0.186395	-0.657822
H42	H	-4.266267	-0.077302	-0.777203
H43	H	-4.302397	-0.189994	-0.794489
C44	C	-4.139869	-0.500269	-0.299106
C45	C	-4.205407	-0.600101	-0.299125
H46	H	-4.253225	-0.469381	-0.302683
H47	H	-4.079075	-0.490479	-0.353647
H48	H	-4.042884	-0.473239	-0.240963
H49	H	-4.302383	-0.627132	-0.357271
H50	H	-4.266234	-0.609897	-0.244578
