data_functionalizedCrystal
_audit_creation_method	'MofGen! by Chris Wilmer'
_symmetry_space_group_name_H-M	'P1'
_symmetry_Int_Tables_number	1
_symmetry_cell_setting	triclinic
loop_
_symmetry_equiv_pos_as_xyz
  x,y,z
_cell_length_a	10.654550
_cell_length_b	15.944551
_cell_length_c	9.730223
_cell_angle_alpha	89.994648
_cell_angle_beta	89.999957
_cell_angle_gamma	83.991834
loop_
_atom_site_label
_atom_site_type_symbol
_atom_site_fract_x
_atom_site_fract_y
_atom_site_fract_z
O1	O	1.666313	0.117976	-0.114191
O2	O	1.300689	0.129216	-0.114216
O3	O	1.493485	0.001379	-0.114190
O4	O	1.473516	0.245813	-0.114216
O5	O	1.493473	0.001376	0.114390
O6	O	1.300676	0.129213	0.114364
O7	O	1.666300	0.117973	0.114389
Zn8	Zn	1.483486	0.123592	0.150669
Zn9	Zn	1.483503	0.123597	-0.150495
O10	O	1.473504	0.245810	0.114363
C11	C	1.253895	0.128389	0.000071
C12	C	1.114484	0.125920	0.000061
C13	C	1.034024	0.201189	0.000057
C14	C	0.903034	0.198863	0.000081
C15	C	0.932975	0.045995	0.000108
C16	C	1.063963	0.048321	0.000094
C17	C	1.492650	-0.029921	0.000100
C18	C	1.490165	-0.123182	0.000100
C19	C	1.364720	-0.338764	0.000073
C20	C	1.422966	-0.399446	0.112781
C21	C	1.485668	-0.293933	0.000090
C22	C	1.423007	-0.399426	-0.112581
C23	C	1.481317	-0.458871	0.000073
C24	C	1.543948	-0.353387	0.112890
C25	C	1.543972	-0.353360	-0.112573
C26	C	1.602306	-0.414024	0.000163
C27	C	1.488172	-0.198917	0.000100
C28	C	1.478822	-0.553887	0.000072
C29	C	1.713094	0.118800	0.000099
C30	C	1.852505	0.121269	0.000100
C31	C	1.474339	0.277110	0.000070
C32	C	1.476824	0.370371	0.000061
N33	N	1.483484	0.123589	0.356205
N34	N	1.483514	0.123594	-0.356032
C35	C	1.568883	0.067007	0.428142
C36	C	1.568896	0.067007	0.572025
C37	C	1.398106	0.180179	0.572021
C38	C	1.398089	0.180174	0.428140
H39	H	0.837528	0.260155	0.000081
H40	H	1.638434	0.020932	0.630593
C41	C	1.353889	-0.426961	-0.241308
C42	C	1.339878	-0.520966	-0.265541
C43	C	1.270752	-0.548496	-0.394261
C44	C	1.215637	-0.482022	-0.498748
C45	C	1.229646	-0.388011	-0.474518
C46	C	1.298772	-0.360480	-0.345798
H47	H	1.380679	-0.570180	-0.188190
H48	H	1.260382	-0.618090	-0.412196
H49	H	1.164466	-0.502401	-0.594034
H50	H	1.188845	-0.338797	-0.551868
H51	H	1.309143	-0.290887	-0.327862
C52	C	0.877395	-0.039360	0.000128
C53	C	0.791464	-0.061980	0.118831
C54	C	0.735887	-0.147336	0.118846
C55	C	0.766240	-0.210073	0.000158
C56	C	0.852175	-0.187455	-0.118553
C57	C	0.907752	-0.102098	-0.118568
H58	H	0.768991	-0.015537	0.206698
H59	H	0.672272	-0.164080	0.206724
H60	H	0.725098	-0.273259	0.000169
H61	H	0.874648	-0.233898	-0.206421
H62	H	0.971367	-0.085355	-0.206447
C63	C	1.152479	-0.034480	0.000096
C64	C	1.146830	-0.097857	0.118802
C65	C	1.235345	-0.180654	0.118810
C66	C	1.329508	-0.200074	0.000112
C67	C	1.335161	-0.136696	-0.118603
C68	C	1.246646	-0.053899	-0.118611
H69	H	1.077121	-0.083483	0.206677
H70	H	1.231160	-0.227571	0.206691
H71	H	1.395032	-0.261366	0.000118
H72	H	1.404869	-0.151070	-0.206479
H73	H	1.250831	-0.006982	-0.206493
H74	H	1.702787	-0.446601	0.000233
H75	H	1.328581	0.226250	0.630605
C76	C	1.612989	-0.325993	0.241764
C77	C	1.543351	-0.264528	0.345175
C78	C	1.612386	-0.237133	0.474048
C79	C	1.751058	-0.271201	0.499510
C80	C	1.820703	-0.332670	0.396095
C81	C	1.751668	-0.360065	0.267222
H82	H	1.440691	-0.239305	0.326330
H83	H	1.560829	-0.191630	0.550603
H84	H	1.802161	-0.250922	0.594909
H85	H	1.923363	-0.357893	0.414941
H86	H	1.803225	-0.405568	0.190668
C87	C	1.229102	-0.294545	0.000207
C88	C	1.139118	-0.309311	0.119600
C89	C	1.003505	-0.265091	0.119741
C90	C	0.957875	-0.206105	0.000490
C91	C	1.047860	-0.191336	-0.118912
C92	C	1.183473	-0.235556	-0.119054
H93	H	1.172895	-0.352979	0.207885
H94	H	0.936892	-0.276024	0.208131
H95	H	0.857485	-0.173370	0.000595
H96	H	1.014083	-0.147669	-0.207197
H97	H	1.250086	-0.224623	-0.207443
H98	H	1.371805	-0.419852	0.208059
C99	C	1.089598	0.286546	0.000034
C100	C	1.175515	0.309171	-0.118676
C101	C	1.231083	0.394531	-0.118695
C102	C	1.200734	0.457265	-0.000003
C103	C	1.114812	0.434641	0.118716
C104	C	1.059244	0.349281	0.118735
H105	H	1.197986	0.262730	-0.206547
H106	H	1.294688	0.411279	-0.206580
H107	H	1.241869	0.520454	-0.000017
H108	H	1.092342	0.481082	0.206587
H109	H	0.995639	0.332534	0.206620
H110	H	1.328541	0.226250	0.369565
H111	H	1.595089	-0.332933	-0.207856
H112	H	1.638416	0.020930	0.369576
