data_functionalizedCrystal
_audit_creation_method	'MofGen! by Chris Wilmer'
_symmetry_space_group_name_H-M	'P1'
_symmetry_Int_Tables_number	1
_symmetry_cell_setting	triclinic
loop_
_symmetry_equiv_pos_as_xyz
  x,y,z
_cell_length_a	16.992694
_cell_length_b	10.489741
_cell_length_c	16.053802
_cell_angle_alpha	92.592148
_cell_angle_beta	87.249047
_cell_angle_gamma	87.603699
loop_
_atom_site_label
_atom_site_type_symbol
_atom_site_fract_x
_atom_site_fract_y
_atom_site_fract_z
O1	O	1.045194	0.265584	-0.069324
O2	O	0.816893	0.262613	-0.069348
O3	O	0.936238	0.078953	-0.069330
O4	O	0.925849	0.449244	-0.069341
O5	O	0.929669	0.089018	0.069528
O6	O	0.810324	0.272678	0.069510
O7	O	1.038624	0.275649	0.069534
Zn8	Zn	0.923431	0.275761	0.091569
Zn9	Zn	0.932086	0.262501	-0.091383
O10	O	0.919279	0.459309	0.069516
C11	C	0.784374	0.263826	0.000078
C12	C	0.697266	0.252430	0.000068
C13	C	0.647647	0.362379	0.000066
C14	C	0.565799	0.351666	0.000078
C15	C	0.533573	0.231001	0.000086
C16	C	0.583199	0.121044	0.000091
C17	C	0.665044	0.131759	0.000085
C18	C	0.289723	0.186590	0.000110
C19	C	0.207871	0.175882	0.000113
C20	C	0.190477	0.406505	0.000101
C21	C	0.272325	0.417210	0.000090
C22	C	0.321944	0.307253	0.000100
N23	N	0.449912	0.220047	0.000096
N24	N	0.405603	0.318209	0.000096
C25	C	0.932169	0.036385	0.000098
C26	C	0.929821	-0.105448	0.000096
C27	C	0.853885	-0.180196	0.000082
C28	C	0.886518	-0.264235	0.068550
C29	C	0.893013	-0.274131	-0.068353
C30	C	0.962482	-0.187615	0.068621
C31	C	0.968969	-0.197507	-0.068344
C32	C	1.001656	-0.281513	0.000141
C33	C	1.071143	0.274436	0.000107
C34	C	1.158252	0.285831	0.000110
C35	C	0.923349	0.501876	0.000086
C36	C	0.925697	0.643710	0.000083
N37	N	0.917530	0.284811	0.216428
N38	N	0.937994	0.253441	-0.216242
C39	C	0.968330	0.206695	0.260130
C40	C	0.964209	0.213038	0.347536
C41	C	0.909292	0.297505	0.391239
C42	C	0.858486	0.375625	0.347531
C43	C	0.862603	0.369274	0.260127
C44	C	0.891306	0.325210	0.652646
C45	C	0.887193	0.331557	0.740056
C46	C	0.992917	0.168969	0.740055
C47	C	0.997032	0.162631	0.652649
C48	C	0.946224	0.240745	0.608949
N49	N	0.905080	0.303994	0.480582
N50	N	0.950432	0.234249	0.519607
H51	H	0.705444	0.042226	0.000087
O52	O	0.805029	0.457531	0.389946
C53	C	0.728260	0.427256	0.368587
H54	H	0.728437	0.323292	0.344569
H55	H	0.708001	0.491938	0.317850
C56	C	0.671310	0.574939	0.475738
C57	C	0.671527	0.447246	0.446245
H58	H	0.636313	0.587275	0.523639
H59	H	0.723031	0.595340	0.490126
H60	H	0.654430	0.628826	0.433449
H61	H	0.688417	0.393363	0.488529
H62	H	0.619808	0.426836	0.431866
O63	O	0.997637	-0.142582	0.137696
C64	C	1.075278	-0.195493	0.137873
H65	H	1.096595	-0.226684	0.071367
H66	H	1.076367	-0.281727	0.178616
C67	C	1.103638	-0.056359	0.254552
C68	C	1.129823	-0.094658	0.172867
H69	H	1.137284	0.005837	0.276141
H70	H	1.051330	-0.020714	0.254435
H71	H	1.104547	-0.128230	0.288494
H72	H	1.128904	-0.022791	0.138924
H73	H	1.182133	-0.130288	0.172979
O74	O	0.844996	-0.299424	0.137684
C75	C	0.880990	-0.253425	0.209760
H76	H	0.917579	-0.168388	0.193811
H77	H	0.920910	-0.332350	0.233670
C78	C	0.772019	-0.315876	0.297329
C79	C	0.816953	-0.211425	0.277741
H80	H	0.732519	-0.289974	0.339265
H81	H	0.747770	-0.346871	0.248771
H82	H	0.805294	-0.381638	0.317249
H83	H	0.783680	-0.145672	0.257812
H84	H	0.841195	-0.180418	0.326298
O85	O	0.813370	0.445216	0.217580
C86	C	0.858206	0.524623	0.167021
H87	H	0.919927	0.479159	0.153925
H88	H	0.862477	0.621943	0.200694
C89	C	0.742231	0.597151	0.100085
C90	C	0.818035	0.541306	0.083993
H91	H	0.717451	0.607448	0.048871
H92	H	0.712023	0.543657	0.134149
H93	H	0.745801	0.678245	0.128148
H94	H	0.814464	0.460207	0.055941
H95	H	0.848242	0.594787	0.049922
O96	O	0.303660	0.534393	-0.000085
C97	C	0.353875	0.542240	-0.072007
H98	H	0.336518	0.469894	-0.122246
H99	H	0.417481	0.520595	-0.055758
C100	C	0.367571	0.766634	-0.042952
C101	C	0.346248	0.677785	-0.104659
H102	H	0.362870	0.850245	-0.063092
H103	H	0.333743	0.761347	0.005505
H104	H	0.420574	0.748580	-0.029417
H105	H	0.293243	0.695830	-0.118185
H106	H	0.380068	0.683077	-0.153119
O107	O	0.517557	0.458440	0.000214
C108	C	0.466287	0.464354	0.072122
H109	H	0.493519	0.405807	0.122394
H110	H	0.407363	0.424067	0.055871
C111	C	0.419649	0.676229	0.042966
C112	C	0.453098	0.604330	0.104714
H113	H	0.411510	0.762573	0.063069
H114	H	0.454188	0.672244	-0.005481
H115	H	0.370549	0.642642	0.029429
H116	H	0.502201	0.637907	0.118242
H117	H	0.418567	0.608324	0.153165
H118	H	0.330113	0.097054	0.000118
H119	H	0.849937	0.388816	0.617072
H120	H	1.064144	-0.325497	0.000186
O121	O	0.833731	0.413460	0.782478
C122	C	0.756962	0.383173	0.761125
H123	H	0.757145	0.279212	0.737101
H124	H	0.736693	0.447859	0.710394
C125	C	0.700011	0.530832	0.868289
C126	C	0.700235	0.403142	0.838788
H127	H	0.665018	0.543155	0.916193
H128	H	0.751732	0.551241	0.882673
H129	H	0.683123	0.584722	0.826005
H130	H	0.717133	0.349256	0.881067
H131	H	0.648516	0.382725	0.824413
O132	O	0.176660	0.058586	0.000012
C133	C	0.205328	-0.014157	-0.071909
H134	H	0.263416	0.024657	-0.095887
H135	H	0.160437	-0.007846	-0.122269
C136	C	0.147471	-0.202246	-0.020605
C137	C	0.218819	-0.154581	-0.050051
H138	H	0.155789	-0.288868	-0.007123
H139	H	0.128154	-0.153238	0.027849
H140	H	0.110069	-0.196976	-0.062576
H141	H	0.256216	-0.159837	-0.008076
H142	H	0.238142	-0.203594	-0.098497
H143	H	1.003811	-0.167865	-0.126225
H144	H	1.034282	0.105370	0.775644
H145	H	0.863611	-0.312087	-0.126243
O146	O	0.551993	0.003752	-0.000013
C147	C	0.580663	-0.068979	-0.071938
H148	H	0.638747	-0.030151	-0.095916
H149	H	0.535770	-0.062673	-0.122296
C150	C	0.522824	-0.257086	-0.020639
C151	C	0.594167	-0.209403	-0.050085
H152	H	0.531150	-0.343708	-0.007161
H153	H	0.503505	-0.208085	0.027817
H154	H	0.485420	-0.251820	-0.062609
H155	H	0.631565	-0.214656	-0.008112
H156	H	0.613492	-0.258409	-0.098534
H157	H	1.005574	0.149429	0.383117
H158	H	1.041751	0.093852	0.617068
H159	H	0.150069	0.496026	0.000095
O160	O	0.678816	0.479695	0.000093
C161	C	0.617466	0.574438	0.000074
H162	H	0.560435	0.534899	0.026368
H163	H	0.609227	0.603924	-0.066544
C164	C	0.708667	0.740074	0.022228
C165	C	0.638622	0.691514	0.054530
H166	H	0.721717	0.812295	0.055815
H167	H	0.750000	0.676245	0.022238
H168	H	0.701792	0.764635	-0.033286
H169	H	0.645501	0.666939	0.110039
H170	H	0.597290	0.755342	0.054530
H171	H	1.013053	0.137919	0.224552
H172	H	0.791448	-0.135972	0.000144
