data_functionalizedCrystal
_audit_creation_method	'MofGen! by Chris Wilmer'
_symmetry_space_group_name_H-M	'P1'
_symmetry_Int_Tables_number	1
_symmetry_cell_setting	triclinic
loop_
_symmetry_equiv_pos_as_xyz
  x,y,z
_cell_length_a	14.044220
_cell_length_b	15.944545
_cell_length_c	12.503572
_cell_angle_alpha	93.521358
_cell_angle_beta	86.164750
_cell_angle_gamma	88.342525
loop_
_atom_site_label
_atom_site_type_symbol
_atom_site_fract_x
_atom_site_fract_y
_atom_site_fract_z
O1	O	1.263174	0.198062	-0.089215
O2	O	0.987206	0.190753	-0.089242
O3	O	1.132728	0.072697	-0.089215
O4	O	1.117651	0.316117	-0.089242
O5	O	1.121784	0.081592	0.089425
O6	O	0.976262	0.199647	0.089398
O7	O	1.252230	0.206956	0.089424
Cu8	Cu	1.113246	0.204114	0.105722
Cu9	Cu	1.126189	0.193595	-0.105540
O10	O	1.106707	0.325012	0.089398
C11	C	0.946419	0.192001	0.000074
C12	C	0.841194	0.182459	0.000065
C13	C	0.648530	0.165017	0.000088
C14	C	0.590900	0.232688	0.000085
C15	C	0.483695	0.222983	0.000098
C16	C	0.755745	0.174721	0.000075
C17	C	1.126631	0.045804	0.000106
C18	C	1.124758	-0.047583	0.000108
C19	C	1.028959	-0.325390	0.000077
C20	C	1.080542	-0.275732	-0.087997
C21	C	1.118078	-0.383728	0.000077
C22	C	1.069776	-0.266988	0.088127
C23	C	1.121355	-0.218569	0.000094
C24	C	1.169642	-0.335303	-0.088070
C25	C	1.158858	-0.326560	0.088134
C26	C	1.210508	-0.276930	0.000037
C27	C	1.116188	-0.478873	0.000066
C28	C	1.123253	-0.123427	0.000097
C29	C	1.293016	0.205708	0.000105
C30	C	1.398242	0.215249	0.000108
C31	C	1.112804	0.351905	0.000074
C32	C	1.114679	0.445291	0.000064
N33	N	1.104150	0.211512	0.254313
N34	N	1.135293	0.186191	-0.254131
C35	C	1.090769	0.222403	0.473426
C36	C	1.148671	0.175303	0.526763
C37	C	1.141225	0.181362	0.648685
C38	C	1.098213	0.216344	0.351493
H39	H	0.617358	0.099799	0.000101
H40	H	0.952214	-0.346794	-0.000016
H41	H	1.047467	-0.253323	-0.162466
C42	C	0.633014	0.320802	0.000056
N43	N	0.664739	0.387167	0.000028
H44	H	1.203834	0.130429	0.480861
H45	H	1.211818	-0.365005	-0.162613
H46	H	1.287320	-0.255690	-0.000005
H47	H	1.191900	-0.348986	0.162605
C48	C	1.016249	0.283021	0.535435
N49	N	0.960122	0.328678	0.582153
C50	C	1.012748	-0.226730	0.188720
N51	N	0.969789	-0.196411	0.264484
