data_functionalizedCrystal
_audit_creation_method	'MofGen! by Chris Wilmer'
_symmetry_space_group_name_H-M	'P1'
_symmetry_Int_Tables_number	1
_symmetry_cell_setting	triclinic
loop_
_symmetry_equiv_pos_as_xyz
  x,y,z
_cell_length_a	18.050589
_cell_length_b	12.594517
_cell_length_c	12.594509
_cell_angle_alpha	89.978673
_cell_angle_beta	90.027696
_cell_angle_gamma	89.971979
loop_
_atom_site_label
_atom_site_type_symbol
_atom_site_fract_x
_atom_site_fract_y
_atom_site_fract_z
Zn1	Zn	-0.295641	-1.627177	0.601864
Zn2	Zn	0.204359	-1.127177	1.101864
Zn3	Zn	-0.419845	-1.627030	0.423887
Zn4	Zn	0.080155	-1.127030	0.923887
Zn5	Zn	-0.295673	-1.449181	0.423893
Zn6	Zn	0.204327	-0.949181	0.923893
Zn7	Zn	-0.419793	-1.449125	0.601817
Zn8	Zn	0.080207	-0.949125	1.101817
O9	O	-0.357738	-1.538128	0.512865
O10	O	0.142262	-1.038128	1.012865
O11	O	-0.312125	-1.776103	0.578272
O12	O	0.187875	-1.276103	1.078272
O13	O	-0.403408	-1.603400	0.274942
O14	O	0.096592	-1.103400	0.774942
O15	O	-0.191744	-1.472877	0.447523
O16	O	0.308256	-0.972877	0.947523
O17	O	-0.403377	-1.775995	0.447513
O18	O	0.096623	-1.275995	0.947513
O19	O	-0.191721	-1.603650	0.578278
O20	O	0.308279	-1.103650	1.078278
O21	O	-0.312179	-1.472735	0.274946
O22	O	0.187821	-0.972735	0.774946
O23	O	-0.312129	-1.300228	0.447478
O24	O	0.187871	-0.800228	0.947478
O25	O	-0.403289	-1.472782	0.750769
O26	O	0.096711	-0.972782	1.250769
O27	O	-0.403320	-1.300187	0.578198
O28	O	0.096680	-0.800187	1.078198
O29	O	-0.312075	-1.603596	0.750804
O30	O	0.187925	-1.103596	1.250804
O31	O	-0.523763	-1.603346	0.447468
O32	O	-0.023763	-1.103346	0.947468
O33	O	-0.523725	-1.472640	0.578192
O34	O	-0.023725	-0.972640	1.078192
C35	C	-0.357723	-1.261587	0.512834
C36	C	0.142277	-0.761587	1.012834
C37	C	-0.357735	-1.143282	0.512846
C38	C	0.142265	-0.643282	1.012846
C39	C	-0.550690	-1.538000	0.512848
C40	C	-0.050690	-1.038000	1.012848
C41	C	-0.633236	-1.538042	0.512876
C42	C	-0.133236	-1.038042	1.012876
C43	C	-0.357673	-1.538200	0.790486
C44	C	0.142327	-1.038200	1.290486
C45	C	-0.357645	-1.538230	0.908792
C46	C	0.142355	-1.038230	1.408792
C47	C	-0.832693	-1.467034	0.583939
C48	C	-0.332693	-0.967034	1.083939
C49	C	-0.882138	-1.441086	0.486814
C50	C	-0.382138	-0.941086	0.986814
C51	C	-0.784366	-1.538147	0.512889
C52	C	-0.284366	-1.038147	1.012889
C53	C	-0.882003	-1.564147	0.610026
C54	C	-0.382003	-1.064147	1.110026
C55	C	-0.930351	-1.538246	0.512911
C56	C	-0.430351	-1.038246	1.012911
C57	C	-0.832724	-1.512147	0.415713
C58	C	-0.332724	-1.012147	0.915713
C59	C	-0.832585	-1.635254	0.538990
C60	C	-0.332585	-1.135254	1.038990
C61	C	-0.882007	-1.609343	0.441799
C62	C	-0.382007	-1.109343	0.941799
C63	C	-0.700268	-1.538087	0.512878
C64	C	-0.200268	-1.038087	1.012878
C65	C	-1.014448	-1.538306	0.512912
C66	C	-0.514448	-1.038306	1.012912
C67	C	-0.164032	-1.538286	0.512906
C68	C	0.335968	-1.038286	1.012906
C69	C	-0.081487	-1.538354	0.512924
C70	C	0.418513	-1.038354	1.012924
C71	C	-0.357753	-1.815749	0.512897
C72	C	0.142247	-1.315749	1.012897
C73	C	-0.357760	-1.934055	0.512911
C74	C	0.142240	-1.434055	1.012911
C75	C	-0.308068	-1.074020	0.441883
C76	C	0.191932	-0.574020	0.941883
C77	C	-0.375810	-1.003188	0.415704
C78	C	0.124190	-0.503188	0.915704
C79	C	-0.290026	-1.003314	0.539043
C80	C	0.209974	-0.503314	1.039043
C81	C	-0.425512	-1.074008	0.486616
C82	C	0.074488	-0.574008	0.986616
C83	C	-0.339682	-1.074141	0.610001
C84	C	0.160318	-0.574141	1.110001
C85	C	-0.407471	-1.003341	0.583858
C86	C	0.092529	-0.503341	1.083858
C87	C	-0.357749	-1.538119	0.236324
C88	C	0.142251	-1.038119	0.736324
C89	C	-0.357568	-1.538294	0.118019
C90	C	0.142432	-1.038294	0.618019
C91	C	-0.407228	-1.467103	0.978026
C92	C	0.092772	-0.967103	1.478026
C93	C	-0.425374	-1.564218	1.048817
C94	C	0.074626	-1.064218	1.548817
C95	C	-0.339455	-1.441191	1.048800
C96	C	0.160545	-0.941191	1.548800
C97	C	-0.375826	-1.635396	0.978024
C98	C	0.124174	-1.135396	1.478024
C99	C	-0.289876	-1.512303	0.978001
C100	C	0.210124	-1.012303	1.478001
C101	C	-0.307996	-1.609485	1.048760
C102	C	0.192004	-1.109485	1.548760
H103	H	-0.811039	-1.406808	0.643938
H104	H	-0.311039	-0.906808	1.143938
H105	H	-0.903649	-1.586099	0.692164
H106	H	-0.403649	-1.086099	1.192164
H107	H	-0.232762	-0.972205	0.561137
H108	H	0.267238	-0.472205	1.061137
Br109	Br	-0.796801	-1.475406	0.278769
Br110	Br	-0.296801	-0.975406	0.778769
H111	H	-0.391245	-1.717511	0.947065
H112	H	0.108755	-1.217511	1.447065
Br113	Br	-0.520997	-1.125542	0.449573
Br114	Br	-0.020997	-0.625542	0.949573
Br115	Br	-0.238130	-1.125749	0.341744
Br116	Br	0.261870	-0.625749	0.841744
Br117	Br	-0.477570	-0.951937	0.683931
Br118	Br	0.022430	-0.451937	1.183931
Br119	Br	-0.194434	-1.475650	0.926114
Br120	Br	0.305566	-0.975650	1.426114
H121	H	-0.324102	-1.359099	1.079890
H122	H	0.175898	-0.859099	1.579890
Br123	Br	-0.477220	-1.366925	0.926257
Br124	Br	0.022780	-0.866925	1.426257
H125	H	-0.324376	-1.105330	0.692110
H126	H	0.175624	-0.605330	1.192110
H127	H	-0.903921	-1.359012	0.464757
H128	H	-0.403921	-0.859012	0.964757
Br129	Br	-0.401289	-0.951245	0.278811
Br130	Br	0.098711	-0.451245	0.778811
H131	H	-0.810804	-1.717310	0.561093
H132	H	-0.310804	-1.217310	1.061093
Br133	Br	-0.917871	-1.709653	0.341562
Br134	Br	-0.417871	-1.209653	0.841562
H135	H	-0.482652	-1.586182	1.079923
H136	H	0.017348	-1.086182	1.579923
Br137	Br	-0.238052	-1.709895	1.100207
Br138	Br	0.261948	-1.209895	1.600207
