data_functionalizedCrystal
_audit_creation_method	'MofGen! by Chris Wilmer'
_symmetry_space_group_name_H-M	'P1'
_symmetry_Int_Tables_number	1
_symmetry_cell_setting	triclinic
loop_
_symmetry_equiv_pos_as_xyz
  x,y,z
_cell_length_a	10.540539
_cell_length_b	10.723024
_cell_length_c	9.198806
_cell_angle_alpha	90.003648
_cell_angle_beta	89.998955
_cell_angle_gamma	95.503320
loop_
_atom_site_label
_atom_site_type_symbol
_atom_site_fract_x
_atom_site_fract_y
_atom_site_fract_z
O1	O	0.178046	-1.657276	-0.120876
O2	O	0.678046	-1.157276	0.379124
O3	O	0.195088	-1.294132	-0.120880
O4	O	0.695088	-0.794132	0.379120
O5	O	0.001856	-1.483989	-0.120876
O6	O	0.501856	-0.983989	0.379124
O7	O	0.371278	-1.467419	-0.120880
O8	O	0.871278	-0.967419	0.379120
O9	O	0.001856	-1.483974	0.120909
O10	O	0.501856	-0.983974	0.620909
O11	O	0.195088	-1.294117	0.120905
O12	O	0.695088	-0.794117	0.620905
O13	O	0.178045	-1.657261	0.120909
O14	O	0.678045	-1.157261	0.620909
Cu15	Cu	0.186567	-1.475688	0.142984
Cu16	Cu	0.686567	-0.975688	0.642984
Cu17	Cu	0.186567	-1.475706	-0.142955
Cu18	Cu	0.686567	-0.975706	0.357045
O19	O	0.371277	-1.467404	0.120905
O20	O	0.871277	-0.967404	0.620905
C21	C	-0.045446	-1.482739	0.000014
C22	C	0.454554	-0.982739	0.500014
C23	C	-0.186392	-1.479021	0.000006
C24	C	0.313608	-0.979021	0.500006
C25	C	0.193848	-1.247624	0.000012
C26	C	0.693848	-0.747624	0.500012
C27	C	0.190137	-1.109068	0.000010
C28	C	0.690137	-0.609068	0.500010
C29	C	0.179286	-1.703769	0.000014
C30	C	0.679286	-1.203769	0.500014
C31	C	0.182997	-1.842325	0.000007
C32	C	0.682997	-1.342325	0.500007
C33	C	-0.369746	-1.336563	-0.000538
C34	C	0.130254	-0.836563	0.499462
C35	C	-0.223130	-1.340332	0.000006
C36	C	0.276870	-0.840332	0.500006
C37	C	-0.248085	-1.545756	0.138078
C38	C	0.251915	-1.045756	0.638078
C39	C	-0.394627	-1.541023	0.138194
C40	C	0.105373	-1.041023	0.638194
C41	C	-0.395146	-1.543861	-0.136760
C42	C	0.104854	-1.043861	0.363240
C43	C	-0.248164	-1.545138	-0.138586
C44	C	0.251836	-1.045138	0.361414
C45	C	0.418580	-1.468654	0.000012
C46	C	0.918580	-0.968654	0.500012
C47	C	0.559526	-1.472372	0.000011
C48	C	1.059526	-0.972372	0.500011
C49	C	0.298260	-1.034139	0.000008
C50	C	0.798260	-0.534139	0.500008
C51	C	0.294427	-0.890934	0.000006
C52	C	0.794427	-0.390934	0.500006
N53	N	0.186565	-1.475684	0.344098
N54	N	0.686565	-0.975684	0.844098
N55	N	0.186558	-1.475719	-0.344069
N56	N	0.686558	-0.975719	0.155931
C57	C	0.105075	-1.555399	0.416297
C58	C	0.605075	-1.055399	0.916297
C59	C	0.105071	-1.555419	0.583709
C60	C	0.605071	-1.055419	1.083709
H61	H	-0.180499	-1.287821	-0.098969
H62	H	0.319501	-0.787821	0.401031
H63	H	-0.398318	-1.281784	-0.099552
H64	H	0.101682	-0.781784	0.400448
H65	H	-0.205461	-1.499386	0.240826
H66	H	0.294539	-0.999386	0.740826
Cl67	Cl	0.437343	-0.791532	-0.000008
Cl68	Cl	0.937343	-0.291532	0.499992
H69	H	0.393665	-1.076009	0.000015
H70	H	0.893665	-0.576009	0.500015
Cl71	Cl	0.294274	-1.370326	0.440007
Cl72	Cl	0.794274	-0.870326	0.940007
Cl73	Cl	-0.002927	-1.660467	0.320389
Cl74	Cl	0.497073	-1.160467	0.820389
Cl75	Cl	0.040076	-0.941719	-0.000002
Cl76	Cl	0.540076	-0.441719	0.499998
Cl77	Cl	-0.468771	-1.695012	0.147888
Cl78	Cl	0.031229	-1.195012	0.647888
Cl79	Cl	-0.002643	-1.660800	0.679562
Cl80	Cl	0.497357	-1.160800	1.179562
Cl81	Cl	-0.416884	-1.252074	0.151024
Cl82	Cl	0.083116	-0.752074	0.651024
Cl83	Cl	-0.213656	-1.703004	0.146015
Cl84	Cl	0.286344	-1.203004	0.646015
H85	H	-0.426675	-1.498980	-0.241410
H86	H	0.073325	-0.998980	0.258590
Cl87	Cl	0.042832	-1.044437	0.000022
Cl88	Cl	0.542832	-0.544437	0.500022
H89	H	-0.181347	-1.287441	0.099145
H90	H	0.318653	-0.787441	0.599145
Cl91	Cl	-0.184295	-1.470381	-0.296312
Cl92	Cl	0.315705	-0.970381	0.203688
Cl93	Cl	-0.438131	-1.464850	0.297538
Cl94	Cl	0.061869	-0.964850	0.797538
Cl95	Cl	-0.210845	-1.701253	-0.151468
Cl96	Cl	0.289155	-1.201253	0.348532
Cl97	Cl	-0.468140	-1.698520	-0.138197
Cl98	Cl	0.031860	-1.198520	0.361803
Cl99	Cl	0.294289	-1.370348	0.560088
Cl100	Cl	0.794289	-0.870348	1.060088
