data_functionalizedCrystal
_audit_creation_method	'MofGen! by Chris Wilmer'
_symmetry_space_group_name_H-M	'P1'
_symmetry_Int_Tables_number	1
_symmetry_cell_setting	triclinic
loop_
_symmetry_equiv_pos_as_xyz
  x,y,z
_cell_length_a	11.792241
_cell_length_b	19.188930
_cell_length_c	10.268362
_cell_angle_alpha	89.989600
_cell_angle_beta	89.999626
_cell_angle_gamma	83.669099
loop_
_atom_site_label
_atom_site_type_symbol
_atom_site_fract_x
_atom_site_fract_y
_atom_site_fract_z
O1	O	1.505476	0.095695	-0.108190
O2	O	1.174988	0.105558	-0.108222
O3	O	1.349769	-0.000975	-0.108179
O4	O	1.330695	0.202228	-0.108232
O5	O	1.349754	-0.000980	0.108421
O6	O	1.174973	0.105553	0.108379
O7	O	1.505461	0.095691	0.108411
Cu8	Cu	1.340216	0.100622	0.128172
Cu9	Cu	1.340233	0.100627	-0.127983
O10	O	1.330680	0.202224	0.108368
C11	C	1.132699	0.104936	0.000075
C12	C	1.006713	0.103082	0.000064
C13	C	0.776051	0.099672	0.000102
C14	C	0.904408	0.101566	0.000081
C15	C	1.349144	-0.026992	0.000125
C16	C	1.347290	-0.104507	0.000136
C17	C	1.449846	-0.148850	0.000152
C18	C	1.448104	-0.221684	0.000131
C19	C	1.343800	-0.250171	0.000120
C20	C	1.241230	-0.205818	0.000096
C21	C	1.242975	-0.132986	0.000104
N22	N	1.264067	-0.358629	0.073825
N23	N	1.262416	-0.427817	0.073820
C24	C	1.338536	-0.469609	0.000093
N25	N	1.416387	-0.439602	-0.073614
N26	N	1.418041	-0.370407	-0.073603
C27	C	1.341896	-0.329144	0.000110
C28	C	1.439211	-0.592928	0.000084
C29	C	1.437464	-0.665762	0.000055
C30	C	1.230588	-0.649895	0.000034
C31	C	1.232337	-0.577062	0.000050
C32	C	1.336652	-0.548583	0.000081
C33	C	1.547751	0.096313	0.000111
C34	C	1.673737	0.098167	0.000114
C35	C	1.331305	0.228240	0.000062
C36	C	1.333159	0.305755	0.000042
N37	N	1.340211	0.100617	0.308338
N38	N	1.340247	0.100625	-0.308149
C39	C	1.340228	0.100625	0.574009
C40	C	1.340215	0.100623	0.426171
H41	H	1.534787	-0.125667	0.000173
H42	H	1.531620	-0.257795	0.000139
H43	H	1.159459	-0.096881	0.000091
C44	C	1.553951	-0.561594	0.000108
C45	C	1.666767	-0.610375	0.000109
C46	C	1.781508	-0.579044	0.000135
C47	C	1.783433	-0.498932	0.000161
C48	C	1.670613	-0.450147	0.000160
C49	C	1.555872	-0.481478	0.000134
H50	H	1.665345	-0.669683	0.000090
H51	H	1.865024	-0.615159	0.000136
H52	H	1.868371	-0.475739	0.000180
H53	H	1.672034	-0.390839	0.000179
H54	H	1.472356	-0.445363	0.000133
H55	H	1.520981	-0.701866	0.000061
H56	H	1.148825	-0.540957	0.000044
C57	C	1.115848	-0.681219	0.000027
C58	C	1.086191	-0.729119	0.112497
C59	C	0.971446	-0.760445	0.112488
C60	C	0.886358	-0.743872	0.000009
C61	C	0.916012	-0.695969	-0.112469
C62	C	1.030757	-0.664643	-0.112460
H63	H	1.149180	-0.741390	0.195768
H64	H	0.949494	-0.795906	0.195753
H65	H	0.801417	-0.767061	0.000003
H66	H	0.853023	-0.683698	-0.195740
H67	H	1.052709	-0.629183	-0.195725
H68	H	1.156305	-0.229017	0.000084
