data_functionalizedCrystal
_audit_creation_method	'MofGen! by Chris Wilmer'
_symmetry_space_group_name_H-M	'P1'
_symmetry_Int_Tables_number	1
_symmetry_cell_setting	triclinic
loop_
_symmetry_equiv_pos_as_xyz
  x,y,z
_cell_length_a	19.377118
_cell_length_b	19.377372
_cell_length_c	17.052862
_cell_angle_alpha	60.012831
_cell_angle_beta	104.152769
_cell_angle_gamma	82.421607
loop_
_atom_site_label
_atom_site_type_symbol
_atom_site_fract_x
_atom_site_fract_y
_atom_site_fract_z
Zr1	Zr	0.831009	0.774803	-0.019840
O2	O	0.757321	0.882694	-0.168678
O3	O	0.833643	0.642101	0.038516
O4	O	0.874203	0.748631	-0.115307
O5	O	0.707466	0.805461	0.092004
O6	O	0.989102	0.756210	-0.087688
O7	O	0.716761	0.776164	-0.014855
O8	O	0.916547	0.565646	0.187474
O9	O	0.780021	0.996025	-0.183158
O10	O	0.944624	0.711528	0.068637
O11	O	0.851940	0.727736	0.127772
O12	O	0.899694	0.853162	-0.053335
O13	O	0.807010	0.869370	0.005800
Zr14	Zr	0.999436	0.833616	0.194637
Zr15	Zr	1.014260	0.786890	0.024210
Zr16	Zr	0.816185	0.821528	0.150587
Zr17	Zr	0.867213	0.955552	-0.042934
Zr18	Zr	0.963232	0.652867	0.217731
O19	O	0.996802	0.966318	0.136281
O20	O	1.017880	0.899881	-0.106044
O21	O	0.736243	0.949132	0.073648
O22	O	1.073124	0.725724	0.343475
O23	O	1.094202	0.659287	0.101150
O24	O	0.812565	0.708538	0.280841
O25	O	1.122979	0.802958	0.082793
O26	O	0.956242	0.859787	0.290104
O27	O	0.841343	0.852209	0.262485
O28	O	1.113684	0.832255	0.189652
O29	O	0.925681	1.005632	-0.148143
O30	O	0.904764	0.602786	0.322941
O31	O	1.050424	0.612394	0.357955
O32	O	1.062207	0.575254	0.222488
O33	O	0.768238	1.033165	-0.047691
O34	O	0.913898	1.042772	-0.012677
O35	O	0.930751	0.755256	0.228132
O36	O	1.023435	0.739048	0.168997
O37	O	0.978506	0.880682	0.047025
O38	O	0.885821	0.896890	0.106160
C39	C	0.869937	0.578121	0.116285
C40	C	0.854567	0.501388	0.126089
C41	C	1.045924	0.206715	0.004014
C42	C	1.031470	0.134615	0.013236
C43	C	0.934715	0.151544	0.074968
C44	C	0.949158	0.223650	0.065747
C45	C	1.004764	0.251229	0.030270
C46	C	0.907998	0.268163	0.092003
C47	C	0.922443	0.340260	0.082787
C48	C	0.978048	0.367843	0.047315
C49	C	1.019209	0.323326	0.021054
C50	C	0.852396	0.240580	0.127486
C51	C	0.811236	0.285093	0.153743
C52	C	0.825677	0.357195	0.144521
C53	C	0.881282	0.384778	0.109048
C54	C	0.784516	0.401713	0.170782
C55	C	0.798961	0.473809	0.161566
C56	C	0.895727	0.456875	0.099832
C57	C	0.686004	0.789090	0.032298
C58	C	0.608209	0.783959	0.013598
C59	C	0.326765	0.847821	0.246436
C60	C	0.253664	0.843003	0.228849
C61	C	0.263903	0.810724	0.111113
C62	C	0.337008	0.815535	0.128694
C63	C	0.368433	0.834085	0.196355
C64	C	0.378676	0.801799	0.078613
C65	C	0.451773	0.806614	0.096189
C66	C	0.483202	0.825165	0.163845
C67	C	0.441530	0.838900	0.213931
C68	C	0.347248	0.783255	0.010946
C69	C	0.388915	0.769519	-0.039134
C70	C	0.462015	0.774328	-0.021554
C71	C	0.493445	0.792880	0.046103
C72	C	0.503688	0.760594	-0.071640
C73	C	0.576785	0.765409	-0.054064
C74	C	0.566542	0.797695	0.063679
C75	C	1.144441	0.819329	0.142499
C76	C	1.222236	0.824460	0.161199
C77	C	0.933765	0.745763	-0.125780
C78	C	0.940058	0.725927	-0.198130
C79	C	0.960508	1.030298	0.058512
C80	C	0.975878	1.107030	0.048708
C81	C	0.863975	0.965746	-0.656756
C82	C	0.858058	0.984385	-0.588782
C83	C	0.878558	0.919772	-0.491116
C84	C	0.904975	0.836517	-0.461430
C85	C	0.910887	0.817875	-0.529412
C86	C	0.925470	0.771902	-0.363773
C87	C	0.951888	0.688646	-0.334086
C88	C	0.957799	0.670009	-0.402063
C89	C	0.937299	0.734621	-0.499729
C90	C	0.919558	0.790544	-0.295791
C91	C	0.966470	0.642673	-0.168447
C92	C	0.972387	0.624034	-0.236421
C93	C	0.896680	0.862655	0.300577
C94	C	0.890387	0.882491	0.372928
C95	C	1.099155	0.593240	0.171385
C96	C	1.161581	0.521639	0.199890
C97	C	0.851394	0.636567	0.329463
C98	C	0.829732	0.579670	0.411618
C99	C	1.080613	0.651686	0.384564
C100	C	1.136745	0.599921	0.485419
C101	C	0.749832	0.956733	-0.209766
C102	C	0.693700	1.008498	-0.310622
C103	C	0.731290	1.015179	0.003412
C104	C	0.668865	1.086780	-0.025092
C105	C	0.979051	0.971852	-0.154666
C106	C	1.000713	1.028748	-0.236821
C107	C	1.149758	0.473647	0.160882
C108	C	1.208409	0.406376	0.187646
C109	C	1.278881	0.387093	0.253423
C110	C	1.290704	0.435092	0.292431
C111	C	1.232054	0.502366	0.265661
C112	C	0.860697	0.567318	0.502592
C113	C	0.840340	0.513870	0.579790
C114	C	0.789023	0.472770	0.566013
C115	C	0.758055	0.485126	0.475028
C116	C	0.778407	0.538578	0.397831
C117	C	1.211493	0.567152	0.501915
C118	C	1.264245	0.518522	0.596673
C119	C	1.242245	0.502657	0.674934
C120	C	1.167490	0.535432	0.658433
C121	C	1.114741	0.584066	0.563675
C122	C	0.618954	1.041276	-0.327119
C123	C	0.566207	1.089928	-0.421880
C124	C	0.588207	1.105797	-0.500141
C125	C	0.662961	1.073017	-0.483639
C126	C	0.715707	1.024370	-0.388881
C127	C	0.680689	1.134777	0.013907
C128	C	0.622044	1.202064	-0.012878
C129	C	0.551572	1.221348	-0.078658
C130	C	0.539749	1.173346	-0.117662
C131	C	0.598396	1.106065	-0.090882
C132	C	1.052033	1.069833	-0.223013
C133	C	1.072401	1.123287	-0.300194
C134	C	1.041446	1.135659	-0.391184
C135	C	0.990124	1.094567	-0.404990
C136	C	0.969760	1.041110	-0.327808
H137	H	0.889443	0.129077	0.103857
Cl138	Cl	0.925214	0.618976	0.519938
Cl139	Cl	0.838194	1.046961	-0.779532
H140	H	0.588757	1.066986	-0.122642
Cl141	Cl	0.693544	0.433449	0.457724
Cl142	Cl	0.591278	1.021338	-0.228749
Cl143	Cl	0.747216	0.529773	0.194573
Cl144	Cl	0.714628	0.367020	0.215402
Cl145	Cl	1.090960	1.054292	-0.108633
H146	H	1.241689	0.541435	0.297435
H147	H	0.772457	0.429247	0.628880
Cl148	Cl	0.739476	0.554093	0.283467
H149	H	1.229419	0.580060	0.438203
Cl150	Cl	1.358215	0.477323	0.617395
Cl151	Cl	0.769277	1.110554	0.096600
H152	H	0.776569	0.997680	-0.375458
Cl153	Cl	0.477851	1.305933	-0.112312
Cl154	Cl	0.472236	1.131125	-0.442602
Cl155	Cl	1.061172	0.497874	0.078183
H156	H	0.942117	0.719450	-0.555084
Cl157	Cl	1.308568	0.441513	0.794053
Cl158	Cl	0.521887	1.166953	-0.619262
Cl159	Cl	0.464171	0.737287	-0.156707
H160	H	0.865565	0.503817	0.653867
Cl161	Cl	0.629167	0.748144	-0.117028
H162	H	1.149588	0.522508	0.722166
H163	H	1.053878	0.610741	0.550256
H164	H	0.592131	0.812791	0.118783
Cl165	Cl	0.741342	0.250408	0.198354
H166	H	0.482364	1.189058	-0.171223
H167	H	1.114189	1.156741	-0.288936
Cl168	Cl	1.379301	0.410838	0.375126
Cl169	Cl	0.636922	1.262393	0.036171
Cl170	Cl	0.690605	1.092970	-0.582036
Cl171	Cl	1.067052	1.202869	-0.488206
Cl172	Cl	0.951207	1.110138	-0.519388
Cl173	Cl	0.905234	0.989474	-0.345186
Cl174	Cl	0.481042	0.862208	0.299005
Cl175	Cl	0.965627	0.491557	0.055221
H176	H	1.064484	0.345786	-0.007844
Cl177	Cl	0.996211	0.458478	0.035735
H178	H	1.091199	0.229175	-0.024885
H179	H	1.064993	0.098373	-0.008147
Cl180	Cl	1.005594	0.519373	-0.199115
Cl181	Cl	0.255351	0.777208	-0.011150
H182	H	0.363320	0.754419	-0.094227
H183	H	0.542721	0.829089	0.178151
Cl184	Cl	0.366278	0.871128	0.331510
Cl185	Cl	0.834243	0.149939	0.139076
H186	H	0.873738	0.934954	-0.435773
H187	H	0.238308	0.795623	0.056020
Cl188	Cl	0.201286	0.860277	0.291816
H189	H	0.898047	0.858331	-0.319971
H190	H	0.836549	1.052172	-0.612959
H191	H	0.979303	0.602216	-0.377887
H192	H	0.983160	0.590060	-0.088924
H193	H	1.198769	0.367301	0.155875
Cl194	Cl	1.352605	0.302515	0.287068
