data_functionalizedCrystal
_audit_creation_method	'MofGen! by Chris Wilmer'
_symmetry_space_group_name_H-M	'P1'
_symmetry_Int_Tables_number	1
_symmetry_cell_setting	triclinic
loop_
_symmetry_equiv_pos_as_xyz
  x,y,z
_cell_length_a	14.044202
_cell_length_b	13.101039
_cell_length_c	14.044220
_cell_angle_alpha	86.332523
_cell_angle_beta	93.190789
_cell_angle_gamma	93.662388
loop_
_atom_site_label
_atom_site_type_symbol
_atom_site_fract_x
_atom_site_fract_y
_atom_site_fract_z
O1	O	-1.281976	-0.085167	-0.225388
O2	O	-1.005304	-0.085180	-0.217072
O3	O	-1.139487	-0.085164	-0.082895
O4	O	-1.147793	-0.085184	-0.359565
O5	O	-1.129861	0.085265	-0.092539
O6	O	-0.995678	0.085248	-0.226717
O7	O	-1.272350	0.085262	-0.235032
Zn8	Zn	-1.132486	0.112314	-0.232406
Zn9	Zn	-1.145168	-0.112233	-0.219699
O10	O	-1.138167	0.085245	-0.369210
C11	C	-0.964869	0.000032	-0.218257
C12	C	-0.858727	0.000028	-0.207409
N13	N	-1.123837	0.265562	-0.241078
N14	N	-1.153824	-0.265480	-0.211020
C15	C	-0.613268	0.000033	-0.264508
C16	C	-0.664393	0.000037	-0.187592
C17	C	-0.772530	0.000032	-0.198621
C18	C	-0.505121	0.000039	-0.253481
C19	C	-0.312785	0.000046	-0.233845
C20	C	-0.418928	0.000043	-0.244687
C21	C	-1.131038	0.000051	-0.052095
C22	C	-1.120193	0.000051	0.054048
C23	C	-1.112071	0.474603	-0.252886
C24	C	-1.165587	0.525485	-0.199215
C25	C	-1.159040	0.641803	-0.205785
C26	C	-1.118617	0.358275	-0.246317
C27	C	-1.146616	0.000028	-0.400009
C28	C	-1.157461	0.000021	-0.506152
C29	C	-1.100368	0.000036	0.248387
C30	C	-1.177282	0.000036	0.299515
C31	C	-1.166251	0.000028	0.407652
C32	C	-1.111398	0.000045	0.140240
H33	H	-0.626953	-0.000030	-0.113456
N34	N	-1.232803	0.467480	-0.131826
H35	H	-1.267610	0.517646	-0.096925
H36	H	-1.195086	0.422965	-0.084093
H37	H	-1.251420	-0.000029	0.262077
H38	H	-0.650710	0.000025	-0.338634
N39	N	-1.044871	0.532604	-0.320283
H40	H	-1.049664	0.608679	-0.315481
H41	H	-1.062779	0.513913	-0.387890
H42	H	-1.026240	0.000030	0.285827
