data_functionalizedCrystal
_audit_creation_method	'MofGen! by Chris Wilmer'
_symmetry_space_group_name_H-M	'P1'
_symmetry_Int_Tables_number	1
_symmetry_cell_setting	triclinic
loop_
_symmetry_equiv_pos_as_xyz
  x,y,z
_cell_length_a	13.032831
_cell_length_b	12.645330
_cell_length_c	13.032268
_cell_angle_alpha	82.848687
_cell_angle_beta	89.113023
_cell_angle_gamma	82.822813
loop_
_atom_site_label
_atom_site_type_symbol
_atom_site_fract_x
_atom_site_fract_y
_atom_site_fract_z
Zn1	Zn	1.498478	-0.715929	0.780858
Zn2	Zn	1.520220	-0.873876	0.608884
Zn3	Zn	1.348336	-0.671644	0.587098
Zn4	Zn	1.326468	-0.868144	0.759009
O5	O	1.423375	-0.782398	0.683962
O6	O	1.645282	-0.757814	0.776307
O7	O	1.515670	-0.830915	0.462076
O8	O	1.368306	-0.529182	0.612827
O9	O	1.661256	-0.873856	0.649958
O10	O	1.478614	-0.561718	0.755182
O11	O	1.389388	-0.682336	0.446071
O12	O	1.201515	-0.676778	0.591641
O13	O	1.331034	-0.864087	0.905824
O14	O	1.185448	-0.821146	0.717943
O15	O	1.457409	-0.752256	0.921877
O16	O	1.494465	-1.021452	0.628771
O17	O	1.352116	-1.017241	0.739067
C18	C	1.156164	-0.743535	0.650057
C19	C	1.041847	-0.726938	0.635577
C20	C	0.982971	-0.791061	0.691519
C21	C	0.864818	-0.773908	0.676555
C22	C	1.423302	-1.057816	0.683938
C23	C	1.423360	-1.175658	0.683974
C24	C	1.334105	-1.340692	0.753648
C25	C	1.333733	-1.218045	0.753341
C26	C	1.407793	-1.203807	0.571873
C27	C	1.407248	-1.326389	0.572295
C28	C	1.528779	-1.361707	0.725584
C29	C	1.527810	-1.239270	0.727870
C30	C	1.691630	-0.821414	0.718000
C31	C	1.805944	-0.838040	0.732505
C32	C	1.389357	-0.812472	0.952210
C33	C	1.374860	-0.825288	1.066522
C34	C	1.423474	-0.505912	0.684012
C35	C	1.423516	-0.388090	0.684033
C36	C	1.457320	-0.752374	0.416765
C37	C	1.472016	-0.739288	0.302479
C38	C	1.430925	-0.775669	1.125428
C39	C	1.415944	-0.788914	1.243575
H40	H	0.843003	-0.905637	0.791489
H41	H	1.315763	-0.877565	1.103557
H42	H	1.004781	-0.659337	0.576608
H43	H	1.341878	-1.199591	0.836032
H44	H	1.020037	-0.858655	0.750496
C45	C	0.707435	-0.683338	0.597499
C46	C	0.814798	-0.682659	0.596921
H47	H	0.676558	-0.627013	0.548329
H48	H	0.681133	-0.673137	0.664407
H49	H	0.691804	-0.750321	0.580137
H50	H	0.830429	-0.615679	0.614290
H51	H	0.841110	-0.692852	0.529998
C52	C	1.551169	-0.669206	1.145131
C53	C	1.551775	-0.668675	1.252498
H54	H	1.600407	-0.625610	1.114277
H55	H	1.484282	-0.641706	1.118828
H56	H	1.568426	-0.740662	1.129474
H57	H	1.534511	-0.597219	1.268156
H58	H	1.618677	-0.696170	1.278810
C59	C	1.477697	-1.192508	0.399864
C60	C	1.493767	-1.166219	0.499126
H61	H	1.530788	-1.169324	0.354962
H62	H	1.412450	-1.157947	0.374642
H63	H	1.478972	-1.268089	0.402669
H64	H	1.492484	-1.090638	0.496322
H65	H	1.559030	-1.200778	0.524353
H66	H	1.342048	-1.381809	0.836582
H67	H	1.470292	-1.357178	0.517917
H68	H	1.256264	-1.357903	0.725332
H69	H	1.255418	-1.175020	0.724725
H70	H	1.330710	-1.340879	0.538698
H71	H	1.490012	-0.723380	1.088392
C72	C	1.241161	-1.217617	0.502265
C73	C	1.305657	-1.143426	0.526079
H74	H	1.178108	-1.180341	0.473992
H75	H	1.227153	-1.262793	0.563372
H76	H	1.274479	-1.260023	0.453264
H77	H	1.272342	-1.101025	0.575086
H78	H	1.319663	-1.098232	0.464963
H79	H	1.545671	-1.405172	0.806666
C80	C	1.550468	-1.312658	0.906187
C81	C	1.543957	-1.216378	0.839348
H82	H	1.560412	-1.298524	0.975013
H83	H	1.607120	-1.360766	0.886458
H84	H	1.488276	-1.343971	0.902429
H85	H	1.606152	-1.185069	0.843100
H86	H	1.487299	-1.168253	0.859082
C87	C	1.674728	-1.288809	0.622848
C88	C	1.620990	-1.201943	0.665883
H89	H	1.732254	-1.265764	0.584578
H90	H	1.630018	-1.315647	0.578211
H91	H	1.698372	-1.343922	0.676572
H92	H	1.597339	-1.146833	0.612158
H93	H	1.665708	-1.175089	0.710522
H94	H	1.356842	-0.841195	1.280605
H95	H	1.595223	-1.392760	0.675049
