data_functionalizedCrystal
_audit_creation_method	'MofGen! by Chris Wilmer'
_symmetry_space_group_name_H-M	'P1'
_symmetry_Int_Tables_number	1
_symmetry_cell_setting	triclinic
loop_
_symmetry_equiv_pos_as_xyz
  x,y,z
_cell_length_a	15.944493
_cell_length_b	19.188924
_cell_length_c	15.021413
_cell_angle_alpha	90.001940
_cell_angle_beta	89.993251
_cell_angle_gamma	83.308504
loop_
_atom_site_label
_atom_site_type_symbol
_atom_site_fract_x
_atom_site_fract_y
_atom_site_fract_z
O1	O	1.114220	0.089846	-0.074024
O2	O	1.447554	0.423179	0.259309
O3	O	1.780887	0.756513	0.592642
O4	O	0.869622	0.100990	-0.074029
O5	O	1.202955	0.434324	0.259304
O6	O	1.536289	0.767657	0.592637
O7	O	0.998983	-0.006221	-0.074016
O8	O	1.332316	0.327113	0.259317
O9	O	1.665649	0.660446	0.592650
O10	O	0.984860	0.197057	-0.074037
O11	O	1.318193	0.530391	0.259296
O12	O	1.651526	0.863724	0.592629
O13	O	0.998962	-0.006205	0.074048
O14	O	1.332296	0.327128	0.407381
O15	O	1.665629	0.660461	0.740715
O16	O	0.869601	0.101006	0.074035
O17	O	1.202935	0.434339	0.407368
O18	O	1.536268	0.767672	0.740702
O19	O	1.114200	0.089861	0.074040
O20	O	1.447533	0.423195	0.407373
O21	O	1.780866	0.756528	0.740707
Zn22	Zn	0.991897	0.095436	0.097546
Zn23	Zn	1.325231	0.428769	0.430879
Zn24	Zn	1.658564	0.762103	0.764212
Zn25	Zn	0.991924	0.095416	-0.097535
Zn26	Zn	1.325258	0.428749	0.235798
Zn27	Zn	1.658591	0.762083	0.569131
O28	O	0.984839	0.197073	0.074027
O29	O	1.318172	0.530406	0.407360
O30	O	1.651506	0.863739	0.740693
C31	C	0.838319	0.100543	0.000002
C32	C	1.171652	0.433876	0.333336
C33	C	1.504985	0.767209	0.666669
C34	C	0.745075	0.099177	0.000001
C35	C	1.078409	0.432510	0.333334
C36	C	1.411742	0.765844	0.666668
C37	C	0.509077	0.162284	-0.000006
C38	C	0.842411	0.495617	0.333327
C39	C	1.175744	0.828951	0.666660
C40	C	0.458637	0.128260	0.073004
C41	C	0.791970	0.461594	0.406338
C42	C	1.125304	0.794927	0.739671
C43	C	0.574364	0.096647	0.000003
C44	C	0.907697	0.429980	0.333336
C45	C	1.241030	0.763313	0.666670
C46	C	0.458662	0.128230	-0.072975
C47	C	0.791995	0.461563	0.260358
C48	C	1.125329	0.794896	0.593691
C49	C	0.409463	0.094207	0.000001
C50	C	0.742797	0.427541	0.333334
C51	C	1.076130	0.760874	0.666668
C52	C	0.525152	0.062641	0.073074
C53	C	0.858485	0.395974	0.406407
C54	C	1.191818	0.729308	0.739741
C55	C	0.525180	0.062620	-0.072971
C56	C	0.858513	0.395953	0.260362
C57	C	1.191847	0.729287	0.593695
C58	C	0.474773	0.028548	0.000057
C59	C	0.808106	0.361882	0.333391
C60	C	1.141439	0.695215	0.666724
C61	C	0.669358	0.098054	0.000005
C62	C	1.002692	0.431387	0.333338
C63	C	1.336025	0.764720	0.666671
C64	C	0.314472	0.092795	0.000005
C65	C	0.647805	0.426129	0.333339
C66	C	0.981138	0.759462	0.666672
C67	C	0.998516	-0.032225	0.000017
C68	C	1.331849	0.301108	0.333350
C69	C	1.665183	0.634441	0.666683
C70	C	0.997146	-0.109733	0.000019
C71	C	1.330479	0.223600	0.333352
C72	C	1.663813	0.556933	0.666686
C73	C	0.996518	-0.146142	-0.080691
C74	C	1.329851	0.187191	0.252642
C75	C	1.663185	0.520525	0.585976
C76	C	0.995219	-0.218968	-0.080698
C77	C	1.328552	0.114365	0.252636
C78	C	1.661885	0.447699	0.585969
C79	C	0.994565	-0.255384	0.000010
C80	C	1.327898	0.077949	0.333343
C81	C	1.661231	0.411283	0.666677
C82	C	0.995188	-0.218966	0.080731
C83	C	1.328521	0.114367	0.414064
C84	C	1.661855	0.447701	0.747397
C85	C	0.996479	-0.146141	0.080735
C86	C	1.329812	0.187193	0.414069
C87	C	1.663146	0.520526	0.747402
N88	N	1.040330	-0.374931	0.060080
N89	N	1.373664	-0.041597	0.393413
N90	N	1.706997	0.291736	0.726747
N91	N	1.039106	-0.444112	0.060070
N92	N	1.372439	-0.110779	0.393404
N93	N	1.705773	0.222555	0.726737
C94	C	0.990674	-0.474803	0.000001
C95	C	1.324007	-0.141469	0.333335
C96	C	1.657340	0.191864	0.666668
N97	N	0.943523	-0.433700	-0.060071
N98	N	1.276856	-0.100366	0.273263
N99	N	1.610189	0.232967	0.606596
N100	N	0.944751	-0.364512	-0.060064
N101	N	1.278084	-0.031179	0.273270
N102	N	1.611418	0.302154	0.606603
C103	C	0.993164	-0.334351	0.000014
C104	C	1.326498	-0.001018	0.333348
C105	C	1.659831	0.332316	0.666681
C106	C	0.988636	-0.590177	-0.080721
C107	C	1.321969	-0.256844	0.252612
C108	C	1.655302	0.076489	0.585945
C109	C	0.987331	-0.663004	-0.080725
C110	C	1.320664	-0.329671	0.252608
C111	C	1.653998	0.003663	0.585942
C112	C	0.987309	-0.663001	0.080706
C113	C	1.320642	-0.329668	0.414039
C114	C	1.653976	0.003665	0.747373
C115	C	0.988605	-0.590175	0.080707
C116	C	1.321938	-0.256842	0.414040
C117	C	1.655272	0.076491	0.747374
C118	C	0.989272	-0.553768	-0.000009
C119	C	1.322606	-0.220435	0.333324
C120	C	1.655939	0.112899	0.666657
C121	C	1.145503	0.090309	0.000006
C122	C	1.478836	0.423643	0.333340
C123	C	1.812170	0.756976	0.666673
C124	C	1.238747	0.091675	0.000002
C125	C	1.572080	0.425008	0.333335
C126	C	1.905413	0.758342	0.666669
C127	C	0.985306	0.223077	-0.000008
C128	C	1.318639	0.556410	0.333325
C129	C	1.651972	0.889744	0.666659
C130	C	0.986676	0.300585	-0.000016
C131	C	1.320009	0.633918	0.333317
C132	C	1.653342	0.967252	0.666650
N133	N	0.991885	0.095449	0.230683
N134	N	1.325218	0.428783	0.564017
N135	N	1.658552	0.762116	0.897350
N136	N	0.991944	0.095397	-0.230673
N137	N	1.325277	0.428730	0.102661
N138	N	1.658610	0.762064	0.435994
C139	C	0.932059	0.145000	0.470361
C140	C	1.265393	0.478334	0.803694
C141	C	1.598726	0.811667	1.137027
C142	C	1.007911	0.158542	0.529695
C143	C	1.341244	0.491875	0.863028
C144	C	1.674578	0.825209	1.196362
C145	C	0.991907	0.095432	0.412290
C146	C	1.325240	0.428765	0.745624
C147	C	1.658573	0.762099	1.078957
C148	C	0.916076	0.081906	0.529698
C149	C	1.249409	0.415239	0.863031
C150	C	1.582742	0.748572	1.196364
C151	C	0.991921	0.095417	0.587714
C152	C	1.325254	0.428750	0.921048
C153	C	1.658587	0.762083	1.254381
C154	C	1.067796	0.109005	0.470318
C155	C	1.401129	0.442338	0.803651
C156	C	1.734463	0.775672	1.136985
C157	C	0.975911	0.032341	0.470316
C158	C	1.309244	0.365675	0.803649
C159	C	1.642578	0.699008	1.136982
C160	C	1.051817	0.045856	0.529623
C161	C	1.385151	0.379189	0.862957
C162	C	1.718484	0.712523	1.196290
C163	C	0.991897	0.095442	0.311233
C164	C	1.325231	0.428776	0.644566
C165	C	1.658564	0.762109	0.977900
C166	C	0.991939	0.095406	0.688770
C167	C	1.325272	0.428739	1.022103
C168	C	1.658605	0.762072	1.355436
H169	H	0.524488	0.218823	0.000056
H170	H	0.857821	0.552157	0.333389
H171	H	1.191154	0.885490	0.666723
H172	H	1.021453	0.211890	0.555777
H173	H	1.354786	0.545223	0.889110
H174	H	1.688119	0.878556	1.222443
H175	H	1.131945	0.120503	0.444345
H176	H	1.465278	0.453836	0.777678
H177	H	1.798611	0.787169	1.111012
Br178	Br	0.953302	-0.056549	0.426806
Br179	Br	1.286636	0.276785	0.760140
Br180	Br	1.619969	0.610118	1.093473
H181	H	0.997059	-0.116503	-0.146416
H182	H	1.330392	0.216830	0.186917
H183	H	1.663725	0.550163	0.520250
Br184	Br	0.410267	0.174440	-0.175839
Br185	Br	0.743601	0.507774	0.157495
Br186	Br	1.076934	0.841107	0.490828
Br187	Br	0.410217	0.174469	0.175873
Br188	Br	0.743550	0.507803	0.509206
Br189	Br	1.076884	0.841136	0.842540
H190	H	0.989124	-0.560532	0.146430
H191	H	1.322457	-0.227198	0.479763
H192	H	1.655790	0.106135	0.813097
H193	H	0.881500	0.186953	0.444340
H194	H	1.214833	0.520286	0.777673
H195	H	1.548166	0.853620	1.111007
Br196	Br	0.986413	-0.712414	0.190240
Br197	Br	1.319746	-0.379081	0.523574
Br198	Br	1.653079	-0.045748	0.856907
Br199	Br	1.136269	-0.024026	0.572728
Br200	Br	1.469602	0.309307	0.906061
Br201	Br	1.802936	0.642640	1.239395
H202	H	0.851941	0.070472	0.555783
H203	H	1.185274	0.403806	0.889116
H204	H	1.518608	0.737139	1.222450
H205	H	0.994702	-0.248617	-0.146424
H206	H	1.328035	0.084716	0.186910
H207	H	1.661369	0.418050	0.520243
H208	H	0.554075	0.034944	0.134860
H209	H	0.887409	0.368278	0.468193
H210	H	1.220742	0.701611	0.801527
Br211	Br	0.573630	0.016449	-0.175845
Br212	Br	0.906963	0.349783	0.157488
Br213	Br	1.240296	0.683116	0.490822
Br214	Br	0.449341	-0.065756	0.000135
Br215	Br	0.782675	0.267577	0.333468
Br216	Br	1.116008	0.600911	0.666801
H217	H	0.996987	-0.116497	0.146461
H218	H	1.330320	0.216837	0.479794
H219	H	1.663654	0.550170	0.813128
Br220	Br	0.994290	-0.268384	0.190264
Br221	Br	1.327623	0.064949	0.523597
Br222	Br	1.660956	0.398282	0.856931
H223	H	0.989174	-0.560532	-0.146445
H224	H	1.322507	-0.227199	0.186888
H225	H	1.655841	0.106134	0.520221
H226	H	0.986815	-0.692646	-0.146451
H227	H	1.320149	-0.359313	0.186882
H228	H	1.653482	-0.025980	0.520215
