data_functionalizedCrystal
_audit_creation_method	'MofGen! by Chris Wilmer'
_symmetry_space_group_name_H-M	'P1'
_symmetry_Int_Tables_number	1
_symmetry_cell_setting	triclinic
loop_
_symmetry_equiv_pos_as_xyz
  x,y,z
_cell_length_a	19.805407
_cell_length_b	13.031981
_cell_length_c	19.805399
_cell_angle_alpha	97.209878
_cell_angle_beta	90.024201
_cell_angle_gamma	97.190128
loop_
_atom_site_label
_atom_site_type_symbol
_atom_site_fract_x
_atom_site_fract_y
_atom_site_fract_z
Zn1	Zn	1.000569	-0.416154	0.348552
Zn2	Zn	1.500569	0.083846	0.848552
Zn3	Zn	0.986133	-0.590941	0.220978
Zn4	Zn	1.486133	-0.090941	0.720978
Zn5	Zn	0.887381	-0.416181	0.235365
Zn6	Zn	1.387381	0.083819	0.735365
Zn7	Zn	0.873001	-0.590884	0.334120
Zn8	Zn	1.373001	-0.090884	0.834120
O9	O	0.936771	-0.503540	0.284754
O10	O	1.436771	-0.003540	0.784754
O11	O	1.093369	-0.439353	0.331647
O12	O	1.593369	0.060647	0.831647
O13	O	0.973010	-0.567794	0.128167
O14	O	1.473010	-0.067794	0.628167
O15	O	0.914455	-0.269914	0.262440
O16	O	1.414455	0.230086	0.762440
O17	O	1.082764	-0.567769	0.237919
O18	O	1.582764	-0.067769	0.737919
O19	O	0.997613	-0.269895	0.345598
O20	O	1.497613	0.230105	0.845598
O21	O	0.900458	-0.439398	0.138737
O22	O	1.400458	0.060602	0.638737
O23	O	0.790758	-0.439342	0.248446
O24	O	1.290758	0.060658	0.748446
O25	O	0.889947	-0.567670	0.430754
O26	O	1.389947	-0.067670	0.930754
O27	O	0.780193	-0.567696	0.321001
O28	O	1.280193	-0.067696	0.821001
O29	O	0.983670	-0.439297	0.441357
O30	O	1.483670	0.060703	0.941357
O31	O	0.959067	-0.737196	0.223925
O32	O	1.459067	-0.237196	0.723925
O33	O	0.875949	-0.737154	0.307050
O34	O	1.375949	-0.237154	0.807050
C35	C	0.760917	-0.503516	0.284719
C36	C	1.260917	-0.003516	0.784719
C37	C	0.685684	-0.503531	0.284719
C38	C	1.185684	-0.003531	0.784719
C39	C	0.218398	-0.570499	0.322498
C40	C	0.718398	-0.070499	0.822498
C41	C	0.289087	-0.570497	0.322484
C42	C	0.789087	-0.070497	0.822484
C43	C	0.329919	-0.503565	0.284778
C44	C	0.829919	-0.003565	0.784778
C45	C	0.300059	-0.436638	0.247078
C46	C	0.800059	0.063362	0.747078
C47	C	0.229371	-0.436646	0.247089
C48	C	0.729371	0.063354	0.747089
C49	C	0.585135	-0.436606	0.247033
C50	C	1.085135	0.063394	0.747033
C51	C	0.655828	-0.436601	0.247027
C52	C	1.155828	0.063399	0.747027
C53	C	0.644851	-0.570458	0.322428
C54	C	1.144851	-0.070458	0.822428
C55	C	0.574163	-0.570466	0.322439
C56	C	1.074163	-0.070466	0.822439
C57	C	0.544309	-0.503542	0.284737
C58	C	1.044309	-0.003542	0.784737
C59	C	0.467660	-0.503547	0.284751
C60	C	0.967660	-0.003547	0.784751
C61	C	0.406567	-0.503555	0.284767
C62	C	0.906567	-0.003555	0.784767
C63	C	0.914399	-0.775099	0.262375
C64	C	1.414399	-0.275099	0.762375
C65	C	0.904891	-0.891274	0.252825
C66	C	1.404891	-0.391274	0.752825
C67	C	0.941770	-0.942975	0.289752
C68	C	1.441770	-0.442975	0.789752
C69	C	0.931943	-1.063047	0.279881
C70	C	1.431943	-0.563047	0.779881
C71	C	1.113312	-0.503564	0.284788
C72	C	1.613312	-0.003564	0.784788
C73	C	1.188543	-0.503575	0.284803
C74	C	1.688543	-0.003575	0.784803
C75	C	0.936814	-0.503474	0.461302
C76	C	1.436814	-0.003474	0.961302
C77	C	0.936833	-0.503446	0.536536
C78	C	1.436833	-0.003446	1.036536
C79	C	0.959249	-0.230920	0.307234
C80	C	1.459249	0.269080	0.807234
C81	C	0.968827	-0.114746	0.316814
C82	C	1.468827	0.385254	0.816814
C83	C	0.936773	-0.503530	0.108898
C84	C	1.436773	-0.003530	0.608898
C85	C	0.936910	-0.503264	0.033689
C86	C	1.436910	-0.003264	0.533689
C87	C	0.985636	-0.436599	0.577403
C88	C	1.485636	0.063401	1.077403
C89	C	0.985645	-0.436569	0.648094
C90	C	1.485645	0.063431	1.148094
C91	C	0.936854	-0.503391	0.677916
C92	C	1.436854	-0.003391	1.177916
C93	C	0.888046	-0.570242	0.637045
C94	C	1.388046	-0.070242	1.137045
C95	C	0.888034	-0.570266	0.566355
C96	C	1.388034	-0.070266	1.066355
C97	C	0.888093	-0.570144	0.922126
C98	C	1.388093	-0.070144	1.422126
C99	C	0.888109	-0.570117	0.992820
C100	C	1.388109	-0.070117	1.492820
C101	C	0.985703	-0.436447	1.003864
C102	C	1.485703	0.063553	1.503864
C103	C	0.985692	-0.436471	0.933175
C104	C	1.485692	0.063529	1.433175
C105	C	0.936882	-0.503317	0.892310
C106	C	1.436882	-0.003317	1.392310
C107	C	0.936871	-0.503348	0.815659
C108	C	1.436871	-0.003348	1.315659
C109	C	0.936867	-0.503367	0.754565
C110	C	1.436867	-0.003367	1.254565
H111	H	0.669166	-0.624953	0.353125
H112	H	1.169166	-0.124953	0.853125
H113	H	0.205065	-0.382146	0.216396
H114	H	0.705065	0.117854	0.716396
H115	H	0.689072	-0.382092	0.216322
H116	H	1.189072	0.117908	0.716322
H117	H	0.866039	-0.935903	0.213906
H118	H	1.366039	-0.435903	0.713906
H119	H	0.893088	-1.107673	0.240960
H120	H	1.393088	-0.607673	0.740960
Cl121	Cl	1.047063	-0.352407	1.055242
Cl122	Cl	1.547063	0.147593	1.555242
Cl123	Cl	1.028812	-1.045857	0.376912
Cl124	Cl	1.528812	-0.545857	0.876912
Cl125	Cl	0.547614	-0.352462	0.199645
Cl126	Cl	1.047614	0.147538	0.699645
H127	H	1.025369	-0.382187	0.553126
H128	H	1.525369	0.117813	1.053126
H129	H	1.025387	-0.382138	0.681364
H130	H	1.525387	0.117862	1.181364
H131	H	0.980616	-0.898348	0.328677
H132	H	1.480616	-0.398348	0.828677
H133	H	0.540920	-0.624965	0.353145
H134	H	1.040920	-0.124965	0.853145
Cl135	Cl	1.047033	-0.352465	0.895687
Cl136	Cl	1.547033	0.147535	1.395687
Cl137	Cl	0.826767	-0.654128	1.030311
Cl138	Cl	1.326767	-0.154128	1.530311
H139	H	0.333310	-0.382145	0.216374
H140	H	0.833310	0.117855	0.716374
Cl141	Cl	0.826732	-0.654180	0.870762
Cl142	Cl	1.326732	-0.154180	1.370762
Cl143	Cl	0.826706	-0.654244	0.674536
Cl144	Cl	1.326706	-0.154244	1.174536
H145	H	0.848288	-0.624689	0.533083
H146	H	1.348288	-0.124689	1.033083
H147	H	0.313391	-0.624996	0.353177
H148	H	0.813391	-0.124996	0.853177
Cl149	Cl	0.167073	-0.654643	0.369906
Cl150	Cl	0.667073	-0.154643	0.869906
