data_functionalizedCrystal
_audit_creation_method	'MofGen! by Chris Wilmer'
_symmetry_space_group_name_H-M	'P1'
_symmetry_Int_Tables_number	1
_symmetry_cell_setting	triclinic
loop_
_symmetry_equiv_pos_as_xyz
  x,y,z
_cell_length_a	15.624803
_cell_length_b	14.519731
_cell_length_c	14.185569
_cell_angle_alpha	76.818244
_cell_angle_beta	85.691254
_cell_angle_gamma	83.971016
loop_
_atom_site_label
_atom_site_type_symbol
_atom_site_fract_x
_atom_site_fract_y
_atom_site_fract_z
O1	O	1.079930	0.239583	-0.476361
O2	O	1.579930	0.739583	0.023639
O3	O	0.838918	0.231989	-0.388669
O4	O	1.338918	0.731989	0.111331
O5	O	0.965807	0.102125	-0.434828
O6	O	1.465807	0.602125	0.065172
O7	O	0.953041	0.369447	-0.430202
O8	O	1.453041	0.869447	0.069798
O9	O	1.003291	0.063766	-0.281630
O10	O	1.503291	0.563766	0.218370
O11	O	0.876402	0.193631	-0.235470
O12	O	1.376402	0.693631	0.264530
O13	O	1.117414	0.201224	-0.323162
O14	O	1.617414	0.701224	0.176838
Cu15	Cu	1.000330	0.193925	-0.265328
Cu16	Cu	1.500330	0.693925	0.234672
Cu17	Cu	0.956001	0.239289	-0.446503
Cu18	Cu	1.456001	0.739289	0.053497
O19	O	0.990525	0.331089	-0.277003
O20	O	1.490525	0.831089	0.222997
C21	C	0.826815	0.209353	-0.300847
C22	C	1.326815	0.709353	0.199153
C23	C	0.734907	0.199040	-0.267406
C24	C	1.234907	0.699040	0.232594
C25	C	0.330540	0.269641	-0.575059
C26	C	0.830540	0.769641	-0.075059
C27	C	0.244181	0.259932	-0.543635
C28	C	0.744181	0.759932	-0.043635
C29	C	0.285024	0.218113	-0.376616
C30	C	0.785024	0.718113	0.123384
C31	C	0.371389	0.227814	-0.408026
C32	C	0.871389	0.727814	0.091974
C33	C	0.394139	0.253579	-0.507248
C34	C	0.894139	0.753579	-0.007248
C35	C	0.434988	0.211752	-0.340216
C36	C	0.934988	0.711752	0.159784
C37	C	0.521344	0.221457	-0.371623
C38	C	1.021344	0.721457	0.128377
C39	C	0.544102	0.247224	-0.470841
C40	C	1.044102	0.747224	0.029159
C41	C	0.480496	0.263284	-0.538656
C42	C	0.980496	0.763284	-0.038656
C43	C	0.412235	0.185993	-0.240994
C44	C	0.912235	0.685993	0.259006
C45	C	0.475834	0.169931	-0.173183
C46	C	0.975834	0.669931	0.326817
C47	C	0.562193	0.179630	-0.204591
C48	C	1.062193	0.679630	0.295409
C49	C	0.584951	0.205397	-0.303809
C50	C	1.084951	0.705397	0.196191
C51	C	0.625799	0.163570	-0.136776
C52	C	1.125799	0.663570	0.363224
C53	C	0.712156	0.173275	-0.168184
C54	C	1.212156	0.673275	0.331816
C55	C	0.671308	0.215102	-0.335216
C56	C	1.171308	0.715102	0.164784
C57	C	0.983951	0.048532	-0.358011
C58	C	1.483951	0.548532	0.141989
C59	C	0.982159	-0.054011	-0.357359
C60	C	1.482159	0.445989	0.142641
C61	C	0.980703	-0.137286	-0.356831
C62	C	1.480703	0.362714	0.143169
C63	C	0.978882	-0.241758	-0.356176
C64	C	1.478882	0.258242	0.143824
C65	C	0.977436	-0.325026	-0.355657
C66	C	1.477436	0.174974	0.144343
C67	C	0.975616	-0.429505	-0.355000
C68	C	1.475616	0.070495	0.145000
C69	C	1.129516	0.223861	-0.410986
C70	C	1.629516	0.723861	0.089014
C71	C	1.221423	0.234176	-0.444433
C72	C	1.721423	0.734176	0.055567
C73	C	0.972380	0.384682	-0.353822
C74	C	1.472380	0.884682	0.146178
C75	C	0.974170	0.487226	-0.354481
C76	C	1.474170	0.987226	0.145519
N77	N	1.031515	0.162019	-0.137901
N78	N	1.531515	0.662019	0.362099
N79	N	0.924823	0.271188	-0.573932
N80	N	1.424823	0.771188	-0.073932
C81	C	0.833201	0.364889	0.301890
C82	C	1.333201	0.864889	0.801890
C83	C	0.856829	0.340727	0.398317
C84	C	1.356829	0.840727	0.898317
C85	C	0.969212	0.225780	0.357396
C86	C	1.469212	0.725780	0.857396
C87	C	0.945591	0.249929	0.260965
C88	C	1.445591	0.749929	0.760965
C89	C	0.877586	0.319485	0.233220
C90	C	1.377586	0.819485	0.733220
C91	C	0.989975	0.204526	0.192295
C92	C	1.489975	0.704526	0.692295
C93	C	0.966359	0.228676	0.095871
C94	C	1.466359	0.728676	0.595871
C95	C	0.898358	0.298231	0.068118
C96	C	1.398358	0.798231	0.568118
C97	C	0.853969	0.343636	0.136797
C98	C	1.353969	0.843636	0.636797
C99	C	1.057985	0.134975	0.220039
C100	C	1.557985	0.634975	0.720039
C101	C	1.102369	0.089571	0.151369
C102	C	1.602369	0.589571	0.651369
C103	C	1.078749	0.113717	0.054945
C104	C	1.578749	0.613717	0.554945
C105	C	1.010748	0.183272	0.027192
C106	C	1.510748	0.683272	0.527192
C107	C	1.123137	0.068313	-0.013734
C108	C	1.623137	0.568313	0.486266
C109	C	1.099521	0.092463	-0.110157
C110	C	1.599521	0.592463	0.389843
C111	C	0.987131	0.207423	-0.069231
C112	C	1.487131	0.707423	0.430769
H113	H	0.931748	0.264055	-0.091818
H114	H	1.431748	0.764055	0.408182
O115	O	0.355078	0.297417	-0.682082
O116	O	0.855078	0.797417	-0.182082
H117	H	0.400731	0.240685	-0.703026
H118	H	0.900731	0.740685	-0.203026
H119	H	0.777819	0.421521	0.279304
H120	H	1.277819	0.921521	0.779304
O121	O	0.808947	0.389703	0.472381
O122	O	1.308947	0.889703	0.972381
H123	H	0.854619	0.426782	0.503590
H124	H	1.354619	0.926782	1.003590
H125	H	0.763940	0.160200	-0.112965
H126	H	1.263940	0.660200	0.387035
H127	H	0.341915	0.178098	-0.215425
H128	H	0.841915	0.678098	0.284575
O129	O	0.451491	0.142271	-0.066111
O130	O	0.951491	0.642271	0.433889
H131	H	0.470697	0.196366	-0.029681
H132	H	0.970697	0.696366	0.470319
H133	H	0.499020	0.284262	-0.619453
H134	H	0.999020	0.784262	-0.119453
H135	H	0.192398	0.273017	-0.598862
H136	H	0.692398	0.773017	-0.098862
O137	O	1.042557	0.150759	0.387322
O138	O	1.542557	0.650759	0.887322
H139	H	1.051520	0.141587	0.465909
H140	H	1.551520	0.641587	0.965909
O141	O	0.260215	0.190759	-0.269638
O142	O	0.760215	0.690759	0.230362
H143	H	0.228986	0.123281	-0.253734
H144	H	0.728986	0.623281	0.246266
O145	O	1.083466	0.108921	0.324037
O146	O	1.583466	0.608921	0.824037
H147	H	1.027839	0.082025	0.371990
H148	H	1.527839	0.582025	0.871990
H149	H	0.879133	0.317897	-0.010398
H150	H	1.379133	0.817897	0.489602
H151	H	0.607261	0.142600	-0.055989
H152	H	1.107261	0.642600	0.444011
O153	O	0.780619	0.418656	0.106859
O154	O	1.280619	0.918656	0.606859
H155	H	0.753721	0.446177	0.170807
H156	H	1.253721	0.946177	0.670807
O157	O	1.196487	-0.006699	0.016203
O158	O	1.696487	0.493301	0.516203
H159	H	1.256501	0.015707	-0.025808
H160	H	1.756501	0.515707	0.474192
H161	H	1.135664	0.055491	-0.166071
H162	H	1.635664	0.555491	0.333929
O163	O	0.695867	0.242881	-0.442234
O164	O	1.195867	0.742881	0.057766
H165	H	0.662218	0.313192	-0.473615
H166	H	1.162218	0.813192	0.026385
O167	O	0.637241	0.257700	-0.504733
O168	O	1.137241	0.757700	-0.004733
H169	H	0.676125	0.189088	-0.479625
H170	H	1.176125	0.689088	0.020375
O171	O	1.175713	0.014550	0.181295
O172	O	1.675713	0.514550	0.681295
H173	H	1.184677	0.005378	0.259883
H174	H	1.684677	0.505378	0.759883
