data_functionalizedCrystal
_audit_creation_method	'MofGen! by Chris Wilmer'
_symmetry_space_group_name_H-M	'P1'
_symmetry_Int_Tables_number	1
_symmetry_cell_setting	triclinic
loop_
_symmetry_equiv_pos_as_xyz
  x,y,z
_cell_length_a	22.010155
_cell_length_b	14.044220
_cell_length_c	14.044220
_cell_angle_alpha	93.188878
_cell_angle_beta	90.003727
_cell_angle_gamma	89.995721
loop_
_atom_site_label
_atom_site_type_symbol
_atom_site_fract_x
_atom_site_fract_y
_atom_site_fract_z
O1	O	0.050463	-1.277174	-0.230155
O2	O	0.550463	-0.777174	0.269845
O3	O	0.050478	-1.000502	-0.221849
O4	O	0.550478	-0.500502	0.278151
O5	O	0.050465	-1.134685	-0.087666
O6	O	0.550465	-0.634685	0.412334
O7	O	0.050476	-1.142991	-0.364338
O8	O	0.550476	-0.642991	0.135662
O9	O	-0.050586	-1.134660	-0.087686
O10	O	0.449414	-0.634660	0.412314
O11	O	-0.050572	-1.000478	-0.221869
O12	O	0.449428	-0.500478	0.278131
O13	O	-0.050587	-1.277149	-0.230175
O14	O	0.449413	-0.777149	0.269825
Cu15	Cu	-0.059806	-1.138811	-0.226024
Cu16	Cu	0.440194	-0.638811	0.273976
Cu17	Cu	0.059697	-1.138840	-0.226000
Cu18	Cu	0.559697	-0.638840	0.274000
O19	O	-0.050574	-1.142966	-0.364357
O20	O	0.449426	-0.642966	0.135643
C21	C	-0.000045	-0.964868	-0.218223
C22	C	0.499955	-0.464868	0.281777
C23	C	-0.000039	-0.858725	-0.207379
C24	C	0.499961	-0.358725	0.292621
N25	N	-0.143859	-1.138797	-0.226040
N26	N	0.356141	-0.638797	0.273960
C27	C	-0.000060	-1.131037	-0.052054
C28	C	0.499940	-0.631037	0.447946
C29	C	-0.000061	-1.120193	0.054088
C30	C	0.499939	-0.620193	0.554088
C31	C	-0.563644	-1.198261	-0.166594
C32	C	-0.063644	-0.698261	0.333406
C33	C	-0.627252	-1.198265	-0.166587
C34	C	-0.127252	-0.698265	0.333413
O35	O	-0.660148	-1.248786	-0.116053
O36	O	-0.160148	-0.748786	0.383947
N37	N	-0.659066	-1.138838	-0.225980
N38	N	-0.159066	-0.638838	0.274020
C39	C	-0.627269	-1.079396	-0.285376
C40	C	-0.127269	-0.579396	0.214624
O41	O	-0.660170	-1.028849	-0.335893
O42	O	-0.160170	-0.528849	0.164107
C43	C	-0.563663	-1.079388	-0.285377
C44	C	-0.063663	-0.579388	0.214623
C45	C	-0.531852	-1.138826	-0.225987
C46	C	-0.031852	-0.638826	0.274013
C47	C	-0.531833	-1.257693	-0.107208
C48	C	-0.031833	-0.757693	0.392792
C49	C	-0.468230	-1.257691	-0.107216
C50	C	0.031770	-0.757691	0.392784
C51	C	-0.436438	-1.198256	-0.166609
C52	C	0.063562	-0.698256	0.333391
C53	C	-0.468249	-1.138823	-0.225995
C54	C	0.031751	-0.638823	0.274005
C55	C	-0.531867	-1.019942	-0.344767
C56	C	-0.031867	-0.519942	0.155233
C57	C	-0.468257	-1.019939	-0.344762
C58	C	0.031743	-0.519939	0.155238
C59	C	-0.436446	-1.079377	-0.285372
C60	C	0.063554	-0.579377	0.214628
C61	C	-0.372853	-1.079385	-0.285396
C62	C	0.127147	-0.579385	0.214604
N63	N	-0.341039	-1.138812	-0.226003
N64	N	0.158961	-0.638812	0.273997
C65	C	-0.372831	-1.198247	-0.166609
C66	C	0.127169	-0.698247	0.333391
C67	C	-0.760847	-1.079417	-0.285369
C68	C	-0.260847	-0.579417	0.214631
C69	C	-0.824452	-1.079429	-0.285374
C70	C	-0.324452	-0.579429	0.214626
C71	C	-0.824431	-1.198297	-0.166584
C72	C	-0.324431	-0.698297	0.333416
C73	C	-0.760824	-1.198289	-0.166585
C74	C	-0.260824	-0.698289	0.333415
C75	C	-0.729033	-1.138844	-0.225976
C76	C	-0.229033	-0.638844	0.274024
C77	C	-0.239260	-1.198238	-0.166631
C78	C	0.260740	-0.698238	0.333369
C79	C	-0.175651	-1.198232	-0.166647
C80	C	0.324349	-0.698232	0.333353
C81	C	-0.175679	-1.079362	-0.285433
C82	C	0.324321	-0.579362	0.214567
C83	C	-0.239282	-1.079370	-0.285421
C84	C	0.260718	-0.579370	0.214579
C85	C	-0.271071	-1.138811	-0.226012
C86	C	0.228929	-0.638811	0.273988
O87	O	-0.339916	-1.028888	-0.335901
O88	O	0.160084	-0.528888	0.164099
O89	O	-0.339923	-1.248777	-0.116092
O90	O	0.160077	-0.748777	0.383908
N91	N	0.143750	-1.138861	-0.225977
N92	N	0.643750	-0.638861	0.274023
C93	C	-0.000063	-1.312783	-0.233800
C94	C	0.499937	-0.812783	0.266200
C95	C	-0.000064	-1.418926	-0.244645
C96	C	0.499936	-0.918926	0.255355
C97	C	-0.000052	-0.664388	-0.187553
C98	C	0.499948	-0.164388	0.312447
C99	C	-0.000052	-0.613258	-0.264467
C100	C	0.499948	-0.113258	0.235533
C101	C	-0.000059	-0.505122	-0.253435
C102	C	0.499941	-0.005122	0.246565
C103	C	-0.000045	-0.772534	-0.198583
C104	C	0.499955	-0.272534	0.301417
C105	C	-0.000047	-1.146614	-0.399969
C106	C	0.499953	-0.646614	0.100031
C107	C	-0.000043	-1.157459	-0.506112
C108	C	0.499957	-0.657459	-0.006112
C109	C	-0.000051	-1.100366	0.248426
C110	C	0.499949	-0.600366	0.748426
C111	C	-0.000053	-1.177281	0.299556
C112	C	0.499947	-0.677281	0.799556
C113	C	-0.000048	-1.166249	0.407692
C114	C	0.499952	-0.666249	0.907692
C115	C	-0.000056	-1.111397	0.140280
C116	C	0.499944	-0.611397	0.640280
H117	H	-0.149753	-1.246637	-0.118285
H118	H	0.350247	-0.746637	0.381715
H119	H	-0.000045	-1.026239	0.285863
H120	H	0.499955	-0.526239	0.785863
H121	H	-0.265136	-1.246639	-0.118254
H122	H	0.234864	-0.746639	0.381746
H123	H	-0.442333	-1.306087	-0.058853
H124	H	0.057667	-0.806087	0.441147
H125	H	-0.000016	-1.251414	0.262117
H126	H	0.499984	-0.751414	0.762117
F127	F	-0.000058	-0.615455	-0.090661
F128	F	0.499942	-0.115455	0.409339
F129	F	-0.273136	-1.016120	-0.348642
F130	F	0.226864	-0.516120	0.151358
H131	H	-0.557759	-0.971542	-0.393126
H132	H	-0.057759	-0.471542	0.106874
F133	F	-0.726974	-1.261549	-0.103373
F134	F	-0.226974	-0.761549	0.396627
F135	F	-0.565660	-1.320956	-0.043987
F136	F	-0.065660	-0.820956	0.456013
F137	F	-0.858278	-1.261551	-0.103371
F138	F	-0.358278	-0.761551	0.396629
F139	F	-0.858302	-1.016181	-0.348597
F140	F	-0.358302	-0.516181	0.151403
H141	H	-0.734966	-1.031013	-0.333741
H142	H	-0.234966	-0.531013	0.166259
F143	F	-0.434426	-0.956665	-0.407974
F144	F	0.065574	-0.456665	0.092026
H145	H	-0.149783	-1.030973	-0.333793
H146	H	0.350217	-0.530973	0.166207
F147	F	-0.000045	-0.662191	-0.361366
F148	F	0.499955	-0.162191	0.138634
