data_functionalizedCrystal
_audit_creation_method	'MofGen! by Chris Wilmer'
_symmetry_space_group_name_H-M	'P1'
_symmetry_Int_Tables_number	1
_symmetry_cell_setting	triclinic
loop_
_symmetry_equiv_pos_as_xyz
  x,y,z
_cell_length_a	18.050582
_cell_length_b	12.759395
_cell_length_c	12.759394
_cell_angle_alpha	90.016374
_cell_angle_beta	90.019878
_cell_angle_gamma	90.012524
loop_
_atom_site_label
_atom_site_type_symbol
_atom_site_fract_x
_atom_site_fract_y
_atom_site_fract_z
Zn1	Zn	-0.419879	-1.606185	0.418290
Zn2	Zn	0.080121	-1.106185	0.918290
Zn3	Zn	-0.295695	-1.606100	0.593971
Zn4	Zn	0.204305	-1.106100	1.093971
Zn5	Zn	-0.295708	-1.430508	0.418311
Zn6	Zn	0.204292	-0.930508	0.918311
Zn7	Zn	-0.419848	-1.430475	0.593932
Zn8	Zn	0.080152	-0.930475	1.093932
O9	O	-0.357783	-1.518317	0.506126
O10	O	0.142217	-1.018317	1.006126
O11	O	-0.403413	-1.753195	0.441602
O12	O	0.096587	-1.253195	0.941602
O13	O	-0.191772	-1.582785	0.570694
O14	O	0.308228	-1.082785	1.070694
O15	O	-0.312198	-1.453861	0.271287
O16	O	0.187802	-0.953861	0.771287
O17	O	-0.312175	-1.753132	0.570674
O18	O	0.187825	-1.253132	1.070674
O19	O	-0.403426	-1.582930	0.271272
O20	O	0.096574	-1.082930	0.771272
O21	O	-0.191782	-1.453778	0.441638
O22	O	0.308218	-0.953778	0.941638
O23	O	-0.312169	-1.283482	0.441601
O24	O	0.187831	-0.783482	0.941601
O25	O	-0.523777	-1.453805	0.570608
O26	O	-0.023777	-0.953805	1.070608
O27	O	-0.403374	-1.283458	0.570629
O28	O	0.096626	-0.783458	1.070629
O29	O	-0.523800	-1.582899	0.441565
O30	O	-0.023800	-1.082899	0.941565
O31	O	-0.312146	-1.582753	0.740987
O32	O	0.187854	-1.082753	1.240987
O33	O	-0.403361	-1.453723	0.740959
O34	O	0.096639	-0.953723	1.240959
C35	C	-0.357770	-1.245349	0.506113
C36	C	0.142230	-0.745349	1.006113
C37	C	-0.357782	-1.128573	0.506133
C38	C	0.142218	-0.628573	1.006133
C39	C	-0.357765	-1.518254	0.779094
C40	C	0.142235	-1.018254	1.279094
C41	C	-0.357782	-1.518323	0.895870
C42	C	0.142218	-1.018323	1.395870
C43	C	-0.551488	-1.518358	0.506080
C44	C	-0.051488	-1.018358	1.006080
C45	C	-0.634034	-1.518375	0.506060
C46	C	-0.134034	-1.018375	1.006060
C47	C	-0.833473	-1.448228	0.576138
C48	C	-0.333473	-0.948228	1.076138
C49	C	-0.882862	-1.544087	0.601817
C50	C	-0.382862	-1.044087	1.101817
C51	C	-0.785165	-1.518427	0.505980
C52	C	-0.285165	-1.018427	1.005980
C53	C	-0.882857	-1.422621	0.480272
C54	C	-0.382857	-0.922621	0.980272
C55	C	-0.931150	-1.518469	0.505904
C56	C	-0.431150	-1.018469	1.005904
C57	C	-0.833467	-1.614336	0.531709
C58	C	-0.333467	-1.114336	1.031709
C59	C	-0.833457	-1.492806	0.410119
C60	C	-0.333457	-0.992806	0.910119
C61	C	-0.882824	-1.588731	0.435761
C62	C	-0.382824	-1.088731	0.935761
C63	C	-0.701066	-1.518402	0.506026
C64	C	-0.201066	-1.018402	1.006026
C65	C	-1.015246	-1.518505	0.505858
C66	C	-0.515246	-1.018505	1.005858
C67	C	-0.164831	-1.518336	0.506097
C68	C	0.335169	-1.018336	1.006097
C69	C	-0.082285	-1.518522	0.505821
C70	C	0.417715	-1.018522	1.005821
C71	C	-0.357796	-1.792350	0.506140
C72	C	0.142204	-1.292350	1.006140
C73	C	-0.357802	-1.909127	0.506146
C74	C	0.142198	-1.409127	1.006146
C75	C	-0.452600	-1.128586	0.640708
C76	C	0.047400	-0.628586	1.140708
C77	C	-0.500012	-1.073732	0.708003
C78	C	-0.000012	-0.573732	1.208003
C79	C	-0.500021	-0.964011	0.708016
C80	C	-0.000021	-0.464011	1.208016
C81	C	-0.452615	-0.909141	0.640724
C82	C	0.047385	-0.409141	1.140724
C83	C	-0.405204	-0.963994	0.573428
C84	C	0.094796	-0.463994	1.073428
C85	C	-0.405198	-1.073719	0.573425
C86	C	0.094802	-0.573719	1.073425
C87	C	-0.310390	-0.963981	0.438850
C88	C	0.189610	-0.463981	0.938850
C89	C	-0.310376	-1.073702	0.438841
C90	C	0.189624	-0.573702	0.938841
C91	C	-0.262984	-0.909111	0.371558
C92	C	0.237016	-0.409111	0.871558
C93	C	-0.215568	-0.963965	0.304267
C94	C	0.284432	-0.463965	0.804267
C95	C	-0.215560	-1.073693	0.304257
C96	C	0.284440	-0.573693	0.804257
C97	C	-0.262965	-1.128556	0.371546
C98	C	0.237035	-0.628556	0.871546
C99	C	-0.357817	-1.518409	0.232093
C100	C	0.142183	-1.018409	0.732093
C101	C	-0.357832	-1.518448	0.115316
C102	C	0.142168	-1.018448	0.615316
C103	C	-0.262871	-1.652783	0.895847
C104	C	0.237129	-1.152783	1.395847
C105	C	-0.215424	-1.720041	0.950696
C106	C	0.284576	-1.220041	1.450696
C107	C	-0.215444	-1.720102	1.060417
C108	C	0.284556	-1.220102	1.560417
C109	C	-0.262918	-1.652901	1.115292
C110	C	0.237082	-1.152901	1.615292
C111	C	-0.310364	-1.585644	1.060443
C112	C	0.189636	-1.085644	1.560443
C113	C	-0.310338	-1.585587	0.950719
C114	C	0.189662	-1.085587	1.450719
C115	C	-0.405278	-1.451190	1.060467
C116	C	0.094722	-0.951190	1.560467
C117	C	-0.405256	-1.451122	0.950746
C118	C	0.094744	-0.951122	1.450746
C119	C	-0.452752	-1.383989	1.115342
C120	C	0.047248	-0.883989	1.615342
C121	C	-0.500196	-1.316725	1.060494
C122	C	-0.000196	-0.816725	1.560494
C123	C	-0.500174	-1.316665	0.950765
C124	C	-0.000174	-0.816665	1.450765
C125	C	-0.452702	-1.383864	0.895897
C126	C	0.047298	-0.883864	1.395897
H127	H	-0.811804	-1.388919	0.635546
H128	H	-0.311804	-0.888919	1.135546
H129	H	-0.176957	-1.118348	0.249450
H130	H	0.323043	-0.618348	0.749450
H131	H	-0.904357	-1.648182	0.376399
H132	H	-0.404357	-1.148182	0.876399
C133	C	-0.262956	-1.249253	0.371549
C134	C	0.237044	-0.749253	0.871549
N135	N	-0.262952	-1.340163	0.371554
N136	N	0.237048	-0.840163	0.871554
C137	C	-0.262941	-1.652978	1.235989
C138	C	0.237059	-1.152978	1.735989
N139	N	-0.262958	-1.653034	1.326899
N140	N	0.237042	-1.153034	1.826899
H141	H	-0.811740	-1.471082	0.329107
H142	H	-0.311740	-0.971082	0.829107
C143	C	-0.912184	-1.573395	0.711290
C144	C	-0.412184	-1.073395	1.211290
N145	N	-0.934267	-1.595462	0.793747
N146	N	-0.434267	-1.095462	1.293747
H147	H	-0.538610	-1.118420	0.762789
H148	H	-0.038610	-0.618420	1.262789
H149	H	-0.811863	-1.695399	0.553513
H150	H	-0.311863	-1.195399	1.053513
C151	C	-0.912163	-1.313140	0.450934
C152	C	-0.412163	-0.813140	0.950934
N153	N	-0.934232	-1.230677	0.428843
N154	N	-0.434232	-0.730677	0.928843
H155	H	-0.538814	-1.261900	0.906113
H156	H	-0.038814	-0.761900	1.406113
H157	H	-0.452592	-1.217927	0.640712
H158	H	0.047408	-0.717927	1.140712
H159	H	-0.538631	-0.919349	0.762808
H160	H	-0.038631	-0.419349	1.262808
H161	H	-0.452633	-0.819799	0.640731
H162	H	0.047367	-0.319799	1.140731
C163	C	-0.163430	-0.903601	0.230251
C164	C	0.336570	-0.403601	0.730251
N165	N	-0.124157	-0.858131	0.174502
N166	N	0.375843	-0.358131	0.674502
H167	H	-0.262998	-0.819769	0.371569
H168	H	0.237002	-0.319769	0.871569
H169	H	-0.262840	-1.652726	0.806506
H170	H	0.237160	-1.152726	1.306506
H171	H	-0.176772	-1.774758	0.906007
H172	H	0.323228	-1.274758	1.406007
H173	H	-0.176812	-1.774874	1.105075
H174	H	0.323188	-1.274874	1.605075
C175	C	-0.452771	-1.384057	1.236039
C176	C	0.047229	-0.884057	1.736039
N177	N	-0.452784	-1.384102	1.326950
N178	N	0.047216	-0.884102	1.826950
C179	C	-0.552410	-1.242810	1.120863
C180	C	-0.052410	-0.742810	1.620863
N181	N	-0.591737	-1.187133	1.166337
N182	N	-0.091737	-0.687133	1.666337
H183	H	-0.452675	-1.383815	0.806556
H184	H	0.047325	-0.883815	1.306556
