data_functionalizedCrystal
_audit_creation_method	'MofGen! by Chris Wilmer'
_symmetry_space_group_name_H-M	'P1'
_symmetry_Int_Tables_number	1
_symmetry_cell_setting	triclinic
loop_
_symmetry_equiv_pos_as_xyz
  x,y,z
_cell_length_a	19.288840
_cell_length_b	19.288865
_cell_length_c	17.766277
_cell_angle_alpha	90.006751
_cell_angle_beta	90.013814
_cell_angle_gamma	83.131131
loop_
_atom_site_label
_atom_site_type_symbol
_atom_site_fract_x
_atom_site_fract_y
_atom_site_fract_z
O1	O	-0.921362	-0.086561	-0.062728
O2	O	-0.421362	0.413439	0.437272
O3	O	-0.719099	-0.098268	-0.062704
O4	O	-0.219099	0.401732	0.437296
O5	O	-0.826075	0.008716	-0.062702
O6	O	-0.326075	0.508716	0.437298
O7	O	-0.814386	-0.193546	-0.062730
O8	O	-0.314386	0.306454	0.437270
O9	O	-0.826061	0.008712	0.062487
O10	O	-0.326061	0.508712	0.562487
O11	O	-0.719085	-0.098272	0.062485
O12	O	-0.219085	0.401728	0.562485
O13	O	-0.921348	-0.086565	0.062460
O14	O	-0.421348	0.413435	0.562460
Cu15	Cu	-0.820215	-0.092419	0.073903
Cu16	Cu	-0.320215	0.407581	0.573903
Cu17	Cu	-0.820232	-0.092414	-0.074147
Cu18	Cu	-0.320232	0.407586	0.425853
O19	O	-0.814372	-0.193549	0.062458
O20	O	-0.314372	0.306451	0.562458
C21	C	-0.693215	-0.097896	-0.000106
C22	C	-0.193215	0.402104	0.499894
C23	C	-0.616110	-0.096774	-0.000096
C24	C	-0.116110	0.403226	0.499904
C25	C	-0.825692	0.034591	-0.000105
C26	C	-0.325692	0.534591	0.499895
C27	C	-0.824563	0.111694	-0.000099
C28	C	-0.324563	0.611694	0.499901
C29	C	-0.947232	-0.086937	-0.000139
C30	C	-0.447232	0.413063	0.499861
C31	C	-1.024336	-0.088059	-0.000154
C32	C	-0.524336	0.411941	0.499846
C33	C	-0.579915	-0.096233	-0.068338
C34	C	-0.079915	0.403767	0.431662
C35	C	-0.507468	-0.095171	-0.068347
C36	C	-0.007468	0.404829	0.431653
C37	C	-0.471221	-0.094636	-0.000110
C38	C	0.028779	0.405364	0.499890
C39	C	-0.507425	-0.095181	0.068141
C40	C	-0.007425	0.404819	0.568141
C41	C	-0.579870	-0.096250	0.068148
C42	C	-0.079870	0.403750	0.568148
C43	C	-0.361888	-0.052260	0.052164
C44	C	0.138112	0.447740	0.552164
C45	C	-0.289445	-0.051187	0.052155
C46	C	0.210555	0.448813	0.552155
C47	C	-0.247778	-0.091342	-0.000129
C48	C	0.252222	0.408658	0.499871
C49	C	-0.278563	-0.132562	-0.052416
C50	C	0.221437	0.367438	0.447584
C51	C	-0.351008	-0.133631	-0.052408
C52	C	0.148992	0.366369	0.447592
C53	C	-0.392667	-0.093477	-0.000110
C54	C	0.107333	0.406523	0.499890
C55	C	-0.133027	-0.089650	-0.068386
C56	C	0.366973	0.410350	0.431614
C57	C	-0.060578	-0.088593	-0.068392
C58	C	0.439422	0.411407	0.431608
C59	C	-0.060537	-0.088596	0.068098
C60	C	0.439463	0.411404	0.568098
C61	C	-0.132984	-0.089661	0.068102
C62	C	0.367016	0.410339	0.568102
C63	C	-0.169225	-0.090185	-0.000142
C64	C	0.330775	0.409815	0.499858
N65	N	-0.820208	-0.092422	0.178034
N66	N	-0.320208	0.407578	0.678034
C67	C	-0.814755	-0.219424	-0.000140
C68	C	-0.314755	0.280576	0.499860
C69	C	-0.815884	-0.296527	-0.000152
C70	C	-0.315884	0.203473	0.499848
C71	C	-0.887331	0.156396	-0.000103
C72	C	-0.387331	0.656396	0.499897
C73	C	-0.886270	0.228843	-0.000114
C74	C	-0.386270	0.728843	0.499886
C75	C	-0.822438	0.256585	-0.000107
C76	C	-0.322438	0.756585	0.499893
C77	C	-0.759661	0.211873	-0.000107
C78	C	-0.259661	0.711873	0.499893
C79	C	-0.760723	0.139428	-0.000103
C80	C	-0.260723	0.639428	0.499897
C81	C	-0.772252	0.364866	0.043750
C82	C	-0.272252	0.864866	0.543750
C83	C	-0.771193	0.437311	0.043750
C84	C	-0.271193	0.937311	0.543750
C85	C	-0.819158	0.480030	-0.000123
C86	C	-0.319158	0.980030	0.499877
C87	C	-0.868195	0.450298	-0.043988
C88	C	-0.368195	0.950298	0.456012
C89	C	-0.869257	0.377852	-0.043984
C90	C	-0.369257	0.877852	0.456016
C91	C	-0.821278	0.335139	-0.000112
C92	C	-0.321278	0.835139	0.499888
C93	C	-0.880781	0.603288	-0.000141
C94	C	-0.380781	1.103288	0.499859
C95	C	-0.879717	0.675736	-0.000158
C96	C	-0.379717	1.175736	0.499842
C97	C	-0.753106	0.658764	-0.000143
C98	C	-0.253106	1.158764	0.499857
C99	C	-0.754171	0.586318	-0.000134
C100	C	-0.254171	1.086318	0.499866
C101	C	-0.818010	0.558584	-0.000130
C102	C	-0.318010	1.058584	0.499870
N103	N	-0.820244	-0.092406	-0.178277
N104	N	-0.320244	0.407594	0.321723
C105	C	-0.862237	-0.134416	0.782310
C106	C	-0.362237	0.365584	1.282310
C107	C	-0.862230	-0.134423	0.703508
C108	C	-0.362230	0.365577	1.203508
C109	C	-0.820238	-0.092407	0.664122
C110	C	-0.320238	0.407593	1.164122
C111	C	-0.778236	-0.050394	0.703545
C112	C	-0.278236	0.449606	1.203545
C113	C	-0.778239	-0.050394	0.782345
C114	C	-0.278239	0.449606	1.282345
C115	C	-0.818512	-0.029782	0.539288
C116	C	-0.318512	0.470218	1.039288
C117	C	-0.818514	-0.029781	0.460489
C118	C	-0.318514	0.470219	0.960489
C119	C	-0.820225	-0.092408	0.421076
C120	C	-0.320225	0.407592	0.921076
C121	C	-0.821949	-0.155038	0.460472
C122	C	-0.321949	0.344962	0.960472
C123	C	-0.821952	-0.155037	0.539272
C124	C	-0.321952	0.344963	1.039272
C125	C	-0.820230	-0.092403	0.578677
C126	C	-0.320230	0.407597	1.078677
C127	C	-0.862213	-0.134429	0.296217
C128	C	-0.362213	0.365571	0.796217
C129	C	-0.862201	-0.134437	0.217414
C130	C	-0.362201	0.365563	0.717414
C131	C	-0.778212	-0.050402	0.217452
C132	C	-0.278212	0.449598	0.717452
C133	C	-0.778219	-0.050400	0.296254
C134	C	-0.278219	0.449600	0.796254
C135	C	-0.820224	-0.092413	0.335632
C136	C	-0.320224	0.407587	0.835632
H137	H	-0.609417	-0.096660	-0.123907
H138	H	-0.109417	0.403340	0.376093
H139	H	-0.162456	-0.090097	0.123672
H140	H	0.337544	0.409903	0.623672
Br141	Br	-0.458334	-0.094438	-0.160968
Br142	Br	0.041666	0.405562	0.339032
Br143	Br	-0.222024	-0.187064	-0.123376
Br144	Br	0.277976	0.312936	0.376624
Br145	Br	-0.707151	0.306897	0.103299
Br146	Br	-0.207151	0.806897	0.603299
Br147	Br	-0.919178	-0.191476	0.163922
Br148	Br	-0.419178	0.308524	0.663922
H149	H	-0.932763	0.580706	-0.000141
H150	H	-0.432763	1.080706	0.499859
Br151	Br	-0.182214	-0.090366	-0.161000
Br152	Br	0.317786	0.409634	0.339000
Br153	Br	-0.919239	-0.191437	0.835748
Br154	Br	-0.419239	0.308563	1.335748
Br155	Br	-0.824288	-0.240030	0.592736
Br156	Br	-0.324288	0.259970	1.092736
Br157	Br	-0.935801	0.337502	-0.103515
Br158	Br	-0.435801	0.837502	0.396485
H159	H	-0.477908	-0.094748	0.123700
H160	H	0.022092	0.405252	0.623700
Br161	Br	-0.721243	0.006624	0.835839
Br162	Br	-0.221243	0.506624	1.335839
Br163	Br	-0.668980	0.525647	-0.000128
Br164	Br	-0.168980	1.025647	0.499872
Br165	Br	-0.721213	0.006613	0.164009
Br166	Br	-0.221213	0.506613	0.664009
H167	H	-0.744027	-0.016188	0.328345
H168	H	-0.244027	0.483812	0.828345
Br169	Br	-0.816170	0.055213	0.407031
Br170	Br	-0.316170	0.555213	0.907031
H171	H	-0.823343	-0.206035	0.428383
H172	H	-0.323343	0.293965	0.928383
H173	H	-0.907253	0.485079	-0.079715
H174	H	-0.407253	0.985079	0.420285
H175	H	-0.930833	0.712132	-0.000165
H176	H	-0.430833	1.212132	0.499835
Br177	Br	-0.675530	0.078756	-0.000100
Br178	Br	-0.175530	0.578756	0.499900
H179	H	-0.817112	0.021219	0.571371
H180	H	-0.317112	0.521219	1.071371
Br181	Br	-0.666474	0.696406	-0.000141
Br182	Br	-0.166474	1.196406	0.499859
Br183	Br	-0.392787	-0.189571	-0.123362
Br184	Br	0.107213	0.310429	0.376638
Br185	Br	-0.011452	-0.087867	-0.161015
Br186	Br	0.488548	0.412133	0.338985
H187	H	-0.731261	0.461512	0.079463
H188	H	-0.231261	0.961512	0.579463
Br189	Br	-0.721241	0.006623	0.650096
Br190	Br	-0.221241	0.506623	1.150096
Br191	Br	-0.418429	0.002239	0.123130
Br192	Br	0.081571	0.502239	0.623130
Br193	Br	-0.011352	-0.087880	0.160707
Br194	Br	0.488648	0.412120	0.660707
H195	H	-0.707687	0.234465	-0.000103
H196	H	-0.207687	0.734465	0.499897
Br197	Br	-0.247670	0.004736	0.123128
Br198	Br	0.252330	0.504736	0.623128
H199	H	-0.609340	-0.096692	0.123721
H200	H	-0.109340	0.403308	0.623721
Br201	Br	-0.919236	-0.191430	0.650007
Br202	Br	-0.419236	0.308570	1.150007
Br203	Br	-0.973970	0.118761	-0.000118
Br204	Br	-0.473970	0.618761	0.499882
H205	H	-0.937386	0.265246	-0.000121
H206	H	-0.437386	0.765246	0.499879
Br207	Br	-0.919217	-0.191446	0.349663
Br208	Br	-0.419217	0.308554	0.849663
