data_functionalizedCrystal
_audit_creation_method	'MofGen! by Chris Wilmer'
_symmetry_space_group_name_H-M	'P1'
_symmetry_Int_Tables_number	1
_symmetry_cell_setting	triclinic
loop_
_symmetry_equiv_pos_as_xyz
  x,y,z
_cell_length_a	11.792241
_cell_length_b	11.792241
_cell_length_c	26.210047
_cell_angle_alpha	89.993828
_cell_angle_beta	89.980398
_cell_angle_gamma	84.193416
loop_
_atom_site_label
_atom_site_type_symbol
_atom_site_fract_x
_atom_site_fract_y
_atom_site_fract_z
O1	O	-1.506942	-0.155567	0.042372
O2	O	-1.006942	0.344433	0.542372
O3	O	-1.176601	-0.171600	0.042386
O4	O	-0.676601	0.328400	0.542386
O5	O	-1.349788	0.001587	0.042375
O6	O	-0.849788	0.501587	0.542375
O7	O	-1.333755	-0.328754	0.042383
O8	O	-0.833755	0.171246	0.542383
O9	O	-1.349707	0.001590	-0.042483
O10	O	-0.849707	0.501590	0.457517
O11	O	-1.176520	-0.171596	-0.042472
O12	O	-0.676520	0.328404	0.457528
O13	O	-1.506861	-0.155564	-0.042486
O14	O	-1.006861	0.344436	0.457514
Cu15	Cu	-1.341683	-0.163580	-0.050227
Cu16	Cu	-0.841683	0.336420	0.449773
Cu17	Cu	-1.341779	-0.163583	0.050127
Cu18	Cu	-0.841779	0.336417	0.550127
O19	O	-1.333674	-0.328751	-0.042475
O20	O	-0.833674	0.171249	0.457525
C21	C	-1.134269	-0.170591	-0.000042
C22	C	-0.634269	0.329409	0.499958
C23	C	-1.008255	-0.167576	-0.000037
C24	C	-0.508255	0.332424	0.499963
C25	C	-0.777543	-0.162034	-0.000050
C26	C	-0.277543	0.337966	0.499950
C27	C	-0.905928	-0.165113	-0.000043
C28	C	-0.405928	0.334887	0.499957
N29	N	-1.341624	-0.163577	-0.120811
N30	N	-0.841624	0.336423	0.379189
C31	C	-1.348740	0.043880	-0.000054
C32	C	-0.848740	0.543880	0.499946
C33	C	-1.345726	0.169894	-0.000053
C34	C	-0.845726	0.669894	0.499947
C35	C	-0.549192	-0.156572	-0.000056
C36	C	-0.049192	0.343428	0.499944
C37	C	-0.675206	-0.159587	-0.000054
C38	C	-0.175206	0.340413	0.499946
C39	C	-1.334721	-0.371043	-0.000045
C40	C	-0.834721	0.128957	0.499955
C41	C	-1.337736	-0.497057	-0.000043
C42	C	-0.837736	0.002943	0.499957
C43	C	-1.340183	0.400606	-0.000045
C44	C	-0.840183	0.900606	0.499955
C45	C	-1.343262	0.272221	-0.000049
C46	C	-0.843262	0.772221	0.499951
C47	C	-1.265017	-0.240233	-0.526774
C48	C	-0.765017	0.259767	-0.026774
C49	C	-1.264962	-0.240233	-0.313115
C50	C	-0.764962	0.259767	0.186885
O51	O	-1.199693	-0.305396	-0.285493
O52	O	-0.699693	0.194604	0.214507
N53	N	-1.341660	-0.163573	-0.286395
N54	N	-0.841660	0.336427	0.213605
C55	C	-1.418371	-0.086903	-0.313093
C56	C	-0.918371	0.413097	0.186907
O57	O	-1.483598	-0.021692	-0.285463
O58	O	-0.983598	0.478308	0.214537
C59	C	-1.418420	-0.086899	-0.526750
C60	C	-0.918420	0.413101	-0.026750
C61	C	-1.341725	-0.163571	-0.553468
C62	C	-0.841725	0.336429	-0.053468
C63	C	-1.188327	-0.316898	-0.553492
C64	C	-0.688327	0.183102	-0.053492
C65	C	-1.188346	-0.316902	-0.606903
C66	C	-0.688346	0.183098	-0.106903
C67	C	-1.265054	-0.240240	-0.633597
C68	C	-0.765054	0.259760	-0.133597
C69	C	-1.341743	-0.163575	-0.606879
C70	C	-0.841743	0.336425	-0.106879
C71	C	-1.495125	-0.010224	-0.553447
C72	C	-0.995125	0.489776	-0.053447
C73	C	-1.495128	-0.010228	-0.606865
C74	C	-0.995128	0.489772	-0.106865
C75	C	-1.418434	-0.086900	-0.633582
C76	C	-0.918434	0.413100	-0.133582
C77	C	-1.418470	-0.086916	-0.686985
C78	C	-0.918470	0.413084	-0.186985
N79	N	-1.341772	-0.163576	-0.713705
N80	N	-0.841772	0.336424	-0.213705
C81	C	-1.265064	-0.240238	-0.687011
C82	C	-0.765064	0.259762	-0.187011
C83	C	-1.418342	-0.086913	-0.200919
C84	C	-0.918342	0.413087	0.299081
C85	C	-1.418332	-0.086915	-0.147505
C86	C	-0.918332	0.413085	0.352495
C87	C	-1.264921	-0.240243	-0.147532
C88	C	-0.764921	0.259757	0.352468
C89	C	-1.264937	-0.240246	-0.200947
C90	C	-0.764937	0.259754	0.299053
C91	C	-1.341645	-0.163572	-0.227640
C92	C	-0.841645	0.336428	0.272360
C93	C	-1.265110	-0.240240	-0.799179
C94	C	-0.765110	0.259760	-0.299179
C95	C	-1.265138	-0.240239	-0.852595
C96	C	-0.765138	0.259761	-0.352595
C97	C	-1.418545	-0.086907	-0.852564
C98	C	-0.918545	0.413093	-0.352564
C99	C	-1.418521	-0.086911	-0.799153
C100	C	-0.918521	0.413089	-0.299153
C101	C	-1.341794	-0.163581	-0.772461
C102	C	-0.841794	0.336419	-0.272461
O103	O	-1.483697	-0.021778	-0.714640
O104	O	-0.983697	0.478222	-0.214640
O105	O	-1.199830	-0.305422	-0.714650
O106	O	-0.699830	0.194578	-0.214650
C107	C	-1.264998	-0.240229	-0.473363
C108	C	-0.764998	0.259771	0.026637
C109	C	-1.341688	-0.163564	-0.446645
C110	C	-0.841688	0.336436	0.053355
C111	C	-1.418396	-0.086902	-0.473339
C112	C	-0.918396	0.413098	0.026661
C113	C	-1.341677	-0.163567	-0.393231
C114	C	-0.841677	0.336433	0.106769
C115	C	-1.264969	-0.240228	-0.366537
C116	C	-0.764969	0.259772	0.133463
C117	C	-1.188271	-0.316888	-0.393257
C118	C	-0.688271	0.183112	0.106743
C119	C	-1.188290	-0.316891	-0.446669
C120	C	-0.688290	0.183109	0.053331
C121	C	-1.495093	-0.010243	-0.446618
C122	C	-0.995093	0.489757	0.053382
C123	C	-1.495069	-0.010247	-0.393207
C124	C	-0.995069	0.489753	0.106793
C125	C	-1.418361	-0.086908	-0.366513
C126	C	-0.918361	0.413092	0.133487
N127	N	-1.341847	-0.163578	0.120711
N128	N	-0.841847	0.336422	0.620711
H129	H	-1.202684	-0.302679	-0.874347
H130	H	-0.702684	0.197321	-0.374347
F131	F	-1.106636	-0.398481	-0.364839
F132	F	-0.606636	0.101519	0.135161
H133	H	-1.480809	-0.024474	-0.222649
H134	H	-0.980809	0.475526	0.277351
H135	H	-1.557557	0.052186	-0.468348
H136	H	-1.057557	0.552186	0.031652
H137	H	-1.125838	-0.379325	-0.468418
H138	H	-0.625838	0.120675	0.031582
F139	F	-1.500161	-0.005319	-0.770719
F140	F	-1.000161	0.494681	-0.270719
F141	F	-1.576753	0.071382	-0.525022
F142	F	-1.076753	0.571382	-0.025022
F143	F	-1.183448	-0.321841	-0.770780
F144	F	-0.683448	0.178159	-0.270780
F145	F	-1.106712	-0.398501	-0.635333
F146	F	-0.606712	0.101499	-0.135333
F147	F	-1.106676	-0.398498	-0.525089
F148	F	-0.606676	0.101502	-0.025089
F149	F	-1.183308	-0.321849	-0.229377
F150	F	-0.683308	0.178151	0.270623
H151	H	-1.202463	-0.302666	-0.125789
H152	H	-0.702463	0.197334	0.374211
F153	F	-1.576710	0.071359	-0.364777
F154	F	-1.076710	0.571359	0.135223
F155	F	-1.500183	-0.005324	-0.880982
F156	F	-1.000183	0.494676	-0.380982
H157	H	-1.480796	-0.024493	-0.125755
H158	H	-0.980796	0.475507	0.374245
F159	F	-1.576771	0.071384	-0.635270
F160	F	-1.076771	0.571384	-0.135270
