data_functionalizedCrystal
_audit_creation_method	'MofGen! by Chris Wilmer'
_symmetry_space_group_name_H-M	'P1'
_symmetry_Int_Tables_number	1
_symmetry_cell_setting	triclinic
loop_
_symmetry_equiv_pos_as_xyz
  x,y,z
_cell_length_a	18.215407
_cell_length_b	18.101395
_cell_length_c	18.215399
_cell_angle_alpha	89.971163
_cell_angle_beta	89.983176
_cell_angle_gamma	90.031552
loop_
_atom_site_label
_atom_site_type_symbol
_atom_site_fract_x
_atom_site_fract_y
_atom_site_fract_z
Zn1	Zn	1.125018	-0.294811	-0.416124
Zn2	Zn	1.625018	0.205189	0.083876
Zn3	Zn	1.124920	-0.418662	-0.293061
Zn4	Zn	1.624920	0.081338	0.206939
Zn5	Zn	1.001957	-0.294840	-0.293071
Zn6	Zn	1.501957	0.205160	0.206929
Zn7	Zn	1.001903	-0.418616	-0.416086
Zn8	Zn	1.501903	0.081384	0.083914
O9	O	1.063450	-0.356732	-0.354585
O10	O	1.563450	0.143268	0.145415
O11	O	1.227989	-0.311247	-0.399811
O12	O	1.727989	0.188753	0.100189
O13	O	1.108590	-0.402269	-0.190078
O14	O	1.608590	0.097731	0.309922
O15	O	1.018345	-0.191203	-0.309415
O16	O	1.518345	0.308797	0.190585
O17	O	1.227917	-0.402240	-0.309397
O18	O	1.727917	0.097760	0.190603
O19	O	1.108758	-0.191182	-0.399821
O20	O	1.608758	0.308818	0.100179
O21	O	1.018250	-0.311297	-0.190085
O22	O	1.518250	0.188703	0.309915
O23	O	0.898966	-0.311252	-0.309378
O24	O	1.398966	0.188748	0.190622
O25	O	1.018254	-0.402161	-0.519075
O26	O	1.518254	0.097839	-0.019075
O27	O	0.898926	-0.402190	-0.399756
O28	O	1.398926	0.097810	0.100244
O29	O	1.108706	-0.311202	-0.519103
O30	O	1.608706	0.188798	-0.019103
O31	O	1.108538	-0.522289	-0.309360
O32	O	1.608538	-0.022289	0.190640
O33	O	1.018158	-0.522255	-0.399746
O34	O	1.518158	-0.022255	0.100254
C35	C	0.872243	-0.356720	-0.354564
C36	C	1.372243	0.143280	0.145436
C37	C	0.790445	-0.356732	-0.354573
C38	C	1.290445	0.143268	0.145427
C39	C	1.063351	-0.549143	-0.354564
C40	C	1.563351	-0.049143	0.145436
C41	C	1.063376	-0.631457	-0.354579
C42	C	1.563376	-0.131457	0.145421
C43	C	0.602249	-0.404158	-0.401573
C44	C	1.102249	0.095842	0.098427
C45	C	0.525391	-0.404160	-0.401583
C46	C	1.025391	0.095840	0.098417
C47	C	0.525402	-0.309320	-0.307613
C48	C	1.025402	0.190680	0.192387
C49	C	0.602260	-0.309315	-0.307608
C50	C	1.102260	0.190685	0.192392
C51	C	0.640681	-0.356738	-0.354587
C52	C	1.140681	0.143262	0.145413
C53	C	0.486965	-0.356746	-0.354601
C54	C	0.986965	0.143254	0.145399
C55	C	0.403631	-0.356748	-0.354611
C56	C	0.903631	0.143252	0.145389
C57	C	0.724020	-0.356735	-0.354579
C58	C	1.224020	0.143265	0.145421
C59	C	1.063538	-0.930548	-0.354619
C60	C	1.563538	-0.430548	0.145381
C61	C	1.006805	-0.899232	-0.411628
C62	C	1.506805	-0.399232	0.088372
C63	C	1.006536	-0.813614	-0.411450
C64	C	1.506536	-0.313614	0.088550
C65	C	1.063458	-0.782165	-0.354600
C66	C	1.563458	-0.282165	0.145400
C67	C	1.042464	-0.813319	-0.277038
C68	C	1.542464	-0.313319	0.222962
C69	C	1.042098	-0.898964	-0.277380
C70	C	1.542098	-0.398964	0.222620
C71	C	1.141388	-0.898890	-0.374487
C72	C	1.641388	-0.398890	0.125513
C73	C	1.140931	-0.813239	-0.376188
C74	C	1.640931	-0.313239	0.123812
C75	C	1.063414	-0.698306	-0.354584
C76	C	1.563414	-0.198306	0.145416
C77	C	1.063580	-1.014407	-0.354629
C78	C	1.563580	-0.514407	0.145371
C79	C	1.255403	-0.356746	-0.354607
C80	C	1.755403	0.143254	0.145393
C81	C	1.337201	-0.356751	-0.354616
C82	C	1.837201	0.143249	0.145384
C83	C	1.063484	-0.356673	-0.546538
C84	C	1.563484	0.143327	-0.046538
C85	C	1.063499	-0.356648	-0.628337
C86	C	1.563499	0.143352	-0.128337
C87	C	1.063569	-0.163570	-0.354623
C88	C	1.563569	0.336430	0.145377
C89	C	1.063619	-0.081256	-0.354639
C90	C	1.563619	0.418744	0.145361
C91	C	1.016499	-0.309247	-0.816536
C92	C	1.516499	0.190753	-0.316536
C93	C	1.016512	-0.309232	-0.893395
C94	C	1.516512	0.190768	-0.393395
C95	C	1.110588	-0.403961	-0.893376
C96	C	1.610588	0.096039	-0.393376
C97	C	1.110571	-0.403979	-0.816519
C98	C	1.610571	0.096021	-0.316519
C99	C	1.063527	-0.356618	-0.778101
C100	C	1.563527	0.143382	-0.278101
C101	C	1.063557	-0.356585	-0.931817
C102	C	1.563557	0.143415	-0.431817
C103	C	1.063571	-0.356569	-1.015151
C104	C	1.563571	0.143431	-0.515151
C105	C	1.063512	-0.356634	-0.694762
C106	C	1.563512	0.143366	-0.194762
C107	C	1.063457	-0.356738	-0.163379
C108	C	1.563457	0.143262	0.336621
C109	C	1.063585	-0.356554	-0.081580
C110	C	1.563585	0.143446	0.418420
H111	H	0.633530	-0.442771	-0.439829
H112	H	1.133530	0.057229	0.060171
H113	H	1.183656	-0.919141	-0.332965
H114	H	1.683656	-0.419141	0.167035
H115	H	0.949451	-0.920819	-0.398633
H116	H	1.449451	-0.420819	0.101367
H117	H	0.978193	-0.270683	-0.785258
H118	H	1.478193	0.229317	-0.285258
C119	C	1.162309	-0.456083	-0.774231
C120	C	1.662309	0.043917	-0.274231
C121	C	1.130376	-0.514234	-0.721372
C122	C	1.630376	-0.014234	-0.221372
C123	C	1.182111	-0.566335	-0.679081
C124	C	1.682111	-0.066335	-0.179081
C125	C	1.265779	-0.560286	-0.689650
C126	C	1.765779	-0.060286	-0.189650
C127	C	1.297716	-0.502132	-0.742511
C128	C	1.797716	-0.002132	-0.242511
C129	C	1.245981	-0.450031	-0.784802
C130	C	1.745981	0.049969	-0.284802
H131	H	1.068436	-0.518715	-0.713546
H132	H	1.568436	-0.018715	-0.213546
H133	H	1.158468	-0.609385	-0.639950
H134	H	1.658468	-0.109385	-0.139950
H135	H	1.304076	-0.598854	-0.658344
H136	H	1.804076	-0.098854	-0.158344
H137	H	1.359656	-0.497652	-0.750337
H138	H	1.859656	0.002348	-0.250337
H139	H	1.269624	-0.406982	-0.823933
H140	H	1.769624	0.093018	-0.323933
H141	H	0.978216	-0.270659	-0.924685
H142	H	1.478216	0.229341	-0.424685
C143	C	0.483137	-0.257163	-0.255932
C144	C	0.983137	0.242837	0.244068
C145	C	0.398597	-0.257170	-0.255931
C146	C	0.898597	0.242830	0.244069
C147	C	0.356333	-0.205014	-0.204246
C148	C	0.856333	0.294986	0.295754
C149	C	0.398609	-0.152851	-0.152563
C150	C	0.898609	0.347149	0.347437
C151	C	0.483154	-0.152843	-0.152562
C152	C	0.983154	0.347157	0.347438
C153	C	0.525418	-0.204999	-0.204247
C154	C	1.025418	0.295001	0.295753
H155	H	0.367297	-0.295786	-0.294192
H156	H	0.867297	0.204214	0.205808
H157	H	0.293747	-0.205020	-0.204247
H158	H	0.793747	0.294980	0.295753
H159	H	0.367323	-0.114242	-0.114303
H160	H	0.867323	0.385758	0.385697
H161	H	0.514454	-0.114227	-0.114301
H162	H	1.014454	0.385773	0.385699
H163	H	0.588004	-0.204992	-0.204246
H164	H	1.088004	0.295008	0.295754
H165	H	1.019670	-0.792548	-0.468960
H166	H	1.519670	-0.292548	0.031040
H167	H	0.985190	-0.919008	-0.260549
H168	H	1.485190	-0.419008	0.239451
H169	H	1.148889	-0.442520	-0.924666
H170	H	1.648889	0.057480	-0.424666
H171	H	0.494103	-0.442773	-0.439845
H172	H	0.994103	0.057227	0.060155
C173	C	1.024371	-0.926981	-0.489578
C174	C	1.524371	-0.426981	0.010422
C175	C	1.090442	-0.978417	-0.502423
C176	C	1.590442	-0.478417	-0.002423
C177	C	1.108011	-1.006168	-0.580376
C178	C	1.608011	-0.506168	-0.080376
C179	C	1.059509	-0.982482	-0.645483
C180	C	1.559509	-0.482482	-0.145483
C181	C	0.993434	-0.931042	-0.632640
C182	C	1.493434	-0.431042	-0.132640
C183	C	0.975864	-0.903291	-0.554687
C184	C	1.475864	-0.403291	-0.054687
H185	H	1.126350	-0.995954	-0.454225
H186	H	1.626350	-0.495954	0.045775
H187	H	1.156925	-1.044247	-0.589883
H188	H	1.656925	-0.544247	-0.089883
H189	H	1.072515	-1.003024	-0.703188
H190	H	1.572515	-0.503024	-0.203188
H191	H	0.957526	-0.913505	-0.680838
H192	H	1.457526	-0.413505	-0.180838
H193	H	0.926951	-0.865212	-0.545180
H194	H	1.426951	-0.365212	-0.045180
H195	H	0.633552	-0.270695	-0.269346
H196	H	1.133552	0.229305	0.230654
H197	H	0.948831	-0.793192	-0.398289
H198	H	1.448831	-0.293192	0.101711
C199	C	1.095480	-0.926960	-0.218027
C200	C	1.595480	-0.426960	0.281973
C201	C	1.138304	-0.871384	-0.170469
C202	C	1.638304	-0.371384	0.329531
C203	C	1.191676	-0.899376	-0.111110
C204	C	1.691676	-0.399376	0.388890
C205	C	1.202224	-0.982944	-0.099309
C206	C	1.702224	-0.482944	0.400691
C207	C	1.159399	-1.038525	-0.146868
C208	C	1.659399	-0.538525	0.353132
C209	C	1.106027	-1.010533	-0.206227
C210	C	1.606027	-0.510533	0.293773
H211	H	1.130497	-0.809517	-0.179204
H212	H	1.630497	-0.309517	0.320796
H213	H	1.223378	-0.858230	-0.075903
H214	H	1.723378	-0.358230	0.424097
H215	H	1.241733	-1.003665	-0.055367
H216	H	1.741733	-0.503665	0.444633
H217	H	1.167206	-1.100391	-0.138133
H218	H	1.667206	-0.600391	0.361867
H219	H	1.074325	-1.051678	-0.241434
H220	H	1.574325	-0.551678	0.258566
C221	C	1.201058	-0.784320	-0.324183
C222	C	1.701058	-0.284320	0.175817
C223	C	1.281470	-0.807973	-0.335435
C224	C	1.781470	-0.307973	0.164565
C225	C	1.341595	-0.779055	-0.283422
C226	C	1.841595	-0.279055	0.216578
C227	C	1.321309	-0.726484	-0.220157
C228	C	1.821309	-0.226484	0.279843
C229	C	1.240893	-0.702828	-0.208901
C230	C	1.740893	-0.202828	0.291099
C231	C	1.180768	-0.731746	-0.260915
C232	C	1.680768	-0.231746	0.239085
H233	H	1.296491	-0.846892	-0.382271
H234	H	1.796491	-0.346892	0.117729
H235	H	1.401125	-0.796567	-0.291754
H236	H	1.901125	-0.296567	0.208246
H237	H	1.365817	-0.705078	-0.181653
H238	H	1.865817	-0.205078	0.318347
H239	H	1.225872	-0.663910	-0.162066
H240	H	1.725872	-0.163910	0.337934
H241	H	1.121238	-0.714234	-0.252582
H242	H	1.621238	-0.214234	0.247418
C243	C	1.096524	-0.785800	-0.218085
C244	C	1.596524	-0.285800	0.281915
C245	C	1.068307	-0.739834	-0.152809
C246	C	1.568307	-0.239834	0.347191
C247	C	1.122367	-0.712313	-0.093857
C248	C	1.622367	-0.212313	0.406143
C249	C	1.204645	-0.730758	-0.100182
C250	C	1.704645	-0.230758	0.399818
C251	C	1.232866	-0.776727	-0.165460
C252	C	1.732866	-0.276727	0.334540
C253	C	1.178805	-0.804248	-0.224412
C254	C	1.678805	-0.304248	0.275588
H255	H	1.007397	-0.726177	-0.148125
H256	H	1.507397	-0.226177	0.351875
H257	H	1.101476	-0.678284	-0.045534
H258	H	1.601476	-0.178284	0.454466
H259	H	1.244664	-0.710386	-0.056542
H260	H	1.744664	-0.210386	0.443458
H261	H	1.293776	-0.790384	-0.170144
H262	H	1.793776	-0.290384	0.329856
H263	H	1.199697	-0.838277	-0.272736
H264	H	1.699697	-0.338277	0.227264
H265	H	1.160529	-0.920437	-0.430081
H266	H	1.660529	-0.420437	0.069919
C267	C	0.966395	-0.784442	-0.253891
C268	C	1.466395	-0.284442	0.246109
C269	C	0.923264	-0.732635	-0.305225
C270	C	1.423264	-0.232635	0.194775
C271	C	0.847194	-0.703760	-0.282083
C272	C	1.347194	-0.203760	0.217917
C273	C	0.814255	-0.726692	-0.207607
C274	C	1.314255	-0.226692	0.292393
C275	C	0.857386	-0.778502	-0.156268
C276	C	1.357386	-0.278502	0.343732
C277	C	0.933457	-0.807377	-0.179411
C278	C	1.433457	-0.307377	0.320589
H279	H	0.947648	-0.715657	-0.360361
H280	H	1.447648	-0.215657	0.139639
H281	H	0.815265	-0.665407	-0.320088
H282	H	1.315265	-0.165407	0.179912
H283	H	0.757943	-0.705317	-0.190476
H284	H	1.257943	-0.205317	0.309524
H285	H	0.833003	-0.795480	-0.101132
H286	H	1.333003	-0.295480	0.398868
H287	H	0.965385	-0.845730	-0.141406
H288	H	1.465385	-0.345730	0.358594
H289	H	1.156762	-0.792875	-0.433269
H290	H	1.656762	-0.292875	0.066731
