data_functionalizedCrystal
_audit_creation_method	'MofGen! by Chris Wilmer'
_symmetry_space_group_name_H-M	'P1'
_symmetry_Int_Tables_number	1
_symmetry_cell_setting	triclinic
loop_
_symmetry_equiv_pos_as_xyz
  x,y,z
_cell_length_a	12.759401
_cell_length_b	13.897447
_cell_length_c	12.759386
_cell_angle_alpha	89.937050
_cell_angle_beta	89.958838
_cell_angle_gamma	90.019807
loop_
_atom_site_label
_atom_site_type_symbol
_atom_site_fract_x
_atom_site_fract_y
_atom_site_fract_z
Zn1	Zn	1.606455	-0.383657	-0.593980
Zn2	Zn	1.606265	-0.545073	-0.418298
Zn3	Zn	1.430687	-0.383795	-0.418319
Zn4	Zn	1.430731	-0.544912	-0.593939
O5	O	1.518534	-0.464359	-0.506134
O6	O	1.753451	-0.405079	-0.570683
O7	O	1.582877	-0.523804	-0.271279
O8	O	1.454065	-0.248795	-0.441646
O9	O	1.753311	-0.523671	-0.441611
O10	O	1.583200	-0.248694	-0.570703
O11	O	1.453881	-0.405314	-0.271295
O12	O	1.283672	-0.405158	-0.441607
O13	O	1.454138	-0.523397	-0.740966
O14	O	1.283704	-0.523530	-0.570635
O15	O	1.583242	-0.404923	-0.740995
O16	O	1.582919	-0.680034	-0.441572
O17	O	1.453954	-0.679915	-0.570615
C18	C	1.245567	-0.464342	-0.506119
C19	C	1.128790	-0.464358	-0.506138
C20	C	0.964241	-0.526103	-0.573224
C21	C	1.073965	-0.526092	-0.573213
C22	C	1.073886	-0.402637	-0.439062
C23	C	0.964164	-0.402654	-0.439068
C24	C	1.223922	-0.639851	-0.610527
C25	C	1.278823	-0.701561	-0.677613
C26	C	1.243288	-0.716435	-0.780101
C27	C	1.152855	-0.669587	-0.815525
C28	C	1.097960	-0.607870	-0.748445
C29	C	1.133493	-0.593013	-0.645942
C30	C	0.814205	-0.288894	-0.401765
C31	C	0.759308	-0.227171	-0.334690
C32	C	0.794840	-0.212287	-0.232200
C33	C	0.885277	-0.259118	-0.196779
C34	C	0.940174	-0.320840	-0.263855
C35	C	0.904634	-0.335727	-0.366344
C36	C	1.518449	-0.714974	-0.506109
C37	C	1.518509	-0.822188	-0.506134
C38	C	1.518559	-0.909257	-0.506158
C39	C	1.518633	-1.018490	-0.506185
C40	C	1.792568	-0.464377	-0.506149
C41	C	1.909344	-0.464385	-0.506155
C42	C	1.518716	-0.464126	-0.780168
C43	C	1.518794	-0.464027	-0.896944
C44	C	1.518649	-0.212766	-0.506181
C45	C	1.518698	-0.105552	-0.506201
C46	C	1.518414	-0.464522	-0.233166
C47	C	1.518540	-0.464349	-0.116390
C48	C	1.450954	-0.403030	-0.061585
C49	C	1.451083	-0.402866	0.048138
C50	C	1.586387	-0.525349	0.048243
C51	C	1.586262	-0.525508	-0.061478
C52	C	1.412866	-0.289142	0.197829
C53	C	1.345264	-0.227831	0.252637
C54	C	1.242601	-0.213752	0.217176
C55	C	1.207519	-0.260997	0.126908
C56	C	1.275116	-0.322316	0.072105
C57	C	1.377793	-0.336377	0.107565
C58	C	1.624469	-0.639233	-0.211171
C59	C	1.692061	-0.700557	-0.265976
C60	C	1.794726	-0.714646	-0.230516
C61	C	1.829804	-0.667417	-0.140245
C62	C	1.762211	-0.606093	-0.085440
C63	C	1.659547	-0.592003	-0.120907
H64	H	0.750139	-0.162017	-0.177592
C65	C	1.660866	-0.592627	0.108649
H66	H	1.651254	-0.583759	0.181845
H67	H	1.731330	-0.578074	0.090497
H68	H	1.645944	-0.657565	0.090881
H69	H	1.024333	-0.569724	-0.777288
H70	H	1.123938	-0.681694	-0.898986
H71	H	1.013814	-0.358971	-0.235008
H72	H	1.287997	-0.766681	-0.834723
C73	C	0.659726	-0.175787	-0.373592
H74	H	0.646384	-0.193540	-0.444217
H75	H	0.669405	-0.108119	-0.369516
H76	H	0.601915	-0.194059	-0.331030
H77	H	0.785265	-0.301009	-0.485222
C78	C	1.376472	-0.335750	-0.121985
H79	H	1.336247	-0.299200	-0.073626
H80	H	1.330921	-0.373007	-0.164597
H81	H	1.416307	-0.293516	-0.164981
H82	H	1.246553	-0.360782	-0.001389
C83	C	1.800790	-0.554139	0.013858
H84	H	1.745828	-0.515607	0.041422
H85	H	1.858921	-0.514389	-0.003284
H86	H	1.821404	-0.600377	0.064707
H87	H	1.352454	-0.739705	-0.648761
C88	C	1.525802	-0.304619	0.236828
H89	H	1.561043	-0.347892	0.191255
H90	H	1.524279	-0.330750	0.305639
H91	H	1.561765	-0.244758	0.237635
C92	C	1.942736	-0.682909	-0.101237
H93	H	1.977970	-0.726186	-0.146810
H94	H	1.941206	-0.709041	-0.032427
H95	H	1.978710	-0.623054	-0.100428
H96	H	1.252854	-0.627757	-0.527069
C97	C	1.134190	-0.334729	-0.365282
H98	H	1.207400	-0.343550	-0.374891
H99	H	1.116154	-0.348803	-0.294665
H100	H	1.116230	-0.269929	-0.380792
C101	C	1.869075	-0.782104	-0.290800
H102	H	1.833485	-0.808217	-0.349642
H103	H	1.891054	-0.832841	-0.245980
H104	H	1.928553	-0.746856	-0.313986
C105	C	1.653477	-0.752508	-0.365273
H106	H	1.582656	-0.735326	-0.378555
H107	H	1.658223	-0.820110	-0.355272
H108	H	1.695743	-0.734121	-0.423262
C109	C	1.511570	-0.623656	-0.250243
H110	H	1.500366	-0.660555	-0.311864
H111	H	1.501180	-0.557421	-0.265471
H112	H	1.463520	-0.643383	-0.197517
H113	H	1.187559	-0.163830	0.261808
C114	C	0.903943	-0.593978	-0.647045
H115	H	0.952357	-0.630729	-0.686991
H116	H	0.861202	-0.557084	-0.692884
H117	H	0.861084	-0.636004	-0.606806
C118	C	1.094585	-0.245514	0.087909
H119	H	1.059354	-0.202223	0.133470
H120	H	1.058614	-0.305365	0.087099
H121	H	1.096116	-0.219379	0.019094
C122	C	0.924357	-0.242762	-0.084035
H123	H	0.878702	-0.199307	-0.049156
H124	H	0.993095	-0.216535	-0.085872
H125	H	0.925360	-0.302359	-0.047511
C126	C	1.383854	-0.175856	0.351919
H127	H	1.454688	-0.193006	0.365181
H128	H	1.341607	-0.194237	0.409916
H129	H	1.379088	-0.108253	0.341899
