data_functionalizedCrystal
_audit_creation_method	'MofGen! by Chris Wilmer'
_symmetry_space_group_name_H-M	'P1'
_symmetry_Int_Tables_number	1
_symmetry_cell_setting	triclinic
loop_
_symmetry_equiv_pos_as_xyz
  x,y,z
_cell_length_a	16.109301
_cell_length_b	19.188930
_cell_length_c	15.186229
_cell_angle_alpha	89.991143
_cell_angle_beta	89.999362
_cell_angle_gamma	83.303131
loop_
_atom_site_label
_atom_site_type_symbol
_atom_site_fract_x
_atom_site_fract_y
_atom_site_fract_z
O1	O	1.102833	0.089744	-0.073183
O2	O	0.860734	0.100912	-0.073198
O3	O	0.988770	-0.006311	-0.073173
O4	O	0.974797	0.196967	-0.073208
O5	O	0.988762	-0.006313	0.073284
O6	O	0.860726	0.100911	0.073259
O7	O	1.102825	0.089742	0.073274
Zn8	Zn	0.981774	0.095326	0.096520
Zn9	Zn	0.981785	0.095328	-0.096444
O10	O	0.974789	0.196966	0.073249
C11	C	0.829757	0.100459	0.000029
C12	C	0.737466	0.099103	0.000024
C13	C	0.514993	0.159573	0.000023
C14	C	0.428277	0.158294	0.000029
C15	C	0.448573	0.031076	0.000048
C16	C	0.535287	0.032357	0.000048
C17	C	0.568495	0.096608	0.000031
C18	C	0.395064	0.094047	0.000037
C19	C	0.301043	0.092659	0.000043
C20	C	0.662522	0.097996	0.000027
C21	C	0.988313	-0.032324	0.000058
C22	C	0.986955	-0.109832	0.000066
C23	C	1.062082	-0.154580	0.000075
C24	C	1.060806	-0.227407	0.000060
C25	C	0.984399	-0.255482	0.000055
C26	C	0.909261	-0.210724	0.000041
C27	C	0.910540	-0.137899	0.000046
N28	N	0.925991	-0.363624	0.049893
N29	N	0.924782	-0.432805	0.049890
C30	C	0.980543	-0.474900	0.000037
N31	N	1.037571	-0.445200	-0.049802
N32	N	1.038783	-0.376013	-0.049795
C33	C	0.983004	-0.334448	0.000049
C34	C	1.054292	-0.598616	0.000029
C35	C	1.053012	-0.671443	0.000010
C36	C	0.901465	-0.654759	-0.000001
C37	C	0.902747	-0.581933	0.000010
C38	C	0.979162	-0.553866	0.000029
C39	C	1.133802	0.090196	0.000045
C40	C	1.226093	0.091552	0.000045
C41	C	0.975246	0.222979	0.000016
C42	C	0.976604	0.300486	0.000003
N43	N	0.981772	0.095325	0.228213
N44	N	0.981793	0.095325	-0.228137
C45	C	1.038486	0.047862	0.453947
C46	C	1.038488	0.047860	0.546136
C47	C	0.925074	0.142790	0.546123
C48	C	0.925068	0.142787	0.453935
C49	C	0.981779	0.095324	0.407849
C50	C	0.981787	0.095325	0.592227
C51	C	0.981790	0.095323	0.692183
C52	C	0.981775	0.095325	0.307887
H53	H	0.542027	0.211890	0.000016
H54	H	0.421524	-0.021234	0.000066
H55	H	0.878886	0.181437	0.416400
C56	C	0.594143	-0.036909	0.000053
H57	H	0.561948	-0.075357	0.000050
H58	H	0.628393	-0.039055	0.051126
H59	H	0.628391	-0.039048	-0.051027
H60	H	0.384719	0.209567	0.000024
C61	C	1.146136	-0.123710	0.000080
H62	H	1.190696	-0.160795	0.000074
H63	H	1.149786	-0.095653	0.051152
H64	H	1.149785	-0.095643	-0.051000
C65	C	1.143449	-0.276639	0.000077
H66	H	1.189141	-0.249493	0.000094
H67	H	1.146109	-0.305390	-0.050995
H68	H	1.146087	-0.305399	0.051157
H69	H	0.841570	-0.545497	0.000008
C70	C	0.825215	-0.241603	0.000038
H71	H	0.835213	-0.291385	0.000046
H72	H	0.794294	-0.226235	-0.051036
H73	H	0.794291	-0.226248	0.051116
H74	H	0.849360	-0.101464	0.000039
C75	C	1.138343	-0.567739	0.000040
H76	H	1.182905	-0.604823	0.000031
H77	H	1.141990	-0.539687	0.051117
H78	H	1.141993	-0.539666	-0.051035
H79	H	1.114193	-0.707878	0.000012
H80	H	0.839253	-0.677617	-0.000010
C81	C	1.100857	-0.004351	0.403255
H82	H	1.134624	-0.032622	0.443916
H83	H	1.135373	0.020769	0.367282
H84	H	1.071047	-0.033425	0.367305
C85	C	1.100870	-0.004346	0.596840
H86	H	1.134645	-0.032607	0.556187
H87	H	1.071075	-0.033419	0.632811
H88	H	1.135388	0.020785	0.632793
C89	C	0.862705	0.195001	0.596820
H90	H	0.870835	0.188210	0.658326
H91	H	0.807245	0.187408	0.581721
H92	H	0.871571	0.241602	0.581697
