data_functionalizedCrystal
_audit_creation_method	'MofGen! by Chris Wilmer'
_symmetry_space_group_name_H-M	'P1'
_symmetry_Int_Tables_number	1
_symmetry_cell_setting	triclinic
loop_
_symmetry_equiv_pos_as_xyz
  x,y,z
_cell_length_a	16.120566
_cell_length_b	18.215405
_cell_length_c	18.215399
_cell_angle_alpha	90.027541
_cell_angle_beta	92.919746
_cell_angle_gamma	87.118843
loop_
_atom_site_label
_atom_site_type_symbol
_atom_site_fract_x
_atom_site_fract_y
_atom_site_fract_z
Zn1	Zn	-1.274552	0.350108	-0.473157
Zn2	Zn	-1.274453	0.473175	-0.350087
Zn3	Zn	-1.135135	0.343883	-0.343865
Zn4	Zn	-1.135101	0.466888	-0.466876
O5	O	-1.204810	0.408513	-0.408496
O6	O	-1.391204	0.371669	-0.462064
O7	O	-1.255945	0.456050	-0.246276
O8	O	-1.153684	0.241727	-0.361041
O9	O	-1.391132	0.462086	-0.371645
O10	O	-1.256113	0.246300	-0.456031
O11	O	-1.153588	0.361060	-0.241705
O12	O	-1.018464	0.354964	-0.354950
O13	O	-1.153627	0.451371	-0.570694
O14	O	-1.018440	0.445335	-0.445325
O15	O	-1.256080	0.365573	-0.575309
O16	O	-1.255913	0.575322	-0.365554
O17	O	-1.153531	0.570704	-0.451359
C18	C	-0.988202	0.398793	-0.398781
C19	C	-0.895536	0.394652	-0.394643
C20	C	-1.204861	0.408465	-0.600451
C21	C	-1.204883	0.408444	-0.682251
C22	C	-1.204730	0.599716	-0.408467
C23	C	-1.204772	0.681517	-0.408483
C24	C	-0.725874	0.387074	-0.387093
C25	C	-0.684587	0.430016	-0.429905
C26	C	-0.590181	0.425800	-0.425704
C27	C	-0.820288	0.391289	-0.391293
C28	C	-0.422264	0.418275	-0.418237
C29	C	-0.514930	0.422441	-0.422358
C30	C	-1.204913	0.216565	-0.408542
C31	C	-1.204957	0.134768	-0.408562
C32	C	-1.258133	0.872032	-0.458009
C33	C	-1.258163	0.948892	-0.458024
C34	C	-1.151591	0.944247	-0.359033
C35	C	-1.151557	0.867388	-0.359022
C36	C	-1.204833	0.831283	-0.408509
C37	C	-1.204897	0.985002	-0.408535
C38	C	-1.204929	1.068337	-0.408552
C39	C	-1.204799	0.747943	-0.408494
C40	C	-1.258249	0.363726	-0.872850
C41	C	-1.258259	0.363705	-0.949709
C42	C	-1.151575	0.453051	-0.944893
C43	C	-1.151561	0.453068	-0.868035
C44	C	-1.204903	0.408407	-0.832016
C45	C	-1.204927	0.408369	-0.985733
C46	C	-1.204937	0.408347	-1.069067
C47	C	-1.204892	0.408428	-0.748676
C48	C	-1.204807	0.408511	-0.217290
C49	C	-1.204947	0.408331	-0.135498
H50	H	-0.720140	0.469945	-0.469713
C51	C	-0.677850	0.333143	-0.333314
H52	H	-0.619781	0.337358	-0.337507
H53	H	-0.692090	0.284330	-0.344783
H54	H	-0.692038	0.344482	-0.284466
H55	H	-1.301512	0.842637	-0.498305
H56	H	-1.108114	0.489451	-0.834786
C57	C	-1.316944	0.314560	-0.994625
H58	H	-1.348712	0.287970	-0.962163
H59	H	-1.285077	0.281056	-1.023183
H60	H	-1.353262	0.344340	-1.026230
H61	H	-1.108217	0.973654	-0.318742
H62	H	-1.301563	0.982067	-0.498333
C63	C	-1.316915	0.314597	-0.833228
H64	H	-1.309274	0.321010	-0.781605
H65	H	-1.304740	0.264602	-0.845289
H66	H	-1.372931	0.327881	-0.848338
H67	H	-1.108147	0.489414	-0.974229
C68	C	-1.092926	0.822561	-0.304568
H69	H	-1.061210	0.855071	-0.275090
H70	H	-1.056569	0.790958	-0.331059
H71	H	-1.124834	0.794007	-0.273953
