data_functionalizedCrystal
_audit_creation_method	'MofGen! by Chris Wilmer'
_symmetry_space_group_name_H-M	'P1'
_symmetry_Int_Tables_number	1
_symmetry_cell_setting	triclinic
loop_
_symmetry_equiv_pos_as_xyz
  x,y,z
_cell_length_a	14.395555
_cell_length_b	20.919309
_cell_length_c	14.395555
_cell_angle_alpha	89.999957
_cell_angle_beta	60.002398
_cell_angle_gamma	57.438650
loop_
_atom_site_label
_atom_site_type_symbol
_atom_site_fract_x
_atom_site_fract_y
_atom_site_fract_z
Zr1	Zr	0.944250	0.641727	-0.085641
O2	O	1.150078	0.535348	-0.239980
O3	O	0.746759	0.674343	-0.038327
O4	O	0.940555	0.674337	-0.232122
O5	O	0.956289	0.535354	0.106683
O6	O	0.928156	0.783967	-0.225925
O7	O	0.956282	0.535355	-0.046185
O8	O	0.581491	0.783979	0.120739
O9	O	1.302954	0.535342	-0.239982
O10	O	0.815649	0.770063	-0.013525
O11	O	0.824907	0.688247	0.095934
O12	O	1.053076	0.688239	-0.132235
O13	O	1.062335	0.606422	-0.022777
Zr14	Zr	0.924486	0.816573	0.168047
Zr15	Zr	0.924475	0.816574	-0.075758
Zr16	Zr	0.944261	0.641726	0.158164
Zr17	Zr	1.188070	0.641717	-0.085644
Zr18	Zr	0.680666	0.816583	0.168050
O19	O	1.121976	0.783957	0.120732
O20	O	1.121961	0.783959	-0.225928
O21	O	1.150094	0.535347	0.106680
O22	O	0.718658	0.922952	0.322386
O23	O	0.718642	0.922954	-0.024274
O24	O	0.746775	0.674341	0.308333
O25	O	0.912446	0.922946	-0.024277
O26	O	0.928181	0.783964	0.314528
O27	O	0.940580	0.674334	0.308331
O28	O	0.912453	0.922945	0.128590
O29	O	1.287236	0.674323	-0.232126
O30	O	0.581500	0.783978	0.314532
O31	O	0.565781	0.922958	0.322387
O32	O	0.565773	0.922959	0.128595
O33	O	1.302963	0.535341	-0.046189
O34	O	1.287245	0.674322	-0.038333
O35	O	0.815659	0.770062	0.214641
O36	O	0.806401	0.851878	0.105182
O37	O	1.043829	0.770054	-0.013528
O38	O	1.053087	0.688237	0.095931
C39	C	0.629386	0.729162	0.041207
C40	C	0.525878	0.729166	0.041208
C41	C	0.460252	0.773769	-0.018485
C42	C	0.318492	0.806098	0.090610
C43	C	0.483203	0.696842	-0.067875
C44	C	0.385413	0.761540	0.150369
C45	C	0.550202	0.652242	-0.008196
C46	C	0.408454	0.684552	0.100962
C47	C	0.959103	0.510443	0.028841
C48	C	0.967498	0.436215	0.024645
C49	C	0.847510	0.444053	0.084634
C50	C	0.855406	0.374305	0.080689
C51	C	0.983292	0.296722	0.016749
C52	C	1.103288	0.288886	-0.043242
C53	C	1.095391	0.358633	-0.039290
C54	C	1.013337	0.083996	0.001722
C55	C	1.021225	0.014248	-0.002228
C56	C	0.773342	0.099672	0.121705
C57	C	0.765456	0.169416	0.125646
C58	C	0.885453	0.161574	0.065660
C59	C	0.991366	0.225428	0.012712
C60	C	0.877377	0.232867	0.069704
C61	C	1.239350	0.729138	0.041199
C62	C	1.342858	0.729134	0.041198
C63	C	0.934354	0.729152	-0.263761
C64	C	0.934349	0.729152	-0.367262
C65	C	0.909632	0.947858	0.053565
C66	C	0.901238	1.022085	0.057760
C67	C	0.804893	0.773771	-0.363125
C68	C	0.875787	0.696837	-0.460496
C69	C	0.863462	0.806067	-0.454321
C70	C	1.005249	0.652174	-0.463273
C71	C	0.992900	0.761459	-0.457081
C72	C	1.063891	0.684479	-0.554472
C73	C	0.934382	0.729149	0.346166
C74	C	0.934386	0.729148	0.449668
C75	C	0.604651	0.947870	0.053569
C76	C	0.492748	1.022101	0.057765
C77	C	0.629400	0.729161	0.346170
C78	C	0.525897	0.729164	0.449673
C79	C	0.604665	0.947868	0.358532
C80	C	0.492766	1.022099	0.466231
C81	C	1.264071	0.510432	-0.276126
C82	C	1.375969	0.436201	-0.383825
C83	C	1.264085	0.510431	0.028837
C84	C	1.375988	0.436199	0.024640
C85	C	1.239336	0.729140	-0.263764
C86	C	1.342839	0.729136	-0.367268
C87	C	0.445024	1.014254	-0.002238
C88	C	0.339894	1.083996	0.001682
C89	C	0.282482	1.161584	0.065613
C90	C	0.330215	1.169429	0.125618
C91	C	0.435350	1.099688	0.121691
C92	C	0.435384	1.099673	0.459671
C93	C	0.330257	1.169428	0.560857
C94	C	0.282507	1.161606	0.668600
C95	C	0.339899	1.084024	0.675157
C96	C	0.445032	1.014271	0.573973
C97	C	1.433363	0.358627	-0.377266
C98	C	1.538521	0.288873	-0.478451
C99	C	1.586276	0.296694	-0.586195
C100	C	1.528877	0.374277	-0.592751
C101	C	1.423728	0.444029	-0.491567
C102	C	1.423722	0.444046	0.084634
C103	C	1.528879	0.374304	0.080686
C104	C	1.586294	0.296717	0.016752
C105	C	1.538556	0.288871	-0.043248
C106	C	1.433408	0.358612	-0.039307
C107	C	0.470354	0.684556	0.445538
C108	C	0.323550	0.761494	0.542906
C109	C	0.488243	0.652259	0.536738
C110	C	0.380388	0.806148	0.545681
C111	C	0.545161	0.696857	0.539495
C112	C	0.398361	0.773842	0.636883
H113	H	0.743372	0.507221	0.136706
Cl114	Cl	0.517149	0.916752	0.582239
Cl115	Cl	0.716614	0.330400	0.150094
Cl116	Cl	0.258121	1.266949	0.552587
Cl117	Cl	1.097733	0.551697	-0.467689
Cl118	Cl	0.350038	0.832173	0.763121
H119	H	1.585238	0.225709	-0.473090
H120	H	0.639913	0.669498	0.536961
Cl121	Cl	0.545388	0.654660	-0.210290
H122	H	1.394547	0.352212	-0.088158
H123	H	0.675648	0.106047	0.170542
H124	H	0.757700	0.380694	0.129540
Cl125	Cl	1.152131	0.127890	-0.067669
H126	H	0.335651	0.871224	0.548535
H127	H	1.111047	0.077600	-0.047143
H128	H	1.193098	0.352246	-0.088125
Cl129	Cl	0.279853	1.074205	0.810616
Cl130	Cl	0.495472	0.832090	-0.096278
H131	H	1.207415	0.225711	-0.095297
H132	H	1.394488	0.352243	-0.289545
H133	H	1.042342	0.788808	-0.454560
H134	H	0.649208	0.587215	-0.050008
H135	H	1.671896	0.239890	-0.668576
H136	H	0.695435	0.811439	-0.281235
H137	H	1.567773	0.380635	-0.680488
H138	H	0.196900	1.218410	0.750982
H139	H	1.125370	-0.048926	-0.054302
H140	H	1.567729	0.380708	0.129551
H141	H	0.501696	0.646888	0.363651
H142	H	1.173451	0.646693	-0.636236
Cl143	Cl	0.557069	0.551825	0.532442
H144	H	1.671912	0.239936	0.013553
Cl145	Cl	0.604680	0.266947	0.206031
Cl146	Cl	0.799384	0.654638	-0.464321
Cl147	Cl	0.177312	0.803701	0.546733
H148	H	0.803505	0.871117	-0.451543
Cl149	Cl	0.517183	0.916724	-0.082623
Cl150	Cl	1.351578	0.541549	-0.499834
Cl151	Cl	1.351570	0.541576	0.165011
Cl152	Cl	0.495323	1.109567	0.197142
H153	H	0.301043	1.077592	-0.047182
H154	H	1.585320	0.225690	-0.095303
Cl155	Cl	0.150308	1.249251	0.070542
H156	H	0.283455	1.232610	0.177669
Cl157	Cl	0.495399	1.109527	0.324235
H158	H	0.219507	0.871138	0.132397
H159	H	0.385696	0.646828	0.151511
Cl160	Cl	0.322898	0.803845	0.292863
