data_functionalizedCrystal
_audit_creation_method	'MofGen! by Chris Wilmer'
_symmetry_space_group_name_H-M	'P1'
_symmetry_Int_Tables_number	1
_symmetry_cell_setting	triclinic
loop_
_symmetry_equiv_pos_as_xyz
  x,y,z
_cell_length_a	9.016244
_cell_length_b	10.654550
_cell_length_c	10.654551
_cell_angle_alpha	95.514868
_cell_angle_beta	90.002980
_cell_angle_gamma	90.007074
loop_
_atom_site_label
_atom_site_type_symbol
_atom_site_fract_x
_atom_site_fract_y
_atom_site_fract_z
O1	O	-0.123452	-1.667841	0.176390
O2	O	-0.123427	-1.302363	0.193196
O3	O	-0.123441	-1.493504	0.002054
O4	O	-0.123439	-1.476700	0.367532
O5	O	0.123240	-1.493489	0.002065
O6	O	0.123253	-1.302348	0.193207
O7	O	0.123229	-1.667826	0.176401
Cu8	Cu	0.145765	-1.485086	0.184805
Cu9	Cu	-0.145964	-1.485103	0.184792
O10	O	0.123242	-1.476685	0.367544
C11	C	-0.000084	-1.255557	0.191968
C12	C	-0.000075	-1.116114	0.188276
N13	N	0.350951	-1.485082	0.184814
N14	N	-0.351150	-1.485116	0.184773
C15	C	0.413928	-1.382789	0.287047
C16	C	0.585819	-1.382441	0.286753
C17	C	0.586427	-1.455888	0.053328
C18	C	0.414483	-1.455132	0.053950
C19	C	0.414279	-1.616913	0.212843
C20	C	0.586236	-1.616077	0.215788
C21	C	-0.000104	-1.492263	-0.044739
C22	C	-0.000114	-1.488570	-0.184182
C23	C	-0.000118	-1.714632	0.177629
C24	C	-0.000137	-1.854075	0.181321
C25	C	-0.000096	-1.036629	0.300817
C26	C	-0.000121	-0.905608	0.297341
C27	C	-0.000112	-0.933570	0.068771
C28	C	-0.000075	-1.064589	0.072249
C29	C	-0.000095	-1.088154	0.416844
C30	C	-0.000118	-1.008667	0.529395
C31	C	-0.000143	-0.877647	0.525918
C32	C	-0.000147	-0.826112	0.409891
C33	C	-0.134577	-1.486846	-0.249700
C34	C	-0.134570	-1.483366	-0.380720
C35	C	0.134375	-1.483339	-0.380693
C36	C	0.134367	-1.486810	-0.249674
C37	C	-0.269057	-1.488606	-0.184208
C38	C	-0.403531	-1.486883	-0.249726
C39	C	-0.403524	-1.483403	-0.380746
C40	C	-0.269043	-1.481645	-0.446248
C41	C	-0.000098	-1.477926	0.414336
C42	C	-0.000098	-1.481619	0.553779
H43	H	0.628028	-1.399940	0.384408
H44	H	-0.000139	-0.891600	-0.025693
H45	H	0.372818	-1.526773	-0.024497
H46	H	-0.000147	-0.812931	0.617562
C47	C	-0.000082	-1.232272	0.420666
H48	H	-0.000084	-1.272232	0.337022
H49	H	0.085934	-1.256740	0.463672
H50	H	-0.086123	-1.256756	0.463646
H51	H	0.627248	-1.528399	-0.024660
C52	C	-0.000113	-1.065350	0.657013
H53	H	-0.000108	-1.154764	0.642968
H54	H	0.085903	-1.038113	0.703410
H55	H	-0.086154	-1.038154	0.703389
H56	H	-0.000062	-1.129308	-0.019392
C57	C	-0.000180	-0.681992	0.406068
H58	H	-0.000199	-0.642031	0.489712
H59	H	0.085832	-0.657486	0.363076
H60	H	-0.086225	-0.657547	0.363073
H61	H	0.374411	-1.358971	0.029503
C62	C	0.358115	-1.406043	0.419427
H63	H	0.295892	-1.478336	0.413540
H64	H	0.440407	-1.419422	0.472200
H65	H	0.303583	-1.334720	0.454207
C66	C	0.355629	-1.251389	0.262957
H67	H	0.293079	-1.258597	0.190864
H68	H	0.300950	-1.216757	0.334248
H69	H	0.436903	-1.197752	0.248867
C70	C	0.641446	-1.250331	0.262269
H71	H	0.558957	-1.196669	0.252455
H72	H	0.699990	-1.216539	0.331578
H73	H	0.699692	-1.256284	0.187635
C74	C	-0.551447	-1.488815	-0.177680
H75	H	-0.532197	-1.491147	-0.090268
H76	H	-0.606700	-1.415144	-0.190211
H77	H	-0.606692	-1.561370	-0.208106
H78	H	-0.269078	-1.491443	-0.077525
H79	H	-0.269048	-1.478793	-0.552932
H80	H	0.629533	-1.360838	0.028308
H81	H	-0.513019	-1.481987	-0.434087
H82	H	0.370925	-1.644834	0.306746
H83	H	0.243858	-1.488187	-0.196325
H84	H	0.373538	-1.693046	0.138312
C85	C	0.641366	-1.646035	0.346417
H86	H	0.702295	-1.579023	0.381912
H87	H	0.558746	-1.655525	0.400015
H88	H	0.697107	-1.722036	0.337902
C89	C	0.644180	-1.723817	0.121876
H90	H	0.707590	-1.690189	0.062250
H91	H	0.697869	-1.782299	0.166213
H92	H	0.562816	-1.765416	0.079200
H93	H	0.243863	-1.481909	-0.434035
