data_functionalizedCrystal
_audit_creation_method	'MofGen! by Chris Wilmer'
_symmetry_space_group_name_H-M	'P1'
_symmetry_Int_Tables_number	1
_symmetry_cell_setting	triclinic
loop_
_symmetry_equiv_pos_as_xyz
  x,y,z
_cell_length_a	14.908571
_cell_length_b	21.295417
_cell_length_c	14.908308
_cell_angle_alpha	86.738273
_cell_angle_beta	89.824947
_cell_angle_gamma	86.725606
loop_
_atom_site_label
_atom_site_type_symbol
_atom_site_fract_x
_atom_site_fract_y
_atom_site_fract_z
Zn1	Zn	1.345222	-0.328502	0.587537
Zn2	Zn	1.678555	0.004831	0.920871
Zn3	Zn	2.011888	0.338164	1.254204
Zn4	Zn	1.353780	-0.428069	0.437164
Zn5	Zn	1.687113	-0.094735	0.770498
Zn6	Zn	2.020447	0.238598	1.103831
Zn7	Zn	1.203540	-0.316412	0.428537
Zn8	Zn	1.536873	0.016922	0.761870
Zn9	Zn	1.870206	0.350255	1.095204
Zn10	Zn	1.194808	-0.427321	0.578816
Zn11	Zn	1.528141	-0.093988	0.912149
Zn12	Zn	1.861474	0.239346	1.245483
O13	O	1.274337	-0.375076	0.508014
O14	O	1.607671	-0.041743	0.841347
O15	O	1.941004	0.291591	1.174680
O16	O	1.472182	-0.347083	0.574851
O17	O	1.805515	-0.013750	0.908184
O18	O	2.138849	0.319584	1.241517
O19	O	1.341086	-0.408510	0.310196
O20	O	1.674419	-0.075177	0.643529
O21	O	2.007753	0.258156	0.976862
O22	O	1.222407	-0.229931	0.449668
O23	O	1.555740	0.103403	0.783001
O24	O	1.889074	0.436736	1.116335
O25	O	1.478469	-0.420234	0.464372
O26	O	1.811803	-0.086901	0.797705
O27	O	2.145136	0.246433	1.131039
O28	O	1.326500	-0.238814	0.566485
O29	O	1.659834	0.094520	0.899818
O30	O	1.993167	0.427853	1.233152
O31	O	1.230705	-0.326476	0.303857
O32	O	1.564039	0.006857	0.637191
O33	O	1.897372	0.340191	0.970524
O34	O	1.076557	-0.325751	0.441211
O35	O	1.409890	0.007582	0.774545
O36	O	1.743223	0.340916	1.107878
O37	O	1.207525	-0.418959	0.705797
O38	O	1.540858	-0.085626	1.039130
O39	O	1.874191	0.247707	1.372464
O40	O	1.070141	-0.407236	0.551621
O41	O	1.403475	-0.073902	0.884954
O42	O	1.736808	0.259431	1.218287
O43	O	1.318033	-0.346358	0.712205
O44	O	1.651366	-0.013025	1.045538
O45	O	1.984700	0.320309	1.378871
O46	O	1.332619	-0.516054	0.455915
O47	O	1.665952	-0.182721	0.789249
O48	O	1.999286	0.150612	1.122582
O49	O	1.215823	-0.515505	0.559986
O50	O	1.549156	-0.182172	0.893319
O51	O	1.882490	0.151162	1.226653
C52	C	1.040724	-0.365101	0.494534
C53	C	1.374057	-0.031767	0.827867
C54	C	1.707391	0.301566	1.161200
C55	C	0.940782	-0.360849	0.488788
C56	C	1.274115	-0.027516	0.822122
C57	C	1.607449	0.305818	1.155455
C58	C	0.746357	-0.437829	0.592807
C59	C	1.079690	-0.104496	0.926140
C60	C	1.413024	0.228838	1.259474
C61	C	0.652453	-0.433836	0.587412
C62	C	0.985786	-0.100503	0.920745
C63	C	1.319119	0.232830	1.254079
C64	C	0.659066	-0.348869	0.472608
C65	C	0.992399	-0.015535	0.805941
C66	C	1.325733	0.317798	1.139275
C67	C	0.752971	-0.352861	0.478003
C68	C	1.086304	-0.019528	0.811337
C69	C	1.419637	0.313805	1.144670
C70	C	0.796613	-0.397344	0.538104
C71	C	1.129946	-0.064010	0.871437
C72	C	1.463280	0.269323	1.204770
C73	C	0.890520	-0.401339	0.543494
C74	C	1.223853	-0.068005	0.876827
C75	C	1.557186	0.265328	1.210160
C76	C	0.897131	-0.316368	0.428695
C77	C	1.230464	0.016965	0.762029
C78	C	1.563798	0.350298	1.095362
C79	C	0.803226	-0.312376	0.423300
C80	C	1.136560	0.020957	0.756633
C81	C	1.469893	0.354291	1.089967
C82	C	1.274225	-0.538621	0.507961
C83	C	1.607559	-0.205288	0.841295
C84	C	1.940892	0.128046	1.174628
C85	C	1.274258	-0.608591	0.507974
C86	C	1.607591	-0.275258	0.841307
C87	C	1.940925	0.058076	1.174641
C88	C	1.328424	-0.646026	0.568840
C89	C	1.661757	-0.312693	0.902173
C90	C	1.995091	0.020641	1.235506
C91	C	1.328454	-0.711771	0.568864
C92	C	1.661788	-0.378437	0.902197
C93	C	1.995121	-0.045104	1.235530
C94	C	1.274329	-0.740078	0.508007
C95	C	1.607663	-0.406744	0.841340
C96	C	1.940996	-0.073411	1.174673
C97	C	1.220152	-0.702634	0.447136
C98	C	1.553486	-0.369301	0.780469
C99	C	1.886819	-0.035967	1.113803
C100	C	1.220117	-0.636891	0.447120
C101	C	1.553450	-0.303557	0.780453
C102	C	1.886783	0.029776	1.113786
N103	N	1.272081	-0.840068	0.428926
N104	N	1.605415	-0.506734	0.762260
N105	N	1.938748	-0.173401	1.095593
N106	N	1.272120	-0.902521	0.428945
N107	N	1.605454	-0.569188	0.762278
N108	N	1.938787	-0.235855	1.095611
C109	C	1.274432	-0.938158	0.508053
C110	C	1.607765	-0.604825	0.841386
C111	C	1.941099	-0.271492	1.174720
N112	N	1.276721	-0.908983	0.587146
N113	N	1.610054	-0.575649	0.920479
N114	N	1.943387	-0.242316	1.253812
N115	N	1.276686	-0.846523	0.587127
N116	N	1.610020	-0.513190	0.920460
N117	N	1.943353	-0.179857	1.253793
C118	C	1.274361	-0.811365	0.508018
C119	C	1.607695	-0.478031	0.841351
C120	C	1.941028	-0.144698	1.174684
C121	C	1.328634	-1.046881	0.568950
C122	C	1.661967	-0.713548	0.902283
C123	C	1.995300	-0.380215	1.235617
C124	C	1.328658	-1.112627	0.568975
C125	C	1.661991	-0.779294	0.902309
C126	C	1.995324	-0.445960	1.235642
C127	C	1.220361	-1.103489	0.447240
C128	C	1.553694	-0.770156	0.780573
C129	C	1.887027	-0.436823	1.113906
C130	C	1.220332	-1.037745	0.447222
C131	C	1.553665	-0.704412	0.780556
C132	C	1.886998	-0.371078	1.113889
C133	C	1.274473	-1.009445	0.508076
C134	C	1.607806	-0.676112	0.841410
C135	C	1.941140	-0.342778	1.174743
C136	C	1.508863	-0.385091	0.521547
C137	C	1.842196	-0.051757	0.854880
C138	C	2.175529	0.281576	1.188213
C139	C	1.608804	-0.389358	0.527313
C140	C	1.942137	-0.056025	0.860647
C141	C	2.275470	0.277308	1.193980
C142	C	1.260850	-0.383924	0.742538
C143	C	1.594184	-0.050591	1.075871
C144	C	1.927517	0.282743	1.409204
C145	C	1.255103	-0.387694	0.842478
C146	C	1.588436	-0.054361	1.175811
C147	C	1.921769	0.278972	1.509145
C148	C	1.274473	-0.210894	0.508087
C149	C	1.607806	0.122439	0.841420
C150	C	1.941140	0.455773	1.174754
C151	C	1.274531	-0.140930	0.508118
C152	C	1.607864	0.192404	0.841452
C153	C	1.941198	0.525737	1.174785
C154	C	1.287824	-0.366219	0.274405
C155	C	1.621157	-0.032886	0.607738
C156	C	1.954490	0.300448	0.941072
C157	C	1.293745	-0.362279	0.174475
C158	C	1.627079	-0.028945	0.507809
C159	C	1.960412	0.304388	0.841142
C160	C	1.359373	-0.319165	1.036950
C161	C	1.692706	0.014169	1.370283
C162	C	2.026039	0.347502	1.703617
C163	C	1.353975	-0.322705	1.130853
C164	C	1.687309	0.010628	1.464186
C165	C	2.020642	0.343961	1.797519
C166	C	1.238907	-0.398313	1.124188
C167	C	1.572240	-0.064979	1.457521
C168	C	1.905573	0.268354	1.790855
C169	C	1.244304	-0.394772	1.030285
C170	C	1.577637	-0.061439	1.363618
C171	C	1.910971	0.271895	1.696952
C172	C	1.304540	-0.355197	0.986670
C173	C	1.637873	-0.021864	1.320003
C174	C	1.971207	0.311469	1.653336
C175	C	1.309941	-0.351661	0.892765
C176	C	1.643275	-0.018327	1.226099
C177	C	1.976608	0.315006	1.559432
C178	C	1.194869	-0.427264	0.886102
C179	C	1.528202	-0.093931	1.219435
C180	C	1.861535	0.239403	1.552769
C181	C	1.189471	-0.430805	0.980005
C182	C	1.522805	-0.097471	1.313338
C183	C	1.856138	0.235862	1.646671
H184	H	0.611537	-0.466803	0.631959
H185	H	0.944871	-0.133469	0.965292
H186	H	1.278204	0.199864	1.298625
H187	H	1.150222	-0.456606	0.845154
H188	H	1.483555	-0.123273	1.178487
H189	H	1.816889	0.210060	1.511820
N190	N	1.374915	-0.308985	0.845719
N191	N	1.708248	0.024348	1.179052
N192	N	2.041582	0.357681	1.512386
H193	H	1.340643	-0.276788	0.804655
H194	H	1.673976	0.056545	1.137989
H195	H	2.007309	0.389879	1.471322
H196	H	1.418785	-0.334929	0.809210
H197	H	1.752118	-0.001596	1.142543
H198	H	2.085451	0.331738	1.475876
H199	H	0.926052	-0.437559	0.592429
H200	H	1.259385	-0.104226	0.925763
H201	H	1.592718	0.229107	1.259096
H202	H	1.372555	-0.742256	0.618438
H203	H	1.705888	-0.408923	0.951771
H204	H	2.039221	-0.075589	1.285105
N205	N	1.161776	-0.733158	0.381491
N206	N	1.495110	-0.399825	0.714825
N207	N	1.828443	-0.066492	1.048158
H208	H	1.117996	-0.760053	0.415595
H209	H	1.451329	-0.426720	0.748929
H210	H	1.784663	-0.093386	1.082262
H211	H	1.200827	-0.760377	0.341985
H212	H	1.534160	-0.427044	0.675318
H213	H	1.867494	-0.093710	1.008652
H214	H	0.781892	-0.474051	0.641738
H215	H	1.115225	-0.140718	0.975072
H216	H	1.448558	0.192615	1.308405
N217	N	0.611972	-0.300916	0.407771
N218	N	0.945305	0.032417	0.741104
N219	N	1.278638	0.365751	1.074438
H220	H	0.570914	-0.271508	0.442132
H221	H	0.904248	0.061826	0.775465
H222	H	1.237581	0.395159	1.108799
H223	H	0.575449	-0.323298	0.363837
H224	H	0.908782	0.010035	0.697170
H225	H	1.242116	0.343368	1.030504
N226	N	0.756154	-0.264413	0.358462
N227	N	1.089487	0.068920	0.691795
N228	N	1.422821	0.402253	1.025128
H229	H	0.689040	-0.268030	0.363337
H230	H	1.022373	0.065303	0.696670
H231	H	1.355707	0.398636	1.030004
H232	H	0.776253	-0.272436	0.295172
H233	H	1.109586	0.060897	0.628505
H234	H	1.442919	0.394230	0.961839
H235	H	0.938060	-0.283403	0.384150
H236	H	1.271393	0.049930	0.717483
H237	H	1.604726	0.383263	1.050816
H238	H	1.176285	-1.126536	0.397694
H239	H	1.509618	-0.793203	0.731027
H240	H	1.842952	-0.459869	1.064360
N241	N	1.386810	-0.615502	0.634478
N242	N	1.720143	-0.282169	0.967811
N243	N	2.053477	0.051164	1.301145
H244	H	1.421127	-0.649198	0.673042
H245	H	1.754460	-0.315864	1.006376
H246	H	2.087793	0.017469	1.339709
H247	H	1.347767	-0.588245	0.673939
H248	H	1.681100	-0.254911	1.007272
H249	H	2.014433	0.078422	1.340606
N250	N	1.413125	-0.283847	1.185083
N251	N	1.746458	0.049486	1.518416
N252	N	2.079792	0.382820	1.851750
H253	H	1.400568	-0.292094	1.251189
H254	H	1.733901	0.041239	1.584522
H255	H	2.067235	0.374573	1.917856
H256	H	1.400108	-0.237675	1.167881
H257	H	1.733442	0.095658	1.501214
H258	H	2.066775	0.428991	1.834547
N259	N	1.161695	-0.596509	0.381467
N260	N	1.495028	-0.263176	0.714801
N261	N	1.828361	0.070157	1.048134
H262	H	1.127408	-0.624415	0.342917
H263	H	1.460741	-0.291082	0.676251
H264	H	1.794074	0.042252	1.009584
H265	H	1.200709	-0.569218	0.341994
H266	H	1.534042	-0.235885	0.675327
H267	H	1.867376	0.097449	1.008660
N268	N	1.424346	-0.276491	0.989900
N269	N	1.757680	0.056842	1.323234
N270	N	2.091013	0.390175	1.656567
H271	H	1.458269	-0.254204	1.036003
H272	H	1.791602	0.079129	1.369336
H273	H	2.124935	0.412463	1.702670
H274	H	1.390012	-0.244329	0.948839
H275	H	1.723345	0.089004	1.282172
H276	H	2.056678	0.422338	1.615506
N277	N	1.387022	-1.016352	0.634583
N278	N	1.720356	-0.683018	0.967917
N279	N	2.053689	-0.349685	1.301250
H280	H	1.421337	-1.050046	0.673152
H281	H	1.754670	-0.716713	1.006485
H282	H	2.088004	-0.383379	1.339818
H283	H	1.347984	-0.989088	0.674041
H284	H	1.681317	-0.655755	1.007374
H285	H	2.014651	-0.322422	1.340707
H286	H	1.372766	-1.143106	0.618544
H287	H	1.706099	-0.809773	0.951877
H288	H	2.039432	-0.476440	1.285210
H289	H	1.176228	-1.007263	0.397656
H290	H	1.509562	-0.673930	0.730989
H291	H	1.842895	-0.340596	1.064323
H292	H	1.189865	-0.430532	1.159716
H293	H	1.523199	-0.097199	1.493050
H294	H	1.856532	0.236135	1.826383
N295	N	1.124487	-0.473473	1.027048
N296	N	1.457821	-0.140140	1.360382
N297	N	1.791154	0.193194	1.693715
H298	H	1.129381	-0.470245	1.094165
H299	H	1.462715	-0.136911	1.427498
H300	H	1.796048	0.196422	1.760832
H301	H	1.139379	-0.518410	1.011433
H302	H	1.472713	-0.185077	1.344766
H303	H	1.806046	0.148256	1.678100
