data_functionalizedCrystal
_audit_creation_method	'MofGen! by Chris Wilmer'
_symmetry_space_group_name_H-M	'P1'
_symmetry_Int_Tables_number	1
_symmetry_cell_setting	triclinic
loop_
_symmetry_equiv_pos_as_xyz
  x,y,z
_cell_length_a	10.654550
_cell_length_b	16.109301
_cell_length_c	15.186229
_cell_angle_alpha	90.005167
_cell_angle_beta	90.006884
_cell_angle_gamma	83.973192
loop_
_atom_site_label
_atom_site_type_symbol
_atom_site_fract_x
_atom_site_fract_y
_atom_site_fract_z
O1	O	-1.666255	-0.116773	-0.073304
O2	O	-1.166255	0.383227	0.426696
O3	O	-1.300626	-0.127898	-0.073290
O4	O	-0.800626	0.372102	0.426710
O5	O	-1.493485	-0.001364	-0.073289
O6	O	-0.993485	0.498636	0.426711
O7	O	-1.473396	-0.243307	-0.073306
O8	O	-0.973396	0.256693	0.426694
O9	O	-1.493472	-0.001362	0.073169
O10	O	-0.993472	0.498638	0.573169
O11	O	-1.300613	-0.127896	0.073167
O12	O	-0.800613	0.372104	0.573167
O13	O	-1.666242	-0.116771	0.073153
O14	O	-1.166242	0.383229	0.573153
Zn15	Zn	-1.483426	-0.122333	0.096413
Zn16	Zn	-0.983426	0.377667	0.596413
Zn17	Zn	-1.483443	-0.122336	-0.096550
Zn18	Zn	-0.983443	0.377664	0.403450
O19	O	-1.473383	-0.243305	0.073152
O20	O	-0.973383	0.256695	0.573152
C21	C	-1.253832	-0.127080	-0.000060
C22	C	-0.753832	0.372920	0.499940
C23	C	-1.114422	-0.124636	-0.000054
C24	C	-0.614422	0.375364	0.499946
C25	C	-1.492665	0.029616	-0.000059
C26	C	-0.992665	0.529616	0.499941
C27	C	-1.490225	0.121926	-0.000058
C28	C	-0.990225	0.621926	0.499942
C29	C	-1.713036	-0.117589	-0.000079
C30	C	-1.213036	0.382411	0.499921
C31	C	-1.852446	-0.120033	-0.000091
C32	C	-1.352446	0.379967	0.499909
C33	C	-1.033926	-0.199138	-0.000072
C34	C	-0.533926	0.300862	0.499928
C35	C	-0.902936	-0.196836	-0.000087
C36	C	-0.402936	0.303164	0.499913
C37	C	-0.932952	-0.045526	-0.000070
C38	C	-0.432952	0.454474	0.499930
C39	C	-1.063939	-0.047828	-0.000048
C40	C	-0.563939	0.452172	0.499952
C41	C	-1.084409	-0.275946	-0.000078
C42	C	-0.584409	0.224054	0.499922
C43	C	-1.003911	-0.350453	-0.000097
C44	C	-0.503911	0.149547	0.499903
C45	C	-0.872921	-0.348152	-0.000112
C46	C	-0.372921	0.151848	0.499888
C47	C	-0.822430	-0.271343	-0.000108
C48	C	-0.322430	0.228657	0.499892
C49	C	-1.474204	-0.274286	-0.000080
C50	C	-0.974204	0.225714	0.499920
C51	C	-1.476643	-0.366595	-0.000087
C52	C	-0.976643	0.133405	0.499913
N53	N	-1.483423	-0.122331	0.228106
N54	N	-0.983423	0.377669	0.728106
C55	C	-1.598991	0.343552	-0.000076
C56	C	-1.098991	0.843552	0.499924
C57	C	-1.596689	0.430286	-0.000083
C58	C	-1.096689	0.930286	0.499917
C59	C	-1.367868	0.411772	-0.000071
C60	C	-0.867868	0.911772	0.499929
C61	C	-1.370172	0.325040	-0.000070
C62	C	-0.870172	0.825040	0.499930
C63	C	-1.485737	0.290932	-0.000068
C64	C	-0.985737	0.790932	0.499932
C65	C	-1.481131	0.464399	-0.000076
C66	C	-0.981131	0.964399	0.499924
C67	C	-1.478634	0.558440	-0.000084
C68	C	-0.978634	1.058440	0.499916
C69	C	-1.488234	0.196885	-0.000062
C70	C	-0.988234	0.696885	0.499938
N71	N	-1.483455	-0.122331	-0.228243
N72	N	-0.983455	0.377669	0.271757
C73	C	-1.568850	-0.066321	0.453830
C74	C	-1.068850	0.433679	0.953830
C75	C	-1.568854	-0.066319	0.546019
C76	C	-1.068854	0.433681	1.046019
C77	C	-1.398019	-0.178344	0.546027
C78	C	-0.898019	0.321656	1.046027
C79	C	-1.398010	-0.178341	0.453839
C80	C	-0.898010	0.321659	0.953839
C81	C	-1.483433	-0.122331	0.407743
C82	C	-0.983433	0.377669	0.907743
C83	C	-1.483445	-0.122332	0.592120
C84	C	-0.983445	0.377668	1.092120
C85	C	-1.483449	-0.122330	0.692076
C86	C	-0.983449	0.377670	1.192076
C87	C	-1.483428	-0.122331	0.307780
C88	C	-0.983428	0.377669	0.807780
H89	H	-1.191065	-0.277828	-0.000070
H90	H	-0.691065	0.222172	0.499930
H91	H	-1.129482	0.012837	-0.000036
H92	H	-0.629482	0.512837	0.499964
Cl93	Cl	-1.290613	-0.248755	0.395895
Cl94	Cl	-0.790613	0.251245	0.895895
H95	H	-1.045031	-0.412988	-0.000093
H96	H	-0.545031	0.087012	0.499907
H97	H	-1.277941	0.282194	-0.000067
H98	H	-0.777941	0.782194	0.499933
Cl99	Cl	-0.771728	-0.441816	-0.000128
Cl100	Cl	-0.271728	0.058184	0.499872
Cl101	Cl	-1.739073	0.496434	-0.000095
Cl102	Cl	-1.239073	0.996434	0.499905
H103	H	-1.273779	0.439553	-0.000071
H104	H	-0.773779	0.939553	0.499929
H105	H	-0.715768	-0.269475	-0.000107
H106	H	-0.215768	0.230525	0.499893
H107	H	-1.638407	-0.020710	0.583541
H108	H	-1.138407	0.479290	1.083541
Cl109	Cl	-1.744272	0.300677	-0.000076
Cl110	Cl	-1.244272	0.800677	0.499924
H111	H	-1.328471	-0.223948	0.583568
H112	H	-0.828471	0.276052	1.083568
H113	H	-0.891831	0.017008	-0.000081
H114	H	-0.391831	0.517008	0.499919
Cl115	Cl	-1.676234	0.004095	0.395884
Cl116	Cl	-1.176234	0.504095	0.895884
