data_functionalizedCrystal
_audit_creation_method	'MofGen! by Chris Wilmer'
_symmetry_space_group_name_H-M	'P1'
_symmetry_Int_Tables_number	1
_symmetry_cell_setting	triclinic
loop_
_symmetry_equiv_pos_as_xyz
  x,y,z
_cell_length_a	14.908742
_cell_length_b	12.594516
_cell_length_c	14.908308
_cell_angle_alpha	86.728502
_cell_angle_beta	83.239341
_cell_angle_gamma	86.722363
loop_
_atom_site_label
_atom_site_type_symbol
_atom_site_fract_x
_atom_site_fract_y
_atom_site_fract_z
Zn1	Zn	1.354260	-0.545267	0.431806
Zn2	Zn	1.854260	-0.045267	0.931806
Zn3	Zn	1.362907	-0.713557	0.280462
Zn4	Zn	1.862907	-0.213557	0.780462
Zn5	Zn	1.211633	-0.525896	0.289212
Zn6	Zn	1.711633	-0.025896	0.789212
Zn7	Zn	1.202880	-0.713497	0.440525
Zn8	Zn	1.702880	-0.213497	0.940525
O9	O	1.282920	-0.624554	0.360501
O10	O	1.782920	-0.124554	0.860501
O11	O	1.482068	-0.575722	0.404418
O12	O	1.982068	-0.075722	0.904418
O13	O	1.350123	-0.680582	0.154959
O14	O	1.850123	-0.180582	0.654959
O15	O	1.230597	-0.379524	0.308140
O16	O	1.730597	0.120476	0.808140
O17	O	1.488422	-0.699365	0.293227
O18	O	1.988422	-0.199365	0.793227
O19	O	1.335384	-0.393755	0.412903
O20	O	1.835384	0.106245	0.912903
O21	O	1.238982	-0.542708	0.161388
O22	O	1.738982	-0.042708	0.661388
O23	O	1.083810	-0.542650	0.316595
O24	O	1.583810	-0.042650	0.816595
O25	O	1.215678	-0.699263	0.566031
O26	O	1.715678	-0.199263	1.066031
O27	O	1.077379	-0.680480	0.427764
O28	O	1.577379	-0.180480	0.927764
O29	O	1.326896	-0.575664	0.559625
O30	O	1.826896	-0.075664	1.059625
O31	O	1.341635	-0.862491	0.301682
O32	O	1.841635	-0.362491	0.801682
O33	O	1.224063	-0.862447	0.419279
O34	O	1.724063	-0.362447	0.919279
C35	C	1.047753	-0.609457	0.374076
C36	C	1.547753	-0.109457	0.874076
C37	C	0.947146	-0.603026	0.379904
C38	C	1.447146	-0.103026	0.879904
C39	C	0.802028	-0.529713	0.446094
C40	C	1.302028	-0.029713	0.946094
C41	C	0.896557	-0.535747	0.440622
C42	C	1.396557	-0.035747	0.940622
C43	C	0.903199	-0.664277	0.324656
C44	C	1.403199	-0.164277	0.824656
C45	C	0.808670	-0.658243	0.330128
C46	C	1.308670	-0.158243	0.830128
C47	C	0.758088	-0.590957	0.390848
C48	C	1.258088	-0.090957	0.890848
C49	C	0.663558	-0.584918	0.396315
C50	C	1.163558	-0.084918	0.896315
C51	C	0.670201	-0.713454	0.280354
C52	C	1.170201	-0.213454	0.780354
C53	C	0.764730	-0.719488	0.274882
C54	C	1.264730	-0.219488	0.774882
C55	C	1.282861	-0.901091	0.360496
C56	C	1.782861	-0.401091	0.860496
C57	C	1.282917	-1.019402	0.360519
C58	C	1.782917	-0.519402	0.860519
C59	C	1.218966	-1.088666	0.424438
C60	C	1.718966	-0.588666	0.924438
C61	C	1.201683	-1.152817	0.343119
C62	C	1.701683	-0.652817	0.843119
C63	C	1.300282	-1.166056	0.441847
C64	C	1.800282	-0.666056	0.941847
C65	C	1.265592	-1.081989	0.279159
C66	C	1.765592	-0.581989	0.779159
C67	C	1.364227	-1.095227	0.377940
C68	C	1.864227	-0.595227	0.877940
C69	C	1.346978	-1.159345	0.296562
C70	C	1.846978	-0.659345	0.796562
C71	C	1.519005	-0.639711	0.346874
C72	C	2.019005	-0.139711	0.846874
C73	C	1.619611	-0.646170	0.341067
C74	C	2.119611	-0.146170	0.841067
C75	C	1.269346	-0.639617	0.596589
C76	C	1.769346	-0.139617	1.096589
C77	C	1.263562	-0.646037	0.697196
C78	C	1.763562	-0.146037	1.197196
C79	C	1.283002	-0.346941	0.360525
C80	C	1.783002	0.153059	0.860525
C81	C	1.283038	-0.228638	0.360535
C82	C	1.783038	0.271362	0.860535
C83	C	1.296493	-0.609476	0.125328
C84	C	1.796493	-0.109476	0.625328
C85	C	1.302452	-0.602769	0.024712
C86	C	1.802452	-0.102769	0.524712
C87	C	1.368501	-0.529371	0.879577
C88	C	1.868501	-0.029371	1.379577
C89	C	1.363069	-0.535398	0.974106
C90	C	1.863069	-0.035398	1.474106
C91	C	1.247262	-0.664113	0.980784
C92	C	1.747262	-0.164113	1.480784
C93	C	1.252694	-0.658086	0.886255
C94	C	1.752694	-0.158086	1.386255
C95	C	1.313317	-0.590713	0.835655
C96	C	1.813317	-0.090713	1.335655
C97	C	1.318753	-0.584692	0.741124
C98	C	1.818753	-0.084692	1.241124
C99	C	1.202941	-0.713400	0.747804
C100	C	1.702941	-0.213400	1.247804
C101	C	1.197509	-0.719428	0.842333
C102	C	1.697509	-0.219428	1.342333
H103	H	0.760844	-0.474915	0.495527
H104	H	1.260844	0.025085	0.995527
H105	H	0.805926	-0.774273	0.225447
H106	H	1.305926	-0.274273	0.725447
O107	O	1.181872	-0.736757	1.035375
O108	O	1.681872	-0.236757	1.535375
H109	H	1.198402	-0.820137	1.016341
H110	H	1.698402	-0.320137	1.516341
O111	O	0.943955	-0.469681	0.500199
O112	O	1.443955	0.030319	1.000199
H113	H	0.892898	-0.421874	0.543332
H114	H	1.392898	0.078126	1.043332
H115	H	1.148150	-0.774279	0.883544
H116	H	1.648150	-0.274279	1.383544
O117	O	0.957761	-0.736842	0.259166
O118	O	1.457761	-0.236842	0.759166
H119	H	1.030874	-0.730741	0.264642
H120	H	1.530874	-0.230741	0.764642
H121	H	1.164798	-1.057623	0.478423
H122	H	1.664798	-0.557623	0.978423
O123	O	1.319683	-1.214673	0.532940
O124	O	1.819683	-0.714673	1.032940
H125	H	1.266447	-1.186347	0.585861
H126	H	1.766447	-0.686347	1.085861
H127	H	0.634415	-0.763326	0.235370
H128	H	1.134415	-0.263326	0.735370
O129	O	1.110674	-1.186620	0.323591
O130	O	1.610674	-0.686620	0.823591
H131	H	1.057652	-1.158332	0.376731
H132	H	1.557652	-0.658332	0.876731
O133	O	1.418691	-1.200194	0.224898
O134	O	1.918691	-0.700194	0.724898
H135	H	1.418630	-1.288373	0.225796
H136	H	1.918630	-0.788373	0.725796
H137	H	1.250873	-1.045407	0.210372
H138	H	1.750873	-0.545407	0.710372
O139	O	1.455323	-1.061630	0.397378
O140	O	1.955323	-0.561630	0.897378
H141	H	1.469574	-1.095520	0.464913
H142	H	1.969574	-0.595520	0.964913
O143	O	1.143398	-0.779525	0.700411
O144	O	1.643398	-0.279525	1.200411
H145	H	1.071328	-0.757846	0.722665
H146	H	1.571328	-0.257846	1.222665
H147	H	1.368116	-0.529835	0.699927
H148	H	1.868116	-0.029835	1.199927
O149	O	1.433889	-0.456720	0.824990
O150	O	1.933889	0.043280	1.324990
H151	H	1.417347	-0.373343	0.844024
H152	H	1.917347	0.126657	1.344024
O153	O	0.608995	-0.512354	0.461805
O154	O	1.108995	-0.012354	0.961805
H155	H	0.655434	-0.470790	0.499308
H156	H	1.155434	0.029210	0.999308
O157	O	1.422594	-0.469244	1.021484
O158	O	1.922594	0.030756	1.521484
H159	H	1.465664	-0.421393	0.970414
H160	H	1.965664	0.078607	1.470414
