data_functionalizedCrystal
_audit_creation_method	'MofGen! by Chris Wilmer'
_symmetry_space_group_name_H-M	'P1'
_symmetry_Int_Tables_number	1
_symmetry_cell_setting	triclinic
loop_
_symmetry_equiv_pos_as_xyz
  x,y,z
_cell_length_a	12.759401
_cell_length_b	12.759399
_cell_length_c	12.759393
_cell_angle_alpha	90.031315
_cell_angle_beta	90.018496
_cell_angle_gamma	90.015844
loop_
_atom_site_label
_atom_site_type_symbol
_atom_site_fract_x
_atom_site_fract_y
_atom_site_fract_z
Zn1	Zn	1.606248	-0.418200	0.593983
Zn2	Zn	1.606140	-0.593919	0.418304
Zn3	Zn	1.430550	-0.418255	0.418323
Zn4	Zn	1.430536	-0.593838	0.593946
O5	O	1.518368	-0.506053	0.506139
O6	O	1.753255	-0.441520	0.570687
O7	O	1.582808	-0.570673	0.271285
O8	O	1.453908	-0.271227	0.441648
O9	O	1.753175	-0.570620	0.441616
O10	O	1.582993	-0.271186	0.570705
O11	O	1.453803	-0.441614	0.271299
O12	O	1.283527	-0.441535	0.441611
O13	O	1.453884	-0.570482	0.740972
O14	O	1.283517	-0.570536	0.570641
O15	O	1.582979	-0.441442	0.740999
O16	O	1.582794	-0.740929	0.441580
O17	O	1.453779	-0.740870	0.570623
C18	C	1.245401	-0.506033	0.506125
C19	C	1.128624	-0.506050	0.506143
C20	C	1.518301	-0.779020	0.506118
C21	C	1.518369	-0.895797	0.506144
C22	C	1.073784	-0.573328	0.573218
C23	C	0.964060	-0.573342	0.573229
C24	C	0.964026	-0.438796	0.439083
C25	C	1.073748	-0.438778	0.439077
C26	C	1.073803	-0.651010	0.650663
C27	C	0.964079	-0.651024	0.650675
C28	C	1.451322	-1.060500	0.438938
C29	C	1.451250	-0.950776	0.438912
C30	C	1.585555	-0.950548	0.573415
C31	C	1.585621	-1.060270	0.573446
C32	C	1.373785	-1.060630	0.361280
C33	C	1.373713	-0.950906	0.361253
C34	C	1.792402	-0.506073	0.506154
C35	C	1.909178	-0.506082	0.506160
C36	C	1.518442	-0.505947	0.780172
C37	C	1.518473	-0.505902	0.896949
C38	C	1.518464	-0.232019	0.506183
C39	C	1.518505	-0.115243	0.506201
C40	C	1.518356	-0.506083	0.233171
C41	C	1.518528	-0.505832	0.116395
C42	C	1.585702	-0.438704	0.951827
C43	C	1.585727	-0.438666	1.061551
C44	C	1.451291	-0.573033	1.061510
C45	C	1.451262	-0.573064	0.951787
C46	C	1.663321	-0.361131	0.951852
C47	C	1.663346	-0.361093	1.061576
H48	H	1.118395	-0.383987	0.384466
H49	H	1.740593	-0.390300	0.917816
H50	H	0.930082	-0.621980	0.728026
H51	H	1.396568	-0.627712	1.106172
O52	O	1.650927	-1.113567	0.638644
C53	C	1.718876	-1.177006	0.578909
H54	H	1.681883	-1.193537	0.499257
H55	H	1.732971	-1.254117	0.621735
H56	H	1.796719	-1.134664	0.567431
H57	H	1.640198	-0.905777	0.628165
H58	H	1.395538	-0.921175	0.279895
H59	H	1.634234	-0.283784	1.095624
O60	O	1.385837	-0.638179	0.898426
C61	C	1.318014	-0.578362	0.834953
H62	H	1.311575	-0.495607	0.868045
H63	H	1.237140	-0.616341	0.833688
H64	H	1.350480	-0.574769	0.751800
H65	H	1.292420	-1.090459	0.383009
O66	O	0.910835	-0.373507	0.373786
C67	C	0.937585	-0.396360	0.269032
H68	H	1.017242	-0.436737	0.266781
H69	H	0.941335	-0.320480	0.222053
H70	H	0.875809	-0.450339	0.233555
H71	H	1.641554	-0.279767	0.922096
O72	O	1.760381	-0.387279	1.097067
C73	C	1.787154	-0.487929	1.060118
H74	H	1.712682	-0.533309	1.040599
H75	H	1.832970	-0.531556	1.123190
H76	H	1.837457	-0.480313	0.986687
O77	O	0.928345	-0.748017	0.624561
C78	C	0.817843	-0.747840	0.624598
H79	H	0.788225	-0.681541	0.676669
H80	H	0.787933	-0.825970	0.655932
H81	H	0.788018	-0.735868	0.541227
H82	H	1.103612	-0.629311	0.732070
H83	H	1.402995	-1.094701	0.284022
O84	O	1.114338	-0.743255	0.615901
C85	C	1.080107	-0.825490	0.681250
H86	H	1.057598	-0.792554	0.761203
H87	H	1.145923	-0.885092	0.691055
H88	H	1.009120	-0.865321	0.644338
H89	H	1.296378	-0.916920	0.390320
