data_functionalizedCrystal
_audit_creation_method	'MofGen! by Chris Wilmer'
_symmetry_space_group_name_H-M	'P1'
_symmetry_Int_Tables_number	1
_symmetry_cell_setting	triclinic
loop_
_symmetry_equiv_pos_as_xyz
  x,y,z
_cell_length_a	19.288840
_cell_length_b	11.792254
_cell_length_c	18.366186
_cell_angle_alpha	89.993617
_cell_angle_beta	89.983729
_cell_angle_gamma	83.662307
loop_
_atom_site_label
_atom_site_type_symbol
_atom_site_fract_x
_atom_site_fract_y
_atom_site_fract_z
O1	O	0.922171	0.141446	-0.060672
O2	O	0.720017	0.160575	-0.060647
O3	O	0.825995	-0.014234	-0.060655
O4	O	0.816193	0.316255	-0.060664
O5	O	0.825977	-0.014243	0.060445
O6	O	0.719999	0.160566	0.060453
O7	O	0.922153	0.141437	0.060428
Zn8	Zn	0.821073	0.151000	0.079667
Zn9	Zn	0.821097	0.151012	-0.079886
O10	O	0.816175	0.316246	0.060436
C11	C	0.694128	0.159960	-0.000094
C12	C	0.617013	0.158126	-0.000084
C13	C	0.580814	0.157250	-0.066097
C14	C	0.508358	0.155515	-0.066106
C15	C	0.472104	0.154633	-0.000098
C16	C	0.508311	0.155515	0.065924
C17	C	0.580765	0.157262	0.065931
C18	C	0.362373	0.085385	0.050465
C19	C	0.289921	0.083631	0.050456
C20	C	0.248630	0.149250	-0.000117
C21	C	0.279801	0.216608	-0.050691
C22	C	0.352256	0.218355	-0.050684
C23	C	0.393539	0.152739	-0.000098
C24	C	0.133865	0.146494	-0.066144
C25	C	0.061406	0.144766	-0.066150
C26	C	0.061362	0.144755	0.065882
C27	C	0.133818	0.146495	0.065886
C28	C	0.170066	0.147359	-0.000129
C29	C	0.825369	-0.056520	-0.000105
C30	C	0.823521	-0.182505	-0.000105
C31	C	0.822019	-0.284818	-0.000108
C32	C	0.820141	-0.413176	-0.000114
C33	C	0.948042	0.142052	-0.000127
C34	C	1.025157	0.143886	-0.000141
C35	C	0.816802	0.358532	-0.000115
C36	C	0.818650	0.484517	-0.000120
N37	N	0.821062	0.150992	0.188559
N38	N	0.821114	0.151011	-0.188777
C39	C	0.868005	0.073624	0.226655
C40	C	0.868009	0.073619	0.302883
C41	C	0.821077	0.151001	0.341011
C42	C	0.774126	0.228375	0.302905
C43	C	0.774118	0.228370	0.226679
C44	C	0.812370	0.254413	0.461769
C45	C	0.812382	0.254419	0.537994
C46	C	0.821097	0.151015	0.576119
C47	C	0.829815	0.047601	0.538009
C48	C	0.829807	0.047596	0.461782
C49	C	0.821080	0.151014	0.423666
C50	C	0.868047	0.073636	0.696871
C51	C	0.868047	0.073629	0.773100
C52	C	0.774167	0.228395	0.773120
C53	C	0.774164	0.228391	0.696893
C54	C	0.821108	0.151013	0.658772
H55	H	0.377632	0.273203	-0.091863
H56	H	0.836903	-0.036607	0.430756
H57	H	0.610238	0.157977	0.119689
H58	H	0.735952	0.291396	0.804164
O59	O	0.022351	0.143820	-0.137349
H60	H	-0.004758	0.065691	-0.140491
O61	O	0.619911	0.158197	-0.137295
H62	H	0.582561	0.157307	-0.183200
O63	O	0.723541	0.311851	0.655794
H64	H	0.690910	0.365668	0.695111
H65	H	0.478879	0.154803	-0.119863
H66	H	0.163292	0.147201	0.119641
O67	O	0.235278	0.287400	-0.105240
H68	H	0.179658	0.274885	-0.096744
H69	H	0.735912	0.291379	0.333953
O70	O	0.256300	0.010992	0.105004
H71	H	0.297181	-0.034323	0.140182
O72	O	0.172968	0.147446	-0.137340
H73	H	0.135618	0.146566	-0.183247
O74	O	0.406909	0.014599	0.105010
H75	H	0.373064	-0.032547	0.140166
O76	O	0.918690	-0.009814	0.814189
H77	H	0.909522	-0.098258	0.799565
H78	H	0.805260	0.338622	0.430735
H79	H	0.031844	0.144044	0.119627
O80	O	0.469174	0.155113	0.137120
H81	H	0.412695	0.153940	0.126025
H82	H	0.906227	0.010616	0.195620
H83	H	0.906237	0.010615	0.333907
O84	O	0.839210	-0.063941	0.579115
H85	H	0.837741	-0.046570	0.638522
O86	O	0.802994	0.365951	0.579098
H87	H	0.796923	0.437853	0.539784
O88	O	0.918667	-0.009830	0.655746
H89	H	0.951303	-0.063646	0.695047
H90	H	0.735891	0.291373	0.195660
