data_functionalizedCrystal
_audit_creation_method	'MofGen! by Chris Wilmer'
_symmetry_space_group_name_H-M	'P1'
_symmetry_Int_Tables_number	1
_symmetry_cell_setting	triclinic
loop_
_symmetry_equiv_pos_as_xyz
  x,y,z
_cell_length_a	12.759401
_cell_length_b	16.959453
_cell_length_c	12.759393
_cell_angle_alpha	90.035042
_cell_angle_beta	90.018567
_cell_angle_gamma	90.019032
loop_
_atom_site_label
_atom_site_type_symbol
_atom_site_fract_x
_atom_site_fract_y
_atom_site_fract_z
Zn1	Zn	1.606217	-0.314655	0.593958
Zn2	Zn	1.606095	-0.446857	0.418267
Zn3	Zn	1.430519	-0.314694	0.418297
Zn4	Zn	1.430491	-0.446793	0.593909
O5	O	1.518330	-0.380750	0.506108
O6	O	1.753222	-0.332202	0.570660
O7	O	1.582765	-0.429368	0.271250
O8	O	1.453888	-0.204078	0.441632
O9	O	1.753132	-0.429330	0.441581
O10	O	1.582973	-0.204049	0.570689
O11	O	1.453770	-0.332268	0.271272
O12	O	1.283494	-0.332207	0.441584
O13	O	1.453841	-0.429222	0.740936
O14	O	1.283474	-0.429260	0.570605
O15	O	1.582946	-0.332141	0.740973
O16	O	1.582738	-0.557459	0.441534
O17	O	1.453723	-0.557413	0.570576
C18	C	1.245363	-0.380731	0.506093
C19	C	1.128586	-0.380742	0.506112
C20	C	1.073764	-0.330263	0.573427
C21	C	0.964040	-0.330278	0.573434
C22	C	0.963970	-0.431258	0.438807
C23	C	1.073692	-0.431239	0.438795
C24	C	1.128658	-0.279767	0.640744
C25	C	1.073836	-0.229284	0.708066
C26	C	0.964112	-0.229299	0.708072
C27	C	0.909210	-0.279797	0.640757
C28	C	1.518243	-0.586116	0.506069
C29	C	1.518301	-0.673973	0.506088
C30	C	1.585631	-1.045375	0.573435
C31	C	1.451323	-1.045521	0.438937
C32	C	1.451284	-0.962976	0.438913
C33	C	1.518419	-0.921626	0.506152
C34	C	1.585592	-0.962821	0.573415
C35	C	1.384105	-0.921774	0.371658
C36	C	1.384063	-0.839223	0.371632
C37	C	1.451203	-0.797871	0.438867
C38	C	1.518379	-0.839072	0.506132
C39	C	1.585514	-0.797722	0.573371
C40	C	1.652696	-0.838921	0.640631
C41	C	1.652732	-0.921470	0.640649
C42	C	1.451167	-0.715323	0.438849
C43	C	1.585474	-0.715168	0.573351
C44	C	1.792364	-0.380769	0.506123
C45	C	1.909140	-0.380777	0.506130
C46	C	1.518404	-0.380670	0.780141
C47	C	1.518435	-0.380636	0.896918
C48	C	1.518447	-0.174582	0.506169
C49	C	1.518497	-0.086725	0.506196
C50	C	1.518318	-0.380772	0.233140
C51	C	1.518490	-0.380583	0.116364
C52	C	1.585669	-0.330081	0.951801
C53	C	1.585694	-0.330052	1.061525
C54	C	1.451248	-0.431141	1.061474
C55	C	1.451219	-0.431165	0.951752
C56	C	1.652886	-0.279552	0.896967
C57	C	1.720127	-0.228994	0.951849
C58	C	1.720152	-0.228965	1.061574
C59	C	1.652936	-0.279495	1.116415
H60	H	0.919478	-0.188188	0.762881
C61	C	1.771425	-0.095115	1.095396
C62	C	1.794057	-0.173388	1.121897
H63	H	1.817061	-0.060806	1.132630
H64	H	1.700856	-0.083539	1.113385
H65	H	1.781026	-0.087914	1.022198
H66	H	1.784448	-0.180591	1.195094
H67	H	1.864643	-0.184968	1.103915
C68	C	1.241861	-0.476038	0.379004
C69	C	1.133963	-0.486725	0.364802
H70	H	1.279067	-0.510289	0.333315
H71	H	1.259864	-0.487669	0.449557
H72	H	1.259827	-0.422909	0.363755
H73	H	1.115995	-0.539854	0.380059
H74	H	1.115952	-0.475100	0.294234
C75	C	0.752028	-0.355037	0.667356
C76	C	0.788599	-0.279815	0.640756
H77	H	0.677570	-0.355050	0.667350
H78	H	0.776868	-0.368753	0.735116
H79	H	0.776834	-0.392324	0.617629
H80	H	0.763799	-0.242529	0.690488
H81	H	0.763748	-0.266090	0.572986
C82	C	1.107668	-0.095481	0.759565
C83	C	1.134179	-0.173777	0.782054
H84	H	1.144925	-0.061214	0.805240
H85	H	1.034484	-0.088272	0.769205
H86	H	1.125632	-0.083856	0.688999
H87	H	1.116207	-0.185404	0.852617
H88	H	1.207379	-0.180991	0.772423
C89	C	1.206175	-0.813935	0.320278
C90	C	1.310226	-0.793943	0.297692
H91	H	1.160595	-0.785983	0.274622
H92	H	1.190758	-0.800362	0.390839
H93	H	1.196603	-0.869017	0.310671
H94	H	1.319799	-0.738861	0.307306
H95	H	1.325648	-0.807510	0.227113
C96	C	1.273277	-0.690029	0.387533
C97	C	1.377324	-0.670036	0.364929
H98	H	1.227689	-0.662073	0.341891
H99	H	1.257874	-0.676463	0.458100
H100	H	1.263703	-0.745111	0.377919
H101	H	1.386900	-0.614954	0.374550
H102	H	1.392732	-0.683597	0.294345
H103	H	1.774844	-0.187849	0.907190
H104	H	1.707353	-0.805244	0.695383
H105	H	1.396524	-0.472280	1.106135
H106	H	1.218001	-0.279749	0.640746
C107	C	0.795740	-0.476131	0.379059
C108	C	0.903624	-0.486771	0.364828
H109	H	0.758489	-0.510409	0.333393
H110	H	0.777763	-0.423019	0.363806
H111	H	0.777802	-0.487764	0.449629
H112	H	0.921564	-0.475132	0.294260
H113	H	0.921608	-0.539895	0.380074
H114	H	1.640148	-0.681506	0.628102
C115	C	1.726176	-0.224422	1.273622
C116	C	1.652968	-0.279467	1.237026
H117	H	1.726203	-0.224413	1.348081
H118	H	1.708025	-0.173425	1.248828
H119	H	1.793955	-0.238107	1.248788
H120	H	1.585187	-0.265779	1.261854
H121	H	1.671113	-0.330475	1.261831
C122	C	1.318372	-0.531118	0.962714
C123	C	1.377343	-0.486757	0.891417
H124	H	1.272774	-0.565445	0.925463
H125	H	1.278193	-0.496674	1.005507
H126	H	1.364158	-0.561330	1.005514
H127	H	1.331557	-0.456540	0.848621
H128	H	1.417524	-0.521205	0.848606
H129	H	1.329445	-0.955447	0.316919
C130	C	1.712411	-1.047944	0.700410
C131	C	1.726564	-0.966757	0.714587
H132	H	1.757986	-1.075903	0.746063
H133	H	1.727837	-1.061504	0.629846
H134	H	1.641812	-1.061487	0.715725
H135	H	1.797161	-0.953214	0.699264
H136	H	1.711145	-0.953192	0.785167
C137	C	1.391757	-1.172127	0.379247
C138	C	1.377537	-1.090972	0.365026
H139	H	1.346208	-1.200187	0.333608
H140	H	1.376340	-1.185616	0.449818
H141	H	1.462368	-1.185620	0.363942
H142	H	1.306928	-1.077478	0.380339
H143	H	1.392947	-1.077478	0.294439
C144	C	1.552938	-0.259493	0.739751
C145	C	1.652871	-0.279625	0.776357
H146	H	1.552934	-0.259557	0.665292
H147	H	1.534819	-0.208467	0.764534
H148	H	1.503290	-0.296812	0.764587
H149	H	1.702518	-0.242303	0.751527
H150	H	1.671002	-0.330658	0.751563
H151	H	1.640332	-1.078923	0.628194
