data_functionalizedCrystal
_audit_creation_method	'MofGen! by Chris Wilmer'
_symmetry_space_group_name_H-M	'P1'
_symmetry_Int_Tables_number	1
_symmetry_cell_setting	triclinic
loop_
_symmetry_equiv_pos_as_xyz
  x,y,z
_cell_length_a	10.654545
_cell_length_b	19.188924
_cell_length_c	9.130313
_cell_angle_alpha	89.993420
_cell_angle_beta	89.996934
_cell_angle_gamma	83.812522
loop_
_atom_site_label
_atom_site_type_symbol
_atom_site_fract_x
_atom_site_fract_y
_atom_site_fract_z
O1	O	1.665764	0.098047	-0.121792
O2	O	1.300086	0.107393	-0.121799
O3	O	1.493482	0.001133	-0.121778
O4	O	1.472368	0.204307	-0.121813
O5	O	1.493469	0.001130	0.121821
O6	O	1.300073	0.107390	0.121800
O7	O	1.665751	0.098044	0.121807
Cu8	Cu	1.482911	0.102717	0.144046
Cu9	Cu	1.482926	0.102720	-0.144038
O10	O	1.472355	0.204304	0.121786
C11	C	1.253296	0.106706	-0.000000
C12	C	1.113896	0.104655	-0.000002
C13	C	1.048405	0.103688	0.132784
C14	C	0.917427	0.101749	0.132785
C15	C	0.917442	0.101748	-0.132800
C16	C	1.048419	0.103681	-0.132799
C17	C	1.492793	-0.024884	0.000023
C18	C	1.490745	-0.102402	0.000026
C19	C	1.489796	-0.138806	-0.132760
C20	C	1.487854	-0.211641	-0.132771
C21	C	1.486886	-0.248072	0.000012
C22	C	1.487828	-0.211659	0.132815
C23	C	1.489757	-0.138824	0.132823
N24	N	1.555313	-0.367289	0.098840
N25	N	1.553483	-0.436480	0.098824
C26	C	1.481069	-0.467519	-0.000003
N27	N	1.410570	-0.426755	-0.098835
N28	N	1.412407	-0.357559	-0.098823
C29	C	1.484792	-0.327049	0.000018
C30	C	1.478012	-0.582899	-0.132810
C31	C	1.476062	-0.655735	-0.132816
C32	C	1.476048	-0.655753	0.132774
C33	C	1.477986	-0.582917	0.132776
C34	C	1.478974	-0.546495	-0.000020
C35	C	1.712541	0.098731	0.000005
C36	C	1.851941	0.100782	-0.000003
C37	C	1.473044	0.230321	-0.000018
C38	C	1.475092	0.307839	-0.000032
N39	N	1.482909	0.102714	0.346668
N40	N	1.482938	0.102718	-0.346661
C41	C	1.568573	0.055682	0.423329
C42	C	1.568585	0.055682	0.576666
C43	C	1.397265	0.149752	0.576667
C44	C	1.397248	0.149748	0.423333
H45	H	1.101713	0.104480	0.240916
Br46	Br	1.684825	-0.008152	0.319289
Br47	Br	1.281017	0.213584	0.680718
Br48	Br	1.491131	-0.089378	-0.312982
H49	H	1.478769	-0.553278	0.240905
Br50	Br	1.486561	-0.261056	-0.312993
Br51	Br	1.684842	-0.008153	0.680704
H52	H	1.487035	-0.241326	0.240928
Br53	Br	1.280972	0.213576	0.319281
H54	H	0.864109	0.100961	0.240913
H55	H	1.490525	-0.109185	0.240956
H56	H	0.864114	0.100956	-0.240918
Br57	Br	1.137310	0.104985	-0.313023
H58	H	1.475283	-0.685373	-0.240950
Br59	Br	1.479346	-0.533464	-0.313028
H60	H	1.475250	-0.685413	0.240889
