data_functionalizedCrystal
_audit_creation_method	'MofGen! by Chris Wilmer'
_symmetry_space_group_name_H-M	'P1'
_symmetry_Int_Tables_number	1
_symmetry_cell_setting	triclinic
loop_
_symmetry_equiv_pos_as_xyz
  x,y,z
_cell_length_a	14.908571
_cell_length_b	16.120484
_cell_length_c	14.908308
_cell_angle_alpha	95.986071
_cell_angle_beta	90.175053
_cell_angle_gamma	89.787312
loop_
_atom_site_label
_atom_site_type_symbol
_atom_site_fract_x
_atom_site_fract_y
_atom_site_fract_z
Zn1	Zn	1.320097	-0.434923	-0.609960
Zn2	Zn	1.321040	-0.566744	-0.466383
Zn3	Zn	1.179340	-0.418915	-0.450134
Zn4	Zn	1.162126	-0.565754	-0.607984
O5	O	1.245651	-0.496584	-0.533615
O6	O	1.445636	-0.459523	-0.598542
O7	O	1.309843	-0.540849	-0.338080
O8	O	1.204822	-0.304418	-0.465363
O9	O	1.446329	-0.556371	-0.493056
O10	O	1.308235	-0.316179	-0.582786
O11	O	1.205736	-0.432240	-0.326142
O12	O	1.051643	-0.431280	-0.463446
O13	O	1.175482	-0.554684	-0.734394
O14	O	1.038995	-0.539162	-0.579418
O15	O	1.291543	-0.458562	-0.735846
O16	O	1.293150	-0.683233	-0.491140
O17	O	1.176396	-0.682506	-0.595173
C18	C	1.012801	-0.483377	-0.519455
C19	C	0.913184	-0.477748	-0.513419
C20	C	0.712871	-0.579666	-0.622692
C21	C	0.619272	-0.574380	-0.617025
C22	C	0.632384	-0.461887	-0.496421
C23	C	0.725983	-0.467173	-0.502089
C24	C	0.766223	-0.526065	-0.565226
C25	C	0.859824	-0.531355	-0.570888
C26	C	0.872935	-0.418858	-0.450290
C27	C	0.779335	-0.413572	-0.444622
C28	C	1.233031	-0.713110	-0.544726
C29	C	1.227712	-0.805747	-0.549515
C30	C	1.218005	-0.975358	-0.558276
C31	C	1.273456	-1.016980	-0.508979
C32	C	1.268055	-1.111356	-0.513854
C33	C	1.223405	-0.880972	-0.553403
C34	C	1.479410	-0.509843	-0.547832
C35	C	1.579025	-0.515493	-0.553890
C36	C	1.231487	-0.508298	-0.768743
C37	C	1.225451	-0.513290	-0.868941
C38	C	1.258344	-0.279214	-0.522482
C39	C	1.263752	-0.186584	-0.517738
C40	C	1.334963	-0.422560	-1.058735
C41	C	1.329294	-0.427248	-1.152880
C42	C	1.208443	-0.527348	-1.151376
C43	C	1.214111	-0.522661	-1.057231
C44	C	1.277374	-0.470266	-1.010914
C45	C	1.283046	-0.465583	-0.916769
C46	C	1.162191	-0.565679	-0.915266
C47	C	1.156523	-0.570366	-1.009410
C48	C	1.259815	-0.484858	-0.299402
C49	C	1.266038	-0.479641	-0.199204
H50	H	0.575836	-0.618026	-0.663822
N51	N	1.388108	-0.378506	-1.201728
N52	N	1.387277	-0.300746	-1.186911
H53	H	1.428814	-0.266318	-1.221410
H54	H	1.324985	-0.981734	-0.463113
N55	N	1.153359	-1.019550	-0.615817
N56	N	1.154755	-1.014349	-0.698871
H57	H	1.109096	-1.045567	-0.739508
H58	H	1.334559	-0.422921	-0.879059
N59	N	0.738241	-0.353408	-0.380134
N60	N	0.752802	-0.277411	-0.382928
H61	H	0.723782	-0.234919	-0.337380
H62	H	1.386478	-0.379902	-1.021024
H63	H	1.156937	-0.570005	-1.189103
H64	H	1.105015	-0.613023	-1.047134
N65	N	1.103355	-0.614397	-0.866406
N66	N	1.051120	-0.579221	-0.808898
H67	H	1.009568	-0.613628	-0.774390
N68	N	0.900917	-0.591519	-0.635377
N69	N	0.853266	-0.639372	-0.686681
H70	H	0.882284	-0.681864	-0.732229
N71	N	0.591285	-0.401729	-0.431930
N72	N	0.638928	-0.353871	-0.380624
H73	H	0.609903	-0.311382	-0.335077
H74	H	0.745635	-0.627623	-0.674096
H75	H	0.916384	-0.375214	-0.403494
