data_functionalizedCrystal
_audit_creation_method	'MofGen! by Chris Wilmer'
_symmetry_space_group_name_H-M	'P1'
_symmetry_Int_Tables_number	1
_symmetry_cell_setting	triclinic
loop_
_symmetry_equiv_pos_as_xyz
  x,y,z
_cell_length_a	11.169417
_cell_length_b	15.299816
_cell_length_c	11.169409
_cell_angle_alpha	99.647672
_cell_angle_beta	89.980487
_cell_angle_gamma	80.351466
loop_
_atom_site_label
_atom_site_type_symbol
_atom_site_fract_x
_atom_site_fract_y
_atom_site_fract_z
Zn1	Zn	1.917495	-0.358948	-0.761232
Zn2	Zn	1.952069	-0.509795	-0.595303
Zn3	Zn	1.716794	-0.359004	-0.560580
Zn4	Zn	1.751457	-0.509723	-0.795932
O5	O	1.834454	-0.434367	-0.678261
O6	O	2.090033	-0.378965	-0.739230
O7	O	1.920822	-0.489846	-0.422759
O8	O	1.714442	-0.232790	-0.558143
O9	O	2.115434	-0.489792	-0.617323
O10	O	1.861896	-0.232748	-0.705561
O11	O	1.747967	-0.379060	-0.397249
O12	O	1.553441	-0.378990	-0.591791
O13	O	1.773519	-0.489669	-0.959266
O14	O	1.578907	-0.489723	-0.764703
O15	O	1.895507	-0.378895	-0.933772
O16	O	1.954433	-0.635992	-0.650970
O17	O	1.807044	-0.635939	-0.798372
C18	C	1.522626	-0.434355	-0.678245
C19	C	1.389230	-0.434372	-0.678271
C20	C	1.888284	-0.668690	-0.732230
C21	C	1.911423	-0.768934	-0.755359
C22	C	1.669865	-1.051890	-0.513368
C23	C	1.648119	-0.957705	-0.491641
C24	C	1.713944	-0.910508	-0.557568
C25	C	1.801517	-0.957504	-0.645227
C26	C	1.823259	-1.051698	-0.666963
C27	C	1.867337	-0.910316	-0.711163
C28	C	1.954910	-0.957312	-0.798822
C29	C	1.976649	-1.051496	-0.820553
C30	C	1.910824	-1.098694	-0.754626
C31	C	1.845595	-0.816122	-0.689427
C32	C	1.998989	-0.815930	-0.843022
C33	C	2.020735	-0.910114	-0.864749
C34	C	2.147499	-0.434380	-0.678279
C35	C	2.280900	-0.434386	-0.678286
C36	C	1.834523	-0.434267	-0.991281
C37	C	1.834552	-0.434225	-1.124671
C38	C	1.780446	-0.199130	-0.624108
C39	C	1.757431	-0.098886	-0.601031
C40	C	1.834439	-0.434402	-0.366445
C41	C	1.834584	-0.434191	-0.232997
H42	H	1.774292	-0.777866	-0.618055
Br43	Br	2.088322	-0.751885	-0.932506
H44	H	1.696234	-0.833819	-0.539871
H45	H	1.576817	-0.919445	-0.420271
H46	H	1.928529	-1.175386	-0.772308
Br47	Br	2.139582	-0.973905	-0.983710
H48	H	1.616275	-1.090326	-0.459705
Br49	Br	2.095470	-1.115275	-0.939548
