data_functionalizedCrystal
_audit_creation_method	'MofGen! by Chris Wilmer'
_symmetry_space_group_name_H-M	'P1'
_symmetry_Int_Tables_number	1
_symmetry_cell_setting	triclinic
loop_
_symmetry_equiv_pos_as_xyz
  x,y,z
_cell_length_a	19.288867
_cell_length_b	14.971486
_cell_length_c	18.366186
_cell_angle_alpha	90.001758
_cell_angle_beta	90.004879
_cell_angle_gamma	83.375599
loop_
_atom_site_label
_atom_site_type_symbol
_atom_site_fract_x
_atom_site_fract_y
_atom_site_fract_z
O1	O	0.921713	0.111584	0.060524
O2	O	0.719502	0.126634	0.060532
O3	O	0.826028	-0.011121	0.060523
O4	O	0.815188	0.249338	0.060533
O5	O	0.826014	-0.011116	-0.060577
O6	O	0.719488	0.126639	-0.060568
O7	O	0.921700	0.111588	-0.060575
Zn8	Zn	0.820592	0.119114	-0.079798
Zn9	Zn	0.820610	0.119108	0.079755
O10	O	0.815174	0.249343	-0.060566
C11	C	0.693617	0.126152	-0.000017
C12	C	0.616509	0.124697	-0.000015
C13	C	0.060917	0.114217	0.065988
C14	C	0.133369	0.115578	0.065991
C15	C	0.169592	0.116266	-0.000021
C16	C	0.133360	0.115569	-0.066039
C17	C	0.060910	0.114198	-0.066040
C18	C	0.279092	0.170826	-0.050591
C19	C	0.351539	0.172202	-0.050588
C20	C	0.393052	0.120488	-0.000021
C21	C	0.362106	0.067410	0.050555
C22	C	0.289656	0.066040	0.050554
C23	C	0.248152	0.117751	-0.000027
C24	C	0.507837	0.122655	0.065997
C25	C	0.580290	0.124011	0.065997
C26	C	0.580279	0.124011	-0.066035
C27	C	0.507828	0.122646	-0.066033
C28	C	0.471610	0.121972	-0.000015
C29	C	0.825536	-0.044440	-0.000027
C30	C	0.824083	-0.143730	-0.000026
C31	C	0.947585	0.112071	-0.000024
C32	C	1.024693	0.113525	-0.000022
C33	C	0.886664	-0.201293	-0.000029
C34	C	0.885295	-0.294585	-0.000021
C35	C	0.821344	-0.330312	-0.000017
C36	C	0.758759	-0.272741	-0.000012
C37	C	0.760128	-0.179451	-0.000014
C38	C	0.755908	-0.467189	-0.000009
C39	C	0.754538	-0.560485	-0.000008
C40	C	0.881074	-0.582322	-0.000017
C41	C	0.882444	-0.489032	-0.000019
C42	C	0.819858	-0.431468	-0.000015
C43	C	0.815666	0.282662	-0.000015
C44	C	0.817119	0.381952	-0.000011
N45	N	0.820584	0.119118	-0.188690
C46	C	0.862792	0.173200	-0.773238
C47	C	0.862785	0.173209	-0.697011
C48	C	0.820616	0.119098	-0.658901
C49	C	0.778439	0.064991	-0.697025
C50	C	0.778442	0.064991	-0.773252
C51	C	0.818627	0.038454	-0.538138
C52	C	0.818628	0.038453	-0.461913
C53	C	0.820603	0.119100	-0.423793
C54	C	0.822590	0.199751	-0.461908
C55	C	0.822593	0.199750	-0.538135
C56	C	0.820608	0.119093	-0.576246
C57	C	0.862766	0.173218	-0.303023
C58	C	0.862754	0.173229	-0.226794
C59	C	0.778412	0.065002	-0.226810
C60	C	0.778420	0.065000	-0.303038
C61	C	0.820601	0.119106	-0.341140
N62	N	0.820623	0.119097	0.188646
H63	H	0.478347	0.122104	0.119753
F64	F	0.384467	0.228699	-0.104409
F65	F	0.816526	-0.047388	-0.578700
F66	F	0.406280	0.012372	0.104379
H67	H	0.744104	0.020936	-0.665992
H68	H	0.938740	-0.172212	-0.000037
H69	H	0.162858	0.116127	-0.119786
H70	H	0.824209	0.265419	-0.569165
F71	F	0.733558	0.007404	-0.813818
H72	H	0.744085	0.020939	-0.334072
F73	F	0.951902	-0.355844	-0.000026
H74	H	0.031434	0.113665	0.119745
H75	H	0.706689	-0.301838	-0.000003
F76	F	0.171929	0.116316	0.136250
F77	F	0.256724	0.009550	0.104377
F78	F	0.693521	-0.118188	-0.000009
H79	H	0.031417	0.113638	-0.119795
H80	H	0.817015	-0.027218	-0.430886
H81	H	0.744074	0.020949	-0.195782
F82	F	0.947683	-0.643587	-0.000017
F83	F	0.618844	0.124739	0.136258
F84	F	0.618827	0.124730	-0.136289
H85	H	0.704944	-0.420322	-0.000004
H86	H	0.824197	0.265422	-0.430873
F87	F	0.469272	0.121921	-0.136291
F88	F	0.234919	0.225862	-0.104422
H89	H	0.934518	-0.459946	-0.000028
F90	F	0.686474	-0.598507	-0.000004
F91	F	0.907680	0.230791	-0.813785
H92	H	0.897123	0.217271	-0.665971
H93	H	0.897109	0.217279	-0.334047
F94	F	0.907625	0.230833	-0.186229
