data_functionalizedCrystal
_audit_creation_method	'MofGen! by Chris Wilmer'
_symmetry_space_group_name_H-M	'P1'
_symmetry_Int_Tables_number	1
_symmetry_cell_setting	triclinic
loop_
_symmetry_equiv_pos_as_xyz
  x,y,z
_cell_length_a	12.837943
_cell_length_b	9.482900
_cell_length_c	10.967971
_cell_angle_alpha	111.340423
_cell_angle_beta	89.655804
_cell_angle_gamma	79.713792
loop_
_atom_site_label
_atom_site_type_symbol
_atom_site_fract_x
_atom_site_fract_y
_atom_site_fract_z
O1	O	1.383197	-0.041026	0.318674
O2	O	1.081832	-0.045205	0.302027
O3	O	1.245716	-0.090127	0.122679
O4	O	1.219314	0.003896	0.498022
O5	O	1.212423	0.160831	0.159271
O6	O	1.048539	0.205752	0.338619
O7	O	1.349905	0.209932	0.355266
Cu8	Cu	1.196182	0.230757	0.350283
Cu9	Cu	1.235555	-0.066030	0.307009
O10	O	1.186021	0.254853	0.534614
C11	C	1.026714	0.078864	0.314699
C12	C	0.912080	0.074659	0.297928
N13	N	1.168497	0.439500	0.380720
N14	N	1.263248	-0.274776	0.276563
C15	C	0.665799	0.125185	0.499548
C16	C	0.558089	0.121236	0.483796
C17	C	0.588946	0.062824	0.250674
C18	C	0.696656	0.066773	0.266426
C19	C	0.735079	0.097952	0.390867
C20	C	0.842792	0.101889	0.406616
C21	C	0.873646	0.043488	0.173497
C22	C	0.765936	0.039540	0.157745
C23	C	1.405024	0.085860	0.342593
C24	C	1.519659	0.090055	0.359363
C25	C	1.229664	0.023231	0.092598
C26	C	1.231424	-0.012887	-0.051549
C27	C	1.227382	0.495484	0.315979
C28	C	1.204355	0.669247	0.341314
C29	C	1.214961	0.101012	-0.096866
C30	C	1.216779	0.063685	-0.245850
C31	C	1.202073	0.141493	0.564694
C32	C	1.200315	0.177601	0.708840
H33	H	0.874073	0.127279	0.507942
H34	H	1.199527	0.226159	-0.025366
O35	O	1.237228	-0.102104	-0.340538
H36	H	1.235437	-0.105407	-0.442696
O37	O	1.179857	0.343391	-0.196474
H38	H	1.181631	0.346698	-0.094314
H39	H	1.246868	-0.138035	-0.123050
O40	O	0.724494	0.005913	0.023531
H41	H	0.637958	0.007735	0.030832
H42	H	1.101032	0.520210	0.454898
H43	H	0.930067	0.021303	0.085000
O44	O	0.707251	0.158798	0.633756
H45	H	0.742024	0.264273	0.661416
O46	O	0.483362	0.150602	0.601012
H47	H	0.528182	0.172934	0.690183
H48	H	1.294840	0.414773	0.241790
H49	H	0.557627	0.037564	0.149378
H50	H	1.330710	0.644516	0.202369
O51	O	1.114990	0.776136	0.439593
H52	H	1.110933	0.895844	0.444079
