data_functionalizedCrystal
_audit_creation_method	'MofGen! by Chris Wilmer'
_symmetry_space_group_name_H-M	'P1'
_symmetry_Int_Tables_number	1
_symmetry_cell_setting	triclinic
loop_
_symmetry_equiv_pos_as_xyz
  x,y,z
_cell_length_a	17.699077
_cell_length_b	14.519709
_cell_length_c	16.176319
_cell_angle_alpha	89.992256
_cell_angle_beta	89.993140
_cell_angle_gamma	83.480361
loop_
_atom_site_label
_atom_site_type_symbol
_atom_site_fract_x
_atom_site_fract_y
_atom_site_fract_z
O1	O	1.004415	0.116598	-0.068737
O2	O	0.784080	0.131777	-0.068742
O3	O	0.900090	-0.010076	-0.068732
O4	O	0.888406	0.258451	-0.068747
O5	O	0.900074	-0.010085	0.068761
O6	O	0.784064	0.131768	0.068752
O7	O	1.004399	0.116589	0.068756
Cu8	Cu	0.894230	0.124178	0.081308
Cu9	Cu	0.894249	0.124188	-0.081294
O10	O	0.888390	0.258442	0.068746
C11	C	0.755873	0.131230	0.000005
C12	C	0.671850	0.129601	0.000003
C13	C	0.632372	0.128828	0.074952
C14	C	0.553425	0.127283	0.074953
C15	C	0.513957	0.126517	0.000004
C16	C	0.553441	0.127287	-0.074950
C17	C	0.632387	0.128825	-0.074950
C18	C	0.235060	0.121081	-0.074951
C19	C	0.156108	0.119545	-0.074945
C20	C	0.156098	0.119538	0.074951
C21	C	0.235044	0.121077	0.074951
C22	C	0.274522	0.121842	-0.000002
C23	C	0.360125	0.123515	-0.000003
C24	C	0.428354	0.124850	0.000003
C25	C	0.899537	-0.044438	0.000015
C26	C	0.897905	-0.146812	0.000015
C27	C	0.891898	-0.521682	-0.000006
C28	C	0.893566	-0.417381	-0.000000
C29	C	0.894902	-0.334250	0.000005
C30	C	0.896570	-0.229943	0.000010
C31	C	1.032606	0.117137	0.000008
C32	C	1.116629	0.118766	0.000004
C33	C	0.888942	0.292804	-0.000002
C34	C	0.890574	0.395178	-0.000008
N35	N	0.894222	0.124170	0.195673
N36	N	0.894263	0.124189	-0.195659
C37	C	0.945607	0.061383	0.238942
C38	C	0.945611	0.061382	0.325489
C39	C	0.894233	0.124173	0.368766
C40	C	0.842843	0.186963	0.325491
C41	C	0.842836	0.186959	0.238946
C42	C	0.842869	0.186980	0.674519
C43	C	0.842881	0.186981	0.761071
C44	C	0.945644	0.061403	0.761062
C45	C	0.945637	0.061399	0.674517
C46	C	0.894244	0.124185	0.631250
C47	C	0.894240	0.124184	0.537406
C48	C	0.894241	0.124179	0.462608
H49	H	0.123946	0.118911	0.135982
H50	H	0.521287	0.126639	0.135983
Cl51	Cl	0.778232	0.265891	0.184552
Cl52	Cl	0.681980	0.129797	0.169178
H53	H	0.987476	0.010272	0.639284
H54	H	0.267174	0.121705	0.135982
H55	H	0.267194	0.121700	-0.135983
H56	H	0.521301	0.126656	-0.135974
Cl57	Cl	0.106492	0.118580	-0.169174
H58	H	0.801006	0.238085	0.360732
Cl59	Cl	1.010209	-0.017552	0.379885
H60	H	0.801025	0.238104	0.639298
H61	H	0.664529	0.129456	-0.135981
Cl62	Cl	1.010204	-0.017555	0.184545
H63	H	0.987488	0.010276	0.796300
H64	H	0.801040	0.238115	0.796306
