data_functionalizedCrystal
_audit_creation_method	'MofGen! by Chris Wilmer'
_symmetry_space_group_name_H-M	'P1'
_symmetry_Int_Tables_number	1
_symmetry_cell_setting	triclinic
loop_
_symmetry_equiv_pos_as_xyz
  x,y,z
_cell_length_a	16.793024
_cell_length_b	16.793047
_cell_length_c	33.586455
_cell_angle_alpha	113.253857
_cell_angle_beta	66.219990
_cell_angle_gamma	112.758327
loop_
_atom_site_label
_atom_site_type_symbol
_atom_site_fract_x
_atom_site_fract_y
_atom_site_fract_z
O1	O	0.005016	-0.570216	-0.583573
O2	O	-0.034529	-0.474528	-0.453458
O3	O	0.114723	-0.474535	-0.528082
O4	O	-0.144235	-0.570209	-0.508949
O5	O	0.108729	-0.346329	-0.530229
O6	O	-0.040523	-0.346322	-0.455605
O7	O	-0.000977	-0.442010	-0.585721
Zn8	Zn	-0.021701	-0.373810	-0.521004
Zn9	Zn	-0.013805	-0.542728	-0.518175
O10	O	-0.150229	-0.442003	-0.511097
C11	C	0.005100	-0.790970	-0.238461
C12	C	0.009223	-0.693065	-0.217557
C13	C	0.003804	-0.645758	-0.241627
C14	C	-0.075059	-0.538459	-0.266316
C15	C	0.049838	-0.422849	-0.250165
C16	C	-0.040584	-0.395375	-0.435637
C17	C	-0.044693	-0.353446	-0.386631
C18	C	-0.039275	-0.401741	-0.363054
C19	C	-0.040566	-0.125547	-0.300731
C20	C	-0.044689	-0.223451	-0.321635
C21	C	-0.039266	-0.270752	-0.297563
C22	C	0.039597	-0.378051	-0.272874
C23	C	-0.085304	-0.493667	-0.289026
C24	C	0.005118	-0.521142	-0.103554
C25	C	0.009231	-0.563064	-0.152559
C26	C	0.003809	-0.514775	-0.176138
C27	C	0.010758	-0.652581	-0.172822
C28	C	0.001010	-0.556371	-0.220792
C29	C	-0.008251	-0.506059	-0.245823
C30	C	-0.046224	-0.263935	-0.366370
C31	C	-0.036476	-0.360146	-0.318399
C32	C	-0.027211	-0.410451	-0.293367
C33	C	0.815184	-0.521162	-0.508596
C34	C	0.415541	-0.125553	-0.528781
C35	C	0.375032	-0.223457	-0.531493
C36	C	0.423813	-0.270761	-0.529101
C37	C	0.149318	-0.395376	-0.530584
C38	C	0.246774	-0.353455	-0.532364
C39	C	0.294574	-0.401748	-0.529976
C40	C	0.548961	-0.790984	-0.510398
C41	C	0.286104	-0.263940	-0.532530
C42	C	0.383336	-0.360149	-0.528302
C43	C	0.432207	-0.407971	-0.525810
C44	C	0.392316	-0.497392	-0.524993
C45	C	0.303554	-0.538991	-0.526667
C46	C	0.254683	-0.491169	-0.529159
C47	C	0.263666	-0.628421	-0.525851
C48	C	0.312537	-0.676243	-0.523359
C49	C	0.401299	-0.634644	-0.521685
C50	C	0.441190	-0.545223	-0.522502
C51	C	0.529952	-0.503624	-0.520828
C52	C	0.578823	-0.551446	-0.518336
C53	C	0.538939	-0.640864	-0.517520
C54	C	0.450177	-0.682463	-0.519194
C55	C	0.587810	-0.688687	-0.515028
C56	C	0.676572	-0.647088	-0.513354
C57	C	0.716463	-0.557666	-0.514172
C58	C	0.667586	-0.509847	-0.516662
C59	C	0.569840	-0.414195	-0.521644
C60	C	0.658602	-0.372596	-0.519970
C61	C	0.707476	-0.420426	-0.517480
C62	C	0.698493	-0.283174	-0.520788
C63	C	0.649622	-0.235352	-0.523280
C64	C	0.560860	-0.276951	-0.524954
C65	C	0.520969	-0.366372	-0.524136
C66	C	0.511989	-0.229129	-0.527446
C67	C	-0.040530	-0.395407	-0.935652
C68	C	0.005063	-0.791004	-0.738448
C69	C	0.009186	-0.693099	-0.717543
C70	C	0.003779	-0.645796	-0.741620
C71	C	0.005077	-0.521171	-0.603544
C72	C	0.009198	-0.563096	-0.652550
C73	C	0.003786	-0.514804	-0.676131
C74	C	-0.040516	-0.125574	-0.800747
C75	C	0.010719	-0.652613	-0.672809
C76	C	0.000994	-0.556406	-0.720789
C77	C	-0.004621	-0.508585	-0.744908
C78	C	-0.007444	-0.419162	-0.724369
C79	C	-0.004651	-0.377560	-0.679711
C80	C	0.000964	-0.425381	-0.655592
C81	C	-0.007471	-0.288129	-0.659174
C82	C	-0.013086	-0.240308	-0.683293
C83	C	-0.015878	-0.281910	-0.727951
C84	C	-0.013056	-0.371333	-0.748490
C85	C	-0.015848	-0.412935	-0.793148
C86	C	-0.021463	-0.365114	-0.817267
C87	C	-0.024282	-0.275694	-0.796731
C88	C	-0.021490	-0.234092	-0.752073
C89	C	-0.029897	-0.227873	-0.820850
C90	C	-0.032690	-0.269476	-0.865508
C91	C	-0.029867	-0.358899	-0.886047
C92	C	-0.024255	-0.406717	-0.861925
C93	C	-0.013028	-0.502367	-0.813685
C94	C	-0.015821	-0.543969	-0.858343
C95	C	-0.021433	-0.496140	-0.882464
C96	C	-0.012998	-0.633392	-0.878882
C97	C	-0.007383	-0.681213	-0.854763
C98	C	-0.004591	-0.639611	-0.810105
C99	C	-0.007414	-0.550188	-0.789566
C100	C	0.001024	-0.687432	-0.785986
O101	O	-0.000965	0.173549	-0.277957
O102	O	-0.040516	-0.085616	-0.325254
O103	O	0.108737	0.059592	-0.327284
O104	O	-0.150219	0.028341	-0.275927
O105	O	0.114753	0.055151	-0.263265
O106	O	-0.034500	-0.090057	-0.261234
O107	O	0.005051	0.169108	-0.213937
Zn108	Zn	-0.013769	0.038820	-0.227421
Zn109	Zn	-0.021696	0.044672	-0.311770
O110	O	-0.144202	0.023900	-0.211907
O111	O	-0.034458	-0.474571	0.046517
O112	O	0.005076	-0.570190	-0.083599
O113	O	-0.144170	-0.570237	-0.008972
O114	O	0.114787	-0.474523	-0.028110
O115	O	-0.150200	-0.442024	-0.011093
O116	O	-0.000954	-0.441976	-0.085720
O117	O	-0.040488	-0.346357	0.044396
Zn118	Zn	-0.021679	-0.373810	-0.020999
Zn119	Zn	-0.013734	-0.542737	-0.018204
O120	O	0.108757	-0.346309	-0.030231
C121	C	-0.850734	0.086244	-0.289716
C122	C	-0.753280	0.087165	-0.312001
C123	C	-0.705462	0.081107	-0.288506
C124	C	-0.599592	0.000085	-0.264184
C125	C	-0.481080	0.121287	-0.283645
C126	C	-0.450996	0.035117	-0.097351
C127	C	-0.410501	0.028587	-0.146852
C128	C	-0.459292	0.034683	-0.169840
C129	C	-0.184802	0.024283	-0.235878
C130	C	-0.282257	0.023363	-0.213592
C131	C	-0.330068	0.029423	-0.237088
C132	C	-0.435938	0.110445	-0.261411
C133	C	-0.554456	-0.010759	-0.241948
C134	C	-0.584541	0.075410	-0.428242
C135	C	-0.625029	0.081943	-0.378743
C136	C	-0.576244	0.075844	-0.355753
C137	C	-0.713963	0.086424	-0.357292
C138	C	-0.616708	0.075351	-0.310510
C139	C	-0.565963	0.065400	-0.286043
C140	C	-0.321573	0.024104	-0.168302
C141	C	-0.418828	0.035176	-0.215083
C142	C	-0.469568	0.045131	-0.239552
O143	O	0.585213	0.169090	-0.504004
O144	O	0.494056	-0.090076	-0.525516
O145	O	0.488081	0.055124	-0.449918
O146	O	0.591189	0.023889	-0.579602
O147	O	0.359978	0.059584	-0.452885
O148	O	0.365953	-0.085616	-0.528483
O149	O	0.457110	0.173550	-0.506971
Zn150	Zn	0.391193	0.044675	-0.518198
Zn151	Zn	0.559974	0.038798	-0.514289
O152	O	0.463086	0.028349	-0.582569
C153	C	0.815354	-0.521094	-0.008709
C154	C	0.717898	-0.563028	-0.006927
C155	C	0.670072	-0.514739	-0.009298
C156	C	0.564182	-0.463204	-0.048354
C157	C	0.445681	-0.498945	0.013847
C158	C	0.415547	-0.125494	-0.028771
C159	C	0.375059	-0.223405	-0.031498
C160	C	0.423859	-0.270708	-0.029121
C161	C	0.149365	-0.395355	-0.030599
C162	C	0.246820	-0.353421	-0.032381
C163	C	0.294640	-0.401713	-0.030008
C164	C	0.400530	-0.453248	0.009048
C165	C	0.519038	-0.417504	-0.053155
C166	C	0.549171	-0.790955	-0.010537
C167	C	0.589653	-0.693047	-0.007809
C168	C	0.540859	-0.645741	-0.010187
C169	C	0.678588	-0.652551	-0.006775
C170	C	0.581317	-0.556344	-0.010973
C171	C	0.530562	-0.506029	-0.015250
C172	C	0.286131	-0.263897	-0.032533
C173	C	0.383402	-0.360104	-0.028335
C174	C	0.434150	-0.410423	-0.024057
O175	O	-0.620614	0.089309	0.052274
O176	O	-0.529507	0.043784	-0.078544
O177	O	-0.523494	0.194833	-0.006033
O178	O	-0.626628	-0.061740	-0.020236
O179	O	-0.395386	0.185419	-0.005549
O180	O	-0.401400	0.034370	-0.078059
O181	O	-0.492507	0.079895	0.052758
Zn182	Zn	-0.426614	0.055638	-0.012574
Zn183	Zn	-0.595401	0.068041	-0.013212
O184	O	-0.498521	-0.071154	-0.019752
C185	C	-0.437537	0.048335	0.402491
C186	C	-0.397043	0.041789	0.352989
C187	C	-0.445822	0.047883	0.329994
C188	C	-0.496646	0.126653	0.277022
C189	C	-0.465894	-0.000633	0.218811
C190	C	-0.837226	0.099430	0.210091
C191	C	-0.739773	0.100339	0.187806
C192	C	-0.691967	0.094287	0.211308
C193	C	-0.571027	0.088563	0.071568
C194	C	-0.611521	0.095108	0.121070
C195	C	-0.562739	0.089011	0.144061
C196	C	-0.511915	0.010241	0.197033
C197	C	-0.542670	0.137531	0.255247
C198	C	-0.171338	0.037467	0.263967
C199	C	-0.268788	0.036555	0.286249
C200	C	-0.316597	0.042611	0.262750
C201	C	-0.308112	0.037305	0.331542
C202	C	-0.405351	0.048369	0.284750
C203	C	-0.456092	0.058317	0.260279
C204	C	-0.700452	0.099593	0.142516
C205	C	-0.603213	0.088528	0.189308
C206	C	-0.552469	0.078578	0.213776
O207	O	-0.040608	-1.085661	-0.825229
O208	O	-0.001018	-0.826491	-0.777938
O209	O	-0.150287	-0.971682	-0.775894
O210	O	0.108661	-0.940470	-0.827272
O211	O	-0.144253	-0.976123	-0.711878
O212	O	0.005016	-0.830932	-0.713922
O213	O	-0.034575	-1.090102	-0.761213
Zn214	Zn	-0.013821	-0.961222	-0.727403
Zn215	Zn	-0.021771	-0.955371	-0.811747
O216	O	0.114695	-0.944911	-0.763256
O217	O	-0.036862	-0.230384	-0.253947
C218	C	-0.115987	-0.202041	-0.227222
H219	H	-0.171766	-0.243574	-0.244184
H220	H	-0.101653	-0.127812	-0.223676
C221	C	-0.077925	-0.164236	-0.159072
C222	C	-0.146436	-0.215253	-0.179904
H223	H	-0.096706	-0.172381	-0.129884
H224	H	-0.024615	-0.183328	-0.177078
H225	H	-0.065986	-0.102383	-0.156122
H226	H	-0.158365	-0.277105	-0.182860
H227	H	-0.199749	-0.196172	-0.161898
H228	H	-0.015274	-0.667410	-0.915397
O229	O	0.709377	-0.427441	-0.009911
C230	C	0.734837	-0.376156	0.030011
H231	H	0.743205	-0.422269	0.044612
H232	H	0.680328	-0.341704	0.055921
C233	C	0.814698	-0.247747	0.000960
C234	C	0.824983	-0.304383	0.018892
H235	H	0.870302	-0.203471	-0.005897
H236	H	0.797543	-0.282296	-0.025935
H237	H	0.769271	-0.219046	0.022555
H238	H	0.870401	-0.333091	-0.002704
H239	H	0.842148	-0.269836	0.045784
H240	H	-0.724884	0.094041	0.248327
H241	H	-0.015393	-0.167196	-0.666497
H242	H	-0.449229	0.177371	-0.300885
O243	O	-0.153851	-0.530463	-0.308106
C244	C	-0.204445	-0.614575	-0.299752
H245	H	-0.194742	-0.616959	-0.268586
H246	H	-0.180410	-0.670536	-0.330385
C247	C	-0.317202	-0.624712	-0.329627
C248	C	-0.305291	-0.627637	-0.291345
H249	H	-0.379408	-0.632773	-0.324443
H250	H	-0.283115	-0.568046	-0.335257
H251	H	-0.297167	-0.671347	-0.355150
H252	H	-0.325315	-0.580996	-0.265824
H253	H	-0.339384	-0.684296	-0.285710
O254	O	-0.744826	0.080623	-0.244372
C255	C	-0.821987	0.006453	-0.240933
H256	H	-0.815525	-0.047521	-0.275000
H257	H	-0.884827	0.029211	-0.231080
C258	C	-0.838053	0.033894	-0.162627
C259	C	-0.830112	-0.032401	-0.204468
H260	H	-0.843068	0.009929	-0.140132
H261	H	-0.786070	0.083866	-0.164943
H262	H	-0.890419	0.052853	-0.154422
H263	H	-0.777741	-0.051350	-0.212675
H264	H	-0.882086	-0.082377	-0.202153
H265	H	-0.740818	0.102779	0.123104
H266	H	-0.023809	-0.160979	-0.735279
O267	O	0.454261	-0.686124	-0.011812
C268	C	0.447713	-0.685536	-0.052242
H269	H	0.517138	-0.679158	-0.078575
H270	H	0.422158	-0.626053	-0.045133
C271	C	0.296029	-0.781697	-0.038091
C272	C	0.381297	-0.773870	-0.070436
H273	H	0.255058	-0.836183	-0.049314
H274	H	0.300439	-0.782090	-0.010852
H275	H	0.274746	-0.732122	-0.032171
H276	H	0.402583	-0.823438	-0.076352
H277	H	0.376889	-0.773487	-0.097677
O278	O	0.097545	-0.296181	-0.276264
C279	C	0.161696	-0.272536	-0.253620
H280	H	0.167349	-0.336059	-0.251394
H281	H	0.139381	-0.226738	-0.217968
C282	C	0.247339	-0.144746	-0.282788
C283	C	0.254287	-0.222767	-0.280057
H284	H	0.304452	-0.114043	-0.299093
H285	H	0.204117	-0.160674	-0.298041
H286	H	0.228739	-0.106592	-0.253076
H287	H	0.272875	-0.260925	-0.309768
H288	H	0.297514	-0.206845	-0.264809
H289	H	0.001650	-0.679613	-0.278166
H290	H	0.634201	-0.467612	-0.072637
O291	O	-0.532399	0.053523	0.351399
C292	C	-0.534069	0.130920	0.388987
H293	H	-0.464774	0.181784	0.383635
H294	H	-0.551799	0.111456	0.421057
C295	C	-0.690658	0.110576	0.400531
C296	C	-0.605550	0.173051	0.393955
H297	H	-0.734753	0.136563	0.403597
H298	H	-0.689535	0.058430	0.375208
H299	H	-0.705420	0.094362	0.427255
H300	H	-0.590784	0.189256	0.367229
H301	H	-0.606672	0.225201	0.419274
H302	H	-0.047834	-0.232081	-0.882358
O303	O	0.003839	-0.384804	-0.612057
C304	C	0.084807	-0.385262	-0.608836
H305	H	0.137458	-0.391746	-0.643622
H306	H	0.071502	-0.444629	-0.596396
C307	C	0.055436	-0.288841	-0.532408
C308	C	0.120106	-0.296798	-0.575132
H309	H	0.077209	-0.234276	-0.511617
H310	H	0.000884	-0.288535	-0.534577
H311	H	0.044354	-0.338320	-0.522048
H312	H	0.131178	-0.247327	-0.585494
H313	H	0.174660	-0.297094	-0.572964
H314	H	-0.037138	-0.474881	-0.380005
H315	H	0.261721	-0.474856	-0.029430
H316	H	0.107243	-0.392097	-0.234140
H317	H	0.001660	-0.441639	-0.159184
O318	O	-0.519748	-0.048385	0.156161
C319	C	-0.480667	-0.001266	0.123180
H320	H	-0.429285	0.064006	0.134762
H321	H	-0.535743	0.014928	0.118499
C322	C	-0.496096	-0.140010	0.063606
C323	C	-0.432982	-0.059845	0.077829
H324	H	-0.466685	-0.176145	0.035631
H325	H	-0.522429	-0.171756	0.085826
H326	H	-0.541988	-0.126503	0.059709
H327	H	-0.387098	-0.073352	0.081732
H328	H	-0.406640	-0.028102	0.055609
O329	O	0.013741	-0.700201	-0.149016
C330	C	-0.062937	-0.702866	-0.110564
H331	H	-0.119195	-0.691379	-0.116654
H332	H	-0.044687	-0.647943	-0.079738
C333	C	-0.026260	-0.809598	-0.094495
C334	C	-0.095359	-0.795496	-0.101976
H335	H	-0.046258	-0.866734	-0.089195
H336	H	0.025402	-0.807800	-0.120399
H337	H	-0.011058	-0.763822	-0.068807
H338	H	-0.110552	-0.841264	-0.127666
H339	H	-0.147024	-0.797304	-0.076075
H340	H	-0.123560	-0.607102	-0.263443
O341	O	-0.004759	-0.768471	-0.874822
C342	C	-0.083868	-0.820169	-0.887883
H343	H	-0.113880	-0.774406	-0.891909
H344	H	-0.135124	-0.854460	-0.860779
C345	C	-0.023641	-0.948344	-0.928380
C346	C	-0.060498	-0.892138	-0.933328
H347	H	-0.009227	-0.992741	-0.956411
H348	H	0.029655	-0.913516	-0.919579
H349	H	-0.066360	-0.976911	-0.905792
H350	H	-0.017775	-0.863563	-0.955911
H351	H	-0.113786	-0.926963	-0.942134
H352	H	-0.503619	0.071273	-0.373665
O353	O	-0.592553	-0.077748	-0.221430
C354	C	-0.678239	-0.126240	-0.227938
H355	H	-0.681213	-0.117277	-0.259187
H356	H	-0.732745	-0.099946	-0.196886
C357	C	-0.690537	-0.237846	-0.196398
C358	C	-0.694187	-0.226843	-0.234782
H359	H	-0.700377	-0.299902	-0.200618
H360	H	-0.632810	-0.205174	-0.192012
H361	H	-0.735959	-0.215928	-0.170526
H362	H	-0.648758	-0.248750	-0.260652
H363	H	-0.751907	-0.259520	-0.239172
H364	H	0.417564	-0.755580	-0.518528
O365	O	-0.024007	-0.536760	-0.926046
C366	C	0.055133	-0.565064	-0.952794
H367	H	0.085115	-0.573444	-0.930154
H368	H	0.106393	-0.512504	-0.970803
C369	C	-0.004988	-0.645370	-1.016076
C370	C	0.031832	-0.655669	-0.988269
H371	H	-0.019359	-0.701257	-1.037960
H372	H	-0.058305	-0.626298	-0.998056
H373	H	0.037734	-0.601567	-1.031079
H374	H	-0.010895	-0.699463	-0.973263
H375	H	0.085141	-0.674750	-1.006288
H376	H	0.550886	-0.383867	-0.081621
O377	O	0.003648	-0.774690	-0.806042
C378	C	-0.075459	-0.826391	-0.819104
H379	H	-0.105470	-0.780632	-0.823134
H380	H	-0.126717	-0.860679	-0.792000
C381	C	-0.015231	-0.954567	-0.859595
C382	C	-0.052087	-0.898365	-0.864547
H383	H	-0.000816	-0.998966	-0.887625
H384	H	0.038064	-0.919736	-0.850793
H385	H	-0.057952	-0.983130	-0.837006
H386	H	-0.009362	-0.869793	-0.887132
H387	H	-0.105374	-0.933192	-0.873354
O388	O	0.273615	-0.763419	-0.522483
C389	C	0.272330	-0.771727	-0.482048
H390	H	0.276140	-0.703566	-0.455284
H391	H	0.332715	-0.795740	-0.488859
C392	C	0.179527	-0.924156	-0.497702
C393	C	0.184199	-0.840441	-0.464830
H394	H	0.125166	-0.966545	-0.487082
H395	H	0.180395	-0.918560	-0.524945
H396	H	0.229853	-0.944155	-0.503375
H397	H	0.133880	-0.820439	-0.459162
H398	H	0.183320	-0.846035	-0.437586
O399	O	-0.004639	-0.247587	-0.615632
C400	C	0.076310	-0.248044	-0.612390
H401	H	0.128998	-0.254483	-0.647165
H402	H	0.062994	-0.307438	-0.599968
C403	C	0.046838	-0.151707	-0.535946
C404	C	0.111552	-0.159607	-0.578656
H405	H	0.068576	-0.097157	-0.515136
H406	H	-0.007701	-0.151401	-0.538129
H407	H	0.035747	-0.201207	-0.525600
H408	H	0.122634	-0.110114	-0.589004
H409	H	0.166094	-0.159902	-0.576474
H410	H	-0.669612	-0.046576	-0.265443
H411	H	0.496488	-0.236853	-0.027824
H412	H	-0.267732	0.034117	0.350946
O413	O	0.317015	-0.448070	0.038059
C414	C	0.292280	-0.495125	0.069804
H415	H	0.355720	-0.499721	0.072594
H416	H	0.248048	-0.565829	0.058162
C417	C	0.161395	-0.439161	0.113013
C418	C	0.239314	-0.444800	0.116442
H419	H	0.128719	-0.408121	0.141781
H420	H	0.178057	-0.407462	0.091624
H421	H	0.124545	-0.498085	0.103309
H422	H	0.276167	-0.385877	0.126140
H423	H	0.222657	-0.476488	0.137834
O424	O	-0.277352	0.042750	0.218566
C425	C	-0.251860	-0.037766	0.192576
H426	H	-0.294428	-0.091897	0.210885
H427	H	-0.177340	-0.025560	0.187816
C428	C	-0.214895	-0.002599	0.123398
C429	C	-0.267183	-0.069086	0.145883
H430	H	-0.224342	-0.021918	0.094595
H431	H	-0.232066	0.051647	0.140907
H432	H	-0.152799	0.007566	0.119436
H433	H	-0.329277	-0.079242	0.149850
H434	H	-0.250023	-0.123335	0.128373
H435	H	-0.048864	-0.224020	-0.386283
H436	H	-0.297145	0.029698	-0.274103
O437	O	-0.488574	0.185338	0.317851
C438	C	-0.438186	0.160028	0.333525
H439	H	-0.394285	0.117984	0.303511
H440	H	-0.486269	0.118686	0.358160
C441	C	-0.431414	0.296661	0.394774
C442	C	-0.377489	0.245029	0.357910
H443	H	-0.393976	0.349092	0.409818
H444	H	-0.465364	0.313712	0.384215
H445	H	-0.471480	0.262199	0.415299
H446	H	-0.337432	0.279487	0.337383
H447	H	-0.343530	0.227986	0.368466
H448	H	-0.365918	0.157102	-0.260160
O449	O	-0.545898	0.040270	-0.148516
C450	C	-0.552378	0.121351	-0.148707
H451	H	-0.494958	0.145849	-0.177703
H452	H	-0.547444	0.174398	-0.115085
C453	C	-0.714211	0.075079	-0.119555
C454	C	-0.643691	0.105164	-0.155170
H455	H	-0.770538	0.065097	-0.123539
H456	H	-0.709846	0.020454	-0.119424
H457	H	-0.710087	0.119290	-0.091539
H458	H	-0.647809	0.060949	-0.183184
H459	H	-0.648059	0.159781	-0.155305
H460	H	-0.754334	0.089615	-0.376700
H461	H	0.413839	-0.532573	0.042316
H462	H	0.245727	-0.224039	-0.533582
H463	H	0.182115	-0.525189	-0.530531
H464	H	0.191099	-0.662437	-0.527221
O465	O	-0.273345	0.020181	-0.145217
C466	C	-0.246160	-0.060075	-0.166555
H467	H	-0.245245	-0.085233	-0.203576
H468	H	-0.295675	-0.113277	-0.148597
C469	C	-0.151939	-0.010990	-0.118645
C470	C	-0.150807	-0.041885	-0.164115
H471	H	-0.093123	0.000228	-0.117138
H472	H	-0.170257	0.043079	-0.104267
H473	H	-0.193206	-0.055330	-0.103685
H474	H	-0.109550	0.002460	-0.179073
H475	H	-0.132481	-0.095946	-0.178495
H476	H	0.245737	-0.223998	-0.033572
H477	H	0.718963	-0.692464	-0.005731
O478	O	-0.476052	0.083671	0.122766
C479	C	-0.418150	0.157331	0.145654
H480	H	-0.458419	0.184405	0.182221
H481	H	-0.387114	0.212612	0.127928
C482	C	-0.292968	0.093295	0.100292
C483	C	-0.342426	0.126543	0.145206
H484	H	-0.246256	0.074306	0.100015
H485	H	-0.331977	0.043671	0.084871
H486	H	-0.267114	0.139368	0.085526
H487	H	-0.368289	0.080467	0.159970
H488	H	-0.303420	0.176159	0.160630
O489	O	0.717250	-0.691678	-0.504529
C490	C	0.667758	-0.707655	-0.461849
H491	H	0.595064	-0.706368	-0.452837
H492	H	0.699877	-0.653174	-0.435009
C493	C	0.757787	-0.802020	-0.474725
C494	C	0.668502	-0.800447	-0.463659
H495	H	0.758249	-0.859256	-0.475841
H496	H	0.791134	-0.791254	-0.503479
H497	H	0.784543	-0.756615	-0.452357
H498	H	0.641751	-0.845844	-0.486030
H499	H	0.635151	-0.811223	-0.434909
O500	O	0.785018	-0.242512	-0.519077
C501	C	0.786491	-0.167335	-0.480414
H502	H	0.717155	-0.176259	-0.454082
H503	H	0.804121	-0.103740	-0.490421
C504	C	0.943108	-0.148106	-0.492573
C505	C	0.857950	-0.159071	-0.460230
H506	H	0.987190	-0.143005	-0.480124
H507	H	0.942117	-0.198752	-0.518623
H508	H	0.957787	-0.095111	-0.500910
H509	H	0.843268	-0.212070	-0.451899
H510	H	0.858940	-0.108433	-0.434179
O511	O	-0.428281	-0.070725	0.199949
C512	C	-0.496500	-0.152508	0.194156
H513	H	-0.557247	-0.140171	0.192649
H514	H	-0.517892	-0.180510	0.223910
C515	C	-0.385455	-0.235834	0.151524
C516	C	-0.460062	-0.220683	0.149668
H517	H	-0.362979	-0.277890	0.124083
H518	H	-0.339494	-0.180736	0.155428
H519	H	-0.403292	-0.259165	0.176321
H520	H	-0.442222	-0.197342	0.124875
H521	H	-0.506020	-0.275779	0.145759
O522	O	0.688483	-0.148157	-0.524133
C523	C	0.689834	-0.139829	-0.564577
H524	H	0.635013	-0.197536	-0.578341
H525	H	0.758708	-0.142271	-0.590721
C526	C	0.739655	0.021396	-0.537941
C527	C	0.672318	-0.049476	-0.554844
H528	H	0.728854	0.077131	-0.531939
H529	H	0.738749	0.015786	-0.510694
H530	H	0.797044	0.019349	-0.559730
H531	H	0.614931	-0.047435	-0.533053
H532	H	0.673214	-0.043864	-0.582088
O533	O	0.013727	-0.700348	-0.649069
C534	C	-0.063082	-0.775036	-0.646594
H535	H	-0.090933	-0.792567	-0.675750
H536	H	-0.116947	-0.757853	-0.612923
C537	C	-0.002389	-0.834616	-0.614178
C538	C	-0.036592	-0.856153	-0.649991
H539	H	0.013949	-0.884652	-0.616271
H540	H	0.049357	-0.784296	-0.615844
H541	H	-0.047282	-0.820296	-0.586123
H542	H	0.008304	-0.870462	-0.678045
H543	H	-0.088331	-0.906478	-0.648330
O544	O	-0.580322	0.207600	0.274144
C545	C	-0.562473	0.258856	0.315952
H546	H	-0.500118	0.247484	0.316303
H547	H	-0.622994	0.237240	0.344760
C548	C	-0.622042	0.373374	0.321802
C549	C	-0.545451	0.359413	0.322232
H550	H	-0.611546	0.435402	0.325677
H551	H	-0.634070	0.338841	0.293636
H552	H	-0.672469	0.355354	0.345808
H553	H	-0.495029	0.377422	0.298223
H554	H	-0.533414	0.393952	0.350394
H555	H	0.780052	-0.386407	-0.516111
H556	H	0.544602	-0.156012	-0.528109
