data_functionalizedCrystal
_audit_creation_method	'MofGen! by Chris Wilmer'
_symmetry_space_group_name_H-M	'P1'
_symmetry_Int_Tables_number	1
_symmetry_cell_setting	triclinic
loop_
_symmetry_equiv_pos_as_xyz
  x,y,z
_cell_length_a	10.654550
_cell_length_b	8.559649
_cell_length_c	7.088929
_cell_angle_alpha	95.344185
_cell_angle_beta	83.732640
_cell_angle_gamma	77.131797
loop_
_atom_site_label
_atom_site_type_symbol
_atom_site_fract_x
_atom_site_fract_y
_atom_site_fract_z
O1	O	1.630236	0.240435	0.158838
O2	O	1.262549	0.261797	0.158872
O3	O	1.478786	0.018873	0.158850
O4	O	1.413999	0.483360	0.158860
O5	O	1.507691	-0.013666	-0.159128
O6	O	1.291454	0.229259	-0.159106
O7	O	1.659142	0.207897	-0.159140
Cu8	Cu	1.477937	0.215607	-0.188157
Cu9	Cu	1.443753	0.254087	0.187889
O10	O	1.442904	0.450821	-0.159118
C11	C	1.230365	0.243960	-0.000112
C12	C	1.091405	0.239270	-0.000099
C13	C	1.498148	-0.056872	-0.000136
C14	C	1.512762	-0.234089	-0.000126
C15	C	0.997145	0.382298	-0.000101
C16	C	0.866584	0.377877	-0.000135
C17	C	0.924556	0.087386	-0.000155
C18	C	1.055115	0.091808	-0.000136
C19	C	1.691325	0.225734	-0.000151
C20	C	1.830284	0.230426	-0.000152
C21	C	1.423541	0.526566	-0.000128
C22	C	1.408927	0.703785	-0.000124
N23	N	1.501989	0.188541	-0.452647
N24	N	1.419712	0.281141	0.452380
H25	H	1.026687	0.502369	-0.000086
H26	H	1.612849	-0.316488	-0.000151
C27	C	1.304509	0.410774	-0.437308
N28	N	1.217734	0.508413	-0.354208
C29	C	1.617198	0.058900	-0.562968
N30	N	1.703971	-0.038746	-0.646063
C31	C	0.884622	-0.074812	-0.000178
N32	N	0.854545	-0.196982	-0.000187
H33	H	0.789840	0.494345	-0.000140
H34	H	1.131869	-0.024671	-0.000139
H35	H	1.308848	-0.213827	-0.000121
