data_functionalizedCrystal
_audit_creation_method	'MofGen! by Chris Wilmer'
_symmetry_space_group_name_H-M	'P1'
_symmetry_Int_Tables_number	1
_symmetry_cell_setting	triclinic
loop_
_symmetry_equiv_pos_as_xyz
  x,y,z
_cell_length_a	21.395362
_cell_length_b	16.959454
_cell_length_c	16.959447
_cell_angle_alpha	89.973264
_cell_angle_beta	89.965163
_cell_angle_gamma	90.035955
loop_
_atom_site_label
_atom_site_type_symbol
_atom_site_fract_x
_atom_site_fract_y
_atom_site_fract_z
Zn1	Zn	0.957849	-0.314331	-0.447361
Zn2	Zn	1.291183	0.019002	-0.114028
Zn3	Zn	1.624516	0.352336	0.219305
Zn4	Zn	0.957788	-0.446523	-0.315191
Zn5	Zn	1.291121	-0.113190	0.018142
Zn6	Zn	1.624455	0.220143	0.351476
Zn7	Zn	0.853081	-0.314399	-0.315151
Zn8	Zn	1.186414	0.018934	0.018182
Zn9	Zn	1.519748	0.352267	0.351515
Zn10	Zn	0.853053	-0.446508	-0.447282
Zn11	Zn	1.186386	-0.113175	-0.113949
Zn12	Zn	1.519720	0.220159	0.219384
O13	O	0.905443	-0.380440	-0.381246
O14	O	1.238776	-0.047107	-0.047913
O15	O	1.572110	0.286226	0.285420
O16	O	1.045519	-0.331844	-0.429878
O17	O	1.378853	0.001489	-0.096545
O18	O	1.712186	0.334822	0.236788
O19	O	0.943884	-0.429032	-0.204575
O20	O	1.277218	-0.095699	0.128759
O21	O	1.610551	0.237635	0.462092
O22	O	0.867016	-0.203779	-0.332706
O23	O	1.200350	0.129554	0.000627
O24	O	1.533683	0.462887	0.333961
O25	O	1.045474	-0.428965	-0.332773
O26	O	1.378807	-0.095632	0.000560
O27	O	1.712141	0.237701	0.333893
O28	O	0.943989	-0.203729	-0.429840
O29	O	1.277322	0.129604	-0.096507
O30	O	1.610656	0.462938	0.236827
O31	O	0.866957	-0.331961	-0.204546
O32	O	1.200290	0.001372	0.128788
O33	O	1.533623	0.334706	0.462121
O34	O	0.765399	-0.331946	-0.332629
O35	O	1.098733	0.001387	0.000704
O36	O	1.432066	0.334721	0.334037
O37	O	0.866969	-0.428939	-0.557904
O38	O	1.200302	-0.095606	-0.224570
O39	O	1.533635	0.237727	0.108763
O40	O	0.765379	-0.429006	-0.429705
O41	O	1.098712	-0.095672	-0.096372
O42	O	1.432046	0.237661	0.236962
O43	O	0.943962	-0.331829	-0.557962
O44	O	1.277295	0.001504	-0.224628
O45	O	1.610629	0.334837	0.108705
O46	O	0.943857	-0.557132	-0.332697
O47	O	1.277191	-0.223799	0.000637
O48	O	1.610524	0.109535	0.333970
O49	O	0.866909	-0.557121	-0.429743
O50	O	1.200242	-0.223788	-0.096410
O51	O	1.533576	0.109546	0.236923
C52	C	0.742655	-0.380482	-0.381155
C53	C	1.075989	-0.047149	-0.047821
C54	C	1.409322	0.286184	0.285512
C55	C	0.673014	-0.380519	-0.381134
C56	C	1.006347	-0.047186	-0.047801
C57	C	1.339681	0.286148	0.285532
C58	C	0.640307	-0.431125	-0.431606
C59	C	0.973640	-0.097792	-0.098273
C60	C	1.306973	0.235542	0.235061
C61	C	0.574871	-0.431106	-0.431641
C62	C	0.908204	-0.097772	-0.098308
C63	C	1.241538	0.235561	0.235025
C64	C	0.542146	-0.380489	-0.381191
C65	C	0.875479	-0.047155	-0.047857
C66	C	1.208812	0.286178	0.285476
C67	C	0.574861	-0.329873	-0.330715
C68	C	0.908194	0.003460	0.002618
C69	C	1.241528	0.336794	0.335951
C70	C	0.640295	-0.329888	-0.330687
C71	C	0.973628	0.003445	0.002646
C72	C	1.306962	0.336779	0.335980
C73	C	0.438429	-0.374138	-0.310031
C74	C	0.771762	-0.040805	0.023302
C75	C	1.105096	0.292529	0.356635
C76	C	0.372996	-0.374128	-0.310058
C77	C	0.706329	-0.040795	0.023275
C78	C	1.039663	0.292538	0.356608
C79	C	0.340325	-0.380437	-0.381278
C80	C	0.673658	-0.047104	-0.047945
C81	C	1.006992	0.286230	0.285389
C82	C	0.373095	-0.386772	-0.452473
C83	C	0.706428	-0.053439	-0.119139
C84	C	1.039762	0.279895	0.214194
C85	C	0.438529	-0.386787	-0.452445
C86	C	0.771862	-0.053454	-0.119111
C87	C	1.105196	0.279879	0.214222
C88	C	0.471193	-0.380466	-0.381216
C89	C	0.804527	-0.047133	-0.047882
C90	C	1.137860	0.286201	0.285451
C91	C	0.236665	-0.431025	-0.431792
C92	C	0.569998	-0.097691	-0.098459
C93	C	0.903332	0.235642	0.234875
C94	C	0.171228	-0.431000	-0.431829
C95	C	0.504562	-0.097666	-0.098495
C96	C	0.837895	0.235667	0.234838
C97	C	0.171220	-0.329771	-0.330896
C98	C	0.504553	0.003562	0.002438
C99	C	0.837886	0.336896	0.335771
C100	C	0.236655	-0.329792	-0.330866
C101	C	0.569988	0.003541	0.002467
C102	C	0.903322	0.336875	0.335801
C103	C	0.269374	-0.380423	-0.381313
C104	C	0.602707	-0.047090	-0.047980
C105	C	0.936040	0.286244	0.285353
C106	C	0.905390	-0.585807	-0.381233
C107	C	1.238724	-0.252473	-0.047900
C108	C	1.572057	0.080860	0.285434
C109	C	0.905425	-0.673663	-0.381254
C110	C	1.238759	-0.340330	-0.047920
C111	C	1.572092	-0.006997	0.285413
C112	C	0.865434	-1.045163	-0.431773
C113	C	1.198767	-0.711829	-0.098440
C114	C	1.532101	-0.378496	0.234893
C115	C	0.945626	-1.045115	-0.330800
C116	C	1.278960	-0.711781	0.002533
C117	C	1.612293	-0.378448	0.335867
C118	C	0.945604	-0.962569	-0.330793
C119	C	1.278938	-0.629235	0.002541
C120	C	1.612271	-0.295902	0.335874
C121	C	0.905496	-0.921316	-0.381276
C122	C	1.238829	-0.587983	-0.047942
C123	C	1.572163	-0.254649	0.285391
C124	C	0.865410	-0.962609	-0.431766
C125	C	1.198743	-0.629276	-0.098433
C126	C	1.532076	-0.295943	0.234901
C127	C	0.985686	-0.921269	-0.280298
C128	C	1.319019	-0.587936	0.053035
C129	C	1.652352	-0.254603	0.386369
C130	C	0.985665	-0.838718	-0.280288
C131	C	1.318998	-0.505385	0.053045
C132	C	1.652332	-0.172052	0.386379
C133	C	0.945559	-0.797464	-0.330775
C134	C	1.278893	-0.464131	0.002558
C135	C	1.612226	-0.130798	0.335891
C136	C	0.905472	-0.838763	-0.381268
C137	C	1.238805	-0.505429	-0.047935
C138	C	1.572138	-0.172096	0.285398
C139	C	0.865363	-0.797510	-0.431751
C140	C	1.198697	-0.464177	-0.098418
C141	C	1.532030	-0.130843	0.234915
C142	C	0.825278	-0.838807	-0.482249
C143	C	1.158612	-0.505473	-0.148915
C144	C	1.491945	-0.172140	0.184418
C145	C	0.825304	-0.921355	-0.482253
C146	C	1.158637	-0.588022	-0.148920
C147	C	1.491971	-0.254688	0.184413
C148	C	0.945534	-0.714916	-0.330771
C149	C	1.278867	-0.381583	0.002563
C150	C	1.612200	-0.048249	0.335896
C151	C	0.865339	-0.714956	-0.431744
C152	C	1.198672	-0.381623	-0.098411
C153	C	1.532005	-0.048290	0.234923
C154	C	1.068866	-0.380399	-0.381339
C155	C	1.402200	-0.047066	-0.048006
C156	C	1.735533	0.286268	0.285328
C157	C	1.138508	-0.380381	-0.381378
C158	C	1.471841	-0.047048	-0.048045
C159	C	1.805174	0.286285	0.285288
C160	C	0.905469	-0.380375	-0.587415
C161	C	1.238802	-0.047042	-0.254081
C162	C	1.572136	0.286292	0.079252
C163	C	0.905480	-0.380347	-0.675271
C164	C	1.238813	-0.047014	-0.341938
C165	C	1.572147	0.286320	-0.008605
C166	C	0.905513	-0.174272	-0.381277
C167	C	1.238846	0.159061	-0.047944
C168	C	1.572179	0.492395	0.285389
C169	C	0.905542	-0.086415	-0.381290
C170	C	1.238876	0.246918	-0.047957
C171	C	1.572209	0.580251	0.285376
C172	C	0.865468	-0.430824	-1.046719
C173	C	1.198801	-0.097491	-0.713386
C174	C	1.532135	0.235842	-0.380053
C175	C	0.945642	-0.329703	-1.046775
C176	C	1.278975	0.003630	-0.713442
C177	C	1.612309	0.336964	-0.380108
C178	C	0.945625	-0.329720	-0.964229
C179	C	1.278959	0.003614	-0.630896
C180	C	1.612292	0.336947	-0.297562
C181	C	0.905530	-0.380290	-0.922925
C182	C	1.238863	-0.046957	-0.589591
C183	C	1.572197	0.286376	-0.256258
C184	C	0.865451	-0.430844	-0.964166
C185	C	1.198785	-0.097511	-0.630833
C186	C	1.532118	0.235822	-0.297499
C187	C	0.985708	-0.279172	-0.922982
C188	C	1.319041	0.054161	-0.589648
C189	C	1.652374	0.387494	-0.256315
C190	C	0.985693	-0.279188	-0.840431
C191	C	1.319026	0.054146	-0.507097
C192	C	1.652360	0.387479	-0.173764
C193	C	0.945594	-0.329755	-0.799124
C194	C	1.278927	0.003578	-0.465791
C195	C	1.612261	0.336912	-0.132458
C196	C	0.905513	-0.380310	-0.840371
C197	C	1.238847	-0.046977	-0.507038
C198	C	1.572180	0.286356	-0.173704
C199	C	0.865418	-0.430881	-0.799066
C200	C	1.198751	-0.097548	-0.465733
C201	C	1.532085	0.235786	-0.132400
C202	C	0.825334	-0.481433	-0.840311
C203	C	1.158667	-0.148100	-0.506978
C204	C	1.492000	0.185234	-0.173645
C205	C	0.825352	-0.481411	-0.922860
C206	C	1.158686	-0.148078	-0.589526
C207	C	1.492019	0.185255	-0.256193
C208	C	0.945575	-0.329776	-0.716576
C209	C	1.278909	0.003557	-0.383243
C210	C	1.612242	0.336890	-0.049909
C211	C	0.865401	-0.430901	-0.716513
C212	C	1.198735	-0.097568	-0.383179
C213	C	1.532068	0.235766	-0.049846
C214	C	0.905453	-0.380448	-0.175880
C215	C	1.238786	-0.047115	0.157453
C216	C	1.572120	0.286218	0.490786
C217	C	0.905563	-0.380254	-0.088024
C218	C	1.238897	-0.046920	0.245309
C219	C	1.572230	0.286413	0.578643
H220	H	0.465208	-0.391943	-0.510414
H221	H	0.798541	-0.058610	-0.177081
H222	H	1.131874	0.274723	0.156253
F223	F	1.028352	-0.225385	-0.796542
F224	F	1.361686	0.107948	-0.463209
F225	F	1.695019	0.441282	-0.129875
F226	F	0.988316	-0.275891	-1.090736
F227	F	1.321649	0.057443	-0.757403
F228	F	1.654982	0.390776	-0.424070
H229	H	0.978167	-0.681296	-0.289653
H230	H	1.311501	-0.347962	0.043681
H231	H	1.644834	-0.014629	0.377014
H232	H	0.832745	-0.472075	-0.682888
H233	H	1.166078	-0.138742	-0.349555
H234	H	1.499412	0.194592	-0.016222
F235	F	0.988309	-1.089021	-0.277075
F236	F	1.321643	-0.755687	0.056258
F237	F	1.654976	-0.422354	0.389591
H238	H	0.346320	-0.368975	-0.252087
H239	H	0.679653	-0.035642	0.081246
H240	H	1.012986	0.297692	0.414580
F241	F	0.136395	-0.275896	-0.277206
F242	F	0.469728	0.057437	0.056128
F243	F	0.803062	0.390771	0.389461
H244	H	0.832800	-1.078790	-0.472889
H245	H	1.166133	-0.745457	-0.139556
H246	H	1.499466	-0.412124	0.193777
F247	F	0.675106	-0.276024	-0.276966
F248	F	1.008439	0.057310	0.056367
F249	F	1.341773	0.390643	0.389701
F250	F	1.028371	-0.965177	-0.226577
F251	F	1.361704	-0.631844	0.106756
F252	F	1.695038	-0.298510	0.440089
H253	H	1.018355	-0.238006	-0.956618
H254	H	1.351688	0.095328	-0.623284
H255	H	1.685022	0.428661	-0.289951
F256	F	0.675125	-0.485009	-0.485299
F257	F	1.008458	-0.151675	-0.151966
F258	F	1.341791	0.181658	0.181368
H259	H	0.978213	-0.288620	-0.682998
H260	H	1.311547	0.044713	-0.349665
H261	H	1.644880	0.378047	-0.016331
F262	F	1.028330	-0.794775	-0.226550
F263	F	1.361663	-0.461441	0.106783
F264	F	1.694997	-0.128108	0.440117
F265	F	0.782698	-0.535210	-0.966761
F266	F	1.116031	-0.201877	-0.633427
F267	F	1.449365	0.131456	-0.300094
H268	H	0.263306	-0.472247	-0.472873
H269	H	0.596639	-0.138914	-0.139540
H270	H	0.929973	0.194419	0.193794
H271	H	0.792691	-0.522611	-0.806670
H272	H	1.126024	-0.189278	-0.473337
H273	H	1.459358	0.144056	-0.140004
H274	H	0.263286	-0.288587	-0.289763
H275	H	0.596619	0.044746	0.043571
H276	H	0.929952	0.378080	0.376904
H277	H	0.548236	-0.472315	-0.472744
H278	H	0.881569	-0.138981	-0.139411
H279	H	1.214902	0.194352	0.193922
F280	F	0.136419	-0.484860	-0.485555
F281	F	0.469752	-0.151527	-0.152221
F282	F	0.803086	0.181806	0.181112
F283	F	0.338330	-0.393483	-0.528277
F284	F	0.671663	-0.060150	-0.194943
F285	F	1.004996	0.273183	0.138390
H286	H	0.465024	-0.368997	-0.252032
H287	H	0.798358	-0.035664	0.081301
H288	H	1.131691	0.297669	0.414635
F289	F	0.822808	-0.484620	-1.090615
F290	F	1.156141	-0.151287	-0.757281
F291	F	1.489474	0.182046	-0.423948
H292	H	0.548212	-0.288659	-0.289639
H293	H	0.881545	0.044675	0.043694
H294	H	1.214878	0.378008	0.377027
H295	H	0.832680	-0.681373	-0.472856
H296	H	1.166013	-0.348040	-0.139523
H297	H	1.499347	-0.014707	0.193810
F298	F	0.782591	-0.794893	-0.535971
F299	F	1.115924	-0.461560	-0.202638
F300	F	1.449258	-0.128226	0.130696
F301	F	0.782646	-0.965311	-0.535991
F302	F	1.115979	-0.631978	-0.202657
F303	F	1.449313	-0.298644	0.130676
