data_functionalizedCrystal
_audit_creation_method	'MofGen! by Chris Wilmer'
_symmetry_space_group_name_H-M	'P1'
_symmetry_Int_Tables_number	1
_symmetry_cell_setting	triclinic
loop_
_symmetry_equiv_pos_as_xyz
  x,y,z
_cell_length_a	12.759401
_cell_length_b	12.759400
_cell_length_c	21.395355
_cell_angle_alpha	89.986838
_cell_angle_beta	89.978396
_cell_angle_gamma	90.013730
loop_
_atom_site_label
_atom_site_type_symbol
_atom_site_fract_x
_atom_site_fract_y
_atom_site_fract_z
Zn1	Zn	1.606285	-0.418414	-0.354235
Zn2	Zn	1.606171	-0.594078	-0.249468
Zn3	Zn	1.430579	-0.418411	-0.249478
Zn4	Zn	1.430576	-0.594048	-0.354213
O5	O	1.518403	-0.506238	-0.301849
O6	O	1.753291	-0.441730	-0.340343
O7	O	1.582832	-0.570787	-0.161791
O8	O	1.453935	-0.271390	-0.263387
O9	O	1.753207	-0.570789	-0.263371
O10	O	1.583026	-0.271392	-0.340352
O11	O	1.453825	-0.441725	-0.161798
O12	O	1.283557	-0.441696	-0.263366
O13	O	1.453931	-0.570739	-0.441894
O14	O	1.283555	-0.570736	-0.340315
O15	O	1.583024	-0.441701	-0.441910
O16	O	1.582829	-0.741095	-0.263349
O17	O	1.453820	-0.741073	-0.340305
C18	C	1.245435	-0.506213	-0.301839
C19	C	1.128659	-0.506228	-0.301850
C20	C	1.518341	-0.779205	-0.301837
C21	C	1.518410	-0.895982	-0.301854
C22	C	0.964104	-0.439172	-0.341996
C23	C	1.073828	-0.439152	-0.341992
C24	C	1.073760	-0.573337	-0.261715
C25	C	0.964038	-0.573362	-0.261723
C26	C	1.223840	-0.401764	-0.415912
C27	C	1.278735	-0.334646	-0.456040
C28	C	1.243134	-0.232164	-0.465767
C29	C	1.152639	-0.196779	-0.435357
C30	C	1.097749	-0.263891	-0.395224
C31	C	1.133349	-0.366388	-0.385509
C32	C	0.814024	-0.610739	-0.187801
C33	C	0.759132	-0.677847	-0.147665
C34	C	0.794732	-0.780331	-0.137931
C35	C	0.885230	-0.815712	-0.168331
C36	C	0.940122	-0.748605	-0.208467
C37	C	0.904515	-0.646122	-0.218202
C38	C	1.585599	-0.950755	-0.341963
C39	C	1.585658	-1.060479	-0.341980
C40	C	1.451337	-1.060647	-0.261772
C41	C	1.451273	-0.950925	-0.261759
C42	C	1.623223	-1.210345	-0.415911
C43	C	1.690428	-1.265121	-0.456015
C44	C	1.792914	-1.229420	-0.465682
C45	C	1.828216	-1.138943	-0.435236
C46	C	1.761017	-1.084172	-0.395127
C47	C	1.658516	-1.119872	-0.385472
C48	C	1.413719	-0.801057	-0.187828
C49	C	1.346524	-0.746284	-0.147715
C50	C	1.244036	-0.781984	-0.138041
C51	C	1.208738	-0.872464	-0.168476
C52	C	1.275933	-0.927237	-0.208589
C53	C	1.378419	-0.891530	-0.218264
C54	C	1.792436	-0.506263	-0.301858
C55	C	1.909213	-0.506274	-0.301862
C56	C	1.518490	-0.506217	-0.465272
C57	C	1.518527	-0.506207	-0.534913
C58	C	1.518494	-0.232205	-0.301873
C59	C	1.518533	-0.115428	-0.301884
C60	C	1.585743	-0.439015	-0.567636
C61	C	1.585741	-0.438969	-0.633071
C62	C	1.518535	-0.506136	-0.665782
C63	C	1.451307	-0.573334	-0.633051
C64	C	1.451302	-0.573369	-0.567617
C65	C	1.510218	-0.600735	-0.769453
C66	C	1.510230	-0.600701	-0.834886
C67	C	1.518542	-0.506025	-0.867602
C68	C	1.526865	-0.411380	-0.834878
C69	C	1.526861	-0.411416	-0.769444
C70	C	1.518532	-0.506104	-0.736734
C71	C	1.585760	-0.438777	-0.971278
C72	C	1.585751	-0.438730	-1.036714
C73	C	1.451321	-0.573104	-1.036693
C74	C	1.451325	-0.573141	-0.971257
C75	C	1.518549	-0.505980	-0.938554
C76	C	1.518376	-0.506183	-0.139061
C77	C	1.518543	-0.505896	-0.069420
H78	H	0.919469	-0.384545	-0.374680
H79	H	1.247184	-1.000911	-0.233371
H80	H	1.023974	-0.235136	-0.370544
H81	H	1.396597	-0.627864	-0.944614
H82	H	1.911675	-1.109889	-0.443106
H83	H	1.352417	-0.363466	-0.480800
H84	H	1.640481	-0.384325	-0.541012
H85	H	1.847632	-1.274027	-0.498337
H86	H	1.123666	-0.113323	-0.443274
H87	H	1.287837	-0.177516	-0.498441
H88	H	1.375275	-0.672614	-0.122931
H89	H	1.252830	-0.485216	-0.408001
H90	H	1.789760	-1.010509	-0.370338
H91	H	1.118412	-0.627956	-0.229033
H92	H	0.914219	-0.899162	-0.160403
H93	H	1.396563	-0.628085	-0.540974
H94	H	1.539768	-1.239415	-0.408049
H95	H	1.013812	-0.777420	-0.233219
H96	H	1.533635	-0.334353	-0.742803
H97	H	0.750032	-0.834967	-0.105245
H98	H	0.685184	-0.649179	-0.123128
H99	H	1.533635	-0.334286	-0.861515
H100	H	1.125285	-0.901534	-0.160598
H101	H	0.785027	-0.527289	-0.195725
H102	H	1.396678	-1.105395	-0.229128
H103	H	1.640474	-0.384247	-0.659719
H104	H	1.640484	-0.384008	-1.063356
H105	H	1.189328	-0.737378	-0.105376
H106	H	1.661675	-1.338788	-0.480804
H107	H	1.503459	-0.677766	-0.861525
H108	H	1.497168	-0.771971	-0.195710
H109	H	1.640492	-0.384084	-0.944649
H110	H	1.503168	-0.677811	-0.742820
H111	H	1.396584	-0.628018	-0.659688
H112	H	1.640264	-0.906023	-0.374612
H113	H	1.396590	-0.627782	-1.063325
