data_functionalizedCrystal
_audit_creation_method	'MofGen! by Chris Wilmer'
_symmetry_space_group_name_H-M	'P1'
_symmetry_Int_Tables_number	1
_symmetry_cell_setting	triclinic
loop_
_symmetry_equiv_pos_as_xyz
  x,y,z
_cell_length_a	18.050591
_cell_length_b	21.295417
_cell_length_c	18.050582
_cell_angle_alpha	89.973245
_cell_angle_beta	89.979078
_cell_angle_gamma	90.026512
loop_
_atom_site_label
_atom_site_type_symbol
_atom_site_fract_x
_atom_site_fract_y
_atom_site_fract_z
Zn1	Zn	1.135281	-0.250716	-0.420010
Zn2	Zn	1.635281	0.249284	0.079990
Zn3	Zn	1.135186	-0.355977	-0.295811
Zn4	Zn	1.635186	0.144023	0.204189
Zn5	Zn	1.011100	-0.250719	-0.295821
Zn6	Zn	1.511100	0.249281	0.204179
Zn7	Zn	1.011043	-0.355944	-0.419946
Zn8	Zn	1.511043	0.144056	0.080054
O9	O	1.073153	-0.303339	-0.357897
O10	O	1.573153	0.196661	0.142103
O11	O	1.239193	-0.264692	-0.403557
O12	O	1.739193	0.235308	0.096443
O13	O	1.118710	-0.342030	-0.191887
O14	O	1.618710	0.157970	0.308113
O15	O	1.027636	-0.162629	-0.312326
O16	O	1.527636	0.337371	0.187674
O17	O	1.239124	-0.342027	-0.312308
O18	O	1.739124	0.157973	0.187692
O19	O	1.118871	-0.162627	-0.403567
O20	O	1.618871	0.337373	0.096433
O21	O	1.027545	-0.264697	-0.191895
O22	O	1.527545	0.235303	0.308105
O23	O	0.907168	-0.264664	-0.312264
O24	O	1.407168	0.235336	0.187736
O25	O	1.027539	-0.341971	-0.523879
O26	O	1.527539	0.158029	-0.023879
O27	O	0.907126	-0.341973	-0.403458
O28	O	1.407126	0.158027	0.096542
O29	O	1.118816	-0.264660	-0.523926
O30	O	1.618816	0.235340	-0.023926
O31	O	1.118655	-0.444062	-0.312247
O32	O	1.618655	0.055938	0.187753
O33	O	1.027448	-0.444038	-0.403449
O34	O	1.527448	0.055962	0.096551
C35	C	0.880200	-0.303316	-0.357856
C36	C	1.380200	0.196684	0.142144
C37	C	0.797655	-0.303321	-0.357856
C38	C	1.297655	0.196679	0.142144
C39	C	0.598205	-0.261232	-0.308379
C40	C	1.098205	0.238768	0.191621
C41	C	0.548783	-0.318646	-0.290098
C42	C	1.048783	0.181354	0.209902
C43	C	0.646524	-0.303340	-0.357889
C44	C	1.146524	0.196660	0.142111
C45	C	0.548865	-0.245945	-0.376169
C46	C	1.048865	0.254055	0.123831
C47	C	0.500539	-0.303353	-0.357920
C48	C	1.000539	0.196647	0.142080
C49	C	0.598189	-0.360785	-0.339573
C50	C	1.098189	0.139215	0.160427
C51	C	0.598276	-0.288045	-0.425676
C52	C	1.098276	0.211955	0.074324
C53	C	0.548875	-0.345499	-0.407420
C54	C	1.048875	0.154501	0.092580
C55	C	0.730623	-0.303331	-0.357870
C56	C	1.230623	0.196669	0.142130
C57	C	0.416443	-0.303368	-0.357940
C58	C	0.916443	0.196632	0.142060
C59	C	1.073055	-0.466891	-0.357856
C60	C	1.573055	0.033109	0.142144
C61	C	1.073081	-0.536859	-0.357863
C62	C	1.573081	-0.036859	0.142137
C63	C	1.120615	-0.569717	-0.310423
C64	C	1.620615	-0.069717	0.189577
C65	C	1.120650	-0.635460	-0.310440
C66	C	1.620650	-0.135460	0.189560
C67	C	1.073138	-0.668341	-0.357889
C68	C	1.573138	-0.168341	0.142111
C69	C	1.025600	-0.635475	-0.405338
C70	C	1.525600	-0.135475	0.094662
C71	C	1.025572	-0.569734	-0.405325
C72	C	1.525572	-0.069734	0.094675
N73	N	1.008171	-0.771604	-0.363536
N74	N	1.508171	-0.271604	0.136464
N75	N	1.008200	-0.834055	-0.363544
N76	N	1.508200	-0.334055	0.136456
C77	C	1.073221	-0.866416	-0.357931
C78	C	1.573221	-0.366416	0.142069
N79	N	1.138214	-0.833966	-0.352296
N80	N	1.638214	-0.333966	0.147704
N81	N	1.138184	-0.771509	-0.352284
N82	N	1.638184	-0.271509	0.147716
C83	C	1.073163	-0.739627	-0.357908
C84	C	1.573163	-0.239627	0.142092
C85	C	1.120797	-0.970560	-0.310507
C86	C	1.620797	-0.470560	0.189493
C87	C	1.120833	-1.036304	-0.310529
C88	C	1.620833	-0.536304	0.189471
C89	C	1.025776	-1.036318	-0.405423
C90	C	1.525776	-0.536318	0.094577
C91	C	1.025747	-0.970575	-0.405405
C92	C	1.525747	-0.470575	0.094595
C93	C	1.073256	-0.937700	-0.357943
C94	C	1.573256	-0.437700	0.142057
C95	C	1.266858	-0.303363	-0.357939
C96	C	1.766858	0.196637	0.142061
C97	C	1.349404	-0.303373	-0.357956
C98	C	1.849404	0.196627	0.142044
C99	C	1.073182	-0.303311	-0.551603
C100	C	1.573182	0.196689	-0.051603
C101	C	1.073194	-0.303299	-0.634148
C102	C	1.573194	0.196701	-0.134148
C103	C	1.073270	-0.139149	-0.357954
C104	C	1.573270	0.360851	0.142046
C105	C	1.073321	-0.069181	-0.357979
C106	C	1.573321	0.430819	0.142021
C107	C	1.023596	-0.345283	-0.833574
C108	C	1.523596	0.154717	-0.333574
C109	C	1.091350	-0.360675	-0.882971
C110	C	1.591350	0.139325	-0.382971
C111	C	1.073231	-0.303251	-0.785279
C112	C	1.573231	0.196749	-0.285279
C113	C	1.005513	-0.287842	-0.882964
C114	C	1.505513	0.212158	-0.382964
C115	C	1.073260	-0.303206	-0.931264
C116	C	1.573260	0.196794	-0.431264
C117	C	1.141021	-0.318673	-0.833589
C118	C	1.641021	0.181327	-0.333589
C119	C	1.055138	-0.245814	-0.833577
C120	C	1.555138	0.254186	-0.333577
C121	C	1.122940	-0.261183	-0.882952
C122	C	1.622940	0.238817	-0.382952
C123	C	1.073213	-0.303279	-0.701181
C124	C	1.573213	0.196721	-0.201181
C125	C	1.073286	-0.303178	-1.015361
C126	C	1.573286	0.196822	-0.515361
C127	C	1.073166	-0.303322	-0.164945
C128	C	1.573166	0.196678	0.335055
C129	C	1.073298	-0.303156	-0.082399
C130	C	1.573298	0.196844	0.417601
H131	H	0.527159	-0.197408	-0.391591
H132	H	1.027159	0.302592	0.108409
H133	H	0.986864	-0.542980	-0.443958
H134	H	1.486864	-0.042980	0.056042
C135	C	0.989470	-0.950295	-0.531113
C136	C	1.489470	-0.450295	-0.031113
C137	C	0.973486	-0.934455	-0.457546
C138	C	1.473486	-0.434455	0.042454
H139	H	0.957201	-0.927999	-0.563304
H140	H	1.457201	-0.427999	-0.063304
H141	H	1.039348	-0.939475	-0.542028
H142	H	1.539348	-0.439475	-0.042028
H143	H	0.982687	-0.994155	-0.537902
H144	H	1.482687	-0.494155	-0.037902
H145	H	0.980274	-0.890595	-0.450756
H146	H	1.480274	-0.390595	0.049244
H147	H	0.923595	-0.945271	-0.446627
H148	H	1.423595	-0.445271	0.053373
C149	C	1.214759	-0.977147	-0.216711
C150	C	1.714759	-0.477147	0.283289
C151	C	1.173022	-0.934419	-0.258343
C152	C	1.673022	-0.434419	0.241657
H153	H	1.247003	-0.954835	-0.184511
H154	H	1.747003	-0.454835	0.315489
H155	H	1.182434	-1.002828	-0.188279
H156	H	1.682434	-0.502828	0.311721
H157	H	1.243157	-1.002749	-0.249112
H158	H	1.743157	-0.502749	0.250888
H159	H	1.144620	-0.908820	-0.225942
H160	H	1.644620	-0.408820	0.274058
H161	H	1.205351	-0.908727	-0.286777
H162	H	1.705351	-0.408727	0.213223
C163	C	1.220844	-1.110088	-0.300416
C164	C	1.720844	-0.610088	0.199584
C165	C	1.173162	-1.072390	-0.258420
C166	C	1.673162	-0.572390	0.241580
H167	H	1.253174	-1.132353	-0.268256
H168	H	1.753174	-0.632353	0.231744
H169	H	1.192559	-1.139103	-0.328637
H170	H	1.692559	-0.639103	0.171363
H171	H	1.249146	-1.084372	-0.332827
H172	H	1.749146	-0.584372	0.167173
H173	H	1.144855	-1.098107	-0.226012
H174	H	1.644855	-0.598107	0.273988
H175	H	1.201450	-1.043372	-0.230186
H176	H	1.701450	-0.543372	0.269814
C177	C	0.545289	-0.395809	-0.193111
C178	C	1.045289	0.104191	0.306889
C179	C	0.519363	-0.336121	-0.212756
C180	C	1.019363	0.163879	0.287244
H181	H	0.527111	-0.406589	-0.145368
H182	H	1.027111	0.093411	0.354632
H183	H	0.528432	-0.425753	-0.228263
H184	H	1.028432	0.074247	0.271737
H185	H	0.597910	-0.395560	-0.192367
H186	H	1.097910	0.104440	0.307633
H187	H	0.466742	-0.336371	-0.213505
H188	H	0.966742	0.163629	0.286495
H189	H	0.536215	-0.306169	-0.177594
H190	H	1.036215	0.193831	0.322406
H191	H	0.619765	-0.409343	-0.324062
H192	H	1.119765	0.090657	0.175938
C193	C	1.130973	-0.495841	-0.210514
C194	C	1.630973	0.004159	0.289486
C195	C	1.172843	-0.533585	-0.258257
C196	C	1.672843	-0.033585	0.241743
H197	H	1.163218	-0.473537	-0.178307
H198	H	1.663218	0.026463	0.321693
H199	H	1.102667	-0.466860	-0.238764
H200	H	1.602667	0.033140	0.261236
H201	H	1.098645	-0.521531	-0.182083
H202	H	1.598645	-0.021531	0.317917
H203	H	1.205167	-0.507894	-0.286691
H204	H	1.705167	-0.007894	0.213309
H205	H	1.201161	-0.562569	-0.230003
H206	H	1.701161	-0.062569	0.269997
H207	H	0.619865	-0.225660	-0.266464
H208	H	1.119865	0.274340	0.233536
H209	H	1.159361	-0.662218	-0.271808
H210	H	1.659361	-0.162218	0.228192
C211	C	0.544843	-0.453672	-0.444657
C212	C	1.044843	0.046328	0.055343
C213	C	0.519809	-0.393631	-0.463959
C214	C	1.019809	0.106369	0.036041
H215	H	0.526893	-0.483387	-0.479557
H216	H	1.026893	0.016613	0.020443
H217	H	0.597460	-0.454165	-0.444667
H218	H	1.097460	0.045835	0.055333
H219	H	0.527143	-0.464188	-0.396659
H220	H	1.027143	0.035812	0.103341
H221	H	0.537514	-0.383113	-0.511954
H222	H	1.037514	0.116887	-0.011954
H223	H	0.467182	-0.393136	-0.463957
H224	H	0.967182	0.106864	0.036043
C225	C	0.986131	-0.453422	-0.829234
C226	C	1.486131	0.046578	-0.329234
C227	C	0.966985	-0.393327	-0.804298
C228	C	1.466985	0.106673	-0.304298
H229	H	0.951187	-0.483082	-0.811155
H230	H	1.451187	0.016918	-0.311155
H231	H	0.986064	-0.453998	-0.881849
H232	H	1.486064	0.046002	-0.381849
H233	H	1.034125	-0.463947	-0.811598
H234	H	1.534125	0.036053	-0.311598
H235	H	0.918993	-0.382801	-0.821939
H236	H	1.418993	0.117199	-0.321939
H237	H	0.967045	-0.392750	-0.751671
H238	H	1.467045	0.107250	-0.251671
C239	C	0.602802	-0.210384	-0.522037
C240	C	1.102802	0.289616	-0.022037
C241	C	0.627654	-0.270545	-0.503020
C242	C	1.127654	0.229455	-0.003020
H243	H	0.620945	-0.199575	-0.569785
H244	H	1.120945	0.300425	-0.069785
H245	H	0.550188	-0.209886	-0.522504
H246	H	1.050188	0.290114	-0.022504
H247	H	0.620430	-0.180889	-0.486725
H248	H	1.120430	0.319111	0.013275
H249	H	0.610021	-0.300040	-0.538330
H250	H	1.110021	0.199960	-0.038330
H251	H	0.680279	-0.271048	-0.502559
H252	H	1.180279	0.228952	-0.002559
C253	C	1.112475	-0.425338	-0.989837
C254	C	1.612475	0.074662	-0.489837
C255	C	1.112029	-0.426218	-0.912272
C256	C	1.612029	0.073782	-0.412272
H257	H	1.125240	-0.465802	-1.007924
H258	H	1.625240	0.034198	-0.507924
H259	H	1.064703	-0.414119	-1.007460
H260	H	1.564703	0.085881	-0.507460
H261	H	1.147793	-0.395503	-1.006731
H262	H	1.647793	0.104497	-0.506731
H263	H	1.076706	-0.456050	-0.895378
H264	H	1.576706	0.043950	-0.395378
H265	H	1.159807	-0.437446	-0.894642
H266	H	1.659807	0.062554	-0.394642
C267	C	1.217642	-0.336217	-0.726870
C268	C	1.717642	0.163783	-0.226870
C269	C	1.218368	-0.336325	-0.804440
C270	C	1.718368	0.163675	-0.304440
H271	H	1.265390	-0.347121	-0.708876
H272	H	1.765390	0.152879	-0.208876
H273	H	1.204707	-0.295563	-0.709552
H274	H	1.704707	0.204437	-0.209552
H275	H	1.182343	-0.365904	-0.709577
H276	H	1.682343	0.134096	-0.209577
H277	H	1.253664	-0.306635	-0.821733
H278	H	1.753664	0.193365	-0.321733
H279	H	1.231312	-0.376986	-0.821765
H280	H	1.731312	0.123014	-0.321765
C281	C	0.983430	-0.736259	-0.447483
C282	C	1.483430	-0.236259	0.052517
C283	C	0.973371	-0.671616	-0.457493
C284	C	1.473371	-0.171616	0.042507
H285	H	0.951183	-0.758569	-0.479682
H286	H	1.451183	-0.258569	0.020318
H287	H	1.033319	-0.746990	-0.458406
H288	H	1.533319	-0.246990	0.041594
H289	H	0.972597	-0.747059	-0.397573
H290	H	1.472597	-0.247059	0.102427
H291	H	0.984210	-0.660815	-0.507402
H292	H	1.484210	-0.160815	-0.007402
H293	H	0.923471	-0.660881	-0.446575
H294	H	1.423471	-0.160881	0.053425
H295	H	0.987094	-1.063089	-0.444060
H296	H	1.487094	-0.563089	0.055940
C297	C	1.250529	-0.229436	-0.886985
C298	C	1.750529	0.270564	-0.386985
C299	C	1.179682	-0.213174	-0.912046
C300	C	1.679682	0.286826	-0.412046
H301	H	1.285560	-0.199800	-0.904952
H302	H	1.785560	0.300200	-0.404952
H303	H	1.251105	-0.229434	-0.834368
H304	H	1.751105	0.270566	-0.334368
H305	H	1.262974	-0.270100	-0.904650
H306	H	1.762974	0.229900	-0.404650
H307	H	1.167235	-0.172512	-0.894375
H308	H	1.667235	0.327488	-0.394375
H309	H	1.179104	-0.213169	-0.964673
H310	H	1.679104	0.286831	-0.464673
C311	C	0.963441	-0.164269	-0.829131
C312	C	1.463441	0.335731	-0.329131
C313	C	1.034429	-0.180289	-0.804253
C314	C	1.534429	0.319711	-0.304253
H315	H	0.950649	-0.123818	-0.811022
H316	H	1.450649	0.376182	-0.311022
H317	H	0.962858	-0.163866	-0.881746
H318	H	1.462858	0.336134	-0.381746
H319	H	0.928670	-0.194254	-0.811487
H320	H	1.428670	0.305746	-0.311487
H321	H	1.069201	-0.150306	-0.821903
H322	H	1.569201	0.349694	-0.321903
H323	H	1.035018	-0.180687	-0.751628
H324	H	1.535018	0.319313	-0.251628
C325	C	0.876296	-0.314376	-0.887311
C326	C	1.376296	0.185624	-0.387311
C327	C	0.928189	-0.270269	-0.912242
C328	C	1.428189	0.229731	-0.412242
H329	H	0.828559	-0.303527	-0.905382
H330	H	1.328559	0.196473	-0.405382
H331	H	0.889500	-0.354868	-0.904953
H332	H	1.389500	0.145132	-0.404953
H333	H	0.875627	-0.314636	-0.834689
H334	H	1.375627	0.185364	-0.334689
H335	H	0.928862	-0.270011	-0.964864
H336	H	1.428862	0.229989	-0.464864
H337	H	0.914981	-0.229766	-0.894604
H338	H	1.414981	0.270234	-0.394604
