data_functionalizedCrystal
_audit_creation_method	'MofGen! by Chris Wilmer'
_symmetry_space_group_name_H-M	'P1'
_symmetry_Int_Tables_number	1
_symmetry_cell_setting	triclinic
loop_
_symmetry_equiv_pos_as_xyz
  x,y,z
_cell_length_a	19.077105
_cell_length_b	19.805405
_cell_length_c	19.805398
_cell_angle_alpha	90.030326
_cell_angle_beta	87.690718
_cell_angle_gamma	92.277359
loop_
_atom_site_label
_atom_site_type_symbol
_atom_site_fract_x
_atom_site_fract_y
_atom_site_fract_z
Zn1	Zn	1.075917	0.311109	-0.424211
Zn2	Zn	1.075842	0.424296	-0.311016
Zn3	Zn	0.958235	0.306575	-0.306496
Zn4	Zn	0.958184	0.419705	-0.419625
O5	O	1.017045	0.365421	-0.365337
O6	O	1.174397	0.329942	-0.413006
O7	O	1.060231	0.408704	-0.215700
O8	O	0.973899	0.212462	-0.322139
O9	O	1.174342	0.413100	-0.329843
O10	O	1.060359	0.215793	-0.408624
O11	O	0.973826	0.322215	-0.212379
O12	O	0.859738	0.317763	-0.317692
O13	O	0.973812	0.405275	-0.514950
O14	O	0.859701	0.400879	-0.400807
O15	O	1.060310	0.325490	-0.518320
O16	O	1.060181	0.518401	-0.325396
O17	O	0.973739	0.515028	-0.405190
C18	C	0.834182	0.358332	-0.358262
C19	C	0.755953	0.355315	-0.355251
C20	C	1.016965	0.541274	-0.365301
C21	C	1.016996	0.616507	-0.365311
C22	C	1.017063	0.365376	-0.541881
C23	C	1.017071	0.365357	-0.617113
C24	C	0.719199	0.397237	-0.397042
C25	C	0.645694	0.394394	-0.394217
C26	C	0.608944	0.349631	-0.349596
C27	C	0.645703	0.307705	-0.307804
C28	C	0.719206	0.310545	-0.310633
C29	C	0.389113	0.336486	-0.336504
C30	C	0.315604	0.333650	-0.333676
C31	C	0.315600	0.420338	-0.420091
C32	C	0.389105	0.423178	-0.422914
C33	C	0.425857	0.381249	-0.381123
N34	N	0.533811	0.346725	-0.346705
N35	N	0.500990	0.384152	-0.384018
C36	C	1.200621	0.372539	-0.372440
C37	C	1.278850	0.375572	-0.375467
C38	C	1.017143	0.188882	-0.365389
C39	C	1.017185	0.113652	-0.365411
C40	C	1.062050	0.653587	-0.323809
C41	C	1.062080	0.724277	-0.323826
C42	C	1.017052	0.757885	-0.365340
C43	C	0.971995	0.720800	-0.406847
C44	C	0.971969	0.650112	-0.406834
C45	C	0.972099	1.005877	-0.406901
C46	C	0.972127	1.076571	-0.406909
C47	C	1.062210	1.080042	-0.323893
C48	C	1.062184	1.009354	-0.323880
C49	C	1.017130	0.972275	-0.365389
C50	C	1.017100	0.895626	-0.365372
C51	C	1.017078	0.834533	-0.365354
C52	C	1.062173	0.410288	-1.080635
C53	C	1.062154	0.410306	-1.009946
C54	C	1.017159	0.365284	-0.972878
C55	C	0.972175	0.320246	-1.006503
C56	C	0.972192	0.320232	-1.077191
C57	C	0.972107	0.320301	-0.721427
C58	C	0.972096	0.320317	-0.650735
C59	C	1.062069	0.410375	-0.654182
C60	C	1.062086	0.410361	-0.724870
C61	C	1.017100	0.365326	-0.758489
C62	C	1.017121	0.365308	-0.835138
C63	C	1.017141	0.365298	-0.896231
C64	C	1.017066	0.365419	-0.189482
C65	C	1.017195	0.365253	-0.114255
H66	H	0.749116	0.433690	-0.433375
O67	O	0.279865	0.460961	-0.460759
C68	C	0.237366	0.420837	-0.502896
H69	H	0.259543	0.368391	-0.508024
H70	H	0.181654	0.416325	-0.479828
C71	C	0.209008	0.518362	-0.566859
C72	C	0.236249	0.453949	-0.573162
H73	H	0.208315	0.538788	-0.610202
H74	H	0.237638	0.545396	-0.538469
H75	H	0.162583	0.514594	-0.547633
H76	H	0.282675	0.457719	-0.592379
H77	H	0.207626	0.426917	-0.601557
O78	O	0.424699	0.295731	-0.295843
C79	C	0.376498	0.255604	-0.255867
H80	H	0.324093	0.281305	-0.251452
H81	H	0.368703	0.203933	-0.280452
C82	C	0.469529	0.215285	-0.190375
C83	C	0.405167	0.246855	-0.184948
H84	H	0.487214	0.209885	-0.146630
H85	H	0.502004	0.242317	-0.217309
H86	H	0.463025	0.172229	-0.210865
H87	H	0.411674	0.289913	-0.164466
H88	H	0.372694	0.219829	-0.158009
H89	H	0.935536	0.283591	-0.976317
H90	H	0.615775	0.271255	-0.271475
H91	H	1.098697	0.447047	-0.626801
O92	O	0.928478	0.276419	-1.109746
C93	C	0.888747	0.236695	-1.061873
H94	H	0.917566	0.235476	-1.012598
H95	H	0.835280	0.259412	-1.052283
C96	C	0.843250	0.165758	-1.149617
C97	C	0.878649	0.164257	-1.089098
H98	H	0.837018	0.121076	-1.166411
H99	H	0.870015	0.192522	-1.181871
H100	H	0.798698	0.184692	-1.141617
H101	H	0.923204	0.145331	-1.097100
H102	H	0.851891	0.137488	-1.056846
H103	H	0.749130	0.276404	-0.276606
H104	H	0.935283	0.619922	-0.440630
O105	O	1.105905	0.454088	-1.116536
C106	C	1.145612	0.493830	-1.071701
H107	H	1.116769	0.495065	-1.020199
H108	H	1.199077	0.471119	-1.066253
C109	C	1.191147	0.564737	-1.162908
C110	C	1.155719	0.566259	-1.099655
H111	H	1.197385	0.609414	-1.180153
H112	H	1.164398	0.537961	-1.193116
H113	H	1.235698	0.545808	-1.158360
H114	H	1.111166	0.585180	-1.104206
H115	H	1.182461	0.593040	-1.069449
H116	H	0.615773	0.428532	-0.428247
O117	O	0.928157	0.753366	-0.447140
C118	C	0.858014	0.733455	-0.429566
H119	H	0.856556	0.682094	-0.403480
H120	H	0.834346	0.772365	-0.393841
C121	C	0.817123	0.791604	-0.525906
C122	C	0.815333	0.728519	-0.493872
H123	H	0.790794	0.788562	-0.565572
H124	H	0.864380	0.805021	-0.537745
H125	H	0.797402	0.824022	-0.496128
H126	H	0.835062	0.696104	-0.523646
H127	H	0.768079	0.715097	-0.482040
H128	H	1.098714	0.626228	-0.290000
O129	O	1.105749	0.454121	-0.977257
C130	C	1.065652	0.496287	-0.934797
H131	H	1.010221	0.498317	-0.953957
H132	H	1.063227	0.475282	-0.881135
C133	C	1.168085	0.565486	-0.911488
C134	C	1.100005	0.567984	-0.935025
H135	H	1.189276	0.609711	-0.911626
H136	H	1.195100	0.537076	-0.940092
H137	H	1.166055	0.547978	-0.866773
H138	H	1.102036	0.585483	-0.979742
H139	H	1.072991	0.596398	-0.906428
H140	H	1.098728	0.447021	-0.755047
H141	H	0.419022	0.459630	-0.459247
H142	H	0.935453	0.283653	-0.620556
H143	H	0.285684	0.297191	-0.297345
O144	O	0.928393	0.276486	-0.753973
C145	C	0.888668	0.236763	-0.706095
H146	H	0.917489	0.235550	-0.656821
H147	H	0.835198	0.259475	-0.696505
C148	C	0.843173	0.165816	-0.793832
C149	C	0.878575	0.164322	-0.733314
H150	H	0.836944	0.121132	-0.810622
H151	H	0.869934	0.192580	-0.826089
H152	H	0.798619	0.184746	-0.785832
H153	H	0.923132	0.145400	-0.741317
H154	H	0.851821	0.137553	-0.701059
H155	H	0.935414	0.975694	-0.440698
O156	O	1.105866	0.760192	-0.283445
C157	C	1.145612	0.715371	-0.246810
H158	H	1.116765	0.663891	-0.243320
H159	H	1.199046	0.709859	-0.273700
C160	C	1.191246	0.806623	-0.179465
C161	C	1.155812	0.743397	-0.175174
H162	H	1.197541	0.823912	-0.135278
H163	H	1.164470	0.836821	-0.204148
H164	H	1.235770	0.802022	-0.201876
H165	H	1.111285	0.748001	-0.152771
H166	H	1.182580	0.713201	-0.150485
H167	H	1.098897	1.110240	-0.290097
H168	H	1.098848	0.981992	-0.290072
H169	H	0.935460	1.103932	-0.440721
