data_functionalizedCrystal
_audit_creation_method	'MofGen! by Chris Wilmer'
_symmetry_space_group_name_H-M	'P1'
_symmetry_Int_Tables_number	1
_symmetry_cell_setting	triclinic
loop_
_symmetry_equiv_pos_as_xyz
  x,y,z
_cell_length_a	12.837943
_cell_length_b	12.784902
_cell_length_c	11.892113
_cell_angle_alpha	85.297765
_cell_angle_beta	93.959850
_cell_angle_gamma	96.031718
loop_
_atom_site_label
_atom_site_type_symbol
_atom_site_fract_x
_atom_site_fract_y
_atom_site_fract_z
O1	O	1.356090	-0.280414	0.093980
O2	O	1.055504	-0.266889	0.093986
O3	O	1.227792	-0.121151	0.093978
O4	O	1.183801	-0.426151	0.093988
O5	O	1.217144	-0.107944	-0.094030
O6	O	1.044855	-0.253681	-0.094021
O7	O	1.345441	-0.267207	-0.094028
Zn8	Zn	1.193457	-0.258347	-0.123875
Zn9	Zn	1.207487	-0.275748	0.123833
O10	O	1.173153	-0.412944	-0.094019
C11	C	1.011971	-0.255716	-0.000016
C12	C	0.898122	-0.242088	-0.000014
C13	C	1.225329	-0.075238	-0.000025
C14	C	1.233842	0.041893	-0.000021
C15	C	0.642396	-0.405919	-0.000024
C16	C	0.535424	-0.393119	-0.000023
C17	C	0.577203	-0.203690	-0.000017
C18	C	0.684175	-0.216489	-0.000019
C19	C	0.716767	-0.317607	-0.000021
C20	C	0.823742	-0.330406	-0.000014
C21	C	0.865519	-0.140977	-0.000017
C22	C	0.758547	-0.128178	-0.000015
C23	C	1.388974	-0.278380	-0.000023
C24	C	1.502823	-0.292008	-0.000018
N25	N	1.183890	-0.246471	-0.292929
C26	C	1.060398	0.255845	-0.000031
C27	C	1.068392	0.365900	-0.000027
C28	C	1.257822	0.372061	-0.000020
C29	C	1.249828	0.262006	-0.000023
C30	C	1.151113	0.203901	-0.000027
C31	C	1.143120	0.093844	-0.000022
C32	C	1.332549	0.100007	-0.000022
C33	C	1.340543	0.210063	-0.000019
C34	C	1.175615	0.541143	-0.000017
C35	C	1.167100	0.424012	-0.000020
C36	C	1.283622	-0.370307	-0.529576
C37	C	1.276944	-0.361998	-0.647918
C38	C	1.163861	-0.221538	-0.647957
C39	C	1.170539	-0.229848	-0.529615
C40	C	1.230421	-0.304236	-0.470429
C41	C	1.237093	-0.312549	-0.352085
C42	C	1.124016	-0.172085	-0.352125
C43	C	1.117338	-0.163776	-0.470467
N44	N	1.217064	-0.287617	0.292887
H45	H	0.850275	-0.412741	-0.000018
H46	H	0.926085	-0.069068	-0.000006
Cl47	Cl	0.683374	-0.533035	-0.000011
Cl48	Cl	0.536210	-0.076580	-0.000030
H49	H	0.474873	-0.465032	-0.000029
Cl50	Cl	0.717562	-0.001065	-0.000016
H51	H	1.062742	0.046536	-0.000022
Cl52	Cl	1.381907	0.445126	-0.000046
H53	H	1.420913	0.257386	-0.000021
Cl54	Cl	1.088590	-0.128028	-0.722381
H55	H	0.980021	0.208534	-0.000025
Cl56	Cl	1.343832	-0.445061	-0.722272
Cl57	Cl	1.312373	-0.406063	-0.277681
H58	H	1.332370	-0.430886	-0.481386
Cl59	Cl	1.042061	-0.070266	-0.544883
Cl60	Cl	1.057123	-0.089025	-0.277762
Cl61	Cl	0.954345	0.431197	-0.000036
Cl62	Cl	1.446598	0.034701	-0.000009
