data_functionalizedCrystal
_audit_creation_method	'MofGen! by Chris Wilmer'
_symmetry_space_group_name_H-M	'P1'
_symmetry_Int_Tables_number	1
_symmetry_cell_setting	triclinic
loop_
_symmetry_equiv_pos_as_xyz
  x,y,z
_cell_length_a	10.540514
_cell_length_b	10.540539
_cell_length_c	18.366186
_cell_angle_alpha	89.995944
_cell_angle_beta	89.990451
_cell_angle_gamma	84.520326
loop_
_atom_site_label
_atom_site_type_symbol
_atom_site_fract_x
_atom_site_fract_y
_atom_site_fract_z
O1	O	1.685914	0.178750	-0.060555
O2	O	1.316497	0.195639	-0.060554
O3	O	1.509634	0.002487	-0.060554
O4	O	1.492777	0.371902	-0.060556
O5	O	1.509600	0.002477	0.060546
O6	O	1.316464	0.195629	0.060545
O7	O	1.685881	0.178740	0.060544
Zn8	Zn	1.501167	0.187183	0.079772
Zn9	Zn	1.501211	0.187196	-0.079782
O10	O	1.492744	0.371892	0.060544
C11	C	1.269177	0.194374	-0.000004
C12	C	1.128227	0.190605	-0.000004
C13	C	1.057522	0.328745	-0.000006
C14	C	0.910908	0.324871	-0.000285
C15	C	0.935908	0.115484	-0.069027
C16	C	1.082448	0.120337	-0.069081
C17	C	1.082813	0.118282	0.068636
C18	C	0.935834	0.116949	0.069539
C19	C	1.508353	-0.044821	-0.000005
C20	C	1.504571	-0.185769	-0.000009
C21	C	1.359652	-0.369182	-0.000281
C22	C	1.363486	-0.222564	-0.000008
C23	C	1.572448	-0.247438	0.069144
C24	C	1.567633	-0.393982	0.069203
C25	C	1.570540	-0.394489	-0.068510
C26	C	1.571840	-0.247507	-0.069424
C27	C	1.733201	0.180004	-0.000007
C28	C	1.874151	0.183774	-0.000012
C29	C	1.494025	0.419199	-0.000006
C30	C	1.497807	0.560147	-0.000007
N31	N	1.501146	0.187173	0.188663
N32	N	1.501241	0.187196	-0.188673
C33	C	1.586696	0.101688	0.226764
C34	C	1.586704	0.101683	0.302991
C35	C	1.501175	0.187184	0.341116
C36	C	1.415609	0.272675	0.303006
C37	C	1.415595	0.272670	0.226780
C38	C	1.485591	0.302650	0.461876
C39	C	1.485614	0.302657	0.538101
C40	C	1.501211	0.187200	0.576223
C41	C	1.516812	0.071732	0.538112
C42	C	1.516798	0.071726	0.461885
C43	C	1.501180	0.187199	0.423770
C44	C	1.586774	0.101702	0.696979
C45	C	1.586773	0.101695	0.773208
C46	C	1.415684	0.272699	0.773221
C47	C	1.415679	0.272695	0.696993
C48	C	1.501230	0.187198	0.658877
H49	H	1.086048	0.384780	0.049478
H50	H	1.472867	0.396675	0.430842
Cl51	Cl	1.280399	-0.158085	0.076654
Cl52	Cl	1.104203	0.414008	-0.076306
Cl53	Cl	1.131413	0.189270	0.149427
Cl54	Cl	0.872518	0.193994	0.148372
Cl55	Cl	1.126052	0.197355	-0.149037
H56	H	1.529498	-0.022292	0.430858
H57	H	1.529512	-0.022285	0.569150
H58	H	1.472918	0.396678	0.569125
Cl59	Cl	1.732412	-0.212943	0.073118
H60	H	1.524893	-0.426034	-0.120924
H61	H	1.656371	0.032068	0.334019
H62	H	1.346021	0.342310	0.665970
H63	H	1.345968	0.342290	0.334051
Cl64	Cl	1.308040	0.380147	0.178878
H65	H	0.869190	0.378362	-0.050049
Cl66	Cl	0.845010	0.407812	0.076075
Cl67	Cl	1.308152	0.380177	0.821143
H68	H	1.130455	0.018864	-0.072028
H69	H	1.656432	0.032081	0.665943
H70	H	1.656434	0.032076	0.804230
H71	H	1.304134	-0.399389	0.049033
Cl72	Cl	1.694237	-0.005797	0.178846
Cl73	Cl	0.901460	-0.044517	-0.072693
H74	H	1.672446	-0.441724	-0.068975
H75	H	0.893315	0.162302	-0.120585
Cl76	Cl	1.499610	-0.181675	0.148600
Cl77	Cl	0.898487	-0.041838	0.076298
Cl78	Cl	1.495803	-0.183663	-0.148422
H79	H	1.130069	0.016389	0.069303
H80	H	1.310075	-0.179952	-0.049580
H81	H	1.303934	-0.397773	-0.049872
Cl82	Cl	1.724282	-0.468062	0.074056
Cl83	Cl	1.490133	-0.437524	0.149011
H84	H	1.674703	-0.223295	-0.073601
