data_functionalizedCrystal
_audit_creation_method	'MofGen! by Chris Wilmer'
_symmetry_space_group_name_H-M	'P1'
_symmetry_Int_Tables_number	1
_symmetry_cell_setting	triclinic
loop_
_symmetry_equiv_pos_as_xyz
  x,y,z
_cell_length_a	12.827893
_cell_length_b	13.897448
_cell_length_c	12.827885
_cell_angle_alpha	89.967534
_cell_angle_beta	89.980728
_cell_angle_gamma	90.017663
loop_
_atom_site_label
_atom_site_type_symbol
_atom_site_fract_x
_atom_site_fract_y
_atom_site_fract_z
Zn1	Zn	1.597653	-0.383967	-0.590831
Zn2	Zn	2.097653	0.116033	-0.090831
Zn3	Zn	1.597540	-0.545294	-0.416083
Zn4	Zn	2.097540	-0.045294	0.083917
Zn5	Zn	1.422894	-0.384015	-0.416104
Zn6	Zn	1.922894	0.115985	0.083896
Zn7	Zn	1.422873	-0.545222	-0.590783
Zn8	Zn	1.922873	-0.045222	-0.090783
O9	O	1.510240	-0.464624	-0.503450
O10	O	2.010240	0.035376	-0.003450
O11	O	1.743874	-0.405378	-0.567661
O12	O	2.243874	0.094622	-0.067661
O13	O	1.574335	-0.523950	-0.269850
O14	O	2.074335	-0.023950	0.230150
O15	O	1.446133	-0.249027	-0.439311
O16	O	1.946133	0.250973	0.060689
O17	O	1.743791	-0.523904	-0.439275
O18	O	2.243791	-0.023904	0.060725
O19	O	1.574527	-0.248992	-0.567681
O20	O	2.074527	0.251008	-0.067681
O21	O	1.446023	-0.405459	-0.269865
O22	O	1.946023	0.094541	0.230135
O23	O	1.276655	-0.405389	-0.439265
O24	O	1.776655	0.094611	0.060735
O25	O	1.446096	-0.523781	-0.737026
O26	O	1.946096	-0.023781	-0.237026
O27	O	1.276639	-0.523827	-0.567601
O28	O	1.776639	-0.023827	-0.067601
O29	O	1.574506	-0.405308	-0.737060
O30	O	2.074506	0.094692	-0.237060
O31	O	1.574314	-0.680266	-0.439229
O32	O	2.074314	-0.180266	0.060771
O33	O	1.445986	-0.680213	-0.567580
O34	O	1.945986	-0.180213	-0.067580
C35	C	1.238730	-0.464606	-0.503430
C36	C	1.738730	0.035394	-0.003430
C37	C	1.122577	-0.464621	-0.503447
C38	C	1.622577	0.035379	-0.003447
C39	C	1.070812	-0.523320	-0.566853
C40	C	1.570812	-0.023320	-0.066853
C41	C	0.950762	-0.523337	-0.566872
C42	C	1.450762	-0.023337	-0.066872
C43	C	1.510164	-0.715239	-0.503420
C44	C	2.010164	-0.215239	-0.003420
C45	C	1.510227	-0.822453	-0.503442
C46	C	2.010227	-0.322453	-0.003442
C47	C	1.510336	-1.018748	-0.503508
C48	C	2.010336	-0.518748	-0.003508
C49	C	1.510272	-0.909515	-0.503474
C50	C	2.010272	-0.409515	-0.003474
C51	C	1.782810	-0.464644	-0.503471
C52	C	2.282810	0.035356	-0.003471
C53	C	1.898963	-0.464652	-0.503480
C54	C	2.398963	0.035348	-0.003480
C55	C	1.510311	-0.464531	-0.776021
C56	C	2.010311	0.035469	-0.276021
C57	C	1.510341	-0.464491	-0.892174
C58	C	2.010341	0.035509	-0.392174
C59	C	1.510345	-0.213031	-0.503504
C60	C	2.010345	0.286969	-0.003504
C61	C	1.510390	-0.105817	-0.503526
C62	C	2.010390	0.394183	-0.003526
C63	C	1.446902	-0.405807	-1.064011
C64	C	1.946902	0.094193	-0.564011
C65	C	1.446869	-0.405846	-0.943960
C66	C	1.946869	0.094154	-0.443960
C67	C	1.510229	-0.464648	-0.231940
C68	C	2.010229	0.035352	0.268060
C69	C	1.510401	-0.464416	-0.115788
C70	C	2.010401	0.035584	0.384212
H71	H	1.078018	-0.414376	-0.449180
H72	H	1.578018	0.085624	0.050820
O73	O	1.382107	-0.345995	-1.117308
O74	O	1.882107	0.154005	-0.617308
C75	C	1.323140	-0.291348	-1.285554
C76	C	1.823140	0.208652	-0.785554
C77	C	1.396557	-0.359152	-1.225329
C78	C	1.896557	0.140848	-0.725329
H79	H	1.334814	-0.301947	-1.372900
H80	H	1.834814	0.198053	-0.872900
H81	H	1.238820	-0.308270	-1.264228
H82	H	1.738820	0.191730	-0.764228
H83	H	1.341489	-0.213571	-1.264108
H84	H	1.841489	0.286429	-0.764108
H85	H	1.378303	-0.436952	-1.246742
H86	H	1.878303	0.063048	-0.746742
H87	H	1.480856	-0.342148	-1.246660
H88	H	1.980856	0.157852	-0.746660
O89	O	1.382107	-0.346013	-0.890687
O90	O	1.882107	0.153987	-0.390687
C91	C	1.322948	-0.291570	-0.722459
C92	C	1.822948	0.208430	-0.222459
C93	C	1.396364	-0.359365	-0.782662
C94	C	1.896364	0.140635	-0.282662
H95	H	1.334433	-0.302356	-0.635110
H96	H	1.834433	0.197644	-0.135110
H97	H	1.341319	-0.213746	-0.743796
H98	H	1.841319	0.286254	-0.243796
H99	H	1.238675	-0.308467	-0.743913
H100	H	1.738675	0.191533	-0.243913
H101	H	1.480661	-0.342555	-0.761240
H102	H	1.980661	0.157445	-0.261240
H103	H	1.377902	-0.437169	-0.761320
H104	H	1.877902	0.062831	-0.261320
H105	H	0.906245	-0.573593	-0.621154
H106	H	1.406245	-0.073593	-0.121154
H107	H	0.943473	-0.414399	-0.449188
H108	H	1.443473	0.085601	0.050812
O109	O	1.575320	-0.524219	-0.945323
O110	O	2.075320	-0.024219	-0.445323
C111	C	1.716289	-0.537057	-1.068729
C112	C	2.216289	-0.037057	-0.568729
C113	C	1.642781	-0.469308	-1.008577
C114	C	2.142781	0.030692	-0.508577
H115	H	1.770835	-0.492690	-1.119901
H116	H	2.270835	0.007310	-0.619901
H117	H	1.764150	-0.581197	-1.011105
H118	H	2.264150	-0.081197	-0.511105
H119	H	1.668241	-0.587454	-1.119770
H120	H	2.168241	-0.087454	-0.619770
H121	H	1.690748	-0.418853	-0.957534
H122	H	2.190748	0.081147	-0.457534
H123	H	1.594916	-0.425235	-1.066258
H124	H	2.094916	0.074765	-0.566258
H125	H	1.564745	-0.514619	-1.071239
H126	H	2.064745	-0.014619	-0.571239
H127	H	1.115371	-0.573557	-0.621128
H128	H	1.615371	-0.073557	-0.121128
