data_functionalizedCrystal
_audit_creation_method	'MofGen! by Chris Wilmer'
_symmetry_space_group_name_H-M	'P1'
_symmetry_Int_Tables_number	1
_symmetry_cell_setting	triclinic
loop_
_symmetry_equiv_pos_as_xyz
  x,y,z
_cell_length_a	19.188930
_cell_length_b	19.188930
_cell_length_c	15.186229
_cell_angle_alpha	89.991143
_cell_angle_beta	89.982767
_cell_angle_gamma	83.144779
loop_
_atom_site_label
_atom_site_type_symbol
_atom_site_fract_x
_atom_site_fract_y
_atom_site_fract_z
O1	O	0.926144	0.087167	-0.073521
O2	O	1.259477	0.420500	0.259812
O3	O	1.592810	0.753833	0.593145
O4	O	0.722832	0.098901	-0.073462
O5	O	1.056166	0.432234	0.259871
O6	O	1.389499	0.765568	0.593204
O7	O	0.830355	-0.008622	-0.073476
O8	O	1.163689	0.324712	0.259857
O9	O	1.497022	0.658045	0.593190
O10	O	0.818621	0.194689	-0.073507
O11	O	1.151954	0.528023	0.259826
O12	O	1.485288	0.861356	0.593159
O13	O	0.830348	-0.008623	0.072981
O14	O	1.163681	0.324710	0.406314
O15	O	1.497015	0.658043	0.739647
O16	O	0.722825	0.098899	0.072995
O17	O	1.056159	0.432233	0.406328
O18	O	1.389492	0.765566	0.739662
O19	O	0.926137	0.087165	0.072936
O20	O	1.259470	0.420499	0.406269
O21	O	1.592803	0.753832	0.739602
Zn22	Zn	0.824480	0.093032	0.096219
Zn23	Zn	1.157813	0.426365	0.429552
Zn24	Zn	1.491147	0.759699	0.762885
Zn25	Zn	0.824489	0.093034	-0.096745
Zn26	Zn	1.157823	0.426367	0.236588
Zn27	Zn	1.491156	0.759701	0.569921
O28	O	0.818614	0.194688	0.072950
O29	O	1.151947	0.528021	0.406283
O30	O	1.485281	0.861355	0.739616
C31	C	0.696818	0.098520	-0.000226
C32	C	1.030151	0.431854	0.333107
C33	C	1.363485	0.765187	0.666441
C34	C	0.619313	0.097380	-0.000203
C35	C	0.952647	0.430713	0.333131
C36	C	1.285980	0.764046	0.666464
C37	C	0.574389	0.160470	-0.000226
C38	C	0.907723	0.493804	0.333107
C39	C	1.241056	0.827137	0.666441
C40	C	0.501566	0.159399	-0.000236
C41	C	0.834899	0.492732	0.333098
C42	C	1.168232	0.826065	0.666431
C43	C	0.473669	0.095233	-0.000239
C44	C	0.807002	0.428566	0.333094
C45	C	1.140336	0.761899	0.666427
C46	C	0.518603	0.032133	-0.000211
C47	C	0.851936	0.365467	0.333122
C48	C	1.185270	0.698800	0.666456
C49	C	0.591425	0.033207	-0.000193
C50	C	0.924758	0.366540	0.333141
C51	C	1.258092	0.699874	0.666474
N52	N	0.365691	0.046186	-0.050113
N53	N	0.699025	0.379519	0.283220
N54	N	1.032358	0.712853	0.616553
N55	N	0.296513	0.045171	-0.050132
N56	N	0.629846	0.378504	0.283201
N57	N	0.963179	0.711837	0.616534
C58	C	0.254260	0.091994	-0.000293
C59	C	0.587594	0.425328	0.333041
C60	C	0.920927	0.758661	0.666374
N61	N	0.283799	0.139883	0.049556
N62	N	0.617132	0.473216	0.382889
N63	N	0.950465	0.806549	0.716223
N64	N	0.352983	0.140900	0.049571
N65	N	0.686317	0.474234	0.382905
N66	N	1.019650	0.807567	0.716238
C67	C	0.394707	0.094062	-0.000259
C68	C	0.728040	0.427395	0.333075
C69	C	1.061373	0.760728	0.666408
C70	C	0.130372	0.153928	-0.000325
C71	C	0.463705	0.487261	0.333008
C72	C	0.797039	0.820594	0.666341
C73	C	0.057547	0.152853	-0.000329
C74	C	0.390881	0.486187	0.333004
C75	C	0.724214	0.819520	0.666337
C76	C	0.074586	0.025586	-0.000314
C77	C	0.407919	0.358920	0.333020
C78	C	0.741253	0.692253	0.666353
C79	C	0.147409	0.026662	-0.000301
C80	C	0.480743	0.359996	0.333033
C81	C	0.814076	0.693329	0.666366
C82	C	0.175298	0.090835	-0.000311
C83	C	0.508631	0.424168	0.333023
C84	C	0.841964	0.757502	0.666356
C85	C	0.829972	-0.034634	-0.000245
C86	C	1.163305	0.298700	0.333088
C87	C	1.496638	0.632033	0.666421
C88	C	0.828831	-0.112138	-0.000237
C89	C	1.162164	0.221195	0.333096
C90	C	1.495498	0.554529	0.666429
C91	C	0.891922	-0.157062	-0.000251
C92	C	1.225255	0.176271	0.333082
C93	C	1.558588	0.509605	0.666415
C94	C	0.890850	-0.229886	-0.000265
C95	C	1.224184	0.103448	0.333068
C96	C	1.557517	0.436781	0.666401
C97	C	0.826684	-0.257782	-0.000247
C98	C	1.160017	0.075551	0.333086
C99	C	1.493351	0.408884	0.666419
C100	C	0.763585	-0.212849	-0.000238
C101	C	1.096918	0.120485	0.333095
C102	C	1.430252	0.453818	0.666429
C103	C	0.764658	-0.140026	-0.000233
C104	C	1.097992	0.193307	0.333100
C105	C	1.431325	0.526640	0.666434
N106	N	0.777634	-0.365788	0.049609
N107	N	1.110968	-0.032455	0.382943
N108	N	1.444301	0.300879	0.716276
N109	N	0.776619	-0.434966	0.049606
N110	N	1.109952	-0.101633	0.382940
N111	N	1.443286	0.231700	0.716273
C112	C	0.823446	-0.477191	-0.000264
C113	C	1.156779	-0.143858	0.333069
C114	C	1.490113	0.189476	0.666403
N115	N	0.871337	-0.447625	-0.050121
N116	N	1.204671	-0.114292	0.283213
N117	N	1.538004	0.219042	0.616546
N118	N	0.872355	-0.378440	-0.050114
N119	N	1.205688	-0.045107	0.283220
N120	N	1.539022	0.288226	0.616553
C121	C	0.825513	-0.336745	-0.000253
C122	C	1.158846	-0.003412	0.333080
C123	C	1.492180	0.329922	0.666414
C124	C	0.885379	-0.601079	-0.000294
C125	C	1.218712	-0.267746	0.333039
C126	C	1.552046	0.065587	0.666372
C127	C	0.884305	-0.673904	-0.000314
C128	C	1.217638	-0.340571	0.333020
C129	C	1.550971	-0.007238	0.666353
C130	C	0.757038	-0.656865	-0.000278
C131	C	1.090371	-0.323532	0.333056
C132	C	1.423704	0.009801	0.666389
C133	C	0.758114	-0.584042	-0.000267
C134	C	1.091447	-0.250709	0.333066
C135	C	1.424781	0.082624	0.666399
C136	C	0.822286	-0.556154	-0.000271
C137	C	1.155620	-0.222821	0.333062
C138	C	1.488953	0.110513	0.666395
C139	C	0.952151	0.087546	-0.000303
C140	C	1.285485	0.420879	0.333031
C141	C	1.618818	0.754213	0.666364
C142	C	1.029656	0.088687	-0.000332
C143	C	1.362989	0.422020	0.333002
C144	C	1.696322	0.755353	0.666335
C145	C	0.818997	0.220700	-0.000283
C146	C	1.152331	0.554033	0.333050
C147	C	1.485664	0.887366	0.666383
C148	C	0.820138	0.298204	-0.000297
C149	C	1.153471	0.631538	0.333036
C150	C	1.486805	0.964871	0.666370
N151	N	0.824479	0.093030	0.227911
N152	N	1.157812	0.426364	0.561245
N153	N	1.491145	0.759697	0.894578
N154	N	0.824496	0.093030	-0.228438
N155	N	1.157829	0.426364	0.104895
N156	N	1.491163	0.759697	0.438229
C157	C	0.872106	0.045435	0.453628
C158	C	1.205439	0.378769	0.786961
C159	C	1.538772	0.712102	1.120295
C160	C	0.872108	0.045434	0.545818
C161	C	1.205441	0.378767	0.879151
C162	C	1.538775	0.712100	1.212484
C163	C	0.776864	0.140628	0.545839
C164	C	1.110197	0.473961	0.879172
C165	C	1.443531	0.807294	1.212506
C166	C	0.776859	0.140626	0.453651
C167	C	1.110192	0.473959	0.786984
C168	C	1.443526	0.807292	1.120318
C169	C	0.824484	0.093030	0.407548
C170	C	1.157817	0.426363	0.740881
C171	C	1.491150	0.759697	1.074215
C172	C	0.824491	0.093031	0.591925
C173	C	1.157824	0.426364	0.925259
C174	C	1.491158	0.759697	1.258592
C175	C	0.824493	0.093029	0.691882
C176	C	1.157826	0.426363	1.025215
C177	C	1.491160	0.759696	1.358548
C178	C	0.824481	0.093030	0.307585
C179	C	1.157814	0.426364	0.640919
C180	C	1.491148	0.759697	0.974252
H181	H	0.495885	-0.020111	-0.000226
H182	H	0.829218	0.313222	0.333107
H183	H	1.162551	0.646556	0.666441
Br184	Br	0.976479	-0.290866	-0.000288
Br185	Br	1.309813	0.042467	0.333045
Br186	Br	1.643146	0.375801	0.666378
H187	H	0.738076	0.179383	0.416130
H188	H	1.071409	0.512717	0.749464
H189	H	1.404743	0.846050	1.082797
Br190	Br	0.972468	-0.563226	-0.000291
Br191	Br	1.305801	-0.229893	0.333042
Br192	Br	1.639135	0.103440	0.666376
H193	H	0.051874	-0.026659	-0.000371
H194	H	0.385207	0.306674	0.332962
H195	H	0.718540	0.640008	0.666295
Br196	Br	0.612235	0.247561	-0.000238
Br197	Br	0.945568	0.580894	0.333095
Br198	Br	1.278902	0.914228	0.666428
H199	H	0.628003	-0.018171	-0.000174
H200	H	0.961336	0.315162	0.333159
H201	H	1.294670	0.648496	0.666493
H202	H	0.738090	0.179380	0.583385
H203	H	1.071423	0.512713	0.916719
H204	H	1.404756	0.846047	1.250052
Br205	Br	-0.003424	0.238485	-0.000353
Br206	Br	0.329909	0.571818	0.332980
Br207	Br	0.663243	0.905151	0.666313
Br208	Br	0.168225	0.241017	-0.000333
Br209	Br	0.501558	0.574350	0.333001
Br210	Br	0.834892	0.907683	0.666334
Br211	Br	0.440585	0.245028	-0.000262
Br212	Br	0.773919	0.578361	0.333071
Br213	Br	1.107252	0.911695	0.666405
H214	H	0.935683	-0.710481	-0.000330
H215	H	1.269017	-0.377148	0.333003
H216	H	1.602350	-0.043815	0.666337
Br217	Br	0.936738	-0.019160	0.391062
Br218	Br	1.270071	0.314174	0.724396
Br219	Br	1.603404	0.647507	1.057729
Br220	Br	0.208382	-0.058966	-0.000271
Br221	Br	0.541715	0.274368	0.333062
Br222	Br	0.875048	0.607701	0.666396
Br223	Br	0.669953	-0.694717	-0.000262
Br224	Br	1.003287	-0.361383	0.333071
Br225	Br	1.336620	-0.028050	0.666405
H226	H	0.910885	0.006677	0.583333
H227	H	1.244218	0.340010	0.916667
H228	H	1.577552	0.673343	1.250000
H229	H	0.944176	-0.134360	-0.000258
H230	H	1.277509	0.198973	0.333076
H231	H	1.610843	0.532306	0.666409
H232	H	0.711340	-0.235567	-0.000225
H233	H	1.044674	0.097767	0.333108
H234	H	1.378007	0.431100	0.666441
Br235	Br	0.679028	-0.079054	-0.000216
Br236	Br	1.012362	0.254280	0.333117
Br237	Br	1.345695	0.587613	0.666450
H238	H	0.706738	-0.547464	-0.000251
H239	H	1.040072	-0.214131	0.333083
H240	H	1.373405	0.119203	0.666416
