data_functionalizedCrystal
_audit_creation_method	'MofGen! by Chris Wilmer'
_symmetry_space_group_name_H-M	'P1'
_symmetry_Int_Tables_number	1
_symmetry_cell_setting	triclinic
loop_
_symmetry_equiv_pos_as_xyz
  x,y,z
_cell_length_a	12.837943
_cell_length_b	11.792241
_cell_length_c	11.295483
_cell_angle_alpha	94.123059
_cell_angle_beta	85.461227
_cell_angle_gamma	89.511178
loop_
_atom_site_label
_atom_site_type_symbol
_atom_site_fract_x
_atom_site_fract_y
_atom_site_fract_z
O1	O	1.384055	0.288341	-0.099005
O2	O	1.082168	0.273757	-0.099012
O3	O	1.240437	0.116622	-0.099000
O4	O	1.225787	0.445476	-0.099017
O5	O	1.226536	0.130400	0.099050
O6	O	1.068267	0.287535	0.099038
O7	O	1.370154	0.302119	0.099045
Cu8	Cu	1.217941	0.296085	0.117125
Cu9	Cu	1.234381	0.279791	-0.117092
O10	O	1.211885	0.459254	0.099033
C11	C	1.036570	0.275719	0.000012
C12	C	0.921410	0.261025	0.000010
C13	C	0.681444	0.437671	0.000018
C14	C	0.573241	0.423870	0.000016
C15	C	0.596797	0.219624	0.000014
C16	C	0.705001	0.233425	0.000016
C17	C	0.747320	0.342452	0.000016
C18	C	0.855526	0.356251	0.000008
C19	C	0.879080	0.152006	0.000015
C20	C	0.770877	0.138205	0.000013
C21	C	1.232566	0.081127	0.000025
C22	C	1.229812	-0.045167	0.000023
C23	C	1.224748	-0.276394	0.000003
C24	C	1.227561	-0.147723	0.000014
C25	C	1.415753	0.300157	0.000018
C26	C	1.530913	0.314850	0.000013
C27	C	1.219756	0.494749	0.000006
C28	C	1.222512	0.621042	-0.000001
N29	N	1.206386	0.307545	0.281860
N30	N	1.245945	0.268322	-0.281827
C31	C	1.329126	0.185760	0.531159
C32	C	1.320401	0.194430	0.655822
C33	C	1.180207	0.333547	0.655852
C34	C	1.188932	0.324878	0.531189
C35	C	1.263395	0.250983	0.468847
C36	C	1.272124	0.242320	0.344181
C37	C	1.131925	0.381431	0.344213
C38	C	1.123200	0.390100	0.468876
H39	H	0.932729	0.074471	0.000005
H40	H	1.119573	0.393702	0.706627
H41	H	1.332758	0.182155	0.293424
H42	H	1.062571	0.450261	0.519649
C43	C	1.060669	0.452454	0.276626
C44	C	1.076020	0.567987	0.306931
C45	C	1.010412	0.633451	0.244684
H46	H	0.989904	0.434163	0.297020
H47	H	1.076533	0.436792	0.193439
H48	H	1.060149	0.583642	0.390099
H49	H	1.146772	0.586313	0.286534
H50	H	1.026276	0.617789	0.161498
H51	H	0.939651	0.615151	0.265083
H52	H	1.020826	0.711847	0.265229
H53	H	0.519607	0.501409	0.000021
C54	C	0.550642	0.101351	-0.000031
C55	C	0.441783	0.109651	-0.000050
C56	C	0.399230	0.000720	-0.000104
H57	H	0.568256	0.066358	0.069016
H58	H	0.577994	0.056823	-0.069122
H59	H	0.414441	0.154161	0.069033
H60	H	0.424140	0.144624	-0.069093
H61	H	0.426583	-0.043807	-0.069194
H62	H	0.416853	-0.034264	0.068944
H63	H	0.325367	0.006336	-0.000128
H64	H	0.889980	0.445026	0.000010
H65	H	1.389764	0.125601	0.480399
C66	C	0.727194	0.556134	0.000069
C67	C	0.646340	0.636574	0.000092
C68	C	0.688443	0.745716	0.000154
H69	H	0.773747	0.561117	-0.068976
H70	H	0.764036	0.570629	0.069161
H71	H	0.609515	0.622084	-0.068993
H72	H	0.599782	0.631628	0.069132
H73	H	0.725285	0.760211	0.069246
H74	H	0.734995	0.750687	-0.068893
H75	H	0.633590	0.800308	0.000180
H76	H	0.736404	0.049439	0.000027
H77	H	1.373924	0.141318	0.706553
