data_functionalizedCrystal
_audit_creation_method	'MofGen! by Chris Wilmer'
_symmetry_space_group_name_H-M	'P1'
_symmetry_Int_Tables_number	1
_symmetry_cell_setting	triclinic
loop_
_symmetry_equiv_pos_as_xyz
  x,y,z
_cell_length_a	23.532407
_cell_length_b	23.532407
_cell_length_c	22.610064
_cell_angle_alpha	90.000603
_cell_angle_beta	89.997161
_cell_angle_gamma	97.151322
loop_
_atom_site_label
_atom_site_type_symbol
_atom_site_fract_x
_atom_site_fract_y
_atom_site_fract_z
O1	O	0.755263	-0.069127	-0.049117
O2	O	1.255263	0.430873	0.450883
O3	O	0.589400	-0.079130	-0.049135
O4	O	1.089400	0.420870	0.450865
O5	O	0.677333	0.008803	-0.049114
O6	O	1.177333	0.508803	0.450886
O7	O	0.667330	-0.157060	-0.049137
O8	O	1.167330	0.342940	0.450863
O9	O	0.677318	0.008790	0.049255
O10	O	1.177318	0.508790	0.549255
O11	O	0.589385	-0.079143	0.049234
O12	O	1.089385	0.420857	0.549234
O13	O	0.755248	-0.069140	0.049252
O14	O	1.255248	0.430860	0.549252
Zn15	Zn	0.672314	-0.074144	0.064862
Zn16	Zn	1.172314	0.425856	0.564862
Zn17	Zn	0.672334	-0.074127	-0.064744
Zn18	Zn	1.172334	0.425873	0.435256
O19	O	0.667315	-0.157073	0.049232
O20	O	1.167315	0.342927	0.549232
C21	C	0.568176	-0.078882	0.000048
C22	C	1.068176	0.421118	0.500048
C23	C	0.504959	-0.078116	0.000041
C24	C	1.004959	0.421884	0.500041
C25	C	0.105856	-0.125350	0.000061
C26	C	0.605856	0.374650	0.500061
C27	C	0.046456	-0.124638	0.000065
C28	C	0.546456	0.375362	0.500065
O29	O	0.009711	-0.168424	0.000081
O30	O	0.509711	0.331576	0.500081
N31	N	0.023830	-0.072362	0.000071
N32	N	0.523830	0.427638	0.500071
C33	C	0.060607	-0.020794	0.000080
C34	C	0.560607	0.479206	0.500080
O35	O	0.035908	0.023737	0.000086
O36	O	0.535908	0.523737	0.500086
C37	C	0.120006	-0.021506	0.000080
C38	C	0.620006	0.478494	0.500080
C39	C	0.142629	-0.073785	0.000068
C40	C	0.642629	0.426215	0.500068
C41	C	0.128479	-0.177625	0.000050
C42	C	0.628479	0.322375	0.500050
C43	C	0.187876	-0.178336	0.000045
C44	C	0.687876	0.321664	0.500045
C45	C	0.224649	-0.126772	0.000052
C46	C	0.724649	0.373228	0.500052
C47	C	0.202025	-0.074497	0.000063
C48	C	0.702025	0.425503	0.500063
C49	C	0.156783	0.030062	0.000093
C50	C	0.656783	0.530062	0.500093
C51	C	0.216185	0.029345	0.000094
C52	C	0.716185	0.529345	0.500094
C53	C	0.238808	-0.022934	0.000082
C54	C	0.738808	0.477066	0.500082
C55	C	0.298194	-0.023643	0.000065
C56	C	0.798194	0.476357	0.500065
N57	N	0.320820	-0.075920	0.000059
N58	N	0.820820	0.424080	0.500059
C59	C	0.284048	-0.127484	0.000052
C60	C	0.784048	0.372516	0.500052
C61	C	-0.064135	-0.019302	0.000080
C62	C	0.435865	0.480698	0.500080
C63	C	-0.123533	-0.018589	0.000075
C64	C	0.376467	0.481411	0.500075
C65	C	-0.137680	-0.122434	0.000061
C66	C	0.362320	0.377566	0.500061
C67	C	-0.078281	-0.123146	0.000062
C68	C	0.421719	0.376854	0.500062
C69	C	-0.041509	-0.071578	0.000074
C70	C	0.458491	0.428422	0.500074
C71	C	0.408784	-0.128974	0.000042
C72	C	0.908784	0.371026	0.500042
C73	C	0.468186	-0.129680	0.000034
C74	C	0.968186	0.370320	0.500034
C75	C	0.482329	-0.025836	0.000051
C76	C	0.982329	0.474164	0.500051
C77	C	0.422932	-0.025129	0.000055
C78	C	0.922932	0.474871	0.500055
C79	C	0.386160	-0.076702	0.000052
C80	C	0.886160	0.423298	0.500052
O81	O	0.334974	0.020119	0.000052
O82	O	0.834974	0.520119	0.500052
O83	O	0.308755	-0.172007	0.000054
O84	O	0.808755	0.327993	0.500054
C85	C	0.677071	0.030013	0.000072
C86	C	1.177071	0.530013	0.500072
C87	C	0.676305	0.093230	0.000076
C88	C	1.176305	0.593230	0.500076
C89	C	0.776472	-0.069388	0.000069
C90	C	1.276472	0.430612	0.500069
C91	C	0.839689	-0.070154	0.000071
C92	C	1.339689	0.429846	0.500071
C93	C	0.667577	-0.178283	0.000045
C94	C	1.167577	0.321717	0.500045
C95	C	0.668343	-0.241500	0.000036
C96	C	1.168343	0.258500	0.500036
N97	N	0.672304	-0.074155	0.153314
N98	N	1.172304	0.425845	0.653314
C99	C	0.723539	0.492333	0.000049
C100	C	1.223539	0.992333	0.500049
C101	C	0.722827	0.551733	0.000044
C102	C	1.222827	1.051733	0.500044
O103	O	0.766613	0.588478	0.000027
O104	O	1.266613	1.088478	0.500027
N105	N	0.670551	0.574359	0.000039
N106	N	1.170551	1.074359	0.500039
C107	C	0.618983	0.537582	0.000032
C108	C	1.118983	1.037582	0.500032
O109	O	0.574452	0.562281	0.000027
O110	O	1.074452	1.062281	0.500027
C111	C	0.619695	0.478182	0.000033
C112	C	1.119695	0.978182	0.500033
C113	C	0.671974	0.455560	0.000044
C114	C	1.171974	0.955560	0.500044
C115	C	0.775814	0.469710	0.000060
C116	C	1.275814	0.969710	0.500060
C117	C	0.776525	0.410313	0.000065
C118	C	1.276525	0.910313	0.500065
C119	C	0.724961	0.373540	0.000060
C120	C	1.224961	0.873540	0.500060
C121	C	0.672685	0.396164	0.000050
C122	C	1.172685	0.896164	0.500050
C123	C	0.568127	0.441406	0.000022
C124	C	1.068127	0.941406	0.500022
C125	C	0.568844	0.382004	0.000021
C126	C	1.068844	0.882004	0.500021
C127	C	0.621123	0.359381	0.000033
C128	C	1.121123	0.859381	0.500033
C129	C	0.621832	0.299995	0.000050
C130	C	1.121832	0.799995	0.500050
N131	N	0.674109	0.277368	0.000056
N132	N	1.174109	0.777368	0.500056
C133	C	0.725673	0.314141	0.000061
C134	C	1.225673	0.814141	0.500061
C135	C	0.617491	0.662324	0.000031
C136	C	1.117491	1.162324	0.500031
C137	C	0.616778	0.721722	0.000034
C138	C	1.116778	1.221722	0.500034
C139	C	0.720623	0.735869	0.000045
C140	C	1.220623	1.235869	0.500045
C141	C	0.721335	0.676470	0.000046
C142	C	1.221335	1.176470	0.500046
C143	C	0.669767	0.639698	0.000036
C144	C	1.169767	1.139698	0.500036
C145	C	0.727163	0.189405	0.000073
C146	C	1.227163	0.689405	0.500073
C147	C	0.727869	0.130003	0.000081
C148	C	1.227869	0.630003	0.500081
C149	C	0.624025	0.115860	0.000067
C150	C	1.124025	0.615860	0.500067
C151	C	0.623318	0.175257	0.000062
C152	C	1.123318	0.675257	0.500062
C153	C	0.674891	0.212029	0.000063
C154	C	1.174891	0.712029	0.500063
O155	O	0.578070	0.263215	0.000065
O156	O	1.078070	0.763215	0.500065
O157	O	0.770196	0.289433	0.000058
O158	O	1.270196	0.789433	0.500058
N159	N	0.672349	-0.074111	-0.153196
N160	N	1.172349	0.425889	0.346804
C161	C	0.711273	-0.035196	0.561965
C162	C	1.211273	0.464804	1.061965
C163	C	0.711276	-0.035192	0.623884
C164	C	1.211276	0.464808	1.123884
O165	O	0.744384	-0.002076	0.655911
O166	O	1.244384	0.497924	1.155911
N167	N	0.672334	-0.074115	0.654851
N168	N	1.172334	0.425885	1.154851
C169	C	0.633383	-0.113041	0.623895
C170	C	1.133383	0.386959	1.123895
O171	O	0.600259	-0.146147	0.655920
O172	O	1.100259	0.353853	1.155920
C173	C	0.633377	-0.113042	0.561976
C174	C	1.133377	0.386958	1.061976
C175	C	0.672326	-0.074120	0.531013
C176	C	1.172326	0.425880	1.031013
C177	C	0.750218	0.003724	0.531001
C178	C	1.250218	0.503724	1.031001
C179	C	0.750215	0.003719	0.469085
C180	C	1.250215	0.503719	0.969085
C181	C	0.711268	-0.035206	0.438133
C182	C	1.211268	0.464794	0.938133
C183	C	0.672323	-0.074125	0.469097
C184	C	1.172323	0.425875	0.969097
C185	C	0.594424	-0.151965	0.531021
C186	C	1.094424	0.348035	1.031021
C187	C	0.594422	-0.151962	0.469098
C188	C	1.094422	0.348038	0.969098
C189	C	0.633370	-0.113040	0.438134
C190	C	1.133370	0.386960	0.938134
C191	C	0.633374	-0.113054	0.376229
C192	C	1.133374	0.386946	0.876229
N193	N	0.672316	-0.074131	0.345262
N194	N	1.172316	0.425869	0.845262
C195	C	0.711263	-0.035207	0.376214
C196	C	1.211263	0.464793	0.876214
C197	C	0.633396	-0.113035	0.753928
C198	C	1.133396	0.386965	1.253928
C199	C	0.633403	-0.113037	0.815846
C200	C	1.133403	0.386963	1.315846
C201	C	0.711296	-0.035187	0.815831
C202	C	1.211296	0.464813	1.315831
C203	C	0.711291	-0.035188	0.753913
C204	C	1.211291	0.464812	1.253913
C205	C	0.672338	-0.074112	0.722962
C206	C	1.172338	0.425888	1.222962
C207	C	0.711255	-0.035220	0.246187
C208	C	1.211255	0.464780	0.746187
C209	C	0.711251	-0.035230	0.184266
C210	C	1.211251	0.464770	0.684266
C211	C	0.633357	-0.113078	0.184286
C212	C	1.133357	0.386922	0.684286
C213	C	0.633363	-0.113071	0.246202
C214	C	1.133363	0.386929	0.746202
C215	C	0.672314	-0.074137	0.277151
C216	C	1.172314	0.425863	0.777151
O217	O	0.600281	-0.146152	0.344163
O218	O	1.100281	0.353848	0.844163
O219	O	0.744376	-0.002101	0.344182
O220	O	1.244376	0.497899	0.844182
H221	H	-0.059867	-0.165717	0.000055
H222	H	0.440133	0.334283	0.500055
C223	C	0.364344	0.035910	0.050637
C224	C	0.864344	0.535910	0.550637
C225	C	0.398061	0.032337	0.000064
C226	C	0.898061	0.532337	0.500064
H227	H	0.348992	0.071387	0.050644
H228	H	0.848992	0.571387	0.550644
H229	H	0.387226	0.033470	0.084930
H230	H	0.887226	0.533470	0.584930
H231	H	0.333941	0.005301	0.050630
H232	H	0.833941	0.505301	0.550630
H233	H	0.428467	0.062944	0.000073
H234	H	0.928467	0.562944	0.500073
H235	H	0.375178	0.034783	-0.034237
H236	H	0.875178	0.534783	0.465763
H237	H	0.781929	0.035414	0.443878
H238	H	1.281929	0.535414	0.943878
C239	C	0.620588	-0.190620	0.684305
C240	C	1.120588	0.309380	1.184305
C241	C	0.590583	-0.155832	0.719909
C242	C	1.090583	0.344168	1.219909
H243	H	0.594157	-0.217037	0.663303
H244	H	1.094157	0.282963	1.163303
H245	H	0.644177	-0.210978	0.708458
H246	H	1.144177	0.289022	1.208458
H247	H	0.643774	-0.167435	0.656999
H248	H	1.143774	0.332565	1.156999
H249	H	0.567400	-0.179017	0.747218
H250	H	1.067400	0.320983	1.247218
H251	H	0.566984	-0.135472	0.695753
H252	H	1.066984	0.364528	1.195753
C253	C	0.516843	-0.164711	0.600648
C254	C	1.016843	0.335289	1.100648
C255	C	0.551606	-0.194746	0.565045
C256	C	1.051606	0.305254	1.065045
H257	H	0.490409	-0.191124	0.621653
H258	H	0.990409	0.308876	1.121653
H259	H	0.496503	-0.141107	0.576492
H260	H	0.996503	0.358893	1.076492
H261	H	0.540043	-0.141538	0.627950
H262	H	1.040043	0.358462	1.127950
H263	H	0.528406	-0.217916	0.537740
H264	H	1.028406	0.282084	1.037740
H265	H	0.571948	-0.218360	0.589203
H266	H	1.071948	0.281640	1.089203
H267	H	0.601648	-0.144772	0.159075
H268	H	1.101648	0.355228	0.659075
H269	H	0.781933	0.035423	0.556197
H270	H	1.281933	0.535423	1.056197
C271	C	0.579669	0.019171	0.000063
C272	C	1.079669	0.519171	0.500063
C273	C	0.522757	0.030842	0.000063
C274	C	1.022757	0.530842	0.500063
H275	H	0.604628	0.054162	0.000078
H276	H	1.104628	0.554162	0.500078
H277	H	0.586494	-0.002267	-0.034245
H278	H	1.086494	0.497733	0.465755
H279	H	0.586484	-0.002291	0.034362
H280	H	1.086484	0.497709	0.534362
H281	H	0.515941	0.052300	-0.034239
H282	H	1.015941	0.552300	0.465761
H283	H	0.515929	0.052289	0.034375
H284	H	1.015929	0.552289	0.534375
H285	H	0.575496	0.632386	0.000028
H286	H	1.075496	1.132386	0.500028
H287	H	-0.141947	0.023982	0.000076
H288	H	0.358053	0.523982	0.500076
H289	H	0.743005	-0.003494	0.728706
H290	H	1.243005	0.496506	1.228706
C291	C	0.246532	0.117647	-0.050461
C292	C	0.746532	0.617647	0.449539
C293	C	0.256607	0.086031	0.000101
C294	C	0.756607	0.586031	0.500101
H295	H	0.271489	0.152640	-0.050459
H296	H	0.771489	0.652640	0.449541
H297	H	0.207923	0.125549	-0.050452
H298	H	0.707923	0.625549	0.449548
H299	H	0.253363	0.096196	-0.084765
H300	H	0.753363	0.596196	0.415235
H301	H	0.249772	0.107481	0.034405
H302	H	0.749772	0.607481	0.534405
H303	H	0.295226	0.078130	0.000097
H304	H	0.795226	0.578130	0.500097
C305	C	0.782391	0.617885	-0.050516
C306	C	1.282391	1.117885	0.449484
C307	C	0.778801	0.651604	0.000052
C308	C	1.278801	1.151604	0.500052
H309	H	0.817868	0.602533	-0.050510
H310	H	1.317868	1.102533	0.449490
H311	H	0.779960	0.640765	-0.084812
H312	H	1.279960	1.140765	0.415188
H313	H	0.751782	0.587481	-0.050514
H314	H	1.251782	1.087481	0.449486
H315	H	0.809407	0.682010	0.000048
H316	H	1.309407	1.182010	0.500048
H317	H	0.781237	0.628723	0.034357
H318	H	1.281237	1.128723	0.534357
H319	H	0.486602	-0.172255	0.000024
H320	H	0.986602	0.327745	0.500024
C321	C	0.053485	-0.237066	-0.050533
C322	C	0.553485	0.262934	0.449467
C323	C	0.088064	-0.234311	0.000038
C324	C	0.588064	0.265689	0.500038
H325	H	0.028535	-0.272063	-0.050541
H326	H	0.528535	0.227937	0.449459
H327	H	0.076957	-0.235174	-0.084827
H328	H	0.576957	0.264826	0.415173
H329	H	0.031504	-0.205834	-0.050520
H330	H	0.531504	0.294166	0.449480
H331	H	0.110047	-0.265541	0.000022
H332	H	0.610047	0.234459	0.500022
H333	H	0.064589	-0.236209	0.034341
H334	H	0.564589	0.263791	0.534341
H335	H	0.817806	0.499645	0.000061
H336	H	1.317806	0.999645	0.500061
C337	C	0.517426	-0.228913	0.475337
C338	C	1.017426	0.271087	0.975337
C339	C	0.551605	-0.194753	0.435078
C340	C	1.051605	0.305247	0.935078
H341	H	0.490997	-0.255332	0.454334
H342	H	0.990997	0.244668	0.954334
H343	H	0.497080	-0.205306	0.499485
H344	H	0.997080	0.294694	0.999485
H345	H	0.541022	-0.249274	0.499488
H346	H	1.041022	0.250726	0.999488
H347	H	0.528009	-0.174388	0.410929
H348	H	1.028009	0.325612	0.910929
H349	H	0.571953	-0.218363	0.410919
H350	H	1.071953	0.281637	0.910919
H351	H	0.770443	0.111587	0.000092
H352	H	1.270443	0.611587	0.500092
H353	H	-0.167632	-0.164421	0.000059
H354	H	0.332368	0.335579	0.500059
C355	C	-0.056127	0.083416	0.000081
C356	C	0.443873	0.583416	0.500081
C357	C	-0.023717	0.037387	0.000080
C358	C	0.476283	0.537387	0.500080
H359	H	-0.031175	0.118412	0.000078
H360	H	0.468825	0.618412	0.500078
H361	H	-0.079588	0.081530	0.034384
H362	H	0.420412	0.581530	0.534384
H363	H	-0.079591	0.081527	-0.034223
H364	H	0.420409	0.581527	0.465777
H365	H	-0.000256	0.039273	0.034387
H366	H	0.499744	0.539273	0.534387
H367	H	-0.000246	0.039274	-0.034226
H368	H	0.499754	0.539274	0.465774
C369	C	0.556363	-0.190016	0.239994
C370	C	1.056363	0.309984	0.739994
C371	C	0.590549	-0.155851	0.280241
C372	C	1.090549	0.344149	0.780241
H373	H	0.529925	-0.216420	0.261006
H374	H	1.029925	0.283580	0.761006
H375	H	0.579949	-0.210390	0.215850
H376	H	1.079949	0.289610	0.715850
H377	H	0.536022	-0.166406	0.215836
H378	H	1.036022	0.333594	0.715836
H379	H	0.610893	-0.179461	0.304396
H380	H	1.110893	0.320539	0.804396
H381	H	0.566959	-0.135476	0.304394
H382	H	1.066959	0.364524	0.804394
H383	H	0.526850	0.352066	0.000013
H384	H	1.026850	0.852066	0.500013
H385	H	0.138375	0.072634	0.000103
H386	H	0.638375	0.572634	0.500103
C387	C	0.829881	0.197406	0.000093
C388	C	1.329881	0.697406	0.500093
C389	C	0.783853	0.229818	0.000079
C390	C	1.283853	0.729818	0.500079
H391	H	0.864878	0.222356	0.000103
H392	H	1.364878	0.722356	0.500103
H393	H	0.828003	0.173945	-0.034208
H394	H	1.328003	0.673945	0.465792
H395	H	0.827982	0.173943	0.034399
H396	H	1.327982	0.673943	0.534399
H397	H	0.785750	0.253278	-0.034230
H398	H	1.285750	0.753278	0.465770
H399	H	0.785731	0.253289	0.034383
H400	H	1.285731	0.753289	0.534383
C401	C	0.723958	0.042409	0.114725
C402	C	1.223958	0.542409	0.614725
C403	C	0.754025	0.007633	0.150275
C404	C	1.254025	0.507633	0.650275
H405	H	0.750353	0.068890	0.093753
H406	H	1.250353	0.568890	0.593753
H407	H	0.700331	0.062695	0.138912
H408	H	1.200331	0.562695	0.638912
H409	H	0.700806	0.019225	0.087393
H410	H	1.200806	0.519225	0.587393
H411	H	0.777174	0.030816	0.177610
H412	H	1.277174	0.530816	0.677610
H413	H	0.777662	-0.012655	0.126086
H414	H	1.277662	0.487345	0.626086
C415	C	0.400783	-0.231692	0.000016
C416	C	0.900783	0.268308	0.500016
C417	C	0.368371	-0.185664	0.000031
C418	C	0.868371	0.314336	0.500031
H419	H	0.375833	-0.266689	0.000003
H420	H	0.875833	0.233311	0.500003
H421	H	0.424241	-0.229815	0.034318
H422	H	0.924241	0.270185	0.534318
H423	H	0.424250	-0.229792	-0.034289
H424	H	0.924250	0.270208	0.465711
H425	H	0.344908	-0.187561	0.034339
H426	H	0.844908	0.312439	0.534339
H427	H	0.344903	-0.187542	-0.034274
H428	H	0.844903	0.312458	0.465726
C429	C	0.167907	-0.280907	0.000042
C430	C	0.667907	0.219093	0.500042
C431	C	0.212737	-0.235804	0.000042
C432	C	0.712737	0.264196	0.500042
H433	H	0.183254	-0.316387	0.000046
H434	H	0.683254	0.183613	0.500046
H435	H	0.145039	-0.278465	-0.034260
H436	H	0.645039	0.221535	0.465740
H437	H	0.145031	-0.278461	0.034347
H438	H	0.645031	0.221539	0.534347
H439	H	0.235611	-0.238247	-0.034265
H440	H	0.735611	0.261753	0.465735
H441	H	0.235615	-0.238247	0.034348
H442	H	0.735615	0.261753	0.534348
H443	H	0.819097	0.391900	0.000072
H444	H	1.319097	0.891900	0.500072
H445	H	0.574207	0.740136	0.000035
H446	H	1.074207	1.240136	0.500035
C447	C	0.780068	0.810875	-0.050531
C448	C	1.280068	1.310875	0.449469
C449	C	0.777307	0.776296	0.000042
C450	C	1.277307	1.276296	0.500042
H451	H	0.815062	0.835830	-0.050534
H452	H	1.315062	1.335830	0.449466
H453	H	0.748834	0.832845	-0.050529
H454	H	1.248834	1.332845	0.449471
H455	H	0.778191	0.787398	-0.084827
H456	H	1.278191	1.287398	0.415173
H457	H	0.779180	0.799773	0.034339
H458	H	1.279180	1.299773	0.534339
H459	H	0.808549	0.754324	0.000045
H460	H	1.308549	1.254324	0.500045
C461	C	0.521306	0.107828	0.000047
C462	C	1.021306	0.607828	0.500047
C463	C	0.567347	0.075433	0.000058
C464	C	1.067347	0.575433	0.500058
H465	H	0.486316	0.082867	0.000041
H466	H	0.986316	0.582867	0.500041
H467	H	0.523195	0.131290	-0.034254
H468	H	1.023195	0.631290	0.465746
H469	H	0.523179	0.131291	0.034353
H470	H	1.023179	0.631291	0.534353
H471	H	0.565476	0.051973	-0.034251
H472	H	1.065476	0.551973	0.465749
H473	H	0.565456	0.051961	0.034362
H474	H	1.065456	0.551961	0.534362
H475	H	0.525555	0.459814	0.000009
H476	H	1.025555	0.959814	0.500009
H477	H	0.580748	0.193677	0.000069
H478	H	1.080748	0.693677	0.500069
H479	H	0.601694	-0.144737	0.841052
H480	H	1.101694	0.355263	1.341052
C481	C	0.788251	0.041729	0.239936
C482	C	1.288251	0.541729	0.739936
C483	C	0.754072	0.007575	0.280200
C484	C	1.254072	0.507575	0.780200
H485	H	0.814686	0.068145	0.260935
H486	H	1.314686	0.568145	0.760935
H487	H	0.764659	0.062090	0.215788
H488	H	1.264659	0.562090	0.715788
H489	H	0.808594	0.018114	0.215785
H490	H	1.308594	0.518114	0.715785
H491	H	0.733725	0.031190	0.304349
H492	H	1.233725	0.531190	0.804349
H493	H	0.777667	-0.012787	0.304358
H494	H	1.277667	0.487213	0.804358
C495	C	0.724092	0.042390	0.885461
C496	C	1.224092	0.542390	1.385461
C497	C	0.754104	0.007606	0.849860
C498	C	1.254104	0.507606	1.349860
H499	H	0.750520	0.068809	0.906467
H500	H	1.250520	0.568809	1.406467
H501	H	0.700904	0.019207	0.912758
H502	H	1.200904	0.519207	1.412758
H503	H	0.700505	0.062753	0.861300
H504	H	1.200505	0.562753	1.361300
H505	H	0.777689	-0.012760	0.874022
H506	H	1.277689	0.487240	1.374022
H507	H	0.777302	0.030792	0.822560
H508	H	1.277302	0.530792	1.322560
