data_functionalizedCrystal
_audit_creation_method	'MofGen! by Chris Wilmer'
_symmetry_space_group_name_H-M	'P1'
_symmetry_Int_Tables_number	1
_symmetry_cell_setting	triclinic
loop_
_symmetry_equiv_pos_as_xyz
  x,y,z
_cell_length_a	12.811457
_cell_length_b	15.944493
_cell_length_c	11.295483
_cell_angle_alpha	94.100278
_cell_angle_beta	91.289320
_cell_angle_gamma	83.760055
loop_
_atom_site_label
_atom_site_type_symbol
_atom_site_fract_x
_atom_site_fract_y
_atom_site_fract_z
O1	O	1.388996	0.116031	0.050993
O2	O	1.085751	0.126472	0.018244
O3	O	1.245686	-0.000947	0.035507
O4	O	1.229060	0.243450	0.033731
O5	O	1.231639	0.010227	0.232041
O6	O	1.071704	0.137647	0.214779
O7	O	1.374948	0.127205	0.247528
Cu8	Cu	1.222043	0.133446	0.249098
Cu9	Cu	1.238656	0.120231	0.016674
O10	O	1.215013	0.254625	0.230265
C11	C	1.039923	0.131132	0.112320
C12	C	0.924299	0.128358	0.099833
C13	C	0.691713	0.135313	0.290653
C14	C	0.583073	0.132707	0.278926
C15	C	0.598378	0.120533	0.064652
C16	C	0.707018	0.123140	0.076379
C17	C	0.753681	0.130531	0.189384
C18	C	0.862322	0.133143	0.201110
C19	C	0.877626	0.120964	-0.013163
C20	C	0.768986	0.118357	-0.024890
C21	C	1.237984	-0.026662	0.133695
C22	C	1.235948	-0.119931	0.133460
C23	C	1.330087	-0.354784	0.143650
C24	C	1.286246	-0.411350	0.041266
C25	C	1.232172	-0.290687	0.133067
C26	C	1.272374	-0.400309	0.235031
C27	C	1.228532	-0.455631	0.132693
C28	C	1.188363	-0.346029	0.030606
C29	C	1.174499	-0.334980	0.224460
C30	C	1.130588	-0.391514	0.122045
C31	C	1.234272	-0.195668	0.133282
C32	C	1.226425	-0.550648	0.132469
C33	C	1.420776	0.122545	0.153449
C34	C	1.536401	0.125319	0.165929
C35	C	1.222716	0.280339	0.132074
C36	C	1.224752	0.373608	0.132301
N37	N	1.210366	0.142740	0.412574
N38	N	1.250341	0.110931	-0.146802
C39	C	1.334398	0.043980	0.675251
C40	C	1.325581	0.051010	0.798963
C41	C	1.183911	0.163824	0.783712
C42	C	1.192728	0.156795	0.660000
C43	C	1.267975	0.096871	0.605774
C44	C	1.276796	0.089846	0.482061
C45	C	1.135122	0.202656	0.466812
C46	C	1.126305	0.209686	0.590524
H47	H	0.729705	0.141343	0.382665
H48	H	0.532621	0.136606	0.361390
H49	H	0.928092	0.117075	-0.095624
H50	H	0.560368	0.114502	-0.027351
H51	H	0.730979	0.112336	-0.116895
H52	H	1.379668	0.007939	0.855528
H53	H	1.395674	-0.004806	0.631101
H54	H	1.046184	-0.407795	0.112876
H55	H	1.333453	-0.444556	-0.036192
H56	H	1.414436	-0.338351	0.152661
H57	H	1.081039	0.245727	0.410229
H58	H	1.152897	-0.322269	-0.055867
H59	H	1.127327	-0.301758	0.301925
H60	H	1.307891	-0.424185	0.321416
H61	H	1.338069	0.041056	0.437912
H62	H	1.065037	0.258472	0.634688
H63	H	0.900312	0.139167	0.293124
H64	H	1.122640	0.212607	0.827879
