data_functionalizedCrystal
_audit_creation_method	'MofGen! by Chris Wilmer'
_symmetry_space_group_name_H-M	'P1'
_symmetry_Int_Tables_number	1
_symmetry_cell_setting	triclinic
loop_
_symmetry_equiv_pos_as_xyz
  x,y,z
_cell_length_a	25.639242
_cell_length_b	21.395361
_cell_length_c	21.395355
_cell_angle_alpha	90.019049
_cell_angle_beta	90.027171
_cell_angle_gamma	90.021463
loop_
_atom_site_label
_atom_site_type_symbol
_atom_site_fract_x
_atom_site_fract_y
_atom_site_fract_z
Zn1	Zn	-0.799312	0.249663	-0.354303
Zn2	Zn	-0.799231	0.354423	-0.249524
Zn3	Zn	-0.711871	0.249646	-0.249535
Zn4	Zn	-0.711846	0.354390	-0.354260
O5	O	-0.755565	0.302030	-0.301905
O6	O	-0.872467	0.263580	-0.340417
O7	O	-0.787619	0.340531	-0.161848
O8	O	-0.723515	0.161971	-0.263455
O9	O	-0.872407	0.340547	-0.263437
O10	O	-0.787758	0.161983	-0.340427
O11	O	-0.723437	0.263552	-0.161855
O12	O	-0.638703	0.263520	-0.263413
O13	O	-0.723472	0.340491	-0.441943
O14	O	-0.638684	0.340475	-0.340354
O15	O	-0.787733	0.263548	-0.441975
O16	O	-0.787595	0.442096	-0.263395
O17	O	-0.723393	0.442072	-0.340344
C18	C	-0.619723	0.301993	-0.301880
C19	C	-0.561609	0.301992	-0.301885
C20	C	-0.755497	0.464818	-0.301878
C21	C	-0.755515	0.534459	-0.301887
C22	C	-0.310454	0.262012	-0.342047
C23	C	-0.365059	0.262008	-0.342045
O24	O	-0.393328	0.227995	-0.376196
N25	N	-0.392335	0.302013	-0.301900
C26	C	-0.365004	0.342029	-0.261758
O27	O	-0.393218	0.376057	-0.227612
C28	C	-0.310400	0.342037	-0.261764
C29	C	-0.283127	0.302025	-0.301907
C30	C	-0.283181	0.222004	-0.382187
C31	C	-0.228580	0.222008	-0.382188
C32	C	-0.201253	0.262020	-0.342048
C33	C	-0.228527	0.302029	-0.301907
C34	C	-0.283070	0.382056	-0.221626
C35	C	-0.228463	0.382060	-0.221635
C36	C	-0.201190	0.342048	-0.261778
C37	C	-0.146599	0.342045	-0.261768
N38	N	-0.119323	0.302040	-0.301913
C39	C	-0.146650	0.262027	-0.342053
C40	C	-0.479674	0.342012	-0.261751
C41	C	-0.534277	0.342002	-0.261742
C42	C	-0.534328	0.261981	-0.342030
C43	C	-0.479724	0.261988	-0.342035
C44	C	-0.452398	0.302007	-0.301896
C45	C	-0.031985	0.262038	-0.342051
C46	C	0.022621	0.262044	-0.342046
C47	C	0.022667	0.342067	-0.261762
C48	C	-0.031934	0.342059	-0.261764
C49	C	-0.059258	0.302043	-0.301914
O50	O	-0.118294	0.376041	-0.227636
O51	O	-0.118429	0.228012	-0.376200
C52	C	0.108062	0.302061	-0.301922
C53	C	0.049948	0.302056	-0.301907
C54	C	-0.788974	0.567164	-0.261862
C55	C	-0.788999	0.632599	-0.261879
C56	C	-0.755555	0.665328	-0.301914
C57	C	-0.722093	0.632615	-0.341946
C58	C	-0.722073	0.567181	-0.341933
C59	C	-0.708478	0.769034	-0.306825
C60	C	-0.708497	0.834467	-0.306835
C61	C	-0.755616	0.867148	-0.301959
C62	C	-0.802718	0.834389	-0.297061
C63	C	-0.802698	0.768955	-0.297048
C64	C	-0.755573	0.736280	-0.301933
C65	C	-0.789105	0.970806	-0.261950
C66	C	-0.789130	1.036242	-0.261972
C67	C	-0.722220	1.036256	-0.342036
C68	C	-0.722199	0.970821	-0.342018
C69	C	-0.755641	0.938100	-0.301972
C70	C	-0.755609	0.302018	-0.465329
C71	C	-0.755627	0.302012	-0.534970
C72	C	-0.755649	1.138607	-0.301958
C73	C	-0.755686	1.068966	-0.302008
C74	C	-0.789086	0.261947	-0.567701
C75	C	-0.789086	0.261920	-0.633136
C76	C	-0.755631	0.301970	-0.665838
C77	C	-0.722165	0.342038	-0.633100
C78	C	-0.722163	0.342059	-0.567666
C79	C	-0.751479	0.358384	-0.769503
C80	C	-0.751485	0.358364	-0.834936
C81	C	-0.755634	0.301903	-0.867659
C82	C	-0.759789	0.245461	-0.834941
C83	C	-0.759787	0.245483	-0.769507
C84	C	-0.755629	0.301951	-0.736791
C85	C	-0.789095	0.261805	-0.971342
C86	C	-0.789090	0.261777	-1.036779
C87	C	-0.722173	0.341901	-1.036742
C88	C	-0.722174	0.341923	-0.971306
C89	C	-0.755638	0.301876	-0.938611
C90	C	-0.755552	0.301998	-0.139118
C91	C	-0.755635	0.301827	-0.069477
H92	H	0.044824	0.229458	-0.374736
H93	H	-0.841086	0.860997	-0.293091
H94	H	-0.670105	0.742431	-0.310798
O95	O	-0.560848	0.380807	-0.222763
C96	C	-0.644938	0.416304	-0.187199
C97	C	-0.614914	0.372310	-0.231361
H98	H	-0.688656	0.409459	-0.194144
H99	H	-0.634220	0.405226	-0.136684
H100	H	-0.634158	0.466834	-0.198105
H101	H	-0.625678	0.321765	-0.220511
H102	H	-0.625634	0.383442	-0.281862
H103	H	-0.206217	0.414651	-0.188950
H104	H	-0.816247	0.659233	-0.229286
O105	O	-0.821631	0.223122	-0.535905
C106	C	-0.892179	0.214702	-0.462009
C107	C	-0.855374	0.258749	-0.497997
H108	H	-0.919462	0.243488	-0.431341
H109	H	-0.916131	0.186060	-0.496609
H110	H	-0.868161	0.181941	-0.431400
H111	H	-0.879351	0.291548	-0.528606
H112	H	-0.831419	0.287347	-0.463363
H113	H	-0.816340	0.229193	-0.944720
H114	H	-0.748105	0.404322	-0.861570
O115	O	-0.689715	1.067943	-0.380986
C116	C	-0.623326	1.061052	-0.460369
C117	C	-0.660118	1.025085	-0.416297
H118	H	-0.599380	1.026416	-0.488920
H119	H	-0.647301	1.091629	-0.493208
H120	H	-0.596031	1.091744	-0.431568
H121	H	-0.687420	0.994358	-0.445047
H122	H	-0.636111	0.994547	-0.383457
H123	H	-0.457429	0.374599	-0.229060
O124	O	-0.058349	0.380984	-0.222749
C125	C	-0.052529	0.460337	-0.143097
C126	C	-0.022554	0.416289	-0.187253
H127	H	-0.023602	0.488882	-0.114378
H128	H	-0.078076	0.493182	-0.171779
H129	H	-0.078107	0.431518	-0.110414
H130	H	0.003052	0.445057	-0.219945
H131	H	0.002960	0.383442	-0.158532
O132	O	-0.689642	0.535380	-0.380879
C133	C	-0.682549	0.461429	-0.465417
C134	C	-0.719338	0.497417	-0.421361
H135	H	-0.706543	0.430718	-0.498149
H136	H	-0.658659	0.496029	-0.494083
H137	H	-0.655202	0.430865	-0.436598
H138	H	-0.746717	0.527982	-0.450131
H139	H	-0.743191	0.462783	-0.392692
H140	H	-0.816337	0.944163	-0.229344
O141	O	-0.821652	1.067917	-0.223031
C142	C	-0.888030	1.060995	-0.143637
C143	C	-0.851217	1.025045	-0.187695
H144	H	-0.911951	1.026348	-0.115065
H145	H	-0.864072	1.091654	-0.110816
H146	H	-0.915347	1.091604	-0.172449
H147	H	-0.823893	0.994401	-0.158933
H148	H	-0.875208	0.994425	-0.220518
H149	H	-0.694951	0.944191	-0.374607
O150	O	-0.763751	0.190561	-0.866646
C151	C	-0.726056	0.089364	-0.886656
C152	C	-0.721513	0.151502	-0.850701
H153	H	-0.691906	0.057772	-0.873787
H154	H	-0.764245	0.065287	-0.873799
H155	H	-0.725365	0.099052	-0.939041
H156	H	-0.722182	0.141868	-0.798307
H157	H	-0.683329	0.175559	-0.863610
O158	O	-0.662701	0.866189	-0.311623
C159	C	-0.569243	0.859360	-0.321285
C160	C	-0.621072	0.823358	-0.315881
H161	H	-0.535571	0.824746	-0.324716
H162	H	-0.570011	0.889955	-0.364890
H163	H	-0.563776	0.890037	-0.278199
H164	H	-0.626571	0.792647	-0.358934
H165	H	-0.620279	0.792802	-0.272250
O166	O	-0.309636	0.420871	-0.182655
C167	C	-0.393722	0.456383	-0.147093
C168	C	-0.363703	0.412378	-0.191249
H169	H	-0.437441	0.449542	-0.154035
H170	H	-0.383004	0.445314	-0.096577
H171	H	-0.382939	0.506910	-0.158010
H172	H	-0.374470	0.361836	-0.180388
H173	H	-0.374424	0.423501	-0.241752
H174	H	0.044927	0.374642	-0.229078
H175	H	-0.206379	0.189429	-0.414879
H176	H	-0.054226	0.229453	-0.374745
O177	O	-0.848497	0.737229	-0.292319
C178	C	-0.941951	0.744048	-0.282598
C179	C	-0.890122	0.780055	-0.287960
H180	H	-0.975618	0.778658	-0.279058
H181	H	-0.947477	0.713404	-0.325698
H182	H	-0.941122	0.713419	-0.239019
H183	H	-0.890914	0.810719	-0.331513
H184	H	-0.884616	0.810660	-0.244829
H185	H	-0.457522	0.229406	-0.374723
O186	O	-0.309641	0.183072	-0.421201
C187	C	-0.303910	0.103722	-0.500852
C188	C	-0.273885	0.147778	-0.456692
H189	H	-0.275015	0.075185	-0.529568
H190	H	-0.329451	0.070869	-0.472174
H191	H	-0.329498	0.132534	-0.533538
H192	H	-0.248268	0.119017	-0.423997
H193	H	-0.248377	0.180633	-0.485409
O194	O	-0.821513	0.535477	-0.222949
C195	C	-0.887860	0.542371	-0.143515
C196	C	-0.851044	0.578337	-0.187560
H197	H	-0.911737	0.577008	-0.114882
H198	H	-0.915214	0.511717	-0.172279
H199	H	-0.863855	0.511756	-0.110746
H200	H	-0.875007	0.608986	-0.220338
H201	H	-0.823689	0.608951	-0.158757
H202	H	-0.694863	0.659266	-0.374544
O203	O	-0.821640	0.222980	-0.664843
C204	C	-0.887998	0.143495	-0.657979
C205	C	-0.851165	0.187570	-0.621997
H206	H	-0.911871	0.114845	-0.623354
H207	H	-0.915355	0.172234	-0.688609
H208	H	-0.864005	0.110742	-0.688620
H209	H	-0.875116	0.220332	-0.591321
H210	H	-0.823807	0.158792	-0.591406
O211	O	-0.763744	0.190691	-0.737657
C212	C	-0.723769	0.120474	-0.663787
C213	C	-0.719231	0.182549	-0.699807
H214	H	-0.687780	0.113865	-0.633187
H215	H	-0.760113	0.121450	-0.633127
H216	H	-0.726759	0.080128	-0.698422
H217	H	-0.716219	0.222929	-0.665217
H218	H	-0.682893	0.181519	-0.730477
O219	O	-0.821541	0.222870	-1.068673
C220	C	-0.851214	0.187343	-1.169493
C221	C	-0.814431	0.231430	-1.133451
H222	H	-0.845486	0.194258	-1.221873
H223	H	-0.842057	0.136811	-1.156664
H224	H	-0.893363	0.198354	-1.156618
H225	H	-0.772270	0.220475	-1.146307
H226	H	-0.823633	0.281949	-1.146284
H227	H	-0.556587	0.229401	-0.374714
O228	O	-0.689700	0.380895	-1.068429
C229	C	-0.664288	0.487463	-1.088456
C230	C	-0.701091	0.443372	-1.052519
H231	H	-0.673492	0.537985	-1.075617
H232	H	-0.622126	0.476504	-1.075553
H233	H	-0.670024	0.480536	-1.140845
H234	H	-0.695402	0.450274	-1.000123
H235	H	-0.743239	0.454341	-1.065475
O236	O	-0.689621	0.380759	-0.939479
C237	C	-0.619048	0.389194	-0.865533
C238	C	-0.655877	0.345141	-0.901549
H239	H	-0.591764	0.360415	-0.834848
H240	H	-0.595097	0.417805	-0.900114
H241	H	-0.643047	0.421983	-0.834939
H242	H	-0.631918	0.312314	-0.932144
H243	H	-0.679829	0.316574	-0.866934
O244	O	-0.747416	0.413287	-0.737816
C245	C	-0.739034	0.525253	-0.744717
C246	C	-0.743679	0.463129	-0.780679
H247	H	-0.736000	0.565565	-0.779356
H248	H	-0.774968	0.531985	-0.714086
H249	H	-0.702655	0.524191	-0.714079
H250	H	-0.780037	0.464147	-0.811351
H251	H	-0.707719	0.456421	-0.811271
O252	O	-0.689694	0.381031	-0.664795
C253	C	-0.664281	0.487597	-0.684827
C254	C	-0.701082	0.443509	-0.648885
H255	H	-0.673483	0.538120	-0.671988
H256	H	-0.622119	0.476638	-0.671929
H257	H	-0.670022	0.480670	-0.737215
H258	H	-0.695388	0.450412	-0.596489
H259	H	-0.743232	0.454479	-0.661835
H260	H	-0.694914	0.374685	-0.541017
