data_functionalizedCrystal
_audit_creation_method	'MofGen! by Chris Wilmer'
_symmetry_space_group_name_H-M	'P1'
_symmetry_Int_Tables_number	1
_symmetry_cell_setting	triclinic
loop_
_symmetry_equiv_pos_as_xyz
  x,y,z
_cell_length_a	16.109318
_cell_length_b	16.109301
_cell_length_c	9.130313
_cell_angle_alpha	89.997330
_cell_angle_beta	90.003347
_cell_angle_gamma	83.465022
loop_
_atom_site_label
_atom_site_type_symbol
_atom_site_fract_x
_atom_site_fract_y
_atom_site_fract_z
O1	O	1.103118	0.106932	-0.121682
O2	O	0.861058	0.120216	-0.121712
O3	O	0.988738	-0.007456	-0.121682
O4	O	0.975439	0.234605	-0.121713
O5	O	0.988736	-0.007453	0.121917
O6	O	0.861057	0.120220	0.121886
O7	O	1.103117	0.106935	0.121917
Cu8	Cu	0.982086	0.113578	0.144144
Cu9	Cu	0.982088	0.113574	-0.143940
O10	O	0.975437	0.234608	0.121886
C11	C	0.830083	0.119677	0.000083
C12	C	0.737788	0.118057	0.000072
C13	C	0.438715	0.112820	-0.132687
C14	C	0.525437	0.114337	-0.132696
C15	C	0.525454	0.114329	0.132889
C16	C	0.438735	0.112806	0.132896
C17	C	0.395367	0.112056	0.000104
C18	C	0.568807	0.115096	0.000087
C19	C	0.662835	0.116742	0.000078
C20	C	0.301334	0.110409	0.000113
C21	C	0.988198	-0.038430	0.000119
C22	C	0.986583	-0.130725	0.000120
C23	C	1.058590	-0.352993	0.000106
C24	C	1.057066	-0.439713	0.000094
C25	C	0.905579	-0.419848	0.000081
C26	C	0.907104	-0.333130	0.000083
C27	C	0.983612	-0.299704	0.000103
C28	C	0.980563	-0.473144	0.000089
C29	C	0.978910	-0.567170	0.000075
C30	C	0.985265	-0.205672	0.000113
C31	C	1.134092	0.107474	0.000118
C32	C	1.226387	0.109095	0.000119
C33	C	0.975976	0.265581	0.000083
C34	C	0.977592	0.357877	0.000071
N35	N	0.982091	0.113580	0.346767
N36	N	0.982090	0.113565	-0.346562
C37	C	1.038642	0.057066	0.423432
C38	C	1.038640	0.057056	0.576769
C39	C	0.925533	0.170082	0.576761
C40	C	0.925532	0.170087	0.423427
C41	C	1.103946	-0.008187	0.423438
C42	C	1.103944	-0.008197	0.576775
H43	H	0.403440	0.112183	0.241037
C44	C	0.863321	0.232247	0.339088
C45	C	0.801151	0.294445	0.423408
C46	C	0.738937	0.356605	0.339067
C47	C	0.738892	0.356569	0.170406
C48	C	0.801064	0.294369	0.086076
C49	C	0.863278	0.232208	0.170418
H50	H	0.801183	0.294474	0.548270
H51	H	0.692914	0.402650	0.401494
H52	H	0.692837	0.402584	0.107971
H53	H	0.801033	0.294339	-0.038786
H54	H	0.909302	0.186163	0.107990
H55	H	0.560774	0.114942	0.241003
H56	H	1.120888	-0.325781	0.000120
C57	C	1.077390	-0.089537	0.641031
C58	C	1.054638	-0.159227	0.538114
C59	C	1.028082	-0.240563	0.602374
C60	C	1.024278	-0.252210	0.769551
C61	C	1.047031	-0.182517	0.872478
C62	C	1.073587	-0.101181	0.808219
H63	H	1.057453	-0.150607	0.414351
H64	H	1.011238	-0.292154	0.526179
H65	H	1.004619	-0.312420	0.817120
H66	H	1.044215	-0.191137	0.996242
H67	H	1.090430	-0.049591	0.884413
H68	H	0.846043	-0.289740	0.000075
C69	C	0.391011	0.111985	-0.278753
C70	C	0.340850	0.038787	-0.315263
C71	C	0.293149	0.037948	-0.461334
C72	C	0.295608	0.110308	-0.570894
C73	C	0.345771	0.183511	-0.534387
C74	C	0.393472	0.184349	-0.388317
H75	H	0.339028	-0.014783	-0.234157
H76	H	0.256015	-0.016242	-0.488358
H77	H	0.260296	0.109687	-0.679025
H78	H	0.347593	0.237081	-0.615493
H79	H	0.430606	0.238540	-0.361293
H80	H	1.164131	0.011526	0.375885
C81	C	0.573118	0.115181	-0.278771
C82	C	0.570639	0.042826	-0.388324
C83	C	0.618320	0.043668	-0.534406
C84	C	0.668478	0.116865	-0.570934
C85	C	0.670959	0.189225	-0.461378
C86	C	0.623279	0.188383	-0.315296
H87	H	0.533507	-0.011363	-0.361286
H88	H	0.616483	-0.009898	-0.615507
H89	H	0.703774	0.117488	-0.679073
H90	H	0.708091	0.243414	-0.488416
H91	H	0.625115	0.241949	-0.234195
H92	H	1.118121	-0.483098	0.000094
H93	H	0.843288	-0.447074	0.000067
C94	C	1.085538	-0.094346	0.367205
C95	C	1.144174	-0.173208	0.407954
C96	C	1.125765	-0.259364	0.351720
C97	C	1.048719	-0.266658	0.254739
C98	C	0.990078	-0.187793	0.213986
C99	C	1.008487	-0.101637	0.270219
H100	H	1.201212	-0.167811	0.479749
H101	H	1.169175	-0.317745	0.381889
H102	H	1.035092	-0.330436	0.213112
H103	H	0.933040	-0.193190	0.142190
H104	H	0.965077	-0.043256	0.240050
H105	H	0.879484	0.216088	0.639195
H106	H	1.167710	0.005480	0.618398
