data_functionalizedCrystal
_audit_creation_method	'MofGen! by Chris Wilmer'
_symmetry_space_group_name_H-M	'P1'
_symmetry_Int_Tables_number	1
_symmetry_cell_setting	triclinic
loop_
_symmetry_equiv_pos_as_xyz
  x,y,z
_cell_length_a	21.295417
_cell_length_b	18.215407
_cell_length_c	18.215399
_cell_angle_alpha	90.016824
_cell_angle_beta	89.965438
_cell_angle_gamma	89.969045
loop_
_atom_site_label
_atom_site_type_symbol
_atom_site_fract_x
_atom_site_fract_y
_atom_site_fract_z
Zn1	Zn	-0.250593	-1.125021	-0.416094
Zn2	Zn	0.249407	-0.625021	0.083906
Zn3	Zn	-0.355869	-1.124924	-0.293019
Zn4	Zn	0.144131	-0.624924	0.206981
Zn5	Zn	-0.250618	-1.001960	-0.293042
Zn6	Zn	0.249382	-0.501960	0.206958
Zn7	Zn	-0.355829	-1.001908	-0.416044
Zn8	Zn	0.144171	-0.501908	0.083956
O9	O	-0.303227	-1.063453	-0.354550
O10	O	0.196773	-0.563453	0.145450
O11	O	-0.264564	-1.227993	-0.399780
O12	O	0.235436	-0.727993	0.100220
O13	O	-0.341934	-1.108594	-0.190038
O14	O	0.158066	-0.608594	0.309962
O15	O	-0.162525	-1.018347	-0.309396
O16	O	0.337475	-0.518347	0.190604
O17	O	-0.341910	-1.227921	-0.309357
O18	O	0.158090	-0.727921	0.190643
O19	O	-0.162507	-1.108760	-0.399802
O20	O	0.337493	-0.608760	0.100198
O21	O	-0.264607	-1.018253	-0.190054
O22	O	0.235393	-0.518253	0.309946
O23	O	-0.264569	-0.898969	-0.309347
O24	O	0.235431	-0.398969	0.190653
O25	O	-0.341843	-1.018258	-0.519035
O26	O	0.158157	-0.518258	-0.019035
O27	O	-0.341867	-0.898930	-0.399716
O28	O	0.158133	-0.398930	0.100284
O29	O	-0.264526	-1.108709	-0.519072
O30	O	0.235474	-0.608709	-0.019072
O31	O	-0.443953	-1.108543	-0.309308
O32	O	0.056047	-0.608543	0.190692
O33	O	-0.443924	-1.018163	-0.399694
O34	O	0.056076	-0.518163	0.100306
C35	C	-0.303217	-0.872247	-0.354529
C36	C	0.196783	-0.372247	0.145471
C37	C	-0.303227	-0.790448	-0.354537
C38	C	0.196773	-0.290448	0.145463
C39	C	-0.466779	-1.063357	-0.354509
C40	C	0.033221	-0.563357	0.145491
C41	C	-0.536747	-1.063383	-0.354516
C42	C	-0.036747	-0.563383	0.145484
C43	C	-0.303177	-1.063488	-0.546503
C44	C	0.196823	-0.563488	-0.046503
C45	C	-0.303156	-1.063503	-0.628302
C46	C	0.196844	-0.563503	-0.128302
C47	C	-0.569608	-1.110485	-0.307500
C48	C	-0.069608	-0.610485	0.192500
C49	C	-0.635350	-1.110520	-0.307517
C50	C	-0.135350	-0.610520	0.192483
C51	C	-0.668230	-1.063439	-0.354542
C52	C	-0.168230	-0.563439	0.145458
C53	C	-0.635361	-1.016333	-0.401566
C54	C	-0.135361	-0.516333	0.098434
C55	C	-0.569620	-1.016305	-0.401554
C56	C	-0.069620	-0.516305	0.098446
N57	N	-0.771496	-0.999060	-0.360145
N58	N	-0.271496	-0.499060	0.139855
N59	N	-0.833947	-0.999088	-0.360153
N60	N	-0.333947	-0.499088	0.139847
C61	C	-0.866304	-1.063521	-0.354584
C62	C	-0.366304	-0.563521	0.145416
N63	N	-0.833851	-1.127926	-0.348993
N64	N	-0.333851	-0.627926	0.151007
N65	N	-0.771394	-1.127896	-0.348981
N66	N	-0.271394	-0.627896	0.151019
C67	C	-0.739515	-1.063464	-0.354561
C68	C	-0.239515	-0.563464	0.145439
C69	C	-0.970451	-1.110665	-0.307584
C70	C	-0.470451	-0.610665	0.192416
C71	C	-1.036194	-1.110701	-0.307605
C72	C	-0.536194	-0.610701	0.192395
C73	C	-1.036203	-1.016507	-0.401651
C74	C	-0.536203	-0.516507	0.098349
C75	C	-0.970461	-1.016478	-0.401633
C76	C	-0.470461	-0.516478	0.098367
C77	C	-0.937589	-1.063556	-0.354595
C78	C	-0.437589	-0.563556	0.145405
C79	C	-0.139037	-1.063570	-0.354607
C80	C	0.360963	-0.563570	0.145393
C81	C	-0.069069	-1.063620	-0.354631
C82	C	0.430931	-0.563620	0.145369
C83	C	-0.303239	-1.255406	-0.354571
C84	C	0.196761	-0.755406	0.145429
C85	C	-0.303243	-1.337205	-0.354581
C86	C	0.196757	-0.837205	0.145419
C87	C	-0.343540	-0.602253	-0.401533
C88	C	0.156460	-0.102253	0.098467
C89	C	-0.343542	-0.525395	-0.401542
C90	C	0.156458	-0.025395	0.098458
C91	C	-0.262927	-0.525405	-0.307582
C92	C	0.237073	-0.025405	0.192418
C93	C	-0.262922	-0.602263	-0.307577
C94	C	0.237078	-0.102263	0.192423
C95	C	-0.303232	-0.640685	-0.354552
C96	C	0.196768	-0.140685	0.145448
C97	C	-0.303239	-0.486969	-0.354566
C98	C	0.196761	0.013031	0.145434
C99	C	-0.303240	-0.403635	-0.354575
C100	C	0.196760	0.096365	0.145425
C101	C	-0.303229	-0.724024	-0.354543
C102	C	0.196771	-0.224024	0.145457
C103	C	-0.262864	-1.016502	-0.816505
C104	C	0.237136	-0.516502	-0.316505
C105	C	-0.262852	-1.016515	-0.893364
C106	C	0.237148	-0.516515	-0.393364
C107	C	-0.343372	-1.110592	-0.893336
C108	C	0.156628	-0.610592	-0.393336
C109	C	-0.343387	-1.110575	-0.816479
C110	C	0.156613	-0.610575	-0.316479
C111	C	-0.303130	-1.063531	-0.778065
C112	C	0.196870	-0.563531	-0.278065
C113	C	-0.303102	-1.063561	-0.931781
C114	C	0.196898	-0.563561	-0.431781
C115	C	-0.303088	-1.063575	-1.015115
C116	C	0.196912	-0.563575	-0.515115
C117	C	-0.303144	-1.063516	-0.694726
C118	C	0.196856	-0.563516	-0.194726
C119	C	-0.303232	-1.063461	-0.163344
C120	C	0.196768	-0.563461	0.336656
C121	C	-0.303076	-1.063589	-0.081545
C122	C	0.196924	-0.563589	0.418455
H123	H	-0.542845	-1.148821	-0.269202
H124	H	-0.042845	-0.648821	0.230798
H125	H	-0.376179	-1.148873	-0.785180
H126	H	0.123821	-0.648873	-0.285180
H127	H	-0.376363	-0.494107	-0.439801
H128	H	0.123637	0.005893	0.060199
H129	H	-0.943685	-1.149001	-0.269285
H130	H	-0.443685	-0.649001	0.230715
H131	H	-0.376361	-0.633534	-0.439785
H132	H	0.123639	-0.133534	0.060215
H133	H	-1.062949	-1.149062	-0.269321
H134	H	-0.562949	-0.649062	0.230679
H135	H	-0.230108	-0.494113	-0.269336
H136	H	0.269892	0.005887	0.230664
H137	H	-0.230095	-0.633554	-0.269319
H138	H	0.269905	-0.133554	0.230681
H139	H	-1.062973	-0.978176	-0.439942
H140	H	-0.562973	-0.478176	0.060058
H141	H	-0.230084	-0.978196	-0.785231
H142	H	0.269916	-0.478196	-0.285231
H143	H	-0.943704	-0.978120	-0.439914
H144	H	-0.443704	-0.478120	0.060086
H145	H	-0.376148	-1.148894	-0.924622
H146	H	0.123852	-0.648894	-0.424622
H147	H	-0.662111	-1.148879	-0.269231
H148	H	-0.162111	-0.648879	0.230769
H149	H	-0.662135	-0.978001	-0.439855
H150	H	-0.162135	-0.478001	0.060145
H151	H	-0.542864	-0.977948	-0.439840
H152	H	-0.042864	-0.477948	0.060160
H153	H	-0.230064	-0.978219	-0.924659
H154	H	0.269936	-0.478219	-0.424659
