data_functionalizedCrystal
_audit_creation_method	'MofGen! by Chris Wilmer'
_symmetry_space_group_name_H-M	'P1'
_symmetry_Int_Tables_number	1
_symmetry_cell_setting	triclinic
loop_
_symmetry_equiv_pos_as_xyz
  x,y,z
_cell_length_a	19.288867
_cell_length_b	9.130313
_cell_length_c	10.654550
_cell_angle_alpha	90.003751
_cell_angle_beta	83.811000
_cell_angle_gamma	90.001289
loop_
_atom_site_label
_atom_site_type_symbol
_atom_site_fract_x
_atom_site_fract_y
_atom_site_fract_z
O1	O	0.922372	0.121748	0.156666
O2	O	1.422372	0.621748	0.656666
O3	O	0.720249	0.121762	0.177796
O4	O	1.220249	0.621762	0.677796
O5	O	0.825958	0.121745	-0.015608
O6	O	1.325958	0.621745	0.484392
O7	O	0.816663	0.121764	0.350069
O8	O	1.316663	0.621764	0.850069
O9	O	0.825952	-0.121854	-0.015612
O10	O	1.325952	0.378146	0.484388
O11	O	0.720244	-0.121837	0.177792
O12	O	1.220244	0.378163	0.677792
O13	O	0.922366	-0.121851	0.156662
O14	O	1.422366	0.378149	0.656662
Cu15	Cu	0.821304	-0.144087	0.167227
Cu16	Cu	1.321304	0.355913	0.667227
Cu17	Cu	0.821311	0.143997	0.167231
Cu18	Cu	1.321311	0.643997	0.667231
O19	O	0.816657	-0.121835	0.350066
O20	O	1.316657	0.378165	0.850066
C21	C	0.694366	-0.000036	0.177114
C22	C	1.194366	0.499964	0.677114
C23	C	0.617249	-0.000031	0.175071
C24	C	1.117249	0.499969	0.675071
C25	C	0.825272	-0.000053	-0.062393
C26	C	1.325272	0.499947	0.437607
C27	C	0.823230	-0.000051	-0.201793
C28	C	1.323230	0.499949	0.298207
C29	C	0.061590	0.132737	0.160363
C30	C	0.561590	0.632737	0.660363
C31	C	0.134050	0.132743	0.162275
C32	C	0.634050	0.632743	0.662275
C33	C	0.170282	-0.000042	0.163234
C34	C	0.670282	0.499958	0.663234
C35	C	0.134050	-0.132843	0.162250
C36	C	0.634050	0.367157	0.662250
C37	C	0.061592	-0.132845	0.160326
C38	C	0.561592	0.367155	0.660326
C39	C	0.280108	-0.101769	0.239831
C40	C	0.780108	0.398231	0.739831
C41	C	0.352564	-0.101762	0.241763
C42	C	0.852564	0.398238	0.741763
C43	C	0.393766	-0.000042	0.169163
C44	C	0.893766	0.499958	0.669163
C45	C	0.362503	0.101694	0.094647
C46	C	0.862503	0.601694	0.594647
C47	C	0.290045	0.101693	0.092723
C48	C	0.790045	0.601693	0.592723
C49	C	0.248850	-0.000055	0.165320
C50	C	0.748850	0.499945	0.665320
C51	C	0.508560	0.132756	0.172210
C52	C	1.008560	0.632756	0.672210
C53	C	0.581022	0.132756	0.174114
C54	C	1.081022	0.632756	0.674114
C55	C	0.581019	-0.132834	0.174102
C56	C	1.081019	0.367166	0.674102
C57	C	0.508559	-0.132830	0.172186
C58	C	1.008559	0.367170	0.672186
C59	C	0.472334	-0.000031	0.171246
C60	C	0.972334	0.499969	0.671246
C61	C	0.948249	-0.000050	0.157344
C62	C	1.448249	0.499950	0.657344
C63	C	1.025366	-0.000046	0.159386
C64	C	1.525366	0.499954	0.659386
N65	N	0.821304	-0.346709	0.167223
N66	N	1.321304	0.153291	0.667223
C67	C	0.868131	-0.576715	0.081615
C68	C	1.368131	-0.076715	0.581615
C69	C	0.868127	-0.423378	0.081617
C70	C	1.368127	0.076622	0.581617
C71	C	0.774487	-0.423385	0.252842
C72	C	1.274487	0.076615	0.752842
C73	C	0.774495	-0.576719	0.252845
C74	C	1.274495	-0.076719	0.752845
N75	N	0.821316	0.346620	0.167225
N76	N	1.321316	0.846620	0.667225
C77	C	0.885470	-0.000055	-0.282610
C78	C	1.385470	0.499945	0.217390
C79	C	0.883547	-0.000037	-0.413589
C80	C	1.383547	0.499963	0.086411
C81	C	0.757140	-0.000017	-0.382922
C82	C	1.257140	0.499983	0.117078
C83	C	0.759064	-0.000025	-0.251945
C84	C	1.259064	0.499975	0.248055
C85	C	0.817343	-0.000033	0.396851
C86	C	1.317343	0.499967	0.896851
C87	C	0.819385	-0.000026	0.536250
C88	C	1.319385	0.499974	1.036250
H89	H	0.163549	0.240874	0.163077
H90	H	0.663549	0.740874	0.663077
H91	H	0.736373	-0.639144	0.322564
H92	H	1.236373	-0.139144	0.822564
H93	H	0.906248	-0.360962	0.011908
H94	H	1.406248	0.139038	0.511908
N95	N	0.723987	-0.340700	0.345180
N96	N	1.223987	0.159300	0.845180
H97	H	0.731083	-0.231930	0.332186
H98	H	1.231083	0.268070	0.832186
H99	H	0.674650	-0.367523	0.330895
H100	H	1.174650	0.132477	0.830895
H101	H	0.937718	-0.000073	-0.241781
H102	H	1.437718	0.499927	0.258219
N103	N	0.235672	-0.211487	0.318143
N104	N	0.735672	0.288513	0.818143
H105	H	0.209416	-0.274069	0.260999
H106	H	0.709416	0.225931	0.760999
H107	H	0.266515	-0.275824	0.365636
H108	H	0.766515	0.224176	0.865636
N109	N	0.469491	0.275989	0.171173
N110	N	0.969491	0.775989	0.671173
H111	H	0.444683	0.281902	0.092548
H112	H	0.944683	0.781902	0.592548
H113	H	0.434210	0.281835	0.248259
H114	H	0.934210	0.781835	0.748259
H115	H	0.934229	-0.000037	-0.479387
H116	H	1.434229	0.499963	0.020613
H117	H	0.708378	-0.000017	-0.186140
H118	H	1.208378	0.499983	0.313860
N119	N	0.687935	0.000004	-0.437016
N120	N	1.187935	0.500004	0.062984
H121	H	0.696159	0.000003	-0.532253
H122	H	1.196159	0.500003	-0.032253
H123	H	0.660669	-0.090299	-0.407431
H124	H	1.160669	0.409701	0.092569
H125	H	0.032100	0.240873	0.159593
H126	H	0.532100	0.740873	0.659593
H127	H	0.264593	0.184528	0.032047
H128	H	0.764593	0.684528	0.532047
H129	H	0.396048	0.184528	0.035532
H130	H	0.896048	0.684528	0.535532
N131	N	0.620090	0.275988	0.175153
N132	N	1.120090	0.775988	0.675153
H133	H	0.602226	0.334036	0.252654
H134	H	1.102226	0.834036	0.752654
H135	H	0.671481	0.255730	0.176456
H136	H	1.171481	0.755730	0.676456
N137	N	0.620088	-0.276057	0.175123
N138	N	1.120088	0.223943	0.675123
H139	H	0.671487	-0.255909	0.176486
H140	H	1.171487	0.244091	0.676486
H141	H	0.602167	-0.334047	0.252614
H142	H	1.102167	0.165953	0.752614
H143	H	0.479065	-0.240957	0.171395
H144	H	0.979065	0.259043	0.671395
N145	N	0.386272	-0.211489	0.322139
N146	N	0.886272	0.288511	0.822139
H147	H	0.375517	-0.314000	0.294325
H148	H	0.875517	0.186000	0.794325
H149	H	0.438415	-0.195931	0.312326
H150	H	0.938415	0.304069	0.812326
N151	N	0.173120	-0.276066	0.163298
N152	N	0.673120	0.223934	0.663298
H153	H	0.165770	-0.334122	0.085131
H154	H	0.665770	0.165878	0.585131
H155	H	0.224503	-0.255800	0.164719
H156	H	0.724503	0.244200	0.664719
N157	N	0.022518	-0.276068	0.159271
N158	N	0.522518	0.223932	0.659271
H159	H	0.056520	-0.360186	0.159296
H160	H	0.556520	0.139814	0.659296
H161	H	-0.012472	-0.282292	0.236746
H162	H	0.487528	0.217708	0.736746
N163	N	0.918634	-0.659403	-0.010716
N164	N	1.418634	-0.159403	0.489284
H165	H	0.948292	-0.587563	-0.064943
H166	H	1.448292	-0.087563	0.435057
H167	H	0.949569	-0.723003	0.037233
H168	H	1.449569	-0.223003	0.537233
