data_functionalizedCrystal
_audit_creation_method	'MofGen! by Chris Wilmer'
_symmetry_space_group_name_H-M	'P1'
_symmetry_Int_Tables_number	1
_symmetry_cell_setting	triclinic
loop_
_symmetry_equiv_pos_as_xyz
  x,y,z
_cell_length_a	19.077236
_cell_length_b	14.908178
_cell_length_c	19.076919
_cell_angle_alpha	91.159747
_cell_angle_beta	90.112677
_cell_angle_gamma	95.467067
loop_
_atom_site_label
_atom_site_type_symbol
_atom_site_fract_x
_atom_site_fract_y
_atom_site_fract_z
Zn1	Zn	1.044195	-0.327444	0.425224
Zn2	Zn	1.042613	-0.472002	0.300956
Zn3	Zn	0.931431	-0.326971	0.303027
Zn4	Zn	0.919914	-0.484036	0.413131
O5	O	0.984538	-0.402613	0.360584
O6	O	1.142528	-0.341781	0.412934
O7	O	1.032022	-0.447529	0.203144
O8	O	0.951872	-0.200803	0.325164
O9	O	1.141364	-0.447988	0.321635
O10	O	1.034720	-0.201150	0.414943
O11	O	0.950338	-0.340975	0.204666
O12	O	0.831362	-0.352644	0.313438
O13	O	0.932242	-0.468498	0.512821
O14	O	0.822900	-0.468040	0.394331
O15	O	1.023552	-0.353450	0.521706
O16	O	1.020854	-0.599829	0.309908
O17	O	0.930707	-0.608671	0.392322
C18	C	0.801580	-0.411597	0.352797
C19	C	0.723308	-0.415463	0.349481
C20	C	0.687134	-0.362079	0.395522
C21	C	0.613590	-0.365706	0.392401
C22	C	0.576219	-0.422724	0.343241
C23	C	0.612398	-0.476111	0.297195
C24	C	0.685941	-0.472478	0.300314
C25	C	0.356204	-0.439505	0.328807
C26	C	0.282655	-0.443136	0.325693
C27	C	0.283852	-0.332730	0.420898
C28	C	0.357397	-0.329106	0.424015
C29	C	0.393569	-0.382489	0.377967
N30	N	0.501045	-0.426436	0.340051
N31	N	0.468742	-0.378772	0.381155
C32	C	0.974377	-0.636980	0.349594
C33	C	0.970094	-0.737241	0.344919
C34	C	1.048241	-0.925863	0.429712
C35	C	1.044219	-1.020068	0.425322
C36	C	0.958023	-1.019857	0.331751
C37	C	0.962046	-0.925652	0.336142
C38	C	1.007157	-0.878659	0.385123
C39	C	1.011183	-0.784452	0.389510
C40	C	0.924984	-0.784243	0.295943
C41	C	0.920962	-0.878448	0.291552
C42	C	1.168211	-0.393595	0.368402
C43	C	1.246482	-0.389752	0.371734
C44	C	0.976789	-0.412369	0.543407
C45	C	0.973486	-0.416527	0.621315
C46	C	0.994757	-0.167331	0.371634
C47	C	0.999112	-0.067068	0.376342
C48	C	0.992301	-0.392828	0.178477
C49	C	0.995751	-0.388409	0.100587
C50	C	1.019472	-0.358584	0.662544
C51	C	1.016361	-0.362487	0.735747
C52	C	0.967266	-0.424339	0.767720
C53	C	0.921276	-0.482285	0.726486
C54	C	0.924384	-0.478376	0.653284
C55	C	0.952869	-0.442447	0.986152
C56	C	0.949765	-0.446353	1.059359
C57	C	1.044850	-0.326553	1.068615
C58	C	1.047957	-0.322654	0.995411
C59	C	1.001964	-0.380597	0.954184
N60	N	0.964086	-0.428332	0.842545
N61	N	1.005141	-0.376598	0.879361
H62	H	0.252230	-0.489571	0.285660
H63	H	0.385646	-0.482974	0.291311
H64	H	0.921293	-1.058135	0.291876
Cl65	Cl	1.095868	-1.079408	0.481381
Cl66	Cl	0.866569	-0.551220	0.601454
Cl67	Cl	1.067895	-0.725376	0.451084
H68	H	0.584141	-0.322237	0.429894
H69	H	0.884232	-0.916723	0.251675
Cl70	Cl	1.074204	-0.289678	0.787573
H71	H	1.059452	-0.308220	0.636517
Cl72	Cl	0.565418	-0.547786	0.235390
H73	H	0.881299	-0.532643	0.752524
Cl74	Cl	0.873338	-0.724895	0.239879
Cl75	Cl	0.238375	-0.265622	0.478782
Cl76	Cl	0.734107	-0.290399	0.457330
H77	H	0.715393	-0.515948	0.262821
Cl78	Cl	1.109678	-0.244895	0.955222
Cl79	Cl	1.102663	-0.253713	1.120447
H80	H	0.909784	-0.496722	1.085389
Cl81	Cl	1.104959	-0.866782	0.491279
H82	H	0.915427	-0.489641	0.952593
H83	H	0.387819	-0.282680	0.464049
