data_functionalizedCrystal
_audit_creation_method	'MofGen! by Chris Wilmer'
_symmetry_space_group_name_H-M	'P1'
_symmetry_Int_Tables_number	1
_symmetry_cell_setting	triclinic
loop_
_symmetry_equiv_pos_as_xyz
  x,y,z
_cell_length_a	21.395364
_cell_length_b	18.050589
_cell_length_c	21.395355
_cell_angle_alpha	90.012701
_cell_angle_beta	89.975484
_cell_angle_gamma	89.969537
loop_
_atom_site_label
_atom_site_type_symbol
_atom_site_fract_x
_atom_site_fract_y
_atom_site_fract_z
Zn1	Zn	0.957842	0.295829	-0.354286
Zn2	Zn	1.291175	0.629163	-0.020953
Zn3	Zn	1.624508	0.962496	0.312381
Zn4	Zn	0.957737	0.420001	-0.249519
Zn5	Zn	1.291070	0.753335	0.083814
Zn6	Zn	1.624403	1.086668	0.417147
Zn7	Zn	0.853057	0.295820	-0.249523
Zn8	Zn	1.186390	0.629154	0.083810
Zn9	Zn	1.519723	0.962487	0.417144
Zn10	Zn	0.853019	0.419973	-0.354259
Zn11	Zn	1.186352	0.753306	-0.020926
Zn12	Zn	1.519685	1.086640	0.312407
O13	O	0.905413	0.357906	-0.301897
O14	O	1.238747	0.691239	0.031436
O15	O	1.572080	1.024573	0.364770
O16	O	1.045506	0.312317	-0.340398
O17	O	1.378839	0.645650	-0.007065
O18	O	1.712172	0.978983	0.326269
O19	O	0.943823	0.403536	-0.161842
O20	O	1.277156	0.736870	0.171492
O21	O	1.610490	1.070203	0.504825
O22	O	0.867016	0.191897	-0.263433
O23	O	1.200350	0.525230	0.069901
O24	O	1.533683	0.858564	0.403234
O25	O	1.045429	0.403545	-0.263426
O26	O	1.378762	0.736879	0.069907
O27	O	1.712095	1.070212	0.403240
O28	O	0.944001	0.191904	-0.340402
O29	O	1.277335	0.525237	-0.007068
O30	O	1.610668	0.858570	0.326265
O31	O	0.866915	0.312301	-0.161844
O32	O	1.200248	0.645635	0.171489
O33	O	1.533581	0.978968	0.504822
O34	O	0.765374	0.312274	-0.263407
O35	O	1.098707	0.645607	0.069927
O36	O	1.432040	0.978941	0.403260
O37	O	0.866951	0.403497	-0.441941
O38	O	1.200285	0.736830	-0.108608
O39	O	1.533618	1.070164	0.224726
O40	O	0.765346	0.403488	-0.340356
O41	O	1.098679	0.736822	-0.007023
O42	O	1.432012	1.070155	0.326310
O43	O	0.943965	0.312289	-0.441960
O44	O	1.277298	0.645623	-0.108627
O45	O	1.610631	0.978956	0.224706
O46	O	0.943786	0.523922	-0.263401
O47	O	1.277119	0.857255	0.069933
O48	O	1.610453	1.190589	0.403266
O49	O	0.866850	0.523901	-0.340353
O50	O	1.200183	0.857235	-0.007019
O51	O	1.533516	1.190568	0.326314
C52	C	0.742626	0.357878	-0.301879
C53	C	1.075959	0.691211	0.031454
C54	C	1.409292	1.024544	0.364787
C55	C	0.672985	0.357883	-0.301887
C56	C	1.006318	0.691217	0.031446
C57	C	1.339651	1.024550	0.364780
C58	C	0.171228	0.310515	-0.342050
C59	C	0.504561	0.643849	-0.008717
C60	C	0.837894	0.977182	0.324616
C61	C	0.236663	0.310510	-0.342050
C62	C	0.569997	0.643843	-0.008717
C63	C	0.903330	0.977177	0.324617
C64	C	0.269346	0.357929	-0.301911
C65	C	0.602680	0.691262	0.031422
C66	C	0.936013	1.024595	0.364756
C67	C	0.236588	0.405370	-0.261780
C68	C	0.569922	0.738703	0.071553
C69	C	0.903255	1.072037	0.404886
C70	C	0.171154	0.405379	-0.261786
C71	C	0.504488	0.738713	0.071547
C72	C	0.837821	1.072046	0.404881
C73	C	0.372982	0.363679	-0.245444
C74	C	0.706316	0.697013	0.087889
C75	C	1.039649	1.030346	0.421222
C76	C	0.438415	0.363665	-0.245438
C77	C	0.771749	0.696998	0.087896
C78	C	1.105082	1.030332	0.421229
C79	C	0.471167	0.357904	-0.301894
C80	C	0.804500	0.691237	0.031440
C81	C	1.137834	1.024571	0.364773
C82	C	0.438478	0.352142	-0.358358
C83	C	0.771811	0.685475	-0.025025
C84	C	1.105144	1.018809	0.308308
C85	C	0.373043	0.352152	-0.358364
C86	C	0.706377	0.685485	-0.025031
C87	C	1.039710	1.018818	0.308303
C88	C	0.340299	0.357924	-0.301901
C89	C	0.673632	0.691257	0.031433
C90	C	1.006965	1.024591	0.364766
C91	C	0.574869	0.310463	-0.342025
C92	C	0.908203	0.643797	-0.008691
C93	C	1.241536	0.977130	0.324642
C94	C	0.640306	0.310463	-0.342026
C95	C	0.973639	0.643796	-0.008692
C96	C	1.306973	0.977130	0.324641
C97	C	0.640230	0.405319	-0.261750
C98	C	0.973563	0.738653	0.071583
C99	C	1.306897	1.071986	0.404916
C100	C	0.574795	0.405323	-0.261755
C101	C	0.908128	0.738657	0.071578
C102	C	1.241461	1.071990	0.404912
C103	C	0.542118	0.357892	-0.301891
C104	C	0.875452	0.691225	0.031442
C105	C	1.208785	1.024558	0.364775
C106	C	0.905319	0.550858	-0.301887
C107	C	1.238653	0.884191	0.031446
C108	C	1.571986	1.217525	0.364780
C109	C	0.905336	0.633404	-0.301904
C110	C	1.238670	0.966737	0.031429
C111	C	1.572003	1.300071	0.364763
C112	C	0.863521	0.832870	-0.343736
C113	C	1.196854	1.166204	-0.010403
C114	C	1.530187	1.499537	0.322930
C115	C	0.848238	0.882297	-0.286563
C116	C	1.181571	1.215630	0.046770
C117	C	1.514904	1.548963	0.380103
C118	C	0.905384	0.784534	-0.301912
C119	C	1.238717	1.117868	0.031421
C120	C	1.572050	1.451201	0.364754
C121	C	0.920683	0.882190	-0.359092
C122	C	1.254017	1.215523	-0.025759
C123	C	1.587350	1.548856	0.307574
C124	C	0.905428	0.930519	-0.301926
C125	C	1.238761	1.263853	0.031408
C126	C	1.572095	1.597186	0.364741
C127	C	0.890071	0.832873	-0.244709
C128	C	1.223404	1.166207	0.088624
C129	C	1.556737	1.499540	0.421957
C130	C	0.962543	0.832762	-0.317277
C131	C	1.295876	1.166095	0.016057
C132	C	1.629209	1.499429	0.349390
C133	C	0.947282	0.882166	-0.260064
C134	C	1.280615	1.215499	0.073269
C135	C	1.613948	1.548833	0.406602
C136	C	0.905356	0.700436	-0.301906
C137	C	1.238690	1.033769	0.031428
C138	C	1.572023	1.367103	0.364761
C139	C	0.905455	1.014616	-0.301926
C140	C	1.238789	1.347949	0.031407
C141	C	1.572122	1.681283	0.364740
C142	C	1.068837	0.357935	-0.301915
C143	C	1.402170	0.691268	0.031418
C144	C	1.735503	1.024602	0.364752
C145	C	1.138478	0.357948	-0.301922
C146	C	1.471811	0.691281	0.031411
C147	C	1.805145	1.024614	0.364744
C148	C	0.905501	1.164200	-0.301921
C149	C	1.238834	1.497534	0.031412
C150	C	1.572168	1.830867	0.364745
C151	C	0.905477	1.081655	-0.301934
C152	C	1.238810	1.414988	0.031400
C153	C	1.572144	1.748321	0.364733
C154	C	0.905465	0.357891	-0.465320
C155	C	1.238799	0.691224	-0.131987
C156	C	1.572132	1.024558	0.201346
C157	C	0.905488	0.357885	-0.534962
C158	C	1.238821	0.691218	-0.201628
C159	C	1.572154	1.024551	0.131705
C160	C	0.945587	0.310391	-0.567686
C161	C	1.278920	0.643724	-0.234353
C162	C	1.612253	0.977057	0.098981
C163	C	0.945586	0.310359	-0.633121
C164	C	1.278919	0.643692	-0.299788
C165	C	1.612252	0.977025	0.033545
C166	C	0.905492	0.357834	-0.665830
C167	C	1.238826	0.691167	-0.332497
C168	C	1.572159	1.024501	0.000837
C169	C	0.865386	0.405331	-0.633098
C170	C	1.198719	0.738664	-0.299764
C171	C	1.532052	1.071998	0.033569
C172	C	0.865383	0.405356	-0.567664
C173	C	1.198717	0.738690	-0.234330
C174	C	1.532050	1.072023	0.099003
C175	C	0.900513	0.424703	-0.769501
C176	C	1.233846	0.758036	-0.436168
C177	C	1.567179	1.091369	-0.102835
C178	C	0.900519	0.424679	-0.834934
C179	C	1.233853	0.758012	-0.501601
C180	C	1.567186	1.091345	-0.168268
C181	C	0.905496	0.357755	-0.867651
C182	C	1.238830	0.691089	-0.534317
C183	C	1.572163	1.024422	-0.200984
C184	C	0.910480	0.290854	-0.834926
C185	C	1.243813	0.624188	-0.501593
C186	C	1.577146	0.957521	-0.168260
C187	C	0.910477	0.290880	-0.769492
C188	C	1.243810	0.624213	-0.436159
C189	C	1.577144	0.957546	-0.102825
C190	C	0.905490	0.357811	-0.736782
C191	C	1.238824	0.691145	-0.403449
C192	C	1.572157	1.024478	-0.070116
C193	C	0.945597	0.310223	-0.971328
C194	C	1.278930	0.643556	-0.637994
C195	C	1.612263	0.976890	-0.304661
C196	C	0.945591	0.310190	-1.036764
C197	C	1.278925	0.643523	-0.703431
C198	C	1.612258	0.976856	-0.370098
C199	C	0.865395	0.405169	-1.036740
C200	C	1.198728	0.738502	-0.703406
C201	C	1.532061	1.071835	-0.370073
C202	C	0.865397	0.405195	-0.971304
C203	C	1.198730	0.738529	-0.637971
C204	C	1.532063	1.071862	-0.304637
C205	C	0.905501	0.357723	-0.938602
C206	C	1.238834	0.691057	-0.605269
C207	C	1.572168	1.024390	-0.271935
C208	C	0.905398	0.357867	-0.139109
C209	C	1.238731	0.691201	0.194224
C210	C	1.572064	1.024534	0.527557
C211	C	0.905497	0.357665	-0.069468
C212	C	1.238830	0.690998	0.263865
C213	C	1.572164	1.024331	0.597198
H214	H	0.465143	0.347447	-0.404330
H215	H	0.798476	0.680780	-0.070997
H216	H	1.131809	1.014114	0.262336
H217	H	0.914533	0.236407	-0.742851
H218	H	1.247866	0.569740	-0.409517
H219	H	1.581200	0.903073	-0.076184
H220	H	0.666970	0.271840	-0.374707
H221	H	1.000303	0.605174	-0.041374
H222	H	1.333637	0.938507	0.291960
H223	H	0.933606	0.903852	-0.407444
H224	H	1.266940	1.237185	-0.074110
H225	H	1.600273	1.570519	0.259223
H226	H	0.914533	0.236359	-0.861563
H227	H	1.247867	0.569693	-0.528229
H228	H	1.581200	0.903026	-0.194896
H229	H	0.144627	0.271896	-0.374735
H230	H	0.477960	0.605229	-0.041402
H231	H	0.811293	0.938562	0.291932
H232	H	0.982703	0.903675	-0.224660
H233	H	1.316036	1.237008	0.108673
H234	H	1.649369	1.570342	0.442007
H235	H	0.263333	0.271882	-0.374726
H236	H	0.596667	0.605215	-0.041393
H237	H	0.930000	0.938548	0.291940
H238	H	0.548129	0.443945	-0.229076
H239	H	0.881463	0.777278	0.104258
H240	H	1.214796	1.110611	0.437591
H241	H	0.896292	0.479185	-0.742869
H242	H	1.229626	0.812519	-0.409536
H243	H	1.562959	1.145852	-0.076202
H244	H	0.144490	0.444006	-0.229108
H245	H	0.477823	0.777339	0.104225
H246	H	0.811156	1.110673	0.437558
H247	H	0.832747	0.443874	-0.944660
H248	H	1.166081	0.777208	-0.611326
H249	H	1.499414	1.110541	-0.277993
H250	H	0.832740	0.443983	-0.659733
H251	H	1.166073	0.777317	-0.326400
H252	H	1.499406	1.110650	0.006933
H253	H	0.828073	0.811224	-0.379055
H254	H	1.161406	1.144557	-0.045722
H255	H	1.494739	1.477891	0.287611
H256	H	0.799921	0.904071	-0.273580
H257	H	1.133255	1.237404	0.059753
H258	H	1.466588	1.570738	0.393087
H259	H	0.465026	0.368352	-0.199460
H260	H	0.798359	0.701685	0.133873
H261	H	1.131693	1.035019	0.467206
H262	H	0.832743	0.443816	-1.063370
H263	H	1.166077	0.777150	-0.730037
H264	H	1.499410	1.110483	-0.396704
H265	H	0.548263	0.271841	-0.374706
H266	H	0.881596	0.605175	-0.041373
H267	H	1.214930	0.938508	0.291961
H268	H	1.010848	0.810990	-0.330287
H269	H	1.344181	1.144323	0.003046
H270	H	1.677515	1.477656	0.336379
H271	H	0.877092	0.811301	-0.196345
H272	H	1.210425	1.144634	0.136988
H273	H	1.543758	1.477967	0.470322
H274	H	0.346321	0.368374	-0.199468
H275	H	0.679655	0.701707	0.133866
H276	H	1.012988	1.035040	0.467199
H277	H	0.978244	0.271510	-1.063407
H278	H	1.311577	0.604844	-0.730074
H279	H	1.644910	0.938177	-0.396741
H280	H	0.978242	0.271734	-0.541064
H281	H	1.311575	0.605068	-0.207731
H282	H	1.644909	0.938401	0.125603
H283	H	0.263203	0.443981	-0.229100
H284	H	0.596536	0.777314	0.104233
H285	H	0.929870	1.110647	0.437566
H286	H	0.832727	0.444031	-0.541020
H287	H	1.166060	0.777364	-0.207686
H288	H	1.499394	1.110697	0.125647
H289	H	0.978248	0.271564	-0.944700
H290	H	1.311582	0.604898	-0.611367
H291	H	1.644915	0.938231	-0.278034
H292	H	0.896466	0.479153	-0.861573
H293	H	1.229799	0.812487	-0.528240
H294	H	1.563132	1.145820	-0.194907
H295	H	0.346430	0.347462	-0.404340
H296	H	0.679764	0.680795	-0.071006
H297	H	1.013097	1.014128	0.262327
H298	H	0.666840	0.443934	-0.229073
H299	H	1.000173	0.777268	0.104260
H300	H	1.333506	1.110601	0.437594
H301	H	0.978238	0.271680	-0.659771
H302	H	1.311571	0.605013	-0.326437
H303	H	1.644904	0.938346	0.006896
