data_functionalizedCrystal
_audit_creation_method	'MofGen! by Chris Wilmer'
_symmetry_space_group_name_H-M	'P1'
_symmetry_Int_Tables_number	1
_symmetry_cell_setting	triclinic
loop_
_symmetry_equiv_pos_as_xyz
  x,y,z
_cell_length_a	9.065218
_cell_length_b	14.853559
_cell_length_c	8.140239
_cell_angle_alpha	89.998672
_cell_angle_beta	89.997198
_cell_angle_gamma	84.323670
loop_
_atom_site_label
_atom_site_type_symbol
_atom_site_fract_x
_atom_site_fract_y
_atom_site_fract_z
O1	O	1.957771	0.132191	-0.136609
O2	O	1.528271	0.143034	-0.136610
O3	O	1.754500	0.006468	-0.136608
O4	O	1.731542	0.268758	-0.136611
O5	O	1.754488	0.006466	0.136619
O6	O	1.528259	0.143033	0.136617
O7	O	1.957759	0.132190	0.136618
Zn8	Zn	1.743007	0.137611	0.179998
Zn9	Zn	1.743023	0.137613	-0.179990
O10	O	1.731530	0.268757	0.136616
C11	C	1.473299	0.141992	0.000003
C12	C	1.309518	0.138876	0.000002
C13	C	1.753456	-0.027130	0.000003
C14	C	1.750346	-0.127237	-0.000006
C15	C	1.737156	-0.550509	-0.148943
C16	C	1.737143	-0.550505	0.148940
C17	C	1.740077	-0.456450	0.148941
C18	C	1.741550	-0.409420	-0.000002
C19	C	1.740087	-0.456445	-0.148946
C20	C	1.741525	-0.409417	0.297883
C21	C	1.744459	-0.315356	0.297890
C22	C	1.745941	-0.268325	0.148946
C23	C	1.744480	-0.315356	-0.000005
C24	C	1.745952	-0.268326	-0.148948
C25	C	1.744502	-0.315355	-0.297900
C26	C	1.741570	-0.409413	-0.297891
C27	C	1.748873	-0.174267	0.148937
C28	C	1.748883	-0.174262	-0.148951
C29	C	2.012731	0.133233	0.000002
C30	C	2.176512	0.136349	-0.000008
C31	C	1.732574	0.302354	0.000002
C32	C	1.735684	0.402461	0.000000
N33	N	1.743006	0.137609	0.425681
N34	N	1.743035	0.137608	-0.425673
H35	H	1.750089	-0.135977	-0.270240
H36	H	1.740319	-0.447716	0.419144
H37	H	1.745645	-0.277073	0.419176
Br38	Br	1.750834	-0.110444	0.351068
H39	H	1.735934	-0.588802	0.270202
H40	H	1.745690	-0.277050	-0.419169
H41	H	1.735981	-0.588805	-0.270216
H42	H	1.740387	-0.447713	-0.419159
