data_functionalizedCrystal
_audit_creation_method	'MofGen! by Chris Wilmer'
_symmetry_space_group_name_H-M	'P1'
_symmetry_Int_Tables_number	1
_symmetry_cell_setting	triclinic
loop_
_symmetry_equiv_pos_as_xyz
  x,y,z
_cell_length_a	19.188925
_cell_length_b	11.026607
_cell_length_c	18.266242
_cell_angle_alpha	90.008283
_cell_angle_beta	89.994078
_cell_angle_gamma	84.135717
loop_
_atom_site_label
_atom_site_type_symbol
_atom_site_fract_x
_atom_site_fract_y
_atom_site_fract_z
O1	O	0.292177	-1.608611	-0.060884
O2	O	0.258907	-1.255482	-0.060884
O3	O	0.175185	-1.442241	-0.060880
O4	O	0.375899	-1.421853	-0.060888
O5	O	0.175176	-1.442208	0.060882
O6	O	0.258898	-1.255450	0.060878
O7	O	0.292168	-1.608578	0.060878
Zn8	Zn	0.275531	-1.432009	0.080210
Zn9	Zn	0.275543	-1.432052	-0.080216
O10	O	0.375889	-1.421820	0.060874
C11	C	0.252765	-1.210288	-0.000003
C12	C	0.234468	-1.075672	-0.000004
C13	C	0.149085	-1.441565	0.000001
C14	C	0.071329	-1.439587	-0.000001
C15	C	0.298310	-1.653773	-0.000004
C16	C	0.316607	-1.788389	-0.000009
C17	C	-0.478164	-1.535921	-0.000019
C18	C	-0.405103	-1.537791	-0.000013
C19	C	-0.374134	-1.428207	-0.000013
C20	C	-0.416233	-1.316745	-0.000001
C21	C	-0.489293	-1.314879	-0.000001
N22	N	-0.263561	-1.348884	-0.041458
N23	N	-0.194157	-1.350665	-0.041460
C24	C	-0.154009	-1.433824	-0.000014
N25	N	-0.185887	-1.515154	0.041426
N26	N	-0.255297	-1.513377	0.041425
C27	C	-0.294914	-1.430219	-0.000013
C28	C	-0.032698	-1.547306	-0.000013
C29	C	0.040365	-1.549171	-0.000002
C30	C	0.029233	-1.328123	0.000002
C31	C	-0.043828	-1.326261	-0.000002
C32	C	-0.074789	-1.435856	-0.000013
C33	C	0.401989	-1.422495	-0.000008
C34	C	0.479746	-1.424474	-0.000012
N35	N	0.275523	-1.431988	0.189697
C36	C	0.284988	-1.001596	-0.000006
C37	C	0.266079	-0.862463	-0.000006
C38	C	0.238478	-1.514711	0.228008
C39	C	0.238476	-1.514718	0.304653
C40	C	0.275532	-1.432014	0.342984
C41	C	0.312579	-1.349275	0.304664
C42	C	0.312575	-1.349262	0.228021
N43	N	0.335331	-1.416247	0.463314
N44	N	0.335334	-1.416267	0.536122
C45	C	0.275547	-1.432045	0.573906
N46	N	0.215758	-1.447828	0.536132
N47	N	0.215756	-1.447815	0.463318
C48	C	0.275541	-1.432018	0.426091
C49	C	0.238496	-1.514781	0.695324
C50	C	0.238492	-1.514779	0.771971
C51	C	0.312602	-1.349342	0.771980
C52	C	0.312599	-1.349337	0.695336
C53	C	0.275548	-1.432063	0.657012
N54	N	0.275548	-1.432072	0.810297
H55	H	-0.503368	-1.625162	-0.000024
H56	H	0.342771	-1.281998	0.803189
H57	H	0.342240	-1.041182	-0.000004
H58	H	-0.391014	-1.227522	0.000001
O59	O	0.348654	-1.268943	0.658230
C60	C	0.381347	-1.195924	0.708494
H61	H	0.388404	-1.245644	0.763120
H62	H	0.434736	-1.177119	0.686343
H63	H	0.347340	-1.105966	0.716662
H64	H	0.342750	-1.281934	0.335877
H65	H	0.177217	-1.036086	-0.000020
O66	O	0.202420	-1.595106	0.190896
C67	C	0.169736	-1.668141	0.241152
H68	H	0.162688	-1.618438	0.295795
H69	H	0.116343	-1.686941	0.219016
H70	H	0.203745	-1.758101	0.249283
H71	H	0.373862	-0.827967	-0.000006
H72	H	0.054447	-1.238898	0.000008
O73	O	0.197808	-0.815054	-0.000037
C74	C	0.194126	-0.686692	-0.000018
H75	H	0.244875	-0.656827	-0.023071
H76	H	0.148185	-0.647979	-0.035368
H77	H	0.186340	-0.651472	0.058397
O78	O	-0.084749	-1.218031	0.000124
C79	C	-0.127364	-1.210334	0.063175
H80	H	-0.102194	-1.273600	0.107253
H81	H	-0.133120	-1.112558	0.084341
H82	H	-0.181237	-1.238620	0.048916
H83	H	0.208308	-1.582084	0.335851
O84	O	0.348628	-1.268860	0.190915
C85	C	0.381319	-1.195836	0.241178
H86	H	0.388374	-1.245551	0.295806
H87	H	0.434708	-1.177031	0.219028
H88	H	0.347310	-1.105878	0.249343
O89	O	0.202438	-1.595173	0.658205
C90	C	0.169747	-1.668202	0.708459
H91	H	0.162695	-1.618495	0.763101
H92	H	0.116356	-1.687000	0.686318
H93	H	0.203754	-1.758163	0.716595
O94	O	-0.530080	-1.206508	-0.000031
C95	C	-0.487084	-1.110182	-0.000007
H96	H	-0.433369	-1.143915	-0.023057
H97	H	-0.512081	-1.032354	-0.035358
H98	H	-0.481036	-1.076386	0.058409
O99	O	0.202413	-1.594975	0.809220
C100	C	0.151191	-1.530284	0.853582
H101	H	0.137955	-1.434656	0.830499
H102	H	0.101971	-1.580070	0.854449
H103	H	0.172226	-1.523814	0.911667
H104	H	-0.370827	-1.628547	-0.000019
H105	H	-0.057907	-1.636545	-0.000021
H106	H	0.074634	-1.639928	-0.000003
