data_functionalizedCrystal
_audit_creation_method	'MofGen! by Chris Wilmer'
_symmetry_space_group_name_H-M	'P1'
_symmetry_Int_Tables_number	1
_symmetry_cell_setting	triclinic
loop_
_symmetry_equiv_pos_as_xyz
  x,y,z
_cell_length_a	14.971486
_cell_length_b	14.044220
_cell_length_c	14.048226
_cell_angle_alpha	89.992807
_cell_angle_beta	89.998499
_cell_angle_gamma	88.401503
loop_
_atom_site_label
_atom_site_type_symbol
_atom_site_fract_x
_atom_site_fract_y
_atom_site_fract_z
O1	O	1.196679	0.123538	-0.079053
O2	O	0.937444	0.138332	-0.079079
O3	O	1.063171	-0.007054	-0.079057
O4	O	1.070953	0.268924	-0.079075
O5	O	1.063153	-0.007063	0.079264
O6	O	0.937427	0.138323	0.079242
O7	O	1.196662	0.123529	0.079268
Zn8	Zn	1.067042	0.130925	0.104392
Zn9	Zn	1.067064	0.130936	-0.104203
O10	O	1.070936	0.268915	0.079246
C11	C	0.904059	0.137666	0.000078
C12	C	0.804606	0.135683	0.000069
C13	C	0.754109	0.221093	0.000064
C14	C	0.660662	0.219225	0.000079
C15	C	0.617714	0.131945	0.000090
C16	C	0.668218	0.046528	0.000097
C17	C	0.761663	0.048398	0.000090
C18	C	0.473449	0.042638	0.000111
C19	C	0.379997	0.040767	0.000117
C20	C	0.372448	0.213465	0.000100
C21	C	0.465893	0.215334	0.000092
C22	C	0.516390	0.129917	0.000097
C23	C	1.059755	-0.042377	0.000104
C24	C	1.049594	-0.147614	0.000104
C25	C	1.031018	-0.340297	0.000088
C26	C	1.103085	-0.397848	0.000093
C27	C	1.092748	-0.505063	0.000084
C28	C	1.041353	-0.233071	0.000097
C29	C	1.230047	0.124195	0.000109
C30	C	1.329501	0.126178	0.000112
C31	C	1.074351	0.304238	0.000083
C32	C	1.084512	0.409475	0.000077
N33	N	1.067033	0.130916	0.246753
N34	N	1.067080	0.130937	-0.246564
C35	C	1.122726	0.066566	0.296581
C36	C	1.122732	0.066566	0.396238
C37	C	1.067049	0.130921	0.446066
C38	C	1.011350	0.195274	0.396232
C39	C	1.011340	0.195269	0.296576
C40	C	1.011376	0.195281	0.603946
C41	C	1.011387	0.195287	0.703609
C42	C	1.122768	0.066577	0.703608
C43	C	1.122758	0.066573	0.603953
C44	C	1.067060	0.130927	0.554125
H45	H	0.514561	-0.026919	0.000117
Cl46	Cl	0.519884	0.325059	0.000067
Cl47	Cl	0.923781	-0.388541	0.000073
H48	H	0.966043	0.247691	0.744173
H49	H	1.168073	0.014165	0.256017
Cl50	Cl	1.192746	-0.014334	0.458881
Cl51	Cl	0.614226	-0.063196	0.000118
Cl52	Cl	0.941319	0.276167	0.233936
H53	H	0.619551	0.288775	0.000074
H54	H	0.966007	0.247670	0.436807
Cl55	Cl	0.825145	-0.058980	0.000099
Cl56	Cl	1.210329	-0.349605	0.000114
H57	H	0.966018	0.247683	0.563379
Cl58	Cl	1.192765	-0.014325	0.541310
H59	H	0.789070	0.292167	0.000054
Cl60	Cl	1.192788	-0.014323	0.766252
Cl61	Cl	0.326007	-0.068957	0.000163
Cl62	Cl	0.308967	0.320846	0.000095
