data_functionalizedCrystal
_audit_creation_method	'MofGen! by Chris Wilmer'
_symmetry_space_group_name_H-M	'P1'
_symmetry_Int_Tables_number	1
_symmetry_cell_setting	triclinic
loop_
_symmetry_equiv_pos_as_xyz
  x,y,z
_cell_length_a	13.032831
_cell_length_b	13.897448
_cell_length_c	13.034356
_cell_angle_alpha	97.210930
_cell_angle_beta	105.184960
_cell_angle_gamma	82.822399
loop_
_atom_site_label
_atom_site_type_symbol
_atom_site_fract_x
_atom_site_fract_y
_atom_site_fract_z
Zn1	Zn	1.700192	-0.489005	0.806446
Zn2	Zn	2.033525	-0.155672	1.139779
Zn3	Zn	2.366858	0.177661	1.473113
Zn4	Zn	1.677506	-0.668494	0.628818
Zn5	Zn	2.010839	-0.335161	0.962151
Zn6	Zn	2.344173	-0.001828	1.295484
Zn7	Zn	1.499996	-0.489013	0.606329
Zn8	Zn	1.833330	-0.155680	0.939662
Zn9	Zn	2.166663	0.177653	1.272995
Zn10	Zn	1.522536	-0.632052	0.783870
Zn11	Zn	1.855869	-0.298718	1.117204
Zn12	Zn	2.189203	0.034615	1.450537
O13	O	1.600058	-0.569641	0.706366
O14	O	1.933391	-0.236308	1.039699
O15	O	2.266724	0.097026	1.373032
O16	O	1.845820	-0.528063	0.801743
O17	O	2.179154	-0.194729	1.135076
O18	O	2.512487	0.138604	1.468410
O19	O	1.635032	-0.659941	0.477194
O20	O	1.968365	-0.326607	0.810528
O21	O	2.301699	0.006726	1.143861
O22	O	1.526614	-0.354034	0.632911
O23	O	1.859947	-0.020700	0.966244
O24	O	2.193280	0.312633	1.299577
O25	O	1.829153	-0.659933	0.671240
O26	O	2.162487	-0.326599	1.004573
O27	O	2.495820	0.006734	1.337907
O28	O	1.673696	-0.354028	0.779936
O29	O	2.007030	-0.020694	1.113270
O30	O	2.340363	0.312639	1.446603
O31	O	1.504616	-0.528077	0.460672
O32	O	1.837950	-0.194744	0.794005
O33	O	2.171283	0.138590	1.127338
O34	O	1.354348	-0.492740	0.611020
O35	O	1.687682	-0.159407	0.944353
O36	O	2.021015	0.173927	1.277687
O37	O	1.565029	-0.597821	0.935505
O38	O	1.898363	-0.264488	1.268838
O39	O	2.231696	0.068845	1.602171
O40	O	1.370908	-0.597829	0.741459
O41	O	1.704242	-0.264496	1.074792
O42	O	2.037575	0.068837	1.408126
O43	O	1.695552	-0.492726	0.952091
O44	O	2.028885	-0.159392	1.285424
O45	O	2.362219	0.173941	1.618758
O46	O	1.656888	-0.798639	0.649349
O47	O	1.990221	-0.465305	0.982683
O48	O	2.323555	-0.131972	1.316016
O49	O	1.543032	-0.771865	0.763266
O50	O	1.876366	-0.438531	1.096599
O51	O	2.209699	-0.105198	1.429932
C52	C	1.324088	-0.541332	0.671350
C53	C	1.657421	-0.207998	1.004683
C54	C	1.990755	0.125335	1.338017
C55	C	1.206030	-0.529241	0.656395
C56	C	1.539364	-0.195908	0.989729
C57	C	1.872697	0.137425	1.323062
C58	C	1.161605	-0.575951	0.714170
C59	C	1.494939	-0.242618	1.047504
C60	C	1.828272	0.090715	1.380837
C61	C	1.039587	-0.563457	0.698715
C62	C	1.372920	-0.230123	1.032049
C63	C	1.706253	0.103210	1.365382
C64	C	1.599976	-0.820251	0.706325
C65	C	1.933309	-0.486917	1.039658
C66	C	2.266643	-0.153584	1.372992
C67	C	1.600043	-0.927469	0.706355
C68	C	1.933376	-0.594136	1.039689
C69	C	2.266710	-0.260802	1.373022
C70	C	1.600163	-1.123769	0.706436
C71	C	1.933496	-0.790435	1.039770
C72	C	2.266830	-0.457102	1.373103
C73	C	1.600094	-1.014533	0.706394
C74	C	1.933427	-0.681200	1.039727
C75	C	2.266760	-0.347866	1.373061
C76	C	1.877105	-0.598062	0.741518
C77	C	2.210438	-0.264728	1.074852
C78	C	2.543771	0.068605	1.408185
C79	C	1.995166	-0.610173	0.756498
C80	C	2.328499	-0.276840	1.089832
C81	C	2.661832	0.056494	1.423165
C82	C	1.635336	-0.541208	0.983416
C83	C	1.968669	-0.207874	1.316750
C84	C	2.302002	0.125459	1.650083
C85	C	1.650369	-0.529091	1.101479
C86	C	1.983702	-0.195757	1.434812
C87	C	2.317036	0.137576	1.768145
C88	C	1.600171	-0.318054	0.706433
C89	C	1.933504	0.015280	1.039767
C90	C	2.266838	0.348613	1.373100
C91	C	1.600220	-0.210842	0.706462
C92	C	1.933553	0.122491	1.039795
C93	C	2.266886	0.455825	1.373129
C94	C	1.564978	-0.597901	0.430400
C95	C	1.898311	-0.264567	0.763734
C96	C	2.231645	0.068766	1.097067
C97	C	1.550150	-0.609767	0.312365
C98	C	1.883484	-0.276433	0.645698
C99	C	2.216817	0.056900	0.979031
C100	C	1.608026	-0.563170	1.267932
C101	C	1.941359	-0.229837	1.601265
C102	C	2.274693	0.103496	1.934599
C103	C	1.592485	-0.575694	1.145908
C104	C	1.925819	-0.242360	1.479241
C105	C	2.259152	0.090973	1.812574
H106	H	0.987291	-0.514209	0.637811
H107	H	1.320624	-0.180875	0.971144
H108	H	1.653957	0.152458	1.304477
H109	H	1.213906	-0.625188	0.775079
H110	H	1.547239	-0.291854	1.108412
H111	H	1.880573	0.041479	1.441745
H112	H	1.047462	-0.659411	0.817414
H113	H	1.380795	-0.326077	1.150747
H114	H	1.714128	0.007256	1.484081
N115	N	1.140417	-0.467462	0.580002
N116	N	1.473750	-0.134128	0.913336
N117	N	1.807083	0.199205	1.246669
N118	N	1.041390	-0.457395	0.567560
N119	N	1.374724	-0.124062	0.900894
N120	N	1.708057	0.209272	1.234227
H121	H	0.995051	-0.413760	0.513607
H122	H	1.328384	-0.080427	0.846940
H123	H	1.661717	0.252906	1.180274
N124	N	1.684625	-0.501505	1.333545
N125	N	2.017959	-0.168172	1.666878
N126	N	2.351292	0.165162	2.000211
N127	N	1.697145	-0.491424	1.432577
N128	N	2.030478	-0.158090	1.765910
N129	N	2.363812	0.175243	2.099243
H130	H	1.751246	-0.447872	1.478916
H131	H	2.084580	-0.114539	1.812250
H132	H	2.417913	0.218795	2.145583
H133	H	1.531431	-0.624865	1.093614
H134	H	1.864764	-0.291532	1.426948
H135	H	2.198097	0.041802	1.760281
H136	H	1.711431	-0.479926	1.153772
H137	H	2.044764	-0.146592	1.487105
H138	H	2.378097	0.186741	1.820438
H139	H	1.489100	-0.658935	1.260068
H140	H	1.822433	-0.325602	1.593401
H141	H	2.155767	0.007732	1.926734
