data_functionalizedCrystal
_audit_creation_method	'MofGen! by Chris Wilmer'
_symmetry_space_group_name_H-M	'P1'
_symmetry_Int_Tables_number	1
_symmetry_cell_setting	triclinic
loop_
_symmetry_equiv_pos_as_xyz
  x,y,z
_cell_length_a	19.805407
_cell_length_b	15.297510
_cell_length_c	19.805399
_cell_angle_alpha	99.651501
_cell_angle_beta	89.980803
_cell_angle_gamma	99.705033
loop_
_atom_site_label
_atom_site_type_symbol
_atom_site_fract_x
_atom_site_fract_y
_atom_site_fract_z
Zn1	Zn	-0.988077	0.359278	0.429352
Zn2	Zn	-0.488077	0.859278	0.929352
Zn3	Zn	-0.968399	0.510145	0.335748
Zn4	Zn	-0.468399	1.010145	0.835748
Zn5	Zn	-0.874890	0.359293	0.316179
Zn6	Zn	-0.374890	0.859293	0.816179
Zn7	Zn	-0.855270	0.510087	0.448888
Zn8	Zn	-0.355270	1.010087	0.948888
O9	O	-0.921659	0.434701	0.382542
O10	O	-0.421659	0.934701	0.882542
O11	O	-1.080181	0.379309	0.416949
O12	O	-0.580181	0.879309	0.916949
O13	O	-0.955971	0.490165	0.238439
O14	O	-0.455971	0.990165	0.738439
O15	O	-0.906351	0.233044	0.314826
O16	O	-0.406351	0.733044	0.814826
O17	O	-1.065724	0.490150	0.348178
O18	O	-0.565724	0.990150	0.848178
O19	O	-0.989509	0.233033	0.397973
O20	O	-0.489509	0.733033	0.897973
O21	O	-0.887270	0.379334	0.224062
O22	O	-0.387270	0.879334	0.724062
O23	O	-0.777573	0.379278	0.333769
O24	O	-0.277573	0.879278	0.833769
O25	O	-0.872911	0.490051	0.541009
O26	O	-0.372911	0.990051	1.041009
O27	O	-0.763158	0.490066	0.431270
O28	O	-0.263158	0.990066	0.931270
O29	O	-0.970484	0.379252	0.526656
O30	O	-0.470484	0.879252	1.026656
O31	O	-0.936946	0.636384	0.367122
O32	O	-0.436946	1.136384	0.867122
O33	O	-0.853831	0.636341	0.450245
O34	O	-0.353831	1.136341	0.950245
C35	C	-0.745807	0.434668	0.382517
C36	C	-0.245807	0.934668	0.882517
C37	C	-0.670574	0.434675	0.382525
C38	C	-0.170574	0.934675	0.882525
C39	C	-0.891142	0.669097	0.412942
C40	C	-0.391142	1.169097	0.912942
C41	C	-0.878149	0.769373	0.425970
C42	C	-0.378149	1.269373	0.925970
C43	C	-0.642746	0.377061	0.418412
C44	C	-0.142746	0.877061	0.918412
C45	C	-0.572057	0.377064	0.418413
C46	C	-0.072057	0.877064	0.918413
C47	C	-0.529197	0.434686	0.382531
C48	C	-0.029197	0.934686	0.882531
C49	C	-0.557031	0.492303	0.346640
C50	C	-0.057031	0.992303	0.846640
C51	C	-0.627719	0.492295	0.346635
C52	C	-0.127719	0.992295	0.846635
C53	C	-0.271953	0.492336	0.346658
C54	C	0.228047	0.992336	0.846658
C55	C	-0.201260	0.492341	0.346667
C56	C	0.298740	0.992341	0.846667
C57	C	-0.216291	0.377105	0.418436
C58	C	0.283709	0.877105	0.918436
C59	C	-0.286979	0.377097	0.418431
C60	C	0.213021	0.877097	0.918431
C61	C	-0.314807	0.434710	0.382537
C62	C	0.185193	0.934710	0.882537
C63	C	-0.391456	0.434705	0.382535
C64	C	0.108544	0.934705	0.882535
C65	C	-0.452549	0.434696	0.382537
C66	C	0.047451	0.934696	0.882537
C67	C	-0.921704	0.434644	0.559077
C68	C	-0.421704	0.934644	1.059077
C69	C	-0.921724	0.434620	0.634306
C70	C	-0.421724	0.934620	1.134306
C71	C	-0.098198	0.434728	0.382560
C72	C	0.401802	0.934728	0.882560
C73	C	-0.173431	0.434722	0.382550
C74	C	0.326569	0.934722	0.882550
C75	C	-1.014769	1.051997	0.289699
C76	C	-0.514769	1.551997	0.789699
C77	C	-1.026976	0.957783	0.277455
C78	C	-0.526976	1.457783	0.777455
C79	C	-0.989771	0.910676	0.314583
C80	C	-0.489771	1.410676	0.814583
C81	C	-0.940355	0.957792	0.363956
C82	C	-0.440355	1.457792	0.863956
C83	C	-0.928143	1.052015	0.376197
C84	C	-0.428143	1.552015	0.876197
C85	C	-0.903145	0.910694	0.401081
C86	C	-0.403145	1.410694	0.901081
C87	C	-0.853729	0.957810	0.450455
C88	C	-0.353729	1.457810	0.950455
C89	C	-0.841520	1.052024	0.462694
C90	C	-0.341520	1.552024	0.962694
C91	C	-0.878725	1.099131	0.425567
C92	C	-0.378725	1.599131	0.925567
C93	C	-0.915357	0.816471	0.388840
C94	C	-0.415357	1.316471	0.888840
C95	C	-0.828731	0.816489	0.475339
C96	C	-0.328731	1.316489	0.975339
C97	C	-0.816524	0.910703	0.487583
C98	C	-0.316524	1.410703	0.987583
C99	C	-0.952307	1.199389	0.352045
C100	C	-0.452307	1.699389	0.852045
C101	C	-0.965351	1.099113	0.339068
C102	C	-0.465351	1.599113	0.839068
C103	C	-0.921661	0.434692	0.206685
C104	C	-0.421661	0.934692	0.706685
C105	C	-0.921806	0.434462	0.131423
C106	C	-0.421806	0.934462	0.631423
C107	C	-0.972531	0.376924	0.662177
C108	C	-0.472531	0.876924	1.162177
C109	C	-0.972542	0.376898	0.732862
C110	C	-0.472542	0.876898	1.232862
C111	C	-0.921747	0.434572	0.775675
C112	C	-0.421747	0.934572	1.275675
C113	C	-0.870934	0.492271	0.747800
C114	C	-0.370934	0.992271	1.247800
C115	C	-0.870921	0.492292	0.677115
C116	C	-0.370921	0.992292	1.177115
C117	C	-0.870983	0.492187	1.032862
C118	C	-0.370983	0.992187	1.532862
C119	C	-0.871001	0.492163	1.103551
C120	C	-0.371001	0.992163	1.603551
C121	C	-0.972603	0.376792	1.088609
C122	C	-0.472603	0.876792	1.588609
C123	C	-0.972591	0.376813	1.017925
C124	C	-0.472591	0.876813	1.517925
C125	C	-0.921776	0.434508	0.990055
C126	C	-0.421776	0.934508	1.490055
C127	C	-0.921765	0.434535	0.913410
C128	C	-0.421765	0.934535	1.413410
C129	C	-0.921760	0.434551	0.852320
C130	C	-0.421760	0.934551	1.352320
H131	H	-0.677637	0.330141	0.447633
H132	H	-0.177637	0.830141	0.947633
N133	N	-1.054894	1.102806	0.249662
N134	N	-0.554894	1.602806	0.749662
H135	H	-1.088054	1.058665	0.216529
H136	H	-0.588054	1.558665	0.716529
H137	H	-1.022285	1.141950	0.223401
H138	H	-0.522285	1.641950	0.723401
N139	N	-1.080277	0.906966	0.224214
N140	N	-0.580277	1.406966	0.724214
H141	H	-1.101997	0.951103	0.202555
H142	H	-0.601997	1.451103	0.702555
H143	H	-1.116654	0.867826	0.246716
H144	H	-0.616654	1.367826	0.746716
N145	N	-0.968660	0.765661	0.335599
N146	N	-0.468660	1.265661	0.835599
H147	H	-0.970754	0.698827	0.333476
H148	H	-0.470754	1.198827	0.833476
H149	H	-0.956014	0.782181	0.289395
H150	H	-0.456014	1.282181	0.789395
N151	N	-1.027378	0.314605	0.971752
N152	N	-0.527378	0.814605	1.471752
H153	H	-1.005313	0.272802	0.936999
H154	H	-0.505313	0.772802	1.436999
H155	H	-1.053946	0.351347	0.947232
H156	H	-0.553946	0.851347	1.447232
H157	H	-0.798434	0.778135	0.505570
H158	H	-0.298434	1.278135	1.005570
N159	N	-0.301951	0.554488	0.307952
N160	N	0.198049	1.054488	0.807952
H161	H	-0.325845	0.596341	0.340833
H162	H	0.174155	1.096341	0.840833
H163	H	-0.336012	0.517712	0.271861
H164	H	0.163988	1.017712	0.771861
N165	N	-1.027406	0.314546	1.118663
N166	N	-0.527406	0.814546	1.618663
H167	H	-1.073937	0.328572	1.108189
H168	H	-0.573937	0.828572	1.608189
H169	H	-1.019648	0.323301	1.169928
H170	H	-0.519648	0.823301	1.669928
N171	N	-0.865558	1.200751	0.438775
N172	N	-0.365558	1.700751	0.938775
H173	H	-0.896629	1.223439	0.407765
H174	H	-0.396629	1.723439	0.907765
H175	H	-0.816172	1.223433	0.429258
H176	H	-0.316172	1.723433	0.929258
N177	N	-0.788212	1.102845	0.515934
N178	N	-0.288212	1.602845	1.015934
H179	H	-0.766494	1.058710	0.537597
H180	H	-0.266494	1.558710	1.037597
H181	H	-0.810681	1.141888	0.552356
H182	H	-0.310681	1.641888	1.052356
H183	H	-0.829634	0.539131	1.138409
H184	H	-0.329634	1.039131	1.638409
N185	N	-0.542043	0.314906	0.457104
N186	N	-0.042043	0.814906	0.957104
H187	H	-0.579921	0.278400	0.479833
H188	H	-0.079921	0.778400	0.979833
H189	H	-0.507935	0.351671	0.493154
H190	H	-0.007935	0.851671	0.993154
N191	N	-1.027324	0.314727	0.616004
N192	N	-0.527324	0.814727	1.116004
H193	H	-1.005266	0.272923	0.581245
H194	H	-0.505266	0.772923	1.081245
H195	H	-1.053886	0.351482	0.591490
H196	H	-0.553886	0.851482	1.091490
H197	H	-0.999712	0.833962	0.304610
H198	H	-0.499712	1.333962	0.804610
N199	N	-1.027330	0.314651	0.762922
N200	N	-0.527330	0.814651	1.262922
H201	H	-1.059505	0.278116	0.725074
H202	H	-0.559505	0.778116	1.225074
H203	H	-1.053878	0.351356	0.797023
H204	H	-0.553878	0.851356	1.297023
H205	H	-0.776289	0.949078	0.527783
H206	H	-0.276289	1.449078	1.027783
N207	N	-0.333204	0.314943	0.457129
N208	N	0.166796	0.814943	0.957129
H209	H	-0.382208	0.323681	0.451681
H210	H	0.117792	0.823681	0.951681
H211	H	-0.319030	0.329069	0.507285
H212	H	0.180970	0.829069	1.007285
N213	N	-0.816161	0.554382	1.002803
N214	N	-0.316161	1.054382	1.502803
H215	H	-0.783982	0.590906	1.040652
H216	H	-0.283982	1.090906	1.540652
H217	H	-0.838240	0.596158	0.978880
H218	H	-0.338240	1.096158	1.478880
N219	N	-0.816134	0.554458	0.793970
N220	N	-0.316134	1.054458	1.293970
H221	H	-0.823849	0.545688	0.842978
H222	H	-0.323849	1.045688	1.342978
H223	H	-0.818259	0.618902	0.789975
H224	H	-0.318259	1.118902	1.289975
N225	N	-0.657734	0.554434	0.307924
N226	N	-0.157734	1.054434	0.807924
H227	H	-0.637050	0.618915	0.326718
H228	H	-0.137050	1.118915	0.826718
H229	H	-0.709016	0.545607	0.313374
H230	H	-0.209016	1.045607	0.813374
N231	N	-0.186278	0.314960	0.457149
N232	N	0.313722	0.814960	0.957149
H233	H	-0.134994	0.323703	0.451708
H234	H	0.365006	0.823703	0.951708
H235	H	-0.207017	0.250509	0.438337
H236	H	0.292983	0.750509	0.938337
N237	N	-0.155031	0.554492	0.307963
N238	N	0.344969	1.054492	0.807963
H239	H	-0.183385	0.590987	0.285222
H240	H	0.316615	1.090987	0.785222
H241	H	-0.130473	0.517712	0.271922
H242	H	0.369527	1.017712	0.771922
N243	N	-0.816117	0.554512	0.647049
N244	N	-0.316117	1.054512	1.147049
H245	H	-0.783940	0.591045	0.684896
H246	H	-0.283940	1.091045	1.184896
H247	H	-0.838217	0.596279	0.623136
H248	H	-0.338217	1.096279	1.123136
N249	N	-0.510809	0.554445	0.307929
N250	N	-0.010809	1.054445	0.807929
H251	H	-0.461805	0.545709	0.313378
H252	H	0.038195	1.045709	0.813378
H253	H	-0.514783	0.618895	0.326739
H254	H	-0.014783	1.118895	0.826739
