data_functionalizedCrystal
_audit_creation_method	'MofGen! by Chris Wilmer'
_symmetry_space_group_name_H-M	'P1'
_symmetry_Int_Tables_number	1
_symmetry_cell_setting	triclinic
loop_
_symmetry_equiv_pos_as_xyz
  x,y,z
_cell_length_a	10.540510
_cell_length_b	16.109301
_cell_length_c	15.186229
_cell_angle_alpha	90.000894
_cell_angle_beta	89.996395
_cell_angle_gamma	83.987396
loop_
_atom_site_label
_atom_site_type_symbol
_atom_site_fract_x
_atom_site_fract_y
_atom_site_fract_z
O1	O	1.684239	0.117047	-0.073224
O2	O	2.184239	0.617047	0.426776
O3	O	1.314663	0.128113	-0.073224
O4	O	1.814663	0.628113	0.426776
O5	O	1.509603	0.001610	-0.073228
O6	O	2.009603	0.501610	0.426772
O7	O	1.489298	0.243550	-0.073219
O8	O	1.989298	0.743550	0.426781
O9	O	1.509590	0.001609	0.073229
O10	O	2.009590	0.501609	0.573229
O11	O	1.314650	0.128111	0.073234
O12	O	1.814650	0.628111	0.573234
O13	O	1.684226	0.117046	0.073233
O14	O	2.184226	0.617046	0.573233
Zn15	Zn	1.499436	0.122578	0.096487
Zn16	Zn	1.999436	0.622578	0.596487
Zn17	Zn	1.499453	0.122580	-0.096477
Zn18	Zn	1.999453	0.622580	0.403523
O19	O	1.489285	0.243548	0.073238
O20	O	1.989285	0.743548	0.573238
C21	C	1.267365	0.127287	0.000005
C22	C	1.767365	0.627287	0.500005
C23	C	1.126450	0.124820	0.000005
C24	C	1.626450	0.624820	0.500005
C25	C	0.907742	0.212701	-0.000329
C26	C	1.407742	0.712701	0.499671
C27	C	1.054300	0.215332	0.000007
C28	C	1.554300	0.715332	0.500007
C29	C	1.082343	0.078486	0.083635
C30	C	1.582343	0.578486	0.583635
C31	C	0.935611	0.076495	0.083700
C32	C	1.435611	0.576495	0.583700
C33	C	0.935846	0.074612	-0.082850
C34	C	1.435846	0.574612	0.417150
C35	C	1.082126	0.078906	-0.083950
C36	C	1.582126	0.578906	0.416050
C37	C	1.508775	-0.029370	-0.000003
C38	C	2.008775	0.470630	0.499997
C39	C	1.506309	-0.121681	-0.000012
C40	C	2.006309	0.378319	0.499988
C41	C	1.731524	0.117871	0.000003
C42	C	2.231524	0.617871	0.500003
C43	C	1.872439	0.120338	-0.000003
C44	C	2.372439	0.620338	0.499997
C45	C	1.490114	0.274529	0.000010
C46	C	1.990114	0.774529	0.500010
C47	C	1.492580	0.366839	0.000014
C48	C	1.992580	0.866839	0.500014
N49	N	1.499433	0.122576	0.228179
N50	N	1.999433	0.622576	0.728179
C51	C	1.382640	0.588447	0.000001
C52	C	1.882640	1.088447	0.500001
C53	C	1.384967	0.675181	-0.000006
C54	C	1.884967	1.175181	0.499994
C55	C	1.616257	0.656705	-0.000002
C56	C	2.116257	1.156705	0.499998
C57	C	1.613929	0.569972	-0.000002
C58	C	2.113929	1.069972	0.499998
C59	C	1.497117	0.535846	0.000004
C60	C	1.997117	1.035846	0.500004
C61	C	1.501772	0.709313	-0.000003
C62	C	2.001772	1.209313	0.499997
C63	C	1.504296	0.803354	-0.000010
C64	C	2.004296	1.303354	0.499990
C65	C	1.494592	0.441798	0.000010
C66	C	1.994592	0.941798	0.500010
N67	N	1.499465	0.122576	-0.228170
N68	N	1.999465	0.622576	0.271830
C69	C	1.585782	0.066580	0.453900
C70	C	2.085782	0.566580	0.953900
C71	C	1.585786	0.066578	0.546090
C72	C	2.085786	0.566578	1.046090
C73	C	1.413107	0.178575	0.546103
C74	C	1.913107	0.678575	1.046103
C75	C	1.413098	0.178572	0.453915
C76	C	1.913098	0.678572	0.953915
C77	C	1.499443	0.122575	0.407816
C78	C	1.999443	0.622575	0.907816
C79	C	1.499456	0.122576	0.592194
C80	C	1.999456	0.622576	1.092194
C81	C	1.499460	0.122575	0.692150
C82	C	1.999460	0.622575	1.192150
C83	C	1.499438	0.122576	0.307853
C84	C	1.999438	0.622576	0.807853
H85	H	0.863730	0.247759	0.059310
H86	H	1.363730	0.747759	0.559310
H87	H	1.707155	0.527142	-0.000002
H88	H	2.207155	1.027142	0.499998
Cl89	Cl	0.842200	0.267150	-0.092928
Cl90	Cl	1.342200	0.767150	0.407072
H91	H	1.656090	0.020980	0.583609
H92	H	2.156090	0.520980	1.083609
Cl93	Cl	1.097353	0.271628	0.092729
Cl94	Cl	1.597353	0.771628	0.592729
Cl95	Cl	1.304543	0.248968	0.395975
Cl96	Cl	1.804543	0.748968	0.895975
Cl97	Cl	1.304569	0.248970	0.604060
Cl98	Cl	1.804569	0.748970	1.104060
Cl99	Cl	0.872808	0.125385	0.180219
Cl100	Cl	1.372808	0.625385	0.680219
H101	H	1.083134	0.251581	-0.059945
H102	H	1.583134	0.751581	0.440055
Cl103	Cl	0.901590	-0.028019	0.089613
Cl104	Cl	1.401590	0.471981	0.589613
Cl105	Cl	1.156960	-0.024395	0.088433
Cl106	Cl	1.656960	0.475605	0.588433
Cl107	Cl	1.763099	0.699613	-0.000005
Cl108	Cl	2.263099	1.199613	0.499995
Cl109	Cl	1.235791	0.545547	0.000004
Cl110	Cl	1.735791	1.045547	0.500004
H111	H	1.291749	0.718006	-0.000010
H112	H	1.791749	1.218006	0.499990
Cl113	Cl	1.129256	0.128163	0.179733
Cl114	Cl	1.629256	0.628163	0.679733
Cl115	Cl	1.694325	-0.003819	0.395951
Cl116	Cl	2.194325	0.496181	0.895951
Cl117	Cl	0.869555	0.118693	-0.180717
Cl118	Cl	1.369555	0.618693	0.319283
Cl119	Cl	1.125635	0.130927	-0.179475
Cl120	Cl	1.625635	0.630927	0.320525
H121	H	0.914661	0.006656	-0.083418
H122	H	1.414661	0.506656	0.416582
Cl123	Cl	1.159326	-0.023123	-0.091749
Cl124	Cl	1.659326	0.476877	0.408251
