data_functionalizedCrystal
_audit_creation_method	'MofGen! by Chris Wilmer'
_symmetry_space_group_name_H-M	'P1'
_symmetry_Int_Tables_number	1
_symmetry_cell_setting	triclinic
loop_
_symmetry_equiv_pos_as_xyz
  x,y,z
_cell_length_a	13.032831
_cell_length_b	16.120484
_cell_length_c	13.033429
_cell_angle_alpha	94.699356
_cell_angle_beta	90.908563
_cell_angle_gamma	86.078521
loop_
_atom_site_label
_atom_site_type_symbol
_atom_site_fract_x
_atom_site_fract_y
_atom_site_fract_z
Zn1	Zn	1.470316	-0.399691	0.802657
Zn2	Zn	1.480945	-0.556769	0.639226
Zn3	Zn	1.319846	-0.404080	0.609126
Zn4	Zn	1.289645	-0.522271	0.787480
O5	O	1.390188	-0.470703	0.709622
O6	O	1.614758	-0.433128	0.799926
O7	O	1.476663	-0.552790	0.492195
O8	O	1.347997	-0.288297	0.628554
O9	O	1.622567	-0.548533	0.679854
O10	O	1.458547	-0.285072	0.770740
O11	O	1.358304	-0.440610	0.470081
O12	O	1.172808	-0.407158	0.613837
O13	O	1.296523	-0.489736	0.932532
O14	O	1.150619	-0.493992	0.744873
O15	O	1.429262	-0.399676	0.943682
O16	O	1.447377	-0.667394	0.665137
O17	O	1.306830	-0.642048	0.774059
C18	C	1.124626	-0.447308	0.674442
C19	C	1.011014	-0.437317	0.659417
C20	C	0.949416	-0.475917	0.717464
C21	C	0.831991	-0.465592	0.701936
C22	C	1.375005	-0.684592	0.721243
C23	C	1.368599	-0.776099	0.726261
C24	C	1.356907	-0.943642	0.735445
C25	C	1.423650	-0.996937	0.683841
C26	C	1.417145	-1.090164	0.688951
C27	C	1.363411	-0.850406	0.730336
C28	C	1.656786	-0.494189	0.744941
C29	C	1.770395	-0.504198	0.759991
C30	C	1.358338	-0.440368	0.976232
C31	C	1.344765	-0.427441	1.089846
C32	C	1.405456	-0.255979	0.697982
C33	C	1.411962	-0.164476	0.693022
C34	C	1.421977	-0.500865	0.444054
C35	C	1.435764	-0.513578	0.330455
C36	C	1.383254	-0.463835	1.268862
C37	C	1.397283	-0.477191	1.151437
H38	H	0.983613	-0.516605	0.778659
N39	N	1.275337	-0.361595	1.132713
N40	N	1.288923	-0.287568	1.117642
H41	H	1.239890	-0.241064	1.147915
H42	H	0.797799	-0.424894	0.640745
H43	H	0.976816	-0.396622	0.598230
H44	H	1.294884	-0.968030	0.783457
H45	H	0.804585	-0.544887	0.821193
H46	H	1.491109	-0.566049	1.296254
H47	H	1.485677	-0.972548	0.635824
N48	N	1.313842	-0.397993	1.311759
N49	N	1.346469	-0.341971	1.373282
H50	H	1.297446	-0.295467	1.403576
H51	H	1.452632	-0.529666	1.117240
