data_functionalizedCrystal
_audit_creation_method	'MofGen! by Chris Wilmer'
_symmetry_space_group_name_H-M	'P1'
_symmetry_Int_Tables_number	1
_symmetry_cell_setting	triclinic
loop_
_symmetry_equiv_pos_as_xyz
  x,y,z
_cell_length_a	27.732048
_cell_length_b	27.732048
_cell_length_c	26.809956
_cell_angle_alpha	90.003258
_cell_angle_beta	89.999364
_cell_angle_gamma	97.357345
loop_
_atom_site_label
_atom_site_type_symbol
_atom_site_fract_x
_atom_site_fract_y
_atom_site_fract_z
O1	O	0.057510	-0.640931	-0.041421
O2	O	0.307510	-0.390931	0.208579
O3	O	0.557510	-0.140931	0.458579
O4	O	0.807510	0.109069	0.708579
O5	O	0.066256	-0.500138	-0.041436
O6	O	0.316256	-0.250138	0.208564
O7	O	0.566256	-0.000138	0.458564
O8	O	0.816256	0.249862	0.708564
O9	O	-0.008514	-0.574907	-0.041419
O10	O	0.241486	-0.324907	0.208581
O11	O	0.491486	-0.074907	0.458581
O12	O	0.741486	0.175093	0.708581
O13	O	0.132280	-0.566162	-0.041439
O14	O	0.382280	-0.316162	0.208561
O15	O	0.632280	-0.066162	0.458561
O16	O	0.882280	0.183838	0.708561
O17	O	-0.008502	-0.574893	0.041541
O18	O	0.241498	-0.324893	0.291541
O19	O	0.491498	-0.074893	0.541541
O20	O	0.741498	0.175107	0.791541
O21	O	0.066267	-0.500123	0.041523
O22	O	0.316267	-0.250123	0.291523
O23	O	0.566267	-0.000123	0.541523
O24	O	0.816267	0.249877	0.791523
O25	O	0.057522	-0.640917	0.041539
O26	O	0.307522	-0.390917	0.291539
O27	O	0.557522	-0.140917	0.541539
O28	O	0.807522	0.109083	0.791539
Zn29	Zn	0.061896	-0.570518	0.054702
Zn30	Zn	0.311896	-0.320518	0.304702
Zn31	Zn	0.561896	-0.070518	0.554702
Zn32	Zn	0.811896	0.179482	0.804702
Zn33	Zn	0.061881	-0.570536	-0.054600
Zn34	Zn	0.311881	-0.320536	0.195400
Zn35	Zn	0.561881	-0.070536	0.445400
Zn36	Zn	0.811881	0.179464	0.695400
O37	O	0.132291	-0.566147	0.041521
O38	O	0.382291	-0.316147	0.291521
O39	O	0.632291	-0.066147	0.541521
O40	O	0.882291	0.183853	0.791521
C41	C	-0.026515	-0.574716	0.000062
C42	C	0.223485	-0.324716	0.250062
C43	C	0.473485	-0.074716	0.500062
C44	C	0.723485	0.175284	0.750062
C45	C	-0.080170	-0.574164	0.000066
C46	C	0.169830	-0.324164	0.250066
C47	C	0.419830	-0.074164	0.500066
C48	C	0.669830	0.175836	0.750066
C49	C	0.066078	-0.482124	0.000041
C50	C	0.316078	-0.232124	0.250041
C51	C	0.566078	0.017876	0.500041
C52	C	0.816078	0.267876	0.750041
C53	C	0.065525	-0.428469	0.000036
C54	C	0.315525	-0.178469	0.250036
C55	C	0.565525	0.071531	0.500036
C56	C	0.815525	0.321531	0.750036
C57	C	-0.418985	-0.614867	0.000045
C58	C	-0.168985	-0.364867	0.250045
C59	C	0.081015	-0.114867	0.500045
C60	C	0.331015	0.135133	0.750045
C61	C	-0.620645	-0.612816	0.000038
C62	C	-0.370645	-0.362816	0.250038
C63	C	-0.120645	-0.112816	0.500038
C64	C	0.129355	0.137184	0.750038
O65	O	-0.651900	-0.650037	0.000021
O66	O	-0.401900	-0.400037	0.250021
O67	O	-0.151900	-0.150037	0.500021
O68	O	0.098100	0.099963	0.750021
N69	N	-0.639768	-0.568481	0.000034
N70	N	-0.389768	-0.318481	0.250034
N71	N	-0.139768	-0.068481	0.500034
N72	N	0.110232	0.181519	0.750034
C73	C	-0.608474	-0.524656	0.000028
C74	C	-0.358474	-0.274656	0.250028
C75	C	-0.108474	-0.024656	0.500028
C76	C	0.141526	0.225344	0.750028
O77	O	-0.629367	-0.486899	0.000019
O78	O	-0.379367	-0.236899	0.250019
O79	O	-0.129367	0.013101	0.500019
O80	O	0.120633	0.263101	0.750019
C81	C	-0.406815	-0.526707	0.000031
C82	C	-0.156815	-0.276707	0.250031
C83	C	0.093185	-0.026707	0.500031
C84	C	0.343185	0.223293	0.750031
C85	C	-0.387694	-0.571045	0.000041
C86	C	-0.137694	-0.321045	0.250041
C87	C	0.112306	-0.071045	0.500041
C88	C	0.362306	0.178955	0.750041
C89	C	-0.399864	-0.659202	0.000054
C90	C	-0.149864	-0.409202	0.250054
C91	C	0.100136	-0.159202	0.500054
C92	C	0.350136	0.090798	0.750054
C93	C	-0.349452	-0.659714	0.000059
C94	C	-0.099452	-0.409714	0.250059
C95	C	0.150548	-0.159714	0.500059
C96	C	0.400548	0.090286	0.750059
C97	C	-0.318161	-0.615892	0.000054
C98	C	-0.068161	-0.365892	0.250054
C99	C	0.181839	-0.115892	0.500054
C100	C	0.431839	0.134108	0.750054
C101	C	-0.337282	-0.571557	0.000045
C102	C	-0.087282	-0.321557	0.250045
C103	C	0.162718	-0.071557	0.500045
C104	C	0.412718	0.178443	0.750045
C105	C	-0.375521	-0.482882	0.000022
C106	C	-0.125521	-0.232882	0.250022
C107	C	0.124479	0.017118	0.500022
C108	C	0.374479	0.267118	0.750022
C109	C	-0.325104	-0.483399	0.000021
C110	C	-0.075104	-0.233399	0.250021
C111	C	0.174896	0.016601	0.500021
C112	C	0.424896	0.266601	0.750021
C113	C	-0.305983	-0.527737	0.000031
C114	C	-0.055983	-0.277737	0.250031
C115	C	0.194017	-0.027737	0.500031
C116	C	0.444017	0.222263	0.750031
C117	C	-0.255580	-0.528247	0.000045
C118	C	-0.005580	-0.278247	0.250045
C119	C	0.244420	-0.028247	0.500045
C120	C	0.494420	0.221753	0.750045
N121	N	-0.236456	-0.572583	0.000050
N122	N	0.013544	-0.322583	0.250050
N123	N	0.263544	-0.072583	0.500050
N124	N	0.513544	0.177417	0.750050
C125	C	-0.267747	-0.616405	0.000054
C126	C	-0.017747	-0.366405	0.250054
C127	C	0.232253	-0.116405	0.500054
C128	C	0.482253	0.133595	0.750054
C129	C	-0.714348	-0.523582	0.000027
C130	C	-0.464348	-0.273582	0.250027
C131	C	-0.214348	-0.023582	0.500027
C132	C	0.035652	0.226418	0.750027
C133	C	-0.764762	-0.523069	0.000027
C134	C	-0.514762	-0.273069	0.250027
C135	C	-0.264762	-0.023069	0.500027
C136	C	-0.014762	0.226931	0.750027
C137	C	-0.776930	-0.611230	0.000036
C138	C	-0.526930	-0.361230	0.250036
C139	C	-0.276930	-0.111230	0.500036
C140	C	-0.026930	0.138770	0.750036
C141	C	-0.726514	-0.611742	0.000040
C142	C	-0.476514	-0.361742	0.250040
C143	C	-0.226514	-0.111742	0.500040
C144	C	0.023486	0.138258	0.750040
C145	C	-0.695224	-0.567917	0.000031
C146	C	-0.445224	-0.317917	0.250031
C147	C	-0.195224	-0.067917	0.500031
C148	C	0.054776	0.182083	0.750031
C149	C	-0.161878	-0.617477	0.000064
C150	C	0.088122	-0.367477	0.250064
C151	C	0.338122	-0.117477	0.500064
C152	C	0.588122	0.132523	0.750064
C153	C	-0.111461	-0.617986	0.000071
C154	C	0.138539	-0.367986	0.250071
C155	C	0.388539	-0.117986	0.500071
C156	C	0.638539	0.132014	0.750071
C157	C	-0.099298	-0.529825	0.000059
C158	C	0.150702	-0.279825	0.250059
C159	C	0.400702	-0.029825	0.500059
C160	C	0.650702	0.220175	0.750059
C161	C	-0.149710	-0.529316	0.000055
C162	C	0.100290	-0.279316	0.250055
C163	C	0.350290	-0.029316	0.500055
C164	C	0.600290	0.220684	0.750055
C165	C	-0.180999	-0.573147	0.000056
C166	C	0.069001	-0.323147	0.250056
C167	C	0.319001	-0.073147	0.500056
C168	C	0.569001	0.176853	0.750056
O169	O	-0.224296	-0.491047	0.000057
O170	O	0.025704	-0.241047	0.250057
O171	O	0.275704	0.008953	0.500057
O172	O	0.525704	0.258953	0.750057
O173	O	-0.246844	-0.654156	0.000053
O174	O	0.003156	-0.404156	0.250053
O175	O	0.253156	-0.154156	0.500053
O176	O	0.503156	0.095844	0.750053
C177	C	-0.469397	-0.614355	0.000041
C178	C	-0.219397	-0.364355	0.250041
C179	C	0.030603	-0.114355	0.500041
C180	C	0.280603	0.135645	0.750041
C181	C	-0.488518	-0.570021	0.000032
C182	C	-0.238518	-0.320021	0.250032
C183	C	0.011482	-0.070021	0.500032
C184	C	0.261482	0.179979	0.750032
C185	C	-0.457228	-0.526198	0.000027
C186	C	-0.207228	-0.276198	0.250027
C187	C	0.042772	-0.026198	0.500027
C188	C	0.292772	0.223802	0.750027
C189	C	-0.538933	-0.569508	0.000032
C190	C	-0.288933	-0.319508	0.250032
C191	C	-0.038933	-0.069508	0.500032
C192	C	0.211067	0.180492	0.750032
C193	C	-0.570223	-0.613330	0.000036
C194	C	-0.320223	-0.363330	0.250036
C195	C	-0.070223	-0.113330	0.500036
C196	C	0.179777	0.136670	0.750036
C197	C	-0.551100	-0.657665	0.000041
C198	C	-0.301100	-0.407665	0.250041
C199	C	-0.051100	-0.157665	0.500041
C200	C	0.198900	0.092335	0.750041
C201	C	-0.500688	-0.658177	0.000045
C202	C	-0.250688	-0.408177	0.250045
C203	C	-0.000688	-0.158177	0.500045
C204	C	0.249312	0.091823	0.750045
C205	C	-0.476351	-0.481863	0.000023
C206	C	-0.226351	-0.231863	0.250023
C207	C	0.023649	0.018137	0.500023
C208	C	0.273649	0.268137	0.750023
C209	C	-0.526764	-0.481355	0.000019
C210	C	-0.276764	-0.231355	0.250019
C211	C	-0.026764	0.018645	0.500019
C212	C	0.223236	0.268645	0.750019
C213	C	-0.558054	-0.525177	0.000023
C214	C	-0.308054	-0.275177	0.250023
C215	C	-0.058054	-0.025177	0.500023
C216	C	0.191946	0.224823	0.750023
C217	C	0.057699	-0.658931	0.000060
C218	C	0.307699	-0.408931	0.250060
C219	C	0.557699	-0.158931	0.500060
C220	C	0.807699	0.091069	0.750060
C221	C	0.058252	-0.712586	0.000062
C222	C	0.308252	-0.462586	0.250062
C223	C	0.558252	-0.212586	0.500062
C224	C	0.808252	0.037414	0.750062
C225	C	0.150292	-0.566338	0.000039
C226	C	0.400292	-0.316338	0.250039
C227	C	0.650292	-0.066338	0.500039
C228	C	0.900292	0.183662	0.750039
C229	C	0.203947	-0.566891	0.000031
C230	C	0.453947	-0.316891	0.250031
C231	C	0.703947	-0.066891	0.500031
C232	C	0.953947	0.183109	0.750031
N233	N	0.061906	-0.570509	0.129298
N234	N	0.311906	-0.320509	0.379298
N235	N	0.561906	-0.070509	0.629298
N236	N	0.811906	0.179491	0.879298
C237	C	0.106229	-0.089654	0.000051
C238	C	0.356229	0.160346	0.250051
C239	C	0.606229	0.410346	0.500051
C240	C	0.856229	0.660346	0.750051
C241	C	0.104178	0.112006	0.000056
C242	C	0.354178	0.362006	0.250056
C243	C	0.604178	0.612006	0.500056
C244	C	0.854178	0.862006	0.750056
O245	O	0.141398	0.143262	0.000073
O246	O	0.391398	0.393262	0.250073
O247	O	0.641398	0.643262	0.500073
O248	O	0.891398	0.893262	0.750073
N249	N	0.059843	0.131130	0.000062
N250	N	0.309843	0.381130	0.250062
N251	N	0.559843	0.631130	0.500062
N252	N	0.809843	0.881130	0.750062
C253	C	0.016017	0.099835	0.000069
C254	C	0.266017	0.349835	0.250069
C255	C	0.516017	0.599835	0.500069
C256	C	0.766017	0.849835	0.750069
O257	O	-0.021740	0.120728	0.000079
O258	O	0.228260	0.370728	0.250079
O259	O	0.478260	0.620728	0.500079
O260	O	0.728260	0.870728	0.750079
C261	C	0.018068	-0.101824	0.000068
C262	C	0.268068	0.148176	0.250068
C263	C	0.518068	0.398176	0.500068
C264	C	0.768068	0.648176	0.750068
C265	C	0.062407	-0.120944	0.000057
C266	C	0.312407	0.129056	0.250057
C267	C	0.562407	0.379056	0.500057
C268	C	0.812407	0.629056	0.750057
C269	C	0.150563	-0.108775	0.000042
C270	C	0.400563	0.141225	0.250042
C271	C	0.650563	0.391225	0.500042
C272	C	0.900563	0.641225	0.750042
C273	C	0.151076	-0.159187	0.000038
C274	C	0.401076	0.090813	0.250038
C275	C	0.651076	0.340813	0.500038
C276	C	0.901076	0.590813	0.750038
C277	C	0.107253	-0.190477	0.000044
C278	C	0.357253	0.059523	0.250044
C279	C	0.607253	0.309523	0.500044
C280	C	0.857253	0.559523	0.750044
C281	C	0.062919	-0.171356	0.000054
C282	C	0.312919	0.078644	0.250054
C283	C	0.562919	0.328644	0.500054
C284	C	0.812919	0.578644	0.750054
C285	C	-0.025757	-0.133117	0.000079
C286	C	0.224243	0.116883	0.250079
C287	C	0.474243	0.366883	0.500079
C288	C	0.724243	0.616883	0.750079
C289	C	-0.025240	-0.183535	0.000080
C290	C	0.224760	0.066465	0.250080
C291	C	0.474760	0.316465	0.500080
C292	C	0.724760	0.566465	0.750080
C293	C	0.019098	-0.202655	0.000069
C294	C	0.269098	0.047345	0.250069
C295	C	0.519098	0.297345	0.500069
C296	C	0.769098	0.547345	0.750069
C297	C	0.019609	-0.253059	0.000056
C298	C	0.269609	-0.003059	0.250056
C299	C	0.519609	0.246941	0.500056
C300	C	0.769609	0.496941	0.750056
N301	N	0.063944	-0.272183	0.000050
N302	N	0.313944	-0.022183	0.250050
N303	N	0.563944	0.227817	0.500050
N304	N	0.813944	0.477817	0.750050
C305	C	0.107766	-0.240892	0.000044
C306	C	0.357766	0.009108	0.250044
C307	C	0.607766	0.259108	0.500044
C308	C	0.857766	0.509108	0.750044
C309	C	0.014943	0.205709	0.000069
C310	C	0.264943	0.455709	0.250069
C311	C	0.514943	0.705709	0.500069
C312	C	0.764943	0.955709	0.750069
C313	C	0.014430	0.256124	0.000068
C314	C	0.264430	0.506124	0.250068
C315	C	0.514430	0.756124	0.500068
C316	C	0.764430	1.006124	0.750068
C317	C	0.102591	0.268291	0.000056
C318	C	0.352591	0.518291	0.250056
C319	C	0.602591	0.768291	0.500056
C320	C	0.852591	1.018291	0.750056
C321	C	0.103104	0.217876	0.000053
C322	C	0.353104	0.467876	0.250053
C323	C	0.603104	0.717876	0.500053
C324	C	0.853104	0.967876	0.750053
C325	C	0.059278	0.186585	0.000063
C326	C	0.309278	0.436585	0.250063
C327	C	0.559278	0.686585	0.500063
C328	C	0.809278	0.936585	0.750063
C329	C	0.108839	-0.346761	0.000036
C330	C	0.358839	-0.096761	0.250036
C331	C	0.608839	0.153239	0.500036
C332	C	0.858839	0.403239	0.750036
C333	C	0.109347	-0.397178	0.000030
C334	C	0.359347	-0.147178	0.250030
C335	C	0.609347	0.102822	0.500030
C336	C	0.859347	0.352822	0.750030
C337	C	0.021186	-0.409341	0.000044
C338	C	0.271186	-0.159341	0.250044
C339	C	0.521186	0.090659	0.500044
C340	C	0.771186	0.340659	0.750044
C341	C	0.020678	-0.358929	0.000048
C342	C	0.270678	-0.108929	0.250048
C343	C	0.520678	0.141071	0.500048
C344	C	0.770678	0.391071	0.750048
C345	C	0.064508	-0.327639	0.000045
C346	C	0.314508	-0.077639	0.250045
C347	C	0.564508	0.172361	0.500045
C348	C	0.814508	0.422361	0.750045
O349	O	-0.017592	-0.284343	0.000045
O350	O	0.232408	-0.034343	0.250045
O351	O	0.482408	0.215657	0.500045
O352	O	0.732408	0.465657	0.750045
O353	O	0.145518	-0.261794	0.000045
O354	O	0.395518	-0.011794	0.250045
O355	O	0.645518	0.238206	0.500045
O356	O	0.895518	0.488206	0.750045
C357	C	0.105716	-0.039242	0.000055
C358	C	0.355716	0.210758	0.250055
C359	C	0.605716	0.460758	0.500055
C360	C	0.855716	0.710758	0.750055
C361	C	0.061382	-0.020120	0.000065
C362	C	0.311382	0.229880	0.250065
C363	C	0.561382	0.479880	0.500065
C364	C	0.811382	0.729880	0.750065
C365	C	0.017560	-0.051411	0.000071
C366	C	0.267560	0.198589	0.250071
C367	C	0.517560	0.448589	0.500071
C368	C	0.767560	0.698589	0.750071
C369	C	0.060869	0.030294	0.000065
C370	C	0.310869	0.280294	0.250065
C371	C	0.560869	0.530294	0.500065
C372	C	0.810869	0.780294	0.750065
C373	C	0.104691	0.061585	0.000059
C374	C	0.354691	0.311585	0.250059
C375	C	0.604691	0.561585	0.500059
C376	C	0.854691	0.811585	0.750059
C377	C	0.149026	0.042461	0.000053
C378	C	0.399026	0.292461	0.250053
C379	C	0.649026	0.542461	0.500053
C380	C	0.899026	0.792461	0.750053
C381	C	0.149539	-0.007951	0.000049
C382	C	0.399539	0.242049	0.250049
C383	C	0.649539	0.492049	0.500049
C384	C	0.899539	0.742049	0.750049
C385	C	-0.026775	-0.032287	0.000077
C386	C	0.223225	0.217713	0.250077
C387	C	0.473225	0.467713	0.500077
C388	C	0.723225	0.717713	0.750077
C389	C	-0.027284	0.018125	0.000080
C390	C	0.222716	0.268125	0.250080
C391	C	0.472716	0.518125	0.500080
C392	C	0.722716	0.768125	0.750080
C393	C	0.016538	0.049416	0.000074
C394	C	0.266538	0.299416	0.250074
C395	C	0.516538	0.549416	0.500074
C396	C	0.766538	0.799416	0.750074
N397	N	0.061867	-0.570549	-0.129196
N398	N	0.311867	-0.320549	0.120804
N399	N	0.561867	-0.070549	0.370804
N400	N	0.811867	0.179451	0.620804
C401	C	0.028781	-0.603640	0.473932
C402	C	0.278781	-0.353640	0.723932
C403	C	0.528781	-0.103640	0.973932
C404	C	0.778781	0.146360	1.223932
C405	C	0.028774	-0.603652	0.682810
C406	C	0.278774	-0.353652	0.932810
C407	C	0.528774	-0.103652	1.182810
C408	C	0.778774	0.146348	1.432810
O409	O	0.000613	-0.631801	0.709820
O410	O	0.250613	-0.381801	0.959820
O411	O	0.500613	-0.131801	1.209820
O412	O	0.750613	0.118199	1.459820
N413	N	0.061870	-0.570539	0.708925
N414	N	0.311870	-0.320539	0.958925
N415	N	0.561870	-0.070539	1.208925
N416	N	0.811870	0.179461	1.458925
C417	C	0.094969	-0.537419	0.682818
C418	C	0.344969	-0.287419	0.932818
C419	C	0.594969	-0.037419	1.182818
C420	C	0.844969	0.212581	1.432818
O421	O	0.123116	-0.509252	0.709824
O422	O	0.373116	-0.259252	0.959824
O423	O	0.623116	-0.009252	1.209824
O424	O	0.873116	0.240748	1.459824
C425	C	0.094974	-0.537406	0.473941
C426	C	0.344974	-0.287406	0.723941
C427	C	0.594974	-0.037406	0.973941
C428	C	0.844974	0.212594	1.223941
C429	C	0.061878	-0.570524	0.447829
C430	C	0.311878	-0.320524	0.697829
C431	C	0.561878	-0.070524	0.947829
C432	C	0.811878	0.179476	1.197829
C433	C	-0.004312	-0.636755	0.447819
C434	C	0.245688	-0.386755	0.697819
C435	C	0.495688	-0.136755	0.947819
C436	C	0.745688	0.113245	1.197819
C437	C	-0.004308	-0.636754	0.395603
C438	C	0.245692	-0.386754	0.645603
C439	C	0.495692	-0.136754	0.895603
C440	C	0.745692	0.113246	1.145603
C441	C	0.028789	-0.603637	0.369500
C442	C	0.278789	-0.353637	0.619500
C443	C	0.528789	-0.103637	0.869500
C444	C	0.778789	0.146363	1.119500
C445	C	0.061882	-0.570522	0.395612
C446	C	0.311882	-0.320522	0.645612
C447	C	0.561882	-0.070522	0.895612
C448	C	0.811882	0.179478	1.145612
C449	C	0.128070	-0.504284	0.447835
C450	C	0.378070	-0.254284	0.697835
C451	C	0.628070	-0.004284	0.947835
C452	C	0.878070	0.245716	1.197835
C453	C	0.128067	-0.504283	0.395613
C454	C	0.378067	-0.254283	0.645613
C455	C	0.628067	-0.004283	0.895613
C456	C	0.878067	0.245717	1.145613
C457	C	0.094972	-0.537401	0.369500
C458	C	0.344972	-0.287401	0.619500
C459	C	0.594972	-0.037401	0.869500
C460	C	0.844972	0.212599	1.119500
C461	C	0.094983	-0.537405	0.317293
C462	C	0.344983	-0.287405	0.567293
C463	C	0.594983	-0.037405	0.817293
C464	C	0.844983	0.212595	1.067293
N465	N	0.061887	-0.570517	0.291177
N466	N	0.311887	-0.320517	0.541177
N467	N	0.561887	-0.070517	0.791177
N468	N	0.811887	0.179483	1.041177
C469	C	0.028790	-0.603633	0.317281
C470	C	0.278790	-0.353633	0.567281
C471	C	0.528790	-0.103633	0.817281
C472	C	0.778790	0.146367	1.067281
C473	C	0.094965	-0.537429	0.792481
C474	C	0.344965	-0.287429	1.042481
C475	C	0.594965	-0.037429	1.292481
C476	C	0.844965	0.212571	1.542481
C477	C	0.094964	-0.537433	0.844700
C478	C	0.344964	-0.287433	1.094700
C479	C	0.594964	-0.037433	1.344700
C480	C	0.844964	0.212567	1.594700
C481	C	0.028768	-0.603665	0.844689
C482	C	0.278768	-0.353665	1.094689
C483	C	0.528768	-0.103665	1.344689
C484	C	0.778768	0.146335	1.594689
C485	C	0.028772	-0.603663	0.792469
C486	C	0.278772	-0.353663	1.042469
C487	C	0.528772	-0.103663	1.292469
C488	C	0.778772	0.146337	1.542469
C489	C	0.061868	-0.570542	0.766366
C490	C	0.311868	-0.320542	1.016366
C491	C	0.561868	-0.070542	1.266366
C492	C	0.811868	0.179458	1.516366
C493	C	0.028801	-0.603628	0.207623
C494	C	0.278801	-0.353628	0.457623
C495	C	0.528801	-0.103628	0.707623
C496	C	0.778801	0.146372	0.957623
C497	C	0.028809	-0.603625	0.155402
C498	C	0.278809	-0.353625	0.405402
C499	C	0.528809	-0.103625	0.655402
C500	C	0.778809	0.146375	0.905402
C501	C	0.095003	-0.537392	0.155418
C502	C	0.345003	-0.287392	0.405418
C503	C	0.595003	-0.037392	0.655418
C504	C	0.845003	0.212608	0.905418
C505	C	0.094997	-0.537396	0.207635
C506	C	0.344997	-0.287396	0.457635
C507	C	0.594997	-0.037396	0.707635
C508	C	0.844997	0.212604	0.957635
C509	C	0.061892	-0.570516	0.233735
C510	C	0.311892	-0.320516	0.483735
C511	C	0.561892	-0.070516	0.733735
C512	C	0.811892	0.179484	0.983735
O513	O	0.123126	-0.509266	0.290250
O514	O	0.373126	-0.259266	0.540250
O515	O	0.623126	-0.009266	0.790250
O516	O	0.873126	0.240734	1.040250
O517	O	0.000640	-0.631789	0.290266
O518	O	0.250640	-0.381789	0.540266
O519	O	0.500640	-0.131789	0.790266
O520	O	0.750640	0.118211	1.040266
C521	C	0.028777	-0.603642	0.526149
C522	C	0.278777	-0.353642	0.776149
C523	C	0.528777	-0.103642	1.026149
C524	C	0.778777	0.146358	1.276149
C525	C	0.061870	-0.570527	0.552261
C526	C	0.311870	-0.320527	0.802261
C527	C	0.561870	-0.070527	1.052261
C528	C	0.811870	0.179473	1.302261
C529	C	0.094968	-0.537410	0.526158
C530	C	0.344968	-0.287410	0.776158
C531	C	0.594968	-0.037410	1.026158
C532	C	0.844968	0.212590	1.276158
C533	C	0.061870	-0.570531	0.604480
C534	C	0.311870	-0.320531	0.854480
C535	C	0.561870	-0.070531	1.104480
C536	C	0.811870	0.179469	1.354480
C537	C	0.028773	-0.603647	0.630584
C538	C	0.278773	-0.353647	0.880584
C539	C	0.528773	-0.103647	1.130584
C540	C	0.778773	0.146353	1.380584
C541	C	-0.004324	-0.636759	0.604468
C542	C	0.245676	-0.386759	0.854468
C543	C	0.495676	-0.136759	1.104468
C544	C	0.745676	0.113241	1.354468
C545	C	-0.004320	-0.636758	0.552252
C546	C	0.245680	-0.386758	0.802252
C547	C	0.495680	-0.136758	1.052252
C548	C	0.745680	0.113242	1.302252
C549	C	0.128064	-0.504298	0.552273
C550	C	0.378064	-0.254298	0.802273
C551	C	0.628064	-0.004298	1.052273
C552	C	0.878064	0.245702	1.302273
C553	C	0.128058	-0.504303	0.604489
C554	C	0.378058	-0.254303	0.854489
C555	C	0.628058	-0.004303	1.104489
C556	C	0.878058	0.245697	1.354489
C557	C	0.094961	-0.537419	0.630593
C558	C	0.344961	-0.287419	0.880593
C559	C	0.594961	-0.037419	1.130593
C560	C	0.844961	0.212581	1.380593
H561	H	-0.095896	-0.654093	0.000080
H562	H	0.154104	-0.404093	0.250080
H563	H	0.404104	-0.154093	0.500080
H564	H	0.654104	0.095907	0.750080
H565	H	-0.542327	-0.445246	0.000015
H566	H	-0.292327	-0.195246	0.250015
H567	H	-0.042327	0.054754	0.500015
H568	H	0.207673	0.304754	0.750015
Br569	Br	0.168323	-0.304305	0.000033
Br570	Br	0.418323	-0.054305	0.250033
Br571	Br	0.668323	0.195695	0.500033
Br572	Br	0.918323	0.445695	0.750033
Br573	Br	0.139886	-0.492476	0.757062
Br574	Br	0.389886	-0.242476	1.007062
Br575	Br	0.639886	0.007524	1.257062
Br576	Br	0.889886	0.257524	1.507062
H577	H	-0.031266	-0.663722	0.469068
H578	H	0.218734	-0.413722	0.719068
H579	H	0.468734	-0.163722	0.969068
H580	H	0.718734	0.086278	1.219068
H581	H	-0.165279	-0.493213	0.000061
H582	H	0.084721	-0.243213	0.250061
H583	H	0.334721	0.006787	0.500061
H584	H	0.584721	0.256787	0.750061
Br585	Br	-0.038284	-0.451816	0.000053
Br586	Br	0.211716	-0.201816	0.250053
Br587	Br	0.461716	0.048184	0.500053
Br588	Br	0.711716	0.298184	0.750053
Br589	Br	-0.016145	-0.648610	0.757036
Br590	Br	0.233855	-0.398610	1.007036
Br591	Br	0.483855	-0.148610	1.257036
Br592	Br	0.733855	0.101390	1.507036
Br593	Br	-0.039496	-0.332978	0.000063
Br594	Br	0.210504	-0.082978	0.250063
Br595	Br	0.460504	0.167022	0.500063
Br596	Br	0.710504	0.417022	0.750063
H597	H	0.139207	0.202311	0.000047
H598	H	0.389207	0.452311	0.250047
H599	H	0.639207	0.702311	0.500047
H600	H	0.889207	0.952311	0.750047
H601	H	-0.780325	-0.486964	0.000028
H602	H	-0.530325	-0.236964	0.250028
H603	H	-0.280325	0.013036	0.500028
H604	H	-0.030325	0.263036	0.750028
H605	H	-0.187348	-0.653168	0.000063
H606	H	0.062652	-0.403168	0.250063
H607	H	0.312652	-0.153168	0.500063
H608	H	0.562652	0.096832	0.750063
Br609	Br	0.162064	0.310766	0.000049
Br610	Br	0.412064	0.560766	0.250049
Br611	Br	0.662064	0.810766	0.500049
Br612	Br	0.912064	1.060766	0.750049
Br613	Br	0.209715	-0.033892	0.000034
Br614	Br	0.459715	0.216108	0.250034
Br615	Br	0.709715	0.466108	0.500034
Br616	Br	0.959715	0.716108	0.750034
Br617	Br	-0.087463	0.044068	0.000086
Br618	Br	0.162537	0.294068	0.250086
Br619	Br	0.412537	0.544068	0.500086
Br620	Br	0.662537	0.794068	0.750086
H621	H	-0.688875	-0.487892	0.000020
H622	H	-0.438875	-0.237892	0.250020
H623	H	-0.188875	0.012108	0.500020
H624	H	0.061125	0.262108	0.750020
Br625	Br	-0.016107	-0.648575	0.119966
Br626	Br	0.233893	-0.398575	0.369966
Br627	Br	0.483893	-0.148575	0.619966
Br628	Br	0.733893	0.101425	0.869966
H629	H	0.121919	-0.510471	0.865958
H630	H	0.371919	-0.260471	1.115958
H631	H	0.621919	-0.010471	1.365958
H632	H	0.871919	0.239529	1.615958
H633	H	0.155015	-0.477330	0.531024
H634	H	0.405015	-0.227330	0.781024
H635	H	0.655015	0.022670	1.031024
H636	H	0.905015	0.272670	1.281024
Br637	Br	-0.086255	-0.074746	0.000087
Br638	Br	0.163745	0.175254	0.250087
Br639	Br	0.413745	0.425254	0.500087
Br640	Br	0.663745	0.675254	0.750087
Br641	Br	-0.045745	0.282067	0.000067
Br642	Br	0.204255	0.532067	0.250067
Br643	Br	0.454255	0.782067	0.500067
Br644	Br	0.704255	1.032067	0.750067
H645	H	-0.391080	-0.446777	0.000011
H646	H	-0.141080	-0.196777	0.250011
H647	H	0.108920	0.053223	0.500011
H648	H	0.358920	0.303223	0.750011
Br649	Br	-0.474746	-0.718354	0.000055
Br650	Br	-0.224746	-0.468354	0.250055
Br651	Br	0.025254	-0.218354	0.500055
Br652	Br	0.275254	0.031646	0.750055
Br653	Br	-0.433892	-0.422384	0.000014
Br654	Br	-0.183892	-0.172384	0.250014
Br655	Br	0.066108	0.077616	0.500014
Br656	Br	0.316108	0.327616	0.750014
H657	H	-0.020747	0.180236	0.000077
H658	H	0.229253	0.430236	0.250077
H659	H	0.479253	0.680236	0.500077
H660	H	0.729253	0.930236	0.750077
H661	H	0.145454	-0.412743	0.000021
H662	H	0.395454	-0.162743	0.250021
H663	H	0.645454	0.087257	0.500021
H664	H	0.895454	0.337257	0.750021
Br665	Br	0.208499	0.084937	0.000041
Br666	Br	0.458499	0.334937	0.250041
Br667	Br	0.708499	0.584937	0.500041
Br668	Br	0.958499	0.834937	0.750041
Br669	Br	-0.323510	-0.719890	0.000058
Br670	Br	-0.073510	-0.469890	0.250058
Br671	Br	0.176490	-0.219890	0.500058
Br672	Br	0.426490	0.030110	0.750058
H673	H	0.001820	-0.630630	0.865951
H674	H	0.251820	-0.380630	1.115951
H675	H	0.501820	-0.130630	1.365951
H676	H	0.751820	0.119370	1.615951
Br677	Br	-0.593575	-0.717137	0.000051
Br678	Br	-0.343575	-0.467137	0.250051
Br679	Br	-0.093575	-0.217137	0.500051
Br680	Br	0.156425	0.032863	0.750051
Br681	Br	0.139920	-0.492451	0.119984
Br682	Br	0.389920	-0.242451	0.369984
Br683	Br	0.639920	0.007549	0.619984
Br684	Br	0.889920	0.257549	0.869984
Br685	Br	-0.084721	-0.225997	0.000096
Br686	Br	0.165279	0.024003	0.250096
Br687	Br	0.415279	0.274003	0.500096
Br688	Br	0.665279	0.524003	0.750096
H689	H	0.155019	-0.477317	0.469089
H690	H	0.405019	-0.227317	0.719089
H691	H	0.655019	0.022683	0.969089
H692	H	0.905019	0.272683	1.219089
H693	H	-0.031269	-0.663725	0.530995
H694	H	0.218731	-0.413725	0.780995
H695	H	0.468731	-0.163725	1.030995
H696	H	0.718731	0.086275	1.280995
H697	H	0.001843	-0.630597	0.228868
H698	H	0.251843	-0.380597	0.478868
H699	H	0.501843	-0.130597	0.728868
H700	H	0.751843	0.119403	0.978868
H701	H	-0.031271	-0.663726	0.625730
H702	H	0.218729	-0.413726	0.875730
H703	H	0.468729	-0.163726	1.125730
H704	H	0.718729	0.086274	1.375730
H705	H	0.155018	-0.477310	0.374362
H706	H	0.405018	-0.227310	0.624362
H707	H	0.655018	0.022690	0.874362
H708	H	0.905018	0.272690	1.124362
Br709	Br	-0.049227	-0.681698	0.360170
Br710	Br	0.200773	-0.431698	0.610170
Br711	Br	0.450773	-0.181698	0.860170
Br712	Br	0.700773	0.068302	1.110170
Br713	Br	0.211252	-0.185128	0.000026
Br714	Br	0.461252	0.064872	0.250026
Br715	Br	0.711252	0.314872	0.500026
Br716	Br	0.961252	0.564872	0.750026
Br717	Br	0.139920	-0.492456	0.243072
Br718	Br	0.389920	-0.242456	0.493072
Br719	Br	0.639920	0.007544	0.743072
Br720	Br	0.889920	0.257544	0.993072
H721	H	0.155012	-0.477335	0.625747
H722	H	0.405012	-0.227335	0.875747
H723	H	0.655012	0.022665	1.125747
H724	H	0.905012	0.272665	1.375747
H725	H	-0.061861	-0.117558	0.000088
H726	H	0.188139	0.132442	0.250088
H727	H	0.438139	0.382442	0.500088
H728	H	0.688139	0.632442	0.750088
Br729	Br	-0.282641	-0.423918	0.000007
Br730	Br	-0.032641	-0.173918	0.250007
Br731	Br	0.217359	0.076082	0.500007
Br732	Br	0.467359	0.326082	0.750007
H733	H	-0.425336	-0.694889	0.000056
H734	H	-0.175336	-0.444889	0.250056
H735	H	0.074664	-0.194889	0.500056
H736	H	0.324664	0.055111	0.750056
H737	H	-0.710950	-0.647846	0.000047
H738	H	-0.460950	-0.397846	0.250047
H739	H	-0.210950	-0.147846	0.500047
H740	H	0.039050	0.102154	0.750047
H741	H	-0.073812	-0.494146	0.000057
H742	H	0.176188	-0.244146	0.250057
H743	H	0.426188	0.005854	0.500057
H744	H	0.676188	0.255854	0.750057
H745	H	-0.802415	-0.646911	0.000040
H746	H	-0.552415	-0.396911	0.250040
H747	H	-0.302415	-0.146911	0.500040
H748	H	-0.052415	0.103089	0.750040
H749	H	0.186251	-0.083302	0.000038
H750	H	0.436251	0.166698	0.250038
H751	H	0.686251	0.416698	0.500038
H752	H	0.936251	0.666698	0.750038
