data_functionalizedCrystal
_audit_creation_method	'MofGen! by Chris Wilmer'
_symmetry_space_group_name_H-M	'P1'
_symmetry_Int_Tables_number	1
_symmetry_cell_setting	triclinic
loop_
_symmetry_equiv_pos_as_xyz
  x,y,z
_cell_length_a	16.109301
_cell_length_b	17.019294
_cell_length_c	15.186229
_cell_angle_alpha	86.117288
_cell_angle_beta	89.999006
_cell_angle_gamma	83.427995
loop_
_atom_site_label
_atom_site_type_symbol
_atom_site_fract_x
_atom_site_fract_y
_atom_site_fract_z
O1	O	1.103039	0.101396	-0.080867
O2	O	1.353039	0.351396	0.169133
O3	O	1.603039	0.601396	0.419133
O4	O	1.853039	0.851396	0.669133
O5	O	0.860966	0.114014	-0.081837
O6	O	1.110966	0.364014	0.168163
O7	O	1.360966	0.614014	0.418163
O8	O	1.610966	0.864014	0.668163
O9	O	0.988756	-0.007130	-0.072640
O10	O	1.238756	0.242870	0.177360
O11	O	1.488756	0.492870	0.427360
O12	O	1.738756	0.742870	0.677360
O13	O	0.975249	0.222539	-0.090064
O14	O	1.225249	0.472539	0.159936
O15	O	1.475249	0.722539	0.409936
O16	O	1.725249	0.972539	0.659936
O17	O	0.988747	-0.007131	0.073818
O18	O	1.238747	0.242869	0.323818
O19	O	1.488747	0.492869	0.573818
O20	O	1.738747	0.742869	0.823818
O21	O	0.860957	0.114012	0.064621
O22	O	1.110957	0.364012	0.314621
O23	O	1.360957	0.614012	0.564621
O24	O	1.610957	0.864012	0.814621
O25	O	1.103031	0.101394	0.065590
O26	O	1.353031	0.351394	0.315590
O27	O	1.603031	0.601394	0.565590
O28	O	1.853031	0.851394	0.815590
Zn29	Zn	0.981993	0.107703	0.088359
Zn30	Zn	1.231993	0.357703	0.338359
Zn31	Zn	1.481993	0.607703	0.588359
Zn32	Zn	1.731993	0.857703	0.838359
Zn33	Zn	0.982004	0.107705	-0.104605
Zn34	Zn	1.232004	0.357705	0.145395
Zn35	Zn	1.482004	0.607705	0.395395
Zn36	Zn	1.732004	0.857705	0.645395
O37	O	0.975241	0.222537	0.056393
O38	O	1.225241	0.472537	0.306393
O39	O	1.475241	0.722537	0.556393
O40	O	1.725241	0.972537	0.806393
C41	C	0.829987	0.113502	-0.008571
C42	C	1.079987	0.363502	0.241429
C43	C	1.329987	0.613502	0.491429
C44	C	1.579987	0.863502	0.741429
C45	C	0.737693	0.111969	-0.008459
C46	C	0.987693	0.361969	0.241541
C47	C	1.237693	0.611969	0.491541
C48	C	1.487693	0.861969	0.741541
C49	C	0.428635	0.178844	-0.013517
C50	C	0.678635	0.428844	0.236483
C51	C	0.928635	0.678844	0.486483
C52	C	1.178635	0.928844	0.736483
C53	C	0.515354	0.180291	-0.013632
C54	C	0.765354	0.430291	0.236368
C55	C	1.015354	0.680291	0.486368
C56	C	1.265354	0.930291	0.736368
C57	C	0.535356	0.036558	-0.002739
C58	C	0.785356	0.286558	0.247261
C59	C	1.035356	0.536558	0.497261
C60	C	1.285356	0.786558	0.747261
C61	C	0.448639	0.035112	-0.002631
C62	C	0.698639	0.285112	0.247369
C63	C	0.948639	0.535112	0.497369
C64	C	1.198639	0.785112	0.747369
C65	C	0.395280	0.106257	-0.008015
C66	C	0.645280	0.356257	0.241985
C67	C	0.895280	0.606257	0.491985
C68	C	1.145280	0.856257	0.741985
C69	C	0.568716	0.109151	-0.008239
C70	C	0.818716	0.359151	0.241761
C71	C	1.068716	0.609151	0.491761
C72	C	1.318716	0.859151	0.741761
C73	C	0.662741	0.110719	-0.008363
C74	C	0.912741	0.360719	0.241637
C75	C	1.162741	0.610719	0.491637
C76	C	1.412741	0.860719	0.741637
C77	C	0.301249	0.104689	-0.007893
C78	C	0.551249	0.354689	0.242107
C79	C	0.801249	0.604689	0.492107
C80	C	1.051249	0.854689	0.742107
C81	C	0.988239	-0.036520	0.002817
C82	C	1.238239	0.213480	0.252817
C83	C	1.488239	0.463480	0.502817
C84	C	1.738239	0.713480	0.752817
C85	C	0.986703	-0.124090	0.009455
C86	C	1.236703	0.125910	0.259455
C87	C	1.486703	0.375910	0.509455
C88	C	1.736703	0.625910	0.759455
C89	C	0.985988	-0.165225	-0.067260
C90	C	1.235988	0.084775	0.182740
C91	C	1.485988	0.334775	0.432740
C92	C	1.735988	0.584775	0.682740
C93	C	0.984539	-0.247505	-0.061021
C94	C	1.234539	0.002495	0.188979
C95	C	1.484539	0.252495	0.438979
C96	C	1.734539	0.502495	0.688979
C97	C	0.983811	-0.288650	0.021935
C98	C	1.233811	-0.038650	0.271935
C99	C	1.483811	0.211350	0.521935
C100	C	1.733811	0.461350	0.771935
C101	C	0.984524	-0.247509	0.098655
C102	C	1.234524	0.002491	0.348655
C103	C	1.484524	0.252491	0.598655
C104	C	1.734524	0.502491	0.848655
C105	C	0.985967	-0.165229	0.092415
C106	C	1.235967	0.084771	0.342415
C107	C	1.485967	0.334771	0.592415
C108	C	1.735967	0.584771	0.842415
C109	C	0.979449	-0.537082	0.044771
C110	C	1.229449	-0.287082	0.294771
C111	C	1.479449	-0.037082	0.544771
C112	C	1.729449	0.212918	0.794771
C113	C	0.978009	-0.619368	0.051006
C114	C	1.228009	-0.369368	0.301006
C115	C	1.478009	-0.119368	0.551006
C116	C	1.728009	0.130632	0.801006
C117	C	0.978022	-0.619358	-0.108671
C118	C	1.228022	-0.369358	0.141329
C119	C	1.478022	-0.119358	0.391329
C120	C	1.728022	0.130642	0.641329
C121	C	0.979470	-0.537077	-0.114904
C122	C	1.229470	-0.287077	0.135096
C123	C	1.479470	-0.037077	0.385096
C124	C	1.729470	0.212923	0.635096
C125	C	0.980178	-0.495943	-0.038183
C126	C	1.230178	-0.245943	0.211817
C127	C	1.480178	0.004057	0.461817
C128	C	1.730178	0.254057	0.711817
C129	C	0.982333	-0.372754	0.028315
C130	C	1.232333	-0.122754	0.278315
C131	C	1.482333	0.127246	0.528315
C132	C	1.732333	0.377246	0.778315
C133	C	0.981651	-0.411839	-0.044564
C134	C	1.231651	-0.161839	0.205436
C135	C	1.481651	0.088161	0.455436
C136	C	1.731651	0.338161	0.705436
C137	C	1.134009	0.101906	-0.007678
C138	C	1.384009	0.351906	0.242322
C139	C	1.634009	0.601906	0.492322
C140	C	1.884009	0.851906	0.742322
C141	C	1.226303	0.103438	-0.007795
C142	C	1.476303	0.353438	0.242205
C143	C	1.726303	0.603438	0.492205
C144	C	1.976303	0.853438	0.742205
C145	C	0.975757	0.251927	-0.019065
C146	C	1.225757	0.501927	0.230935
C147	C	1.475757	0.751927	0.480935
C148	C	1.725757	1.001927	0.730935
C149	C	0.977294	0.339497	-0.025709
C150	C	1.227294	0.589497	0.224291
C151	C	1.477294	0.839497	0.474291
C152	C	1.727294	1.089497	0.724291
N153	N	0.981991	0.107701	0.220052
N154	N	1.231991	0.357701	0.470052
N155	N	1.481991	0.607701	0.720052
N156	N	1.731991	0.857701	0.970052
N157	N	0.982012	0.107701	-0.236298
N158	N	1.232012	0.357701	0.013702
N159	N	1.482012	0.607701	0.263702
N160	N	1.732012	0.857701	0.513702
C161	C	1.038596	0.054076	0.449845
C162	C	1.288596	0.304076	0.699845
C163	C	1.538596	0.554076	0.949845
C164	C	1.788596	0.804076	1.199845
C165	C	1.038598	0.054075	0.542035
C166	C	1.288598	0.304075	0.792035
C167	C	1.538598	0.554075	1.042035
C168	C	1.788598	0.804075	1.292035
C169	C	0.925401	0.161328	0.533902
C170	C	1.175401	0.411328	0.783902
C171	C	1.425401	0.661328	1.033902
C172	C	1.675401	0.911328	1.283902
C173	C	0.925396	0.161325	0.441714
C174	C	1.175396	0.411325	0.691714
C175	C	1.425396	0.661325	0.941714
C176	C	1.675396	0.911325	1.191714
C177	C	0.981997	0.107700	0.399688
C178	C	1.231997	0.357700	0.649688
C179	C	1.481997	0.607700	0.899688
C180	C	1.731997	0.857700	1.149688
C181	C	0.982006	0.107701	0.584066
C182	C	1.232006	0.357701	0.834066
C183	C	1.482006	0.607701	1.084066
C184	C	1.732006	0.857701	1.334066
C185	C	0.982008	0.107699	0.684022
C186	C	1.232008	0.357699	0.934022
C187	C	1.482008	0.607699	1.184022
C188	C	1.732008	0.857699	1.434022
C189	C	0.981994	0.107701	0.299726
C190	C	1.231994	0.357701	0.549726
C191	C	1.481994	0.607701	0.799726
C192	C	1.731994	0.857701	1.049726
H193	H	0.542506	0.239398	-0.018113
H194	H	0.792506	0.489398	0.231887
H195	H	1.042506	0.739398	0.481887
H196	H	1.292506	0.989398	0.731887
H197	H	0.977412	-0.652865	0.118562
H198	H	1.227412	-0.402865	0.368562
H199	H	1.477412	-0.152865	0.618562
H200	H	1.727412	0.097135	0.868562
H201	H	0.578811	-0.021365	0.001647
H202	H	0.828811	0.228635	0.251647
H203	H	1.078811	0.478635	0.501647
H204	H	1.328811	0.728635	0.751647
H205	H	0.385192	0.236775	-0.017902
H206	H	0.635192	0.486775	0.232098
H207	H	0.885192	0.736775	0.482098
H208	H	1.135192	0.986775	0.732098
H209	H	0.879302	0.204993	0.400873
H210	H	1.129302	0.454993	0.650873
H211	H	1.379302	0.704993	0.900873
H212	H	1.629302	0.954993	1.150873
H213	H	1.084685	0.010408	0.582871
H214	H	1.334685	0.260408	0.832871
H215	H	1.584685	0.510408	1.082871
H216	H	1.834685	0.760408	1.332871
H217	H	0.421482	-0.024000	0.001847
H218	H	0.671482	0.226000	0.251847
H219	H	0.921482	0.476000	0.501847
H220	H	1.171482	0.726000	0.751847
H221	H	0.986585	-0.131731	-0.134812
H222	H	1.236585	0.118269	0.115188
H223	H	1.486585	0.368269	0.365188
H224	H	1.736585	0.618269	0.615188
H225	H	0.983960	-0.280994	-0.123490
H226	H	1.233960	-0.030994	0.126510
H227	H	1.483960	0.219006	0.376510
H228	H	1.733960	0.469006	0.626510
H229	H	0.980064	-0.503583	-0.182455
H230	H	1.230064	-0.253583	0.067545
H231	H	1.480064	-0.003583	0.317545
H232	H	1.730064	0.246417	0.567545
H233	H	0.980042	-0.503602	0.107243
H234	H	1.230042	-0.253602	0.357243
H235	H	1.480042	-0.003602	0.607243
H236	H	1.730042	0.246398	0.857243
H237	H	0.977444	-0.652859	-0.171132
H238	H	1.227444	-0.402859	0.078868
H239	H	1.477444	-0.152859	0.328868
H240	H	1.727444	0.097141	0.578868
H241	H	0.983926	-0.281015	0.166200
H242	H	1.233926	-0.031015	0.416200
H243	H	1.483926	0.218985	0.666200
H244	H	1.733926	0.468985	0.916200
H245	H	0.986537	-0.131736	0.154884
H246	H	1.236537	0.118264	0.404884
H247	H	1.486537	0.368264	0.654884
H248	H	1.736537	0.618264	0.904884
H249	H	0.982237	-0.378335	-0.112106
H250	H	1.232237	-0.128335	0.137894
H251	H	1.482237	0.121665	0.387894
H252	H	1.732237	0.371665	0.637894
H253	H	0.981743	-0.406264	0.095857
H254	H	1.231743	-0.156264	0.345857
H255	H	1.481743	0.093736	0.595857
H256	H	1.731743	0.343736	0.845857
H257	H	0.879319	0.204989	0.568129
H258	H	1.129319	0.454989	0.818129
H259	H	1.379319	0.704989	1.068129
H260	H	1.629319	0.954989	1.318129
H261	H	1.084683	0.010411	0.415630
H262	H	1.334683	0.260411	0.665630
H263	H	1.584683	0.510411	0.915630
H264	H	1.834683	0.760411	1.165630
