data_functionalizedCrystal
_audit_creation_method	'MofGen! by Chris Wilmer'
_symmetry_space_group_name_H-M	'P1'
_symmetry_Int_Tables_number	1
_symmetry_cell_setting	triclinic
loop_
_symmetry_equiv_pos_as_xyz
  x,y,z
_cell_length_a	16.992694
_cell_length_b	10.723024
_cell_length_c	15.455313
_cell_angle_alpha	92.691723
_cell_angle_beta	87.142206
_cell_angle_gamma	87.568046
loop_
_atom_site_label
_atom_site_type_symbol
_atom_site_fract_x
_atom_site_fract_y
_atom_site_fract_z
O1	O	1.045219	0.259622	-0.072018
O2	O	0.816920	0.256716	-0.072044
O3	O	0.936335	0.077046	-0.072027
O4	O	0.925803	0.439291	-0.072035
O5	O	0.929506	0.087275	0.072234
O6	O	0.810091	0.266945	0.072217
O7	O	1.038390	0.269851	0.072243
Cu8	Cu	0.923617	0.269332	0.085402
Cu9	Cu	0.931693	0.257235	-0.085203
O10	O	0.918974	0.449520	0.072226
C11	C	0.784273	0.258094	0.000083
C12	C	0.697169	0.246945	0.000074
C13	C	0.647507	0.354505	0.000072
C14	C	0.565663	0.344024	0.000084
C15	C	0.533484	0.225982	0.000092
C16	C	0.583152	0.118414	0.000096
C17	C	0.664993	0.128896	0.000090
C18	C	0.289651	0.182535	0.000116
C19	C	0.207803	0.172061	0.000119
C20	C	0.190320	0.397673	0.000109
C21	C	0.272165	0.408144	0.000098
C22	C	0.321825	0.300577	0.000107
N23	N	0.449827	0.215266	0.000102
N24	N	0.405480	0.311295	0.000103
C25	C	0.932154	0.035595	0.000102
C26	C	0.929861	-0.103157	0.000099
C27	C	0.996680	-0.172386	0.000105
C28	C	0.994312	-0.315793	0.000102
C29	C	1.071037	0.268473	0.000114
C30	C	1.158141	0.279621	0.000118
C31	C	0.923155	0.490971	0.000095
C32	C	0.925449	0.629723	0.000093
N33	N	0.917942	0.277840	0.205397
N34	N	0.937374	0.248717	-0.205198
C35	C	0.968692	0.201542	0.250798
C36	C	0.964408	0.207989	0.341605
C37	C	0.909377	0.290741	0.387010
C38	C	0.858622	0.367042	0.341602
C39	C	0.862903	0.360588	0.250797
C40	C	0.890899	0.318564	0.658589
C41	C	0.886624	0.325015	0.749401
C42	C	0.992409	0.165960	0.749398
C43	C	0.996689	0.159518	0.658590
C44	C	0.945931	0.235815	0.613191
N45	N	0.904999	0.297335	0.479830
N46	N	0.950306	0.229213	0.520373
H47	H	0.298359	0.504266	0.000082
H48	H	0.525232	0.431612	0.000082
H49	H	1.033733	0.103841	0.786370
H50	H	0.330075	0.094946	0.000124
O51	O	0.718561	0.012886	0.000098
H52	H	0.759050	0.008093	-0.058696
O53	O	0.799268	0.456305	0.390568
H54	H	0.804823	0.447988	0.461339
O55	O	0.851758	-0.165267	0.000098
H56	H	0.850192	-0.228478	-0.058698
O57	O	0.173094	0.044736	0.000141
H58	H	0.139006	0.030381	-0.058657
H59	H	1.041499	0.092135	0.621624
O60	O	0.136759	0.513688	0.000107
H61	H	0.145509	0.573960	0.058900
H62	H	1.055640	-0.125486	0.000117
H63	H	0.868243	-0.310778	0.000093
O64	O	0.808170	0.442886	0.201821
H65	H	0.769190	0.501523	0.248647
O66	O	1.070090	-0.394601	0.000111
H67	H	1.056339	-0.494871	0.000102
O68	O	1.028044	0.112282	0.201827
H69	H	1.062607	0.060301	0.248657
O70	O	0.827263	0.414263	0.798383
H71	H	0.766844	0.390943	0.780978
H72	H	0.556944	0.022302	0.000115
O73	O	1.019159	0.125721	0.390577
H74	H	1.058156	0.067114	0.343749
O75	O	0.836163	0.400863	0.609626
H76	H	0.797187	0.459499	0.656457
O77	O	0.682213	0.481825	0.000062
H78	H	0.716312	0.496160	0.058854
