data_functionalizedCrystal
_audit_creation_method	'MofGen! by Chris Wilmer'
_symmetry_space_group_name_H-M	'P1'
_symmetry_Int_Tables_number	1
_symmetry_cell_setting	triclinic
loop_
_symmetry_equiv_pos_as_xyz
  x,y,z
_cell_length_a	16.120530
_cell_length_b	25.639239
_cell_length_c	16.120256
_cell_angle_alpha	92.870449
_cell_angle_beta	90.128265
_cell_angle_gamma	87.134054
loop_
_atom_site_label
_atom_site_type_symbol
_atom_site_fract_x
_atom_site_fract_y
_atom_site_fract_z
Zn1	Zn	1.247329	-0.264893	-0.534538
Zn2	Zn	1.254246	-0.348122	-0.395471
Zn3	Zn	1.115324	-0.256055	-0.388456
Zn4	Zn	1.108202	-0.347643	-0.527441
O5	O	1.181275	-0.304178	-0.461477
O6	O	1.364612	-0.279833	-0.521996
O7	O	1.241692	-0.332411	-0.278175
O8	O	1.132920	-0.184066	-0.407869
O9	O	1.369693	-0.340981	-0.419824
O10	O	1.229905	-0.190559	-0.515195
O11	O	1.139627	-0.264770	-0.273021
O12	O	0.998014	-0.264306	-0.400987
O13	O	1.120783	-0.340164	-0.644748
O14	O	0.992782	-0.331595	-0.503098
O15	O	1.222999	-0.279368	-0.649962
O16	O	1.234787	-0.421220	-0.412942
O17	O	1.127489	-0.420868	-0.509900
C18	C	0.965226	-0.296940	-0.450512
C19	C	0.872798	-0.293856	-0.445841
C20	C	0.703571	-0.288214	-0.437320
C21	C	0.659817	-0.320183	-0.485694
C22	C	0.565653	-0.317044	-0.480953
C23	C	0.797744	-0.291352	-0.442060
C24	C	1.181137	-0.440015	-0.461431
C25	C	1.181153	-0.498130	-0.461444
C26	C	1.237279	-0.858676	-0.411088
C27	C	1.237311	-0.913282	-0.411101
O28	O	1.284888	-0.941668	-0.368238
N29	N	1.181419	-0.940424	-0.461539
C30	C	1.125497	-0.912958	-0.511974
O31	O	1.077959	-0.941059	-0.554877
C32	C	1.125470	-0.858354	-0.511965
C33	C	1.181360	-0.831214	-0.461517
C34	C	1.293166	-0.831536	-0.360646
C35	C	1.293133	-0.776934	-0.360632
C36	C	1.237213	-0.749472	-0.411061
C37	C	1.181327	-0.776612	-0.461504
C38	C	1.069552	-0.830889	-0.562404
C39	C	1.069530	-0.776281	-0.562391
C40	C	1.125421	-0.749141	-0.511943
C41	C	1.125375	-0.694548	-0.511919
N42	N	1.181267	-0.667405	-0.461481
C43	C	1.237186	-0.694868	-0.411052
C44	C	1.125559	-1.027631	-0.511990
C45	C	1.125581	-1.082234	-0.511995
C46	C	1.237396	-1.082554	-0.411123
C47	C	1.237369	-1.027950	-0.411114
C48	C	1.181451	-1.000489	-0.461552
C49	C	1.237112	-0.580199	-0.411026
C50	C	1.237072	-0.525592	-0.411015
C51	C	1.125260	-0.525277	-0.511889
C52	C	1.125297	-0.579879	-0.511898
C53	C	1.181230	-0.607339	-0.461464
O54	O	1.077824	-0.666127	-0.554763
O55	O	1.284723	-0.666761	-0.368164
C56	C	1.398168	-0.311446	-0.472484
C57	C	1.490595	-0.314543	-0.477175
C58	C	1.170325	-0.310699	-0.678371
C59	C	1.165659	-0.313477	-0.770798
C60	C	1.181435	-0.167813	-0.461541
C61	C	1.181504	-0.109701	-0.461569
C62	C	1.205608	-0.289675	-0.983785
C63	C	1.157112	-0.318528	-0.940018
C64	C	1.161869	-0.315717	-0.845855
C65	C	1.200852	-0.292485	-1.077956
C66	C	1.192230	-0.297647	-0.245428
C67	C	1.197058	-0.294727	-0.153010
H68	H	0.693076	-0.349910	-0.530669
C69	C	0.658646	-0.248062	-0.376560
H70	H	0.600335	-0.251200	-0.381301
H71	H	0.672244	-0.213776	-0.389522
H72	H	0.675630	-0.254450	-0.321364
C73	C	1.096200	-0.354753	-0.984924
H74	H	1.066396	-0.372484	-0.945079
H75	H	1.126307	-0.379588	-1.020424
H76	H	1.058309	-0.334529	-1.016966
H77	H	1.250696	-0.262865	-0.950539
C78	C	1.064035	-0.997428	-0.567464
H79	H	1.030751	-1.021417	-0.597496
H80	H	1.093965	-0.978251	-0.605336
H81	H	1.029420	-0.973990	-0.533779
H82	H	1.282585	-0.503497	-0.369931
H83	H	1.282660	-0.602551	-0.369960
H84	H	1.338645	-0.754840	-0.319556
H85	H	1.338706	-0.853890	-0.319580
H86	H	1.282880	-1.005856	-0.370036
H87	H	1.282932	-1.104924	-0.370064
H88	H	1.080062	-1.104326	-0.553066
C89	C	1.008078	-0.860731	-0.617903
H90	H	0.974784	-0.836548	-0.647939
H91	H	0.973482	-0.879897	-0.584244
H92	H	1.038046	-0.884154	-0.655783
C93	C	1.008019	-0.746077	-0.617874
H94	H	0.974738	-0.770064	-0.647913
H95	H	1.037957	-0.726899	-0.655739
H96	H	0.973400	-0.722639	-0.584192
H97	H	1.079789	-0.601978	-0.552979
H98	H	1.079729	-0.502909	-0.552946
