data_functionalizedCrystal
_audit_creation_method	'MofGen! by Chris Wilmer'
_symmetry_space_group_name_H-M	'P1'
_symmetry_Int_Tables_number	1
_symmetry_cell_setting	triclinic
loop_
_symmetry_equiv_pos_as_xyz
  x,y,z
_cell_length_a	14.519709
_cell_length_b	15.625950
_cell_length_c	14.185251
_cell_angle_alpha	122.248532
_cell_angle_beta	104.759120
_cell_angle_gamma	83.976701
loop_
_atom_site_label
_atom_site_type_symbol
_atom_site_fract_x
_atom_site_fract_y
_atom_site_fract_z
O1	O	0.206146	1.279921	0.382015
O2	O	0.197221	0.994792	0.278327
O3	O	0.068061	1.144918	0.332930
O4	O	0.335306	1.129795	0.327412
O5	O	0.108705	1.184605	0.514202
O6	O	0.237865	1.034479	0.459599
O7	O	0.246790	1.319607	0.563287
Cu8	Cu	0.246039	1.180667	0.527995
Cu9	Cu	0.197972	1.133733	0.313619
O10	O	0.375950	1.169481	0.508684
C11	C	0.213915	0.978145	0.355693
C12	C	0.203095	0.869414	0.316153
C13	C	0.278304	0.619854	0.680034
C14	C	0.268143	0.517671	0.642829
C15	C	0.223840	0.474457	0.445232
C16	C	0.234001	0.576638	0.482420
C17	C	0.261232	0.649329	0.599823
C18	C	0.216930	0.606113	0.402209
C19	C	0.227086	0.708285	0.439395
C20	C	0.254313	0.780982	0.556793
C21	C	0.271389	0.751501	0.637009
C22	C	0.189692	0.533421	0.284807
C23	C	0.172620	0.562896	0.204596
C24	C	0.182783	0.665069	0.241781
C25	C	0.210010	0.737766	0.359179
C26	C	0.165708	0.694550	0.161565
C27	C	0.175864	0.796723	0.198751
C28	C	0.220166	0.839939	0.396365
C29	C	0.053966	1.164057	0.423310
C30	C	-0.048586	1.161946	0.422543
C31	C	-0.424120	1.154166	0.419688
C32	C	-0.319635	1.156326	0.420481
C33	C	-0.236356	1.158056	0.421116
C34	C	-0.131865	1.160216	0.421907
C35	C	0.390044	1.150342	0.418302
C36	C	0.492595	1.152452	0.419062
C37	C	0.230095	1.336254	0.485918
C38	C	0.240914	1.444984	0.525451
N39	N	0.279846	1.213684	0.678777
C40	C	0.379106	1.310673	0.871568
C41	C	0.353514	1.285663	0.757448
C42	C	0.231738	1.166691	0.714206
C43	C	0.257317	1.191694	0.828325
C44	C	0.331002	1.263685	0.906998
C45	C	0.209214	1.144706	0.863756
C46	C	0.234794	1.169704	0.977864
C47	C	0.308478	1.241690	1.056543
C48	C	0.356583	1.288683	1.021107
C49	C	0.135533	1.072710	0.785079
C50	C	0.087430	1.025722	0.820509
C51	C	0.113005	1.050725	0.934621
C52	C	0.186689	1.122711	1.013300
C53	C	0.064901	1.003731	0.970057
C54	C	0.090481	1.028729	1.084166
C55	C	0.212270	1.147708	1.127408
N56	N	0.164166	1.100720	1.162839
H57	H	0.300492	0.679042	0.775634
H58	H	0.272267	1.206337	1.191472
C59	C	0.336082	1.268960	1.180480
C60	C	0.257414	1.307598	1.229269
C61	C	0.282808	1.332749	1.343445
H62	H	0.355929	1.210182	1.183014
H63	H	0.386819	1.318607	1.222309
H64	H	0.206693	1.257954	1.187452
H65	H	0.237556	1.366383	1.226766
H66	H	0.333545	1.382396	1.385273
H67	H	0.302656	1.273967	1.345967
H68	H	0.229439	1.358976	1.376565
H69	H	0.293577	0.810690	0.732609
H70	H	0.201663	0.415260	0.349643
H71	H	0.242355	0.899127	0.491965
C72	C	0.436637	1.366842	1.106352
C73	C	0.473304	1.402636	1.050901
C74	C	0.547053	1.474625	1.129387
H75	H	0.412673	1.421679	1.167258
H76	H	0.485768	1.336548	1.136287
H77	H	0.424182	1.432932	1.020983
H78	H	0.497286	1.347824	0.990002
H79	H	0.596184	1.444330	1.159323
H80	H	0.523081	1.529455	1.190290
H81	H	0.571946	1.498913	1.091773
C82	C	0.143113	0.483812	0.077181
C83	C	0.137893	0.388021	0.061779
C84	C	0.110728	0.315145	-0.055581
H85	H	0.082526	0.498905	0.045229
H86	H	0.188828	0.484253	0.039971
H87	H	0.092179	0.387583	0.098973
H88	H	0.198468	0.372897	0.093704
H89	H	0.156444	0.315586	-0.092791
H90	H	0.050143	0.330247	-0.087523
H91	H	0.107191	0.250142	-0.066048
C92	C	0.405828	1.336834	0.719218
C93	C	0.475816	1.405245	0.812549
C94	C	0.524018	1.452406	0.777377
H95	H	0.435037	1.287122	0.660174
H96	H	0.361837	1.372150	0.691108
H97	H	0.519800	1.369930	0.840642
H98	H	0.446633	1.454976	0.871602
H99	H	0.480027	1.487722	0.749267
H100	H	0.553221	1.402687	0.718332
H101	H	0.571505	1.498834	0.840698
H102	H	0.282068	0.493677	0.708155
C103	C	0.136279	0.615709	0.034062
C104	C	0.203766	0.616670	-0.020465
C105	C	0.176683	0.544065	-0.137923
H106	H	0.132684	0.550583	0.023245
H107	H	0.075723	0.630944	0.002184
H108	H	0.264305	0.601428	0.011403
H109	H	0.207371	0.681778	-0.009681
H110	H	0.116127	0.559300	-0.169800
H111	H	0.173087	0.478945	-0.148728
H112	H	0.222463	0.544714	-0.174935
H113	H	0.439103	1.369301	0.935632
C114	C	0.157509	0.828858	0.111790
C115	C	0.240432	0.875416	0.123442
C116	C	0.223552	0.905047	0.043364
H117	H	0.139877	0.771022	0.036489
H118	H	0.107446	0.875233	0.124882
H119	H	0.290479	0.829044	0.110341
H120	H	0.258077	0.933263	0.198725
H121	H	0.173489	0.951421	0.056457
H122	H	0.205919	0.847205	-0.031931
H123	H	0.279809	0.936647	0.051266
C124	C	-0.014971	0.925410	0.884627
C125	C	0.008482	0.832842	0.876512
C126	C	-0.065067	0.760665	0.797815
H127	H	-0.072424	0.947458	0.909805
H128	H	-0.023309	0.917180	0.811559
H129	H	0.016808	0.841073	0.949565
H130	H	0.065922	0.810764	0.851321
H131	H	-0.073404	0.752435	0.724746
H132	H	-0.122514	0.782722	0.823000
H133	H	-0.049160	0.697847	0.792290
C134	C	0.151860	1.088376	0.628780
C135	C	0.175304	0.995805	0.620658
C136	C	0.101746	0.923637	0.541967
H137	H	0.094412	1.110431	0.653966
H138	H	0.143518	1.080148	0.555712
H139	H	0.183634	1.004034	0.693711
H140	H	0.232740	0.973718	0.595458
H141	H	0.093405	0.915409	0.468898
H142	H	0.044303	0.945702	0.567160
H143	H	0.117646	0.860817	0.536437
C144	C	0.007551	0.947407	0.735084
C145	C	0.030995	0.854836	0.726961
C146	C	-0.042563	0.782668	0.648270
H147	H	-0.049897	0.969463	0.760269
H148	H	-0.000790	0.939179	0.662015
H149	H	0.039325	0.863065	0.800014
H150	H	0.088431	0.832750	0.701762
H151	H	-0.050904	0.774440	0.575202
H152	H	-0.100006	0.804733	0.673463
H153	H	-0.026662	0.719848	0.642741
H154	H	0.181428	0.450226	0.254534
H155	H	0.114713	1.052353	0.692164
C156	C	0.038091	0.977835	1.122630
C157	C	-0.058821	0.998640	1.104673
C158	C	-0.107108	0.951779	1.140104
H159	H	0.045338	0.906741	1.079619
H160	H	0.063821	1.003046	1.201871
H161	H	-0.084543	0.973424	1.025446
H162	H	-0.066097	1.069725	1.147682
H163	H	-0.081378	0.976990	1.219344
H164	H	-0.099853	0.880687	1.097090
H165	H	-0.172866	0.965896	1.127934
H166	H	0.262581	0.864177	0.587068
