data_functionalizedCrystal
_audit_creation_method	'MofGen! by Chris Wilmer'
_symmetry_space_group_name_H-M	'P1'
_symmetry_Int_Tables_number	1
_symmetry_cell_setting	triclinic
loop_
_symmetry_equiv_pos_as_xyz
  x,y,z
_cell_length_a	8.965430
_cell_length_b	15.995350
_cell_length_c	10.489741
_cell_angle_alpha	95.984226
_cell_angle_beta	90.000707
_cell_angle_gamma	90.000162
loop_
_atom_site_label
_atom_site_type_symbol
_atom_site_fract_x
_atom_site_fract_y
_atom_site_fract_z
O1	O	-0.123912	-1.111977	0.164399
O2	O	-0.123943	-0.868324	0.184701
O3	O	-0.123918	-0.995694	-0.011126
O4	O	-0.123937	-0.984606	0.360225
O5	O	0.124161	-0.995684	-0.011113
O6	O	0.124136	-0.868313	0.184714
O7	O	0.124167	-1.111966	0.164412
Cu8	Cu	0.146803	-0.990138	0.174564
Cu9	Cu	-0.146579	-0.990151	0.174549
O10	O	0.124142	-0.984595	0.360238
C11	C	0.000093	-0.837119	0.183868
C12	C	0.000081	-0.744153	0.181352
N13	N	0.353152	-0.990136	0.174574
N14	N	-0.352928	-0.990161	0.174528
C15	C	0.450447	-0.931213	0.265108
C16	C	0.549869	-1.007025	0.289857
C17	C	0.549858	-0.914356	0.149835
C18	C	0.450385	-1.065986	0.199381
C19	C	0.450366	-0.973267	0.059309
C20	C	0.549743	-1.049133	0.084009
C21	C	0.000121	-0.994852	-0.058639
C22	C	0.000118	-0.992346	-0.200234
C23	C	0.000128	-1.143171	0.165244
C24	C	0.000130	-1.236137	0.167761
C25	C	0.000113	-0.406351	0.172315
C26	C	0.000674	-0.452944	0.032851
C27	C	0.000104	-0.549650	0.035368
C28	C	0.000098	-0.573939	0.176797
C29	C	-0.141565	-0.533272	0.245578
C30	C	-0.141673	-0.436616	0.242075
C31	C	0.140439	-0.436282	0.244971
C32	C	0.142301	-0.533227	0.244938
C33	C	0.000085	-0.668651	0.179338
C34	C	0.000116	-0.311638	0.169778
C35	C	0.000097	-0.911304	-0.267240
C36	C	0.122417	-0.949582	-0.359891
C37	C	-0.122169	-0.949612	-0.359879
C38	C	0.122539	-1.030658	-0.291020
C39	C	-0.122157	-1.030676	-0.290998
C40	C	0.000193	-1.069013	-0.383624
C41	C	0.000100	-0.985438	0.407752
C42	C	0.000093	-0.987944	0.549346
H43	H	0.406848	-0.881430	0.341739
H44	H	0.593068	-1.099028	0.007424
H45	H	-0.225567	-1.064942	-0.260439
C46	C	-0.260192	-0.903894	-0.400306
C47	C	-0.345375	-0.877123	-0.291807
C48	C	-0.472534	-0.835009	-0.328993
H49	H	-0.230994	-0.856535	-0.441961
H50	H	-0.317883	-0.940854	-0.457464
H51	H	-0.287695	-0.840164	-0.234670
H52	H	-0.374612	-0.924464	-0.250139
H53	H	-0.530225	-0.871970	-0.386151
H54	H	-0.443322	-0.787655	-0.370649
H55	H	-0.530353	-0.816847	-0.255385
C56	C	0.391817	-0.954072	-0.070471
C57	C	0.303731	-0.881446	-0.054834
C58	C	0.249752	-0.863734	-0.174355
H59	H	0.473316	-0.945412	-0.125446
H60	H	0.333424	-0.999983	-0.107172
H61	H	0.362122	-0.835546	-0.018152
H62	H	0.222210	-0.890088	0.000118
H63	H	0.191359	-0.909645	-0.211056
H64	H	0.331260	-0.855077	-0.229321
H65	H	0.189969	-0.814461	-0.163760
H66	H	0.593556	-0.850260	0.128930
H67	H	0.101654	-0.577748	-0.018698
H68	H	0.593574	-1.021309	0.387315
C69	C	0.392347	-1.151396	0.227748
C70	C	0.305584	-1.141900	0.339299
C71	C	0.252130	-1.220557	0.365518
H72	H	0.333167	-1.175044	0.157992
H73	H	0.474134	-1.187545	0.239645
H74	H	0.223808	-1.105765	0.327394
H75	H	0.364731	-1.118266	0.409079
H76	H	0.333917	-1.256706	0.377416
H77	H	0.192956	-1.244199	0.295755
H78	H	0.193267	-1.214126	0.441214
H79	H	0.000211	-0.844671	-0.216656
C80	C	0.260112	-0.903762	-0.400765
C81	C	0.216356	-0.834103	-0.462196
C82	C	0.343153	-0.791875	-0.499874
H83	H	0.318202	-0.885435	-0.327406
H84	H	0.317706	-0.940699	-0.458038
H85	H	0.158787	-0.797173	-0.404926
H86	H	0.158284	-0.852406	-0.535570
H87	H	0.400746	-0.828811	-0.557147
H88	H	0.401234	-0.773553	-0.426508
H89	H	0.313482	-0.744611	-0.541569
H90	H	-0.100353	-0.433020	-0.022645
C91	C	0.282091	-0.569076	0.177872
C92	C	0.363776	-0.503940	0.131801
C93	C	0.492542	-0.536941	0.069995
H94	H	0.341390	-0.595793	0.236788
H95	H	0.254722	-0.608922	0.108258
H96	H	0.391147	-0.464109	0.201406
H97	H	0.304521	-0.477217	0.072868
H98	H	0.465174	-0.576787	0.000381
H99	H	0.551829	-0.563658	0.128919
H100	H	0.547974	-0.492753	0.038718
H101	H	0.141393	-0.405140	0.347797
C102	C	0.153403	-0.554588	0.382454
C103	C	0.032221	-0.605077	0.409436
C104	C	0.042373	-0.624759	0.536114
H105	H	0.243730	-0.584044	0.393410
H106	H	0.152137	-0.504229	0.439133
H107	H	0.033500	-0.655428	0.352774
H108	H	-0.058124	-0.575638	0.398509
H109	H	0.041107	-0.574400	0.592793
H110	H	0.132704	-0.654212	0.547059
H111	H	-0.039853	-0.659011	0.554442
C112	C	0.136186	-0.427652	-0.041290
C113	C	0.221658	-0.369752	0.036972
C114	C	0.346495	-0.346420	-0.031289
H115	H	0.194681	-0.476007	-0.066948
H116	H	0.104388	-0.402731	-0.115020
H117	H	0.253456	-0.394674	0.110678
H118	H	0.163207	-0.321384	0.062633
H119	H	0.314698	-0.321499	-0.105019
H120	H	0.404978	-0.394779	-0.056944
H121	H	0.404496	-0.307127	0.021797
C122	C	-0.135660	-0.586206	-0.037210
C123	C	-0.217495	-0.521206	-0.083503
C124	C	-0.342587	-0.554847	-0.150354
H125	H	-0.104259	-0.624741	-0.107089
H126	H	-0.196424	-0.614573	0.018736
H127	H	-0.156742	-0.492852	-0.139446
H128	H	-0.248934	-0.482665	-0.013651
H129	H	-0.403351	-0.583215	-0.094407
H130	H	-0.311172	-0.593383	-0.220226
H131	H	-0.398135	-0.510750	-0.181762
C132	C	-0.282981	-0.411731	0.175416
C133	C	-0.366181	-0.356300	0.259675
C134	C	-0.496373	-0.333374	0.198317
H135	H	-0.257296	-0.384970	0.101754
H136	H	-0.340562	-0.460546	0.150318
H137	H	-0.308611	-0.307494	0.284755
H138	H	-0.391905	-0.383044	0.333339
H139	H	-0.553955	-0.382188	0.173219
H140	H	-0.470673	-0.306616	0.124656
H141	H	-0.552847	-0.295768	0.255481
H142	H	-0.148106	-0.404985	0.344467
H143	H	0.226068	-1.064914	-0.260662
C144	C	-0.282015	-0.570890	0.181865
C145	C	-0.283784	-0.657711	0.189903
C146	C	-0.413126	-0.692395	0.131201
H147	H	-0.367268	-0.545981	0.224084
H148	H	-0.283284	-0.560443	0.094359
H149	H	-0.282529	-0.668151	0.277393
H150	H	-0.198561	-0.682642	0.147679
H151	H	-0.414396	-0.681948	0.043694
H152	H	-0.498370	-0.667480	0.173425
H153	H	-0.414337	-0.751307	0.136636
C154	C	0.000596	-1.157954	-0.450717
C155	C	0.128897	-1.199977	-0.415809
C156	C	0.129336	-1.281905	-0.477606
H157	H	-0.085365	-1.187065	-0.426136
H158	H	-0.000149	-1.155909	-0.540906
H159	H	0.129629	-1.202026	-0.325639
H160	H	0.214879	-1.170891	-0.440392
H161	H	0.128591	-1.279860	-0.567795
H162	H	0.043370	-1.311008	-0.453020
H163	H	0.216393	-1.310425	-0.453939
H164	H	-0.146836	-0.548024	0.349483
H165	H	0.247816	-0.415467	0.199383
