data_functionalizedCrystal
_audit_creation_method	'MofGen! by Chris Wilmer'
_symmetry_space_group_name_H-M	'P1'
_symmetry_Int_Tables_number	1
_symmetry_cell_setting	triclinic
loop_
_symmetry_equiv_pos_as_xyz
  x,y,z
_cell_length_a	18.215407
_cell_length_b	18.215404
_cell_length_c	18.215399
_cell_angle_alpha	89.970747
_cell_angle_beta	90.014360
_cell_angle_gamma	89.979339
loop_
_atom_site_label
_atom_site_type_symbol
_atom_site_fract_x
_atom_site_fract_y
_atom_site_fract_z
Zn1	Zn	1.125059	0.293025	0.416073
Zn2	Zn	1.124977	0.416101	0.293009
Zn3	Zn	1.001998	0.293047	0.293026
Zn4	Zn	1.001961	0.416048	0.416039
O5	O	1.063498	0.354555	0.354537
O6	O	1.228032	0.309363	0.399756
O7	O	1.108645	0.399809	0.190027
O8	O	1.018372	0.190060	0.309369
O9	O	1.227972	0.399787	0.309341
O10	O	1.108784	0.190043	0.399772
O11	O	1.018292	0.309402	0.190039
O12	O	0.899008	0.309351	0.309337
O13	O	1.018308	0.399697	0.519028
O14	O	0.898981	0.399720	0.399714
O15	O	1.108748	0.309312	0.519053
O16	O	1.108609	0.519078	0.309308
O17	O	1.018229	0.519040	0.399698
C18	C	0.872292	0.354533	0.354524
C19	C	0.790493	0.354541	0.354536
C20	C	1.063426	0.545762	0.354514
C21	C	1.063463	0.627560	0.354529
C22	C	0.602330	0.307554	0.401689
C23	C	0.525471	0.307560	0.401692
C24	C	0.525419	0.401577	0.307398
C25	C	0.602277	0.401567	0.307392
C26	C	0.640730	0.354556	0.354542
C27	C	0.487014	0.354573	0.354550
C28	C	0.403680	0.354580	0.354552
C29	C	0.724069	0.354548	0.354539
C30	C	1.110664	0.892614	0.307574
C31	C	1.110633	0.815755	0.307554
C32	C	1.016434	0.815756	0.401595
C33	C	1.016462	0.892613	0.401611
C34	C	1.063581	0.931040	0.354601
C35	C	1.063522	0.777324	0.354565
C36	C	1.063488	0.693990	0.354543
C37	C	1.063615	1.014379	0.354622
C38	C	1.255451	0.354579	0.354550
C39	C	1.337250	0.354588	0.354556
C40	C	1.063533	0.354497	0.546490
C41	C	1.063548	0.354471	0.628289
C42	C	1.063594	1.162602	0.354587
C43	C	1.063641	1.080803	0.354638
C44	C	1.063506	0.354561	0.163331
C45	C	1.063634	0.354379	0.081532
C46	C	1.016541	0.307365	0.816490
C47	C	1.016554	0.307350	0.893349
C48	C	1.110643	0.401490	0.893325
C49	C	1.110626	0.401508	0.816468
C50	C	1.063576	0.354441	0.778052
C51	C	1.063606	0.354409	0.931769
C52	C	1.063620	0.354393	1.015102
C53	C	1.063561	0.354458	0.694713
H54	H	0.494209	0.269285	0.440082
H55	H	1.148949	0.439810	0.924613
C56	C	1.162484	0.934885	0.255860
H57	H	1.155763	0.986162	0.262608
H58	H	1.151741	0.922331	0.206402
H59	H	1.211922	0.922245	0.266677
H60	H	0.978119	0.923901	0.439907
H61	H	1.148929	0.439847	0.785171
H62	H	0.633543	0.439842	0.268995
H63	H	0.978253	0.269016	0.924641
C64	C	0.483119	0.453291	0.255544
H65	H	0.431845	0.446572	0.262304
H66	H	0.495699	0.442463	0.206114
H67	H	0.495709	0.502751	0.266235
H68	H	1.148971	0.784470	0.269259
C69	C	0.644626	0.255839	0.453546
H70	H	0.610745	0.227843	0.481620
H71	H	0.674613	0.284022	0.485562
H72	H	0.674604	0.223733	0.425441
C73	C	0.964615	0.773484	0.453307
H74	H	0.971346	0.722206	0.446569
H75	H	0.915179	0.786121	0.442496
H76	H	0.975363	0.786038	0.502769
H77	H	0.978230	0.269040	0.785214
