data_functionalizedCrystal
_audit_creation_method	'MofGen! by Chris Wilmer'
_symmetry_space_group_name_H-M	'P1'
_symmetry_Int_Tables_number	1
_symmetry_cell_setting	triclinic
loop_
_symmetry_equiv_pos_as_xyz
  x,y,z
_cell_length_a	19.288840
_cell_length_b	11.792241
_cell_length_c	18.366186
_cell_angle_alpha	89.993644
_cell_angle_beta	89.983729
_cell_angle_gamma	83.659716
loop_
_atom_site_label
_atom_site_type_symbol
_atom_site_fract_x
_atom_site_fract_y
_atom_site_fract_z
O1	O	0.922167	0.141447	-0.060672
O2	O	0.720013	0.160576	-0.060646
O3	O	0.825996	-0.014235	-0.060655
O4	O	0.816184	0.316257	-0.060664
O5	O	0.825978	-0.014243	0.060445
O6	O	0.719995	0.160567	0.060453
O7	O	0.922149	0.141438	0.060428
Zn8	Zn	0.821069	0.151001	0.079667
Zn9	Zn	0.821093	0.151012	-0.079886
O10	O	0.816166	0.316248	0.060436
C11	C	0.694124	0.159961	-0.000094
C12	C	0.617009	0.158127	-0.000084
C13	C	0.580810	0.157251	-0.066097
C14	C	0.508353	0.155516	-0.066106
C15	C	0.472100	0.154634	-0.000098
C16	C	0.508307	0.155516	0.065924
C17	C	0.580761	0.157263	0.065931
C18	C	0.362371	0.085386	0.050465
C19	C	0.289918	0.083632	0.050456
C20	C	0.248625	0.149251	-0.000117
C21	C	0.279795	0.216610	-0.050691
C22	C	0.352250	0.218356	-0.050684
C23	C	0.393535	0.152740	-0.000098
C24	C	0.133861	0.146495	-0.066144
C25	C	0.061402	0.144767	-0.066150
C26	C	0.061358	0.144756	0.065882
C27	C	0.133814	0.146496	0.065886
C28	C	0.170062	0.147360	-0.000129
C29	C	0.825370	-0.056520	-0.000105
C30	C	0.823526	-0.182506	-0.000106
C31	C	0.820134	-0.413166	-0.000117
C32	C	0.822018	-0.284810	-0.000111
C33	C	0.948038	0.142053	-0.000127
C34	C	1.025153	0.143887	-0.000141
C35	C	0.816792	0.358534	-0.000115
C36	C	0.818636	0.484519	-0.000120
N37	N	0.821058	0.150993	0.188559
N38	N	0.821110	0.151012	-0.188777
C39	C	0.868003	0.073625	0.226655
C40	C	0.868007	0.073620	0.302883
C41	C	0.821073	0.151002	0.341011
C42	C	0.774120	0.228376	0.302905
C43	C	0.774112	0.228371	0.226679
C44	C	0.812362	0.254415	0.461770
C45	C	0.812375	0.254421	0.537994
C46	C	0.821093	0.151016	0.576119
C47	C	0.829813	0.047601	0.538009
C48	C	0.829806	0.047597	0.461783
C49	C	0.821076	0.151015	0.423666
C50	C	0.868045	0.073636	0.696871
C51	C	0.868045	0.073630	0.773100
C52	C	0.774161	0.228396	0.773120
C53	C	0.774158	0.228393	0.696893
C54	C	0.821104	0.151014	0.658772
H55	H	0.610318	0.157955	-0.119851
O56	O	0.172963	0.147447	-0.137340
H57	H	0.135614	0.146567	-0.183247
H58	H	0.906270	0.010626	0.665832
H59	H	0.377625	0.273205	-0.091862
H60	H	0.906271	0.010621	0.804119
O61	O	0.469306	0.154557	-0.137313
H62	H	0.430390	0.231101	-0.140487
O63	O	0.256307	0.010977	0.105000
H64	H	0.198989	0.020771	0.096492
H65	H	0.805251	0.338624	0.430735
O66	O	0.918634	-0.009839	0.185544
H67	H	0.910747	0.003158	0.126137
H68	H	0.031930	0.144060	-0.119908
O69	O	0.918649	-0.009818	0.343988
H70	H	0.951295	-0.063617	0.304674
O71	O	0.723538	0.311865	0.814232
H72	H	0.731432	0.298877	0.873638
O73	O	0.723500	0.311848	0.344022
H74	H	0.731397	0.298863	0.403429
O75	O	0.723482	0.311830	0.185581
H76	H	0.690847	0.365644	0.224897
O77	O	0.235270	0.287401	-0.105240
H78	H	0.179650	0.274887	-0.096744
O79	O	0.723532	0.311853	0.655795
H80	H	0.690900	0.365670	0.695111
H81	H	0.031840	0.144045	0.119627
O82	O	0.172863	0.147457	0.137086
H83	H	0.135483	0.146555	0.182986
H84	H	0.395987	0.031947	0.091651
H85	H	0.805279	0.338627	0.569018
O86	O	0.469072	0.154706	0.137043
H87	H	0.488755	0.077756	0.168815
H88	H	0.836904	-0.036607	0.430756
O89	O	0.619810	0.158223	0.137133
H90	H	0.582431	0.157323	0.183034
H91	H	0.836912	-0.036600	0.569048
