data_functionalizedCrystal
_audit_creation_method	'MofGen! by Chris Wilmer'
_symmetry_space_group_name_H-M	'P1'
_symmetry_Int_Tables_number	1
_symmetry_cell_setting	triclinic
loop_
_symmetry_equiv_pos_as_xyz
  x,y,z
_cell_length_a	15.995300
_cell_length_b	15.995362
_cell_length_c	15.072220
_cell_angle_alpha	90.008704
_cell_angle_beta	90.007385
_cell_angle_gamma	96.515406
loop_
_atom_site_label
_atom_site_type_symbol
_atom_site_fract_x
_atom_site_fract_y
_atom_site_fract_z
O1	O	1.111019	-0.107715	0.073804
O2	O	1.611019	0.392285	0.573804
O3	O	0.867239	-0.121087	0.073798
O4	O	1.367239	0.378913	0.573798
O5	O	0.995788	0.007487	0.073807
O6	O	1.495788	0.507487	0.573807
O7	O	0.982470	-0.236289	0.073794
O8	O	1.482470	0.263711	0.573794
O9	O	0.995771	0.007471	-0.073758
O10	O	1.495771	0.507471	0.426242
O11	O	0.867222	-0.121103	-0.073768
O12	O	1.367222	0.378897	0.426232
O13	O	1.111003	-0.107731	-0.073761
O14	O	1.611003	0.392269	0.426239
Zn15	Zn	0.989110	-0.114420	-0.097193
Zn16	Zn	1.489110	0.385580	0.402807
Zn17	Zn	0.989132	-0.114398	0.097230
Zn18	Zn	1.489132	0.385602	0.597230
O19	O	0.982454	-0.236305	-0.073771
O20	O	1.482454	0.263695	0.426229
C21	C	0.836035	-0.120549	0.000014
C22	C	1.336035	0.379451	0.500014
C23	C	0.743082	-0.118914	0.000012
C24	C	1.243082	0.381086	0.500012
C25	C	0.572899	-0.115895	0.000019
C26	C	1.072899	0.384105	0.500019
C27	C	0.525437	-0.207442	0.000012
C28	C	1.025437	0.292558	0.500012
C29	C	0.428750	-0.205772	0.000350
C30	C	0.928750	0.294228	0.500350
C31	C	0.405342	-0.112923	0.000025
C32	C	0.905342	0.387077	0.500025
C33	C	0.446483	-0.067494	0.084128
C34	C	0.946483	0.432506	0.584128
C35	C	0.543116	-0.069811	0.084196
C36	C	1.043116	0.430189	0.584196
C37	C	0.543376	-0.068474	-0.083618
C38	C	1.043376	0.431526	0.416382
C39	C	0.446432	-0.068482	-0.084721
C40	C	0.946432	0.431518	0.415279
C41	C	0.310647	-0.111239	0.000031
C42	C	0.810647	0.388761	0.500031
C43	C	0.667595	-0.117577	0.000019
C44	C	1.167595	0.382423	0.500019
C45	C	0.995227	0.038674	0.000028
C46	C	1.495227	0.538674	0.500028
C47	C	0.993571	0.131623	0.000039
C48	C	1.493571	0.631623	0.500039
C49	C	0.987624	0.469368	0.000055
C50	C	1.487624	0.969368	0.500055
C51	C	0.896072	0.421917	0.000381
C52	C	1.396072	0.921917	0.500381
C53	C	0.897728	0.325228	0.000043
C54	C	1.397728	0.825228	0.500043
C55	C	0.990574	0.301809	0.000048
C56	C	1.490574	0.801809	0.500048
C57	C	1.035720	0.342885	-0.084214
C58	C	1.535720	0.842885	0.415786
C59	C	1.033416	0.439520	-0.084279
C60	C	1.533416	0.939520	0.415721
C61	C	1.035326	0.439896	0.083530
C62	C	1.535326	0.939896	0.583530
C63	C	1.035309	0.342952	0.084638
C64	C	1.535309	0.842952	0.584638
C65	C	0.992246	0.207112	0.000040
C66	C	1.492246	0.707112	0.500040
C67	C	0.985955	0.564065	0.000057
C68	C	1.485955	1.064065	0.500057
C69	C	1.142206	-0.108269	0.000024
C70	C	1.642206	0.391731	0.500024
C71	C	1.235159	-0.109904	0.000032
C72	C	1.735159	0.390096	0.500032
N73	N	0.989101	-0.114434	-0.229882
N74	N	1.489101	0.385566	0.270118
C75	C	0.983004	0.732507	0.000025
C76	C	1.483004	1.232507	0.500025
C77	C	0.984627	0.639553	0.000064
C78	C	1.484627	1.139553	0.500064
C79	C	0.989117	-0.114414	-0.410880
C80	C	1.489117	0.385586	0.089120
C81	C	0.920322	-0.183187	-0.448554
C82	C	1.420322	0.316813	0.051446
C83	C	0.920086	-0.182999	-0.551379
C84	C	1.420086	0.317001	-0.051379
C85	C	0.989132	-0.114397	-0.589084
C86	C	1.489132	0.385603	-0.089084
C87	C	0.970402	-0.026930	-0.551737
C88	C	1.470402	0.473070	-0.051737
C89	C	0.969900	-0.027344	-0.448880
C90	C	1.469900	0.472656	0.051120
C91	C	1.076852	-0.132320	-0.448767
C92	C	1.576852	0.367680	0.051233
C93	C	1.076273	-0.134295	-0.551632
C94	C	1.576273	0.365705	-0.051632
C95	C	0.989142	-0.114381	-0.689797
C96	C	1.489142	0.385619	-0.189797
C97	C	0.989105	-0.114424	-0.310166
C98	C	1.489105	0.385576	0.189834
N99	N	0.989147	-0.114378	0.229919
N100	N	1.489147	0.385622	0.729919
H101	H	0.432380	0.000730	0.087023
H102	H	0.932380	0.500730	0.587023
C103	C	0.567881	-0.114043	0.169426
C104	C	1.067881	0.385957	0.669426
H105	H	0.627039	-0.115849	0.170218
H106	H	1.127039	0.384151	0.670218
H107	H	0.540060	-0.169744	0.170917
H108	H	1.040060	0.330256	0.670917
H109	H	0.551829	-0.083819	0.219725
H110	H	1.051829	0.416181	0.719725
H111	H	0.543923	-0.244239	-0.060289
H112	H	1.043923	0.255761	0.439711
C113	C	0.390286	-0.253996	-0.081072
C114	C	0.890286	0.246004	0.418928
H115	H	0.433747	-0.274790	-0.114651
H116	H	0.933747	0.225210	0.385349
H117	H	0.361987	-0.217212	-0.116852
H118	H	0.861987	0.282788	0.383148
H119	H	0.351404	-0.299756	-0.061938
H120	H	0.851404	0.200244	0.438062
H121	H	0.545054	-0.243678	0.060229
H122	H	1.045054	0.256322	0.560229
C123	C	0.586715	0.020998	0.089067
C124	C	1.086715	0.520998	0.589067
H125	H	0.545345	0.059140	0.091002
H126	H	1.045345	0.559140	0.591002
H127	H	0.621211	0.032384	0.038217
H128	H	1.121211	0.532384	0.538217
H129	H	0.620476	0.027495	0.141012
H130	H	1.120476	0.527495	0.641012
C131	C	0.993346	0.304539	-0.168938
C132	C	1.493346	0.804539	0.331062
H133	H	1.021117	0.329801	-0.219576
H134	H	1.521117	0.829801	0.280424
H135	H	0.935922	0.314499	-0.169697
H136	H	1.435922	0.814499	0.330303
H137	H	0.996868	0.245655	-0.169814
H138	H	1.496868	0.745655	0.330186
H139	H	0.418106	-0.098626	0.146950
H140	H	0.918106	0.401374	0.646950
C141	C	1.101273	-0.216672	-0.413742
C142	C	1.601273	0.283328	0.086258
H143	H	1.058183	-0.241761	-0.375682
H144	H	1.558183	0.258239	0.124318
H145	H	1.152604	-0.207089	-0.381687
H146	H	1.652604	0.292911	0.118313
H147	H	1.108076	-0.253215	-0.462256
H148	H	1.608076	0.246785	0.037744
H149	H	0.563871	-0.098621	-0.147384
H150	H	1.063871	0.401379	0.352616
H151	H	0.419087	-0.101657	-0.146942
H152	H	0.919087	0.398343	0.353058
H153	H	0.400910	-0.241301	0.060986
H154	H	0.900910	0.258699	0.560986
H155	H	0.431090	-0.000789	-0.090045
H156	H	0.931090	0.499211	0.409955
C157	C	1.036339	0.043895	-0.584681
C158	C	1.536339	0.543895	-0.084681
H159	H	1.023834	0.096218	-0.561300
H160	H	1.523834	0.596218	-0.061300
H161	H	1.035208	0.045943	-0.647652
H162	H	1.535208	0.545943	-0.147652
H163	H	1.090667	0.033219	-0.565386
H164	H	1.590667	0.533219	-0.065386
C165	C	0.586308	0.022705	-0.084714
C166	C	1.086308	0.522705	0.415286
H167	H	0.622056	0.031862	-0.034478
H168	H	1.122056	0.531862	0.465522
H169	H	0.544654	0.060541	-0.082992
H170	H	1.044654	0.560541	0.417008
H171	H	0.618716	0.031953	-0.137340
H172	H	1.118716	0.531953	0.362660
H173	H	1.000479	0.457808	-0.147271
H174	H	1.500479	0.957808	0.352729
H175	H	1.100632	0.471779	-0.088096
H176	H	1.600632	0.971779	0.411904
C177	C	0.849775	0.286827	0.081631
C178	C	1.349775	0.786827	0.581631
H179	H	0.829101	0.330315	0.115279
H180	H	1.329101	0.830315	0.615279
H181	H	0.886674	0.258546	0.117286
H182	H	1.386674	0.758546	0.617286
H183	H	0.803946	0.247938	0.062655
H184	H	1.303946	0.747938	0.562655
C185	C	0.832136	-0.167487	-0.584656
C186	C	1.332136	0.332513	-0.084656
H187	H	0.831689	-0.167327	-0.647686
H188	H	1.331689	0.332673	-0.147686
H189	H	0.818873	-0.114682	-0.563327
H190	H	1.318873	0.385318	-0.063327
H191	H	0.791583	-0.210896	-0.563494
H192	H	1.291583	0.289104	-0.063494
H193	H	0.859484	0.440449	0.060810
H194	H	1.359484	0.940449	0.560810
C195	C	1.148651	-0.071040	-0.586286
C196	C	1.648651	0.428960	-0.086286
H197	H	1.200493	-0.084577	-0.562608
H198	H	1.700493	0.415423	-0.062608
H199	H	1.139682	-0.015805	-0.568421
H200	H	1.639682	0.484195	-0.068421
H201	H	1.150436	-0.073722	-0.649214
H202	H	1.650436	0.426278	-0.149214
H203	H	0.859633	0.441498	-0.059710
H204	H	1.359633	0.941498	0.440290
H205	H	1.103931	0.328771	-0.087345
H206	H	1.603931	0.828771	0.412655
C207	C	1.146011	-0.064586	-0.415837
C208	C	1.646011	0.435414	0.084163
H209	H	1.121582	-0.025579	-0.379177
H210	H	1.621582	0.474421	0.120823
H211	H	1.172564	-0.035876	-0.465272
H212	H	1.672564	0.464124	0.034728
H213	H	1.186543	-0.090519	-0.382724
H214	H	1.686543	0.409481	0.117276
C215	C	0.994896	0.467638	0.169812
C216	C	1.494896	0.967638	0.669812
H217	H	0.948540	0.497456	0.155730
H218	H	1.448540	0.997456	0.655730
H219	H	1.035296	0.503123	0.202720
H220	H	1.535296	1.003123	0.702720
H221	H	0.975887	0.419440	0.204206
H222	H	1.475887	0.919440	0.704206
C223	C	0.883473	-0.006117	-0.416483
C224	C	1.383473	0.493883	0.083517
H225	H	0.882404	-0.006183	-0.353461
H226	H	1.382404	0.493817	0.146539
H227	H	0.840682	-0.047000	-0.438283
H228	H	1.340682	0.453000	0.061717
H229	H	0.874018	0.047936	-0.437712
H230	H	1.374018	0.547936	0.062288
C231	C	0.990784	0.306073	0.168852
C232	C	1.490784	0.806073	0.668852
H233	H	0.945125	0.265765	0.152538
H234	H	1.445125	0.765765	0.652538
H235	H	0.970219	0.349972	0.201941
H236	H	1.470219	0.849972	0.701941
H237	H	1.029542	0.279708	0.204024
H238	H	1.529542	0.779708	0.704024
C239	C	1.035316	0.043634	-0.415198
C240	C	1.535316	0.543634	0.084802
H241	H	1.035540	0.043783	-0.352167
H242	H	1.535540	0.543783	0.147833
H243	H	1.021365	0.096275	-0.436269
H244	H	1.521365	0.596275	0.063731
H245	H	1.089490	0.034545	-0.436373
H246	H	1.589490	0.534545	0.063627
H247	H	0.861987	0.297350	-0.060467
H248	H	1.361987	0.797350	0.439533
H249	H	1.103016	0.327603	0.089729
H250	H	1.603016	0.827603	0.589729
H251	H	1.102827	0.471669	0.084102
H252	H	1.602827	0.971669	0.584102
H253	H	0.931190	-0.248006	-0.576632
H254	H	1.431190	0.251994	-0.076632
C255	C	1.095491	-0.221218	-0.584602
C256	C	1.595491	0.278782	-0.084602
H257	H	1.148281	-0.232895	-0.561718
H258	H	1.648281	0.267105	-0.061718
H259	H	1.097378	-0.221305	-0.647595
H260	H	1.597378	0.278695	-0.147595
H261	H	1.052672	-0.263085	-0.564818
H262	H	1.552672	0.236915	-0.064818
H263	H	0.931234	-0.248415	-0.423833
H264	H	1.431234	0.251585	0.076167
C265	C	0.832850	-0.167904	-0.413675
C266	C	1.332850	0.332096	0.086325
H267	H	0.838074	-0.119793	-0.376255
H268	H	1.338074	0.380207	0.123745
H269	H	0.809350	-0.215640	-0.380967
H270	H	1.309350	0.284360	0.119033
H271	H	0.797167	-0.158832	-0.462292
H272	H	1.297167	0.341168	0.037708
C273	C	0.884974	-0.005165	-0.586547
C274	C	1.384974	0.494835	-0.086547
H275	H	0.860613	-0.049263	-0.623829
H276	H	1.360613	0.450737	-0.123829
H277	H	0.893068	0.045795	-0.619385
H278	H	1.393068	0.545795	-0.119385
H279	H	0.848529	0.001380	-0.537893
H280	H	1.348529	0.501380	-0.037893
