data_functionalizedCrystal
_audit_creation_method	'MofGen! by Chris Wilmer'
_symmetry_space_group_name_H-M	'P1'
_symmetry_Int_Tables_number	1
_symmetry_cell_setting	triclinic
loop_
_symmetry_equiv_pos_as_xyz
  x,y,z
_cell_length_a	22.863218
_cell_length_b	22.862586
_cell_length_c	22.858745
_cell_angle_alpha	60.006856
_cell_angle_beta	60.013818
_cell_angle_gamma	59.991795
loop_
_atom_site_label
_atom_site_type_symbol
_atom_site_fract_x
_atom_site_fract_y
_atom_site_fract_z
O1	O	0.081006	-0.854581	0.714630
O2	O	0.581006	-0.354581	1.214630
O3	O	0.030492	-0.665350	0.575795
O4	O	0.530492	-0.165350	1.075795
O5	O	0.150314	-0.785089	0.575706
O6	O	0.650314	-0.285089	1.075706
O7	O	-0.038816	-0.734841	0.714718
O8	O	0.461184	-0.234841	1.214718
O9	O	0.190066	-0.745348	0.615369
O10	O	0.690066	-0.245348	1.115369
O11	O	0.070244	-0.625609	0.615458
O12	O	0.570244	-0.125609	1.115458
O13	O	0.120758	-0.814840	0.754293
O14	O	0.620758	-0.314840	1.254293
Zn15	Zn	0.101812	-0.713914	0.691173
Zn16	Zn	0.601812	-0.213914	1.191173
Zn17	Zn	0.049438	-0.766275	0.638915
Zn18	Zn	0.549438	-0.266275	1.138915
O19	O	0.000936	-0.695100	0.754381
O20	O	0.500936	-0.195100	1.254381
N21	N	0.137558	-0.678184	0.726840
N22	N	0.637558	-0.178184	1.226840
N23	N	0.013698	-0.802011	0.603247
N24	N	0.513698	-0.302011	1.103247
C25	C	0.187224	-0.518558	0.776483
C26	C	0.687224	-0.018558	1.276483
C27	C	0.187235	-0.628552	0.776467
C28	C	0.687235	-0.128552	1.276467
C29	C	0.214753	-0.601061	0.803961
C30	C	0.714753	-0.101061	1.303961
C31	C	0.334724	-0.580392	0.740801
C32	C	0.834724	-0.080392	1.240801
C33	C	0.409718	-0.605392	0.715784
C34	C	0.909718	-0.105392	1.215784
C35	C	0.409746	-0.726732	0.762051
C36	C	0.909746	-0.226732	1.262051
C37	C	0.334754	-0.701730	0.787070
C38	C	0.834754	-0.201730	1.287070
C39	C	0.205297	-0.481049	0.702756
C40	C	0.705297	0.018951	1.202756
C41	C	0.180267	-0.406048	0.677779
C42	C	0.680267	0.093952	1.177779
C43	C	0.119099	-0.406071	0.800259
C44	C	0.619099	0.093929	1.300259
C45	C	0.144128	-0.481071	0.825236
C46	C	0.644128	0.018929	1.325236
C47	C	0.113501	-0.610437	0.794610
C48	C	0.613501	-0.110437	1.294610
C49	C	0.088492	-0.635428	0.769607
C50	C	0.588492	-0.135428	1.269607
C51	C	0.210943	-0.696652	0.708337
C52	C	0.710943	-0.196652	1.208337
C53	C	0.235956	-0.671660	0.733331
C54	C	0.735956	-0.171660	1.233331
C55	C	0.113585	-0.610461	0.923980
C56	C	0.613585	-0.110461	1.423980
C57	C	0.088635	-0.635476	0.998978
C58	C	0.588635	-0.135476	1.498978
C59	C	0.211128	-0.696714	0.998930
C60	C	0.711128	-0.196714	1.498930
C61	C	0.236077	-0.671700	0.923930
C62	C	0.736077	-0.171700	1.423930
C63	C	0.187303	-0.628571	0.886457
C64	C	0.687303	-0.128571	1.386457
C65	C	0.297246	-0.628559	0.776441
C66	C	0.797246	-0.128559	1.276441
C67	C	-0.117796	-0.823430	0.581283
C68	C	0.382204	-0.323430	1.081283
C69	C	-0.007671	-0.823587	0.471446
C70	C	0.492329	-0.323587	0.971446
C71	C	-0.007879	-0.933535	0.581483
C72	C	0.492121	-0.433535	1.081483
C73	C	-0.007861	-0.823583	0.581554
C74	C	0.492139	-0.323583	1.081554
C75	C	-0.035301	-0.851035	0.553942
C76	C	0.464699	-0.351035	1.053942
N77	N	0.446162	-0.678198	0.726752
N78	N	0.946162	-0.178198	1.226752
O79	O	0.691234	-0.690164	0.550341
O80	O	1.191234	-0.190164	1.050341
O81	O	0.691462	-0.829422	0.739388
O82	O	1.191462	-0.329422	1.239388
O83	O	0.691373	-0.829102	0.619485
O84	O	1.191373	-0.329102	1.119485
O85	O	0.691323	-0.690484	0.670244
O86	O	1.191323	-0.190484	1.170244
O87	O	0.572233	-0.789455	0.659278
O88	O	1.072233	-0.289455	1.159278
O89	O	0.572322	-0.789775	0.779181
O90	O	1.072322	-0.289775	1.279181
O91	O	0.572094	-0.650517	0.590134
O92	O	1.072094	-0.150517	1.090134
Zn93	Zn	0.553292	-0.713851	0.690976
Zn94	Zn	1.053292	-0.213851	1.190976
Zn95	Zn	0.710264	-0.766088	0.638547
Zn96	Zn	1.210264	-0.266088	1.138547
O97	O	0.572183	-0.650837	0.710037
O98	O	1.072183	-0.150837	1.210037
N99	N	0.817394	-0.801741	0.602763
N100	N	1.317394	-0.301741	1.102763
N101	N	0.137538	-0.369628	0.726874
N102	N	0.637538	0.130372	1.226874
O103	O	-0.038795	-0.124419	0.714761
O104	O	0.461205	0.375581	1.214761
O105	O	0.150256	-0.124417	0.575522
O106	O	0.650256	0.375583	1.075522
O107	O	0.030331	-0.124432	0.575860
O108	O	0.530331	0.375568	1.075860
O109	O	0.081131	-0.124404	0.714423
O110	O	0.581131	0.375596	1.214423
O111	O	0.070086	-0.243584	0.615573
O112	O	0.570086	0.256416	1.115573
O113	O	0.190011	-0.243569	0.615236
O114	O	0.690011	0.256431	1.115236
O115	O	0.000960	-0.243571	0.754474
O116	O	0.500960	0.256429	1.254474
Zn117	Zn	0.101797	-0.262488	0.691160
Zn118	Zn	0.601797	0.237512	1.191160
Zn119	Zn	0.049419	-0.105500	0.638836
Zn120	Zn	0.549419	0.394500	1.138836
O121	O	0.120885	-0.243556	0.754137
O122	O	0.620885	0.256444	1.254137
N123	N	0.013669	0.001640	0.603123
N124	N	0.513669	0.501640	1.103123
N125	N	0.137749	-0.678230	1.035381
N126	N	0.637749	-0.178230	1.535381
O127	O	0.125655	-0.854547	1.280566
O128	O	0.625655	-0.354547	1.780566
O129	O	-0.013567	-0.665426	1.280590
O130	O	0.486433	-0.165426	1.780590
O131	O	-0.013245	-0.785328	1.280537
O132	O	0.486755	-0.285328	1.780537
O133	O	0.125333	-0.734644	1.280618
O134	O	0.625333	-0.234644	1.780618
O135	O	0.026456	-0.745599	1.161392
O136	O	0.526456	-0.245599	1.661392
O137	O	0.026134	-0.625697	1.161444
O138	O	0.526134	-0.125697	1.661444
O139	O	0.165355	-0.814817	1.161420
O140	O	0.665355	-0.314817	1.661420
Zn141	Zn	0.102048	-0.713949	1.142516
Zn142	Zn	0.602048	-0.213949	1.642516
Zn143	Zn	0.049740	-0.766294	1.299495
Zn144	Zn	0.549740	-0.266294	1.799495
O145	O	0.165033	-0.694915	1.161473
O146	O	0.665033	-0.194915	1.661473
N147	N	0.014038	-0.802020	1.406629
N148	N	0.514038	-0.302020	1.906629
C149	C	0.045634	-0.621635	0.576499
C150	C	0.545634	-0.121635	1.076499
C151	C	0.194019	-0.769918	0.576389
C152	C	0.694019	-0.269918	1.076389
C153	C	0.105616	-0.858555	0.753588
C154	C	0.605616	-0.358555	1.253588
C155	C	-0.042769	-0.710272	0.753698
C156	C	0.457231	-0.210272	1.253698
C157	C	0.631920	-0.828776	0.783102
C158	C	1.131920	-0.328776	1.283102
C159	C	0.631811	-0.828380	0.634616
C160	C	1.131811	-0.328380	1.134616
C161	C	0.631633	-0.651162	0.546422
C162	C	1.131633	-0.151162	1.046422
C163	C	0.631745	-0.651559	0.694907
C164	C	1.131745	-0.151559	1.194907
C165	C	0.193900	-0.183846	0.576155
C166	C	0.693900	0.316154	1.076155
C167	C	0.045437	-0.184012	0.576622
C168	C	0.545437	0.315988	1.076622
C169	C	-0.042734	-0.183994	0.753792
C170	C	0.457266	0.316006	1.253792
C171	C	0.105780	-0.183977	0.753375
C172	C	0.605780	0.316023	1.253375
C173	C	-0.012889	-0.621735	1.221020
C174	C	0.487111	-0.121735	1.721020
C175	C	-0.012483	-0.770211	1.220931
C176	C	0.487517	-0.270211	1.720931
C177	C	0.164678	-0.858508	1.220991
C178	C	0.664678	-0.358508	1.720991
C179	C	0.164280	-0.710023	1.221052
C180	C	0.664280	-0.210023	1.721052
H181	H	0.073862	-0.575336	0.893474
H182	H	0.573862	-0.075336	1.393474
O183	O	0.258771	-0.782583	0.524217
O184	O	0.758771	-0.282583	1.024217
C185	C	0.258837	-0.720965	0.462497
C186	C	0.758837	-0.220965	0.962497
H187	H	0.201393	-0.686841	0.463272
H188	H	0.701393	-0.186841	0.963272
H189	H	0.290693	-0.737644	0.412688
H190	H	0.790693	-0.237644	0.912688
H191	H	0.284480	-0.688587	0.461623
H192	H	0.784480	-0.188587	0.961623
H193	H	0.631977	-0.872492	0.837399
H194	H	1.131977	-0.372492	1.337399
O195	O	-0.107512	-0.697554	0.805868
O196	O	0.392488	-0.197554	1.305868
C197	C	-0.098098	-0.705564	0.866220
C198	C	0.401902	-0.205564	1.366220
H199	H	-0.040957	-0.741408	0.865489
H200	H	0.459043	-0.241408	1.365489
H201	H	-0.137397	-0.730976	0.917104
H202	H	0.362603	-0.230976	1.417104
H203	H	-0.108327	-0.650786	0.864872
H204	H	0.391673	-0.150786	1.364872
O205	O	0.118364	-0.923406	0.805634
O206	O	0.618364	-0.423406	1.305634
C207	C	0.069225	-0.955227	0.824907
C208	C	0.569225	-0.455227	1.324907
H209	H	0.019612	-0.911833	0.810549
H210	H	0.519612	-0.411833	1.310549
H211	H	0.053150	-0.985339	0.885018
H212	H	0.553150	-0.485339	1.385018
H213	H	0.095175	-0.994238	0.794739
H214	H	0.595175	-0.494238	1.294739
H215	H	0.631832	-0.871926	0.623751
H216	H	1.131832	-0.371926	1.123751
H217	H	-0.056598	-0.567419	1.221026
H218	H	0.443402	-0.067419	1.721026
H219	H	0.631735	-0.608016	0.705768
H220	H	1.131735	-0.108016	1.205768
O221	O	0.032638	-0.556760	0.524544
O222	O	0.532638	-0.056760	1.024544
C223	C	-0.037758	-0.512311	0.550536
C224	C	0.462242	-0.012311	1.050536
H225	H	-0.071706	-0.546876	0.596540
H226	H	0.428294	-0.046876	1.096540
H227	H	-0.061815	-0.477963	0.505622
H228	H	0.438185	0.022037	1.005622
H229	H	-0.036678	-0.476151	0.570462
H230	H	0.463322	0.023849	1.070462
O231	O	0.631451	-0.599022	0.481659
O232	O	1.131451	-0.099022	0.981659
C233	C	0.569713	-0.582403	0.468851
C234	C	1.069713	-0.082403	0.968851
H235	H	0.549198	-0.629781	0.502271
H236	H	1.049198	-0.129781	1.002271
H237	H	0.583534	-0.570690	0.409612
H238	H	1.083534	-0.070690	0.909612
H239	H	0.526484	-0.533301	0.484312
H240	H	1.026484	-0.033301	0.984312
H241	H	-0.056000	-0.781036	1.220859
H242	H	0.444000	-0.281036	1.720859
H243	H	0.248082	-0.183515	0.532333
H244	H	0.748082	0.316485	1.032333
O245	O	0.118694	-0.184069	0.805402
O246	O	0.618694	0.315931	1.305402
C247	C	0.110781	-0.245789	0.865801
C248	C	0.610781	0.254211	1.365801
H249	H	0.074848	-0.266365	0.865240
H250	H	0.574848	0.233635	1.365240
H251	H	0.085523	-0.231910	0.916648
H252	H	0.585523	0.268090	1.416648
H253	H	0.165572	-0.288998	0.864358
H254	H	0.665572	0.211002	1.364358
H255	H	0.034558	-0.184014	0.533090
H256	H	0.534558	0.315986	1.033090
O257	O	-0.107558	-0.183949	0.805852
O258	O	0.392442	0.316051	1.305852
C259	C	-0.152153	-0.183972	0.780079
C260	C	0.347847	0.316028	1.280079
H261	H	-0.132769	-0.161432	0.719055
H262	H	0.367231	0.338568	1.219055
H263	H	-0.209535	-0.149366	0.802035
H264	H	0.290465	0.350634	1.302035
H265	H	-0.150219	-0.241134	0.798305
H266	H	0.349781	0.258866	1.298305
H267	H	0.208389	-0.912821	1.220975
H268	H	0.708389	-0.412821	1.720975
O269	O	0.216242	-0.697016	1.220944
O270	O	0.716242	-0.197016	1.720944
C271	C	0.232669	-0.638993	1.159258
C272	C	0.732669	-0.138993	1.659258
H273	H	0.216928	-0.633343	1.116118
H274	H	0.716928	-0.133343	1.616118
H275	H	0.292605	-0.649093	1.138553
H276	H	0.792605	-0.149093	1.638553
H277	H	0.201759	-0.587625	1.173222
H278	H	0.701759	-0.087625	1.673222
O279	O	0.016996	-0.617777	1.035310
O280	O	0.516996	-0.117777	1.535310
C281	C	-0.020696	-0.574361	0.986149
C282	C	0.479304	-0.074361	1.486149
H283	H	0.015048	-0.547097	0.932685
H284	H	0.515048	-0.047097	1.432685
H285	H	-0.070737	-0.531926	1.007835
H286	H	0.429263	-0.031926	1.507835
H287	H	-0.036879	-0.608952	0.978176
H288	H	0.463121	-0.108952	1.478176
H289	H	0.250848	-0.731818	1.029432
H290	H	0.750848	-0.231818	1.529432
H291	H	0.073825	-0.575337	0.829731
H292	H	0.573825	-0.075337	1.329731
O293	O	0.307708	-0.689422	0.887561
O294	O	0.807708	-0.189422	1.387561
C295	C	0.338870	-0.764542	0.905853
C296	C	0.838870	-0.264542	1.405853
H297	H	0.303340	-0.790792	0.960310
H298	H	0.803340	-0.290792	1.460310
H299	H	0.394045	-0.782077	0.908399
H300	H	0.894045	-0.282077	1.408399
H301	H	0.344425	-0.781500	0.863643
H302	H	0.844425	-0.281500	1.363643
O303	O	0.016843	-0.617799	0.787325
O304	O	0.516843	-0.117799	1.287325
C305	C	-0.020799	-0.574383	0.830749
C306	C	0.479201	-0.074383	1.330749
H307	H	0.014994	-0.583957	0.857997
H308	H	0.514994	-0.083957	1.357997
H309	H	-0.070821	-0.588455	0.873194
H310	H	0.429179	-0.088455	1.373194
H311	H	-0.037009	-0.515632	0.796172
H312	H	0.462991	-0.015632	1.296172
H313	H	0.295996	-0.686402	0.718551
H314	H	0.795996	-0.186402	1.218551
O315	O	0.258311	-0.738416	0.666334
O316	O	0.758311	-0.238416	1.166334
C317	C	0.301642	-0.700533	0.603451
C318	C	0.801642	-0.200533	1.103451
H319	H	0.272656	-0.640532	0.593046
H320	H	0.772656	-0.140532	1.093046
H321	H	0.312972	-0.713937	0.556197
H322	H	0.812972	-0.213937	1.056197
H323	H	0.354337	-0.716496	0.610258
H324	H	0.854337	-0.216496	1.110258
O325	O	0.298378	-0.748534	0.821574
O326	O	0.798378	-0.248534	1.321574
C327	C	0.316693	-0.783662	0.775677
C328	C	0.816693	-0.283662	1.275677
H329	H	0.337276	-0.749513	0.717619
H330	H	0.837276	-0.249513	1.217619
H331	H	0.267370	-0.792088	0.784543
H332	H	0.767370	-0.292088	1.284543
H333	H	0.360241	-0.837790	0.787753
H334	H	0.860241	-0.337790	1.287753
O335	O	0.446298	-0.797785	0.772283
O336	O	0.946298	-0.297785	1.272283
C337	C	0.520526	-0.809524	0.742576
C338	C	1.020526	-0.309524	1.242576
H339	H	0.530742	-0.757910	0.699589
H340	H	1.030742	-0.257910	1.199589
H341	H	0.549021	-0.853345	0.717649
H342	H	1.049021	-0.353345	1.217649
H343	H	0.541837	-0.826811	0.786465
H344	H	1.041837	-0.326811	1.286465
H345	H	0.440232	-0.566167	0.686761
H346	H	0.940232	-0.066167	1.186761
H347	H	0.304191	-0.520811	0.732143
H348	H	0.804191	-0.020811	1.232143
H349	H	0.194981	-0.375507	0.617742
H350	H	0.694981	0.124493	1.117742
O351	O	0.247122	-0.517353	0.655304
O352	O	0.747122	-0.017353	1.155304
C353	C	0.257712	-0.468161	0.584873
C354	C	0.757712	0.031839	1.084873
H355	H	0.212487	-0.414701	0.585028
H356	H	0.712487	0.085299	1.085028
H357	H	0.258078	-0.489823	0.549271
H358	H	0.758078	0.010177	1.049271
H359	H	0.311132	-0.460181	0.563367
H360	H	0.811132	0.039819	1.063367
H361	H	0.084019	-0.375548	0.839959
H362	H	0.584019	0.124452	1.339959
O363	O	0.126534	-0.517402	0.896882
O364	O	0.626534	-0.017402	1.396882
C365	C	0.083112	-0.468233	0.934556
C366	C	0.583112	0.031767	1.434556
H367	H	0.092656	-0.414765	0.898795
H368	H	0.592656	0.085235	1.398795
H369	H	0.097198	-0.489913	0.984598
H370	H	0.597198	0.010087	1.484598
H371	H	0.024371	-0.460260	0.950739
H372	H	0.524371	0.039740	1.450739
