data_functionalizedCrystal
_audit_creation_method	'MofGen! by Chris Wilmer'
_symmetry_space_group_name_H-M	'P1'
_symmetry_Int_Tables_number	1
_symmetry_cell_setting	triclinic
loop_
_symmetry_equiv_pos_as_xyz
  x,y,z
_cell_length_a	16.992695
_cell_length_b	16.109301
_cell_length_c	14.586319
_cell_angle_alpha	90.000787
_cell_angle_beta	89.995905
_cell_angle_gamma	92.935148
loop_
_atom_site_label
_atom_site_type_symbol
_atom_site_fract_x
_atom_site_fract_y
_atom_site_fract_z
O1	O	0.100784	-1.109856	-0.076183
O2	O	0.600784	-0.609856	0.423817
O3	O	0.113326	-0.868631	-0.076198
O4	O	0.613326	-0.368631	0.423802
O5	O	-0.007087	-0.988277	-0.076183
O6	O	0.492913	-0.488277	0.423817
O7	O	0.221197	-0.990211	-0.076198
O8	O	0.721197	-0.490211	0.423802
O9	O	-0.007089	-0.988268	0.076298
O10	O	0.492911	-0.488268	0.576298
O11	O	0.113324	-0.868622	0.076283
O12	O	0.613324	-0.368622	0.576283
O13	O	0.100782	-1.109847	0.076298
O14	O	0.600782	-0.609847	0.576298
Cu15	Cu	0.107053	-0.989234	0.090213
Cu16	Cu	0.607053	-0.489234	0.590213
Cu17	Cu	0.107055	-0.989244	-0.090113
Cu18	Cu	0.607055	-0.489244	0.409887
O19	O	0.221196	-0.990202	0.076283
O20	O	0.721196	-0.490202	0.576283
C21	C	0.112817	-0.837618	0.000041
C22	C	0.612817	-0.337618	0.500041
C23	C	0.111294	-0.745221	0.000035
C24	C	0.611294	-0.245221	0.500035
C25	C	-0.036300	-0.985784	0.000057
C26	C	0.463700	-0.485784	0.500057
C27	C	-0.123343	-0.978361	0.000056
C28	C	0.376657	-0.478361	0.500056
C29	C	0.101291	-1.140860	0.000057
C30	C	0.601291	-0.640860	0.500057
C31	C	0.102814	-1.233257	0.000057
C32	C	0.602814	-0.733257	0.500057
C33	C	-0.173601	-1.049987	0.000062
C34	C	0.326399	-0.549987	0.500062
C35	C	-0.255386	-1.043007	0.000052
C36	C	0.244614	-0.543007	0.500052
C37	C	-0.286911	-0.964400	0.000045
C38	C	0.213089	-0.464400	0.500045
C39	C	-0.236645	-0.892768	0.000037
C40	C	0.263355	-0.392768	0.500037
C41	C	-0.154862	-0.899749	0.000039
C42	C	0.345138	-0.399749	0.500039
C43	C	-0.530501	-0.935467	0.000030
C44	C	-0.030501	-0.435467	0.500030
C45	C	-0.612291	-0.928491	0.000030
C46	C	-0.112291	-0.428491	0.500030
C47	C	-0.631026	-1.078731	0.000045
C48	C	-0.131026	-0.578731	0.500045
C49	C	-0.549240	-1.085704	0.000053
C50	C	-0.049240	-0.585704	0.500053
C51	C	-0.498982	-1.014073	0.000040
C52	C	0.001018	-0.514073	0.500040
N53	N	-0.370508	-0.957263	0.000038
N54	N	0.129492	-0.457263	0.500038
N55	N	-0.415387	-1.021210	0.000040
N56	N	0.084613	-0.521210	0.500040
C57	C	0.250408	-0.992694	0.000041
C58	C	0.750408	-0.492694	0.500041
C59	C	0.337451	-1.000118	0.000036
C60	C	0.837451	-0.500118	0.500036
N61	N	0.107051	-0.989232	0.217045
N62	N	0.607051	-0.489232	0.717045
C63	C	0.179203	-0.527480	0.000042
C64	C	0.679203	-0.027480	0.500042
C65	C	0.177766	-0.440664	0.000048
C66	C	0.677766	0.059336	0.500048
C67	C	0.034899	-0.451005	0.000053
C68	C	0.534899	0.048995	0.500053
C69	C	0.036337	-0.537819	0.000054
C70	C	0.536337	-0.037819	0.500054
C71	C	0.108492	-0.576055	0.000043
C72	C	0.608492	-0.076055	0.500043
C73	C	0.105616	-0.402424	0.000049
C74	C	0.605616	0.097576	0.500049
C75	C	0.104057	-0.308294	0.000055
C76	C	0.604057	0.191706	0.500055
C77	C	0.110051	-0.670191	0.000039
C78	C	0.610051	-0.170191	0.500039
N79	N	0.107051	-0.989252	-0.216945
N80	N	0.607051	-0.489252	0.283055
C81	C	0.053750	-1.042231	0.452058
C82	C	0.553750	-0.542231	0.952058
C83	C	0.053748	-1.042233	0.548039
C84	C	0.553748	-0.542233	1.048039
C85	C	0.160355	-0.936247	0.548036
C86	C	0.660355	-0.436247	1.048036
C87	C	0.160352	-0.936241	0.452056
C88	C	0.660352	-0.436241	0.952056
C89	C	0.107051	-0.989238	0.404070
C90	C	0.607051	-0.489238	0.904070
C91	C	0.107051	-0.989246	0.596030
C92	C	0.607051	-0.489246	1.096030
C93	C	0.107050	-0.989248	0.700098
C94	C	0.607050	-0.489248	1.200098
C95	C	0.107051	-0.989235	0.299996
C96	C	0.607051	-0.489235	0.799996
H97	H	-0.147941	-1.113997	0.000074
H98	H	0.352059	-0.613997	0.500074
F99	F	-0.270198	-0.809109	0.000018
F100	F	0.229802	-0.309109	0.500018
F101	F	-0.002981	-1.098633	0.400991
F102	F	0.497019	-0.598633	0.900991
H103	H	0.203757	-0.893084	0.412982
H104	H	0.703757	-0.393084	0.912982
H105	H	0.235347	-0.401118	0.000048
H106	H	0.735347	0.098882	0.500048
H107	H	0.237956	-0.558608	0.000040
H108	H	0.737956	-0.058608	0.500040
H109	H	-0.296304	-1.101332	0.000059
H110	H	0.203696	-0.601332	0.500059
H111	H	0.203753	-0.893100	0.587116
H112	H	0.703753	-0.393100	1.087116
F113	F	-0.515696	-1.169369	0.000038
F114	F	-0.015696	-0.669369	0.500038
F115	F	-0.002984	-1.098634	0.599108
F116	F	0.497016	-0.598634	1.099108
H117	H	-0.637954	-0.864477	0.000039
H118	H	-0.137954	-0.364477	0.500039
F119	F	-0.041888	-0.410304	0.000060
F120	F	0.458112	0.089696	0.500060
H121	H	-0.671954	-1.137048	0.000053
H122	H	-0.171954	-0.637048	0.500053
F123	F	-0.101373	-0.823515	0.000031
F124	F	0.398627	-0.323515	0.500031
H125	H	-0.489590	-0.877139	0.000020
H126	H	0.010410	-0.377139	0.500020
F127	F	-0.038928	-0.589519	0.000061
F128	F	0.461072	-0.089519	0.500061
