data_functionalizedCrystal
_audit_creation_method	'MofGen! by Chris Wilmer'
_symmetry_space_group_name_H-M	'P1'
_symmetry_Int_Tables_number	1
_symmetry_cell_setting	triclinic
loop_
_symmetry_equiv_pos_as_xyz
  x,y,z
_cell_length_a	27.732048
_cell_length_b	27.732064
_cell_length_c	26.809956
_cell_angle_alpha	89.999459
_cell_angle_beta	89.989448
_cell_angle_gamma	82.646039
loop_
_atom_site_label
_atom_site_type_symbol
_atom_site_fract_x
_atom_site_fract_y
_atom_site_fract_z
O1	O	0.640939	0.057515	-0.041411
O2	O	0.890939	0.307515	0.208589
O3	O	1.140939	0.557515	0.458589
O4	O	1.390939	0.807515	0.708589
O5	O	0.500146	0.066261	-0.041426
O6	O	0.750146	0.316261	0.208574
O7	O	1.000146	0.566261	0.458574
O8	O	1.250146	0.816261	0.708574
O9	O	0.574911	-0.008508	-0.041420
O10	O	0.824911	0.241492	0.208580
O11	O	1.074911	0.491492	0.458580
O12	O	1.324911	0.741492	0.708580
O13	O	0.566174	0.132284	-0.041417
O14	O	0.816174	0.382284	0.208583
O15	O	1.066174	0.632284	0.458583
O16	O	1.316174	0.882284	0.708583
O17	O	0.574888	-0.008508	0.041539
O18	O	0.824888	0.241492	0.291539
O19	O	1.074888	0.491492	0.541539
O20	O	1.324888	0.741492	0.791539
O21	O	0.500123	0.066261	0.041534
O22	O	0.750123	0.316261	0.291534
O23	O	1.000123	0.566261	0.541534
O24	O	1.250123	0.816261	0.791534
O25	O	0.640916	0.057515	0.041548
O26	O	0.890916	0.307515	0.291548
O27	O	1.140916	0.557515	0.541548
O28	O	1.390916	0.807515	0.791548
Zn29	Zn	0.570516	0.061888	0.054712
Zn30	Zn	0.820516	0.311888	0.304712
Zn31	Zn	1.070516	0.561888	0.554712
Zn32	Zn	1.320516	0.811888	0.804712
Zn33	Zn	0.570546	0.061888	-0.054590
Zn34	Zn	0.820546	0.311888	0.195410
Zn35	Zn	1.070546	0.561888	0.445410
Zn36	Zn	1.320546	0.811888	0.695410
O37	O	0.566151	0.132284	0.041542
O38	O	0.816151	0.382284	0.291542
O39	O	1.066151	0.632284	0.541542
O40	O	1.316151	0.882284	0.791542
C41	C	0.482127	0.066077	0.000052
C42	C	0.732127	0.316077	0.250052
C43	C	0.982127	0.566077	0.500052
C44	C	1.232127	0.816077	0.750052
C45	C	0.428473	0.065524	0.000046
C46	C	0.678473	0.315524	0.250046
C47	C	0.928473	0.565524	0.500046
C48	C	1.178473	0.815524	0.750046
C49	C	0.574715	-0.026515	0.000058
C50	C	0.824715	0.223485	0.250058
C51	C	1.074715	0.473485	0.500058
C52	C	1.324715	0.723485	0.750058
C53	C	0.574159	-0.080169	0.000053
C54	C	0.824159	0.169831	0.250053
C55	C	1.074159	0.419831	0.500053
C56	C	1.324159	0.669831	0.750053
C57	C	0.526192	-0.457242	0.000047
C58	C	0.776192	-0.207242	0.250047
C59	C	1.026192	0.042758	0.500047
C60	C	1.276192	0.292758	0.750047
C61	C	0.528238	-0.255582	0.000046
C62	C	0.778238	-0.005582	0.250046
C63	C	1.028238	0.244418	0.500046
C64	C	1.278238	0.494418	0.750046
O65	O	0.491017	-0.224329	0.000022
O66	O	0.741017	0.025671	0.250022
O67	O	0.991017	0.275671	0.500022
O68	O	1.241017	0.525671	0.750022
N69	N	0.572572	-0.236454	0.000051
N70	N	0.822572	0.013546	0.250051
N71	N	1.072572	0.263546	0.500051
N72	N	1.322572	0.513546	0.750051
C73	C	0.616398	-0.267745	0.000052
C74	C	0.866398	-0.017745	0.250052
C75	C	1.116398	0.232255	0.500052
C76	C	1.366398	0.482255	0.750052
O77	O	0.654154	-0.246849	0.000051
O78	O	0.904154	0.003151	0.250051
O79	O	1.154154	0.253151	0.500051
O80	O	1.404154	0.503151	0.750051
C81	C	0.614351	-0.469405	0.000049
C82	C	0.864351	-0.219405	0.250049
C83	C	1.114351	0.030595	0.500049
C84	C	1.364351	0.280595	0.750049
C85	C	0.570014	-0.488529	0.000049
C86	C	0.820014	-0.238529	0.250049
C87	C	1.070014	0.011471	0.500049
C88	C	1.320014	0.261471	0.750049
C89	C	0.481858	-0.476367	0.000047
C90	C	0.731858	-0.226367	0.250047
C91	C	0.981858	0.023633	0.500047
C92	C	1.231858	0.273633	0.750047
C93	C	0.481347	-0.526779	0.000049
C94	C	0.731347	-0.276779	0.250049
C95	C	0.981347	-0.026779	0.500049
C96	C	1.231347	0.223221	0.750049
C97	C	0.525169	-0.558066	0.000052
C98	C	0.775169	-0.308066	0.250052
C99	C	1.025169	-0.058066	0.500052
C100	C	1.275169	0.191934	0.750052
C101	C	0.569503	-0.538941	0.000052
C102	C	0.819503	-0.288941	0.250052
C103	C	1.069503	-0.038941	0.500052
C104	C	1.319503	0.211059	0.750052
C105	C	0.658177	-0.500695	0.000047
C106	C	0.908177	-0.250695	0.250047
C107	C	1.158177	-0.000695	0.500047
C108	C	1.408177	0.249305	0.750047
C109	C	0.657661	-0.551112	0.000044
C110	C	0.907661	-0.301112	0.250044
C111	C	1.157661	-0.051112	0.500044
C112	C	1.407661	0.198888	0.750044
C113	C	0.613324	-0.570237	0.000045
C114	C	0.863324	-0.320237	0.250045
C115	C	1.113324	-0.070237	0.500045
C116	C	1.363324	0.179763	0.750045
C117	C	0.612814	-0.620640	0.000058
C118	C	0.862814	-0.370640	0.250058
C119	C	1.112814	-0.120640	0.500058
C120	C	1.362814	0.129360	0.750058
N121	N	0.568480	-0.639768	0.000053
N122	N	0.818480	-0.389768	0.250053
N123	N	1.068480	-0.139768	0.500053
N124	N	1.318480	0.110232	0.750053
C125	C	0.524658	-0.608481	0.000050
C126	C	0.774658	-0.358481	0.250050
C127	C	1.024658	-0.108481	0.500050
C128	C	1.274658	0.141519	0.750050
C129	C	0.617469	-0.161871	0.000055
C130	C	0.867469	0.088129	0.250055
C131	C	1.117469	0.338129	0.500055
C132	C	1.367469	0.588129	0.750055
C133	C	0.617981	-0.111456	0.000056
C134	C	0.867981	0.138544	0.250056
C135	C	1.117981	0.388544	0.500056
C136	C	1.367981	0.638544	0.750056
C137	C	0.529821	-0.099296	0.000049
C138	C	0.779821	0.150704	0.250049
C139	C	1.029821	0.400704	0.500049
C140	C	1.279821	0.650704	0.750049
C141	C	0.529310	-0.149712	0.000051
C142	C	0.779310	0.100288	0.250051
C143	C	1.029310	0.350288	0.500051
C144	C	1.279310	0.600288	0.750051
C145	C	0.573135	-0.180998	0.000050
C146	C	0.823135	0.069002	0.250050
C147	C	1.073135	0.319002	0.500050
C148	C	1.323135	0.569002	0.750050
C149	C	0.523588	-0.714350	0.000057
C150	C	0.773588	-0.464350	0.250057
C151	C	1.023588	-0.214350	0.500057
C152	C	1.273588	0.035650	0.750057
C153	C	0.523080	-0.764767	0.000062
C154	C	0.773080	-0.514767	0.250062
C155	C	1.023080	-0.264767	0.500062
C156	C	1.273080	-0.014767	0.750062
C157	C	0.611241	-0.776923	0.000066
C158	C	0.861241	-0.526923	0.250066
C159	C	1.111241	-0.276923	0.500066
C160	C	1.361241	-0.026923	0.750066
C161	C	0.611748	-0.726511	0.000064
C162	C	0.861748	-0.476511	0.250064
C163	C	1.111748	-0.226511	0.500064
C164	C	1.361748	0.023489	0.750064
C165	C	0.567918	-0.695225	0.000057
C166	C	0.817918	-0.445225	0.250057
C167	C	1.067918	-0.195225	0.500057
C168	C	1.317918	0.054775	0.750057
O169	O	0.650016	-0.651921	0.000076
O170	O	0.900016	-0.401921	0.250076
O171	O	1.150016	-0.151921	0.500076
O172	O	1.400016	0.098079	0.750076
O173	O	0.486907	-0.629387	0.000041
O174	O	0.736907	-0.379387	0.250041
O175	O	0.986907	-0.129387	0.500041
O176	O	1.236907	0.120613	0.750041
C177	C	0.526703	-0.406830	0.000044
C178	C	0.776703	-0.156830	0.250044
C179	C	1.026703	0.093170	0.500044
C180	C	1.276703	0.343170	0.750044
C181	C	0.571036	-0.387705	0.000044
C182	C	0.821036	-0.137705	0.250044
C183	C	1.071036	0.112295	0.500044
C184	C	1.321036	0.362295	0.750044
C185	C	0.614859	-0.418992	0.000046
C186	C	0.864859	-0.168992	0.250046
C187	C	1.114859	0.081008	0.500046
C188	C	1.364859	0.331008	0.750046
C189	C	0.571548	-0.337290	0.000045
C190	C	0.821548	-0.087290	0.250045
C191	C	1.071548	0.162710	0.500045
C192	C	1.321548	0.412710	0.750045
C193	C	0.527726	-0.306003	0.000043
C194	C	0.777726	-0.056003	0.250043
C195	C	1.027726	0.193997	0.500043
C196	C	1.277726	0.443997	0.750043
C197	C	0.483391	-0.325131	0.000038
C198	C	0.733391	-0.075131	0.250038
C199	C	0.983391	0.174869	0.500038
C200	C	1.233391	0.424869	0.750038
C201	C	0.482880	-0.375543	0.000041
C202	C	0.732880	-0.125543	0.250041
C203	C	0.982880	0.124457	0.500041
C204	C	1.232880	0.374457	0.750041
C205	C	0.659193	-0.399865	0.000051
C206	C	0.909193	-0.149865	0.250051
C207	C	1.159193	0.100135	0.500051
C208	C	1.409193	0.350135	0.750051
C209	C	0.659701	-0.349452	0.000049
C210	C	0.909701	-0.099452	0.250049
C211	C	1.159701	0.150548	0.500049
C212	C	1.409701	0.400548	0.750049
C213	C	0.615878	-0.318165	0.000046
C214	C	0.865878	-0.068165	0.250046
C215	C	1.115878	0.181835	0.500046
C216	C	1.365878	0.431835	0.750046
C217	C	0.089660	0.106228	0.000069
C218	C	0.339660	0.356228	0.250069
C219	C	0.589660	0.606228	0.500069
C220	C	0.839660	0.856228	0.750069
C221	C	-0.112000	0.104177	0.000073
C222	C	0.138000	0.354177	0.250073
C223	C	0.388000	0.604177	0.500073
C224	C	0.638000	0.854177	0.750073
O225	O	-0.143253	0.141397	0.000096
O226	O	0.106747	0.391397	0.250096
O227	O	0.356747	0.641397	0.500096
O228	O	0.606747	0.891397	0.750096
N229	N	-0.131126	0.059842	0.000071
N230	N	0.118874	0.309842	0.250071
N231	N	0.368874	0.559842	0.500071
N232	N	0.618874	0.809842	0.750071
C233	C	-0.099834	0.016017	0.000072
C234	C	0.150166	0.266017	0.250072
C235	C	0.400166	0.516017	0.500072
C236	C	0.650166	0.766017	0.750072
O237	O	-0.120730	-0.021740	0.000075
O238	O	0.129270	0.228260	0.250075
O239	O	0.379270	0.478260	0.500075
O240	O	0.629270	0.728260	0.750075
C241	C	0.101825	0.018068	0.000071
C242	C	0.351825	0.268068	0.250071
C243	C	0.601825	0.518068	0.500071
C244	C	0.851825	0.768068	0.750071
C245	C	0.120948	0.062406	0.000068
C246	C	0.370948	0.312406	0.250068
C247	C	0.620948	0.562406	0.500068
C248	C	0.870948	0.812406	0.750068
C249	C	0.108784	0.150562	0.000066
C250	C	0.358784	0.400562	0.250066
C251	C	0.608784	0.650562	0.500066
C252	C	0.858784	0.900562	0.750066
C253	C	0.159196	0.151074	0.000062
C254	C	0.409196	0.401074	0.250062
C255	C	0.659196	0.651074	0.500062
C256	C	0.909196	0.901074	0.750062
C257	C	0.190484	0.107252	0.000061
C258	C	0.440484	0.357252	0.250061
C259	C	0.690484	0.607252	0.500061
C260	C	0.940484	0.857252	0.750061
C261	C	0.171360	0.062918	0.000064
C262	C	0.421360	0.312918	0.250064
C263	C	0.671360	0.562918	0.500064
C264	C	0.921360	0.812918	0.750064
C265	C	0.133116	-0.025756	0.000075
C266	C	0.383116	0.224244	0.250075
C267	C	0.633116	0.474244	0.500075
C268	C	0.883116	0.724244	0.750075
C269	C	0.183533	-0.025240	0.000076
C270	C	0.433533	0.224760	0.250076
C271	C	0.683533	0.474760	0.500076
C272	C	0.933533	0.724760	0.750076
C273	C	0.202656	0.019098	0.000073
C274	C	0.452656	0.269098	0.250073
C275	C	0.702656	0.519098	0.500073
C276	C	0.952656	0.769098	0.750073
C277	C	0.253060	0.019609	0.000059
C278	C	0.503060	0.269609	0.250059
C279	C	0.753060	0.519609	0.500059
C280	C	1.003060	0.769609	0.750059
N281	N	0.272186	0.063944	0.000061
N282	N	0.522186	0.313944	0.250061
N283	N	0.772186	0.563944	0.500061
N284	N	1.022186	0.813944	0.750061
C285	C	0.240898	0.107765	0.000062
C286	C	0.490898	0.357765	0.250062
C287	C	0.740898	0.607765	0.500062
C288	C	0.990898	0.857765	0.750062
C289	C	-0.205708	0.014943	0.000071
C290	C	0.044292	0.264943	0.250071
C291	C	0.294292	0.514943	0.500071
C292	C	0.544292	0.764943	0.750071
C293	C	-0.256123	0.014430	0.000070
C294	C	-0.006123	0.264430	0.250070
C295	C	0.243877	0.514430	0.500070
C296	C	0.493877	0.764430	0.750070
C297	C	-0.268285	0.102590	0.000073
C298	C	-0.018285	0.352590	0.250073
C299	C	0.231715	0.602590	0.500073
C300	C	0.481715	0.852590	0.750073
C301	C	-0.217870	0.103103	0.000070
C302	C	0.032130	0.353103	0.250070
C303	C	0.282130	0.603103	0.500070
C304	C	0.532130	0.853103	0.750070
C305	C	-0.186582	0.059278	0.000073
C306	C	0.063418	0.309278	0.250073
C307	C	0.313418	0.559278	0.500073
C308	C	0.563418	0.809278	0.750073
C309	C	0.346768	0.108838	0.000053
C310	C	0.596768	0.358838	0.250053
C311	C	0.846768	0.608838	0.500053
C312	C	1.096768	0.858838	0.750053
C313	C	0.397185	0.109346	0.000047
C314	C	0.647185	0.359346	0.250047
C315	C	0.897185	0.609346	0.500047
C316	C	1.147185	0.859346	0.750047
C317	C	0.409342	0.021186	0.000048
C318	C	0.659342	0.271186	0.250048
C319	C	0.909342	0.521186	0.500048
C320	C	1.159342	0.771186	0.750048
C321	C	0.358930	0.020678	0.000051
C322	C	0.608930	0.270678	0.250051
C323	C	0.858930	0.520678	0.500051
C324	C	1.108930	0.770678	0.750051
C325	C	0.327643	0.064507	0.000055
C326	C	0.577643	0.314507	0.250055
C327	C	0.827643	0.564507	0.500055
C328	C	1.077643	0.814507	0.750055
O329	O	0.284342	-0.017592	0.000042
O330	O	0.534342	0.232408	0.250042
O331	O	0.784342	0.482408	0.500042
O332	O	1.034342	0.732408	0.750042
O333	O	0.261803	0.145516	0.000069
O334	O	0.511803	0.395516	0.250069
O335	O	0.761803	0.645516	0.500069
O336	O	1.011803	0.895516	0.750069
C337	C	0.039248	0.105716	0.000073
C338	C	0.289248	0.355716	0.250073
C339	C	0.539248	0.605716	0.500073
C340	C	0.789248	0.855716	0.750073
C341	C	0.020124	0.061381	0.000075
C342	C	0.270124	0.311381	0.250075
C343	C	0.520124	0.561381	0.500075
C344	C	0.770124	0.811381	0.750075
C345	C	0.051412	0.017560	0.000074
C346	C	0.301412	0.267560	0.250074
C347	C	0.551412	0.517560	0.500074
C348	C	0.801412	0.767560	0.750074
C349	C	-0.030290	0.060868	0.000075
C350	C	0.219710	0.310868	0.250075
C351	C	0.469710	0.560868	0.500075
C352	C	0.719710	0.810868	0.750075
C353	C	-0.061578	0.104690	0.000076
C354	C	0.188422	0.354690	0.250076
C355	C	0.438422	0.604690	0.500076
C356	C	0.688422	0.854690	0.750076
C357	C	-0.042452	0.149025	0.000078
C358	C	0.207548	0.399025	0.250078
C359	C	0.457548	0.649025	0.500078
C360	C	0.707548	0.899025	0.750078
C361	C	0.007960	0.149537	0.000074
C362	C	0.257960	0.399537	0.250074
C363	C	0.507960	0.649537	0.500074
C364	C	0.757960	0.899537	0.750074
C365	C	0.032286	-0.026775	0.000072
C366	C	0.282286	0.223225	0.250072
C367	C	0.532286	0.473225	0.500072
C368	C	0.782286	0.723225	0.750072
C369	C	-0.018127	-0.027284	0.000076
C370	C	0.231873	0.222716	0.250076
C371	C	0.481873	0.472716	0.500076
C372	C	0.731873	0.722716	0.750076
C373	C	-0.049415	0.016538	0.000077
C374	C	0.200585	0.266538	0.250077
C375	C	0.450585	0.516538	0.500077
C376	C	0.700585	0.766538	0.750077
C377	C	0.658934	0.057699	0.000069
C378	C	0.908934	0.307699	0.250069
C379	C	1.158934	0.557699	0.500069
C380	C	1.408934	0.807699	0.750069
C381	C	0.712589	0.058252	0.000072
C382	C	0.962589	0.308252	0.250072
C383	C	1.212589	0.558252	0.500072
C384	C	1.462589	0.808252	0.750072
C385	C	0.566347	0.150291	0.000063
C386	C	0.816347	0.400291	0.250063
C387	C	1.066347	0.650291	0.500063
C388	C	1.316347	0.900291	0.750063
C389	C	0.566903	0.203945	0.000065
C390	C	0.816903	0.453945	0.250065
C391	C	1.066903	0.703945	0.500065
C392	C	1.316903	0.953945	0.750065
N393	N	0.570499	0.061888	0.129308
N394	N	0.820499	0.311888	0.379308
N395	N	1.070499	0.561888	0.629308
N396	N	1.320499	0.811888	0.879308
N397	N	0.570567	0.061885	-0.129186
N398	N	0.820567	0.311885	0.120814
N399	N	1.070567	0.561885	0.370814
N400	N	1.320567	0.811885	0.620814
C401	C	0.599638	0.090999	0.473938
C402	C	0.849638	0.340999	0.723938
C403	C	1.099638	0.590999	0.973938
C404	C	1.349638	0.840999	1.223938
C405	C	0.599654	0.090998	0.682816
C406	C	0.849654	0.340998	0.932816
C407	C	1.099654	0.590998	1.182816
C408	C	1.349654	0.840998	1.432816
O409	O	0.624416	0.115744	0.709823
O410	O	0.874416	0.365744	0.959823
O411	O	1.124416	0.615744	1.209823
O412	O	1.374416	0.865744	1.459823
N413	N	0.570558	0.061883	0.708935
N414	N	0.820558	0.311883	0.958935
N415	N	1.070558	0.561883	1.208935
N416	N	1.320558	0.811883	1.458935
C417	C	0.541458	0.032764	0.682832
C418	C	0.791458	0.282764	0.932832
C419	C	1.041458	0.532764	1.182832
C420	C	1.291458	0.782764	1.432832
O421	O	0.516714	0.007996	0.709841
O422	O	0.766714	0.257996	0.959841
O423	O	1.016714	0.507996	1.209841
O424	O	1.266714	0.757996	1.459841
C425	C	0.541445	0.032762	0.473955
C426	C	0.791445	0.282762	0.723955
C427	C	1.041445	0.532762	0.973955
C428	C	1.291445	0.782762	1.223955
C429	C	0.570539	0.061883	0.447839
C430	C	0.820539	0.311883	0.697839
C431	C	1.070539	0.561883	0.947839
C432	C	1.320539	0.811883	1.197839
C433	C	0.628731	0.120116	0.447822
C434	C	0.878731	0.370116	0.697822
C435	C	1.128731	0.620116	0.947822
C436	C	1.378731	0.870116	1.197822
C437	C	0.628725	0.120118	0.395605
C438	C	0.878725	0.370118	0.645605
C439	C	1.128725	0.620118	0.895605
C440	C	1.378725	0.870118	1.145605
C441	C	0.599626	0.091002	0.369506
C442	C	0.849626	0.341002	0.619506
C443	C	1.099626	0.591002	0.869506
C444	C	1.349626	0.841002	1.119506
C445	C	0.570533	0.061884	0.395622
C446	C	0.820533	0.311884	0.645622
C447	C	1.070533	0.561884	0.895622
C448	C	1.320533	0.811884	1.145622
C449	C	0.512348	0.003640	0.447853
C450	C	0.762348	0.253640	0.697853
C451	C	1.012348	0.503640	0.947853
C452	C	1.262348	0.753640	1.197853
C453	C	0.512348	0.003641	0.395631
C454	C	0.762348	0.253641	0.645631
C455	C	1.012348	0.503641	0.895631
C456	C	1.262348	0.753641	1.145631
C457	C	0.541443	0.032762	0.369514
C458	C	0.791443	0.282762	0.619514
C459	C	1.041443	0.532762	0.869514
C460	C	1.291443	0.782762	1.119514
C461	C	0.541428	0.032770	0.317307
C462	C	0.791428	0.282770	0.567307
C463	C	1.041428	0.532770	0.817307
C464	C	1.291428	0.782770	1.067307
N465	N	0.570525	0.061885	0.291187
N466	N	0.820525	0.311885	0.541187
N467	N	1.070525	0.561885	0.791187
N468	N	1.320525	0.811885	1.041187
C469	C	0.599623	0.091001	0.317287
C470	C	0.849623	0.341001	0.567287
C471	C	1.099623	0.591001	0.817287
C472	C	1.349623	0.841001	1.067287
C473	C	0.541466	0.032767	0.792496
C474	C	0.791466	0.282767	1.042496
C475	C	1.041466	0.532767	1.292496
C476	C	1.291466	0.782767	1.542496
C477	C	0.541468	0.032768	0.844714
C478	C	0.791468	0.282768	1.094714
C479	C	1.041468	0.532768	1.344714
C480	C	1.291468	0.782768	1.594714
C481	C	0.599665	0.091002	0.844695
C482	C	0.849665	0.341002	1.094695
C483	C	1.099665	0.591002	1.344695
C484	C	1.349665	0.841002	1.594695
C485	C	0.599660	0.091004	0.792475
C486	C	0.849660	0.341004	1.042475
C487	C	1.099660	0.591004	1.292475
C488	C	1.349660	0.841004	1.542475
C489	C	0.570562	0.061882	0.766376
C490	C	0.820562	0.311882	1.016376
C491	C	1.070562	0.561882	1.266376
C492	C	1.320562	0.811882	1.516376
C493	C	0.599608	0.091003	0.207629
C494	C	0.849608	0.341003	0.457629
C495	C	1.099608	0.591003	0.707629
C496	C	1.349608	0.841003	0.957629
C497	C	0.599598	0.091004	0.155408
C498	C	0.849598	0.341004	0.405408
C499	C	1.099598	0.591004	0.655408
C500	C	1.349598	0.841004	0.905408
C501	C	0.541403	0.032768	0.155432
C502	C	0.791403	0.282768	0.405432
C503	C	1.041403	0.532768	0.655432
C504	C	1.291403	0.782768	0.905432
C505	C	0.541411	0.032769	0.207649
C506	C	0.791411	0.282769	0.457649
C507	C	1.041411	0.532769	0.707649
C508	C	1.291411	0.782769	0.957649
C509	C	0.570517	0.061888	0.233746
C510	C	0.820517	0.311888	0.483746
C511	C	1.070517	0.561888	0.733746
C512	C	1.320517	0.811888	0.983746
O513	O	0.516683	0.008033	0.290267
O514	O	0.766683	0.258033	0.540267
O515	O	1.016683	0.508033	0.790267
O516	O	1.266683	0.758033	1.040267
O517	O	0.624372	0.115757	0.290269
O518	O	0.874372	0.365757	0.540269
O519	O	1.124372	0.615757	0.790269
O520	O	1.374372	0.865757	1.040269
C521	C	0.599644	0.090997	0.526155
C522	C	0.849644	0.340997	0.776155
C523	C	1.099644	0.590997	1.026155
C524	C	1.349644	0.840997	1.276155
C525	C	0.570552	0.061879	0.552271
C526	C	0.820552	0.311879	0.802271
C527	C	1.070552	0.561879	1.052271
C528	C	1.320552	0.811879	1.302271
C529	C	0.541453	0.032763	0.526172
C530	C	0.791453	0.282763	0.776172
C531	C	1.041453	0.532763	1.026172
C532	C	1.291453	0.782763	1.276172
C533	C	0.570554	0.061880	0.604490
C534	C	0.820554	0.311880	0.854490
C535	C	1.070554	0.561880	1.104490
C536	C	1.320554	0.811880	1.354490
C537	C	0.599653	0.090996	0.630590
C538	C	0.849653	0.340996	0.880590
C539	C	1.099653	0.590996	1.130590
C540	C	1.349653	0.840996	1.380590
C541	C	0.628749	0.120111	0.604470
C542	C	0.878749	0.370111	0.854470
C543	C	1.128749	0.620111	1.104470
C544	C	1.378749	0.870111	1.354470
C545	C	0.628743	0.120113	0.552254
C546	C	0.878743	0.370113	0.802254
C547	C	1.128743	0.620113	1.052254
C548	C	1.378743	0.870113	1.302254
C549	C	0.512357	0.003648	0.552291
C550	C	0.762357	0.253648	0.802291
C551	C	1.012357	0.503648	1.052291
C552	C	1.262357	0.753648	1.302291
C553	C	0.512365	0.003649	0.604508
C554	C	0.762365	0.253649	0.854508
C555	C	1.012365	0.503649	1.104508
C556	C	1.262365	0.753649	1.354508
C557	C	0.541464	0.032765	0.630607
C558	C	0.791464	0.282765	0.880607
C559	C	1.041464	0.532765	1.130607
C560	C	1.291464	0.782765	1.380607
H561	H	0.486974	-0.780335	0.000065
H562	H	0.736974	-0.530335	0.250065
H563	H	0.986974	-0.280335	0.500065
H564	H	1.236974	-0.030335	0.750065
Cl565	Cl	0.713918	-0.476665	0.000034
Cl566	Cl	0.963918	-0.226665	0.250034
Cl567	Cl	1.213918	0.023335	0.500034
Cl568	Cl	1.463918	0.273335	0.750034
H569	H	0.693350	-0.576584	0.000041
H570	H	0.943350	-0.326584	0.250041
H571	H	1.193350	-0.076584	0.500041
H572	H	1.443350	0.173416	0.750041
Cl573	Cl	0.665317	0.156725	0.480623
Cl574	Cl	0.915317	0.406725	0.730623
Cl575	Cl	1.165317	0.656725	0.980623
Cl576	Cl	1.415317	0.906725	1.230623
Cl577	Cl	0.468486	-0.675027	0.000051
Cl578	Cl	0.718486	-0.425027	0.250051
Cl579	Cl	0.968486	-0.175027	0.500051
Cl580	Cl	1.218486	0.074973	0.750051
H581	H	0.434826	-0.014492	0.000045
H582	H	0.684826	0.235508	0.250045
H583	H	0.934826	0.485508	0.500045
H584	H	1.184826	0.735508	0.750045
Cl585	Cl	0.425606	-0.550813	0.000044
Cl586	Cl	0.675606	-0.300813	0.250044
Cl587	Cl	0.925606	-0.050813	0.500044
Cl588	Cl	1.175606	0.199187	0.750044
Cl589	Cl	0.222863	-0.080337	0.000080
Cl590	Cl	0.472863	0.169663	0.250080
Cl591	Cl	0.722863	0.419663	0.500080
Cl592	Cl	0.972863	0.669663	0.750080
H593	H	0.083313	0.186249	0.000069
H594	H	0.333313	0.436249	0.250069
H595	H	0.583313	0.686249	0.500069
H596	H	0.833313	0.936249	0.750069
H597	H	-0.033692	-0.063392	0.000074
H598	H	0.216308	0.186608	0.250074
H599	H	0.466308	0.436608	0.500074
H600	H	0.716308	0.686608	0.750074
H601	H	0.653160	-0.187341	0.000054
H602	H	0.903160	0.062659	0.250054
H603	H	1.153160	0.312659	0.500054
H604	H	1.403160	0.562659	0.750054
H605	H	0.057756	-0.062461	0.000073
H606	H	0.307756	0.187539	0.250073
H607	H	0.557756	0.437539	0.500073
H608	H	0.807756	0.687539	0.750073
Cl609	Cl	0.427139	-0.399577	0.000040
Cl610	Cl	0.677139	-0.149577	0.250040
Cl611	Cl	0.927139	0.100423	0.500040
Cl612	Cl	1.177139	0.350423	0.750040
Cl613	Cl	0.636173	0.127619	0.122579
Cl614	Cl	0.886173	0.377619	0.372579
Cl615	Cl	1.136173	0.627619	0.622579
Cl616	Cl	1.386173	0.877619	0.872579
Cl617	Cl	-0.166382	-0.040157	0.000074
Cl618	Cl	0.083618	0.209843	0.250074
Cl619	Cl	0.333618	0.459843	0.500074
Cl620	Cl	0.583618	0.709843	0.750074
Cl621	Cl	0.426759	-0.437043	0.000042
Cl622	Cl	0.676759	-0.187043	0.250042
Cl623	Cl	0.926759	0.062957	0.500042
Cl624	Cl	1.176759	0.312957	0.750042
H625	H	0.517713	0.009063	0.228914
H626	H	0.767713	0.259063	0.478914
H627	H	1.017713	0.509063	0.728914
H628	H	1.267713	0.759063	0.978914
Cl629	Cl	0.636239	0.127611	0.759648
Cl630	Cl	0.886239	0.377611	1.009648
Cl631	Cl	1.136239	0.627611	1.259648
Cl632	Cl	1.386239	0.877611	1.509648
Cl633	Cl	0.504872	-0.003836	0.759693
Cl634	Cl	0.754872	0.246164	1.009693
Cl635	Cl	1.004872	0.496164	1.259693
Cl636	Cl	1.254872	0.746164	1.509693
H637	H	0.647851	-0.710939	0.000070
H638	H	0.897851	-0.460939	0.250070
H639	H	1.147851	-0.210939	0.500070
H640	H	1.397851	0.039061	0.750070
H641	H	0.488653	-0.020073	0.374384
H642	H	0.738653	0.229927	0.624384
H643	H	0.988653	0.479927	0.874384
H644	H	1.238653	0.729927	1.124384
Cl645	Cl	0.504823	-0.003832	0.122612
Cl646	Cl	0.754823	0.246168	0.372612
Cl647	Cl	1.004823	0.496168	0.622612
Cl648	Cl	1.254823	0.746168	0.872612
H649	H	0.652440	0.143821	0.625730
H650	H	0.902440	0.393821	0.875730
H651	H	1.152440	0.643821	1.125730
H652	H	1.402440	0.893821	1.375730
Cl653	Cl	0.665318	0.156727	0.519429
Cl654	Cl	0.915318	0.406727	0.769429
Cl655	Cl	1.165318	0.656727	1.019429
Cl656	Cl	1.415318	0.906727	1.269429
H657	H	0.343359	-0.015426	0.000046
H658	H	0.593359	0.234574	0.250046
H659	H	0.843359	0.484574	0.500046
H660	H	1.093359	0.734574	0.750046
Cl661	Cl	0.475782	-0.032961	0.637334
Cl662	Cl	0.725782	0.217039	0.887334
Cl663	Cl	0.975782	0.467039	1.137334
Cl664	Cl	1.225782	0.717039	1.387334
Cl665	Cl	-0.307628	0.157680	0.000076
Cl666	Cl	-0.057628	0.407680	0.250076
Cl667	Cl	0.192372	0.657680	0.500076
Cl668	Cl	0.442372	0.907680	0.750076
H669	H	0.646920	-0.802406	0.000071
H670	H	0.896920	-0.552406	0.250071
H671	H	1.146920	-0.302406	0.500071
H672	H	1.396920	-0.052406	0.750071
H673	H	0.447710	-0.299648	0.000039
H674	H	0.697710	-0.049648	0.250039
H675	H	0.947710	0.200352	0.500039
H676	H	1.197710	0.450352	0.750039
H677	H	0.493206	-0.165279	0.000054
H678	H	0.743206	0.084721	0.250054
H679	H	0.993206	0.334721	0.500054
H680	H	1.243206	0.584721	0.750054
Cl681	Cl	-0.193834	0.158843	0.000068
Cl682	Cl	0.056166	0.408843	0.250068
Cl683	Cl	0.306166	0.658843	0.500068
Cl684	Cl	0.556166	0.908843	0.750068
Cl685	Cl	0.715445	-0.325417	0.000047
Cl686	Cl	0.965445	-0.075417	0.250047
Cl687	Cl	1.215445	0.174583	0.500047
Cl688	Cl	1.465445	0.424583	0.750047
Cl689	Cl	-0.280157	-0.041311	0.000062
Cl690	Cl	-0.030157	0.208689	0.250062
Cl691	Cl	0.219843	0.458689	0.500062
Cl692	Cl	0.469843	0.708689	0.750062
Cl693	Cl	0.714290	-0.439190	0.000056
Cl694	Cl	0.964290	-0.189190	0.250056
Cl695	Cl	1.214290	0.060810	0.500056
Cl696	Cl	1.464290	0.310810	0.750056
H697	H	0.412752	0.145453	0.000045
H698	H	0.662752	0.395453	0.250045
H699	H	0.912752	0.645453	0.500045
H700	H	1.162752	0.895453	0.750045
H701	H	0.623309	0.114714	0.228871
H702	H	0.873309	0.364714	0.478871
H703	H	1.123309	0.614714	0.728871
H704	H	1.373309	0.864714	0.978871
H705	H	0.321299	0.144528	0.000059
H706	H	0.571299	0.394528	0.250059
H707	H	0.821299	0.644528	0.500059
H708	H	1.071299	0.894528	0.750059
Cl709	Cl	-0.081795	0.204115	0.000077
Cl710	Cl	0.168205	0.454115	0.250077
Cl711	Cl	0.418205	0.704115	0.500077
Cl712	Cl	0.668205	0.954115	0.750077
H713	H	0.494139	-0.073813	0.000049
H714	H	0.744139	0.176187	0.250049
H715	H	0.994139	0.426187	0.500049
H716	H	1.244139	0.676187	0.750049
Cl717	Cl	0.109088	-0.081499	0.000070
Cl718	Cl	0.359088	0.168501	0.250070
Cl719	Cl	0.609088	0.418501	0.500070
Cl720	Cl	0.859088	0.668501	0.750070
Cl721	Cl	0.031993	0.205279	0.000070
Cl722	Cl	0.281993	0.455279	0.250070
Cl723	Cl	0.531993	0.705279	0.500070
Cl724	Cl	0.781993	0.955279	0.750070
H725	H	0.652418	0.143829	0.374346
H726	H	0.902418	0.393829	0.624346
H727	H	1.152418	0.643829	0.874346
H728	H	1.402418	0.893829	1.124346
H729	H	0.174761	0.187179	0.000059
H730	H	0.424761	0.437179	0.250059
H731	H	0.674761	0.687179	0.500059
H732	H	0.924761	0.937179	0.750059
Cl733	Cl	0.636248	0.127603	0.877515
Cl734	Cl	0.886248	0.377603	1.127515
Cl735	Cl	1.136248	0.627603	1.377515
Cl736	Cl	1.386248	0.877603	1.627515
H737	H	0.517771	0.009061	0.865974
H738	H	0.767771	0.259061	1.115974
H739	H	1.017771	0.509061	1.365974
H740	H	1.267771	0.759061	1.615974
H741	H	0.654085	-0.095890	0.000064
H742	H	0.904085	0.154110	0.250064
H743	H	1.154085	0.404110	0.500064
H744	H	1.404085	0.654110	0.750064
Cl745	Cl	0.475770	-0.032971	0.480673
Cl746	Cl	0.725770	0.217029	0.730673
Cl747	Cl	0.975770	0.467029	0.980673
Cl748	Cl	1.225770	0.717029	1.230673
Cl749	Cl	0.475763	-0.032951	0.519488
Cl750	Cl	0.725763	0.217049	0.769488
Cl751	Cl	0.975763	0.467049	1.019488
Cl752	Cl	1.225763	0.717049	1.269488
