data_functionalizedCrystal
_audit_creation_method	'MofGen! by Chris Wilmer'
_symmetry_space_group_name_H-M	'P1'
_symmetry_Int_Tables_number	1
_symmetry_cell_setting	triclinic
loop_
_symmetry_equiv_pos_as_xyz
  x,y,z
_cell_length_a	19.077105
_cell_length_b	21.295417
_cell_length_c	19.077174
_cell_angle_alpha	92.269360
_cell_angle_beta	85.483752
_cell_angle_gamma	87.725910
loop_
_atom_site_label
_atom_site_type_symbol
_atom_site_fract_x
_atom_site_fract_y
_atom_site_fract_z
Zn1	Zn	1.093674	-0.305857	-0.441820
Zn2	Zn	1.593674	0.194143	0.058180
Zn3	Zn	1.088849	-0.406717	-0.323924
Zn4	Zn	1.588849	0.093283	0.176076
Zn5	Zn	0.971060	-0.297057	-0.319218
Zn6	Zn	1.471060	0.202943	0.180782
Zn7	Zn	0.975743	-0.406676	-0.437042
Zn8	Zn	1.475743	0.093324	0.062958
O9	O	1.032332	-0.354077	-0.380501
O10	O	1.532332	0.145923	0.119499
O11	O	1.191684	-0.322936	-0.430150
O12	O	1.691684	0.177064	0.069850
O13	O	1.069245	-0.388505	-0.224651
O14	O	1.569245	0.111495	0.275349
O15	O	0.987385	-0.210138	-0.335511
O16	O	1.487385	0.289862	0.164489
O17	O	1.188139	-0.397038	-0.343533
O18	O	1.688139	0.102962	0.156467
O19	O	1.077469	-0.216603	-0.425586
O20	O	1.577469	0.283397	0.074414
O21	O	0.982706	-0.307938	-0.221193
O22	O	1.482706	0.192062	0.278807
O23	O	0.873032	-0.307898	-0.330879
O24	O	1.373032	0.192102	0.169121
O25	O	0.995366	-0.396967	-0.536325
O26	O	1.495366	0.103033	-0.036325
O27	O	0.876472	-0.388435	-0.417444
O28	O	1.376472	0.111565	0.082556
O29	O	1.082010	-0.322896	-0.539836
O30	O	1.582010	0.177104	-0.039836
O31	O	1.073785	-0.494798	-0.338900
O32	O	1.573785	0.005202	0.161100
O33	O	0.990687	-0.494767	-0.422007
O34	O	1.490687	0.005233	0.077993
C35	C	0.849173	-0.347208	-0.373132
C36	C	1.349173	0.152792	0.126868
C37	C	0.770818	-0.344285	-0.369997
C38	C	1.270818	0.155715	0.130003
C39	C	0.735813	-0.384901	-0.413522
C40	C	1.235813	0.115099	0.086478
C41	C	0.662190	-0.382146	-0.410579
C42	C	1.162190	0.117854	0.089421
C43	C	0.623573	-0.338779	-0.364107
C44	C	1.123573	0.161221	0.135893
C45	C	0.658583	-0.298159	-0.320579
C46	C	1.158583	0.201841	0.179421
C47	C	0.732205	-0.300910	-0.323526
C48	C	1.232205	0.199090	0.176474
C49	C	0.403193	-0.326043	-0.350471
C50	C	0.903193	0.173957	0.149529
C51	C	0.329566	-0.323296	-0.347526
C52	C	0.829566	0.176704	0.152474
C53	C	0.333179	-0.407283	-0.437527
C54	C	0.833179	0.092717	0.062473
C55	C	0.406802	-0.410034	-0.440467
C56	C	0.906802	0.089966	0.059533
C57	C	0.441805	-0.369411	-0.396942
C58	C	0.941805	0.130589	0.103058
N59	N	0.548318	-0.335964	-0.361096
N60	N	1.048318	0.164036	0.138904
N61	N	0.517059	-0.372224	-0.399957
N62	N	1.017059	0.127776	0.100043
C63	C	1.032240	-0.517624	-0.380462
C64	C	1.532240	-0.017624	0.119538
C65	C	1.032267	-0.587593	-0.380471
C66	C	1.532267	-0.087593	0.119529
C67	C	1.079149	-0.623769	-0.427404
C68	C	1.579149	-0.123769	0.072596
C69	C	1.079175	-0.689513	-0.427423
C70	C	1.579175	-0.189513	0.072577
C71	C	1.032325	-0.719078	-0.380496
C72	C	1.532325	-0.219078	0.119504
C73	C	0.985434	-0.682894	-0.333559
C74	C	1.485434	-0.182894	0.166441
C75	C	0.985405	-0.617151	-0.333547
C76	C	1.485405	-0.117151	0.166453
N77	N	1.024526	-0.819835	-0.318587
N78	N	1.524526	-0.319835	0.181413
N79	N	1.024558	-0.882288	-0.318601
N80	N	1.524558	-0.382288	0.181399
C81	C	1.032408	-0.917157	-0.380531
C82	C	1.532408	-0.417157	0.119469
N83	N	1.040240	-0.887215	-0.442448
N84	N	1.540240	-0.387215	0.057552
N85	N	1.040212	-0.824756	-0.442434
N86	N	1.540212	-0.324756	0.057566
C87	C	1.032351	-0.790365	-0.380504
C88	C	1.532351	-0.290365	0.119496
C89	C	1.079321	-1.024621	-0.427488
C90	C	1.579321	-0.524621	0.072512
C91	C	1.079342	-1.090366	-0.427507
C92	C	1.579342	-0.590366	0.072493
C93	C	0.985604	-1.083746	-0.333637
C94	C	1.485604	-0.583746	0.166363
C95	C	0.985580	-1.018002	-0.333624
C96	C	1.485580	-0.518002	0.166376
C97	C	1.032442	-0.988444	-0.380549
C98	C	1.532442	-0.488444	0.119451
C99	C	1.216205	-0.360973	-0.387899
C100	C	1.716205	0.139027	0.112101
C101	C	1.294561	-0.363912	-0.391052
C102	C	1.794561	0.136088	0.108948
C103	C	1.039748	-0.360909	-0.564374
C104	C	1.539748	0.139091	-0.064374
C105	C	1.042909	-0.363820	-0.642730
C106	C	1.542909	0.136180	-0.142730
C107	C	1.032443	-0.189892	-0.380557
C108	C	1.532443	0.310108	0.119443
C109	C	1.032491	-0.119927	-0.380581
C110	C	1.532491	0.380073	0.119419
C111	C	0.999340	-0.323242	-0.677741
C112	C	1.499340	0.176758	-0.177741
C113	C	1.002307	-0.325982	-0.751365
C114	C	1.502307	0.174018	-0.251365
C115	C	1.048847	-0.369299	-0.789976
C116	C	1.548847	0.130701	-0.289976
C117	C	1.092418	-0.409881	-0.754960
C118	C	1.592418	0.090119	-0.254960
C119	C	1.089447	-0.407143	-0.681338
C120	C	1.589447	0.092857	-0.181338
C121	C	1.062560	-0.381988	-1.010356
C122	C	1.562560	0.118012	-0.510356
C123	C	1.065530	-0.384722	-1.083984
C124	C	1.565530	0.115278	-0.583984
C125	C	0.975417	-0.300824	-1.080384
C126	C	1.475417	0.199176	-0.580384
C127	C	0.972453	-0.298087	-1.006760
C128	C	1.472453	0.201913	-0.506760
C129	C	1.016021	-0.338672	-0.971750
C130	C	1.516021	0.161328	-0.471750
N131	N	1.051882	-0.372100	-0.865231
N132	N	1.551882	0.127900	-0.365231
N133	N	1.012982	-0.335873	-0.896496
N134	N	1.512982	0.164127	-0.396496
C135	C	1.024984	-0.347227	-0.197345
C136	C	1.524984	0.152773	0.302655
C137	C	1.021960	-0.344144	-0.118995
C138	C	1.521960	0.155856	0.381005
H139	H	0.767250	-0.420218	-0.451363
H140	H	1.267250	0.079782	0.048637
C141	C	0.933899	-0.715413	-0.281937
C142	C	1.433899	-0.215413	0.218063
C143	C	0.933931	-0.787727	-0.281945
C144	C	1.433931	-0.287727	0.218055
C145	C	0.882392	-0.820245	-0.230324
C146	C	1.382392	-0.320245	0.269676
C147	C	0.830820	-0.780448	-0.178696
C148	C	1.330820	-0.280448	0.321304
C149	C	0.830785	-0.708129	-0.178686
C150	C	1.330785	-0.208129	0.321314
C151	C	0.882325	-0.675612	-0.230307
C152	C	1.382325	-0.175612	0.269693
H153	H	0.972110	-0.817191	-0.320166
H154	H	1.472110	-0.317191	0.179834
H155	H	0.882418	-0.873780	-0.230332
H156	H	1.382418	-0.373780	0.269668
H157	H	0.792667	-0.804519	-0.140483
H158	H	1.292667	-0.304519	0.359517
H159	H	0.792607	-0.678666	-0.140465
H160	H	1.292607	-0.178666	0.359535
H161	H	0.882299	-0.622077	-0.230299
H162	H	1.382299	-0.122077	0.269701
C163	C	0.294674	-0.451960	-0.485409
C164	C	0.794674	0.048040	0.014591
C165	C	0.213693	-0.448936	-0.482175
C166	C	0.713693	0.051064	0.017825
C167	C	0.175189	-0.493613	-0.530061
C168	C	0.675189	0.006387	-0.030061
C169	C	0.217666	-0.541314	-0.581181
C170	C	0.717666	-0.041314	-0.081181
C171	C	0.298652	-0.544341	-0.584417
C172	C	0.798652	-0.044341	-0.084417
C173	C	0.337156	-0.499664	-0.536531
C174	C	0.837156	0.000336	-0.036531
H175	H	0.182245	-0.413623	-0.444330
H176	H	0.682245	0.086377	0.055670
H177	H	0.115238	-0.491372	-0.527665
H178	H	0.615238	0.008628	-0.027665
H179	H	0.189163	-0.574387	-0.616630
H180	H	0.689163	-0.074387	-0.116630
H181	H	0.330100	-0.579654	-0.622262
H182	H	0.830100	-0.079654	-0.122262
H183	H	0.397107	-0.501904	-0.538927
H184	H	0.897107	-0.001904	-0.038927
C185	C	1.116724	-0.432384	-1.126445
C186	C	1.616724	0.067616	-0.626445
C187	C	1.174144	-0.409084	-1.179292
C188	C	1.674144	0.090916	-0.679292
C189	C	1.225336	-0.456747	-1.221747
C190	C	1.725336	0.043253	-0.721747
C191	C	1.219107	-0.527710	-1.211356
C192	C	1.719107	-0.027710	-0.711356
C193	C	1.161684	-0.551014	-1.158506
C194	C	1.661684	-0.051014	-0.658506
C195	C	1.110492	-0.503351	-1.116051
C196	C	1.610492	-0.003351	-0.616051
H197	H	1.178758	-0.356550	-1.186987
H198	H	1.678758	0.143450	-0.686987
H199	H	1.267845	-0.439495	-1.260870
H200	H	1.767845	0.060505	-0.760870
H201	H	1.257002	-0.562993	-1.242784
H202	H	1.757002	-0.062993	-0.742784
H203	H	1.157071	-0.603548	-1.150812
H204	H	1.657071	-0.103548	-0.650812
H205	H	1.067984	-0.520603	-1.076929
H206	H	1.567984	-0.020603	-0.576929
C207	C	0.623688	-0.426828	-0.458458
C208	C	1.123688	0.073172	0.041542
C209	C	0.633535	-0.498538	-0.452955
C210	C	1.133535	0.001462	0.047045
C211	C	0.595035	-0.543222	-0.500838
C212	C	1.095035	-0.043222	-0.000838
C213	C	0.546687	-0.516195	-0.554223
C214	C	1.046687	-0.016195	-0.054223
C215	C	0.536838	-0.444480	-0.559728
C216	C	1.036838	0.055520	-0.059728
C217	C	0.575338	-0.399797	-0.511846
C218	C	1.075338	0.100203	-0.011846
H219	H	0.669326	-0.518549	-0.413434
H220	H	1.169326	-0.018549	0.086566
H221	H	0.602326	-0.596309	-0.496763
H222	H	1.102326	-0.096309	0.003237
H223	H	0.518187	-0.549272	-0.589669
H224	H	1.018187	-0.049272	-0.089669
H225	H	0.501047	-0.424470	-0.599249
H226	H	1.001047	0.075530	-0.099249
H227	H	0.568047	-0.346709	-0.515921
H228	H	1.068047	0.153291	-0.015921
H229	H	0.298126	-0.287973	-0.309687
H230	H	0.798126	0.212027	0.190313
H231	H	0.438239	-0.445350	-0.478309
H232	H	0.938239	0.054650	0.021691
C233	C	1.110504	-0.426626	-0.971868
C234	C	1.610504	0.073374	-0.471868
C235	C	1.191053	-0.424856	-0.985239
C236	C	1.691053	0.075144	-0.485239
C237	C	1.239007	-0.469495	-0.946755
C238	C	1.739007	0.030505	-0.446755
C239	C	1.206412	-0.515904	-0.894899
C240	C	1.706412	-0.015904	-0.394899
C241	C	1.125859	-0.517677	-0.881525
C242	C	1.625859	-0.017677	-0.381525
C243	C	1.077905	-0.473037	-0.920010
C244	C	1.577905	0.026963	-0.420010
H245	H	1.215186	-0.390499	-1.023628
H246	H	1.715186	0.109501	-0.523628
H247	H	1.298638	-0.468183	-0.956655
H248	H	1.798638	0.031817	-0.456655
H249	H	1.241910	-0.548949	-0.866410
H250	H	1.741910	-0.048949	-0.366410
H251	H	1.101726	-0.552033	-0.843136
H252	H	1.601726	-0.052033	-0.343136
H253	H	1.018274	-0.474350	-0.910109
H254	H	1.518274	0.025650	-0.410109
C255	C	0.616106	-0.250453	-0.269458
C256	C	1.116106	0.249547	0.230542
C257	C	0.535125	-0.247427	-0.266210
C258	C	1.035125	0.252573	0.233790
C259	C	0.492650	-0.199722	-0.215085
C260	C	0.992650	0.300278	0.284915
C261	C	0.531157	-0.155044	-0.167209
C262	C	1.031157	0.344956	0.332791
C263	C	0.612143	-0.158069	-0.170455
C264	C	1.112143	0.341931	0.329545
C265	C	0.654617	-0.205774	-0.221579
C266	C	1.154617	0.294226	0.278421
H267	H	0.506616	-0.280501	-0.301653
H268	H	1.006616	0.219499	0.198347
H269	H	0.432699	-0.197483	-0.212683
H270	H	0.932699	0.302517	0.287317
H271	H	0.499714	-0.119730	-0.129363
H272	H	0.999714	0.380270	0.370637
H273	H	0.640652	-0.124994	-0.135012
H274	H	1.140652	0.375006	0.364988
H275	H	0.714569	-0.208013	-0.223982
H276	H	1.214569	0.291987	0.276018
H277	H	0.947454	-1.107817	-0.295433
H278	H	1.447454	-0.607817	0.204567
H279	H	0.431684	-0.292970	-0.315025
H280	H	0.931684	0.207030	0.184975
H281	H	0.947407	-0.988545	-0.295404
H282	H	1.447407	-0.488545	0.204596
C283	C	0.770714	-0.256232	-0.275649
C284	C	1.270714	0.243768	0.224351
C285	C	0.760866	-0.184522	-0.281148
C286	C	1.260866	0.315478	0.218852
C287	C	0.799375	-0.139839	-0.233273
C288	C	1.299375	0.360161	0.266727
C289	C	0.847734	-0.166868	-0.179898
C290	C	1.347734	0.333132	0.320102
C291	C	0.857585	-0.238582	-0.174397
C292	C	1.357585	0.261418	0.325603
C293	C	0.819075	-0.283264	-0.222272
C294	C	1.319075	0.216736	0.277728
H295	H	0.725066	-0.164510	-0.320661
H296	H	1.225066	0.335490	0.179339
H297	H	0.792083	-0.086752	-0.237346
H298	H	1.292083	0.413248	0.262654
H299	H	0.876241	-0.133791	-0.144458
H300	H	1.376241	0.366209	0.355542
H301	H	0.893384	-0.258593	-0.134884
H302	H	1.393384	0.241407	0.365116
H303	H	0.826367	-0.336352	-0.218199
H304	H	1.326367	0.163648	0.281801
H305	H	1.117305	-0.599705	-0.465615
H306	H	1.617305	-0.099705	0.034385
H307	H	0.961445	-0.287966	-0.646309
H308	H	1.461445	0.212034	-0.146309
H309	H	1.117346	-0.718973	-0.465650
H310	H	1.617346	-0.218973	0.034350
C311	C	0.933835	-0.577354	-0.281913
C312	C	1.433835	-0.077354	0.218087
C313	C	0.936424	-0.583661	-0.202013
C314	C	1.436424	-0.083661	0.297987
C315	C	0.884855	-0.543863	-0.150377
C316	C	1.384855	-0.043863	0.349623
C317	C	0.830696	-0.497757	-0.178641
C318	C	1.330696	0.002243	0.321359
C319	C	0.828104	-0.491447	-0.258545
C320	C	1.328104	0.008553	0.241455
C321	C	0.879674	-0.531246	-0.310180
C322	C	1.379674	-0.031246	0.189820
H323	H	0.976518	-0.617793	-0.181087
H324	H	1.476518	-0.117793	0.318913
H325	H	0.886774	-0.548533	-0.091227
H326	H	1.386774	-0.048533	0.408773
H327	H	0.792522	-0.468295	-0.140417
H328	H	1.292522	0.031705	0.359583
H329	H	0.788011	-0.457315	-0.279471
H330	H	1.288011	0.042685	0.220529
H331	H	0.877755	-0.526575	-0.369330
H332	H	1.377755	-0.026575	0.130670
C333	C	1.130864	-0.992101	-0.479105
C334	C	1.630864	-0.492101	0.020895
C335	C	1.182430	-1.031898	-0.530739
C336	C	1.682430	-0.531898	-0.030739
C337	C	1.233974	-0.999380	-0.582356
C338	C	1.733974	-0.499380	-0.082356
C339	C	1.233952	-0.927066	-0.582338
C340	C	1.733952	-0.427066	-0.082338
C341	C	1.182383	-0.887265	-0.530702
C342	C	1.682383	-0.387265	-0.030702
C343	C	1.130839	-0.919783	-0.479086
C344	C	1.630839	-0.419783	0.020914
H345	H	1.182449	-1.085433	-0.530754
H346	H	1.682449	-0.585433	-0.030754
H347	H	1.272149	-1.028844	-0.620580
H348	H	1.772149	-0.528844	-0.120580
H349	H	1.272108	-0.902995	-0.620548
H350	H	1.772108	-0.402995	-0.120548
H351	H	1.182365	-0.833730	-0.530688
H352	H	1.682365	-0.333730	-0.030688
H353	H	1.092665	-0.890319	-0.440862
H354	H	1.592665	-0.390319	0.059138
C355	C	0.954384	-0.281339	-0.789874
C356	C	1.454384	0.218661	-0.289874
C357	C	0.873831	-0.283082	-0.776520
C358	C	1.373831	0.216918	-0.276520
C359	C	0.825906	-0.238436	-0.815027
C360	C	1.325906	0.261564	-0.315027
C361	C	0.858533	-0.192046	-0.866888
C362	C	1.358533	0.307954	-0.366888
C363	C	0.939090	-0.190301	-0.880243
C364	C	1.439090	0.309699	-0.380243
C365	C	0.987015	-0.234948	-0.841737
C366	C	1.487015	0.265052	-0.341737
H367	H	0.849674	-0.317424	-0.738128
H368	H	1.349674	0.182576	-0.238128
H369	H	0.766272	-0.239727	-0.805140
H370	H	1.266272	0.260273	-0.305140
H371	H	0.823056	-0.158996	-0.895393
H372	H	1.323056	0.341004	-0.395393
H373	H	0.963247	-0.155959	-0.918636
H374	H	1.463247	0.344041	-0.418636
H375	H	1.046649	-0.233656	-0.851624
H376	H	1.546649	0.266344	-0.351624
H377	H	1.117519	-1.119820	-0.465729
H378	H	1.617519	-0.619820	0.034271
H379	H	0.934553	-0.262816	-0.975327
H380	H	1.434553	0.237184	-0.475327
H381	H	0.939945	-0.267783	-1.108897
H382	H	1.439945	0.232217	-0.608897
H383	H	1.130308	-0.445153	-0.786403
H384	H	1.630308	0.054847	-0.286403
H385	H	1.124931	-0.440182	-0.652833
H386	H	1.624931	0.059818	-0.152833
