data_functionalizedCrystal
_audit_creation_method	'MofGen! by Chris Wilmer'
_symmetry_space_group_name_H-M	'P1'
_symmetry_Int_Tables_number	1
_symmetry_cell_setting	triclinic
loop_
_symmetry_equiv_pos_as_xyz
  x,y,z
_cell_length_a	13.897448
_cell_length_b	13.897449
_cell_length_c	12.759393
_cell_angle_alpha	90.023249
_cell_angle_beta	89.967173
_cell_angle_gamma	89.982475
loop_
_atom_site_label
_atom_site_type_symbol
_atom_site_fract_x
_atom_site_fract_y
_atom_site_fract_z
Zn1	Zn	-0.383967	-1.474706	-0.594085
Zn2	Zn	-0.050634	-1.141373	-0.260752
Zn3	Zn	0.282699	-0.808040	0.072582
Zn4	Zn	-0.545295	-1.474599	-0.418400
Zn5	Zn	-0.211962	-1.141266	-0.085066
Zn6	Zn	0.121372	-0.807933	0.248267
Zn7	Zn	-0.384015	-1.313394	-0.418412
Zn8	Zn	-0.050682	-0.980061	-0.085078
Zn9	Zn	0.282651	-0.646728	0.248255
Zn10	Zn	-0.545221	-1.313377	-0.594028
Zn11	Zn	-0.211888	-0.980044	-0.260695
Zn12	Zn	0.121445	-0.646711	0.072638
O13	O	-0.464625	-1.394019	-0.506231
O14	O	-0.131291	-1.060686	-0.172898
O15	O	0.202042	-0.727353	0.160436
O16	O	-0.405378	-1.609674	-0.570799
O17	O	-0.072045	-1.276340	-0.237465
O18	O	0.261288	-0.943007	0.095868
O19	O	-0.523952	-1.453177	-0.271380
O20	O	-0.190619	-1.119844	0.061953
O21	O	0.142715	-0.786511	0.395287
O22	O	-0.249027	-1.334845	-0.441744
O23	O	0.084306	-1.001511	-0.108410
O24	O	0.417639	-0.668178	0.224923
O25	O	-0.523905	-1.609595	-0.441723
O26	O	-0.190572	-1.276262	-0.108390
O27	O	0.142761	-0.942928	0.224943
O28	O	-0.248992	-1.453360	-0.570810
O29	O	0.084341	-1.120027	-0.237477
O30	O	0.417675	-0.786693	0.095856
O31	O	-0.405460	-1.334741	-0.271389
O32	O	-0.072127	-1.001408	0.061944
O33	O	0.261206	-0.668074	0.395278
O34	O	-0.405389	-1.178410	-0.441689
O35	O	-0.072056	-0.845077	-0.108356
O36	O	0.261278	-0.511744	0.224978
O37	O	-0.523780	-1.334815	-0.741057
O38	O	-0.190446	-1.001482	-0.407724
O39	O	0.142887	-0.668149	-0.074390
O40	O	-0.523826	-1.178398	-0.570714
O41	O	-0.190493	-0.845065	-0.237380
O42	O	0.142840	-0.511731	0.095953
O43	O	-0.405307	-1.453343	-0.741099
O44	O	-0.071974	-1.120010	-0.407765
O45	O	0.261360	-0.786677	-0.074432
O46	O	-0.680267	-1.453161	-0.441668
O47	O	-0.346934	-1.119827	-0.108335
O48	O	-0.013600	-0.786494	0.224998
O49	O	-0.680213	-1.334712	-0.570702
O50	O	-0.346880	-1.001378	-0.237369
O51	O	-0.013546	-0.668045	0.095965
C52	C	-0.464606	-1.143405	-0.506197
C53	C	-0.131272	-0.810072	-0.172864
C54	C	0.202061	-0.476738	0.160470
C55	C	-0.464621	-1.036191	-0.506207
C56	C	-0.131287	-0.702858	-0.172874
C57	C	0.202046	-0.369524	0.160459
C58	C	-0.464619	-0.839896	-0.506227
C59	C	-0.131286	-0.506563	-0.172894
C60	C	0.202048	-0.173229	0.160440
C61	C	-0.464617	-0.949128	-0.506213
C62	C	-0.131284	-0.615795	-0.172880
C63	C	0.202050	-0.282462	0.160453
C64	C	-0.715239	-1.393949	-0.506201
C65	C	-0.381906	-1.060616	-0.172867
C66	C	-0.048572	-0.727282	0.160466
C67	C	-0.822453	-1.394007	-0.506223
C68	C	-0.489120	-1.060674	-0.172889
C69	C	-0.155786	-0.727340	0.160444
C70	C	-1.018748	-1.394108	-0.506289
C71	C	-0.685415	-1.060775	-0.172955
C72	C	-0.352081	-0.727442	0.160378
C73	C	-0.909516	-1.394049	-0.506255
C74	C	-0.576182	-1.060716	-0.172922
C75	C	-0.242849	-0.727383	0.160411
C76	C	-0.213032	-1.394116	-0.506285
C77	C	0.120302	-1.060783	-0.172951
C78	C	0.453635	-0.727450	0.160382
C79	C	-0.105818	-1.394158	-0.506307
C80	C	0.227515	-1.060824	-0.172974
C81	C	0.560849	-0.727491	0.160359
C82	C	-0.464530	-1.394089	-0.780265
C83	C	-0.131196	-1.060756	-0.446931
C84	C	0.202137	-0.727423	-0.113598
C85	C	-0.464489	-1.394119	-0.897041
C86	C	-0.131156	-1.060786	-0.563708
C87	C	0.202177	-0.727453	-0.230375
C88	C	-0.464638	-0.645612	-0.506256
C89	C	-0.131305	-0.312279	-0.172922
C90	C	0.202028	0.021054	0.160411
C91	C	-0.464628	-0.752826	-0.506240
C92	C	-0.131295	-0.419493	-0.172907
C93	C	0.202039	-0.086159	0.160426
C94	C	-0.402754	-1.455861	-1.061658
C95	C	-0.069421	-1.122528	-0.728325
C96	C	0.263913	-0.789195	-0.394991
C97	C	-0.402792	-1.455843	-0.951934
C98	C	-0.069458	-1.122509	-0.618600
C99	C	0.263875	-0.789176	-0.285267
C100	C	-0.526161	-1.332417	-0.951879
C101	C	-0.192827	-0.999084	-0.618545
C102	C	0.140506	-0.665751	-0.285212
C103	C	-0.526127	-1.332441	-1.061601
C104	C	-0.192794	-0.999108	-0.728268
C105	C	0.140539	-0.665775	-0.394934
C106	C	-0.464650	-1.394005	-0.233264
C107	C	-0.131317	-1.060672	0.100070
C108	C	0.202017	-0.727338	0.433403
C109	C	-0.464419	-1.394162	-0.116488
C110	C	-0.131085	-1.060829	0.216846
C111	C	0.202248	-0.727495	0.550179
H112	H	-0.352506	-1.506118	-1.106343
H113	H	-0.019173	-1.172784	-0.773010
H114	H	0.314160	-0.839451	-0.439677
C115	C	-0.539491	-1.202724	-1.184988
C116	C	-0.206158	-0.869390	-0.851654
C117	C	0.127175	-0.536057	-0.518321
C118	C	-0.593917	-1.264624	-1.121886
C119	C	-0.260584	-0.931291	-0.788553
C120	C	0.072750	-0.597958	-0.455219
H121	H	-0.581345	-1.160868	-1.222211
H122	H	-0.248012	-0.827535	-0.888877
H123	H	0.085322	-0.494201	-0.555544
H124	H	-0.497491	-1.165825	-1.142192
H125	H	-0.164157	-0.832492	-0.808859
H126	H	0.169176	-0.499159	-0.475525
H127	H	-0.502739	-1.239501	-1.233368
H128	H	-0.169406	-0.906168	-0.900035
H129	H	0.163927	-0.572834	-0.566702
H130	H	-0.630664	-1.227847	-1.073500
H131	H	-0.297330	-0.894514	-0.740167
H132	H	0.036003	-0.561181	-0.406833
H133	H	-0.635935	-1.301526	-1.164685
H134	H	-0.302601	-0.968193	-0.831352
H135	H	0.030732	-0.634860	-0.498019
H136	H	-0.352579	-1.506086	-0.907296
H137	H	-0.019246	-1.172752	-0.573963
H138	H	0.314088	-0.839419	-0.240630
H139	H	-0.576400	-1.282165	-0.907177
H140	H	-0.243067	-0.948832	-0.573843
H141	H	0.090267	-0.615499	-0.240510
