data_functionalizedCrystal
_audit_creation_method	'MofGen! by Chris Wilmer'
_symmetry_space_group_name_H-M	'P1'
_symmetry_Int_Tables_number	1
_symmetry_cell_setting	triclinic
loop_
_symmetry_equiv_pos_as_xyz
  x,y,z
_cell_length_a	11.792241
_cell_length_b	10.654562
_cell_length_c	9.130313
_cell_angle_alpha	89.996930
_cell_angle_beta	89.996286
_cell_angle_gamma	95.658240
loop_
_atom_site_label
_atom_site_type_symbol
_atom_site_fract_x
_atom_site_fract_y
_atom_site_fract_z
O1	O	-0.159483	1.667374	-0.121878
O2	O	-0.174657	1.301854	-0.121858
O3	O	-0.001920	1.493484	-0.121877
O4	O	-0.332220	1.475744	-0.121859
O5	O	-0.001925	1.493482	0.121722
O6	O	-0.174661	1.301852	0.121741
O7	O	-0.159488	1.667371	0.121721
Cu8	Cu	-0.167075	1.484611	0.143973
Cu9	Cu	-0.167070	1.484614	-0.144110
O10	O	-0.332224	1.475741	0.121740
C11	C	-0.173542	1.255059	-0.000056
C12	C	-0.170200	1.115626	-0.000050
C13	C	-0.168643	1.050098	0.132725
C14	C	-0.165512	0.919085	0.132700
C15	C	-0.165498	0.919137	-0.132885
C16	C	-0.168622	1.050149	-0.132859
C17	C	-0.170221	1.115574	0.265534
C18	C	-0.168666	1.050046	0.398319
C19	C	-0.165535	0.919033	0.398294
C20	C	-0.163959	0.853547	0.265484
C21	C	-0.374516	1.476857	-0.000057
C22	C	-0.500537	1.480192	-0.000051
C23	C	-0.731264	1.486326	-0.000088
C24	C	-0.602871	1.482918	-0.000068
C25	C	0.040371	1.492369	-0.000083
C26	C	0.166392	1.489033	-0.000099
C27	C	-0.160603	1.714167	-0.000084
C28	C	-0.163945	1.853600	-0.000100
N29	N	-0.167078	1.484619	0.346596
N30	N	-0.167058	1.484617	-0.346733
C31	C	-0.090617	1.569494	0.423239
C32	C	-0.090603	1.569491	0.576576
C33	C	-0.243523	1.399732	0.576613
C34	C	-0.243530	1.399731	0.423279
C35	C	-0.014166	1.654382	0.346557
C36	C	0.062301	1.739265	0.423200
C37	C	0.062315	1.739262	0.576537
C38	C	-0.014138	1.654375	0.653230
H39	H	-0.164260	0.865685	0.506414
H40	H	-0.014172	1.654395	0.221702
H41	H	0.124554	1.808371	0.360749
N42	N	0.140438	1.825958	0.654806
N43	N	0.208693	1.901734	0.586316
H44	H	0.263869	1.962969	0.641589
N45	N	-0.014098	1.654373	0.809861
N46	N	0.054186	1.730154	0.878280
H47	H	0.054215	1.730156	0.988899
H48	H	-0.305769	1.330622	0.639066
H49	H	-0.305791	1.330616	0.360875
H50	H	-0.164218	0.865808	-0.241012
N51	N	-0.173435	1.249397	0.265517
N52	N	-0.254698	1.296839	0.206220
H53	H	-0.256973	1.391352	0.206197
H54	H	-0.169894	1.103502	-0.240975
N55	N	-0.170287	1.116956	0.533955
N56	N	-0.251904	1.179032	0.563586
H57	H	-0.253050	1.226290	0.659380
N58	N	-0.160771	0.719718	0.265481
N59	N	-0.239244	0.650213	0.324762
H60	H	-0.236999	0.555696	0.324761
