data_functionalizedCrystal
_audit_creation_method	'MofGen! by Chris Wilmer'
_symmetry_space_group_name_H-M	'P1'
_symmetry_Int_Tables_number	1
_symmetry_cell_setting	triclinic
loop_
_symmetry_equiv_pos_as_xyz
  x,y,z
_cell_length_a	19.902436
_cell_length_b	21.606444
_cell_length_c	21.606444
_cell_angle_alpha	59.990835
_cell_angle_beta	89.998324
_cell_angle_gamma	59.999884
loop_
_atom_site_label
_atom_site_type_symbol
_atom_site_fract_x
_atom_site_fract_y
_atom_site_fract_z
Zr1	Zr	0.647330	0.677437	-0.081285
O2	O	0.540046	0.806576	-0.180138
O3	O	0.680218	0.548304	-0.050966
O4	O	0.680228	0.677431	-0.180106
O5	O	0.540029	0.677453	0.050852
O6	O	0.790807	0.677419	-0.180097
O7	O	0.540036	0.677450	-0.050998
O8	O	0.790789	0.446435	0.050910
O9	O	0.540047	0.908436	-0.180155
O10	O	0.776769	0.601407	-0.038047
O11	O	0.694240	0.601418	0.037956
O12	O	0.694252	0.753448	-0.114089
O13	O	0.611722	0.753459	-0.038085
Zr14	Zr	0.823679	0.677423	0.081168
Zr15	Zr	0.823691	0.677418	-0.081272
Zr16	Zr	0.647319	0.677442	0.081155
Zr17	Zr	0.647331	0.839892	-0.081312
Zr18	Zr	0.823678	0.514967	0.081195
O19	O	0.790791	0.806556	0.050849
O20	O	0.790808	0.806549	-0.180119
O21	O	0.540030	0.806583	0.050831
O22	O	0.930964	0.548284	0.180021
O23	O	0.930980	0.548277	-0.050947
O24	O	0.680202	0.548311	0.180002
O25	O	0.930981	0.677407	-0.050969
O26	O	0.790781	0.677429	0.179989
O27	O	0.680203	0.677441	0.179981
O28	O	0.930974	0.677410	0.050882
O29	O	0.680230	0.908421	-0.180144
O30	O	0.790780	0.446439	0.180028
O31	O	0.930963	0.446423	0.180038
O32	O	0.930972	0.446420	0.050920
O33	O	0.540037	0.908440	-0.051037
O34	O	0.680220	0.908425	-0.051026
O35	O	0.776758	0.601412	0.113972
O36	O	0.859287	0.601400	0.037969
O37	O	0.776770	0.753441	-0.038073
O38	O	0.694241	0.753453	0.037931
C39	C	0.735504	0.474223	-0.000024
C40	C	0.735503	0.405257	-0.000013
C41	C	0.674586	0.428997	-0.056144
C42	C	0.674588	0.364207	-0.056159
C43	C	0.735505	0.275679	-0.000040
C44	C	0.796428	0.251939	0.056093
C45	C	0.796428	0.316728	0.056105
C46	C	0.796428	-0.009347	0.056046
C47	C	0.796421	-0.074136	0.056031
C48	C	0.674587	0.038132	-0.056219
C49	C	0.674588	0.102921	-0.056207
C50	C	0.735513	0.079176	-0.000076
C51	C	0.735511	0.149428	-0.000060
C52	C	0.735504	0.205427	-0.000052
C53	C	0.514905	0.677454	-0.000075
C54	C	0.440035	0.677462	-0.000080
C55	C	0.168033	0.677419	-0.000051
C56	C	0.144470	0.773329	-0.047790
C57	C	0.222308	0.773389	-0.048055
C58	C	0.302976	0.677441	-0.000066
C59	C	0.300567	0.629808	-0.035023
C60	C	0.222340	0.630421	-0.035376
C61	C	0.223319	0.628455	0.082667
C62	C	0.300240	0.630257	0.082540
C63	C	0.379243	0.677448	-0.000073
C64	C	0.091768	0.677409	-0.000046
C65	C	0.956105	0.677406	-0.000042
C66	C	1.030974	0.677398	-0.000036
C67	C	0.735519	0.677424	-0.203246
C68	C	0.735524	0.677422	-0.272206
C69	C	0.735506	0.880637	-0.000092
C70	C	0.735506	0.949603	-0.000104
C71	C	0.674567	0.677446	-0.695515
C72	C	0.674574	0.677439	-0.630715
C73	C	0.735497	0.677431	-0.598317
C74	C	0.796422	0.677420	-0.630716
C75	C	0.796418	0.677420	-0.695511
C76	C	0.796442	0.677418	-0.369404
C77	C	0.796440	0.677420	-0.304606
C78	C	0.674598	0.677437	-0.304609
C79	C	0.674594	0.677437	-0.369404
C80	C	0.735521	0.677422	-0.401795
C81	C	0.735513	0.677427	-0.472057
C82	C	0.735502	0.677432	-0.528059
C83	C	0.735490	0.677436	0.203129
C84	C	0.735485	0.677438	0.272089
C85	C	0.956104	0.474199	-0.000008
C86	C	1.030973	0.405225	0.000009
C87	C	0.735489	0.474229	0.203163
C88	C	0.735484	0.405264	0.272135
C89	C	0.956089	0.474205	0.203180
C90	C	1.030953	0.405232	0.272157
C91	C	0.514921	0.880655	-0.203296
C92	C	0.440056	0.949627	-0.272273
C93	C	0.514906	0.880661	-0.000109
C94	C	0.440037	0.949635	-0.000126
C95	C	0.735521	0.880631	-0.203280
C96	C	0.735526	0.949595	-0.272251
C97	C	1.023058	0.372837	-0.039669
C98	C	1.093399	0.308037	-0.039668
C99	C	1.171654	0.275621	0.000016
C100	C	1.179566	0.308016	0.039696
C101	C	1.109226	0.372819	0.039690
C102	C	0.778555	0.372874	0.344211
C103	C	0.778547	0.308084	0.409023
C104	C	0.735472	0.275680	0.401757
C105	C	0.692395	0.308077	0.329674
C106	C	0.692399	0.372870	0.264863
C107	C	1.109197	0.372836	0.264876
C108	C	1.179547	0.308038	0.329681
C109	C	1.171651	0.275633	0.401766
C110	C	1.093399	0.308035	0.409045
C111	C	1.023051	0.372837	0.344241
C112	C	0.361812	0.982031	-0.264992
C113	C	0.291463	1.046850	-0.329798
C114	C	0.299359	1.079258	-0.401883
C115	C	0.377611	1.046852	-0.409162
C116	C	0.447959	0.982039	-0.344358
C117	C	0.447951	0.982030	0.039546
C118	C	0.377610	1.046848	0.039527
C119	C	0.299356	1.079265	-0.000160
C120	C	0.291443	1.046868	-0.039836
C121	C	0.361783	0.982056	-0.039821
C122	C	0.778609	0.981979	-0.264961
C123	C	0.778630	1.046769	-0.329761
C124	C	0.735563	1.079180	-0.401850
C125	C	0.692478	1.046791	-0.409138
C126	C	0.692462	0.981997	-0.344339
H127	H	0.624983	0.383545	-0.101866
H128	H	0.220538	0.810985	-0.109072
H129	H	1.086941	0.281670	-0.071980
H130	H	0.657375	0.955638	-0.350285
Cl131	Cl	0.083993	0.831459	-0.011779
Cl132	Cl	0.388276	0.520886	0.016076
Cl133	Cl	0.193099	1.087573	-0.320629
Cl134	Cl	0.873008	-0.185434	0.126585
Cl135	Cl	0.924690	0.413550	0.353407
H136	H	0.657328	0.399234	0.206178
Cl137	Cl	0.873008	0.677406	-0.736235
Cl138	Cl	0.735477	0.194223	0.483242
Cl139	Cl	1.260098	0.194165	0.483228
Cl140	Cl	0.873013	-0.039207	0.126617
H141	H	0.624982	0.057460	-0.101926
H142	H	0.624982	0.677448	-0.395783
Cl143	Cl	0.165919	0.682687	-0.129354
H144	H	0.242087	1.132040	-0.000166
Cl145	Cl	0.351819	0.941333	-0.089694
Cl146	Cl	0.598005	0.677451	-0.263882
H147	H	1.115642	0.399211	0.206186
Cl148	Cl	0.597969	0.677462	-0.736241
H149	H	0.624972	0.501078	-0.101834
H150	H	0.657325	0.281684	0.323769
H151	H	1.243290	0.281613	0.072005
Cl152	Cl	0.546320	0.941294	0.089439
Cl153	Cl	1.277910	0.267313	0.320512
Cl154	Cl	0.210912	1.160737	-0.483345
Cl155	Cl	0.873016	0.286881	0.126670
Cl156	Cl	1.260074	0.194151	0.000018
H157	H	1.086982	0.281641	0.467746
H158	H	0.355368	0.955648	-0.206303
H159	H	0.511666	0.955656	-0.350295
Cl160	Cl	0.387577	1.087558	0.089414
Cl161	Cl	0.598001	0.214213	-0.126756
H162	H	0.959346	0.399229	-0.071994
Cl163	Cl	0.387523	1.087600	-0.499789
H164	H	0.813714	1.073134	-0.323812
Cl165	Cl	0.873011	0.140646	0.126641
H166	H	1.115682	0.399180	0.072005
H167	H	0.227719	1.073273	-0.072148
H168	H	0.813680	0.955599	-0.206269
Cl169	Cl	0.638331	1.087554	-0.499771
H170	H	0.735582	1.131940	-0.454607
H171	H	0.221028	0.810952	-0.024790
H172	H	0.104563	0.810787	-0.108441
H173	H	0.241684	0.560053	-0.002853
H174	H	0.302123	0.662887	-0.095313
H175	H	0.846055	0.677412	-0.278228
H176	H	0.187004	0.659147	0.111871
Cl177	Cl	0.832708	0.267367	0.499633
Cl178	Cl	0.873031	0.677404	-0.410124
Cl179	Cl	0.254079	0.519369	0.137839
Cl180	Cl	0.299676	0.683863	0.122871
Cl181	Cl	0.388933	0.522169	0.142072
H182	H	0.624970	0.677445	-0.604338
H183	H	0.813632	0.399250	0.350141
Cl184	Cl	0.873016	0.677404	-0.589985
