data_functionalizedCrystal
_audit_creation_method	'MofGen! by Chris Wilmer'
_symmetry_space_group_name_H-M	'P1'
_symmetry_Int_Tables_number	1
_symmetry_cell_setting	triclinic
loop_
_symmetry_equiv_pos_as_xyz
  x,y,z
_cell_length_a	14.560438
_cell_length_b	20.016444
_cell_length_c	14.560438
_cell_angle_alpha	89.998188
_cell_angle_beta	59.996693
_cell_angle_gamma	60.000317
loop_
_atom_site_label
_atom_site_type_symbol
_atom_site_fract_x
_atom_site_fract_y
_atom_site_fract_z
Zr1	Zr	1.005329	0.643594	-0.120640
O2	O	1.196937	0.536918	-0.267293
O3	O	0.813721	0.676295	-0.075675
O4	O	1.005332	0.676293	-0.267291
O5	O	1.005324	0.536924	0.075464
O6	O	1.005334	0.786234	-0.267300
O7	O	1.005326	0.536921	-0.075676
O8	O	0.662577	0.786239	0.075467
O9	O	1.348081	0.536919	-0.267303
O10	O	0.892534	0.772291	-0.056514
O11	O	0.892530	0.690245	0.056287
O12	O	1.118128	0.690242	-0.169317
O13	O	1.118124	0.608196	-0.056516
Zr14	Zr	1.005329	0.818943	0.120398
Zr15	Zr	1.005333	0.818938	-0.120654
Zr16	Zr	1.005325	0.643598	0.120412
Zr17	Zr	1.246386	0.643595	-0.120656
Zr18	Zr	0.764272	0.818941	0.120414
O19	O	1.196937	0.786242	0.075433
O20	O	1.196943	0.786235	-0.267312
O21	O	1.196932	0.536925	0.075452
O22	O	0.813720	0.925618	0.267051
O23	O	0.813726	0.925612	-0.075694
O24	O	0.813715	0.676301	0.267070
O25	O	1.005334	0.925613	-0.075706
O26	O	1.005325	0.786244	0.267049
O27	O	1.005323	0.676302	0.267058
O28	O	1.005332	0.925616	0.075434
O29	O	1.348084	0.676294	-0.267313
O30	O	0.662573	0.786242	0.267071
O31	O	0.662576	0.925618	0.267061
O32	O	0.662580	0.925614	0.075456
O33	O	1.348078	0.536923	-0.075698
O34	O	1.348081	0.676298	-0.075709
O35	O	0.892530	0.772295	0.169075
O36	O	0.892533	0.854341	0.056274
O37	O	1.118128	0.772292	-0.056529
O38	O	1.118124	0.690246	0.056272
C39	C	0.703803	0.731267	-0.000102
C40	C	0.601468	0.731266	-0.000095
C41	C	0.636682	0.670695	-0.083373
C42	C	0.540543	0.670699	-0.083402
C43	C	0.373975	0.791847	0.083135
C44	C	0.470115	0.791847	0.083158
C45	C	1.005324	0.511939	-0.000104
C46	C	1.005323	0.437501	-0.000098
C47	C	1.005337	0.196285	0.083137
C48	C	1.005332	0.266230	0.083147
C49	C	1.005316	0.266248	-0.083384
C50	C	1.005313	0.196307	-0.083388
C51	C	1.005330	0.161326	-0.000128
C52	C	1.005328	0.301211	-0.000114
C53	C	1.005322	0.377049	-0.000103
C54	C	1.005333	0.085484	-0.000137
C55	C	1.306854	0.731270	-0.000140
C56	C	1.409189	0.731271	-0.000147
C57	C	1.005334	0.731263	-0.301640
C58	C	1.005336	0.731261	-0.403973
C59	C	1.005333	0.950597	-0.000138
C60	C	1.005335	1.025036	-0.000144
C61	C	1.123091	0.688433	-0.510932
C62	C	1.123085	0.688443	-0.607080
C63	C	0.887557	0.774109	-0.489299
C64	C	0.887565	0.774104	-0.393153
C65	C	1.005324	0.731274	0.301398
C66	C	1.005322	0.731276	0.403731
C67	C	0.703808	0.950596	-0.000119
C68	C	0.601474	1.025033	-0.000118
C69	C	0.703798	0.731272	0.301418
C70	C	0.601462	0.731274	0.403757
C71	C	0.703803	0.950601	0.301401
C72	C	0.601468	1.025041	0.403735
C73	C	1.306855	0.511935	-0.301643
C74	C	1.409190	0.437496	-0.403977
C75	C	1.306850	0.511941	-0.000123
C76	C	1.409183	0.437503	-0.000124
C77	C	1.306859	0.731264	-0.301660
C78	C	1.409196	0.731263	-0.403999
C79	C	0.553418	1.017161	-0.059002
C80	C	0.457278	1.087096	-0.059023
C81	C	0.409190	1.164903	-0.000154
C82	C	0.457256	1.172775	0.058732
C83	C	0.553401	1.102840	0.058746
C84	C	0.553412	1.102833	0.392911
C85	C	0.457270	1.172784	0.489055
C86	C	0.409180	1.164940	0.596022
C87	C	0.457245	1.087140	0.606844
C88	C	0.553391	1.017191	0.510701
C89	C	1.457258	0.359704	-0.393153
C90	C	1.553429	0.289753	-0.489297
C91	C	1.601524	0.297596	-0.596264
C92	C	1.553453	0.375397	-0.607086
C93	C	1.457290	0.445346	-0.510943
C94	C	1.457250	0.445376	0.058750
C95	C	1.553417	0.375441	0.058745
C96	C	1.601508	0.297633	-0.000128
C97	C	1.553437	0.289762	-0.059009
C98	C	1.457279	0.359697	-0.059010
C99	C	0.553381	0.774103	0.510711
C100	C	0.457234	0.774095	0.606866
C101	C	0.457252	0.688427	0.489100
C102	C	0.553404	0.688431	0.392947
H103	H	1.005348	0.167806	0.150934
C104	C	0.303423	1.241827	-0.000165
H105	H	0.281664	1.289297	0.043323
H106	H	0.228412	1.241820	0.031356
H107	H	0.334956	1.241823	-0.075191
C108	C	1.606356	0.384014	-0.724752
H109	H	1.670498	0.331209	-0.780453
H110	H	1.643872	0.413075	-0.733213
H111	H	1.537327	0.413063	-0.733191
C112	C	1.404410	0.530913	-0.522863
H113	H	1.446823	0.525558	-0.600340
H114	H	1.420151	0.559996	-0.487809
H115	H	1.313629	0.559969	-0.487812
C116	C	1.005350	0.304680	0.174734
H117	H	1.005370	0.273823	0.224311
H118	H	0.930018	0.359363	0.215876
H119	H	1.080696	0.304559	0.140516
H120	H	1.592552	0.226412	-0.480464
C121	C	1.606264	0.384113	0.123529
H122	H	1.563829	0.440470	0.158605
H123	H	1.697041	0.358622	0.072718
H124	H	1.590498	0.358610	0.179253
H125	H	1.005305	0.294736	-0.151173
C126	C	0.758017	0.821212	-0.477399
H127	H	0.687887	0.846720	-0.399925
H128	H	0.753133	0.784237	-0.512457
H129	H	0.753104	0.861749	-0.512456
C130	C	1.707295	0.220651	-0.702015
H131	H	1.729067	0.236458	-0.767276
H132	H	1.675773	0.189011	-0.702005
H133	H	1.782314	0.189017	-0.702010
H134	H	1.679806	0.240695	-0.000118
H135	H	0.418089	1.236135	0.106661
H136	H	0.418076	1.080766	0.693949
H137	H	0.418145	1.236126	0.480224
H138	H	0.330891	1.221904	0.674299
C139	C	1.252629	0.641316	-0.522828
H140	H	1.235773	0.647439	-0.450249
H141	H	1.301016	0.662466	-0.562782
H142	H	1.301010	0.584967	-0.562781
C143	C	0.606301	0.641312	0.275291
H144	H	0.563900	0.615804	0.282623
H145	H	0.697080	0.600788	0.235341
H146	H	0.590538	0.678283	0.235332
H147	H	0.592506	0.953852	0.519529
H148	H	0.418154	1.080671	-0.106975
H149	H	1.218974	0.653569	-0.694167
C150	C	1.404384	0.351060	-0.275502
H151	H	1.446809	0.294707	-0.282841
H152	H	1.313606	0.376556	-0.235531
H153	H	1.420153	0.376569	-0.235558
C154	C	0.606238	1.111510	0.123538
H155	H	0.563812	1.167867	0.158603
H156	H	0.697018	1.086010	0.072735
H157	H	0.590451	1.086016	0.179272
C158	C	0.431378	0.858476	0.174771
H159	H	0.339381	0.894548	0.224360
H160	H	0.465436	0.888390	0.140571
H161	H	0.465408	0.833590	0.215913
H162	H	0.592553	1.109235	0.305821
C163	C	0.606255	0.821220	0.522596
H164	H	0.670398	0.815096	0.450014
H165	H	0.643764	0.800071	0.562546
H166	H	0.537216	0.877569	0.562549
H167	H	1.592608	0.226402	-0.106942
H168	H	1.418101	0.508724	0.106699
C169	C	1.404397	0.351031	-0.123760
H170	H	1.340244	0.403821	-0.115341
H171	H	1.366900	0.321964	-0.094671
H172	H	1.473432	0.321968	-0.201229
C173	C	0.404344	0.821211	0.724511
H174	H	0.446733	0.846730	0.717172
H175	H	0.420106	0.784246	0.764471
H176	H	0.313559	0.861740	0.764466
H177	H	0.418110	0.653547	0.480312
H178	H	0.569227	0.621377	-0.151216
C179	C	0.781164	0.604065	-0.174954
H180	H	0.788363	0.567997	-0.224561
H181	H	0.822120	0.574147	-0.140741
H182	H	0.822141	0.628950	-0.216080
C183	C	0.606305	0.931580	-0.123765
H184	H	0.670444	0.891049	-0.115325
H185	H	0.643822	0.925445	-0.201228
H186	H	0.537270	0.925446	-0.094684
H187	H	0.267018	0.841169	0.150918
H188	H	1.005302	0.167843	-0.151194
C189	C	0.758027	0.821214	-0.275492
H190	H	0.687886	0.846721	-0.282816
H191	H	0.753138	0.861739	-0.235538
H192	H	0.753137	0.784238	-0.235540
