data_functionalizedCrystal
_audit_creation_method	'MofGen! by Chris Wilmer'
_symmetry_space_group_name_H-M	'P1'
_symmetry_Int_Tables_number	1
_symmetry_cell_setting	triclinic
loop_
_symmetry_equiv_pos_as_xyz
  x,y,z
_cell_length_a	19.288864
_cell_length_b	23.532357
_cell_length_c	18.366186
_cell_angle_alpha	89.988209
_cell_angle_beta	89.977106
_cell_angle_gamma	82.982267
loop_
_atom_site_label
_atom_site_type_symbol
_atom_site_fract_x
_atom_site_fract_y
_atom_site_fract_z
O1	O	0.921118	0.071047	-0.060792
O2	O	1.421118	0.571047	0.439208
O3	O	0.718826	0.080631	-0.060743
O4	O	1.218826	0.580631	0.439257
O5	O	0.826090	-0.007082	-0.060754
O6	O	1.326090	0.492918	0.439246
O7	O	0.813854	0.158760	-0.060781
O8	O	1.313854	0.658760	0.439219
O9	O	0.826072	-0.007086	0.060345
O10	O	1.326072	0.492914	0.560345
O11	O	0.718808	0.080627	0.060356
O12	O	1.218808	0.580627	0.560356
O13	O	0.921100	0.071043	0.060308
O14	O	1.421100	0.571043	0.560308
Zn15	Zn	0.819951	0.075834	0.079559
Zn16	Zn	1.319951	0.575834	0.579559
Zn17	Zn	0.819975	0.075840	-0.079995
Zn18	Zn	1.319975	0.575840	0.420005
O19	O	0.813836	0.158756	0.060318
O20	O	1.313836	0.658756	0.560318
C21	C	0.692941	0.080320	-0.000187
C22	C	1.192941	0.580320	0.499813
C23	C	0.615841	0.079395	-0.000168
C24	C	1.115841	0.579395	0.499832
C25	C	0.570975	0.130861	-0.000188
C26	C	1.070975	0.630861	0.499812
C27	C	0.498530	0.129991	-0.000196
C28	C	0.998530	0.629991	0.499804
C29	C	0.470956	0.077652	-0.000198
C30	C	0.970956	0.577652	0.499802
C31	C	0.515832	0.026180	-0.000174
C32	C	1.015832	0.526180	0.499826
C33	C	0.588274	0.027051	-0.000159
C34	C	1.088274	0.527051	0.499841
C35	C	0.362836	0.036510	-0.042643
C36	C	0.862836	0.536510	0.457357
C37	C	0.290394	0.035641	-0.042662
C38	C	0.790394	0.535641	0.457338
C39	C	0.247519	0.074963	-0.000242
C40	C	0.747519	0.574963	0.499758
C41	C	0.277093	0.115164	0.042189
C42	C	0.777093	0.615164	0.542189
C43	C	0.349535	0.116036	0.042204
C44	C	0.849535	0.616036	0.542204
C45	C	0.392405	0.076702	-0.000214
C46	C	0.892405	0.576702	0.499786
C47	C	0.124100	0.125490	-0.000269
C48	C	0.624100	0.625490	0.499731
C49	C	0.051655	0.124618	-0.000273
C50	C	0.551655	0.624618	0.499727
C51	C	0.068958	0.020805	-0.000259
C52	C	0.568958	0.520805	0.499741
C53	C	0.141401	0.021678	-0.000248
C54	C	0.641401	0.521678	0.499752
C55	C	0.168968	0.074022	-0.000257
C56	C	0.668968	0.574022	0.499743
C57	C	0.825775	-0.028301	-0.000202
C58	C	1.325775	0.471699	0.499798
C59	C	0.824855	-0.091522	-0.000195
C60	C	1.324855	0.408478	0.499805
C61	C	0.819088	-0.483543	-0.066244
C62	C	1.319088	0.016457	0.433756
C63	C	0.818213	-0.542944	-0.066248
C64	C	1.318213	-0.042944	0.433752
O65	O	0.817745	-0.573659	-0.122388
O66	O	1.317745	-0.073659	0.377612
N67	N	0.817769	-0.572659	-0.000238
N68	N	1.317769	-0.072659	0.499762
C69	C	0.818193	-0.542968	0.065781
C70	C	1.318193	-0.042968	0.565781
O71	O	0.817735	-0.573697	0.121928
O72	O	1.317735	-0.073697	0.621928
C73	C	0.819063	-0.483567	0.065784
C74	C	1.319063	0.016433	0.565784
C75	C	0.819514	-0.453857	-0.000230
C76	C	1.319514	0.046143	0.499770
C77	C	0.819538	-0.453832	-0.132254
C78	C	1.319538	0.046168	0.367746
C79	C	0.820414	-0.394435	-0.132249
C80	C	1.320414	0.105565	0.367751
C81	C	0.820840	-0.364749	-0.066236
C82	C	1.320840	0.135251	0.433764
C83	C	0.820390	-0.394460	-0.000226
C84	C	1.320390	0.105540	0.499774
C85	C	0.819482	-0.453877	0.131802
C86	C	1.319482	0.046123	0.631802
C87	C	0.820351	-0.394472	0.131800
C88	C	1.320351	0.105528	0.631800
C89	C	0.820802	-0.364762	0.065785
C90	C	1.320802	0.135238	0.565785
C91	C	0.821692	-0.305376	0.065792
C92	C	1.321692	0.194624	0.565792
N93	N	0.822136	-0.275662	-0.000219
N94	N	1.322136	0.224338	0.499781
C95	C	0.821710	-0.305348	-0.066233
C96	C	1.321710	0.194652	0.433767
C97	C	0.816366	-0.667713	0.065769
C98	C	1.316366	-0.167713	0.565769
C99	C	0.815501	-0.727113	0.065767
C100	C	1.315501	-0.227113	0.565767
C101	C	0.815519	-0.727085	-0.066262
C102	C	1.315519	-0.227085	0.433738
C103	C	0.816389	-0.667685	-0.066259
C104	C	1.316389	-0.167685	0.433741
C105	C	0.816809	-0.637999	-0.000241
C106	C	1.316809	-0.137999	0.499759
C107	C	0.823550	-0.180610	-0.066219
C108	C	1.323550	0.319390	0.433781
C109	C	0.824429	-0.121208	-0.066209
C110	C	1.324429	0.378792	0.433791
C111	C	0.824407	-0.121241	0.065820
C112	C	1.324407	0.378759	0.565820
C113	C	0.823531	-0.180638	0.065811
C114	C	1.323531	0.319362	0.565811
C115	C	0.823101	-0.210321	-0.000215
C116	C	1.323101	0.289679	0.499785
O117	O	0.822157	-0.274623	0.121903
O118	O	1.322157	0.225377	0.621903
O119	O	0.822159	-0.274611	-0.122370
O120	O	1.322159	0.225389	0.377630
C121	C	0.946985	0.071353	-0.000250
C122	C	1.446985	0.571353	0.499750
C123	C	1.024085	0.072279	-0.000274
C124	C	1.524085	0.572279	0.499726
C125	C	0.814151	0.179975	-0.000235
C126	C	1.314151	0.679975	0.499765
C127	C	0.815071	0.243196	-0.000247
C128	C	1.315071	0.743196	0.499753
N129	N	0.819940	0.075830	0.188450
N130	N	1.319940	0.575830	0.688450
N131	N	0.819992	0.075839	-0.188886
N132	N	1.319992	0.575839	0.311114
C133	C	0.867452	0.037009	0.226546
C134	C	1.367452	0.537009	0.726546
C135	C	0.867456	0.037007	0.302774
C136	C	1.367456	0.537007	0.802774
C137	C	0.819955	0.075834	0.340903
C138	C	1.319955	0.575834	0.840903
C139	C	0.772434	0.114658	0.302798
C140	C	1.272434	0.614658	0.802798
C141	C	0.772427	0.114655	0.226572
C142	C	1.272427	0.614655	0.726572
C143	C	0.810486	0.127727	0.461656
C144	C	1.310486	0.627727	0.961656
C145	C	0.810498	0.127730	0.537881
C146	C	1.310498	0.627730	1.037881
C147	C	0.819975	0.075842	0.576010
C148	C	1.319975	0.575842	1.076010
C149	C	0.829454	0.023948	0.537905
C150	C	1.329454	0.523948	1.037905
C151	C	0.829446	0.023946	0.461679
C152	C	1.329446	0.523946	0.961679
C153	C	0.819958	0.075841	0.423558
C154	C	1.319958	0.575841	0.923558
C155	C	0.867494	0.037015	0.696761
C156	C	1.367494	0.537015	1.196761
C157	C	0.867494	0.037012	0.772990
C158	C	1.367494	0.537012	1.272990
C159	C	0.772475	0.114668	0.773013
C160	C	1.272475	0.614668	1.273013
C161	C	0.772472	0.114666	0.696785
C162	C	1.272472	0.614666	1.196785
C163	C	0.819986	0.075841	0.658664
C164	C	1.319986	0.575841	1.158664
H165	H	0.461993	0.171902	-0.000210
H166	H	0.961993	0.671902	0.499790
N167	N	0.839114	-0.029058	0.576848
N168	N	1.339114	0.470942	1.076848
N169	N	0.792801	-0.041742	0.619401
N170	N	1.292801	0.458258	1.119401
H171	H	0.799620	-0.079177	0.646906
H172	H	1.299620	0.420823	1.146906
H173	H	0.823196	-0.204771	-0.119983
H174	H	1.323196	0.295229	0.380017
N175	N	0.820871	-0.364100	-0.199689
N176	N	1.320871	0.135900	0.300311
N177	N	0.820488	-0.390622	-0.258620
N178	N	1.320488	0.109378	0.241380
H179	H	0.820809	-0.369201	-0.306253
H180	H	1.320809	0.130799	0.193747
N181	N	0.152276	0.178950	-0.000261
N182	N	0.652276	0.678950	0.499739
N183	N	0.216957	0.179721	-0.000250
N184	N	0.716957	0.679721	0.499750
H185	H	0.236856	0.217478	-0.000243
H186	H	0.736856	0.717478	0.499757
N187	N	0.839125	-0.029053	0.422744
N188	N	1.339125	0.470947	0.922744
N189	N	0.889653	-0.039518	0.380181
N190	N	1.389653	0.460482	0.880181
H191	H	0.896487	-0.076948	0.352682
H192	H	1.396487	0.423052	0.852682
H193	H	0.816755	-0.643498	-0.120014
H194	H	1.316755	-0.143498	0.379986
H195	H	0.733736	0.146268	0.195554
H196	H	1.233736	0.646268	0.695554
N197	N	0.800823	0.180737	0.422718
N198	N	1.300823	0.680737	0.922718
N199	N	0.842911	0.216584	0.431200
N200	N	1.342911	0.716584	0.931200
H201	H	0.836091	0.254021	0.403699
H202	H	1.336091	0.754021	0.903699
H203	H	0.824757	-0.097060	0.119567
H204	H	1.324757	0.402940	0.619567
H205	H	0.733796	0.146280	0.804058
H206	H	1.233796	0.646280	1.304058
H207	H	0.819188	-0.477996	-0.186013
H208	H	1.319188	0.022004	0.313987
H209	H	0.816710	-0.643547	0.119533
H210	H	1.316710	-0.143547	0.619533
H211	H	0.177933	-0.020231	-0.000236
H212	H	0.677933	0.479769	0.499764
H213	H	0.733757	0.146271	0.333847
H214	H	1.233757	0.646271	0.833847
N215	N	0.815065	-0.757417	-0.133694
N216	N	1.315065	-0.257417	0.366306
N217	N	0.766197	-0.745402	-0.177880
N218	N	1.266197	-0.245402	0.322120
H219	H	0.765875	-0.766826	-0.225500
H220	H	1.265875	-0.266826	0.274500
H221	H	0.802784	0.169985	0.568900
H222	H	1.302784	0.669985	1.068900
H223	H	0.397740	0.004488	-0.077191
H224	H	0.897740	0.504488	0.422809
N225	N	0.815056	-0.757451	0.133206
N226	N	1.315056	-0.257451	0.633206
N227	N	0.815440	-0.730932	0.192139
N228	N	1.315440	-0.230932	0.692139
H229	H	0.815123	-0.752355	0.239771
H230	H	1.315123	-0.252355	0.739771
H231	H	0.373611	0.148767	0.076755
H232	H	0.873611	0.648767	0.576755
N233	N	0.915943	-0.002717	0.657827
N234	N	1.415943	0.497283	1.157827
N235	N	0.958301	-0.037427	0.691854
N236	N	1.458301	0.462573	1.191854
H237	H	0.992487	-0.065516	0.664359
H238	H	1.492487	0.434484	1.164359
N239	N	0.260199	-0.005420	-0.086014
N240	N	0.760199	0.494580	0.413986
N241	N	0.298486	-0.040530	-0.123880
N242	N	0.798486	0.459470	0.376120
H243	H	0.277163	-0.069529	-0.154500
H244	H	0.777163	0.430471	0.345500
H245	H	0.906182	0.005397	0.804008
H246	H	1.406182	0.505397	1.304008
N247	N	0.819028	-0.484208	0.199243
N248	N	1.319028	0.015792	0.699243
N249	N	0.819406	-0.457683	0.258172
N250	N	1.319406	0.042317	0.758172
H251	H	0.819086	-0.479103	0.305807
H252	H	1.319086	0.020897	0.805807
H253	H	0.820683	-0.370304	0.185561
H254	H	1.320683	0.129696	0.685561
H255	H	0.733786	0.146280	0.665766
H256	H	1.233786	0.646280	1.165766
N257	N	0.916046	-0.002605	0.187618
N258	N	1.416046	0.497395	0.687618
N259	N	0.958504	-0.037232	0.221648
N260	N	1.458504	0.462768	0.721648
H261	H	0.992846	-0.065192	0.194154
H262	H	1.492846	0.434808	0.694154
H263	H	0.823171	-0.204830	0.119565
H264	H	1.323171	0.295170	0.619565
H265	H	0.593414	0.173483	-0.000196
H266	H	1.093414	0.673483	0.499804
N267	N	0.915993	-0.002655	0.341687
N268	N	1.415993	0.497345	0.841687
N269	N	0.958408	-0.037318	0.307641
N270	N	1.458408	0.462682	0.807641
H271	H	0.992688	-0.065329	0.335121
H272	H	1.492688	0.434671	0.835121
N273	N	0.487681	-0.027288	-0.000171
N274	N	0.987681	0.472712	0.499829
N275	N	0.501535	-0.061945	0.050884
N276	N	1.001535	0.438055	0.550884
H277	H	0.481655	-0.099710	0.050891
H278	H	0.981655	0.400290	0.550891
H279	H	0.015124	0.166530	-0.000285
H280	H	0.515124	0.666530	0.499715
N281	N	0.233312	0.155353	0.085505
N282	N	0.733312	0.655353	0.585505
N283	N	0.187136	0.189541	0.055844
N284	N	0.687136	0.689541	0.555844
H285	H	0.156215	0.217929	0.086429
H286	H	0.656215	0.717929	0.586429
N287	N	0.040789	-0.032654	-0.000248
N288	N	0.540789	0.467346	0.499752
N289	N	-0.023893	-0.033426	-0.000255
N290	N	0.476107	0.466574	0.499745
H291	H	-0.043791	-0.071182	-0.000242
H292	H	0.456209	0.428818	0.499758
N293	N	0.824895	-0.090852	-0.133638
N294	N	1.324895	0.409148	0.366362
N295	N	0.874355	-0.063086	-0.148377
N296	N	1.374355	0.436914	0.351623
H297	H	0.874684	-0.041647	-0.195997
H298	H	1.374684	0.458353	0.304003
H299	H	0.624805	-0.014860	-0.000143
H300	H	1.124805	0.485140	0.499857
