data_functionalizedCrystal
_audit_creation_method	'MofGen! by Chris Wilmer'
_symmetry_space_group_name_H-M	'P1'
_symmetry_Int_Tables_number	1
_symmetry_cell_setting	triclinic
loop_
_symmetry_equiv_pos_as_xyz
  x,y,z
_cell_length_a	14.853567
_cell_length_b	10.654545
_cell_length_c	9.730223
_cell_angle_alpha	89.997167
_cell_angle_beta	90.006399
_cell_angle_gamma	95.940995
loop_
_atom_site_label
_atom_site_type_symbol
_atom_site_fract_x
_atom_site_fract_y
_atom_site_fract_z
O1	O	-0.126607	1.666527	-0.114283
O2	O	-0.138675	1.300922	-0.114289
O3	O	-0.001463	1.493491	-0.114270
O4	O	-0.263818	1.473959	-0.114302
O5	O	-0.001459	1.493478	0.114310
O6	O	-0.138671	1.300910	0.114291
O7	O	-0.126603	1.666515	0.114297
Zn8	Zn	-0.132636	1.483710	0.150586
Zn9	Zn	-0.132641	1.483727	-0.150578
O10	O	-0.263814	1.473947	0.114278
C11	C	-0.137788	1.254127	-0.000000
C12	C	-0.135139	1.114711	-0.000002
C13	C	-0.133890	1.049213	0.124598
C14	C	-0.131387	0.918220	0.124598
C15	C	-0.131385	0.918234	-0.124612
C16	C	-0.133882	1.049226	-0.124611
C17	C	-0.297410	1.474838	-0.000017
C18	C	-0.397508	1.477490	-0.000029
C19	C	-0.810712	1.603090	0.000023
C20	C	-0.830771	1.374315	0.000017
C21	C	-0.736724	1.371821	0.000004
C22	C	-0.679667	1.484964	0.000002
C23	C	-0.716656	1.600600	0.000014
C24	C	-0.699727	1.256187	0.000007
C25	C	-0.605675	1.253689	-0.000005
C26	C	-0.548616	1.366833	-0.000017
C27	C	-0.585611	1.482473	-0.000007
C28	C	-0.528553	1.595616	-0.000009
C29	C	-0.565546	1.711258	-0.000009
C30	C	-0.659597	1.713744	0.000002
C31	C	-0.454565	1.364347	-0.000027
C32	C	-0.434497	1.593126	-0.000018
C33	C	0.032132	1.492599	0.000021
C34	C	0.132230	1.489947	0.000025
C35	C	-0.127490	1.713310	0.000005
C36	C	-0.130138	1.852726	-0.000003
N37	N	-0.132632	1.483709	0.356122
N38	N	-0.132638	1.483739	-0.356115
C39	C	-0.071901	1.569007	0.428057
C40	C	-0.071901	1.569019	0.571940
C41	C	-0.193372	1.398431	0.571941
C42	C	-0.193367	1.398414	0.428060
H43	H	-0.388046	1.685262	-0.000029
C44	C	-0.005860	1.661431	0.650112
C45	C	0.049794	1.594461	0.732711
C46	C	0.110653	1.679550	0.804728
H47	H	-0.038536	1.713796	0.706337
H48	H	0.030362	1.712204	0.586701
H49	H	0.013576	1.543709	0.796115
H50	H	0.082490	1.542100	0.676520
H51	H	0.146875	1.730323	0.741316
H52	H	0.077969	1.731910	0.860944
H53	H	0.148427	1.634123	0.860769
H54	H	-0.130362	0.864899	-0.226064
H55	H	-0.242823	1.328988	0.630527
H56	H	-0.575564	1.159526	-0.000009
H57	H	-0.519078	1.803379	-0.000002
H58	H	-0.242822	1.328948	0.369487
C59	C	-0.761721	1.133397	-0.000270
C60	C	-0.816295	1.128139	-0.117885
C61	C	-0.873413	1.015033	-0.118198
H62	H	-0.798906	1.129498	0.079348
H63	H	-0.726257	1.064130	-0.000341
H64	H	-0.851756	1.197386	-0.117801
H65	H	-0.779135	1.132016	-0.197523
H66	H	-0.837949	0.945767	-0.118269
H67	H	-0.910591	1.011145	-0.038574
H68	H	-0.910442	1.011446	-0.198004
C69	C	-0.850745	1.728732	0.000233
C70	C	-0.821785	1.797148	0.117812
C71	C	-0.858634	1.912903	0.118041
H72	H	-0.914928	1.714200	0.000303
H73	H	-0.831186	1.775389	-0.079438
H74	H	-0.841349	1.750500	0.197463
H75	H	-0.757607	1.811713	0.117767
H76	H	-0.839075	1.959560	0.038369
H77	H	-0.922816	1.898358	0.118108
H78	H	-0.838984	1.959342	0.197810
C79	C	-0.135056	1.120284	0.259925
C80	C	-0.057009	1.102443	0.335087
C81	C	-0.058041	1.167904	0.459752
H82	H	-0.187064	1.089387	0.311283
H83	H	-0.136674	1.207700	0.242142
H84	H	-0.055399	1.015045	0.352874
H85	H	-0.004988	1.133345	0.283771
H86	H	-0.059660	1.255321	0.441968
H87	H	-0.110053	1.137002	0.511097
H88	H	-0.005084	1.155818	0.510759
C89	C	-0.130167	0.846918	0.259776
C90	C	-0.206141	0.757682	0.267030
C91	C	-0.205038	0.691964	0.391532
H92	H	-0.131315	0.904528	0.334102
H93	H	-0.076734	0.805238	0.264973
H94	H	-0.259560	0.799360	0.261847
H95	H	-0.205009	0.700046	0.192733
H96	H	-0.151605	0.650284	0.396728
H97	H	-0.206183	0.749584	0.465847
H98	H	-0.256581	0.631403	0.396464
C99	C	-0.414574	1.238680	-0.000100
C100	C	-0.484672	1.140129	-0.000123
C101	C	-0.447869	1.024341	-0.000213
H102	H	-0.378301	1.232772	0.079581
H103	H	-0.378340	1.232888	-0.079851
H104	H	-0.520891	1.145918	0.079619
H105	H	-0.520951	1.145996	-0.079799
H106	H	-0.411635	1.018549	-0.079964
H107	H	-0.411596	1.018445	0.079469
H108	H	-0.495424	0.957460	-0.000241
C109	C	-0.892762	1.251521	-0.000261
C110	C	-0.947343	1.246267	-0.117869
C111	C	-1.004456	1.133157	-0.118183
H112	H	-0.929941	1.247614	0.079363
H113	H	-0.857294	1.182259	-0.000345
H114	H	-0.982807	1.315511	-0.117772
H115	H	-0.910188	1.250153	-0.197511
H116	H	-0.968988	1.063895	-0.118267
H117	H	-1.041629	1.129260	-0.038554
H118	H	-1.041490	1.129572	-0.197984
C119	C	-0.005855	1.661656	0.350199
C120	C	0.047347	1.736334	0.444000
C121	C	0.108210	1.821684	0.372333
H122	H	-0.038527	1.714099	0.294046
H123	H	0.032027	1.616444	0.294121
H124	H	0.009470	1.781543	0.500054
H125	H	0.080038	1.683925	0.500156
H126	H	0.146093	1.776472	0.316255
H127	H	0.075531	1.874118	0.316182
H128	H	0.144321	1.872355	0.435965
H129	H	-0.689726	1.807894	0.000038
H130	H	-0.134896	1.102557	-0.226081
