data_functionalizedCrystal
_audit_creation_method	'MofGen! by Chris Wilmer'
_symmetry_space_group_name_H-M	'P1'
_symmetry_Int_Tables_number	1
_symmetry_cell_setting	triclinic
loop_
_symmetry_equiv_pos_as_xyz
  x,y,z
_cell_length_a	13.897449
_cell_length_b	16.625546
_cell_length_c	16.625539
_cell_angle_alpha	89.969603
_cell_angle_beta	89.980569
_cell_angle_gamma	90.023748
loop_
_atom_site_label
_atom_site_type_symbol
_atom_site_fract_x
_atom_site_fract_y
_atom_site_fract_z
Zn1	Zn	1.474658	-0.320973	-0.455873
Zn2	Zn	1.974658	0.179027	0.044127
Zn3	Zn	1.474542	-0.455816	-0.321035
Zn4	Zn	1.974542	0.044184	0.178965
Zn5	Zn	1.313351	-0.321004	-0.321056
Zn6	Zn	1.813351	0.178996	0.178944
Zn7	Zn	1.313316	-0.455770	-0.455828
Zn8	Zn	1.813316	0.044230	0.044172
O9	O	1.393967	-0.388391	-0.388448
O10	O	1.893967	0.111609	0.111552
O11	O	1.609624	-0.338866	-0.437997
O12	O	2.109624	0.161134	0.062003
O13	O	1.453126	-0.437965	-0.208206
O14	O	1.953126	0.062035	0.291794
O15	O	1.334812	-0.208167	-0.338968
O16	O	1.834812	0.291833	0.161032
O17	O	1.609539	-0.437935	-0.338932
O18	O	2.109539	0.062065	0.161068
O19	O	1.453324	-0.208144	-0.438017
O20	O	1.953324	0.291856	0.061983
O21	O	1.334700	-0.338919	-0.208221
O22	O	1.834700	0.161081	0.291779
O23	O	1.178365	-0.338875	-0.338924
O24	O	1.678365	0.161125	0.161076
O25	O	1.334752	-0.437857	-0.568666
O26	O	1.834752	0.062143	-0.068666
O27	O	1.178339	-0.437887	-0.437940
O28	O	1.678339	0.062113	0.062060
O29	O	1.453289	-0.338822	-0.568700
O30	O	1.953289	0.161178	-0.068700
O31	O	1.453092	-0.568642	-0.338888
O32	O	1.953092	-0.068642	0.161112
O33	O	1.334639	-0.568608	-0.437920
O34	O	1.834639	-0.068608	0.062080
C35	C	1.143352	-0.388380	-0.388430
C36	C	1.643352	0.111620	0.111570
C37	C	1.036139	-0.388395	-0.388441
C38	C	1.536139	0.111605	0.111559
C39	C	0.839843	-0.388397	-0.388462
C40	C	1.339843	0.111603	0.111538
C41	C	0.949076	-0.388393	-0.388448
C42	C	1.449076	0.111607	0.111552
C43	C	1.393876	-0.597881	-0.388415
C44	C	1.893876	-0.097881	0.111585
C45	C	1.393925	-0.687503	-0.388427
C46	C	1.893925	-0.187503	0.111573
C47	C	1.394093	-1.015678	-0.388511
C48	C	1.894093	-0.515678	0.111489
C49	C	1.394043	-0.924370	-0.388490
C50	C	1.894043	-0.424370	0.111510
C51	C	1.394008	-0.851593	-0.388469
C52	C	1.894008	-0.351593	0.111531
C53	C	1.393960	-0.760279	-0.388448
C54	C	1.893960	-0.260279	0.111552
C55	C	1.645560	-0.388402	-0.388467
C56	C	2.145560	0.111598	0.111533
C57	C	1.752774	-0.388407	-0.388475
C58	C	2.252774	0.111593	0.111525
C59	C	1.394030	-0.388331	-0.598757
C60	C	1.894030	0.111669	-0.098757
C61	C	1.394056	-0.388305	-0.688378
C62	C	1.894056	0.111695	-0.188378
C63	C	1.394085	-0.178082	-0.388500
C64	C	1.894085	0.321918	0.111500
C65	C	1.394135	-0.088461	-0.388522
C66	C	1.894135	0.411539	0.111478
C67	C	1.394101	-0.388215	-1.016554
C68	C	1.894101	0.111785	-0.516554
C69	C	1.394086	-0.388242	-0.925246
C70	C	1.894086	0.111758	-0.425246
C71	C	1.394079	-0.388260	-0.852469
C72	C	1.894079	0.111740	-0.352469
C73	C	1.394063	-0.388287	-0.761155
C74	C	1.894063	0.111713	-0.261155
C75	C	1.393960	-0.388392	-0.178957
C76	C	1.893960	0.111608	0.321043
C77	C	1.394120	-0.388191	-0.089337
C78	C	1.894120	0.111809	0.410663
