data_functionalizedCrystal
_audit_creation_method	'MofGen! by Chris Wilmer'
_symmetry_space_group_name_H-M	'P1'
_symmetry_Int_Tables_number	1
_symmetry_cell_setting	triclinic
loop_
_symmetry_equiv_pos_as_xyz
  x,y,z
_cell_length_a	17.077404
_cell_length_b	17.077402
_cell_length_c	17.077396
_cell_angle_alpha	89.975636
_cell_angle_beta	89.978543
_cell_angle_gamma	90.025492
loop_
_atom_site_label
_atom_site_type_symbol
_atom_site_fract_x
_atom_site_fract_y
_atom_site_fract_z
Zn1	Zn	-1.200036	0.312527	0.443906
Zn2	Zn	-1.199935	0.443802	0.312650
Zn3	Zn	-1.068767	0.312552	0.312650
Zn4	Zn	-1.068727	0.443753	0.443869
O5	O	-1.134366	0.378158	0.378268
O6	O	-1.309869	0.329951	0.426510
O7	O	-1.182510	0.426422	0.202803
O8	O	-1.086239	0.202702	0.330077
O9	O	-1.309795	0.426398	0.330077
O10	O	-1.182682	0.202683	0.426510
O11	O	-1.086141	0.329993	0.202803
O12	O	-0.958915	0.329946	0.330040
O13	O	-1.086171	0.426314	0.553721
O14	O	-0.958886	0.426338	0.426446
O15	O	-1.182643	0.329903	0.553748
O16	O	-1.182471	0.553642	0.330040
O17	O	-1.086073	0.553606	0.426446
C18	C	-0.930418	0.378140	0.378240
C19	C	-0.843169	0.378151	0.378246
C20	C	-0.802184	0.428418	0.428363
C21	C	-0.720203	0.428418	0.428373
C22	C	-0.679209	0.378155	0.378261
C23	C	-0.720200	0.327883	0.328142
C24	C	-0.802179	0.327879	0.328137
C25	C	-0.549330	0.327895	0.328155
C26	C	-0.467345	0.327899	0.328159
C27	C	-0.467354	0.428433	0.428391
C28	C	-0.549333	0.428430	0.428386
C29	C	-0.590318	0.378159	0.378266
C30	C	-1.134278	0.582106	0.378256
C31	C	-1.134312	0.669356	0.378278
C32	C	-0.339110	0.378172	0.378289
C33	C	-0.426360	0.378166	0.378276
C34	C	-1.134414	0.378100	0.583013
C35	C	-1.134434	0.378076	0.670263
C36	C	-1.184699	1.045163	0.328182
C37	C	-1.184662	0.963183	0.328165
C38	C	-1.134417	0.922205	0.378313
C39	C	-1.084200	0.963212	0.428475
C40	C	-1.084235	1.045191	0.428487
C41	C	-1.084134	0.792342	0.428448
C42	C	-1.084101	0.710357	0.428437
C43	C	-1.184562	0.710334	0.328126
C44	C	-1.184596	0.792313	0.328138
C45	C	-1.134380	0.833314	0.378302
C46	C	-1.134467	1.173414	0.378306
C47	C	-1.134488	1.086164	0.378342
C48	C	-1.134364	0.378159	0.174321
C49	C	-1.134496	0.377963	0.087071
C50	C	-1.184669	0.327870	0.711268
C51	C	-1.184678	0.327844	0.793249
C52	C	-1.134456	0.378028	0.834222
C53	C	-1.084216	0.428236	0.793211
C54	C	-1.084203	0.428257	0.711232
C55	C	-1.084248	0.428188	0.964081
C56	C	-1.084261	0.428168	1.046065
C57	C	-1.184722	0.327776	1.046098
C58	C	-1.184710	0.327797	0.964119
C59	C	-1.134470	0.378006	0.923113
H60	H	-0.686837	0.469351	0.469182
H61	H	-1.225567	0.287007	0.677914
O62	O	-1.030002	0.919022	0.482564
H63	H	-1.065097	0.881626	0.522535
H64	H	-0.433970	0.286961	0.287363
H65	H	-0.433980	0.469364	0.469203
H66	H	-1.225546	0.929800	0.287321
O67	O	-1.030055	0.482335	0.919852
H68	H	-1.043487	0.543942	0.935572
O69	O	-1.029975	0.836574	0.482548
H70	H	-1.043404	0.820801	0.544167
H71	H	-1.225513	0.825674	0.287307
H72	H	-0.582697	0.286952	0.287349
O73	O	-1.238864	0.273699	0.837480
H74	H	-1.273792	0.238816	0.795216
O75	O	-0.593553	0.482637	0.482435
H76	H	-0.551283	0.517589	0.517295
O77	O	-1.238721	0.666118	0.274015
H78	H	-1.230251	0.602229	0.282421
H79	H	-1.043322	0.469093	0.826578
H80	H	-0.835548	0.286943	0.287331
O81	O	-0.675977	0.273690	0.274080
H82	H	-0.638643	0.233804	0.309271
O83	O	-1.238908	0.273621	1.090325
H84	H	-1.273836	0.238737	1.048061
H85	H	-1.225619	1.078521	0.287350
O86	O	-1.030083	1.089420	0.482591
H87	H	-0.995143	1.047154	0.517466
H88	H	-1.043289	0.469132	0.677846
O89	O	-1.029903	0.666156	0.482517
H90	H	-1.043325	0.681847	0.544141
O91	O	-1.238882	0.273678	0.919923
H92	H	-1.225456	0.212062	0.935654
O93	O	-0.846398	0.482627	0.482415
H94	H	-0.804122	0.517574	0.517272
O95	O	-1.030088	0.482285	1.090263
H96	H	-0.995142	0.517193	1.047979
