data_functionalizedCrystal
_audit_creation_method	'MofGen! by Chris Wilmer'
_symmetry_space_group_name_H-M	'P1'
_symmetry_Int_Tables_number	1
_symmetry_cell_setting	triclinic
loop_
_symmetry_equiv_pos_as_xyz
  x,y,z
_cell_length_a	21.295411
_cell_length_b	13.897449
_cell_length_c	21.295417
_cell_angle_alpha	90.029139
_cell_angle_beta	90.018119
_cell_angle_gamma	90.023385
loop_
_atom_site_label
_atom_site_type_symbol
_atom_site_fract_x
_atom_site_fract_y
_atom_site_fract_z
Zn1	Zn	-0.355907	-1.474660	0.250659
Zn2	Zn	-0.250639	-1.474518	0.355911
Zn3	Zn	-0.250654	-1.313341	0.250662
Zn4	Zn	-0.355873	-1.313302	0.355897
O5	O	-0.303268	-1.393955	0.303282
O6	O	-0.341951	-1.609622	0.264626
O7	O	-0.162552	-1.453094	0.341957
O8	O	-0.264637	-1.334817	0.162572
O9	O	-0.264611	-1.609518	0.341954
O10	O	-0.341966	-1.453336	0.162570
O11	O	-0.162563	-1.334679	0.264631
O12	O	-0.264604	-1.178354	0.264617
O13	O	-0.443967	-1.334749	0.341930
O14	O	-0.341907	-1.178326	0.341933
O15	O	-0.443992	-1.453298	0.264612
O16	O	-0.264578	-1.453056	0.443999
O17	O	-0.341893	-1.334612	0.443988
C18	C	-0.303254	-1.143341	0.303274
C19	C	-0.303263	-1.036127	0.303286
C20	C	-0.467459	-1.394035	0.303269
C21	C	-0.537427	-1.394069	0.303264
C22	C	-0.303244	-1.393840	0.466834
C23	C	-0.303254	-1.393879	0.536802
C24	C	-0.570308	-1.455795	0.263002
C25	C	-0.636050	-1.455794	0.262975
C26	C	-0.668909	-1.394077	0.303220
C27	C	-0.636021	-1.332339	0.343484
C28	C	-0.570279	-1.332335	0.343506
N29	N	-0.772128	-1.386639	0.358288
N30	N	-0.834580	-1.386648	0.358266
C31	C	-0.866984	-1.394083	0.303156
N32	N	-0.834578	-1.401527	0.248069
N33	N	-0.772121	-1.401523	0.248092
C34	C	-0.740195	-1.394074	0.303201
C35	C	-0.971151	-1.455810	0.262862
C36	C	-1.036894	-1.455802	0.262834
C37	C	-1.036864	-1.332353	0.343349
C38	C	-0.971121	-1.332356	0.343371
C39	C	-0.938268	-1.394090	0.303129
C40	C	-0.139717	-1.393931	0.303250
C41	C	-0.069749	-1.394084	0.303079
C42	C	-0.303283	-1.645548	0.303291
C43	C	-0.303289	-1.752762	0.303295
C44	C	-0.303279	-0.839832	0.303288
C45	C	-0.303268	-0.949064	0.303285
C46	C	-0.263135	-1.455852	1.036245
C47	C	-0.263118	-1.455816	0.970502
C48	C	-0.303333	-1.394083	0.937642
C49	C	-0.343556	-1.332364	0.970529
C50	C	-0.343567	-1.332395	1.036270
N51	N	-0.358412	-1.386593	0.834399
N52	N	-0.358400	-1.386569	0.771947
C53	C	-0.303300	-1.393985	0.739567
N54	N	-0.248212	-1.401444	0.771997
N55	N	-0.248225	-1.401473	0.834454
C56	C	-0.303325	-1.394042	0.866356
C57	C	-0.263058	-1.455656	0.635402
C58	C	-0.263040	-1.455614	0.569658
C59	C	-0.343483	-1.332167	0.569686
C60	C	-0.343495	-1.332205	0.635429
C61	C	-0.303284	-1.393955	0.668283
C62	C	-0.303315	-1.394094	1.139092
C63	C	-0.303356	-1.394145	1.069124
H64	H	-0.662827	-1.506056	0.230186
C65	C	-1.073066	-1.523714	0.218553
H66	H	-1.116925	-1.514872	0.224300
H67	H	-1.062306	-1.588510	0.227782
H68	H	-1.062290	-1.509644	0.176255
C69	C	-0.387717	-1.264257	0.533551
H70	H	-0.411671	-1.227507	0.562551
H71	H	-0.415163	-1.301115	0.507869
H72	H	-0.363600	-1.222232	0.507943
H73	H	-0.662779	-1.282086	0.376250
C74	C	-0.218821	-1.523565	0.671544
H75	H	-0.194856	-1.560300	0.642543
H76	H	-0.242929	-1.565589	0.697155
H77	H	-0.191375	-1.486692	0.697222
C78	C	-0.534106	-1.264440	0.387796
H79	H	-0.490248	-1.273275	0.382043
H80	H	-0.544885	-1.278516	0.430089
H81	H	-0.544862	-1.199635	0.378572
C82	C	-0.387816	-1.264522	1.072439
H83	H	-0.411767	-1.227753	1.043455
H84	H	-0.363717	-1.222528	1.098123
H85	H	-0.415274	-1.301421	1.098047
C86	C	-0.387745	-1.264341	0.671601
H87	H	-0.381990	-1.273197	0.715460
H88	H	-0.430046	-1.278420	0.660797
H89	H	-0.378489	-1.199528	0.660868
C90	C	-0.534170	-1.523687	0.218732
H91	H	-0.490307	-1.514851	0.224513
H92	H	-0.544943	-1.509609	0.176434
H93	H	-0.544959	-1.588494	0.227948
C94	C	-0.935010	-1.523697	0.218588
H95	H	-0.964011	-1.560447	0.194597
H96	H	-0.909374	-1.565708	0.242673
H97	H	-0.909357	-1.486808	0.191169
H98	H	-1.063617	-1.282092	0.376110
C99	C	-0.934950	-1.264464	0.387664
H100	H	-0.963934	-1.227711	0.411632
H101	H	-0.909294	-1.222456	0.363591
H102	H	-0.909315	-1.301343	0.415104
H103	H	-0.376298	-1.282099	0.943771
C104	C	-0.218796	-1.523496	0.533491
H105	H	-0.194856	-1.560280	0.562475
H106	H	-0.191338	-1.486614	0.507879
H107	H	-0.242905	-1.565490	0.507811
C108	C	-0.218898	-1.523763	1.072380
H109	H	-0.194938	-1.560503	1.043379
H110	H	-0.243006	-1.565783	1.097995
H111	H	-0.191448	-1.486892	1.098056
H112	H	-0.230365	-1.506067	0.943727
