data_functionalizedCrystal
_audit_creation_method	'MofGen! by Chris Wilmer'
_symmetry_space_group_name_H-M	'P1'
_symmetry_Int_Tables_number	1
_symmetry_cell_setting	triclinic
loop_
_symmetry_equiv_pos_as_xyz
  x,y,z
_cell_length_a	25.639240
_cell_length_b	25.639242
_cell_length_c	19.805399
_cell_angle_alpha	89.971175
_cell_angle_beta	90.035908
_cell_angle_gamma	89.972218
loop_
_atom_site_label
_atom_site_type_symbol
_atom_site_fract_x
_atom_site_fract_y
_atom_site_fract_z
Zn1	Zn	-0.208232	-0.799274	0.382847
Zn2	Zn	-0.295666	-0.799198	0.269643
Zn3	Zn	-0.208239	-0.711842	0.269654
Zn4	Zn	-0.295631	-0.711804	0.382771
O5	O	-0.251942	-0.755529	0.326229
O6	O	-0.219842	-0.872429	0.367858
O7	O	-0.284087	-0.787594	0.174928
O8	O	-0.135073	-0.723487	0.284706
O9	O	-0.284080	-0.872373	0.284687
O10	O	-0.135068	-0.787723	0.367869
O11	O	-0.219854	-0.723414	0.174936
O12	O	-0.219820	-0.638672	0.284632
O13	O	-0.284020	-0.723423	0.477498
O14	O	-0.284026	-0.638644	0.367739
O15	O	-0.219808	-0.787686	0.477554
O16	O	-0.368827	-0.787558	0.284613
O17	O	-0.368801	-0.723350	0.367728
C18	C	-0.251920	-0.619687	0.326179
C19	C	-0.251924	-0.561573	0.326173
C20	C	-0.285425	-0.201204	0.369444
C21	C	-0.285428	-0.146600	0.369453
O22	O	-0.313889	-0.118358	0.406213
N23	N	-0.251951	-0.119290	0.326252
C24	C	-0.218465	-0.146588	0.283045
O25	O	-0.189990	-0.118345	0.246302
C26	C	-0.218460	-0.201191	0.283040
C27	C	-0.251943	-0.228498	0.326239
C28	C	-0.318905	-0.228511	0.412639
C29	C	-0.318903	-0.283111	0.412629
C30	C	-0.285421	-0.310405	0.369424
C31	C	-0.251941	-0.283099	0.326229
C32	C	-0.184972	-0.228488	0.239837
C33	C	-0.184970	-0.283095	0.239836
C34	C	-0.218453	-0.310402	0.283035
C35	C	-0.218457	-0.364993	0.283013
N36	N	-0.251934	-0.392302	0.326214
C37	C	-0.285416	-0.365009	0.369419
C38	C	-0.218477	-0.031917	0.283060
C39	C	-0.218485	0.022685	0.283061
C40	C	-0.285447	0.022669	0.369469
C41	C	-0.285442	-0.031934	0.369464
C42	C	-0.251955	-0.059227	0.326260
C43	C	-0.285409	-0.479674	0.369394
C44	C	-0.285406	-0.534279	0.369378
C45	C	-0.218442	-0.534259	0.282973
C46	C	-0.218447	-0.479658	0.282986
C47	C	-0.251933	-0.452367	0.326202
O48	O	-0.190009	-0.393269	0.246274
O49	O	-0.313882	-0.393258	0.406163
C50	C	-0.387785	-0.755456	0.326176
C51	C	-0.445899	-0.755472	0.326176
C52	C	-0.806221	-0.788994	0.369610
C53	C	-0.860825	-0.789009	0.369624
O54	O	-0.889027	-0.817423	0.406498
N55	N	-0.888181	-0.755602	0.326294
C56	C	-0.860930	-0.722174	0.282953
O57	O	-0.889213	-0.693759	0.246100
C58	C	-0.806327	-0.722156	0.282943
C59	C	-0.778974	-0.755569	0.326271
C60	C	-0.778867	-0.822403	0.412934
C61	C	-0.724267	-0.822388	0.412919
C62	C	-0.697020	-0.788964	0.369580
C63	C	-0.724373	-0.755554	0.326256
C64	C	-0.779077	-0.688725	0.239606
C65	C	-0.724470	-0.688710	0.239600
C66	C	-0.697117	-0.722123	0.282928
C67	C	-0.642525	-0.722115	0.282902
N68	N	-0.615169	-0.755522	0.326231
C69	C	-0.642416	-0.788946	0.369570
C70	C	-0.975601	-0.722213	0.282978
C71	C	-1.030203	-0.722233	0.282984
C72	C	-1.030094	-0.789067	0.369655
C73	C	-0.975491	-0.789050	0.369646
C74	C	-0.948245	-0.755620	0.326307
C75	C	-0.527751	-0.788913	0.369536
C76	C	-0.473146	-0.788896	0.369515
C77	C	-0.473260	-0.722060	0.282846
C78	C	-0.527860	-0.722078	0.282864
C79	C	-0.555105	-0.755506	0.326214
O80	O	-0.614289	-0.693714	0.246048
O81	O	-0.614127	-0.817351	0.406424
C82	C	-0.115569	-0.755618	0.326297
C83	C	-0.057455	-0.755656	0.326326
C84	C	-0.251909	-0.755559	0.502772
C85	C	-0.251895	-0.755571	0.578004
C86	C	-0.251962	0.108098	0.326272
C87	C	-0.251965	0.049984	0.326269
C88	C	-0.251937	-0.755530	0.150373
C89	C	-0.251804	-0.755619	0.075141
C90	C	-0.218459	-0.789034	0.613378
C91	C	-0.218443	-0.789039	0.684067
C92	C	-0.251868	-0.755584	0.719379
C93	C	-0.285306	-0.722118	0.684000
C94	C	-0.285318	-0.722110	0.613313
C95	C	-0.285257	-0.722147	0.969073
C96	C	-0.285244	-0.722159	1.039766
C97	C	-0.218383	-0.789077	1.039827
C98	C	-0.218395	-0.789069	0.969140
C99	C	-0.251831	-0.755601	0.933767
C100	C	-0.251846	-0.755595	0.857118
C101	C	-0.251856	-0.755593	0.796027
H102	H	-0.346168	-0.305340	0.447807
H103	H	-0.312674	-0.556510	0.404556
H104	H	-0.953420	-0.694991	0.247681
H105	H	-0.191217	-0.816289	0.712865
N106	N	-0.184315	-0.823201	0.577300
N107	N	-0.184327	-0.823189	0.514187
H108	H	-0.160211	-0.847319	0.488707
N109	N	-0.184243	-0.823234	0.933071
N110	N	-0.150930	-0.804851	0.893639
H111	H	-0.126807	-0.828979	0.868166
H112	H	-0.953223	-0.816257	0.404927
N113	N	-0.184278	0.050574	0.238940
N114	N	-0.150982	0.081013	0.262843
H115	H	-0.126819	0.100707	0.231684
H116	H	-0.157696	-0.305314	0.204658
H117	H	-0.312519	-0.694876	0.712757
H118	H	-0.191156	-0.816326	1.068637
N119	N	-0.555567	-0.823068	0.413812
N120	N	-0.549426	-0.871312	0.409382
H121	H	-0.569070	-0.895437	0.440649
N122	N	-0.353111	-0.200645	0.456783
N123	N	-0.382996	-0.225043	0.495345
H124	H	-0.407158	-0.205366	0.526522
H125	H	-1.052289	-0.816283	0.404946
H126	H	-0.312706	-0.054163	0.404641
H127	H	-1.052470	-0.695030	0.247695
H128	H	-0.191183	-0.556491	0.247794
H129	H	-0.312709	0.044902	0.404652
N130	N	-0.184255	-0.451755	0.238856
N131	N	-0.202606	-0.421253	0.195686
H132	H	-0.178455	-0.401549	0.164521
H133	H	-0.312463	-0.694913	1.068515
H134	H	-0.450876	-0.816107	0.404797
N135	N	-0.319623	-0.451810	0.413534
N136	N	-0.367862	-0.457894	0.408915
H137	H	-0.392029	-0.438217	0.440086
H138	H	-0.801339	-0.661517	0.204324
N139	N	-0.696648	-0.654555	0.195330
N140	N	-0.721081	-0.624726	0.156653
H141	H	-0.701433	-0.600604	0.125386
H142	H	-0.701999	-0.849595	0.448202
H143	H	-0.312490	-0.694903	0.940281
H144	H	-0.312540	-0.694856	0.584512
N145	N	-0.555796	-0.687968	0.238574
N146	N	-0.531459	-0.658140	0.199865
H147	H	-0.551185	-0.634052	0.168579
N148	N	-0.806686	-0.856550	0.457216
N149	N	-0.782246	-0.886373	0.495892
H150	H	-0.801889	-0.910493	0.527167
N151	N	-0.445411	-0.687920	0.238587
N152	N	-0.414951	-0.654590	0.262356
H153	H	-0.395280	-0.630477	0.231101
N154	N	-0.184266	-0.059786	0.238919
N155	N	-0.154380	-0.035391	0.200355
H156	H	-0.130217	-0.055071	0.169181
H157	H	-0.157708	-0.206264	0.204659
