data_functionalizedCrystal
_audit_creation_method	'MofGen! by Chris Wilmer'
_symmetry_space_group_name_H-M	'P1'
_symmetry_Int_Tables_number	1
_symmetry_cell_setting	triclinic
loop_
_symmetry_equiv_pos_as_xyz
  x,y,z
_cell_length_a	10.654545
_cell_length_b	13.185407
_cell_length_c	9.730223
_cell_angle_alpha	89.996034
_cell_angle_beta	89.997167
_cell_angle_gamma	68.228281
loop_
_atom_site_label
_atom_site_type_symbol
_atom_site_fract_x
_atom_site_fract_y
_atom_site_fract_z
O1	O	1.614679	0.152754	-0.114273
O2	O	1.244133	0.167315	-0.114278
O3	O	1.492891	0.001765	-0.114270
O4	O	1.365921	0.318304	-0.114281
O5	O	1.492881	0.001761	0.114310
O6	O	1.244122	0.167310	0.114302
O7	O	1.614669	0.152750	0.114307
Zn8	Zn	1.429393	0.160029	0.150596
Zn9	Zn	1.429408	0.160035	-0.150568
O10	O	1.365910	0.318300	0.114298
C11	C	1.197701	0.166245	0.000011
C12	C	1.059370	0.163049	0.000009
C13	C	0.994383	0.161542	0.124609
C14	C	0.864414	0.158522	0.124609
C15	C	0.864429	0.158519	-0.124602
C16	C	0.994399	0.161532	-0.124600
C17	C	1.505758	-0.038768	0.000019
C18	C	1.544098	-0.159539	0.000014
C19	C	1.178194	-0.451556	-0.000004
C20	C	1.142167	-0.338086	-0.000013
C21	C	1.242647	-0.293443	-0.000006
C22	C	1.379159	-0.362283	0.000010
C23	C	1.415189	-0.475765	0.000009
C24	C	1.479642	-0.317652	0.000007
C25	C	1.616154	-0.386492	0.000023
C26	C	1.652178	-0.499962	0.000022
C27	C	1.551699	-0.544604	0.000015
C28	C	1.443612	-0.204170	0.000008
C29	C	1.680608	-0.228379	0.000020
C30	C	1.716634	-0.341849	0.000030
C31	C	1.661100	0.153820	0.000015
C32	C	1.799432	0.157016	0.000008
C33	C	1.353043	0.358833	0.000007
C34	C	1.314703	0.479604	0.000002
N35	N	1.429393	0.160025	0.356133
N36	N	1.429421	0.160032	-0.356104
C37	C	1.539562	0.086750	0.428062
C38	C	1.539574	0.086751	0.571945
C39	C	1.319242	0.233309	0.571956
C40	C	1.319227	0.233303	0.428076
H41	H	0.811514	0.157285	-0.226054
F42	F	1.656828	0.008761	0.648494
H43	H	1.047314	0.162756	-0.226071
F44	F	1.202002	0.311296	0.648533
H45	H	1.229508	0.292972	0.369507
H46	H	1.581024	-0.637001	0.000038
H47	H	1.763335	-0.556009	0.000022
F48	F	1.298330	-0.130919	-0.000009
F49	F	1.063527	0.163152	0.257228
F50	F	1.204300	-0.172677	-0.000015
H51	H	0.811508	0.157295	0.226070
H52	H	1.762426	-0.192032	-0.000044
F53	F	0.996887	-0.264830	-0.000039
F54	F	1.071273	-0.499076	-0.000034
H55	H	1.827784	-0.397914	0.000042
H56	H	1.629265	0.027081	0.369490
