data_functionalizedCrystal
_audit_creation_method	'MofGen! by Chris Wilmer'
_symmetry_space_group_name_H-M	'P1'
_symmetry_Int_Tables_number	1
_symmetry_cell_setting	triclinic
loop_
_symmetry_equiv_pos_as_xyz
  x,y,z
_cell_length_a	17.699083
_cell_length_b	17.699083
_cell_length_c	16.776229
_cell_angle_alpha	89.992455
_cell_angle_beta	89.998886
_cell_angle_gamma	83.283015
loop_
_atom_site_label
_atom_site_type_symbol
_atom_site_fract_x
_atom_site_fract_y
_atom_site_fract_z
O1	O	1.004078	0.095713	-0.066178
O2	O	0.783700	0.108165	-0.066204
O3	O	0.900116	-0.008250	-0.066183
O4	O	0.887663	0.212128	-0.066199
O5	O	0.900100	-0.008257	0.066393
O6	O	0.783685	0.108158	0.066372
O7	O	1.004063	0.095706	0.066398
Zn8	Zn	0.893871	0.101931	0.087435
Zn9	Zn	0.893892	0.101940	-0.087241
O10	O	0.887648	0.212121	0.066378
C11	C	0.755495	0.107716	0.000081
C12	C	0.671477	0.106377	0.000071
C13	C	0.622856	0.174710	0.000066
C14	C	0.543913	0.173448	0.000077
C15	C	0.513592	0.103852	0.000086
C16	C	0.562219	0.035513	0.000093
C17	C	0.641161	0.036776	0.000088
C18	C	0.243856	0.030418	0.000113
C19	C	0.164908	0.029160	0.000115
C20	C	0.146608	0.167090	0.000101
C21	C	0.225550	0.168353	0.000097
C22	C	0.274170	0.100015	0.000108
C23	C	0.359769	0.101384	0.000098
C24	C	0.427995	0.102481	0.000090
C25	C	0.899662	-0.036451	0.000105
C26	C	0.898323	-0.120469	0.000105
C27	C	0.966656	-0.169090	0.000114
C28	C	0.965394	-0.248033	0.000107
C29	C	0.895798	-0.278354	0.000096
C30	C	0.827459	-0.229727	0.000085
C31	C	0.828722	-0.150785	0.000086
C32	C	0.822364	-0.548090	0.000078
C33	C	0.821106	-0.627038	0.000078
C34	C	0.959036	-0.645338	0.000099
C35	C	0.960299	-0.566396	0.000100
C36	C	0.891961	-0.517776	0.000084
C37	C	0.893330	-0.432177	0.000090
C38	C	0.894427	-0.363951	0.000096
C39	C	1.032268	0.096156	0.000112
C40	C	1.116286	0.097494	0.000116
C41	C	0.888102	0.240322	0.000087
C42	C	0.889440	0.324340	0.000082
N43	N	0.893863	0.101924	0.206646
N44	N	0.893906	0.101941	-0.206452
C45	C	0.945428	0.050396	0.248372
C46	C	0.945432	0.050396	0.331824
C47	C	0.893875	0.101927	0.373549
C48	C	0.842305	0.153457	0.331817
C49	C	0.842297	0.153454	0.248366
C50	C	0.842332	0.153472	0.668364
C51	C	0.842345	0.153473	0.751820
C52	C	0.945466	0.050414	0.751822
C53	C	0.945459	0.050411	0.668372
C54	C	0.893887	0.101938	0.626647
C55	C	0.893882	0.101937	0.536158
C56	C	0.893882	0.101932	0.464036
H57	H	0.250232	0.225025	0.000085
H58	H	0.680748	-0.018868	0.000091
O59	O	1.034216	-0.139549	0.000018
C60	C	1.039089	-0.094440	-0.068653
H61	H	0.979401	-0.074664	-0.091550
H62	H	1.069165	-0.042804	-0.053207
H63	H	1.072640	-0.129375	-0.116731
H64	H	1.016971	-0.541714	0.000113
O65	O	0.652432	0.242252	0.000019
C66	C	0.732535	0.228717	0.000033
H67	H	0.751183	0.169620	-0.025061
H68	H	0.756688	0.273244	-0.038464
H69	H	0.754507	0.232344	0.063635
O70	O	1.031843	-0.295155	0.000157
C71	C	1.093541	-0.251465	0.000154
H72	H	1.074216	-0.192513	0.025251
H73	H	1.141403	-0.280679	0.038655
H74	H	1.114895	-0.245875	-0.063444
H75	H	0.770792	-0.254420	0.000071
H76	H	0.800322	0.195412	0.365793
O77	O	0.753430	-0.656366	0.000026
C78	C	0.693382	-0.596526	0.000030
H79	H	0.714502	-0.542932	-0.025065
H80	H	0.644794	-0.612934	-0.038473
H81	H	0.672295	-0.585323	0.063628
O82	O	0.099269	0.233406	0.000134
C83	C	0.023090	0.217374	0.000123
H84	H	0.020172	0.157931	0.025232
H85	H	-0.012753	0.260941	0.038609
H86	H	0.000251	0.220285	-0.063480
O87	O	0.135364	-0.038403	0.000235
C88	C	0.090262	-0.043262	0.068909
H89	H	0.070494	0.016429	0.091790
H90	H	0.038620	-0.073335	0.053472
H91	H	0.125199	-0.076811	0.116995
O92	O	0.995525	0.000248	0.792269
C93	C	0.983350	-0.074661	0.771903
H94	H	0.954174	-0.074530	0.711315
H95	H	1.040308	-0.112007	0.769049
H96	H	0.945723	-0.098019	0.818876
H97	H	0.987444	0.008452	0.634402
O98	O	0.995540	0.000265	0.207968
C99	C	1.041064	-0.045202	0.262697
H100	H	1.010041	-0.046014	0.322187
H101	H	1.052722	-0.105663	0.238597
H102	H	1.097240	-0.020697	0.271561
O103	O	0.532642	-0.032027	0.000068
C104	C	0.452540	-0.018491	0.000089
H105	H	0.433891	0.040608	-0.025016
H106	H	0.428383	-0.063016	-0.038396
H107	H	0.430573	-0.022121	0.063694
H108	H	1.014680	-0.684934	0.000107
O109	O	0.756001	-0.500839	-0.000074
C110	C	0.752615	-0.454609	-0.068728
H111	H	0.791380	-0.483583	-0.116714
H112	H	0.691635	-0.445625	-0.091784
H113	H	0.772090	-0.397236	-0.053204
O114	O	0.762294	-0.103628	-0.000028
C115	C	0.720048	-0.117330	-0.068708
H116	H	0.738744	-0.177248	-0.091594
H117	H	0.656911	-0.111658	-0.053276
H118	H	0.730329	-0.074166	-0.116787
O119	O	0.496791	0.239897	0.000036
C120	C	0.540481	0.301595	0.000042
H121	H	0.599434	0.282276	-0.025062
H122	H	0.511268	0.349466	-0.038452
H123	H	0.546068	0.322934	0.063642
O124	O	0.291187	-0.035893	0.000147
C125	C	0.367366	-0.019863	0.000121
H126	H	0.370289	0.039576	0.025221
H127	H	0.403214	-0.063436	0.038607
H128	H	0.390197	-0.022765	-0.063485
O129	O	0.995423	0.000269	0.372389
C130	C	0.954994	-0.046370	0.420687
H131	H	0.895308	-0.047579	0.395551
H132	H	0.985993	-0.106566	0.421634
H133	H	0.950990	-0.022681	0.483931
H134	H	0.800358	0.195437	0.785791
H135	H	0.800342	0.195428	0.634398
H136	H	0.800308	0.195412	0.214393
