data_functionalizedCrystal
_audit_creation_method	'MofGen! by Chris Wilmer'
_symmetry_space_group_name_H-M	'P1'
_symmetry_Int_Tables_number	1
_symmetry_cell_setting	triclinic
loop_
_symmetry_equiv_pos_as_xyz
  x,y,z
_cell_length_a	16.120530
_cell_length_b	21.295417
_cell_length_c	16.120297
_cell_angle_alpha	87.132998
_cell_angle_beta	89.871860
_cell_angle_gamma	87.125778
loop_
_atom_site_label
_atom_site_type_symbol
_atom_site_fract_x
_atom_site_fract_y
_atom_site_fract_z
Zn1	Zn	1.247391	-0.318915	0.534523
Zn2	Zn	1.254326	-0.419125	0.395453
Zn3	Zn	1.115383	-0.308278	0.388443
Zn4	Zn	1.108282	-0.418545	0.527422
O5	O	1.181345	-0.366216	0.461460
O6	O	1.364676	-0.336903	0.521981
O7	O	1.241769	-0.400212	0.278158
O8	O	1.132963	-0.221604	0.407859
O9	O	1.369771	-0.410526	0.419806
O10	O	1.229949	-0.229419	0.515184
O11	O	1.139688	-0.318773	0.273008
O12	O	0.998075	-0.318211	0.400973
O13	O	1.120862	-0.409538	0.644729
O14	O	0.992859	-0.399224	0.503081
O15	O	1.223064	-0.336340	0.649946
O16	O	1.234884	-0.507133	0.412921
O17	O	1.127586	-0.506707	0.509878
C18	C	0.965295	-0.357501	0.450496
C19	C	0.872866	-0.353788	0.445825
C20	C	0.703638	-0.346996	0.437305
C21	C	0.659891	-0.385485	0.485677
C22	C	0.565726	-0.381705	0.480936
C23	C	0.797811	-0.350774	0.442045
C24	C	1.181239	-0.529761	0.461409
C25	C	1.181268	-0.599731	0.461418
C26	C	1.237182	-0.632802	0.410990
C27	C	1.237220	-0.698547	0.411010
C28	C	1.181329	-0.731217	0.461450
C29	C	1.125411	-0.698138	0.511889
C30	C	1.125380	-0.632395	0.511873
N31	N	1.108264	-0.831783	0.464098
N32	N	1.108296	-0.894236	0.464108
C33	C	1.181420	-0.929297	0.461503
N34	N	1.254514	-0.899546	0.458870
N35	N	1.254481	-0.837087	0.458855
C36	C	1.181357	-0.802504	0.461473
C37	C	1.237380	-1.033657	0.411094
C38	C	1.237419	-1.099403	0.411120
C39	C	1.125603	-1.098992	0.511994
C40	C	1.125571	-1.033248	0.511973
C41	C	1.181459	-1.000584	0.461518
C42	C	1.398240	-0.374966	0.472468
C43	C	1.490667	-0.378694	0.477159
C44	C	1.170397	-0.374061	0.678353
C45	C	1.165731	-0.377404	0.770780
C46	C	1.181474	-0.202033	0.461531
C47	C	1.181529	-0.132068	0.461562
C48	C	1.192299	-0.358358	0.245413
C49	C	1.197126	-0.354844	0.152995
C50	C	1.157183	-0.383493	0.940004
C51	C	1.205672	-0.348757	0.983777
C52	C	1.200915	-0.352144	1.077938
C53	C	1.161938	-0.380106	0.845834
H54	H	0.670373	-0.311209	0.392335
H55	H	1.079847	-0.605468	0.552939
C56	C	1.265754	-0.305763	0.939305
C57	C	1.258601	-0.310917	0.853398
C58	C	1.313935	-0.271325	0.812402
H59	H	1.252964	-0.263454	0.952789
H60	H	1.320941	-0.317728	0.956278
H61	H	1.203427	-0.298949	0.836432
H62	H	1.271398	-0.353217	0.839890
H63	H	1.369122	-0.283290	0.829374
H64	H	1.301140	-0.229019	0.825892
H65	H	1.309094	-0.274821	0.754110
C66	C	1.097158	-0.426526	0.984478
C67	C	1.104342	-0.421388	1.070385
C68	C	1.049072	-0.461028	1.111392
H69	H	1.041954	-0.414607	0.967555
H70	H	1.110007	-0.468826	0.970952
H71	H	1.091487	-0.379098	1.083905
H72	H	1.159534	-0.433312	1.087332
H73	H	1.061922	-0.503328	1.097866
H74	H	0.993872	-0.449106	1.094463
H75	H	1.053945	-0.457551	1.169684
H76	H	1.282691	-0.606210	0.369908
C77	C	0.704395	-0.433189	0.545559
C78	C	0.790300	-0.427518	0.538394
C79	C	0.831328	-0.471457	0.593532
H80	H	0.687511	-0.425555	0.600793
H81	H	0.690848	-0.474481	0.532574
H82	H	0.803842	-0.386235	0.551385
H83	H	0.807209	-0.435158	0.483172
H84	H	0.817781	-0.512749	0.580548
H85	H	0.814437	-0.463819	0.648764
H86	H	0.889619	-0.467618	0.588674
H87	H	1.282755	-0.725479	0.369945
H88	H	1.079906	-0.724742	0.552959
C89	C	1.298151	-0.998304	0.356294
C90	C	1.347148	-1.041344	0.312154
C91	C	1.403145	-1.008803	0.261671
H92	H	1.268282	-0.970102	0.318347
H93	H	1.332783	-0.975243	0.389945
H94	H	1.312521	-1.064394	0.278505
H95	H	1.377035	-1.069547	0.350079
H96	H	1.437777	-0.985742	0.295322
H97	H	1.373269	-0.980602	0.223729
H98	H	1.436401	-1.038000	0.231722
C99	C	1.298305	-1.135325	0.356558
C100	C	1.349219	-1.176813	0.406456
C101	C	1.405359	-1.209896	0.356245
H102	H	1.268545	-1.158496	0.318650
H103	H	1.331625	-1.106450	0.326567
H104	H	1.315903	-1.205685	0.436434
H105	H	1.378997	-1.153658	0.444363
H106	H	1.438679	-1.181021	0.326253
H107	H	1.375591	-1.233064	0.318339
H108	H	1.439915	-1.238045	0.390094
H109	H	1.080099	-1.125592	0.553068
H110	H	1.080037	-1.006319	0.553033
