data_functionalizedCrystal
_audit_creation_method	'MofGen! by Chris Wilmer'
_symmetry_space_group_name_H-M	'P1'
_symmetry_Int_Tables_number	1
_symmetry_cell_setting	triclinic
loop_
_symmetry_equiv_pos_as_xyz
  x,y,z
_cell_length_a	25.639242
_cell_length_b	25.639240
_cell_length_c	19.805399
_cell_angle_alpha	89.969206
_cell_angle_beta	90.026812
_cell_angle_gamma	89.961937
loop_
_atom_site_label
_atom_site_type_symbol
_atom_site_fract_x
_atom_site_fract_y
_atom_site_fract_z
Zn1	Zn	0.799236	0.208234	0.382835
Zn2	Zn	1.132569	0.541567	0.716169
Zn3	Zn	1.465902	0.874901	1.049502
Zn4	Zn	0.799144	0.295668	0.269641
Zn5	Zn	1.132478	0.629001	0.602974
Zn6	Zn	1.465811	0.962335	0.936307
Zn7	Zn	0.711804	0.208241	0.269645
Zn8	Zn	1.045137	0.541574	0.602979
Zn9	Zn	1.378471	0.874907	0.936312
Zn10	Zn	0.711750	0.295632	0.382773
Zn11	Zn	1.045084	0.628966	0.716106
Zn12	Zn	1.378417	0.962299	1.049440
O13	O	0.755484	0.251944	0.326224
O14	O	1.088817	0.585277	0.659557
O15	O	1.422150	0.918610	0.992890
O16	O	0.872389	0.219844	0.367844
O17	O	1.205722	0.553178	0.701177
O18	O	1.539056	0.886511	1.034510
O19	O	0.787543	0.284088	0.174925
O20	O	1.120876	0.617422	0.508258
O21	O	1.454209	0.950755	0.841591
O22	O	0.723463	0.135075	0.284688
O23	O	1.056796	0.468408	0.618022
O24	O	1.390129	0.801741	0.951355
O25	O	0.872322	0.284082	0.284680
O26	O	1.205655	0.617415	0.618013
O27	O	1.538988	0.950748	0.951347
O28	O	0.787699	0.135070	0.367848
O29	O	1.121032	0.468403	0.701182
O30	O	1.454365	0.801736	1.034515
O31	O	0.723374	0.219856	0.174928
O32	O	1.056708	0.553189	0.508262
O33	O	1.390041	0.886522	0.841595
O34	O	0.638632	0.219821	0.284628
O35	O	0.971965	0.553155	0.617961
O36	O	1.305298	0.886488	0.951295
O37	O	0.723371	0.284021	0.477498
O38	O	1.056705	0.617355	0.810831
O39	O	1.390038	0.950688	1.144165
O40	O	0.638592	0.284028	0.367742
O41	O	0.971926	0.617361	0.701076
O42	O	1.305259	0.950694	1.034409
O43	O	0.787646	0.219810	0.477544
O44	O	1.120980	0.553143	0.810877
O45	O	1.454313	0.886477	1.144210
O46	O	0.787491	0.368829	0.284620
O47	O	1.120824	0.702162	0.617953
O48	O	1.454157	1.035495	0.951286
O49	O	0.723283	0.368802	0.367738
O50	O	1.056616	0.702136	0.701071
O51	O	1.389949	1.035469	1.034404
C52	C	0.619641	0.251922	0.326179
C53	C	0.952974	0.585255	0.659513
C54	C	1.286308	0.918588	0.992846
C55	C	0.561527	0.251925	0.326177
C56	C	0.894860	0.585258	0.659510
C57	C	1.228194	0.918591	0.992843
C58	C	0.310345	0.218456	0.283021
C59	C	0.643679	0.551789	0.616354
C60	C	0.977012	0.885122	0.949687
C61	C	0.364950	0.218451	0.283012
C62	C	0.698283	0.551784	0.616346
C63	C	1.031616	0.885118	0.949679
O64	O	0.393196	0.189963	0.246281
O65	O	0.726530	0.523297	0.579615
O66	O	1.059863	0.856630	0.912948
N67	N	0.392253	0.251931	0.326211
N68	N	0.725587	0.585265	0.659544
N69	N	1.058920	0.918598	0.992877
C70	C	0.364950	0.285415	0.369426
C71	C	0.698283	0.618748	0.702759
C72	C	1.031616	0.952082	1.036092
O73	O	0.393187	0.313892	0.406169
O74	O	0.726521	0.647225	0.739502
O75	O	1.059854	0.980559	1.072836
C76	C	0.310346	0.285417	0.369437
C77	C	0.643680	0.618750	0.702770
C78	C	0.977013	0.952084	1.036104
C79	C	0.283046	0.251938	0.326231
C80	C	0.616379	0.585271	0.659564
C81	C	0.949712	0.918605	0.992898
C82	C	0.283045	0.184979	0.239819
C83	C	0.616378	0.518312	0.573152
C84	C	0.949711	0.851646	0.906485
C85	C	0.228444	0.184985	0.239826
C86	C	0.561778	0.518318	0.573160
C87	C	0.895111	0.851651	0.906493
C88	C	0.201144	0.218467	0.283037
C89	C	0.534478	0.551800	0.616370
C90	C	0.867811	0.885134	0.949703
C91	C	0.228445	0.251944	0.326239
C92	C	0.561778	0.585277	0.659572
C93	C	0.895112	0.918610	0.992905
C94	C	0.283044	0.318898	0.412655
C95	C	0.616377	0.652231	0.745988
C96	C	0.949710	0.985564	1.079322
C97	C	0.228436	0.318896	0.412663
C98	C	0.561770	0.652230	0.745996
C99	C	0.895103	0.985563	1.079330
C100	C	0.201136	0.285417	0.369457
C101	C	0.534469	0.618751	0.702790
C102	C	0.867803	0.952084	1.036123
C103	C	0.146545	0.285431	0.369457
C104	C	0.479878	0.618765	0.702790
C105	C	0.813211	0.952098	1.036123
N106	N	0.119241	0.251951	0.326258
N107	N	0.452574	0.585284	0.659591
N108	N	0.785908	0.918618	0.992925
C109	C	0.146541	0.218469	0.283048
C110	C	0.479874	0.551802	0.616381
C111	C	0.813208	0.885135	0.949715
C112	C	0.479620	0.285408	0.369399
C113	C	0.812953	0.618741	0.702732
C114	C	1.146287	0.952075	1.036066
C115	C	0.534222	0.285409	0.369385
C116	C	0.867556	0.618743	0.702718
C117	C	1.200889	0.952076	1.036051
C118	C	0.534219	0.218444	0.282972
C119	C	0.867552	0.551778	0.616305
C120	C	1.200886	0.885111	0.949638
C121	C	0.479616	0.218446	0.282983
C122	C	0.812949	0.551779	0.616317
C123	C	1.146282	0.885113	0.949650
C124	C	0.452317	0.251928	0.326200
C125	C	0.785650	0.585261	0.659534
C126	C	1.118983	0.918594	0.992867
C127	C	0.031876	0.218484	0.283067
C128	C	0.365209	0.551817	0.616401
C129	C	0.698543	0.885150	0.949734
C130	C	-0.022729	0.218494	0.283077
C131	C	0.310604	0.551827	0.616410
C132	C	0.643937	0.885160	0.949744
C133	C	-0.022721	0.285457	0.369492
C134	C	0.310612	0.618790	0.702825
C135	C	0.643946	0.952123	1.036159
C136	C	0.031879	0.285449	0.369480
C137	C	0.365213	0.618782	0.702813
C138	C	0.698546	0.952115	1.036147
C139	C	0.059177	0.251958	0.326266
C140	C	0.392510	0.585291	0.659599
C141	C	0.725843	0.918624	0.992932
O142	O	0.118263	0.313903	0.406171
O143	O	0.451597	0.647236	0.739504
O144	O	0.784930	0.980570	1.072837
O145	O	0.118297	0.189992	0.246317
O146	O	0.451630	0.523325	0.579650
O147	O	0.784963	0.856658	0.912984
C148	C	0.755385	0.387786	0.326186
C149	C	1.088718	0.721120	0.659520
C150	C	1.422052	1.054453	0.992853
C151	C	0.755391	0.445900	0.326193
C152	C	1.088724	0.779234	0.659526
C153	C	1.422057	1.112567	0.992860
C154	C	0.788961	0.806264	0.282992
C155	C	1.122294	1.139598	0.616325
C156	C	1.455627	1.472931	0.949659
C157	C	0.788977	0.860869	0.282998
C158	C	1.122310	1.194202	0.616332
C159	C	1.455643	1.527535	0.949665
O160	O	0.817450	0.889106	0.246246
O161	O	1.150783	1.222440	0.579580
O162	O	1.484116	1.555773	0.912913
N163	N	0.755526	0.888183	0.326239
N164	N	1.088859	1.221516	0.659572
N165	N	1.422193	1.554849	0.992905
C166	C	0.722061	0.860890	0.369480
C167	C	1.055394	1.194223	0.702813
C168	C	1.388727	1.527556	1.036147
O169	O	0.693610	0.889136	0.406260
O170	O	1.026943	1.222470	0.739594
O171	O	1.360276	1.555803	1.072927
C172	C	0.722048	0.806286	0.369477
C173	C	1.055381	1.139620	0.702810
C174	C	1.388714	1.472953	1.036143
C175	C	0.755497	0.778975	0.326229
C176	C	1.088830	1.112309	0.659562
C177	C	1.422164	1.445642	0.992895
C178	C	0.822408	0.778953	0.239748
C179	C	1.155741	1.112287	0.573081
C180	C	1.489074	1.445620	0.906415
C181	C	0.822391	0.724353	0.239741
C182	C	1.155724	1.057686	0.573074
C183	C	1.489058	1.391019	0.906407
C184	C	0.788927	0.697063	0.282977
C185	C	1.122260	1.030397	0.616311
C186	C	1.455594	1.363730	0.949644
C187	C	0.755480	0.724375	0.326221
C188	C	1.088813	1.057708	0.659555
C189	C	1.422147	1.391041	0.992888
C190	C	0.688585	0.778994	0.412721
C191	C	1.021919	1.112328	0.746054
C192	C	1.355252	1.445661	1.079388
C193	C	0.688575	0.724387	0.412714
C194	C	1.021909	1.057721	0.746047
C195	C	1.355242	1.391054	1.079381
C196	C	0.722025	0.697076	0.369466
C197	C	1.055358	1.030409	0.702799
C198	C	1.388691	1.363743	1.036133
C199	C	0.721999	0.642485	0.369451
C200	C	1.055333	0.975818	0.702784
C201	C	1.388666	1.309152	1.036117
N202	N	0.755450	0.615171	0.326211
N203	N	1.088784	0.948504	0.659544
N204	N	1.422117	1.281837	0.992877
C205	C	0.788914	0.642460	0.282974
C206	C	1.122247	0.975793	0.616307
C207	C	1.455581	1.309127	0.949641
C208	C	0.722091	0.975560	0.369485
C209	C	1.055424	1.308894	0.702819
C210	C	1.388758	1.642227	1.036152
C211	C	0.722101	1.030163	0.369486
C212	C	1.055434	1.363496	0.702819
C213	C	1.388768	1.696829	1.036153
C214	C	0.789018	1.030138	0.283005
C215	C	1.122351	1.363471	0.616338
C216	C	1.455685	1.696805	0.949672
C217	C	0.789005	0.975535	0.283001
C218	C	1.122338	1.308868	0.616335
C219	C	1.455672	1.642201	0.949668
C220	C	0.755542	0.948246	0.326245
C221	C	1.088875	1.281580	0.659578
C222	C	1.422209	1.614913	0.992912
C223	C	0.788876	0.527795	0.282962
C224	C	1.122209	0.861128	0.616295
C225	C	1.455543	1.194462	0.949628
C226	C	0.788855	0.473190	0.282956
C227	C	1.122188	0.806523	0.616290
C228	C	1.455521	1.139856	0.949623
C229	C	0.721940	0.473219	0.369439
C230	C	1.055273	0.806553	0.702773
C231	C	1.388606	1.139886	1.036106
C232	C	0.721959	0.527820	0.369443
C233	C	1.055292	0.861153	0.702776
C234	C	1.388626	1.194486	1.036109
C235	C	0.755431	0.555106	0.326201
C236	C	1.088765	0.888440	0.659535
C237	C	1.422098	1.221773	0.992868
O238	O	0.693543	0.614213	0.406186
O239	O	1.026876	0.947546	0.739519
O240	O	1.360209	1.280879	1.072853
O241	O	0.817365	0.614207	0.246206
O242	O	1.150698	0.947540	0.579539
O243	O	1.484032	1.280873	0.912873
C244	C	0.891857	0.251966	0.326268
C245	C	1.225190	0.585300	0.659602
C246	C	1.558523	0.918633	0.992935
C247	C	0.949971	0.251976	0.326287
C248	C	1.283304	0.585309	0.659621
C249	C	1.616637	0.918643	0.992954
C250	C	0.755513	0.251911	0.502766
C251	C	1.088846	0.585244	0.836100
C252	C	1.422180	0.918578	1.169433
C253	C	0.755526	0.251897	0.577998
C254	C	1.088859	0.585230	0.911332
C255	C	1.422192	0.918563	1.244665
C256	C	0.755577	1.115571	0.326264
C257	C	1.088911	1.448904	0.659597
C258	C	1.422244	1.782237	0.992931
C259	C	0.755567	1.057457	0.326251
C260	C	1.088900	1.390790	0.659585
C261	C	1.422234	1.724123	0.992918
C262	C	0.755485	0.251939	0.150368
C263	C	1.088818	0.585272	0.483701
C264	C	1.422151	0.918606	0.817034
C265	C	0.755573	0.251806	0.075136
C266	C	1.088907	0.585139	0.408469
C267	C	1.422240	0.918472	0.741803
C268	C	0.788994	0.218460	0.613367
C269	C	1.122328	0.551794	0.946701
C270	C	1.455661	0.885127	1.280034
C271	C	0.789000	0.218445	0.684056
C272	C	1.122333	0.551779	1.017389
C273	C	1.455666	0.885112	1.350723
C274	C	0.755539	0.251870	0.719374
C275	C	1.088872	0.585203	1.052707
C276	C	1.422205	0.918536	1.386041
C277	C	0.722066	0.285307	0.684000
C278	C	1.055399	0.618641	1.017333
C279	C	1.388733	0.951974	1.350667
C280	C	0.722058	0.285320	0.613313
C281	C	1.055392	0.618653	0.946646
C282	C	1.388725	0.951986	1.279980
C283	C	0.722096	0.285259	0.969074
C284	C	1.055429	0.618592	1.302407
C285	C	1.388762	0.951925	1.635740
C286	C	0.722107	0.285245	1.039766
C287	C	1.055440	0.618578	1.373099
C288	C	1.388774	0.951912	1.706432
C289	C	0.789037	0.218384	1.039817
C290	C	1.122370	0.551718	1.373150
C291	C	1.455704	0.885051	1.706483
C292	C	0.789029	0.218396	0.969129
C293	C	1.122363	0.551730	1.302463
C294	C	1.455696	0.885063	1.635796
C295	C	0.755555	0.251832	0.933762
C296	C	1.088888	0.585166	1.267095
C297	C	1.422222	0.918499	1.600428
C298	C	0.755549	0.251848	0.857113
C299	C	1.088882	0.585181	1.190446
C300	C	1.422216	0.918514	1.523780
C301	C	0.755547	0.251857	0.796021
C302	C	1.088880	0.585191	1.129355
C303	C	1.422214	0.918524	1.462688
H304	H	0.556446	0.312677	0.404560
H305	H	0.889779	0.646010	0.737893
H306	H	1.223113	0.979343	1.071227
H307	H	0.816255	0.191219	0.712850
H308	H	1.149588	0.524552	1.046184
H309	H	1.482921	0.857886	1.379517
F310	F	0.450571	0.321050	0.415395
F311	F	0.783905	0.654383	0.748728
F312	F	1.117238	0.987716	1.082061
H313	H	0.694856	0.312464	1.068520
H314	H	1.028190	0.645798	1.401853
H315	H	1.361523	0.979131	1.735186
H316	H	0.694846	0.312492	0.940286
H317	H	1.028180	0.645825	1.273619
H318	H	1.361513	0.979159	1.606952
H319	H	0.816244	0.191244	0.584616
H320	H	1.149577	0.524577	0.917950
H321	H	1.482911	0.857911	1.251283
H322	H	0.694819	0.312520	0.712762
H323	H	1.028153	0.645854	1.046095
H324	H	1.361486	0.979187	1.379428
H325	H	-0.044955	0.191230	0.247891
H326	H	0.288378	0.524564	0.581225
H327	H	0.621711	0.857897	0.914558
F328	F	0.824645	0.182824	0.931545
F329	F	1.157978	0.516157	1.264878
F330	F	1.491312	0.849490	1.598212
F331	F	0.652988	0.808049	0.458758
F332	F	0.986321	1.141383	0.792091
F333	F	1.319654	1.474716	1.125425
H334	H	0.305262	0.346160	0.447838
H335	H	0.638596	0.679493	0.781171
H336	H	0.971929	1.012827	1.114504
H337	H	0.556456	0.191180	0.247789
H338	H	0.889790	0.524513	0.581122
H339	H	1.223123	0.857847	0.914456
F340	F	0.686435	0.320906	0.575671
F341	F	1.019768	0.654239	0.909004
F342	F	1.353102	0.987573	1.242338
H343	H	0.206221	0.157723	0.204644
H344	H	0.539554	0.491056	0.537977
H345	H	0.872888	0.824389	0.871310
H346	H	0.457391	0.191183	0.247803
H347	H	0.790724	0.524516	0.581137
H348	H	1.124058	0.857849	0.914470
H349	H	0.206213	0.346160	0.447859
H350	H	0.539546	0.679493	0.781192
H351	H	0.872879	1.012826	1.114525
F352	F	0.858029	0.807988	0.193727
F353	F	1.191362	1.141322	0.527060
F354	F	1.524695	1.474655	0.860393
F355	F	0.686328	0.444166	0.415454
F356	F	1.019662	0.777500	0.748788
F357	F	1.352995	1.110833	1.082121
H358	H	0.054095	0.191210	0.247881
H359	H	0.387428	0.524543	0.581215
H360	H	0.720762	0.857876	0.914548
F361	F	0.686469	0.946523	0.415510
F362	F	1.019802	1.279856	0.748843
F363	F	1.353136	1.613189	1.082176
H364	H	0.816133	0.550005	0.247752
H365	H	1.149467	0.883339	0.581085
H366	H	1.482800	1.216672	0.914419
H367	H	0.816291	0.191157	1.068622
H368	H	1.149625	0.524491	1.401955
H369	H	1.482958	0.857824	1.735288
F370	F	0.060936	0.321086	0.415458
F371	F	0.394269	0.654419	0.748791
F372	F	0.727602	0.987752	1.082124
F373	F	-0.051785	0.321095	0.415469
F374	F	0.281548	0.654428	0.748803
F375	F	0.614881	0.987761	1.082136
F376	F	0.312091	0.149338	0.193826
F377	F	0.645424	0.482672	0.527159
F378	F	0.978758	0.816005	0.860493
F379	F	0.824457	0.444126	0.236923
F380	F	1.157791	0.777459	0.570257
F381	F	1.491124	1.110793	0.903590
H382	H	0.849630	0.702119	0.204527
H383	H	1.182963	1.035452	0.537860
H384	H	1.516296	1.368786	0.871193
F385	F	0.824633	1.059191	0.236987
F386	F	1.157966	1.392524	0.570321
F387	F	1.491299	1.725857	0.903654
F388	F	0.824606	0.946473	0.236972
F389	F	1.157940	1.279806	0.570305
F390	F	1.491273	1.613140	0.903638
F391	F	0.686494	1.059223	0.415509
F392	F	1.019827	1.392557	0.748842
F393	F	1.353160	1.725890	1.082175
H394	H	0.661326	0.702172	0.447930
H395	H	0.994660	1.035505	0.781264
H396	H	1.327993	1.368838	1.114597
F397	F	0.686349	0.556887	0.415459
F398	F	1.019682	0.890221	0.748792
F399	F	1.353016	1.223554	1.082126
