data_functionalizedCrystal
_audit_creation_method	'MofGen! by Chris Wilmer'
_symmetry_space_group_name_H-M	'P1'
_symmetry_Int_Tables_number	1
_symmetry_cell_setting	triclinic
loop_
_symmetry_equiv_pos_as_xyz
  x,y,z
_cell_length_a	10.654562
_cell_length_b	17.038272
_cell_length_c	9.730223
_cell_angle_alpha	90.003088
_cell_angle_beta	90.002442
_cell_angle_gamma	87.800830
loop_
_atom_site_label
_atom_site_type_symbol
_atom_site_fract_x
_atom_site_fract_y
_atom_site_fract_z
O1	O	1.678030	0.109924	0.114383
O2	O	1.313525	0.120382	0.114366
O3	O	1.493611	0.001325	0.114363
O4	O	1.497944	0.228980	0.114385
O5	O	1.493612	0.001325	-0.114217
O6	O	1.313525	0.120382	-0.114214
O7	O	1.678031	0.109924	-0.114197
Zn8	Zn	1.495778	0.115153	-0.150498
Zn9	Zn	1.495777	0.115153	0.150666
O10	O	1.497944	0.228980	-0.114195
C11	C	1.266656	0.119612	0.000074
C12	C	1.127000	0.117308	0.000067
C13	C	1.061369	0.116234	-0.124521
C14	C	0.930147	0.114075	-0.124499
C15	C	0.930196	0.114070	0.124712
C16	C	1.061417	0.116222	0.124687
C17	C	1.061340	0.116241	-0.268401
C18	C	0.930117	0.114082	-0.268379
C19	C	1.489671	-0.027825	0.000073
C20	C	1.477914	-0.114684	0.000073
C21	C	1.585857	-0.164192	0.000077
C22	C	1.574803	-0.245805	0.000089
C23	C	1.455803	-0.277908	0.000088
C24	C	1.347852	-0.228393	0.000089
C25	C	1.358907	-0.146782	0.000086
C26	C	1.416746	-0.523885	0.000105
C27	C	1.405698	-0.605502	0.000104
C28	C	1.632651	-0.622908	0.000107
C29	C	1.643696	-0.541295	0.000096
C30	C	1.535744	-0.491788	0.000104
C31	C	1.444501	-0.361329	0.000097
C32	C	1.547047	-0.408368	0.000105
C33	C	1.724900	0.110694	0.000098
C34	C	1.864556	0.112997	0.000114
C35	C	1.501885	0.258131	0.000098
C36	C	1.513642	0.344990	0.000107
N37	N	1.495788	0.115152	-0.356034
C38	C	1.577055	0.163038	-0.571860
C39	C	1.577058	0.163043	-0.427977
C40	C	1.414501	0.067260	-0.427982
C41	C	1.414493	0.067259	-0.571862
C42	C	1.670910	0.218335	-0.571856
C43	C	1.670913	0.218340	-0.427973
N44	N	1.495777	0.115147	0.356203
H45	H	1.114849	0.117085	0.226139
C46	C	1.108457	0.193314	-0.328721
N47	N	1.143947	0.251366	-0.374155
H48	H	1.763205	0.193747	-0.616487
H49	H	0.876782	0.113185	0.226173
H50	H	0.888851	0.168148	-0.323609
C51	C	1.325064	0.014587	-0.650989
N52	N	1.257700	-0.025086	-0.710586
C53	C	1.240160	-0.092323	0.000079
N54	N	1.150715	-0.051305	0.000077
H55	H	1.328843	-0.483585	0.000111
C56	C	1.624921	0.297920	-0.367674
N57	N	1.590282	0.357859	-0.322256
H58	H	1.347611	-0.387476	0.000093
H59	H	1.645710	0.280025	-0.610896
C60	C	1.117059	0.043202	-0.343044
N61	N	1.159026	-0.011810	-0.399261
C62	C	1.325197	0.014517	-0.348840
N63	N	1.257970	-0.025235	-0.289231
H64	H	1.682760	-0.138061	0.000069
H65	H	0.895231	0.057029	-0.313030
C66	C	1.216950	-0.263709	0.000076
N67	N	1.118353	-0.290308	0.000057
H68	H	1.662703	-0.286112	0.000089
H69	H	1.740598	-0.515163	0.000096
C70	C	1.751389	-0.677372	0.000111
N71	N	1.840828	-0.718395	0.000121
H72	H	1.308790	-0.631637	0.000081
H73	H	1.643936	-0.382227	0.000136
H74	H	1.768183	0.199114	-0.388926
