data_functionalizedCrystal
_audit_creation_method	'MofGen! by Chris Wilmer'
_symmetry_space_group_name_H-M	'P1'
_symmetry_Int_Tables_number	1
_symmetry_cell_setting	triclinic
loop_
_symmetry_equiv_pos_as_xyz
  x,y,z
_cell_length_a	14.971482
_cell_length_b	10.654541
_cell_length_c	13.448316
_cell_angle_alpha	89.993648
_cell_angle_beta	89.993798
_cell_angle_gamma	84.048268
loop_
_atom_site_label
_atom_site_type_symbol
_atom_site_fract_x
_atom_site_fract_y
_atom_site_fract_z
O1	O	1.187839	0.163637	-0.082679
O2	O	1.687839	0.663637	0.417321
O3	O	0.927545	0.183241	-0.082683
O4	O	1.427545	0.683241	0.417317
O5	O	1.063678	-0.009365	-0.082675
O6	O	1.563678	0.490635	0.417325
O7	O	1.051706	0.356243	-0.082687
O8	O	1.551706	0.856243	0.417313
O9	O	1.063660	-0.009377	0.082709
O10	O	1.563660	0.490623	0.582709
O11	O	0.927528	0.183229	0.082701
O12	O	1.427528	0.683229	0.582701
O13	O	1.187822	0.163625	0.082705
O14	O	1.687822	0.663625	0.582705
Cu15	Cu	1.057673	0.173426	0.097804
Cu16	Cu	1.557673	0.673426	0.597804
Cu17	Cu	1.057693	0.173440	-0.097782
Cu18	Cu	1.557693	0.673440	0.402218
O19	O	1.051689	0.356231	0.082697
O20	O	1.551689	0.856231	0.582697
C21	C	0.894207	0.182359	0.000008
C22	C	1.394207	0.682359	0.500008
C23	C	0.794895	0.179734	0.000006
C24	C	1.294895	0.679734	0.500006
C25	C	0.748234	0.178491	0.090158
C26	C	1.248234	0.678491	0.590158
C27	C	0.654922	0.176005	0.090159
C28	C	1.154922	0.676005	0.590159
C29	C	0.608272	0.174771	0.000008
C30	C	1.108272	0.674771	0.500008
C31	C	0.654940	0.176010	-0.090151
C32	C	1.154940	0.676010	0.409849
C33	C	0.748251	0.178487	-0.090151
C34	C	1.248251	0.678487	0.409849
C35	C	0.460450	0.170849	-0.090145
C36	C	0.960450	0.670849	0.409855
C37	C	0.367132	0.168374	-0.090145
C38	C	0.867132	0.668374	0.409855
C39	C	0.367121	0.168368	0.090166
C40	C	0.867121	0.668368	0.590166
C41	C	0.460432	0.170845	0.090166
C42	C	0.960432	0.670845	0.590166
C43	C	0.507093	0.172086	0.000007
C44	C	1.007093	0.672086	0.500007
C45	C	1.062790	-0.056160	0.000017
C46	C	1.562790	0.443840	0.500017
C47	C	1.060162	-0.195575	0.000015
C48	C	1.560162	0.304425	0.500015
C49	C	1.222946	-0.225295	0.000030
C50	C	1.722946	0.274705	0.500030
C51	C	1.303099	-0.305651	0.000040
C52	C	1.803099	0.194349	0.500040
C53	C	1.300624	-0.436642	0.000037
C54	C	1.800624	0.063358	0.500037
C55	C	1.217986	-0.487279	0.000021
C56	C	1.717986	0.012721	0.500021
C57	C	1.137833	-0.406924	0.000011
C58	C	1.637833	0.093076	0.500011
C59	C	1.140317	-0.275931	0.000018
C60	C	1.640317	0.224069	0.500018
C61	C	0.975051	-0.377204	-0.000011
C62	C	1.475051	0.122796	0.499989
C63	C	0.977525	-0.246212	-0.000001
C64	C	1.477525	0.253788	0.499999
C65	C	0.892414	-0.427841	-0.000027
C66	C	1.392414	0.072159	0.499973
C67	C	0.812259	-0.347485	-0.000030
C68	C	1.312259	0.152515	0.499970
C69	C	0.814737	-0.216486	-0.000026
C70	C	1.314737	0.283514	0.499974
C71	C	0.897371	-0.165856	-0.000011
C72	C	1.397371	0.334144	0.499989
C73	C	1.221160	0.164507	0.000012
C74	C	1.721160	0.664507	0.500012
C75	C	1.320471	0.167132	0.000007
C76	C	1.820471	0.667132	0.500007
C77	C	1.052576	0.403025	0.000003
C78	C	1.552576	0.903025	0.500003
C79	C	1.055204	0.542441	-0.000002
C80	C	1.555204	1.042441	0.499998
N81	N	1.057665	0.173415	0.235368
N82	N	1.557665	0.673415	0.735368
N83	N	1.057708	0.173441	-0.235346
N84	N	1.557708	0.673441	0.264654
C85	C	1.117964	0.088165	0.287412
C86	C	1.617964	0.588165	0.787412
C87	C	1.117969	0.088164	0.391515
C88	C	1.617969	0.588164	0.891515
C89	C	1.057680	0.173420	0.443573
C90	C	1.557680	0.673420	0.943573
C91	C	0.997375	0.258675	0.391521
C92	C	1.497375	0.758675	0.891521
C93	C	0.997366	0.258669	0.287420
C94	C	1.497366	0.758669	0.787420
C95	C	0.997400	0.258683	0.608501
C96	C	1.497400	0.758683	1.108501
C97	C	0.997410	0.258691	0.712610
C98	C	1.497410	0.758691	1.212610
C99	C	1.118003	0.088178	0.712597
C100	C	1.618003	0.588178	1.212597
C101	C	1.117994	0.088172	0.608496
C102	C	1.617994	0.588172	1.108496
C103	C	1.057690	0.173429	0.556451
C104	C	1.557690	0.673429	1.056451
H105	H	0.616937	0.174972	0.163570
H106	H	1.116937	0.674972	0.663570
H107	H	0.744982	-0.388725	-0.000049
H108	H	1.244982	0.111275	0.499951
H109	H	0.329152	0.167370	-0.163554
H110	H	0.829152	0.667370	0.336446
H111	H	0.948281	0.328088	0.433912
H112	H	1.448281	0.828088	0.933912
H113	H	0.749466	-0.151066	-0.000038
H114	H	1.249466	0.348934	0.499962
Br115	Br	0.523776	0.172527	-0.212505
Br116	Br	1.023776	0.672527	0.287495
Br117	Br	0.900742	0.011917	0.000006
Br118	Br	1.400742	0.511917	0.500006
Br119	Br	0.915522	0.374363	0.216788
Br120	Br	1.415522	0.874363	0.716788
Br121	Br	1.226311	-0.047521	0.000063
Br122	Br	1.726311	0.452479	0.500063
Br123	Br	0.523742	0.172540	0.212516
Br124	Br	1.023742	0.672540	0.712516
H125	H	1.167062	0.018744	0.245034
H126	H	1.667062	0.518744	0.745034
Br127	Br	1.409403	-0.545702	0.000037
Br128	Br	1.909403	-0.045702	0.500037
Br129	Br	1.199801	-0.027540	0.462150
Br130	Br	1.699801	0.472460	0.962150
H131	H	0.329125	0.167357	0.163577
H132	H	0.829125	0.667357	0.663577
H133	H	1.370381	-0.264407	0.000062
H134	H	1.870381	0.235593	0.500062
H135	H	1.167091	0.018756	0.566111
H136	H	1.667091	0.518756	1.066111
Br137	Br	1.214628	-0.665055	-0.000061
Br138	Br	1.714628	-0.165055	0.499939
Br139	Br	0.889053	-0.605616	-0.000105
Br140	Br	1.389053	-0.105616	0.499895
H141	H	0.616950	0.174996	-0.163554
H142	H	1.116950	0.674996	0.336446
Br143	Br	1.199847	-0.027520	0.783231
Br144	Br	1.699847	0.472480	1.283231
Br145	Br	0.915584	0.374402	0.783251
Br146	Br	1.415584	0.874402	1.283251
Br147	Br	0.811535	0.180180	0.212514
Br148	Br	1.311535	0.680180	0.712514
Br149	Br	0.811579	0.180162	-0.212505
Br150	Br	1.311579	0.680162	0.287495
H151	H	0.948290	0.328104	0.566130
H152	H	1.448290	0.828104	1.066130
