data_functionalizedCrystal
_audit_creation_method	'MofGen! by Chris Wilmer'
_symmetry_space_group_name_H-M	'P1'
_symmetry_Int_Tables_number	1
_symmetry_cell_setting	triclinic
loop_
_symmetry_equiv_pos_as_xyz
  x,y,z
_cell_length_a	19.805407
_cell_length_b	17.640280
_cell_length_c	19.805399
_cell_angle_alpha	78.776890
_cell_angle_beta	89.982197
_cell_angle_gamma	78.797832
loop_
_atom_site_label
_atom_site_type_symbol
_atom_site_fract_x
_atom_site_fract_y
_atom_site_fract_z
Zn1	Zn	1.089291	-0.314739	-0.328273
Zn2	Zn	1.112116	-0.446914	-0.192234
Zn3	Zn	0.976108	-0.314755	-0.215099
Zn4	Zn	0.998971	-0.446866	-0.305392
O5	O	1.044122	-0.380819	-0.260250
O6	O	1.187038	-0.332286	-0.310234
O7	O	1.094059	-0.429410	-0.100546
O8	O	0.972001	-0.204148	-0.249256
O9	O	1.203807	-0.429395	-0.210286
O10	O	1.055156	-0.204136	-0.332405
O11	O	0.994134	-0.332313	-0.117344
O12	O	0.884422	-0.332266	-0.227070
O13	O	1.010968	-0.429312	-0.403149
O14	O	0.901219	-0.429328	-0.293408
O15	O	1.077325	-0.332239	-0.419959
O16	O	1.116228	-0.557513	-0.188100
O17	O	1.033101	-0.557477	-0.271237
C18	C	0.868261	-0.380794	-0.260237
C19	C	0.793031	-0.380802	-0.260245
C20	C	1.079641	-0.586174	-0.224719
C21	C	1.094898	-0.674025	-0.209541
C22	C	0.748971	-0.330327	-0.312338
C23	C	0.678283	-0.330331	-0.312340
C24	C	0.651657	-0.380815	-0.260251
C25	C	0.695723	-0.431292	-0.208153
C26	C	0.766408	-0.431284	-0.208149
C27	C	0.410656	-0.431328	-0.208167
C28	C	0.339965	-0.431334	-0.208176
C29	C	0.322530	-0.330376	-0.312359
C30	C	0.393216	-0.330367	-0.312355
C31	C	0.437274	-0.380841	-0.260255
C32	C	0.513922	-0.380835	-0.260252
C33	C	0.575012	-0.380826	-0.260255
C34	C	0.928493	-0.963004	-0.375798
C35	C	0.942831	-1.045554	-0.361515
C36	C	1.029445	-1.045525	-0.275031
C37	C	1.015116	-0.962974	-0.289310
C38	C	0.964639	-0.921719	-0.339693
C39	C	1.051263	-0.921689	-0.253205
C40	C	1.036933	-0.839145	-0.267480
C41	C	0.986457	-0.797884	-0.317859
C42	C	0.950310	-0.839175	-0.353968
C43	C	1.101736	-0.962945	-0.202818
C44	C	1.137883	-0.921660	-0.166714
C45	C	1.123557	-0.839114	-0.180992
C46	C	1.073081	-0.797854	-0.231371
C47	C	1.159704	-0.797824	-0.144883
C48	C	1.145375	-0.715280	-0.159158
C49	C	1.058751	-0.715310	-0.245646
C50	C	1.220669	-0.380844	-0.260262
C51	C	1.295903	-0.380855	-0.260267
C52	C	1.044151	-0.380769	-0.436801
C53	C	1.044163	-0.380748	-0.512037
C54	C	1.008482	-0.174662	-0.295934
C55	C	0.993295	-0.086810	-0.311140
C56	C	1.078716	-0.330199	-0.556136
C57	C	1.078719	-0.330176	-0.626828
C58	C	1.044173	-0.380706	-0.653419
C59	C	1.009616	-0.431257	-0.609315
C60	C	1.009609	-0.431275	-0.538625
C61	C	1.009641	-0.431183	-0.894401
C62	C	1.009652	-0.431163	-0.965097
C63	C	1.078751	-0.330084	-0.982605
C64	C	1.078745	-0.330102	-0.911914
C65	C	1.044185	-0.380650	-0.867817
C66	C	1.044181	-0.380673	-0.791164
C67	C	1.044181	-0.380688	-0.730070
C68	C	1.044121	-0.380811	-0.084395
C69	C	1.044201	-0.380610	-0.009198
H70	H	0.642412	-0.289231	-0.354761
O71	O	0.421935	-0.275910	-0.368531
H72	H	0.379419	-0.240804	-0.404751
H73	H	1.174809	-0.681665	-0.129757
O74	O	0.458172	-0.485762	-0.151975
H75	H	0.427780	-0.520870	-0.115760
H76	H	1.017652	-0.681719	-0.286678
H77	H	0.974786	-0.730671	-0.329476
H78	H	0.981512	-0.472354	-0.858503
H79	H	1.178979	-0.955261	-0.125690
H80	H	0.286648	-0.289275	-0.354779
O81	O	1.116009	-0.275603	-0.883237
H82	H	1.110205	-0.284114	-0.826672
H83	H	0.909211	-0.805584	-0.395000
H84	H	0.887394	-0.929413	-0.416830
O85	O	0.903846	-1.090086	-0.400463
H86	H	0.866344	-1.047529	-0.437897
O87	O	0.667006	-0.485738	-0.151966
H88	H	0.691320	-0.547787	-0.152744
H89	H	0.318289	-0.472446	-0.165756
O90	O	1.083890	-1.090014	-0.220692
H91	H	1.134239	-1.074108	-0.235106
O92	O	1.117191	-1.051976	-0.187413
H93	H	1.172007	-1.073693	-0.197371
H94	H	1.200798	-0.831426	-0.103857
H95	H	0.802282	-0.472385	-0.165729
O96	O	1.115977	-0.275698	-0.527455
H97	H	1.139999	-0.240540	-0.570000
O98	O	1.115991	-0.275661	-0.674394
H99	H	1.140021	-0.240536	-0.644025
O100	O	1.116014	-0.275556	-1.030180
H101	H	1.171482	-0.289127	-1.014284
H102	H	0.981518	-0.472312	-0.986744
O103	O	0.972349	-0.485755	-0.637991
H104	H	0.978162	-0.477255	-0.694555
O105	O	0.972329	-0.485787	-0.491062
H106	H	0.994657	-0.547822	-0.493884
O107	O	0.777687	-0.275872	-0.368517
H108	H	0.735170	-0.240767	-0.404736
