data_functionalizedCrystal
_audit_creation_method	'MofGen! by Chris Wilmer'
_symmetry_space_group_name_H-M	'P1'
_symmetry_Int_Tables_number	1
_symmetry_cell_setting	triclinic
loop_
_symmetry_equiv_pos_as_xyz
  x,y,z
_cell_length_a	18.101398
_cell_length_b	21.295416
_cell_length_c	18.101389
_cell_angle_alpha	89.979908
_cell_angle_beta	90.024327
_cell_angle_gamma	89.974402
loop_
_atom_site_label
_atom_site_type_symbol
_atom_site_fract_x
_atom_site_fract_y
_atom_site_fract_z
Zn1	Zn	1.132125	0.250755	0.418830
Zn2	Zn	1.632125	0.750755	0.918830
Zn3	Zn	1.132023	0.356008	0.294985
Zn4	Zn	1.632023	0.856008	0.794985
Zn5	Zn	1.008284	0.250748	0.294991
Zn6	Zn	1.508284	0.750748	0.794991
Zn7	Zn	1.008236	0.355981	0.418774
Zn8	Zn	1.508236	0.855981	0.918774
O9	O	1.070167	0.303373	0.356895
O10	O	1.570167	0.803373	0.856895
O11	O	1.235744	0.264731	0.402423
O12	O	1.735744	0.764731	0.902423
O13	O	1.115585	0.342054	0.191353
O14	O	1.615585	0.842054	0.691353
O15	O	1.024774	0.162660	0.311445
O16	O	1.524774	0.662660	0.811445
O17	O	1.235669	0.342060	0.311434
O18	O	1.735669	0.842060	0.811434
O19	O	1.115760	0.162664	0.402429
O20	O	1.615760	0.662664	0.902429
O21	O	1.024675	0.264720	0.191357
O22	O	1.524675	0.764720	0.691357
O23	O	0.904645	0.264694	0.311390
O24	O	1.404645	0.764694	0.811390
O25	O	1.024693	0.342014	0.522414
O26	O	1.524693	0.842014	1.022414
O27	O	0.904610	0.342008	0.402332
O28	O	1.404610	0.842008	0.902332
O29	O	1.115714	0.264705	0.522456
O30	O	1.615714	0.764705	1.022456
O31	O	1.115539	0.444094	0.311379
O32	O	1.615539	0.944094	0.811379
O33	O	1.024594	0.444074	0.402326
O34	O	1.524594	0.944074	0.902326
C35	C	0.877756	0.303348	0.356856
C36	C	1.377756	0.803348	0.856856
C37	C	0.795442	0.303352	0.356857
C38	C	1.295442	0.803352	0.856857
C39	C	1.070070	0.466925	0.356862
C40	C	1.570070	0.966925	0.856862
C41	C	1.070097	0.536893	0.356873
C42	C	1.570097	1.036893	0.856873
C43	C	0.496351	0.303391	0.356920
C44	C	0.996351	0.803391	0.856920
C45	C	0.527674	0.254504	0.299980
C46	C	1.027674	0.754504	0.799980
C47	C	0.613292	0.254635	0.299737
C48	C	1.113292	0.754635	0.799737
C49	C	0.644734	0.303371	0.356889
C50	C	1.144734	0.803371	0.856889
C51	C	0.613617	0.369679	0.335562
C52	C	1.113617	0.869679	0.835562
C53	C	0.527972	0.369407	0.335166
C54	C	1.027972	0.869407	0.835166
C55	C	0.527966	0.286547	0.435320
C56	C	1.027966	0.786547	0.935320
C57	C	0.613616	0.285070	0.434892
C58	C	1.113616	0.785070	0.934892
C59	C	0.728593	0.303364	0.356872
C60	C	1.228593	0.803364	0.856872
C61	C	0.412492	0.303403	0.356934
C62	C	0.912492	0.803403	0.856934
C63	C	1.117494	0.569749	0.309567
C64	C	1.617494	1.069749	0.809567
C65	C	1.117529	0.635491	0.309587
C66	C	1.617529	1.135491	0.809587
C67	C	1.070154	0.668375	0.356905
C68	C	1.570154	1.168375	0.856905
C69	C	1.022753	0.635511	0.404220
C70	C	1.522753	1.135511	0.904220
C71	C	1.022725	0.569770	0.404204
C72	C	1.522725	1.069770	0.904204
N73	N	1.005370	0.771637	0.362543
N74	N	1.505370	1.271637	0.862543
N75	N	1.005399	0.834089	0.362554
N76	N	1.505399	1.334089	0.862554
C77	C	1.070237	0.866450	0.356958
C78	C	1.570237	1.366450	0.856958
N79	N	1.135047	0.834001	0.351335
N80	N	1.635047	1.334001	0.851335
N81	N	1.135017	0.771543	0.351321
N82	N	1.635017	1.271543	0.851321
C83	C	1.070179	0.739661	0.356928
C84	C	1.570179	1.239661	0.856928
C85	C	1.117676	0.970592	0.309671
C86	C	1.617676	1.470592	0.809671
C87	C	1.117713	1.036335	0.309696
C88	C	1.617713	1.536335	0.809696
C89	C	1.022930	1.036354	0.404326
C90	C	1.522930	1.536354	0.904326
C91	C	1.022900	0.970612	0.404304
C92	C	1.522900	1.470612	0.904304
C93	C	1.070273	0.937734	0.356973
C94	C	1.570273	1.437734	0.856973
C95	C	1.263329	0.303399	0.356934
C96	C	1.763329	0.803399	0.856934
C97	C	1.345643	0.303410	0.356951
C98	C	1.845643	0.803410	0.856951
C99	C	1.070210	0.303357	0.550057
C100	C	1.570210	0.803357	1.050057
C101	C	1.070228	0.303350	0.632371
C102	C	1.570228	0.803350	1.132371
C103	C	1.070285	1.139183	0.356957
C104	C	1.570285	1.639183	0.856957
C105	C	1.070337	1.069215	0.357016
C106	C	1.570337	1.569215	0.857016
C107	C	1.070167	0.303344	0.164484
C108	C	1.570167	0.803344	0.664484
C109	C	1.070292	0.303173	0.082171
C110	C	1.570292	0.803173	0.582171
C111	C	1.070271	0.303232	0.931462
C112	C	1.570271	0.803232	1.431462
C113	C	1.012806	0.351719	0.900111
C114	C	1.512806	0.851719	1.400111
C115	C	1.012962	0.351944	0.814493
C116	C	1.512962	0.851944	1.314493
C117	C	1.070249	0.303291	0.783080
C118	C	1.570249	0.803291	1.283080
C119	C	1.148275	0.321303	0.814185
C120	C	1.648275	0.821303	1.314185
C121	C	1.147955	0.321621	0.899830
C122	C	1.647955	0.821621	1.399830
C123	C	1.050389	0.236626	0.899889
C124	C	1.550389	0.736626	1.399889
C125	C	1.048653	0.237011	0.814238
C126	C	1.548653	0.737011	1.314238
C127	C	1.070241	0.303323	0.699220
C128	C	1.570241	0.803323	1.199220
C129	C	1.070284	0.303202	1.015322
C130	C	1.570284	0.803202	1.515322
H131	H	0.507103	0.205183	0.313201
H132	H	1.007103	0.705183	0.813201
H133	H	0.984127	0.543018	0.442727
H134	H	1.484127	1.043018	0.942727
H135	H	0.634332	0.205465	0.313106
H136	H	1.134332	0.705465	0.813106
H137	H	1.026088	0.401314	0.794008
H138	H	1.526088	0.901314	1.294008
C139	C	1.169331	1.071896	0.258378
C140	C	1.669331	1.571896	0.758378
C141	C	1.242567	1.055791	0.274590
C142	C	1.742567	1.555791	0.774590
C143	C	1.290153	1.088516	0.227325
C144	C	1.790153	1.588516	0.727325
H145	H	1.162703	1.115775	0.265096
H146	H	1.662703	1.615775	0.765096
H147	H	1.158567	1.061131	0.208595
H148	H	1.658567	1.561131	0.708595
H149	H	1.253328	1.066560	0.324361
H150	H	1.753328	1.566560	0.824361
H151	H	1.249218	1.011918	0.267867
H152	H	1.749218	1.511918	0.767867
H153	H	1.279389	1.077751	0.177542
H154	H	1.779389	1.577751	0.677542
H155	H	1.283519	1.132393	0.234047
H156	H	1.783519	1.632393	0.734047
H157	H	1.339849	1.077589	0.238313
H158	H	1.839849	1.577589	0.738313
H159	H	0.506125	0.265512	0.242225
H160	H	1.006125	0.765512	0.742225
H161	H	0.506393	0.239037	0.454709
H162	H	1.006393	0.739037	0.954709
C163	C	0.935757	0.336930	0.786587
C164	C	1.435757	0.836930	1.286587
C165	C	0.888550	0.327568	0.846842
C166	C	1.388550	0.827568	1.346842
C167	C	0.817419	0.313745	0.821169
C168	C	1.317419	0.813745	1.321169
H169	H	0.937239	0.299919	0.757349
H170	H	1.437239	0.799919	1.257349
H171	H	0.918041	0.370922	0.757545
H172	H	1.418041	0.870922	1.257545
H173	H	0.906262	0.293579	0.875872
H174	H	1.406262	0.793579	1.375872
H175	H	0.887046	0.364571	0.876086
H176	H	1.387046	0.864571	1.376086
H177	H	0.799702	0.347737	0.792126
H178	H	1.299702	0.847737	1.292126
H179	H	0.818909	0.276735	0.791930
H180	H	1.318909	0.776735	1.291930
H181	H	0.785379	0.307397	0.862047
H182	H	1.285379	0.807397	1.362047
H183	H	1.156252	0.943822	0.271133
H184	H	1.656252	1.443822	0.771133
C185	C	0.640808	0.419633	0.389000
C186	C	1.140808	0.919633	0.889000
C187	C	0.681016	0.465060	0.350162
C188	C	1.181016	0.965060	0.850162
C189	C	0.706069	0.511091	0.399363
C190	C	1.206069	1.011091	0.899363
H191	H	0.671629	0.400781	0.425249
H192	H	1.171629	0.900781	0.925249
H193	H	0.599701	0.438905	0.412463
H194	H	1.099701	0.938905	0.912463
H195	H	0.722117	0.445790	0.326711
H196	H	1.222117	0.945790	0.826711
H197	H	0.650210	0.483929	0.313916
H198	H	1.150210	0.983929	0.813916
H199	H	0.664962	0.530363	0.422826
H200	H	1.164962	1.030363	0.922826
H201	H	0.736887	0.492233	0.435610
H202	H	1.236887	0.992233	0.935610
H203	H	0.733346	0.541921	0.373018
H204	H	1.233346	1.041921	0.873018
C205	C	0.971614	1.072127	0.455747
C206	C	1.471614	1.572127	0.955747
C207	C	1.013536	1.109827	0.503254
C208	C	1.513536	1.609827	1.003254
C209	C	0.966290	1.142799	0.550631
C210	C	1.466290	1.642799	1.050631
H211	H	0.943362	1.043212	0.483988
H212	H	1.443362	1.543212	0.983988
H213	H	0.939385	1.097847	0.427415
H214	H	1.439385	1.597847	0.927415
H215	H	1.045751	1.084110	0.531583
H216	H	1.545751	1.584110	1.031583
H217	H	1.041786	1.138754	0.475033
H218	H	1.541786	1.638754	0.975033
H219	H	0.934061	1.168519	0.522299
H220	H	1.434061	1.668519	1.022299
H221	H	0.938041	1.113879	0.578867
H222	H	1.438041	1.613879	1.078867
H223	H	0.994727	1.168386	0.582866
H224	H	1.494727	1.668386	1.082866
H225	H	0.633746	0.265769	0.241644
H226	H	1.133746	0.765769	0.741644
C227	C	1.169099	0.671102	0.258262
C228	C	1.669099	1.171102	0.758262
C229	C	1.242364	0.655055	0.274425
C230	C	1.742364	1.155055	0.774425
C231	C	1.289884	0.687842	0.227153
C232	C	1.789884	1.187842	0.727153
H233	H	1.162421	0.714971	0.265009
H234	H	1.662421	1.214971	0.765009
H235	H	1.158321	0.660347	0.208479
H236	H	1.658321	1.160347	0.708479
H237	H	1.253138	0.665813	0.324197
H238	H	1.753138	1.165813	0.824197
H239	H	1.249065	0.611191	0.267674
H240	H	1.749065	1.111191	0.767674
H241	H	1.279106	0.677087	0.177370
H242	H	1.779106	1.177087	0.677370
H243	H	1.283200	0.731710	0.233903
H244	H	1.783200	1.231710	0.733903
H245	H	1.339599	0.676954	0.238108
H246	H	1.839599	1.176954	0.738108
H247	H	0.507960	0.383693	0.277852
H248	H	1.007960	0.883693	0.777852
H249	H	0.507250	0.407065	0.374829
H250	H	1.007250	0.907065	0.874829
C251	C	1.100286	0.186185	0.785781
C252	C	1.600286	0.686185	1.285781
C253	C	1.078983	0.128032	0.814902
C254	C	1.578983	0.628032	1.314902
C255	C	1.126529	0.081197	0.788696
C256	C	1.626529	0.581197	1.288696
H257	H	1.149451	0.195328	0.800644
H258	H	1.649451	0.695328	1.300644
H259	H	1.097813	0.184714	0.733382
H260	H	1.597813	0.684714	1.233382
H261	H	1.081463	0.129504	0.867289
H262	H	1.581463	0.629504	1.367289
H263	H	1.029826	0.118869	0.800042
H264	H	1.529826	0.618869	1.300042
H265	H	1.124057	0.079726	0.736297
H266	H	1.624057	0.579726	1.236297
H267	H	1.175692	0.090346	0.803560
H268	H	1.675692	0.590346	1.303560
H269	H	1.112078	0.041734	0.808445
H270	H	1.612078	0.541734	1.308445
H271	H	1.164810	0.370312	0.919811
H272	H	1.664810	0.870312	1.419811
H273	H	0.954773	0.340562	0.920697
H274	H	1.454773	0.840562	1.420697
H275	H	0.994481	0.220216	0.921475
H276	H	1.494481	0.720216	1.421475
C277	C	0.642034	0.389128	0.259938
C278	C	1.142034	0.889128	0.759938
C279	C	0.582174	0.398464	0.212163
C280	C	1.082174	0.898464	0.712163
C281	C	0.608329	0.416398	0.142502
C282	C	1.108329	0.916398	0.642502
H283	H	0.673060	0.357066	0.240745
H284	H	1.173060	0.857066	0.740745
H285	H	0.669347	0.427034	0.264283
H286	H	1.169347	0.927034	0.764283
H287	H	0.554873	0.360563	0.207816
H288	H	1.054873	0.860563	0.707816
H289	H	0.551142	0.430529	0.231332
H290	H	1.051142	0.930529	0.731332
H291	H	0.635642	0.454304	0.146847
H292	H	1.135642	0.954304	0.646847
H293	H	0.639355	0.384333	0.123316
H294	H	1.139355	0.884333	0.623316
H295	H	0.567718	0.422740	0.110080
H296	H	1.067718	0.922740	0.610080
H297	H	0.984302	0.943858	0.442822
H298	H	1.484302	1.443858	0.942822
H299	H	1.192221	0.287839	0.920571
H300	H	1.692221	0.787839	1.420571
H301	H	1.092243	0.200501	0.920166
H302	H	1.592243	0.700501	1.420166
H303	H	0.633960	0.236275	0.450973
H304	H	1.133960	0.736275	0.950973
H305	H	1.192240	0.287098	0.793840
H306	H	1.692240	0.787098	1.293840
H307	H	0.507710	0.322155	0.477745
H308	H	1.007710	0.822155	0.977745
C309	C	1.171184	0.385574	0.785748
C310	C	1.671184	0.885574	1.285748
C311	C	1.182183	0.426139	0.845602
C312	C	1.682183	0.926139	1.345602
C313	C	1.203292	0.485350	0.819437
C314	C	1.703292	0.985350	1.319437
H315	H	1.133464	0.401938	0.754725
H316	H	1.633464	0.901938	1.254725
H317	H	1.215775	0.381859	0.758429
H318	H	1.715775	0.881859	1.258429
H319	H	1.137598	0.429856	0.872909
H320	H	1.637598	0.929856	1.372909
H321	H	1.219906	0.409796	0.876630
H322	H	1.719906	0.909796	1.376630
H323	H	1.247883	0.481635	0.792119
H324	H	1.747883	0.981635	1.292119
H325	H	1.165569	0.501707	0.788414
H326	H	1.665569	1.001707	1.288414
H327	H	1.210763	0.512879	0.860044
H328	H	1.710763	1.012879	1.360044
H329	H	0.991233	0.223428	0.793906
H330	H	1.491233	0.723428	1.293906
H331	H	1.025803	0.400788	0.921635
H332	H	1.525803	0.900788	1.421635
H333	H	0.635022	0.318083	0.479589
H334	H	1.135022	0.818083	0.979589
C335	C	1.168892	0.534137	0.258067
C336	C	1.668892	1.034137	0.758067
C337	C	1.152830	0.550186	0.184783
C338	C	1.652830	1.050186	0.684783
C339	C	1.200171	0.517399	0.137324
C340	C	1.700171	1.017399	0.637324
H341	H	1.162139	0.490267	0.264730
H342	H	1.662139	0.990267	0.764730
H343	H	1.218659	0.544889	0.268917
H344	H	1.718659	1.044889	0.768917
H345	H	1.103075	0.539430	0.173937
H346	H	1.603075	1.039430	0.673937
H347	H	1.159588	0.594050	0.178097
H348	H	1.659588	1.094050	0.678097
H349	H	1.249938	0.528151	0.148173
H350	H	1.749938	1.028151	0.648173
H351	H	1.193414	0.473531	0.143992
H352	H	1.693414	0.973531	0.643992
H353	H	1.189284	0.528288	0.087596
H354	H	1.689284	1.028288	0.587596
C355	C	0.971343	0.671324	0.455514
C356	C	1.471343	1.171324	0.955514
C357	C	0.981497	0.735931	0.445388
C358	C	1.481497	1.235931	0.945388
C359	C	0.934146	0.768940	0.492624
C360	C	1.434146	1.268940	0.992624
H361	H	0.982101	0.660597	0.505311
H362	H	1.482101	1.160597	1.005311
H363	H	0.921571	0.660625	0.444616
H364	H	1.421571	1.160625	0.944616
H365	H	1.031258	0.746626	0.456291
H366	H	1.531258	1.246626	0.956291
H367	H	0.970733	0.746677	0.395601
H368	H	1.470733	1.246677	0.895601
H369	H	0.884373	0.758241	0.481726
H370	H	1.384373	1.258241	0.981726
H371	H	0.944908	0.758207	0.542418
H372	H	1.444908	1.258207	1.042418
H373	H	0.941024	0.812779	0.485756
H374	H	1.441024	1.312779	0.985756
