data_functionalizedCrystal
_audit_creation_method	'MofGen! by Chris Wilmer'
_symmetry_space_group_name_H-M	'P1'
_symmetry_Int_Tables_number	1
_symmetry_cell_setting	triclinic
loop_
_symmetry_equiv_pos_as_xyz
  x,y,z
_cell_length_a	12.759401
_cell_length_b	15.297510
_cell_length_c	12.759393
_cell_angle_alpha	80.356181
_cell_angle_beta	89.981504
_cell_angle_gamma	80.291655
loop_
_atom_site_label
_atom_site_type_symbol
_atom_site_fract_x
_atom_site_fract_y
_atom_site_fract_z
Zn1	Zn	1.533785	0.359102	-0.666313
Zn2	Zn	1.503228	0.509990	-0.521025
Zn3	Zn	1.358077	0.359150	-0.490662
Zn4	Zn	1.327639	0.509920	-0.696653
O5	O	1.430682	0.434541	-0.593663
O6	O	1.676751	0.379127	-0.647050
O7	O	1.483925	0.490029	-0.369986
O8	O	1.406912	0.232898	-0.488558
O9	O	1.654301	0.489984	-0.540308
O10	O	1.536003	0.232864	-0.617608
O11	O	1.377283	0.379208	-0.347678
O12	O	1.207020	0.379140	-0.517977
O13	O	1.355034	0.489865	-0.839639
O14	O	1.184657	0.489911	-0.669318
O15	O	1.506488	0.379060	-0.817349
O16	O	1.454410	0.636226	-0.569727
O17	O	1.325405	0.636174	-0.698760
C18	C	1.157718	0.434524	-0.593646
C19	C	1.040939	0.434539	-0.593667
C20	C	1.383317	0.668934	-0.640853
C21	C	1.363150	0.769208	-0.661077
C22	C	0.974441	0.492309	-0.672378
C23	C	0.864715	0.492321	-0.672392
C24	C	0.887994	0.376788	-0.514975
C25	C	0.997719	0.376773	-0.514966
C26	C	1.017661	0.550075	-0.751079
C27	C	0.951162	0.607851	-0.829795
C28	C	0.841436	0.607862	-0.829809
C29	C	0.798208	0.550098	-0.751106
C30	C	1.575199	1.051846	-0.449543
C31	C	1.594147	0.957633	-0.430537
C32	C	1.536400	0.910523	-0.488170
C33	C	1.459701	0.957634	-0.564813
C34	C	1.440746	1.051856	-0.583815
C35	C	1.401946	0.910532	-0.622442
C36	C	1.325247	0.957643	-0.699085
C37	C	1.306296	1.051856	-0.718084
C38	C	1.364044	1.098967	-0.660451
C39	C	1.420901	0.816310	-0.603440
C40	C	1.286448	0.816320	-0.737713
C41	C	1.267500	0.910532	-0.756719
C42	C	1.704712	0.434558	-0.593682
C43	C	1.821487	0.434565	-0.593689
C44	C	1.430774	0.434450	-0.867678
C45	C	1.430813	0.434411	-0.984447
C46	C	1.478251	1.199232	-0.546323
C47	C	1.498497	1.098957	-0.526178
C48	C	1.509686	0.376709	-1.027703
C49	C	1.509718	0.376676	-1.137421
C50	C	1.351999	0.492055	-1.160618
C51	C	1.351964	0.492083	-1.050902
C52	C	1.588535	0.319037	-0.961249
C53	C	1.667415	0.261331	-1.004504
C54	C	1.667447	0.261299	-1.114222
C55	C	1.588598	0.318972	-1.180684
C56	C	1.430664	0.434566	-0.320701
C57	C	1.430880	0.434351	-0.203881
H58	H	1.107004	0.550073	-0.751075
H59	H	0.986367	0.654875	-0.893877
H60	H	1.205051	0.948904	-0.819122
H61	H	1.588620	0.318930	-1.270020
H62	H	0.852788	0.329760	-0.450898
H63	H	1.731605	0.214371	-0.950382
C64	C	1.265284	0.555499	-1.233725
H65	H	1.276609	0.547225	-1.305265
H66	H	1.197355	0.542301	-1.213090
H67	H	1.268408	0.616121	-1.227934
H68	H	1.239423	0.777962	-0.784641
H69	H	1.622203	1.090213	-0.402619
H70	H	1.051865	0.329724	-0.450880
H71	H	1.731668	0.214306	-1.149435
H72	H	0.708862	0.550104	-0.751131
C73	C	1.557250	0.806891	-0.467273
H74	H	1.611206	0.785580	-0.413382
H75	H	1.493739	0.785629	-0.444768
H76	H	1.579694	0.785526	-0.530783
C77	C	1.678514	0.905818	-0.346244
H78	H	1.710199	0.947366	-0.314649
H79	H	1.645733	0.869121	-0.293032
H80	H	1.731678	0.869007	-0.379057
H81	H	1.348623	1.175683	-0.675924
H82	H	1.483349	0.777960	-0.541037
C83	C	1.265209	0.555552	-1.003311
H84	H	1.276477	0.547300	-0.928449
H85	H	1.268327	0.616165	-1.033479
H86	H	1.197294	0.542331	-1.018629
C87	C	0.768292	0.671404	-0.916398
H88	H	0.809751	0.705805	-0.963261
H89	H	0.732469	0.636945	-0.955307
H90	H	0.717541	0.710680	-0.884039
H91	H	1.243831	1.090211	-0.780480
H92	H	1.588520	0.319059	-0.871910
