data_functionalizedCrystal
_audit_creation_method	'MofGen! by Chris Wilmer'
_symmetry_space_group_name_H-M	'P1'
_symmetry_Int_Tables_number	1
_symmetry_cell_setting	triclinic
loop_
_symmetry_equiv_pos_as_xyz
  x,y,z
_cell_length_a	12.594517
_cell_length_b	12.594516
_cell_length_c	17.077396
_cell_angle_alpha	90.024821
_cell_angle_beta	90.012888
_cell_angle_gamma	90.011773
loop_
_atom_site_label
_atom_site_type_symbol
_atom_site_fract_x
_atom_site_fract_y
_atom_site_fract_z
Zn1	Zn	1.627283	-0.423743	0.443724
Zn2	Zn	1.960617	-0.090410	0.777058
Zn3	Zn	2.293950	0.242923	1.110391
Zn4	Zn	1.627192	-0.601744	0.312467
Zn5	Zn	1.960525	-0.268411	0.645800
Zn6	Zn	2.293858	0.064923	0.979133
Zn7	Zn	1.449292	-0.423780	0.312487
Zn8	Zn	1.782625	-0.090447	0.645821
Zn9	Zn	2.115958	0.242887	0.979154
Zn10	Zn	1.449283	-0.601680	0.443705
Zn11	Zn	1.782616	-0.268347	0.777039
Zn12	Zn	2.115949	0.064987	1.110372
O13	O	1.538262	-0.512737	0.378096
O14	O	1.871596	-0.179404	0.711429
O15	O	2.204929	0.153930	1.044763
O16	O	1.776217	-0.447367	0.426312
O17	O	2.109550	-0.114034	0.759645
O18	O	2.442884	0.219300	1.092978
O19	O	1.603558	-0.578179	0.202622
O20	O	1.936892	-0.244846	0.535956
O21	O	2.270225	0.088488	0.869289
O22	O	1.472945	-0.274829	0.329913
O23	O	1.806278	0.058504	0.663246
O24	O	2.139611	0.391837	0.996579
O25	O	1.776150	-0.578143	0.329877
O26	O	2.109483	-0.244810	0.663211
O27	O	2.442816	0.088523	0.996544
O28	O	1.603714	-0.274802	0.426332
O29	O	1.937048	0.058531	0.759665
O30	O	2.270381	0.391864	1.092999
O31	O	1.472856	-0.447429	0.202638
O32	O	1.806189	-0.114096	0.535971
O33	O	2.139523	0.219237	0.869304
O34	O	1.300345	-0.447367	0.329894
O35	O	1.633678	-0.114034	0.663228
O36	O	1.967011	0.219299	0.996561
O37	O	1.472929	-0.578034	0.553555
O38	O	1.806263	-0.244701	0.886888
O39	O	2.139596	0.088632	1.220221
O40	O	1.300338	-0.578070	0.426300
O41	O	1.633671	-0.244736	0.759633
O42	O	1.967005	0.088597	1.092966
O43	O	1.603706	-0.447305	0.553569
O44	O	1.937039	-0.113972	0.886902
O45	O	2.270372	0.219362	1.220235
O46	O	1.603550	-0.750681	0.329859
O47	O	1.936883	-0.417348	0.663192
O48	O	2.270216	-0.084015	0.996526
O49	O	1.472840	-0.750634	0.426280
O50	O	1.806174	-0.417301	0.759613
O51	O	2.139507	-0.083968	1.092946
C52	C	1.261721	-0.512716	0.378098
C53	C	1.595055	-0.179383	0.711431
C54	C	1.928388	0.153950	1.044764
C55	C	1.143416	-0.512733	0.378117
C56	C	1.476749	-0.179400	0.711450
C57	C	1.810083	0.153934	1.044784
C58	C	1.003426	-0.583951	0.430455
C59	C	1.336760	-0.250618	0.763788
C60	C	1.670093	0.082716	1.097121
C61	C	1.074201	-0.609853	0.358813
C62	C	1.407535	-0.276520	0.692147
C63	C	1.740868	0.056813	1.025480
C64	C	1.074213	-0.486878	0.449751
C65	C	1.407546	-0.153545	0.783084
C66	C	1.740879	0.179789	1.116417
C67	C	1.003405	-0.538720	0.306414
C68	C	1.336739	-0.205387	0.639748
C69	C	1.670072	0.127946	0.973081
C70	C	1.003410	-0.415700	0.397400
C71	C	1.336744	-0.082366	0.730733
C72	C	1.670077	0.250967	1.064067
C73	C	1.074153	-0.441565	0.325709
C74	C	1.407487	-0.108232	0.659043
C75	C	1.740820	0.225101	0.992376
C76	C	1.538213	-0.789278	0.378082
C77	C	1.871546	-0.455945	0.711416
C78	C	2.204880	-0.122611	1.044749
C79	C	1.538289	-0.907583	0.378103
C80	C	1.871623	-0.574250	0.711436
C81	C	2.204956	-0.240917	1.044769
C82	C	1.609464	-0.976823	0.325715
C83	C	1.942798	-0.643490	0.659049
C84	C	2.276131	-0.310157	0.992382
C85	C	1.635473	-1.047525	0.397360
C86	C	1.968806	-0.714192	0.730694
C87	C	2.302139	-0.380858	1.064027
C88	C	1.512414	-1.047680	0.306503
C89	C	1.845748	-0.714347	0.639837
C90	C	2.179081	-0.381014	0.973170
C91	C	1.564347	-0.976727	0.449785
C92	C	1.897680	-0.643393	0.783118
C93	C	2.231014	-0.310060	1.116452
C94	C	1.441244	-0.976876	0.358880
C95	C	1.774577	-0.643543	0.692213
C96	C	2.107910	-0.310209	1.025546
C97	C	1.467215	-1.047546	0.430574
C98	C	1.800548	-0.714212	0.763907
C99	C	2.133881	-0.380879	1.097241
C100	C	1.815883	-0.512758	0.378094
C101	C	2.149216	-0.179425	0.711428
C102	C	2.482550	0.153908	1.044761
C103	C	1.934189	-0.512767	0.378094
C104	C	2.267522	-0.179434	0.711427
C105	C	2.600855	0.153899	1.044760
C106	C	1.538327	-0.512658	0.582840
C107	C	1.871660	-0.179325	0.916174
C108	C	2.204993	0.154008	1.249507
C109	C	1.538354	-0.512625	0.670090
C110	C	1.871687	-0.179292	1.003423
C111	C	2.205021	0.154042	1.336757
C112	C	1.538341	-0.235116	0.378127
C113	C	1.871674	0.098217	0.711460
C114	C	2.205007	0.431551	1.044793
C115	C	1.538374	-0.116811	0.378140
C116	C	1.871708	0.216523	0.711473
C117	C	2.205041	0.549856	1.044807
C118	C	1.538259	-0.512738	0.174148
C119	C	1.871593	-0.179405	0.507481
C120	C	2.204926	0.153928	0.840815
C121	C	1.538438	-0.512472	0.086899
C122	C	1.871771	-0.179138	0.420232
C123	C	2.205105	0.154195	0.753565
C124	C	1.606452	-0.444549	0.711089
C125	C	1.939785	-0.111215	1.044422
C126	C	2.273119	0.222118	1.377755
C127	C	1.606465	-0.444513	0.793069
C128	C	1.939798	-0.111180	1.126403
C129	C	2.273131	0.222153	1.459736
C130	C	1.538384	-0.512560	0.834050
C131	C	1.871718	-0.179227	1.167383
C132	C	2.205051	0.154106	1.500716
C133	C	1.470279	-0.580640	0.793045
C134	C	1.803612	-0.247306	1.126378
C135	C	2.136946	0.086027	1.459712
C136	C	1.470262	-0.580669	0.711066
C137	C	1.803595	-0.247336	1.044399
C138	C	2.136928	0.085998	1.377733
C139	C	1.470322	-0.580576	0.963915
C140	C	1.803655	-0.247242	1.297249
C141	C	2.136989	0.086091	1.630582
C142	C	1.470340	-0.580548	1.045900
C143	C	1.803674	-0.247215	1.379233
C144	C	2.137007	0.086118	1.712567
C145	C	1.606525	-0.444420	1.045918
C146	C	1.939858	-0.111087	1.379252
C147	C	2.273192	0.222247	1.712585
C148	C	1.606508	-0.444449	0.963939
C149	C	1.939841	-0.111116	1.297273
C150	C	2.273174	0.222217	1.630606
C151	C	1.538403	-0.512530	0.922941
C152	C	1.871737	-0.179197	1.256274
C153	C	2.205070	0.154136	1.589607
H154	H	1.105295	-0.691927	0.342488
H155	H	1.438629	-0.358594	0.675821
H156	H	1.771962	-0.025261	1.009155
Cl157	Cl	1.762241	-1.095418	0.422510
Cl158	Cl	2.095574	-0.762085	0.755843
Cl159	Cl	2.428908	-0.428752	1.089177
H160	H	1.661976	-0.388984	1.079303
H161	H	1.995309	-0.055651	1.412637
H162	H	2.328643	0.277683	1.745970
Cl163	Cl	1.384741	-0.666083	1.097417
Cl164	Cl	1.718074	-0.332749	1.430751
Cl165	Cl	2.051407	0.000584	1.764084
H166	H	1.414848	-0.635998	0.930537
H167	H	1.748181	-0.302665	1.263870
H168	H	2.081514	0.030669	1.597203
Cl169	Cl	0.955594	-0.572656	0.212841
Cl170	Cl	1.288927	-0.239322	0.546175
Cl171	Cl	1.622260	0.094011	0.879508
H172	H	1.586186	-0.945693	0.510403
H173	H	1.919519	-0.612359	0.843737
H174	H	2.252853	-0.279026	1.177070
Cl175	Cl	1.121790	-0.348592	0.257286
Cl176	Cl	1.455124	-0.015259	0.590619
Cl177	Cl	1.788457	0.318074	0.923953
Cl178	Cl	1.692049	-0.359004	0.659579
Cl179	Cl	2.025383	-0.025670	0.992912
Cl180	Cl	2.358716	0.307663	1.326245
Cl181	Cl	1.374341	-1.095194	0.499073
Cl182	Cl	1.707675	-0.761861	0.832407
Cl183	Cl	2.041008	-0.428527	1.165740
H184	H	1.414843	-0.636041	0.826418
H185	H	1.748176	-0.302708	1.159751
H186	H	2.081510	0.030626	1.493085
H187	H	1.359161	-0.945817	0.342578
H188	H	1.692494	-0.612484	0.675912
H189	H	2.025828	-0.279151	1.009245
Cl190	Cl	0.955359	-0.289021	0.422637
Cl191	Cl	1.288692	0.044313	0.755970
Cl192	Cl	1.622026	0.377646	1.089303
Cl193	Cl	0.955474	-0.676980	0.498719
Cl194	Cl	1.288808	-0.343646	0.832052
Cl195	Cl	1.622141	-0.010313	1.165385
Cl196	Cl	1.122235	-0.453091	0.543294
Cl197	Cl	1.455569	-0.119757	0.876628
Cl198	Cl	1.788902	0.213576	1.209961
H199	H	1.661919	-0.389081	0.826447
H200	H	1.995253	-0.055748	1.159780
H201	H	2.328586	0.277586	1.493113
Cl202	Cl	1.702403	-0.928873	0.257377
Cl203	Cl	2.035737	-0.595540	0.590710
Cl204	Cl	2.369070	-0.262207	0.924044
Cl205	Cl	1.478570	-1.095800	0.212995
Cl206	Cl	1.811903	-0.762466	0.546329
Cl207	Cl	2.145236	-0.429133	0.879662
H208	H	1.661951	-0.389045	0.930575
H209	H	1.995284	-0.055712	1.263909
H210	H	2.328617	0.277622	1.597242
Cl211	Cl	1.384646	-0.666251	0.659525
Cl212	Cl	1.717979	-0.332918	0.992858
Cl213	Cl	2.051313	0.000415	1.326191
