data_functionalizedCrystal
_audit_creation_method	'MofGen! by Chris Wilmer'
_symmetry_space_group_name_H-M	'P1'
_symmetry_Int_Tables_number	1
_symmetry_cell_setting	triclinic
loop_
_symmetry_equiv_pos_as_xyz
  x,y,z
_cell_length_a	15.944551
_cell_length_b	14.519709
_cell_length_c	12.996460
_cell_angle_alpha	90.007090
_cell_angle_beta	89.990223
_cell_angle_gamma	96.410559
loop_
_atom_site_label
_atom_site_type_symbol
_atom_site_fract_x
_atom_site_fract_y
_atom_site_fract_z
O1	O	1.114698	-0.118943	-0.085669
O2	O	0.870170	-0.133608	-0.085649
O3	O	0.998917	0.007974	-0.085650
O4	O	0.985950	-0.260525	-0.085668
O5	O	0.998904	0.007982	0.085483
O6	O	0.870156	-0.133600	0.085484
O7	O	1.114684	-0.118935	0.085465
Cu8	Cu	0.992419	-0.126267	0.101100
Cu9	Cu	0.992435	-0.126276	-0.101285
O10	O	0.985937	-0.260517	0.085466
C11	C	0.838868	-0.132995	-0.000080
C12	C	0.745619	-0.131170	-0.000072
C13	C	0.998306	0.042337	-0.000083
C14	C	0.996495	0.144715	-0.000083
C15	C	1.145986	-0.119548	-0.000107
C16	C	1.239235	-0.121373	-0.000121
C17	C	1.454225	-0.213495	-0.000104
C18	C	1.515190	-0.170720	-0.084478
C19	C	1.409965	-0.124675	-0.000107
C20	C	1.515154	-0.170692	0.084246
C21	C	1.574883	-0.127871	-0.000088
C22	C	1.469702	-0.081876	-0.084551
C23	C	1.469660	-0.081860	0.084250
C24	C	1.530607	-0.039021	-0.000145
C25	C	1.314960	-0.122836	-0.000118
C26	C	1.669886	-0.129702	-0.000084
C27	C	0.986548	-0.294880	-0.000104
C28	C	0.988359	-0.397258	-0.000111
N29	N	0.992414	-0.126260	0.243448
C30	C	0.989829	0.519599	-0.000109
C31	C	0.991680	0.415295	-0.000101
C32	C	0.993162	0.332160	-0.000095
C33	C	0.995013	0.227849	-0.000089
N34	N	0.992447	-0.126276	-0.243632
C35	C	0.992434	-0.126277	0.663262
C36	C	0.992426	-0.126275	0.546457
C37	C	0.992424	-0.126269	0.453358
C38	C	0.992415	-0.126266	0.336546
H39	H	1.535364	-0.208293	-0.155813
H40	H	1.535288	-0.208271	0.155578
O41	O	1.414513	-0.301400	-0.000341
C42	C	1.363123	-0.314746	-0.088547
H43	H	1.346810	-0.244817	-0.117530
H44	H	1.398410	-0.349679	-0.151171
C45	C	1.301394	-0.462484	-0.025556
C46	C	1.281351	-0.376597	-0.061149
H47	H	1.250955	-0.500640	-0.008658
H48	H	1.336018	-0.453495	0.033868
H49	H	1.330801	-0.491583	-0.077748
H50	H	1.251955	-0.347495	-0.008952
H51	H	1.246720	-0.385583	-0.120564
H52	H	1.449664	-0.044346	-0.155965
H53	H	1.563653	0.034770	-0.000183
O54	O	1.445586	-0.037211	0.169461
C55	C	1.468499	-0.084263	0.258251
H56	H	1.475375	-0.159452	0.238031
H57	H	1.531085	-0.049381	0.289041
C58	C	1.391251	0.011133	0.365797
C59	C	1.399689	-0.081217	0.340964
H60	H	1.348808	0.013015	0.416821
H61	H	1.375816	0.042836	0.305978
H62	H	1.443411	0.040191	0.391449
H63	H	1.347533	-0.110270	0.315301
H64	H	1.415114	-0.112925	0.400781
