data_functionalizedCrystal
_audit_creation_method	'MofGen! by Chris Wilmer'
_symmetry_space_group_name_H-M	'P1'
_symmetry_Int_Tables_number	1
_symmetry_cell_setting	triclinic
loop_
_symmetry_equiv_pos_as_xyz
  x,y,z
_cell_length_a	18.215407
_cell_length_b	12.759394
_cell_length_c	18.215399
_cell_angle_alpha	90.025276
_cell_angle_beta	90.019833
_cell_angle_gamma	90.015285
loop_
_atom_site_label
_atom_site_type_symbol
_atom_site_fract_x
_atom_site_fract_y
_atom_site_fract_z
Zn1	Zn	1.125123	-0.418265	0.416130
Zn2	Zn	1.125053	-0.593962	0.293069
Zn3	Zn	1.002056	-0.418299	0.293077
Zn4	Zn	1.002043	-0.593904	0.416094
O5	O	1.063569	-0.506107	0.354592
O6	O	1.228098	-0.441581	0.399817
O7	O	1.108713	-0.570699	0.190086
O8	O	1.018416	-0.271273	0.309418
O9	O	1.228047	-0.570666	0.309405
O10	O	1.108833	-0.271248	0.399825
O11	O	1.018348	-0.441640	0.190092
O12	O	0.899070	-0.441583	0.309384
O13	O	1.018394	-0.570566	0.519083
O14	O	0.899061	-0.570599	0.399764
O15	O	1.108821	-0.441525	0.519109
O16	O	1.108701	-0.740975	0.309370
O17	O	1.018326	-0.740933	0.399756
C18	C	0.872363	-0.506089	0.354571
C19	C	0.790564	-0.506107	0.354580
C20	C	0.602384	-0.573391	0.401582
C21	C	0.525526	-0.573395	0.401591
C22	C	0.525506	-0.438843	0.307619
C23	C	0.602363	-0.438835	0.307614
C24	C	0.640800	-0.506115	0.354594
C25	C	0.487084	-0.506126	0.354608
C26	C	0.403751	-0.506129	0.354618
C27	C	0.724139	-0.506111	0.354586
C28	C	1.063525	-0.779075	0.354575
C29	C	1.063573	-0.895852	0.354592
C30	C	1.157751	-0.895843	0.260543
C31	C	1.204859	-0.950699	0.213528
C32	C	1.204903	-1.060421	0.213548
C33	C	1.157834	-1.115289	0.260590
C34	C	1.110726	-1.060432	0.307605
C35	C	1.110686	-0.950708	0.307579
C36	C	1.016553	-1.060441	0.401656
C37	C	1.016505	-0.950719	0.401634
C38	C	0.969484	-1.115308	0.448698
C39	C	0.922371	-1.060452	0.495711
C40	C	0.922329	-0.950724	0.495689
C41	C	0.969397	-0.895863	0.448649
C42	C	1.255522	-0.506126	0.354614
C43	C	1.337321	-0.506134	0.354623
C44	C	1.063614	-0.506035	0.546545
C45	C	1.063633	-0.506004	0.628344
C46	C	1.063633	-0.232074	0.354626
C47	C	1.063661	-0.115297	0.354641
C48	C	1.063567	-0.506104	0.163386
C49	C	1.063690	-0.505839	0.081588
C50	C	1.110735	-0.438750	0.816553
C51	C	1.110744	-0.438719	0.893412
C52	C	1.016583	-0.573096	0.893373
C53	C	1.016571	-0.573121	0.816516
C54	C	1.063651	-0.505949	0.778108
C55	C	1.063672	-0.505894	0.931824
C56	C	1.063681	-0.505861	1.015158
C57	C	1.063641	-0.505980	0.694769
H58	H	1.157711	-0.806502	0.260513
H59	H	0.494201	-0.384067	0.269369
H60	H	0.884055	-1.105134	0.534013
O61	O	0.488322	-0.638848	0.447256
C62	C	0.496458	-0.772262	0.540491
C63	C	0.538681	-0.698206	0.488797
H64	H	0.537155	-0.820257	0.574102
H65	H	0.460472	-0.827209	0.506677
H66	H	0.460481	-0.724083	0.579003
H67	H	0.574699	-0.746301	0.450276
H68	H	0.574622	-0.643256	0.522657
O69	O	0.639718	-0.373369	0.262072
C70	C	0.726545	-0.231543	0.252337
C71	C	0.684274	-0.305599	0.303991
H72	H	0.762590	-0.176747	0.286207
H73	H	0.685906	-0.183386	0.218768
H74	H	0.762474	-0.279730	0.213784
H75	H	0.648344	-0.257493	0.342588
H76	H	0.724953	-0.353759	0.337508
O77	O	1.250472	-0.897352	0.167753
C78	C	1.260369	-0.773516	0.068407
C79	C	1.208629	-0.833880	0.120186
H80	H	1.226560	-0.722168	0.029946
H81	H	1.294033	-0.831521	0.034753
H82	H	1.298828	-0.722112	0.102230
H83	H	1.170125	-0.885286	0.086419
H84	H	1.175016	-0.775818	0.153842
O85	O	0.970925	-0.638315	0.930798
C86	C	0.929181	-0.697789	1.049184
C87	C	0.980938	-0.623890	1.006894
H88	H	0.937248	-0.686137	1.110715
H89	H	0.942085	-0.782534	1.034116
H90	H	0.869849	-0.679352	1.034020
H91	H	1.040287	-0.642233	1.022035
H92	H	0.967971	-0.539167	1.021966
O93	O	0.970935	-0.638455	0.779084
C94	C	0.960995	-0.780364	0.692314
C95	C	1.012760	-0.706431	0.734647
H96	H	0.994791	-0.835355	0.656388
H97	H	0.922532	-0.732192	0.656282
H98	H	0.927336	-0.828327	0.732979
H99	H	1.046467	-0.658452	0.694034
H100	H	1.051174	-0.754663	0.770689
H101	H	1.243266	-1.105085	0.175267
H102	H	0.633678	-0.628173	0.439838
H103	H	1.157880	-1.204630	0.260608
H104	H	0.969526	-1.204649	0.448714
O105	O	1.156552	-0.373410	0.930644
C106	C	1.249916	-0.240089	0.922566
C107	C	1.198087	-0.314019	0.880310
H108	H	1.283500	-0.192036	0.881890
H109	H	1.288440	-0.288263	0.958530
H110	H	1.216135	-0.185181	0.958568
H111	H	1.231809	-0.368941	0.844268
H112	H	1.159561	-0.265779	0.844392
H113	H	0.883971	-0.906065	0.533977
H114	H	0.969362	-0.806522	0.448621
H115	H	1.149068	-0.384051	0.785283
