data_functionalizedCrystal
_audit_creation_method	'MofGen! by Chris Wilmer'
_symmetry_space_group_name_H-M	'P1'
_symmetry_Int_Tables_number	1
_symmetry_cell_setting	triclinic
loop_
_symmetry_equiv_pos_as_xyz
  x,y,z
_cell_length_a	12.827893
_cell_length_b	21.295417
_cell_length_c	12.827885
_cell_angle_alpha	90.037053
_cell_angle_beta	90.019272
_cell_angle_gamma	90.029863
loop_
_atom_site_label
_atom_site_type_symbol
_atom_site_fract_x
_atom_site_fract_y
_atom_site_fract_z
Zn1	Zn	1.597566	-0.250576	0.590796
Zn2	Zn	1.597416	-0.355858	0.416034
Zn3	Zn	1.422807	-0.250607	0.416070
Zn4	Zn	1.422749	-0.355812	0.590734
O5	O	1.510134	-0.303213	0.503408
O6	O	1.743782	-0.264548	0.567624
O7	O	1.574216	-0.341929	0.269803
O8	O	1.446076	-0.162514	0.439288
O9	O	1.743672	-0.341899	0.439228
O10	O	1.574471	-0.162491	0.567659
O11	O	1.445931	-0.264601	0.269829
O12	O	1.276563	-0.264556	0.439228
O13	O	1.445977	-0.341819	0.736978
O14	O	1.276520	-0.341850	0.567553
O15	O	1.574414	-0.264503	0.737024
O16	O	1.574159	-0.443941	0.439168
O17	O	1.445832	-0.443907	0.567519
C18	C	1.238625	-0.303202	0.503388
C19	C	1.122471	-0.303212	0.503405
C20	C	1.070741	-0.265004	0.567039
C21	C	0.950690	-0.265014	0.567057
C22	C	1.510001	-0.466765	0.503355
C23	C	1.510040	-0.536733	0.503368
C24	C	1.576857	-0.569531	0.570258
C25	C	1.576893	-0.635273	0.570284
C26	C	1.510125	-0.668215	0.503401
C27	C	1.443295	-0.635410	0.436506
C28	C	1.443253	-0.569669	0.436489
N29	N	1.502229	-0.771484	0.411945
N30	N	1.502275	-0.833935	0.411964
C31	C	1.510247	-0.866290	0.503448
N32	N	1.518191	-0.833834	0.594915
N33	N	1.518150	-0.771377	0.594895
C34	C	1.510163	-0.739501	0.503412
C35	C	1.577107	-0.970373	0.570372
C36	C	1.577136	-1.036117	0.570399
C37	C	1.443543	-1.036252	0.436612
C38	C	1.443508	-0.970510	0.436594
C39	C	1.510296	-0.937574	0.503472
C40	C	1.782704	-0.303225	0.503429
C41	C	1.898858	-0.303230	0.503438
C42	C	1.510206	-0.303153	0.775979
C43	C	1.510236	-0.303127	0.892132
C44	C	1.510297	-0.139023	0.503484
C45	C	1.510366	-0.069055	0.503517
C46	C	1.510124	-0.303228	0.231898
C47	C	1.510296	-0.303076	0.115746
C48	C	1.573798	-0.264861	0.943939
C49	C	1.573830	-0.264834	1.063990
H50	H	0.943338	-0.335946	0.448961
F51	F	1.372480	-1.071308	0.365432
F52	F	1.439132	-0.345920	0.950321
F53	F	0.892546	-0.222260	0.638273
H54	H	1.077883	-0.335928	0.448937
H55	H	1.115329	-0.232284	0.621500
F56	F	1.644966	-0.222014	1.122220
F57	F	1.648245	-1.071022	0.641608
H58	H	1.455879	-0.335841	1.071200
F59	F	1.647933	-0.534482	0.641442
H60	H	1.631295	-0.661982	0.624766
H61	H	1.628187	-0.232118	0.899416
F62	F	1.372133	-0.534762	0.365293
F63	F	1.648183	-0.935318	0.641552
F64	F	1.372230	-0.670470	0.365329
H65	H	1.389104	-0.943804	0.382121
