data_functionalizedCrystal
_audit_creation_method	'MofGen! by Chris Wilmer'
_symmetry_space_group_name_H-M	'P1'
_symmetry_Int_Tables_number	1
_symmetry_cell_setting	triclinic
loop_
_symmetry_equiv_pos_as_xyz
  x,y,z
_cell_length_a	10.967874
_cell_length_b	14.519709
_cell_length_c	9.483290
_cell_angle_alpha	79.597082
_cell_angle_beta	91.580135
_cell_angle_gamma	84.205827
loop_
_atom_site_label
_atom_site_type_symbol
_atom_site_fract_x
_atom_site_fract_y
_atom_site_fract_z
O1	O	1.581277	0.074045	0.517006
O2	O	2.081277	0.574045	1.017006
O3	O	1.230697	0.095820	0.429187
O4	O	1.730697	0.595820	0.929187
O5	O	1.415284	-0.049505	0.475412
O6	O	1.915284	0.450495	0.975412
O7	O	1.396690	0.219369	0.470781
O8	O	1.896690	0.719369	0.970781
O9	O	1.448991	-0.024548	0.242083
O10	O	1.948991	0.475452	0.742083
O11	O	1.264404	0.120777	0.195858
O12	O	1.764404	0.620777	0.695858
O13	O	1.614985	0.099002	0.283676
O14	O	2.114985	0.599002	0.783676
Cu15	Cu	1.442772	0.112168	0.218462
Cu16	Cu	1.942772	0.612168	0.718462
Cu17	Cu	1.402909	0.082654	0.494402
Cu18	Cu	1.902909	0.582654	0.994402
O19	O	1.430397	0.244326	0.237451
O20	O	1.930397	0.744326	0.737451
C21	C	1.431271	-0.071367	0.358530
C22	C	1.931271	0.428633	0.858530
C23	C	1.428675	-0.173693	0.357879
C24	C	1.928675	0.326307	0.857879
C25	C	1.202683	0.108599	0.301283
C26	C	1.702683	0.608599	0.801283
C27	C	1.068992	0.109486	0.267794
C28	C	1.568992	0.609486	0.767794
C29	C	0.991928	0.096953	0.373735
C30	C	1.491928	0.596953	0.873735
C31	C	0.853751	0.097869	0.339125
C32	C	1.353751	0.597869	0.839125
C33	C	1.419112	-0.548387	0.355522
C34	C	1.919112	-0.048387	0.855522
C35	C	1.421768	-0.444135	0.356176
C36	C	1.921768	0.055865	0.856176
C37	C	1.423893	-0.361043	0.356699
C38	C	1.923893	0.138957	0.856699
C39	C	1.426549	-0.256785	0.357356
C40	C	1.926549	0.243215	0.857356
C41	C	1.642998	0.086222	0.411583
C42	C	2.142998	0.586222	0.911583
C43	C	1.776687	0.085334	0.445082
C44	C	2.276687	0.585334	0.945082
C45	C	1.414410	0.266189	0.354337
C46	C	1.914410	0.766189	0.854337
C47	C	1.417004	0.368513	0.354997
C48	C	1.917004	0.868513	0.854997
N49	N	1.470818	0.132926	0.024384
N50	N	1.970818	0.632926	0.524384
C51	C	1.411167	0.088772	-0.062792
C52	C	1.911167	0.588772	0.437208
C53	C	1.434532	0.106049	-0.224343
C54	C	1.934532	0.606049	0.275657
N55	N	1.374872	0.061888	0.688483
N56	N	1.874872	0.561888	1.188483
H57	H	1.028245	0.085550	0.490058
H58	H	1.528245	0.585550	0.990058
H59	H	1.502897	0.156649	-0.269305
H60	H	2.002897	0.656649	0.230695
H61	H	1.306494	0.011298	-0.266561
H62	H	1.806494	0.511298	0.233439
O63	O	0.819783	0.071750	0.583945
O64	O	1.319783	0.571750	1.083945
C65	C	0.721302	0.060248	0.675727
C66	C	1.221302	0.560248	1.175727
H67	H	0.632163	0.094094	0.614903
H68	H	1.132163	0.594094	1.114903
H69	H	0.737299	0.095393	0.771862
H70	H	1.237299	0.595393	1.271862
H71	H	0.714809	-0.018041	0.714633
H72	H	1.214809	0.481959	1.214633
H73	H	0.817438	0.109283	0.222795
H74	H	1.317438	0.609283	0.722795
O75	O	1.025649	0.122926	0.129047
O76	O	1.525649	0.622926	0.629047
C77	C	0.967503	0.044128	0.106721
C78	C	1.467503	0.544128	0.606721
H79	H	1.004430	-0.019817	0.190700
H80	H	1.504430	0.480183	0.690700
H81	H	0.986726	0.029283	-0.005028
H82	H	1.486726	0.529283	0.494972
H83	H	0.864338	0.059198	0.116434
H84	H	1.364338	0.559198	0.616434
H85	H	1.342796	0.038183	-0.017826
H86	H	1.842796	0.538183	0.482174
O87	O	1.552531	0.193148	-0.029274
O88	O	2.052531	0.693148	0.470726
C89	C	1.646606	0.144178	-0.093764
C90	C	2.146606	0.644178	0.406236
H91	H	1.652735	0.065822	-0.046276
H92	H	2.152735	0.565822	0.453724
H93	H	1.737772	0.171835	-0.072781
H94	H	2.237772	0.671835	0.427219
H95	H	1.625384	0.155278	-0.214381
H96	H	2.125384	0.655278	0.285619
