data_functionalizedCrystal
_audit_creation_method	'MofGen! by Chris Wilmer'
_symmetry_space_group_name_H-M	'P1'
_symmetry_Int_Tables_number	1
_symmetry_cell_setting	triclinic
loop_
_symmetry_equiv_pos_as_xyz
  x,y,z
_cell_length_a	13.897449
_cell_length_b	18.101397
_cell_length_c	13.897441
_cell_angle_alpha	90.034904
_cell_angle_beta	90.020733
_cell_angle_gamma	90.021745
loop_
_atom_site_label
_atom_site_type_symbol
_atom_site_fract_x
_atom_site_fract_y
_atom_site_fract_z
Zn1	Zn	1.474684	-0.294781	0.545352
Zn2	Zn	1.974684	0.205219	1.045352
Zn3	Zn	1.474570	-0.418636	0.384042
Zn4	Zn	1.974570	0.081364	0.884042
Zn5	Zn	1.313373	-0.294816	0.384071
Zn6	Zn	1.813373	0.205184	0.884071
Zn7	Zn	1.313347	-0.418588	0.545294
Zn8	Zn	1.813347	0.081412	1.045294
O9	O	1.393994	-0.356705	0.464690
O10	O	1.893994	0.143295	0.964690
O11	O	1.609651	-0.311216	0.523966
O12	O	2.109651	0.188784	1.023966
O13	O	1.453150	-0.402246	0.249064
O14	O	1.953150	0.097754	0.749064
O15	O	1.334830	-0.191178	0.405502
O16	O	1.834830	0.308822	0.905502
O17	O	1.609567	-0.402212	0.405452
O18	O	2.109567	0.097788	0.905452
O19	O	1.453344	-0.191152	0.523994
O20	O	1.953344	0.308848	1.023994
O21	O	1.334720	-0.311276	0.249085
O22	O	1.834720	0.188724	0.749085
O23	O	1.178388	-0.311229	0.405445
O24	O	1.678388	0.188771	0.905445
O25	O	1.334785	-0.402129	0.680284
O26	O	1.834785	0.097871	1.180284
O27	O	1.178369	-0.402163	0.523895
O28	O	1.678369	0.097837	1.023895
O29	O	1.453319	-0.311169	0.680326
O30	O	1.953319	0.188831	1.180326
O31	O	1.453125	-0.522263	0.405396
O32	O	1.953125	-0.022263	0.905396
O33	O	1.334675	-0.522227	0.523867
O34	O	1.834675	-0.022227	1.023867
C35	C	1.143379	-0.356695	0.464668
C36	C	1.643379	0.143305	0.964668
C37	C	1.036165	-0.356709	0.464681
C38	C	1.536165	0.143291	0.964681
C39	C	0.839870	-0.356711	0.464706
C40	C	1.339870	0.143289	0.964706
C41	C	0.949103	-0.356708	0.464690
C42	C	1.449103	0.143292	0.964690
C43	C	1.393911	-0.549116	0.464643
C44	C	1.893911	-0.049116	0.964643
C45	C	1.393964	-0.631430	0.464655
C46	C	1.893964	-0.131430	0.964655
C47	C	1.394087	-0.930521	0.464743
C48	C	1.894087	-0.430521	0.964743
C49	C	1.468405	-0.899187	0.390004
C50	C	1.968405	-0.399187	0.890004
C51	C	1.468662	-0.813569	0.390198
C52	C	1.968662	-0.313569	0.890198
C53	C	1.394026	-0.782138	0.464699
C54	C	1.894026	-0.282138	0.964699
C55	C	1.421587	-0.813139	0.566372
C56	C	1.921587	-0.313139	1.066372
C57	C	1.422162	-0.898784	0.565965
C58	C	1.922162	-0.398784	1.065965
C59	C	1.292011	-0.899033	0.438689
C60	C	1.792011	-0.399033	0.938689
C61	C	1.292515	-0.813384	0.436419
C62	C	1.792515	-0.313384	0.936419
C63	C	1.393990	-0.698279	0.464680
C64	C	1.893990	-0.198279	0.964680
C65	C	1.394126	-1.014380	0.464769
C66	C	1.894126	-0.514380	0.964769
C67	C	1.645587	-0.356716	0.464712
C68	C	2.145587	0.143284	0.964712
C69	C	1.752800	-0.356720	0.464722
C70	C	2.252800	0.143280	0.964722
C71	C	1.394062	-0.356640	0.716283
C72	C	1.894062	0.143360	1.216283
C73	C	1.394091	-0.356612	0.823497
C74	C	1.894091	0.143388	1.323497
C75	C	1.394103	-0.163543	0.464758
C76	C	1.894103	0.336457	0.964758
C77	C	1.394149	-0.081229	0.464787
C78	C	1.894149	0.418771	0.964787
C79	C	1.393981	-0.356717	0.214075
C80	C	1.893981	0.143283	0.714075
C81	C	1.394139	-0.356536	0.106862
C82	C	1.894139	0.143464	0.606862
C83	C	1.394117	-0.356562	1.019792
C84	C	1.894117	0.143438	1.519792
C85	C	1.394100	-0.356592	0.910560
C86	C	1.894100	0.143408	1.410560
H87	H	1.451419	-0.792612	0.314809
H88	H	1.951419	-0.292612	0.814809
H89	H	1.234164	-0.791996	0.486869
H90	H	1.734164	-0.291996	0.986869
C91	C	1.445401	-0.927089	0.287850
C92	C	1.945401	-0.427089	0.787850
N93	N	1.428072	-0.948108	0.210905
N94	N	1.928072	-0.448108	0.710905
H95	H	1.543604	-0.920653	0.407045
H96	H	2.043604	-0.420653	0.907045
C97	C	1.217204	-0.926412	0.512224
C98	C	1.717204	-0.426412	1.012224
N99	N	1.160867	-0.947037	0.567614
N100	N	1.660867	-0.447037	1.067614
H101	H	1.544275	-0.793023	0.407437
H102	H	2.044275	-0.293023	0.907437
H103	H	1.496775	-0.918700	0.588035
H104	H	1.996775	-0.418700	1.088035
H105	H	1.370404	-0.919508	0.623570
H106	H	1.870404	-0.419508	1.123570
H107	H	1.369113	-0.792777	0.623556
H108	H	1.869113	-0.292777	1.123556
H109	H	1.266939	-0.920698	0.365834
H110	H	1.766939	-0.420698	0.865834
H111	H	1.271733	-0.793130	0.361596
H112	H	1.771733	-0.293130	0.861596
H113	H	1.495365	-0.791629	0.588815
H114	H	1.995365	-0.291629	1.088815
