data_functionalizedCrystal
_audit_creation_method	'MofGen! by Chris Wilmer'
_symmetry_space_group_name_H-M	'P1'
_symmetry_Int_Tables_number	1
_symmetry_cell_setting	triclinic
loop_
_symmetry_equiv_pos_as_xyz
  x,y,z
_cell_length_a	19.121275
_cell_length_b	25.639240
_cell_length_c	19.120904
_cell_angle_alpha	87.592153
_cell_angle_beta	94.963872
_cell_angle_gamma	92.395078
loop_
_atom_site_label
_atom_site_type_symbol
_atom_site_fract_x
_atom_site_fract_y
_atom_site_fract_z
Zn1	Zn	1.058547	0.252940	-0.351898
Zn2	Zn	1.391880	0.586273	-0.018565
Zn3	Zn	1.725213	0.919607	0.314768
Zn4	Zn	1.063449	0.336793	-0.234233
Zn5	Zn	1.396782	0.670127	0.099100
Zn6	Zn	1.730116	1.003460	0.432433
Zn7	Zn	0.945914	0.245803	-0.239273
Zn8	Zn	1.279247	0.579136	0.094060
Zn9	Zn	1.612580	0.912469	0.427393
Zn10	Zn	0.940819	0.336767	-0.356877
Zn11	Zn	1.274153	0.670101	-0.023544
Zn12	Zn	1.607486	1.003434	0.309790
O13	O	1.002182	0.293076	-0.295570
O14	O	1.335516	0.626409	0.037763
O15	O	1.668849	0.959743	0.371096
O16	O	1.157655	0.267061	-0.332097
O17	O	1.490989	0.600395	0.001237
O18	O	1.824322	0.933728	0.334570
O19	O	1.052041	0.321747	-0.136441
O20	O	1.385374	0.655080	0.196892
O21	O	1.718708	0.988414	0.530226
O22	O	0.960935	0.173588	-0.254239
O23	O	1.294269	0.506921	0.079094
O24	O	1.627602	0.840254	0.412428
O25	O	1.161257	0.328668	-0.245649
O26	O	1.494590	0.662001	0.087685
O27	O	1.827924	0.995335	0.421018
O28	O	1.043686	0.178832	-0.336984
O29	O	1.377020	0.512165	-0.003651
O30	O	1.710353	0.845498	0.329683
O31	O	0.965689	0.254897	-0.140144
O32	O	1.299022	0.588230	0.193189
O33	O	1.632355	0.921563	0.526523
O34	O	0.846780	0.254871	-0.259067
O35	O	1.180113	0.588205	0.074267
O36	O	1.513446	0.921538	0.407600
O37	O	0.952253	0.328624	-0.454677
O38	O	1.285586	0.661957	-0.121344
O39	O	1.618919	0.995290	0.211989
O40	O	0.843037	0.321703	-0.345469
O41	O	1.176370	0.655036	-0.012136
O42	O	1.509704	0.988369	0.321197
O43	O	1.038746	0.267036	-0.451019
O44	O	1.372080	0.600370	-0.117686
O45	O	1.705413	0.933703	0.215647
O46	O	1.047101	0.409952	-0.250476
O47	O	1.380435	0.743285	0.082857
O48	O	1.713768	1.076618	0.416190
O49	O	0.957006	0.409933	-0.340582
O50	O	1.290339	0.743266	-0.007249
O51	O	1.623673	1.076599	0.326084
C52	C	0.819379	0.287510	-0.303356
C53	C	1.152712	0.620844	0.029978
C54	C	1.486046	0.954177	0.363311
C55	C	0.741174	0.285142	-0.306703
C56	C	1.074508	0.618476	0.026631
C57	C	1.407841	0.951809	0.359964
C58	C	0.706309	0.316049	-0.263200
C59	C	1.039642	0.649382	0.070134
C60	C	1.372975	0.982715	0.403467
C61	C	0.632827	0.313824	-0.266354
C62	C	0.966160	0.647157	0.066979
C63	C	1.299493	0.980491	0.400313
C64	C	0.594212	0.280690	-0.313008
C65	C	0.927545	0.614024	0.020325
C66	C	1.260879	0.947357	0.353658
C67	C	0.629082	0.249783	-0.356516
C68	C	0.962416	0.583116	-0.023183
C69	C	1.295749	0.916449	0.310150
C70	C	0.702563	0.252010	-0.353365
C71	C	1.035896	0.585344	-0.020032
C72	C	1.369230	0.918677	0.313302
C73	C	0.372254	0.272365	-0.324782
C74	C	0.705587	0.605698	0.008552
C75	C	1.038921	0.939032	0.341885
C76	C	0.298769	0.270139	-0.327928
C77	C	0.632102	0.603472	0.005405
C78	C	0.965435	0.936805	0.338739
C79	C	0.302518	0.334181	-0.237766
C80	C	0.635851	0.667514	0.095567
C81	C	0.969185	1.000848	0.428901
C82	C	0.376000	0.336403	-0.234616
C83	C	0.709333	0.669737	0.098717
C84	C	1.042667	1.003070	0.432051
C85	C	0.410864	0.305498	-0.278127
C86	C	0.744197	0.638831	0.055207
C87	C	1.077531	0.972165	0.388540
C88	C	0.519101	0.278414	-0.316232
C89	C	0.852435	0.611748	0.017101
C90	C	1.185768	0.945081	0.350435
C91	C	0.485973	0.307777	-0.274906
C92	C	0.819306	0.641110	0.058427
C93	C	1.152640	0.974443	0.391761
C94	C	1.002051	0.428913	-0.295537
C95	C	1.335385	0.762247	0.037796
C96	C	1.668718	1.095580	0.371129
C97	C	1.002059	0.487028	-0.295544
C98	C	1.335392	0.820361	0.037790
C99	C	1.668725	1.153694	0.371123
C100	C	1.049152	0.847396	-0.248700
C101	C	1.382485	1.180730	0.084634
C102	C	1.715819	1.514063	0.417967
C103	C	1.049173	0.902001	-0.248705
C104	C	1.382506	1.235335	0.084628
C105	C	1.715840	1.568668	0.417961
O106	O	1.089121	0.930239	-0.208859
O107	O	1.422454	1.263573	0.124475
O108	O	1.755788	1.596906	0.457808
N109	N	1.002238	0.929317	-0.295584
N110	N	1.335572	1.262650	0.037750
N111	N	1.668905	1.595984	0.371083
C112	C	0.955284	0.902025	-0.342464
C113	C	1.288617	1.235359	-0.009131
C114	C	1.621951	1.568692	0.324203
O115	O	0.915365	0.930274	-0.382339
O116	O	1.248698	1.263607	-0.049005
O117	O	1.582031	1.596940	0.284328
C118	C	0.955267	0.847421	-0.342461
C119	C	1.288600	1.180755	-0.009128
C120	C	1.621933	1.514088	0.324206
C121	C	1.002200	0.820108	-0.295575
C122	C	1.335533	1.153441	0.037759
C123	C	1.668866	1.486775	0.371092
C124	C	1.096082	0.820083	-0.201818
C125	C	1.429415	1.153416	0.131516
C126	C	1.762748	1.486750	0.464849
C127	C	1.096059	0.765481	-0.201811
C128	C	1.429393	1.098815	0.131522
C129	C	1.762726	1.432148	0.464856
C130	C	1.049107	0.738193	-0.248686
C131	C	1.382441	1.071527	0.084647
C132	C	1.715774	1.404860	0.417980
C133	C	1.002177	0.765507	-0.295568
C134	C	1.335511	1.098840	0.037765
C135	C	1.668844	1.432173	0.371098
C136	C	0.908316	0.820131	-0.389344
C137	C	1.241650	1.153464	-0.056011
C138	C	1.574983	1.486797	0.277322
C139	C	0.908303	0.765523	-0.389338
C140	C	1.241637	1.098856	-0.056004
C141	C	1.574970	1.432190	0.277329
C142	C	0.955237	0.738210	-0.342451
C143	C	1.288570	1.071543	-0.009118
C144	C	1.621903	1.404876	0.324215
C145	C	0.955203	0.683617	-0.342437
C146	C	1.288536	1.016950	-0.009104
C147	C	1.621870	1.350284	0.324230
N148	N	1.002138	0.656301	-0.295559
N149	N	1.335471	0.989634	0.037775
N150	N	1.668805	1.322968	0.371108
C151	C	1.049090	0.683589	-0.248683
C152	C	1.382423	1.016923	0.084650
C153	C	1.715757	1.350256	0.417983
C154	C	0.955325	1.016697	-0.342468
C155	C	1.288658	1.350031	-0.009134
C156	C	1.621991	1.683364	0.324199
C157	C	0.955338	1.071300	-0.342468
C158	C	1.288671	1.404633	-0.009134
C159	C	1.622005	1.737967	0.324199
C160	C	1.049228	1.071272	-0.248710
C161	C	1.382562	1.404606	0.084624
C162	C	1.715895	1.737939	0.417957
C163	C	1.049211	1.016668	-0.248707
C164	C	1.382544	1.350002	0.084627
C165	C	1.715878	1.683335	0.417960
C166	C	1.002260	0.989381	-0.295589
C167	C	1.335593	1.322715	0.037744
C168	C	1.668926	1.656048	0.371077
C169	C	1.049039	0.568922	-0.248673
C170	C	1.382372	0.902256	0.084660
C171	C	1.715706	1.235589	0.417994
C172	C	1.049011	0.514316	-0.248669
C173	C	1.382344	0.847649	0.084665
C174	C	1.715677	1.180983	0.417998
C175	C	0.955123	0.514348	-0.342429
C176	C	1.288457	0.847682	-0.009095
C177	C	1.621790	1.181015	0.324238
C178	C	0.955149	0.568950	-0.342431
C179	C	1.288482	0.902283	-0.009097
C180	C	1.621816	1.235617	0.324236
C181	C	1.002113	0.596236	-0.295550
C182	C	1.335446	0.929569	0.037783
C183	C	1.668779	1.262902	0.371116
O184	O	0.915278	0.655345	-0.382265
O185	O	1.248611	0.988678	-0.048932
O186	O	1.581944	1.322011	0.284401
O187	O	1.089009	0.655335	-0.208822
O188	O	1.422342	0.988668	0.124512
O189	O	1.755675	1.322001	0.457845
C190	C	1.185699	0.298664	-0.287755
C191	C	1.519032	0.631997	0.045578
C192	C	1.852366	0.965330	0.378911
C193	C	1.263903	0.301045	-0.284425
C194	C	1.597236	0.634378	0.048908
C195	C	1.930570	0.967712	0.382242
C196	C	0.994384	0.298623	-0.479092
C197	C	1.327718	0.631957	-0.145759
C198	C	1.661051	0.965290	0.187575
C199	C	0.991062	0.300987	-0.557298
C200	C	1.324395	0.634321	-0.223964
C201	C	1.657728	0.967654	0.109369
C202	C	1.002306	1.156708	-0.295607
C203	C	1.335640	1.490041	0.037726
C204	C	1.668973	1.823375	0.371060
C205	C	1.002293	1.098593	-0.295595
C206	C	1.335626	1.431926	0.037739
C207	C	1.668960	1.765260	0.371072
C208	C	1.034531	0.270034	-0.592136
C209	C	1.367864	0.603367	-0.258803
C210	C	1.701198	0.936701	0.074531
C211	C	1.031400	0.272253	-0.665619
C212	C	1.364733	0.605586	-0.332286
C213	C	1.698067	0.938920	0.001048
C214	C	0.984803	0.305428	-0.704263
C215	C	1.318136	0.638762	-0.370929
C216	C	1.651470	0.972095	-0.037596
C217	C	0.941329	0.336383	-0.669420
C218	C	1.274662	0.669716	-0.336086
C219	C	1.607996	1.003049	-0.002753
C220	C	0.944457	0.334161	-0.595938
C221	C	1.277790	0.667494	-0.262605
C222	C	1.611123	1.000827	0.070729
C223	C	0.973103	0.313739	-0.926225
C224	C	1.306436	0.647072	-0.592892
C225	C	1.639770	0.980406	-0.259558
C226	C	0.969980	0.315960	-0.999712
C227	C	1.303313	0.649293	-0.666378
C228	C	1.636647	0.982626	-0.333045
C229	C	1.060051	0.251829	-0.995906
C230	C	1.393384	0.585162	-0.662573
C231	C	1.726717	0.918496	-0.329239
C232	C	1.063177	0.249612	-0.922423
C233	C	1.396511	0.582946	-0.589090
C234	C	1.729844	0.916279	-0.255756
C235	C	1.019701	0.280565	-0.887587
C236	C	1.353034	0.613898	-0.554253
C237	C	1.686367	0.947231	-0.220920
C238	C	0.981603	0.307698	-0.779374
C239	C	1.314937	0.641032	-0.446041
C240	C	1.648270	0.974365	-0.112707
C241	C	1.022897	0.278291	-0.812477
C242	C	1.356231	0.611625	-0.479143
C243	C	1.689564	0.944958	-0.145810
C244	C	1.009990	0.287514	-0.112761
C245	C	1.343323	0.620847	0.220572
C246	C	1.676657	0.954180	0.553906
C247	C	1.013449	0.285006	-0.034550
C248	C	1.346783	0.618340	0.298784
C249	C	1.680116	0.951673	0.632117
H250	H	0.400631	0.247200	-0.360212
H251	H	0.733965	0.580533	-0.026878
H252	H	1.067298	0.913867	0.306455
H253	H	1.066799	0.247049	-0.693981
H254	H	1.400132	0.580382	-0.360647
H255	H	1.733466	0.913715	-0.027314
H256	H	1.101123	0.222599	-0.890964
H257	H	1.434457	0.555932	-0.557631
H258	H	1.767790	0.889266	-0.224298
H259	H	0.730949	0.226843	-0.388790
H260	H	1.064283	0.560176	-0.055456
H261	H	1.397616	0.893509	0.277877
H262	H	1.072477	0.243021	-0.560677
H263	H	1.405811	0.576354	-0.227344
H264	H	1.739144	0.909687	0.105989
H265	H	0.407435	0.363384	-0.196624
H266	H	0.740769	0.696717	0.136709
H267	H	1.074102	1.030051	0.470043
H268	H	0.916934	0.591190	-0.380611
H269	H	1.250268	0.924523	-0.047278
H270	H	1.583601	1.257856	0.286055
Cl271	Cl	0.534518	0.349431	-0.216259
Cl272	Cl	0.867852	0.682764	0.117074
Cl273	Cl	1.201185	1.016098	0.450408
Cl274	Cl	0.849276	0.731223	-0.448281
Cl275	Cl	1.182609	1.064556	-0.114947
Cl276	Cl	1.515942	1.397889	0.218386
H277	H	1.087229	0.492079	-0.210486
H278	H	1.420563	0.825412	0.122848
H279	H	1.753896	1.158746	0.456181
H280	H	0.917085	0.994483	-0.380643
H281	H	1.250419	1.327816	-0.047310
H282	H	1.583752	1.661149	0.286024
H283	H	1.134278	0.743246	-0.163634
H284	H	1.467611	1.076580	0.169699
H285	H	1.800945	1.409913	0.503032
Cl286	Cl	1.114701	0.212918	-1.039705
Cl287	Cl	1.448034	0.546251	-0.706372
Cl288	Cl	1.781367	0.879585	-0.373038
Cl289	Cl	0.896105	0.480033	-0.401358
Cl290	Cl	1.229438	0.813367	-0.068025
Cl291	Cl	1.562771	1.146700	0.265309
Cl292	Cl	0.849319	0.854454	-0.448299
Cl293	Cl	1.182652	1.187788	-0.114966
Cl294	Cl	1.515985	1.521121	0.218368
Cl295	Cl	0.911393	0.357666	-1.048292
Cl296	Cl	1.244726	0.690999	-0.714958
Cl297	Cl	1.578059	1.024333	-0.381625
H298	H	0.604443	0.338991	-0.230929
H299	H	0.937776	0.672325	0.102405
H300	H	1.271109	1.005658	0.435738
H301	H	0.917114	1.093533	-0.380641
H302	H	1.250447	1.426867	-0.047308
H303	H	1.583781	1.760200	0.286026
H304	H	0.937712	0.338951	-0.897870
H305	H	1.271045	0.672284	-0.564536
H306	H	1.604378	1.005617	-0.231203
Cl307	Cl	1.081467	0.236581	-0.763895
Cl308	Cl	1.414801	0.569915	-0.430562
Cl309	Cl	1.748134	0.903248	-0.097229
Cl310	Cl	0.882747	0.378087	-0.718000
Cl311	Cl	1.216080	0.711420	-0.384667
Cl312	Cl	1.549413	1.044754	-0.051334
H313	H	0.943667	0.334712	-0.810846
H314	H	1.277000	0.668046	-0.477512
H315	H	1.610334	1.001379	-0.144179
Cl316	Cl	0.580538	0.208132	-0.415173
Cl317	Cl	0.913871	0.541466	-0.081840
Cl318	Cl	1.247204	0.874799	0.251493
H319	H	0.737744	0.343028	-0.225206
H320	H	1.071077	0.676361	0.108128
H321	H	1.404411	1.009694	0.441461
Cl322	Cl	0.258685	0.373033	-0.183073
Cl323	Cl	0.592018	0.706366	0.150260
Cl324	Cl	0.925351	1.039700	0.483593
Cl325	Cl	0.250225	0.228478	-0.386580
Cl326	Cl	0.583558	0.561812	-0.053247
Cl327	Cl	0.916892	0.895145	0.280086
H328	H	0.909052	0.359361	-0.567574
H329	H	1.242386	0.692694	-0.234241
H330	H	1.575719	1.026027	0.099093
H331	H	0.487653	0.251436	-0.354218
H332	H	0.820986	0.584769	-0.020884
H333	H	1.154320	0.918103	0.312449
H334	H	1.087283	0.591132	-0.210500
H335	H	1.420616	0.924465	0.122834
H336	H	1.753950	1.257799	0.456167
H337	H	1.134320	0.842295	-0.163646
H338	H	1.467653	1.175629	0.169688
H339	H	1.800986	1.508962	0.503021
Cl340	Cl	1.108253	1.105588	-0.189779
Cl341	Cl	1.441587	1.438921	0.143554
Cl342	Cl	1.774920	1.772254	0.476888
Cl343	Cl	1.108216	0.982338	-0.189763
Cl344	Cl	1.441549	1.315671	0.143570
Cl345	Cl	1.774882	1.649004	0.476904
