data_functionalizedCrystal
_audit_creation_method	'MofGen! by Chris Wilmer'
_symmetry_space_group_name_H-M	'P1'
_symmetry_Int_Tables_number	1
_symmetry_cell_setting	triclinic
loop_
_symmetry_equiv_pos_as_xyz
  x,y,z
_cell_length_a	8.597339
_cell_length_b	11.792241
_cell_length_c	7.681481
_cell_angle_alpha	84.218353
_cell_angle_beta	76.526797
_cell_angle_gamma	95.232808
loop_
_atom_site_label
_atom_site_type_symbol
_atom_site_fract_x
_atom_site_fract_y
_atom_site_fract_z
O1	O	-2.101182	0.156996	0.172281
O2	O	-1.637282	0.175071	0.101912
O3	O	-1.880491	0.000812	0.138817
O4	O	-1.857973	0.331255	0.135376
O5	O	-1.910425	-0.020684	0.436217
O6	O	-1.667216	0.153575	0.399312
O7	O	-2.131116	0.135499	0.469681
Zn8	Zn	-1.903919	0.141124	0.481715
Zn9	Zn	-1.864479	0.169447	0.089878
O10	O	-1.887907	0.309758	0.432777
C11	C	-1.592860	0.163577	0.241604
C12	C	-1.415898	0.161342	0.214761
C13	C	-1.894044	-0.052221	0.287302
C14	C	-1.889810	-0.178216	0.286658
C15	C	-1.175540	0.146987	0.329995
C16	C	-1.352506	0.149206	0.356852
C17	C	-1.882023	-0.408891	0.285447
C18	C	-1.886350	-0.280526	0.286120
N19	N	-1.930847	0.121793	0.749136
C20	C	-1.874354	0.362791	0.284288
C21	C	-1.878586	0.488787	0.284920
N22	N	-1.837563	0.188768	-0.177540
H23	H	-1.433624	0.140526	0.499059
H24	H	-1.742339	0.257129	0.732813
H25	H	-2.026090	0.053435	0.838794
H26	H	-1.334790	0.170014	0.072564
