data_functionalizedCrystal
_audit_creation_method	'MofGen! by Chris Wilmer'
_symmetry_space_group_name_H-M	'P1'
_symmetry_Int_Tables_number	1
_symmetry_cell_setting	triclinic
loop_
_symmetry_equiv_pos_as_xyz
  x,y,z
_cell_length_a	17.699077
_cell_length_b	11.792241
_cell_length_c	16.776229
_cell_angle_alpha	89.993219
_cell_angle_beta	89.993415
_cell_angle_gamma	83.736996
loop_
_atom_site_label
_atom_site_type_symbol
_atom_site_fract_x
_atom_site_fract_y
_atom_site_fract_z
O1	O	1.004846	0.143494	-0.066278
O2	O	0.784567	0.162175	-0.066282
O3	O	0.900052	-0.012400	-0.066274
O4	O	0.889361	0.318069	-0.066286
O5	O	0.900037	-0.012411	0.066302
O6	O	0.784551	0.162164	0.066295
O7	O	1.004831	0.143484	0.066299
Zn8	Zn	0.894689	0.152822	0.087346
Zn9	Zn	0.894709	0.152836	-0.087329
O10	O	0.889345	0.318059	0.066291
C11	C	0.756358	0.161501	0.000006
C12	C	0.672329	0.159497	0.000005
C13	C	0.632848	0.158546	0.072273
C14	C	0.553896	0.156644	0.072274
C15	C	0.514425	0.155701	0.000006
C16	C	0.553911	0.156648	-0.072268
C17	C	0.632863	0.158542	-0.072268
C18	C	0.235507	0.149011	-0.072270
C19	C	0.156550	0.147120	-0.072264
C20	C	0.156540	0.147113	0.072273
C21	C	0.235492	0.149007	0.072273
C22	C	0.274972	0.149948	-0.000001
C23	C	0.360582	0.152007	-0.000001
C24	C	0.428816	0.153650	0.000005
C25	C	0.899373	-0.054688	0.000014
C26	C	0.897363	-0.180678	0.000013
C27	C	0.893666	-0.411346	-0.000000
C28	C	0.895720	-0.282985	0.000007
C29	C	1.033039	0.144157	0.000009
C30	C	1.117068	0.146162	0.000005
C31	C	0.890025	0.360347	0.000001
C32	C	0.892035	0.486336	-0.000003
N33	N	0.894680	0.152812	0.206557
N34	N	0.894723	0.152838	-0.206541
C35	C	0.945833	0.075542	0.248278
C36	C	0.945837	0.075541	0.331730
C37	C	0.894692	0.152816	0.373460
C38	C	0.843533	0.230090	0.331734
C39	C	0.843526	0.230085	0.248283
C40	C	0.843561	0.230112	0.668281
C41	C	0.843574	0.230114	0.751737
C42	C	0.945872	0.075568	0.751728
C43	C	0.945864	0.075563	0.668277
C44	C	0.894704	0.152832	0.626558
C45	C	0.894699	0.152831	0.536070
C46	C	0.894700	0.152824	0.463947
H47	H	0.267625	0.149780	0.131121
Cl48	Cl	0.504294	0.155421	-0.163121
Cl49	Cl	0.682461	0.159739	0.163130
Cl50	Cl	0.682497	0.159731	-0.163124
Cl51	Cl	1.010186	-0.021577	0.804179
Cl52	Cl	0.106930	0.145933	-0.163123
Cl53	Cl	1.010144	-0.021602	0.384180
H54	H	0.987514	0.012642	0.634303
H55	H	0.801922	0.293043	0.785713
Cl56	Cl	1.010138	-0.021606	0.195826
Cl57	Cl	0.504264	0.155470	0.163130
Cl58	Cl	0.779250	0.327252	0.615840
Cl59	Cl	0.779231	0.327233	0.384193
Cl60	Cl	0.779214	0.327225	0.195835
Cl61	Cl	0.106903	0.145924	0.163132
H62	H	0.267643	0.149773	-0.131119
