data_functionalizedCrystal
_audit_creation_method	'MofGen! by Chris Wilmer'
_symmetry_space_group_name_H-M	'P1'
_symmetry_Int_Tables_number	1
_symmetry_cell_setting	triclinic
loop_
_symmetry_equiv_pos_as_xyz
  x,y,z
_cell_length_a	18.050591
_cell_length_b	19.120904
_cell_length_c	18.050589
_cell_angle_alpha	92.416977
_cell_angle_beta	90.024227
_cell_angle_gamma	92.416941
loop_
_atom_site_label
_atom_site_type_symbol
_atom_site_fract_x
_atom_site_fract_y
_atom_site_fract_z
Zn1	Zn	1.117386	-0.397248	-0.313673
Zn2	Zn	1.450719	-0.063915	0.019661
Zn3	Zn	1.784053	0.269419	0.352994
Zn4	Zn	1.122590	-0.279810	-0.432568
Zn5	Zn	1.455924	0.053524	-0.099235
Zn6	Zn	1.789257	0.386857	0.234099
Zn7	Zn	0.998499	-0.279802	-0.308387
Zn8	Zn	1.331833	0.053532	0.024946
Zn9	Zn	1.665166	0.386865	0.358279
Zn10	Zn	0.993155	-0.397206	-0.437815
Zn11	Zn	1.326488	-0.063872	-0.104482
Zn12	Zn	1.659822	0.269461	0.228852
O13	O	1.057908	-0.338516	-0.373111
O14	O	1.391241	-0.005183	-0.039777
O15	O	1.724574	0.328150	0.293556
O16	O	1.222000	-0.381691	-0.329461
O17	O	1.555333	-0.048357	0.003873
O18	O	1.888667	0.284976	0.337206
O19	O	1.110544	-0.181526	-0.411688
O20	O	1.443877	0.151807	-0.078354
O21	O	1.777211	0.485140	0.254979
O22	O	1.014328	-0.295396	-0.205165
O23	O	1.347662	0.037938	0.128169
O24	O	1.680995	0.371271	0.461502
O25	O	1.225824	-0.295409	-0.416813
O26	O	1.559157	0.037924	-0.083479
O27	O	1.892490	0.371257	0.249854
O28	O	1.101674	-0.381683	-0.209048
O29	O	1.435007	-0.048350	0.124286
O30	O	1.768340	0.284984	0.457619
O31	O	1.019375	-0.181521	-0.320453
O32	O	1.352708	0.151813	0.012881
O33	O	1.686041	0.485146	0.346214
O34	O	0.893867	-0.295354	-0.325540
O35	O	1.227200	0.037979	0.007793
O36	O	1.560533	0.371312	0.341127
O37	O	1.005220	-0.495493	-0.425755
O38	O	1.338553	-0.162160	-0.092422
O39	O	1.671886	0.171173	0.240912
O40	O	0.889940	-0.381611	-0.420630
O41	O	1.223274	-0.048277	-0.087297
O42	O	1.556607	0.285056	0.246037
O43	O	1.096492	-0.495525	-0.334548
O44	O	1.429825	-0.162191	-0.001215
O45	O	1.763158	0.171142	0.332118
O46	O	1.105362	-0.295368	-0.537188
O47	O	1.438695	0.037965	-0.203855
O48	O	1.772029	0.371299	0.129479
O49	O	1.010266	-0.381618	-0.541043
O50	O	1.343600	-0.048285	-0.207709
O51	O	1.676933	0.285048	0.125624
C52	C	0.864957	-0.338477	-0.373081
C53	C	1.198291	-0.005144	-0.039748
C54	C	1.531624	0.328189	0.293585
C55	C	0.782411	-0.338477	-0.373087
C56	C	1.115745	-0.005144	-0.039754
C57	C	1.449078	0.328189	0.293579
C58	C	0.585070	-0.291679	-0.321325
C59	C	0.918403	0.041654	0.012008
C60	C	1.251736	0.374987	0.345342
C61	C	0.536429	-0.274401	-0.388283
C62	C	0.869762	0.058933	-0.054950
C63	C	1.203095	0.392266	0.278384
C64	C	0.631280	-0.338509	-0.373111
C65	C	0.964613	-0.005176	-0.039778
C66	C	1.297946	0.328157	0.293555
C67	C	0.532839	-0.355786	-0.306177
C68	C	0.866172	-0.022453	0.027156
C69	C	1.199505	0.310880	0.360490
C70	C	0.485293	-0.338539	-0.373129
C71	C	0.818627	-0.005205	-0.039795
C72	C	1.151960	0.328128	0.293538
C73	C	0.583728	-0.321197	-0.440103
C74	C	0.917061	0.012137	-0.106770
C75	C	1.250394	0.345470	0.226563
C76	C	0.580141	-0.402613	-0.357953
C77	C	0.913474	-0.069279	-0.024620
C78	C	1.246807	0.264054	0.308713
C79	C	0.531521	-0.385358	-0.424959
C80	C	0.864854	-0.052025	-0.091626
C81	C	1.198188	0.281309	0.241708
C82	C	0.715379	-0.338491	-0.373100
C83	C	1.048712	-0.005157	-0.039767
C84	C	1.382045	0.328176	0.293566
C85	C	0.401196	-0.338557	-0.373147
C86	C	0.734529	-0.005224	-0.039814
C87	C	1.067862	0.328109	0.293520
C88	C	1.049679	-0.521705	-0.381326
C89	C	1.383012	-0.188372	-0.047993
C90	C	1.716346	0.144961	0.285340
C91	C	1.046173	-0.599769	-0.384827
C92	C	1.379506	-0.266436	-0.051494
C93	C	1.712839	0.066897	0.281839
C94	C	1.092043	-0.636462	-0.338988
C95	C	1.425377	-0.303128	-0.005655
C96	C	1.758710	0.030205	0.327679
C97	C	1.088739	-0.709811	-0.342275
C98	C	1.422073	-0.376478	-0.008941
C99	C	1.755406	-0.043144	0.324392
C100	C	1.039568	-0.746467	-0.391405
C101	C	1.372902	-0.413134	-0.058072
C102	C	1.706235	-0.079801	0.275262
C103	C	0.993693	-0.709770	-0.437246
C104	C	1.327026	-0.376437	-0.103913
C105	C	1.660359	-0.043103	0.229420
C106	C	0.996993	-0.636422	-0.433955
C107	C	1.330327	-0.303088	-0.100622
C108	C	1.663660	0.030245	0.232711
C109	C	1.027222	-0.967931	-0.403714
C110	C	1.360555	-0.634597	-0.070380
C111	C	1.693889	-0.301264	0.262953
C112	C	1.023927	-1.041284	-0.407003
C113	C	1.357260	-0.707951	-0.073670
C114	C	1.690593	-0.374617	0.259664
C115	C	1.118973	-1.041320	-0.312030
C116	C	1.452306	-0.707987	0.021304
C117	C	1.785639	-0.374654	0.354637
C118	C	1.122272	-0.967971	-0.308746
C119	C	1.455605	-0.634637	0.024587
C120	C	1.788939	-0.301304	0.357920
C121	C	1.076394	-0.931280	-0.354585
C122	C	1.409727	-0.597946	-0.021251
C123	C	1.743060	-0.264613	0.312082
C124	C	1.036192	-0.821442	-0.394767
C125	C	1.369525	-0.488109	-0.061434
C126	C	1.702858	-0.154776	0.271899
C127	C	1.079767	-0.856306	-0.351218
C128	C	1.413100	-0.522973	-0.017885
C129	C	1.746434	-0.189639	0.315449
C130	C	1.251611	-0.338556	-0.373141
C131	C	1.584945	-0.005222	-0.039808
C132	C	1.918278	0.328111	0.293526
C133	C	1.334156	-0.338572	-0.373154
C134	C	1.667490	-0.005239	-0.039820
C135	C	2.000823	0.328094	0.293513
C136	C	1.057818	-0.338505	-0.566062
C137	C	1.391152	-0.005171	-0.232729
C138	C	1.724485	0.328162	0.100604
C139	C	1.057847	-0.338523	-0.648609
C140	C	1.391181	-0.005190	-0.315276
C141	C	1.724514	0.328144	0.018058
C142	C	1.066147	-0.156040	-0.364874
C143	C	1.399480	0.177293	-0.031540
C144	C	1.732813	0.510627	0.301793
C145	C	1.069797	-0.077976	-0.361163
C146	C	1.403130	0.255357	-0.027830
C147	C	1.736464	0.588690	0.305503
C148	C	1.006184	-0.385410	-0.850182
C149	C	1.339517	-0.052076	-0.516849
C150	C	1.672850	0.281257	-0.183515
C151	C	0.990975	-0.321320	-0.896729
C152	C	1.324308	0.012014	-0.563396
C153	C	1.657641	0.345347	-0.230062
C154	C	1.057920	-0.338532	-0.799740
C155	C	1.391253	-0.005199	-0.466406
C156	C	1.724586	0.328134	-0.133073
C157	C	1.073165	-0.402629	-0.900275
C158	C	1.406498	-0.069296	-0.566942
C159	C	1.739831	0.264037	-0.233608
C160	C	1.057988	-0.338547	-0.945726
C161	C	1.391322	-0.005213	-0.612392
C162	C	1.724655	0.328120	-0.279059
C163	C	1.042677	-0.274408	-0.845198
C164	C	1.376010	0.058925	-0.511865
C165	C	1.709343	0.392258	-0.178531
C166	C	1.124896	-0.355761	-0.848741
C167	C	1.458230	-0.022428	-0.515408
C168	C	1.791563	0.310905	-0.182075
C169	C	1.109715	-0.291627	-0.895264
C170	C	1.443048	0.041706	-0.561931
C171	C	1.776382	0.375039	-0.228597
C172	C	1.057878	-0.338525	-0.715641
C173	C	1.391212	-0.005192	-0.382308
C174	C	1.724545	0.328142	-0.048975
C175	C	1.058030	-0.338547	-1.029822
C176	C	1.391363	-0.005214	-0.696489
C177	C	1.724697	0.328120	-0.363155
C178	C	1.058017	-0.338543	-0.179406
C179	C	1.391350	-0.005210	0.153927
C180	C	1.724683	0.328123	0.487260
C181	C	1.058063	-0.338555	-0.096861
C182	C	1.391396	-0.005222	0.236472
C183	C	1.724730	0.328112	0.569806
H184	H	0.608514	-0.252034	-0.277574
H185	H	0.941848	0.081299	0.055759
H186	H	1.275181	0.414632	0.389092
Br187	Br	0.934733	-0.586624	-0.496164
Br188	Br	1.268067	-0.253291	-0.162831
Br189	Br	1.601400	0.080043	0.170503
Br190	Br	0.620789	-0.296757	-0.534486
Br191	Br	0.954122	0.036576	-0.201153
Br192	Br	1.287455	0.369909	0.132181
H193	H	0.517134	-0.220202	-0.401117
H194	H	0.850467	0.113131	-0.067783
H195	H	1.183801	0.446464	0.265550
H196	H	0.599454	-0.456795	-0.345098
H197	H	0.932787	-0.123461	-0.011765
H198	H	1.266121	0.209872	0.321569
H199	H	0.996160	-0.851296	-0.434773
H200	H	1.329493	-0.517963	-0.101440
H201	H	1.662827	-0.184629	0.231894
H202	H	1.132086	-0.606621	-0.298983
H203	H	1.465419	-0.273288	0.034351
H204	H	1.798753	0.060045	0.367684
Br205	Br	0.933168	-0.451392	-0.817067
Br206	Br	1.266502	-0.118059	-0.483733
Br207	Br	1.599835	0.215274	-0.150400
H208	H	1.153498	-0.251945	-0.914990
H209	H	1.486831	0.081388	-0.581656
H210	H	1.820165	0.414721	-0.248323
H211	H	0.510474	-0.370363	-0.249571
H212	H	0.843807	-0.037030	0.083763
H213	H	1.177141	0.296304	0.417096
Br214	Br	1.021125	-0.184044	-0.805188
Br215	Br	1.354458	0.149290	-0.471855
Br216	Br	1.687791	0.482623	-0.138521
H217	H	1.181490	-0.370351	-0.827624
H218	H	1.514823	-0.037018	-0.494291
H219	H	1.848157	0.296315	-0.160958
Br220	Br	1.151030	-0.759605	-0.280095
Br221	Br	1.484363	-0.426272	0.053238
Br222	Br	1.817697	-0.092939	0.386571
H223	H	0.508214	-0.424973	-0.468809
H224	H	0.841547	-0.091639	-0.135475
H225	H	1.174880	0.241694	0.197858
H226	H	1.162314	-0.938130	-0.268741
H227	H	1.495648	-0.604797	0.064592
H228	H	1.828981	-0.271463	0.397926
H229	H	0.989876	-0.938066	-0.441050
H230	H	1.323209	-0.604732	-0.107716
H231	H	1.656542	-0.271399	0.225617
H232	H	1.086032	-0.456830	-0.924372
H233	H	1.419366	-0.123497	-0.591039
H234	H	1.752699	0.209837	-0.257706
H235	H	1.156323	-1.071202	-0.274710
H236	H	1.489657	-0.737869	0.058624
H237	H	1.822990	-0.404535	0.391957
H238	H	1.119799	-0.826457	-0.311213
H239	H	1.453132	-0.493124	0.022120
H240	H	1.786465	-0.159791	0.355453
Br241	Br	0.957187	-1.091032	-0.473682
Br242	Br	1.290521	-0.757698	-0.140349
Br243	Br	1.623854	-0.424365	0.192985
H244	H	0.953654	-0.739621	-0.477247
H245	H	1.286987	-0.406288	-0.143913
H246	H	1.620320	-0.072955	0.189420
Br247	Br	0.896621	-0.297030	-0.931900
Br248	Br	1.229954	0.036303	-0.598566
Br249	Br	1.563288	0.369636	-0.265233
