data_functionalizedCrystal
_audit_creation_method	'MofGen! by Chris Wilmer'
_symmetry_space_group_name_H-M	'P1'
_symmetry_Int_Tables_number	1
_symmetry_cell_setting	triclinic
loop_
_symmetry_equiv_pos_as_xyz
  x,y,z
_cell_length_a	10.654562
_cell_length_b	10.489716
_cell_length_c	9.130313
_cell_angle_alpha	90.002761
_cell_angle_beta	89.996930
_cell_angle_gamma	84.509620
loop_
_atom_site_label
_atom_site_type_symbol
_atom_site_fract_x
_atom_site_fract_y
_atom_site_fract_z
O1	O	1.667893	0.179235	-0.121881
O2	O	1.302423	0.196288	-0.121862
O3	O	1.493490	0.002158	-0.121877
O4	O	1.476826	0.373365	-0.121866
O5	O	1.493488	0.002163	0.121722
O6	O	1.302421	0.196293	0.121737
O7	O	1.667891	0.179241	0.121717
Cu8	Cu	1.485156	0.187767	0.143970
Cu9	Cu	1.485158	0.187761	-0.144114
O10	O	1.476824	0.373370	0.121733
C11	C	1.255624	0.195035	-0.000060
C12	C	1.116180	0.191279	-0.000053
C13	C	1.050647	0.189530	0.132721
C14	C	0.919624	0.186011	0.132696
C15	C	0.919676	0.185995	-0.132888
C16	C	1.050699	0.189505	-0.132862
C17	C	1.050615	0.189544	0.286054
C18	C	0.919592	0.186025	0.286030
C19	C	1.492237	-0.045371	-0.000082
C20	C	1.488491	-0.187000	-0.000095
C21	C	1.605659	-0.284725	-0.000088
C22	C	1.543746	-0.362061	-0.120188
C23	C	1.543717	-0.362020	0.119981
C24	C	1.426627	-0.262471	-0.120294
C25	C	1.426615	-0.262424	0.119983
C26	C	1.364615	-0.339711	-0.000146
C27	C	1.714690	0.180493	-0.000088
C28	C	1.854134	0.184250	-0.000104
C29	C	1.478077	0.420899	-0.000065
C30	C	1.481823	0.562529	-0.000062
N31	N	1.485163	0.187771	0.346592
N32	N	1.485161	0.187748	-0.346737
C33	C	1.569789	0.101840	0.423237
C34	C	1.569786	0.101825	0.576574
C35	C	1.400526	0.273683	0.576607
C36	C	1.400524	0.273691	0.423273
C37	C	1.667514	0.002622	0.423220
C38	C	1.667511	0.002607	0.576556
H39	H	0.873339	0.274183	0.344898
H40	H	1.764030	0.024467	0.618169
C41	C	1.113077	0.070462	0.365585
H42	H	1.201988	0.072858	0.365611
H43	H	1.092364	-0.004599	0.316545
H44	H	1.083428	0.069680	0.463680
H45	H	1.636963	-0.090047	0.624102
H46	H	1.758709	0.033694	0.375657
H47	H	1.593202	-0.405512	0.221514
H48	H	1.080225	0.282577	0.333634
H49	H	1.104053	0.190910	-0.240980
C50	C	1.743332	-0.251437	-0.000247
H51	H	1.758498	-0.203463	0.085132
H52	H	1.757948	-0.202170	-0.084773
H53	H	1.798486	-0.328154	-0.001173
C54	C	0.847642	0.184056	-0.278966
H55	H	0.760222	0.181721	-0.259968
H56	H	0.878028	0.110377	-0.333527
H57	H	0.860221	0.258896	-0.333517
C58	C	1.359858	-0.203963	-0.257624
H59	H	1.329545	-0.270143	-0.314897
H60	H	1.417748	-0.160738	-0.313774
H61	H	1.291070	-0.144924	-0.228914
C62	C	1.307428	0.368207	0.338968
H63	H	1.257031	0.419381	0.406601
H64	H	1.254748	0.321821	0.279149
H65	H	1.353077	0.421752	0.279159
H66	H	1.646034	-0.095424	0.381598
H67	H	0.889967	0.092996	0.333606
C68	C	1.610561	-0.420865	-0.257356
H69	H	1.696141	-0.402426	-0.257219
H70	H	1.569789	-0.385447	-0.342648
H71	H	1.606998	-0.511010	-0.256802
C72	C	1.307408	0.368169	0.660954
H73	H	1.256995	0.419335	0.593342
H74	H	1.353027	0.421706	0.720795
H75	H	1.254728	0.321744	0.720744
C76	C	1.226839	-0.372669	-0.000223
H77	H	1.185414	-0.338259	-0.085618
H78	H	1.184939	-0.337041	0.084288
H79	H	1.225170	-0.463053	0.000580
H80	H	1.377195	-0.218882	0.221530
