data_functionalizedCrystal
_audit_creation_method	'MofGen! by Chris Wilmer'
_symmetry_space_group_name_H-M	'P1'
_symmetry_Int_Tables_number	1
_symmetry_cell_setting	triclinic
loop_
_symmetry_equiv_pos_as_xyz
  x,y,z
_cell_length_a	16.625545
_cell_length_b	12.759395
_cell_length_c	16.625539
_cell_angle_alpha	90.014687
_cell_angle_beta	89.973757
_cell_angle_gamma	89.972905
loop_
_atom_site_label
_atom_site_type_symbol
_atom_site_fract_x
_atom_site_fract_y
_atom_site_fract_z
Zn1	Zn	-0.320982	-1.606129	-0.455859
Zn2	Zn	-0.455821	-1.606004	-0.321027
Zn3	Zn	-0.321009	-1.430445	-0.321046
Zn4	Zn	-0.455780	-1.430386	-0.455823
O5	O	-0.388398	-1.518241	-0.388439
O6	O	-0.338874	-1.753134	-0.437981
O7	O	-0.437966	-1.582688	-0.208197
O8	O	-0.208173	-1.453827	-0.338952
O9	O	-0.437940	-1.753042	-0.338921
O10	O	-0.208153	-1.582901	-0.437999
O11	O	-0.338921	-1.453706	-0.208211
O12	O	-0.338881	-1.283416	-0.338916
O13	O	-0.437870	-1.453727	-0.568660
O14	O	-0.437897	-1.283373	-0.437936
O15	O	-0.338835	-1.582844	-0.568687
O16	O	-0.568648	-1.582631	-0.338885
O17	O	-0.568618	-1.453606	-0.437919
C18	C	-0.388388	-1.245274	-0.388425
C19	C	-0.388403	-1.128497	-0.388438
C20	C	-0.597889	-1.518127	-0.388413
C21	C	-0.687510	-1.518174	-0.388429
C22	C	-0.388345	-1.518293	-0.598748
C23	C	-0.388322	-1.518315	-0.688369
C24	C	-0.760292	-1.518215	-0.388445
C25	C	-0.851601	-1.518276	-0.388463
C26	C	-0.924377	-1.518331	-0.388473
C27	C	-1.015692	-1.518391	-0.388490
C28	C	-0.178089	-1.518384	-0.388482
C29	C	-0.088468	-1.518445	-0.388500
C30	C	-0.388408	-1.792275	-0.388453
C31	C	-0.388413	-1.909051	-0.388459
C32	C	-0.491675	-1.128491	-0.491381
C33	C	-0.543317	-1.073627	-0.542855
C34	C	-0.543327	-0.963905	-0.542864
C35	C	-0.491687	-0.909045	-0.491397
C36	C	-0.440045	-0.963909	-0.439923
C37	C	-0.440043	-1.073633	-0.439917
C38	C	-0.336771	-0.963915	-0.336986
C39	C	-0.336764	-1.073637	-0.336970
C40	C	-0.285131	-0.909055	-0.285518
C41	C	-0.233492	-0.963919	-0.234039
C42	C	-0.233485	-1.073647	-0.234030
C43	C	-0.285122	-1.128501	-0.285497
C44	C	-0.388304	-1.518332	-0.761151
C45	C	-0.388274	-1.518356	-0.852460
C46	C	-0.388246	-1.518381	-0.925236
C47	C	-0.388217	-1.518407	-1.016551
C48	C	-0.388393	-1.518250	-0.178948
C49	C	-0.388188	-1.518432	-0.089327
H50	H	-0.491678	-1.217832	-0.491372
Cl51	Cl	-0.285139	-0.771118	-0.285535
Cl52	Cl	-0.491690	-0.771108	-0.491422
H53	H	-0.585359	-1.118306	-0.584760
H54	H	-0.285123	-1.217842	-0.285492
H55	H	-0.191448	-0.919243	-0.192142
Cl56	Cl	-0.608244	-0.894930	-0.607579
H57	H	-0.191426	-1.118311	-0.192120
