data_functionalizedCrystal
_audit_creation_method	'MofGen! by Chris Wilmer'
_symmetry_space_group_name_H-M	'P1'
_symmetry_Int_Tables_number	1
_symmetry_cell_setting	triclinic
loop_
_symmetry_equiv_pos_as_xyz
  x,y,z
_cell_length_a	18.215407
_cell_length_b	19.077068
_cell_length_c	18.215385
_cell_angle_alpha	92.204791
_cell_angle_beta	89.935053
_cell_angle_gamma	92.327501
loop_
_atom_site_label
_atom_site_type_symbol
_atom_site_fract_x
_atom_site_fract_y
_atom_site_fract_z
Zn1	Zn	1.113645	-0.279734	-0.427850
Zn2	Zn	1.613645	0.220266	0.072150
Zn3	Zn	1.108505	-0.397565	-0.309726
Zn4	Zn	1.608505	0.102435	0.190274
Zn5	Zn	0.990474	-0.279891	-0.304804
Zn6	Zn	1.490474	0.220109	0.195196
Zn7	Zn	0.985599	-0.397392	-0.432744
Zn8	Zn	1.485599	0.102608	0.067256
O9	O	1.049555	-0.338645	-0.368781
O10	O	1.549555	0.161355	0.131219
O11	O	1.215947	-0.295372	-0.412193
O12	O	1.715947	0.204628	0.087807
O13	O	1.092736	-0.382093	-0.206094
O14	O	1.592736	0.117907	0.293906
O15	O	1.011004	-0.181384	-0.317018
O16	O	1.511004	0.318616	0.182982
O17	O	1.212170	-0.381941	-0.325407
O18	O	1.712170	0.118059	0.174593
O19	O	1.101497	-0.181268	-0.407420
O20	O	1.601497	0.318732	0.092580
O21	O	1.006020	-0.295639	-0.202478
O22	O	1.506020	0.204361	0.297522
O23	O	0.886843	-0.295471	-0.321763
O24	O	1.386843	0.204529	0.178237
O25	O	1.002695	-0.381646	-0.535073
O26	O	1.502695	0.118354	-0.035073
O27	O	0.883261	-0.381798	-0.415760
O28	O	1.383261	0.118202	0.084240
O29	O	1.096770	-0.295204	-0.531478
O30	O	1.596770	0.204796	-0.031478
O31	O	1.088010	-0.496028	-0.330152
O32	O	1.588010	0.003972	0.169848
O33	O	0.997711	-0.495901	-0.420533
O34	O	1.497711	0.004099	0.079467
C35	C	0.858350	-0.338633	-0.368759
C36	C	1.358350	0.161367	0.131241
C37	C	0.776550	-0.338645	-0.368768
C38	C	1.276550	0.161355	0.131232
C39	C	0.586508	-0.383666	-0.417656
C40	C	1.086508	0.116334	0.082344
C41	C	0.509649	-0.383669	-0.417666
C42	C	1.009649	0.116331	0.082334
C43	C	0.513355	-0.293637	-0.319922
C44	C	1.013355	0.206363	0.180078
C45	C	0.590212	-0.293632	-0.319917
C46	C	1.090212	0.206368	0.180083
C47	C	0.626787	-0.338651	-0.368783
C48	C	1.126787	0.161349	0.131217
C49	C	0.473070	-0.338658	-0.368798
C50	C	0.973070	0.161342	0.131202
C51	C	0.389736	-0.338660	-0.368807
C52	C	0.889736	0.161340	0.131193
C53	C	0.710126	-0.338648	-0.368775
C54	C	1.210126	0.161352	0.131225
C55	C	1.041794	-0.521501	-0.376424
C56	C	1.541794	-0.021501	0.123576
C57	C	1.038540	-0.599728	-0.379718
C58	C	1.538540	-0.099728	0.120282
C59	C	1.084062	-0.636522	-0.334249
C60	C	1.584062	-0.136522	0.165751
C61	C	1.081007	-0.710024	-0.337351
C62	C	1.581007	-0.210024	0.162649
C63	C	1.032425	-0.746730	-0.385921
C64	C	1.532425	-0.246730	0.114079
C65	C	0.986902	-0.709932	-0.431395
C66	C	1.486902	-0.209932	0.068605
C67	C	0.989961	-0.636431	-0.428296
C68	C	1.489961	-0.136431	0.071704
C69	C	1.018233	-0.966549	-0.400236
C70	C	1.518233	-0.466549	0.099764
C71	C	1.015175	-1.040055	-0.403331
C72	C	1.515175	-0.540055	0.096669
C73	C	1.109281	-1.040142	-0.309288
C74	C	1.609281	-0.540142	0.190712
C75	C	1.112333	-0.966640	-0.306189
C76	C	1.612333	-0.466640	0.193811
C77	C	1.066813	-0.929848	-0.351666
C78	C	1.566813	-0.429848	0.148334
N79	N	1.029299	-0.821861	-0.389092
N80	N	1.529299	-0.321861	0.110908
N81	N	1.069943	-0.854718	-0.348499
N82	N	1.569943	-0.354718	0.151501
C83	C	1.241508	-0.338658	-0.368803
C84	C	1.741508	0.161342	0.131197
C85	C	1.323306	-0.338663	-0.368813
C86	C	1.823306	0.161337	0.131187
C87	C	1.049762	-0.338388	-0.560724
C88	C	1.549762	0.161612	-0.060724
C89	C	1.049850	-0.338278	-0.642518
C90	C	1.549850	0.161722	-0.142518
C91	C	1.057368	-0.155076	-0.361124
C92	C	1.557368	0.344924	0.138876
C93	C	1.060697	-0.076849	-0.357861
C94	C	1.560697	0.423151	0.142139
C95	C	1.049394	-0.338851	-0.177583
C96	C	1.549394	0.161149	0.322417
C97	C	1.049457	-0.338763	-0.095780
C98	C	1.549457	0.161237	0.404220
C99	C	1.004119	-0.293877	0.094256
C100	C	1.504119	0.206123	0.594256
C101	C	1.004187	-0.293793	0.171118
C102	C	1.504187	0.206207	0.671118
C103	C	1.095193	-0.383166	0.167440
C104	C	1.595193	0.116834	0.667440
C105	C	1.095129	-0.383246	0.090579
C106	C	1.595129	0.116754	0.590579
C107	C	1.049587	-0.338602	0.053989
C108	C	1.549587	0.161398	0.553989
C109	C	1.049720	-0.338439	0.207712
C110	C	1.549720	0.161561	0.707712
C111	C	1.049793	-0.338348	0.291049
C112	C	1.549793	0.161652	0.791049
C113	C	1.049514	-0.338692	-0.029353
C114	C	1.549514	0.161308	0.470647
H115	H	0.616284	-0.420322	-0.457448
H116	H	1.116284	0.079678	0.042552
H117	H	1.132159	-0.419667	0.057793
H118	H	1.632159	0.080333	0.557793
O119	O	0.969115	-0.926869	-0.449262
O120	O	1.469115	-0.426869	0.050738
H121	H	0.934809	-0.964745	-0.483541
H122	H	1.434809	-0.464745	0.016459
O123	O	0.955145	-0.245553	0.214549
O124	O	1.455145	0.254447	0.714549
H125	H	0.989379	-0.209480	0.250904
H126	H	1.489379	0.290520	0.750904
H127	H	1.118075	-0.739978	-0.300325
H128	H	1.618075	-0.239978	0.199675
O129	O	1.164738	-0.927048	-0.253811
O130	O	1.664738	-0.427048	0.246189
H131	H	1.195886	-0.964983	-0.222719
H132	H	1.695886	-0.464983	0.277281
H133	H	0.483566	-0.256986	-0.280136
H134	H	0.983566	0.243014	0.219864
H135	H	0.476857	-0.420324	-0.457464
H136	H	0.976857	0.079676	0.042536
H137	H	0.623009	-0.256970	-0.280118
H138	H	1.123009	0.243030	0.219882
O139	O	1.144309	-0.431320	0.206902
O140	O	1.644309	0.068680	0.706902
H141	H	1.110138	-0.467321	0.240568
H142	H	1.610138	0.032679	0.740568
H143	H	1.123619	-0.606640	-0.294695
H144	H	1.623619	-0.106640	0.205305
H145	H	1.146343	-1.070107	-0.272264
H146	H	1.646343	-0.570107	0.227736
H147	H	0.967039	-0.257523	0.064467
H148	H	1.467039	0.242477	0.564467
O149	O	0.962776	-1.079657	-0.455716
O150	O	1.462776	-0.579657	0.044284
H151	H	0.976007	-1.065453	-0.512891
H152	H	1.476007	-0.565453	-0.012891
O153	O	0.934496	-0.749524	-0.483773
O154	O	1.434496	-0.249524	0.016227
H155	H	0.966046	-0.782929	-0.522649
H156	H	1.466046	-0.282929	-0.022649
O157	O	0.940855	-0.596740	-0.477329
O158	O	1.440855	-0.096740	0.022671
H159	H	0.906552	-0.634612	-0.511616
H160	H	1.406552	-0.134612	-0.011616
