data_functionalizedCrystal
_audit_creation_method	'MofGen! by Chris Wilmer'
_symmetry_space_group_name_H-M	'P1'
_symmetry_Int_Tables_number	1
_symmetry_cell_setting	triclinic
loop_
_symmetry_equiv_pos_as_xyz
  x,y,z
_cell_length_a	14.628931
_cell_length_b	20.875641
_cell_length_c	20.875685
_cell_angle_alpha	59.250024
_cell_angle_beta	92.968906
_cell_angle_gamma	62.439816
loop_
_atom_site_label
_atom_site_type_symbol
_atom_site_fract_x
_atom_site_fract_y
_atom_site_fract_z
Zr1	Zr	0.909216	0.702109	-0.109936
O2	O	0.762320	0.835929	-0.217268
O3	O	0.949645	0.568290	-0.073628
O4	O	0.946390	0.702110	-0.212358
O5	O	0.773379	0.702108	0.027021
O6	O	1.096822	0.702110	-0.212358
O7	O	0.765576	0.702109	-0.078538
O8	O	1.102645	0.462729	0.035804
O9	O	0.767555	0.941488	-0.221141
O10	O	1.084714	0.623331	-0.062257
O11	O	0.978271	0.623330	0.016521
O12	O	0.974438	0.780886	-0.146815
O13	O	0.867996	0.780886	-0.068037
Zr14	Zr	1.161582	0.702106	0.058420
Zr15	Zr	1.149138	0.702108	-0.109936
Zr16	Zr	0.921661	0.702107	0.058420
Zr17	Zr	0.917565	0.870463	-0.116112
Zr18	Zr	1.153233	0.533753	0.064596
O19	O	1.121153	0.835926	0.022112
O20	O	1.103458	0.835929	-0.217267
O21	O	0.780015	0.835926	0.022112
O22	O	1.308478	0.568286	0.165752
O23	O	1.290783	0.568289	-0.073628
O24	O	0.967340	0.568287	0.165751
O25	O	1.297420	0.702108	-0.078538
O26	O	1.124408	0.702105	0.160842
O27	O	0.973976	0.702106	0.160842
O28	O	1.305222	0.702107	0.027022
O29	O	0.958261	0.941487	-0.221140
O30	O	1.112537	0.462728	0.169624
O31	O	1.303243	0.462728	0.169624
O32	O	1.293351	0.462729	0.035804
O33	O	0.777447	0.941486	-0.087320
O34	O	0.968153	0.941486	-0.087320
O35	O	1.096360	0.623329	0.095299
O36	O	1.202803	0.623330	0.016521
O37	O	1.092527	0.780885	-0.068037
O38	O	0.986085	0.780885	0.010741
C39	C	1.024956	0.491523	-0.018032
C40	C	1.021411	0.420052	-0.015410
C41	C	0.735293	0.702108	-0.025758
C42	C	0.633440	0.702109	-0.025758
C43	C	1.075305	0.386475	-0.055299
C44	C	1.071978	0.319316	-0.052828
C45	C	1.014750	0.285740	-0.010471
C46	C	0.960855	0.319319	0.029423
C47	C	0.964189	0.386473	0.026956
C48	C	0.998826	0.084896	0.001321
C49	C	0.995493	0.017740	0.003783
C50	C	1.106619	0.017740	-0.078467
C51	C	1.109942	0.084899	-0.080934
C52	C	1.056052	0.118469	-0.041036
N53	N	1.011345	0.217095	-0.007946
N54	N	1.059464	0.187108	-0.043557
C55	C	0.642735	0.623950	0.016188
C56	C	0.537466	0.623949	0.016189
C57	C	1.335505	0.702107	-0.025758
C58	C	1.437358	0.702107	-0.025758
C59	C	1.019833	0.702110	-0.236345
C60	C	1.014550	0.702111	-0.307816
C61	C	1.045843	0.912693	-0.033484
C62	C	1.049387	0.984163	-0.036106
C63	C	0.975862	0.702103	-0.710116
C64	C	0.980840	0.702099	-0.642960
C65	C	1.066201	0.702104	-0.609392
C66	C	1.146595	0.702103	-0.642979
C67	C	1.141621	0.702100	-0.710130
C68	C	1.089969	0.702107	-0.408554
C69	C	1.094936	0.702113	-0.341400
C70	C	0.929182	0.702107	-0.341385
C71	C	0.924211	0.702110	-0.408541
C72	C	1.004608	0.702104	-0.442119
N73	N	1.071290	0.702103	-0.540749
N74	N	0.999523	0.702098	-0.510757
C75	C	1.050965	0.702105	0.184829
C76	C	1.056248	0.702104	0.256300
C77	C	1.325061	0.491522	-0.018032
C78	C	1.423370	0.420051	-0.015409
C79	C	1.040522	0.491520	0.192555
C80	C	1.042261	0.420049	0.266648
C81	C	1.340628	0.491520	0.192555
C82	C	1.444219	0.420048	0.266649
C83	C	0.730171	0.912696	-0.244071
C84	C	0.626579	0.984167	-0.318165
C85	C	0.745737	0.912693	-0.033484
C86	C	0.647428	0.984164	-0.036107
C87	C	1.030276	0.912695	-0.244071
C88	C	1.028538	0.984166	-0.318164
C89	C	1.407895	0.386488	-0.055306
C90	C	1.500257	0.319343	-0.052859
C91	C	1.608093	0.285758	-0.010509
C92	C	1.623566	0.319327	0.029389
C93	C	1.531205	0.386476	0.026936
C94	C	1.104719	0.386485	0.342572
C95	C	1.106349	0.319339	0.412196
C96	C	1.045527	0.285754	0.405896
C97	C	0.983061	0.319325	0.329965
C98	C	0.981425	0.386474	0.260341
C99	C	1.548439	0.386485	0.260323
C100	C	1.645784	0.319339	0.329935
C101	C	1.638906	0.285753	0.405872
C102	C	1.534675	0.319323	0.412196
C103	C	1.437333	0.386472	0.342585
C104	C	0.522360	1.017739	-0.311839
C105	C	0.425016	1.084906	-0.381452
C106	C	0.431894	1.118495	-0.457389
C107	C	0.536125	1.084920	-0.463713
C108	C	0.633466	1.017760	-0.394102
C109	C	0.662903	1.017734	0.003783
C110	C	0.570541	1.084898	0.001316
C111	C	0.462705	1.118486	-0.041036
C112	C	0.447232	1.084913	-0.080931
C113	C	0.539593	1.017755	-0.078468
C114	C	1.089372	1.017730	-0.311838
C115	C	1.087760	1.084876	-0.381450
C116	C	1.025307	1.118462	-0.457387
C117	C	0.964471	1.084892	-0.463712
C118	C	0.966089	1.017743	-0.394101
H119	H	1.121901	0.413813	-0.089795
H120	H	0.387508	1.173170	-0.043035
C121	C	1.760426	0.282416	0.322960
N122	N	1.846771	0.254605	0.317704
H123	H	1.115863	0.291978	-0.085308
H124	H	1.718177	0.231076	0.462548
C125	C	0.324804	1.192367	-0.533957
N126	N	0.244140	1.248004	-0.591625
H127	H	0.516738	0.990394	-0.250013
H128	H	0.359420	1.112271	-0.115414
H129	H	1.554060	0.413820	0.198497
H130	H	0.340157	1.112231	-0.376287
C131	C	0.587586	1.121808	0.045213
N132	N	0.600428	1.149605	0.078278
H133	H	1.529092	0.291968	0.474034
C134	C	1.322694	0.423383	0.349557
N135	N	1.236349	0.451182	0.354815
C136	C	0.522552	0.980825	-0.122343
N137	N	0.509708	0.953012	-0.155390
C138	C	0.895821	1.121815	-0.547250
N139	N	0.844126	1.149618	-0.610173
C140	C	0.899145	0.980842	-0.401074
N141	N	0.848716	0.953055	-0.406332
H142	H	0.429566	0.769024	-0.061675
C143	C	0.781515	0.980804	0.050372
N144	N	0.870851	0.952997	0.085461
H145	H	0.541711	1.112278	-0.525550
C146	C	1.158087	0.980793	-0.228313
N147	N	1.209853	0.952971	-0.165404
C148	C	1.154682	1.121795	-0.374475
N149	N	1.205087	1.149601	-0.369219
H150	H	1.023998	1.173140	-0.514063
H151	H	1.156542	0.112236	-0.115424
H152	H	0.954950	0.112217	0.033812
H153	H	0.718323	0.990426	-0.399262
C154	C	0.897903	0.282383	0.076015
N155	N	0.850482	0.254566	0.111107
H156	H	1.150495	-0.009600	-0.110949
H157	H	0.920300	0.413812	0.059436
H158	H	0.948886	-0.009594	0.038275
H159	H	0.728627	0.557038	0.052103
H160	H	0.545249	0.557035	0.052096
C161	C	0.517407	0.792508	-0.074276
N162	N	0.430009	0.860600	-0.110823
H163	H	0.906349	0.702104	-0.737446
C164	C	0.912726	0.423378	0.176827
N165	N	0.860980	0.451169	0.113926
H166	H	1.320098	0.413833	-0.089802
C167	C	0.892299	0.702255	-0.606106
N168	N	0.825565	0.702428	-0.578378
H169	H	1.155430	0.702105	-0.435890
H170	H	0.854704	0.702106	-0.435871
H171	H	0.863727	0.702110	-0.314039
H172	H	1.164451	0.702118	-0.314072
H173	H	1.207081	0.702100	-0.737472
C174	C	1.483212	0.282421	-0.096743
N175	N	1.470370	0.254611	-0.129795
C176	C	1.240509	0.702086	-0.606039
N177	N	1.311249	0.702070	-0.578215
C178	C	1.548247	0.423379	0.070838
N179	N	1.561091	0.451170	0.103909
C180	C	1.175081	0.282415	0.495713
N181	N	1.226853	0.254603	0.558617
C182	C	1.709682	0.211886	-0.007812
N183	N	1.786194	0.156242	-0.005780
H184	H	1.711378	0.291972	0.063869
H185	H	1.046868	0.231077	0.462594
H186	H	1.154248	0.413822	0.347717
H187	H	0.933542	0.291971	0.324847
