data_functionalizedCrystal
_audit_creation_method	'MofGen! by Chris Wilmer'
_symmetry_space_group_name_H-M	'P1'
_symmetry_Int_Tables_number	1
_symmetry_cell_setting	triclinic
loop_
_symmetry_equiv_pos_as_xyz
  x,y,z
_cell_length_a	12.759400
_cell_length_b	19.077372
_cell_length_c	19.076919
_cell_angle_alpha	85.525334
_cell_angle_beta	92.274856
_cell_angle_gamma	87.684540
loop_
_atom_site_label
_atom_site_type_symbol
_atom_site_fract_x
_atom_site_fract_y
_atom_site_fract_z
Zn1	Zn	-0.375906	-1.061714	-0.355495
Zn2	Zn	-0.544250	-1.066388	-0.237620
Zn3	Zn	-0.375938	-0.948570	-0.242340
Zn4	Zn	-0.558898	-0.943819	-0.360179
O5	O	-0.463748	-1.005123	-0.298908
O6	O	-0.392094	-1.160981	-0.335923
O7	O	-0.515807	-1.054703	-0.139599
O8	O	-0.228912	-0.963611	-0.257365
O9	O	-0.515775	-1.164415	-0.249321
O10	O	-0.228888	-1.046738	-0.340499
O11	O	-0.392148	-0.968143	-0.143067
O12	O	-0.406352	-0.849292	-0.261907
O13	O	-0.540741	-0.955514	-0.458204
O14	O	-0.540772	-0.845802	-0.348482
O15	O	-0.406297	-1.042131	-0.454763
O16	O	-0.693215	-1.050097	-0.253863
O17	O	-0.703977	-0.960046	-0.343906
C18	C	-0.475155	-0.821969	-0.306215
C19	C	-0.480062	-0.743614	-0.309358
C20	C	-0.515173	-0.302366	-0.331936
C21	C	-0.510570	-0.375989	-0.328970
C22	C	-0.438180	-0.414591	-0.282486
C23	C	-0.370396	-0.379568	-0.238960
C24	C	-0.375005	-0.305946	-0.241923
C25	C	-0.416886	-0.634969	-0.268796
C26	C	-0.412280	-0.708595	-0.265837
C27	C	-0.552457	-0.705011	-0.355846
C28	C	-0.557055	-0.631389	-0.358808
C29	C	-0.489274	-0.596371	-0.315280
N30	N	-0.433471	-0.489846	-0.279455
N31	N	-0.493989	-0.521118	-0.318308
C32	C	-0.736717	-1.005081	-0.298895
C33	C	-0.853492	-1.005127	-0.298911
C34	C	-0.902715	-1.052065	-0.252073
C35	C	-1.012438	-1.052107	-0.252093
C36	C	-1.023705	-0.958268	-0.345791
C37	C	-0.913984	-0.958230	-0.345773
C38	C	-0.842224	-1.098962	-0.205210
C39	C	-0.891447	-1.145903	-0.158368
C40	C	-1.001169	-1.145946	-0.158388
C41	C	-1.061669	-1.099047	-0.205250
C42	C	-0.189713	-1.005183	-0.298936
C43	C	-0.072935	-1.005208	-0.298948
C44	C	-0.475149	-0.997771	-0.482777
C45	C	-0.480008	-0.994638	-0.561131
C46	C	-0.452291	-0.188992	-0.291565
C47	C	-0.447392	-0.267347	-0.288415
C48	C	-0.412296	-1.038261	-0.596151
C49	C	-0.416857	-1.035309	-0.669773
C50	C	-0.489137	-0.988737	-0.708374
C51	C	-0.556851	-0.945109	-0.673348
C52	C	-0.552284	-0.948058	-0.599728
C53	C	-0.510298	-0.975077	-0.928748
C54	C	-0.514862	-0.972133	-1.002374
C55	C	-0.374866	-1.062332	-0.998794
C56	C	-0.370309	-1.065280	-0.925172
C57	C	-0.438020	-1.021650	-0.890153
N58	N	-0.493803	-0.985719	-0.783627
N59	N	-0.433348	-1.024664	-0.814901
C60	C	-0.452313	-1.012486	-0.115753
C61	C	-0.447150	-1.015756	-0.037394
H62	H	-0.565768	-0.404498	-0.364407
H63	H	-1.072972	-0.920085	-0.383943
Cl64	Cl	-0.852098	-0.899223	-0.404658
H65	H	-0.752881	-1.098931	-0.205187
Cl66	Cl	-0.289746	-1.117175	-1.042822
H67	H	-1.151012	-1.099091	-0.205268
Cl68	Cl	-0.595421	-0.920228	-0.884734
H69	H	-0.607641	-0.733531	-0.391283
H70	H	-0.615699	-0.907187	-0.704783
Cl71	Cl	-0.606178	-0.253844	-0.390379
Cl72	Cl	-0.648064	-0.582865	-0.417247
Cl73	Cl	-0.605729	-0.913577	-1.050900
H74	H	-0.353318	-0.740024	-0.227990
H75	H	-0.353441	-1.076187	-0.564728
H76	H	-0.361698	-0.606467	-0.233349
H77	H	-0.607412	-0.912529	-0.571216
H78	H	-0.311459	-0.411004	-0.201109
Cl79	Cl	-0.331774	-1.090183	-0.713795
Cl80	Cl	-0.815393	-1.204864	-0.099466
H81	H	-0.319807	-0.277435	-0.206486
Cl82	Cl	-0.279441	-1.123831	-0.876651
Cl83	Cl	-1.063047	-1.204962	-0.099508
