data_functionalizedCrystal
_audit_creation_method	'MofGen! by Chris Wilmer'
_symmetry_space_group_name_H-M	'P1'
_symmetry_Int_Tables_number	1
_symmetry_cell_setting	triclinic
loop_
_symmetry_equiv_pos_as_xyz
  x,y,z
_cell_length_a	10.654541
_cell_length_b	15.625163
_cell_length_c	9.730217
_cell_angle_alpha	71.921059
_cell_angle_beta	90.002369
_cell_angle_gamma	84.351945
loop_
_atom_site_label
_atom_site_type_symbol
_atom_site_fract_x
_atom_site_fract_y
_atom_site_fract_z
O1	O	1.666519	0.126615	0.051134
O2	O	1.300914	0.138682	0.045131
O3	O	1.493491	0.001472	0.113511
O4	O	1.473942	0.263825	-0.017246
O5	O	1.493477	0.001466	-0.115066
O6	O	1.300900	0.138676	-0.183446
O7	O	1.666505	0.126610	-0.177444
Zn8	Zn	1.483700	0.132642	-0.216736
Zn9	Zn	1.483718	0.132649	0.084424
O10	O	1.473928	0.263820	-0.245823
C11	C	1.254118	0.137793	-0.068715
C12	C	1.114702	0.135144	-0.067390
C13	C	1.492601	-0.032124	0.015968
C14	C	1.489955	-0.132221	0.065865
C15	C	1.085016	0.299215	-0.149146
C16	C	1.004678	0.380003	-0.189396
C17	C	0.873686	0.377508	-0.188151
C18	C	0.823031	0.294217	-0.146656
C19	C	0.903370	0.213430	-0.106406
C20	C	1.034363	0.215933	-0.107651
C21	C	0.933055	0.049360	-0.024660
C22	C	1.064048	0.051853	-0.025894
C23	C	0.882401	-0.033931	0.016835
C24	C	0.962740	-0.114720	0.057096
C25	C	1.093739	-0.112222	0.055851
C26	C	1.144386	-0.028934	0.014356
C27	C	1.486232	-0.273297	0.260780
C28	C	1.488719	-0.179241	0.213879
C29	C	1.488699	-0.179247	-0.035307
C30	C	1.486206	-0.273304	0.011573
C31	C	1.484974	-0.320322	0.159618
C32	C	1.484948	-0.320330	-0.089589
C33	C	1.482462	-0.414380	-0.042712
C34	C	1.481234	-0.461405	0.105326
C35	C	1.482488	-0.414373	0.206495
C36	C	1.486188	-0.273311	-0.237633
C37	C	1.484930	-0.320336	-0.338795
C38	C	1.482435	-0.414387	-0.291919
C39	C	1.481208	-0.461412	-0.143881
C40	C	1.481181	-0.461419	-0.393088
C41	C	1.478695	-0.555469	-0.346211
C42	C	1.478722	-0.555462	-0.097004
C43	C	1.713301	0.127498	-0.063595
C44	C	1.852717	0.130147	-0.064911
C45	C	1.474818	0.297415	-0.148277
C46	C	1.477464	0.397513	-0.198166
N47	N	1.483697	0.132637	-0.422270
C48	C	1.331207	0.022252	-0.367306
C49	C	1.254975	-0.032942	-0.411762
C50	C	1.254993	-0.032942	-0.555642
C51	C	1.331249	0.022260	-0.655072
C52	C	1.407481	0.077454	-0.610616
C53	C	1.407457	0.077446	-0.466729
C54	C	1.559963	0.187842	-0.665582
C55	C	1.559953	0.187839	-0.521701
C56	C	1.636219	0.243044	-0.765012
C57	C	1.712460	0.298235	-0.720554
C58	C	1.712439	0.298232	-0.576664
C59	C	1.636185	0.243033	-0.477244
N60	N	1.483732	0.132648	0.289961
H61	H	1.191675	0.301255	-0.150133
F62	F	1.482508	-0.411369	-0.550642
H63	H	1.477667	-0.593758	-0.428588
H64	H	1.636223	0.243044	-0.882167
F65	F	1.477391	-0.605506	0.060563
F66	F	1.283798	-0.026269	0.013035
H67	H	1.485207	-0.311580	0.381332
F68	F	1.331248	0.022269	-0.808207
F69	F	1.058597	0.468643	-0.233556
F70	F	1.173817	-0.091686	-0.305936
H71	H	1.489743	-0.140956	0.296269
F72	F	0.788181	0.463490	-0.231001
H73	H	1.774534	0.343180	-0.801521
F74	F	1.636161	0.243022	-0.324108
H75	H	0.716369	0.292193	-0.145663
H76	H	1.774509	0.343183	-0.540482
H77	H	0.775739	-0.035957	0.017838
H78	H	0.921485	-0.182529	0.090879
H79	H	1.159145	-0.178009	0.088623
H80	H	1.479214	-0.537987	0.143491
F81	F	1.481158	-0.464416	0.364061
H82	H	1.489707	-0.140952	-0.155845
F83	F	1.488843	-0.173214	-0.287520
H84	H	1.485938	-0.282041	-0.459334
H85	H	1.331193	0.022240	-0.250145
H86	H	1.192913	-0.077882	-0.591838
