data_functionalizedCrystal
_audit_creation_method	'MofGen! by Chris Wilmer'
_symmetry_space_group_name_H-M	'P1'
_symmetry_Int_Tables_number	1
_symmetry_cell_setting	triclinic
loop_
_symmetry_equiv_pos_as_xyz
  x,y,z
_cell_length_a	12.759401
_cell_length_b	21.295417
_cell_length_c	12.759401
_cell_angle_alpha	90.015475
_cell_angle_beta	90.000936
_cell_angle_gamma	90.030668
loop_
_atom_site_label
_atom_site_type_symbol
_atom_site_fract_x
_atom_site_fract_y
_atom_site_fract_z
Zn1	Zn	1.605958	-0.250717	0.593925
Zn2	Zn	2.105958	0.249283	1.093925
Zn3	Zn	1.605858	-0.355957	0.418222
Zn4	Zn	2.105858	0.144043	0.918222
Zn5	Zn	1.430314	-0.250706	0.418265
Zn6	Zn	1.930314	0.249294	0.918265
Zn7	Zn	1.430200	-0.355952	0.593864
Zn8	Zn	1.930200	0.144048	1.093864
O9	O	1.518082	-0.303333	0.506069
O10	O	2.018082	0.196667	1.006069
O11	O	1.752966	-0.264683	0.570626
O12	O	2.252966	0.235317	1.070626
O13	O	1.582577	-0.341993	0.271207
O14	O	2.082577	0.158007	0.771207
O15	O	1.453703	-0.162618	0.441610
O16	O	1.953703	0.337382	0.941610
O17	O	1.752892	-0.342003	0.441538
O18	O	2.252892	0.157997	0.941538
O19	O	1.582748	-0.162626	0.570667
O20	O	2.082748	0.337374	1.070667
O21	O	1.453606	-0.264665	0.271238
O22	O	1.953606	0.235335	0.771238
O23	O	1.283278	-0.264661	0.441550
O24	O	1.783278	0.235339	0.941550
O25	O	1.453509	-0.341995	0.740893
O26	O	1.953509	0.158005	1.240893
O27	O	1.283194	-0.341985	0.570562
O28	O	1.783194	0.158015	1.070562
O29	O	1.582638	-0.264679	0.740938
O30	O	2.082638	0.235321	1.240938
O31	O	1.582467	-0.444046	0.441478
O32	O	2.082467	0.055954	0.941478
O33	O	1.453412	-0.444042	0.570521
O34	O	1.953412	0.055958	1.070521
C35	C	1.245115	-0.303321	0.506055
C36	C	1.745115	0.196679	1.006055
C37	C	1.128338	-0.303332	0.506074
C38	C	1.628338	0.196668	1.006074
C39	C	1.073460	-0.343659	0.573139
C40	C	1.573460	0.156341	1.073139
C41	C	0.963736	-0.343667	0.573150
C42	C	1.463736	0.156333	1.073150
C43	C	0.963778	-0.263019	0.439022
C44	C	1.463778	0.236981	0.939022
C45	C	1.073500	-0.263008	0.439017
C46	C	1.573500	0.236992	0.939017
C47	C	1.073435	-0.390222	0.650573
C48	C	1.573435	0.109778	1.150573
C49	C	0.963711	-0.390230	0.650585
C50	C	1.463711	0.109770	1.150585
C51	C	1.517945	-0.466885	0.506011
C52	C	2.017945	0.033115	1.006011
C53	C	1.517982	-0.536853	0.506021
C54	C	2.017982	-0.036853	1.006021
C55	C	1.585240	-0.569700	0.438897
C56	C	2.085240	-0.069700	0.938897
C57	C	1.585290	-0.635443	0.438921
C58	C	2.085290	-0.135443	0.938921
C59	C	1.518061	-0.668335	0.506057
C60	C	2.018061	-0.168335	1.006057
C61	C	1.450798	-0.635480	0.573194
C62	C	1.950798	-0.135480	1.073194
C63	C	1.450758	-0.569738	0.573176
C64	C	1.950758	-0.069738	1.073176
N65	N	1.426152	-0.771602	0.514062
N66	N	1.926152	-0.271602	1.014062
N67	N	1.426193	-0.834054	0.514073
N68	N	1.926193	-0.334054	1.014073
C69	C	1.518179	-0.866410	0.506117
C70	C	2.018179	-0.366410	1.006117
N71	N	1.610125	-0.833955	0.498130
N72	N	2.110125	-0.333955	0.998130
N73	N	1.610083	-0.771498	0.498114
N74	N	2.110083	-0.271498	0.998114
C75	C	1.518098	-0.739621	0.506085
C76	C	2.018098	-0.239621	1.006085
C77	C	1.585497	-0.970543	0.439016
C78	C	2.085497	-0.470543	0.939016
C79	C	1.585548	-1.036287	0.439047
C80	C	2.085548	-0.536287	0.939047
C81	C	1.451047	-1.036322	0.573314
C82	C	1.951047	-0.536322	1.073314
C83	C	1.451005	-0.970580	0.573289
C84	C	1.951005	-0.470580	1.073289
C85	C	1.518229	-0.937694	0.506134
C86	C	2.018229	-0.437694	1.006134
C87	C	1.792115	-0.303345	0.506084
C88	C	2.292115	0.196655	1.006084
C89	C	1.908892	-0.303350	0.506090
C90	C	2.408892	0.196650	1.006090
C91	C	1.518072	-0.303337	0.780102
C92	C	2.018072	0.196663	1.280102
C93	C	1.518067	-0.303339	0.896879
C94	C	2.018067	0.196661	1.396879
C95	C	1.518249	-0.139143	0.506150
C96	C	2.018249	0.360857	1.006150
C97	C	1.518320	-0.069175	0.506185
C98	C	2.018320	0.430825	1.006185
C99	C	1.450837	-0.343592	0.951719
C100	C	1.950837	0.156408	1.451719
C101	C	1.450844	-0.343595	1.061443
C102	C	1.950844	0.156405	1.561443
C103	C	1.585315	-0.263088	1.061477
C104	C	2.085315	0.236912	1.561477
C105	C	1.585312	-0.263088	0.951755
C106	C	2.085312	0.236912	1.451755
C107	C	1.373198	-0.390070	0.951700
C108	C	1.873198	0.109930	1.451700
C109	C	1.373205	-0.390074	1.061424
C110	C	1.873205	0.109926	1.561424
C111	C	1.518082	-0.303343	1.233102
C112	C	2.018082	0.196657	1.733102
C113	C	1.518078	-0.303342	1.116325
C114	C	2.018078	0.196658	1.616325
H115	H	1.640063	-0.662193	0.384261
H116	H	2.140063	-0.162193	0.884261
H117	H	1.291851	-0.377008	1.091210
H118	H	1.791851	0.122992	1.591210
H119	H	1.396063	-0.662265	0.627859
H120	H	1.896063	-0.162265	1.127859
H121	H	1.103225	-0.377241	0.731983
H122	H	1.603225	0.122759	1.231983
O123	O	1.270841	-0.366932	0.906625
O124	O	1.770841	0.133068	1.406625
H125	H	1.275060	-0.367881	0.819751
H126	H	1.775060	0.132119	1.319751
H127	H	1.107437	-0.436501	0.621279
H128	H	1.607437	0.063499	1.121279
O129	O	1.132695	-0.219521	0.366671
O130	O	1.632695	0.280479	0.866671
H131	H	1.076126	-0.191493	0.320033
H132	H	1.576126	0.308507	0.820033
H133	H	1.396313	-1.063103	0.627983
H134	H	1.896313	-0.563103	1.127983
H135	H	1.394951	-0.438823	0.921902
H136	H	1.894951	0.061177	1.421902
O137	O	0.904633	-0.219543	0.366672
O138	O	1.404633	0.280457	0.866672
H139	H	0.819116	-0.226331	0.377930
H140	H	1.319116	0.273669	0.877930
H141	H	0.929698	-0.372847	0.727941
H142	H	1.429698	0.127153	1.227941
O143	O	0.924207	-0.454779	0.621503
O144	O	1.424207	0.045221	1.121503
H145	H	0.991884	-0.486373	0.607245
H146	H	1.491884	0.013627	1.107245
H147	H	1.639980	-0.542927	0.384218
H148	H	2.139980	-0.042927	0.884218
H149	H	1.395987	-0.542993	0.627838
H150	H	1.895987	-0.042993	1.127838
H151	H	1.396233	-0.943834	0.627943
H152	H	1.896233	-0.443834	1.127943
O153	O	1.658010	-0.935066	0.366604
O154	O	2.158010	-0.435066	0.866604
H155	H	1.704804	-0.968955	0.319944
H156	H	2.204804	-0.468955	0.819944
O157	O	1.657838	-0.219676	1.120672
O158	O	2.157838	0.280324	1.620672
H159	H	1.704592	-0.191689	1.064101
H160	H	2.204592	0.308311	1.564101
H161	H	1.640324	-1.063030	0.384389
H162	H	2.140324	-0.563030	0.884389
O163	O	1.411744	-0.451423	1.106479
O164	O	1.911744	0.048577	1.606479
H165	H	1.410170	-0.448893	1.193354
H166	H	1.910170	0.051107	1.693354
O167	O	1.657837	-0.219681	0.892601
O168	O	2.157837	0.280319	1.392601
H169	H	1.704589	-0.191691	0.949196
H170	H	2.204589	0.308309	1.449196
