data_functionalizedCrystal
_audit_creation_method	'MofGen! by Chris Wilmer'
_symmetry_space_group_name_H-M	'P1'
_symmetry_Int_Tables_number	1
_symmetry_cell_setting	triclinic
loop_
_symmetry_equiv_pos_as_xyz
  x,y,z
_cell_length_a	14.519709
_cell_length_b	14.519709
_cell_length_c	13.930277
_cell_angle_alpha	89.994503
_cell_angle_beta	89.998398
_cell_angle_gamma	83.680145
loop_
_atom_site_label
_atom_site_type_symbol
_atom_site_fract_x
_atom_site_fract_y
_atom_site_fract_z
O1	O	1.223871	0.120891	-0.079708
O2	O	1.723871	0.620891	0.420292
O3	O	0.955394	0.135127	-0.079738
O4	O	1.455394	0.635127	0.420262
O5	O	1.096751	-0.006230	-0.079713
O6	O	1.596751	0.493770	0.420287
O7	O	1.082514	0.262247	-0.079732
O8	O	1.582514	0.762247	0.420268
O9	O	1.096731	-0.006233	0.079949
O10	O	1.596731	0.493767	0.579949
O11	O	0.955375	0.135124	0.079924
O12	O	1.455375	0.635124	0.579924
O13	O	1.223852	0.120887	0.079954
O14	O	1.723852	0.620887	0.579954
Zn15	Zn	1.089610	0.128005	0.105289
Zn16	Zn	1.589610	0.628005	0.605289
Zn17	Zn	1.089636	0.128009	-0.105073
Zn18	Zn	1.589636	0.628009	0.394927
O19	O	1.082495	0.262244	0.079930
O20	O	1.582495	0.762244	0.579930
C21	C	0.921025	0.134462	0.000090
C22	C	1.421025	0.634462	0.500090
C23	C	0.818643	0.132474	0.000079
C24	C	1.318643	0.632474	0.500079
C25	C	0.443748	0.125154	0.000123
C26	C	0.943748	0.625154	0.500123
C27	C	0.548056	0.127187	0.000110
C28	C	1.048056	0.627187	0.500110
C29	C	0.631192	0.128814	0.000100
C30	C	1.131192	0.628814	0.500100
C31	C	0.735507	0.130847	0.000089
C32	C	1.235507	0.630847	0.500089
C33	C	1.096078	-0.040591	0.000118
C34	C	1.596078	0.459409	0.500118
C35	C	1.094090	-0.142972	0.000118
C36	C	1.594090	0.357028	0.500118
C37	C	1.086770	-0.517868	0.000092
C38	C	1.586770	-0.017868	0.500092
C39	C	1.088803	-0.413560	0.000100
C40	C	1.588803	0.086440	0.500100
C41	C	1.090430	-0.330423	0.000106
C42	C	1.590430	0.169577	0.500106
C43	C	1.092463	-0.226109	0.000112
C44	C	1.592463	0.273891	0.500112
C45	C	1.258221	0.121553	0.000125
C46	C	1.758221	0.621553	0.500125
C47	C	1.360602	0.123541	0.000129
C48	C	1.860602	0.623541	0.500129
C49	C	1.083168	0.296606	0.000097
C50	C	1.583168	0.796606	0.500097
C51	C	1.085156	0.398987	0.000090
C52	C	1.585156	0.898987	0.500090
N53	N	1.089599	0.128002	0.248855
N54	N	1.589599	0.628002	0.748855
N55	N	1.089654	0.128005	-0.248639
N56	N	1.589654	0.628005	0.251361
C57	C	1.027041	0.190577	0.701113
C58	C	1.527041	0.690577	1.201113
C59	C	1.152256	0.065434	0.701104
C60	C	1.652256	0.565434	1.201104
C61	C	1.152246	0.065431	0.600609
C62	C	1.652246	0.565431	1.100609
C63	C	1.089632	0.128003	0.550361
C64	C	1.589632	0.628003	1.050361
C65	C	1.027030	0.190578	0.600608
C66	C	1.527030	0.690578	1.100608
C67	C	1.214853	0.002863	0.550353
C68	C	1.714853	0.502863	1.050353
C69	C	1.214845	0.002859	0.449851
C70	C	1.714845	0.502859	0.949851
C71	C	1.152227	0.065427	0.399602
C72	C	1.652227	0.565427	0.899602
C73	C	1.089621	0.128004	0.449856
C74	C	1.589621	0.628004	0.949856
C75	C	1.027008	0.190576	0.399608
C76	C	1.527008	0.690576	0.899608
C77	C	0.964397	0.253149	0.449860
C78	C	1.464397	0.753149	0.949860
C79	C	0.964411	0.253147	0.550359
C80	C	1.464411	0.753147	1.050359
C81	C	1.152212	0.065430	0.299103
C82	C	1.652212	0.565430	0.799103
C83	C	1.026997	0.190577	0.299103
C84	C	1.526997	0.690577	0.799103
H85	H	0.976005	0.241528	0.258197
H86	H	1.476005	0.741528	0.758197
O87	O	1.219790	-0.002045	0.755301
O88	O	1.719790	0.497955	1.255301
H89	H	1.263324	-0.045551	0.703474
H90	H	1.763324	0.454449	1.203474
H91	H	0.913436	0.304092	0.591280
H92	H	1.413436	0.804092	1.091280
O93	O	1.219709	-0.002069	0.244892
O94	O	1.719709	0.497931	0.744892
H95	H	1.264589	0.036839	0.199083
H96	H	1.764589	0.536839	0.699083
O97	O	0.896849	0.320624	0.395662
O98	O	1.396849	0.820624	0.895662
H99	H	0.907358	0.310100	0.317338
H100	H	1.407358	0.810100	0.817338
H101	H	0.976061	0.241521	0.742031
H102	H	1.476061	0.741521	1.242031
H103	H	1.265836	-0.048077	0.591268
H104	H	1.765836	0.451923	1.091268
O105	O	1.282360	-0.064636	0.395652
O106	O	1.782360	0.435364	0.895652
H107	H	1.325895	-0.108151	0.447478
H108	H	1.825895	0.391849	0.947478
