data_functionalizedCrystal
_audit_creation_method	'MofGen! by Chris Wilmer'
_symmetry_space_group_name_H-M	'P1'
_symmetry_Int_Tables_number	1
_symmetry_cell_setting	triclinic
loop_
_symmetry_equiv_pos_as_xyz
  x,y,z
_cell_length_a	13.339070
_cell_length_b	16.053948
_cell_length_c	13.262846
_cell_angle_alpha	108.762019
_cell_angle_beta	80.564830
_cell_angle_gamma	87.952813
loop_
_atom_site_label
_atom_site_type_symbol
_atom_site_fract_x
_atom_site_fract_y
_atom_site_fract_z
O1	O	1.347333	-0.050966	-0.530511
O2	O	1.051634	-0.035011	-0.460203
O3	O	1.204981	-0.008229	-0.342204
O4	O	1.193986	-0.077748	-0.648510
O5	O	1.212729	-0.149418	-0.352484
O6	O	1.059381	-0.176200	-0.470483
O7	O	1.355081	-0.192155	-0.540791
Zn8	Zn	1.208461	-0.206594	-0.507269
Zn9	Zn	1.198254	-0.020572	-0.493724
O10	O	1.201734	-0.218937	-0.658790
C11	C	1.017621	-0.102910	-0.453466
C12	C	0.904728	-0.094877	-0.418066
N13	N	1.215435	-0.333550	-0.516514
C14	C	1.155160	-0.359160	-0.436727
C15	C	1.160064	-0.448037	-0.443214
C16	C	1.225249	-0.511302	-0.529485
C17	C	1.285526	-0.485687	-0.609280
C18	C	1.280616	-0.396813	-0.602796
C19	C	1.246655	-0.779125	-0.557784
C20	C	1.251563	-0.868005	-0.564261
C21	C	1.126099	-0.830348	-0.398195
C22	C	1.121199	-0.741473	-0.391715
C23	C	1.181472	-0.715867	-0.471513
N24	N	1.230265	-0.602149	-0.536116
N25	N	1.176450	-0.625022	-0.464885
C26	C	0.544525	-0.157336	-0.693322
C27	C	0.650592	-0.164882	-0.726586
C28	C	0.714131	-0.147382	-0.649459
C29	C	0.671593	-0.122333	-0.539062
C30	C	0.565515	-0.114779	-0.505794
C31	C	0.735121	-0.104825	-0.461931
C32	C	0.692583	-0.079777	-0.351534
C33	C	0.586516	-0.072225	-0.318272
C34	C	0.522976	-0.089725	-0.395399
C35	C	0.841199	-0.112379	-0.495198
C36	C	0.862190	-0.069823	-0.307671
C37	C	0.756123	-0.062276	-0.274407
C38	C	1.389094	-0.124254	-0.547527
C39	C	1.501986	-0.132282	-0.582927
C40	C	1.207522	-0.069742	-0.307339
C41	C	1.203538	-0.042682	-0.188134
N42	N	1.191288	0.106385	-0.484473
C43	C	1.197456	0.046999	-0.126555
C44	C	1.193724	0.072443	-0.014557
C45	C	1.196082	0.008208	0.035874
C46	C	1.202171	-0.081476	-0.025706
C47	C	1.205896	-0.106921	-0.137714
C48	C	1.204521	-0.145713	0.024715
C49	C	1.210611	-0.235396	-0.036865
C50	C	1.214336	-0.260838	-0.148862
C51	C	1.211978	-0.196602	-0.199293
C52	C	1.200797	-0.120267	0.136723
C53	C	1.209236	-0.274188	0.125564
C54	C	1.212969	-0.299632	0.013565
C55	C	1.199187	-0.157430	0.306346
C56	C	1.203154	-0.184507	0.187142
H57	H	1.110982	-0.468883	-0.378242
O58	O	1.057787	-0.680139	-0.307866
C59	C	1.005655	-0.721798	-0.238817
H60	H	1.003955	-0.794792	-0.285915
H61	H	0.924190	-0.689272	-0.206685
H62	H	1.046664	-0.715018	-0.168019
H63	H	0.492782	-0.171575	-0.756106
O64	O	0.691774	-0.189105	-0.833841
C65	C	0.655464	-0.127063	-0.877404
H66	H	0.580103	-0.091153	-0.824800
H67	H	0.643119	-0.162710	-0.963235
H68	H	0.713809	-0.077159	-0.879405
H69	H	1.217927	-0.372653	-0.036588
H70	H	1.211152	-0.326494	0.166624
O71	O	1.220066	-0.347938	-0.208695
C72	C	1.134698	-0.364112	-0.259964
H73	H	1.069818	-0.310572	-0.213353
H74	H	1.109007	-0.431409	-0.261507
H75	H	1.156235	-0.363435	-0.346488
O76	O	0.545076	-0.048004	-0.211074
C77	C	0.488374	-0.115492	-0.191540
H78	H	0.464709	-0.157217	-0.269741
H79	H	0.417322	-0.084727	-0.127272
H80	H	0.537236	-0.159104	-0.161812
H81	H	0.875823	-0.132777	-0.585084
O82	O	1.194740	-0.033125	0.196449
C83	C	1.105275	0.010611	0.186364
H84	H	1.079921	-0.028697	0.108077
H85	H	1.121273	0.079440	0.184523
H86	H	1.042288	0.016456	0.258337
O87	O	0.923752	-0.052753	-0.232596
C88	C	0.863464	-0.029039	-0.128026
H89	H	0.783309	-0.003161	-0.129852
H90	H	0.899209	0.024652	-0.069078
H91	H	0.859124	-0.089428	-0.100590
H92	H	0.721472	-0.041874	-0.184519
H93	H	1.188768	0.145463	0.035573
O94	O	0.817144	-0.154634	-0.681892
C95	C	0.842821	-0.095687	-0.739084
H96	H	0.774229	-0.079374	-0.772883
H97	H	0.909523	-0.127648	-0.808633
H98	H	0.865475	-0.032377	-0.681984
O99	O	1.192495	0.033070	0.144672
C100	C	1.186588	0.126001	0.188214
H101	H	1.218434	0.153768	0.121757
H102	H	1.233050	0.145936	0.255708
H103	H	1.103506	0.153444	0.222387
H104	H	0.436607	-0.083583	-0.368321
H105	H	1.102083	-0.307653	-0.366473
H106	H	1.195531	0.099290	-0.167625
H107	H	1.077026	-0.851207	-0.333229
O108	O	1.314909	-0.929356	-0.648167
C109	C	1.367076	-0.887695	-0.717195
H110	H	1.321596	-0.822948	-0.706378
H111	H	1.376197	-0.932868	-0.804948
H112	H	1.445616	-0.873583	-0.696077
H113	H	1.295738	-0.758288	-0.622758
O114	O	1.215779	-0.221373	-0.308122
C115	C	1.307112	-0.275262	-0.362475
H116	H	1.366254	-0.261445	-0.307532
H117	H	1.337253	-0.260188	-0.439663
H118	H	1.291684	-0.347727	-0.384181
H119	H	1.338597	-0.537206	-0.679527
H120	H	1.329696	-0.375965	-0.667770
