data_functionalizedCrystal
_audit_creation_method	'MofGen! by Chris Wilmer'
_symmetry_space_group_name_H-M	'P1'
_symmetry_Int_Tables_number	1
_symmetry_cell_setting	triclinic
loop_
_symmetry_equiv_pos_as_xyz
  x,y,z
_cell_length_a	15.538191
_cell_length_b	15.624803
_cell_length_c	11.295483
_cell_angle_alpha	67.864992
_cell_angle_beta	87.538248
_cell_angle_gamma	113.264802
loop_
_atom_site_label
_atom_site_type_symbol
_atom_site_fract_x
_atom_site_fract_y
_atom_site_fract_z
O1	O	-0.083171	1.207149	-0.620425
O2	O	-0.105491	0.930004	-0.500721
O3	O	0.044224	1.122525	-0.583869
O4	O	-0.232886	1.014629	-0.537278
O5	O	0.031094	1.105622	-0.378518
O6	O	-0.118621	0.913101	-0.295370
O7	O	-0.096302	1.190246	-0.415075
Cu8	Cu	-0.108660	1.050131	-0.336472
Cu9	Cu	-0.093132	1.070120	-0.579323
O10	O	-0.246016	0.997726	-0.331927
C11	C	-0.112351	0.886949	-0.383099
C12	C	-0.113218	0.783845	-0.338566
C13	C	-0.080223	0.490937	-0.751918
C14	C	-0.081018	0.394063	-0.710074
C15	C	-0.095332	0.375612	-0.486198
C16	C	-0.094533	0.472489	-0.528025
C17	C	-0.086979	0.530143	-0.660886
C18	C	-0.101290	0.511695	-0.436992
C19	C	-0.100495	0.608561	-0.478815
C20	C	-0.092945	0.666220	-0.611670
C21	C	-0.086185	0.627009	-0.702708
C22	C	-0.108850	0.454036	-0.304131
C23	C	-0.115607	0.493243	-0.213098
C24	C	-0.114806	0.590113	-0.254922
C25	C	-0.107255	0.647772	-0.387776
C26	C	-0.121566	0.629324	-0.163883
C27	C	-0.120772	0.726190	-0.205705
C28	C	-0.106461	0.744638	-0.429599
C29	C	-0.274845	0.994889	-0.429728
C30	C	-0.380307	0.961263	-0.415210
C31	C	-0.659269	1.295326	-0.559485
C32	C	-0.758370	1.263706	-0.545829
C33	C	-0.785514	1.085850	-0.469010
C34	C	-0.686413	1.117456	-0.482666
C35	C	-0.623297	1.222195	-0.527903
C36	C	-0.650441	1.044324	-0.451083
C37	C	-0.551348	1.075927	-0.464732
C38	C	-0.488227	1.180662	-0.509963
C39	C	-0.524205	1.253798	-0.541551
C40	C	-0.713559	0.939585	-0.405838
C41	C	-0.677587	0.866454	-0.374255
C42	C	-0.578492	0.898057	-0.387912
C43	C	-0.515371	1.002791	-0.433144
C44	C	-0.542515	0.824921	-0.356324
C45	C	-0.443422	0.856524	-0.369973
C46	C	-0.416279	1.034394	-0.446792
C47	C	0.073053	1.125362	-0.486070
C48	C	0.178515	1.158988	-0.500597
C49	C	-0.089442	1.233302	-0.532699
C50	C	-0.088574	1.336407	-0.577240
N51	N	-0.119581	1.036078	-0.165667
N52	N	-0.082204	1.084183	-0.750133
C53	C	-0.003538	1.185359	0.019150
C54	C	-0.011797	1.174743	0.148398
C55	C	-0.144354	1.004230	0.222081
C56	C	-0.136094	1.014845	0.092833
C57	C	-0.065685	1.105413	-0.008630
C58	C	-0.057431	1.116031	-0.137881
C59	C	-0.189982	0.945515	-0.064195
C60	C	-0.198242	0.934900	0.065053
H61	H	-0.092304	0.745091	-0.645718
H62	H	-0.787652	1.323266	-0.571549
O63	O	-0.462831	1.355549	-0.585714
C64	C	-0.397886	1.387889	-0.702237
H65	H	-0.430703	1.334016	-0.750659
H66	H	-0.382465	1.469845	-0.772068
H67	H	-0.327974	1.385957	-0.678208
H68	H	-0.100307	0.791585	-0.537788
O69	O	-0.128785	0.573466	-0.034818
C70	C	-0.050387	0.629756	0.006544
H71	H	-0.020249	0.715464	-0.061156
H72	H	-0.075472	0.616026	0.111239
H73	H	0.007953	0.603295	0.002997
O74	O	-0.598086	1.397108	-0.603404
C75	C	-0.651078	1.454890	-0.628401
H76	H	-0.728179	1.403100	-0.568532
H77	H	-0.616759	1.521320	-0.599602
H78	H	-0.651146	1.486976	-0.737278
O79	O	-0.250389	0.867975	-0.091360
C80	C	-0.302971	0.904437	-0.179200
H81	H	-0.261978	0.991859	-0.235659
H82	H	-0.313222	0.867850	-0.251049
H83	H	-0.376229	0.883088	-0.121926
O84	O	-0.212617	0.916253	0.320791
C85	C	-0.167969	0.869586	0.413043
H86	H	-0.093865	0.930215	0.405502
H87	H	-0.213818	0.834013	0.516086
H88	H	-0.160123	0.806796	0.392142
H89	H	-0.836916	1.000571	-0.432174
H90	H	-0.126279	0.758110	-0.131576
H91	H	-0.364885	1.119685	-0.483647
O92	O	-0.391974	1.211398	-0.523029
C93	C	-0.358216	1.262009	-0.442333
H94	H	-0.420310	1.236108	-0.359451
H95	H	-0.300048	1.241900	-0.399220
H96	H	-0.326991	1.348944	-0.503072
O97	O	-0.109810	0.359859	-0.263568
C98	C	-0.188740	0.294336	-0.294449
H99	H	-0.211553	0.342822	-0.378472
H100	H	-0.167262	0.242586	-0.325125
H101	H	-0.251228	0.244617	-0.204723
H102	H	-0.000103	1.189777	-0.220494
H103	H	0.038810	1.239842	0.171010
H104	H	-0.074068	0.537884	-0.860107
O105	O	0.064930	1.273383	-0.079254
C106	C	0.117993	1.341686	-0.027025
H107	H	0.112192	1.296180	0.081507
H108	H	0.196652	1.384528	-0.081554
H109	H	0.088044	1.399579	-0.038793
H110	H	-0.255565	0.861159	0.147679
H111	H	-0.080030	0.673956	-0.810897
H112	H	-0.414136	0.796972	-0.344240
O113	O	-0.738796	0.764700	-0.330472
C114	C	-0.716055	0.727089	-0.416822
H115	H	-0.637981	0.778242	-0.473108
H116	H	-0.726611	0.644841	-0.358241
H117	H	-0.765182	0.727769	-0.488939
O118	O	-0.102544	0.319759	-0.357135
C119	C	-0.024142	0.376059	-0.315788
H120	H	0.005988	0.461765	-0.383493
H121	H	-0.049219	0.362333	-0.211093
H122	H	0.034202	0.349604	-0.319343
H123	H	-0.794246	0.913857	-0.394719
H124	H	-0.593918	0.739641	-0.319480
O125	O	-0.122818	0.437389	-0.084035
C126	C	-0.044416	0.493689	-0.042688
H127	H	-0.014286	0.579395	-0.110393
H128	H	-0.069494	0.479964	0.062007
H129	H	0.013927	0.467235	-0.046243
O130	O	-0.074579	0.356022	-0.798603
C131	C	-0.152592	0.347025	-0.860372
H132	H	-0.181564	0.401986	-0.853404
H133	H	-0.127462	0.367372	-0.967927
H134	H	-0.211833	0.264445	-0.809737
