data_functionalizedCrystal
_audit_creation_method	'MofGen! by Chris Wilmer'
_symmetry_space_group_name_H-M	'P1'
_symmetry_Int_Tables_number	1
_symmetry_cell_setting	triclinic
loop_
_symmetry_equiv_pos_as_xyz
  x,y,z
_cell_length_a	15.538191
_cell_length_b	16.992695
_cell_length_c	16.053802
_cell_angle_alpha	87.258926
_cell_angle_beta	91.559283
_cell_angle_gamma	68.970158
loop_
_atom_site_label
_atom_site_type_symbol
_atom_site_fract_x
_atom_site_fract_y
_atom_site_fract_z
O1	O	-1.234790	0.253663	-0.069436
O2	O	-0.967204	0.165025	-0.069436
O3	O	-1.099924	0.323181	-0.069429
O4	O	-1.102070	0.095507	-0.069443
O5	O	-1.092617	0.314503	0.069429
O6	O	-0.959897	0.156347	0.069422
O7	O	-1.227483	0.244984	0.069423
Zn8	Zn	-1.092530	0.199288	0.091469
Zn9	Zn	-1.102158	0.210722	-0.091483
O10	O	-1.094763	0.086829	0.069416
C11	C	-0.929153	0.151412	-0.000007
C12	C	-0.826659	0.123789	-0.000007
C13	C	-1.093511	0.347269	-0.000000
C14	C	-1.085276	0.431969	-0.000000
C15	C	-1.265534	0.258598	-0.000008
C16	C	-1.368029	0.286222	-0.000014
C17	C	-0.518209	0.398222	-0.000004
C18	C	-0.421899	0.372246	-0.000006
C19	C	-0.410455	0.226138	-0.000015
C20	C	-0.506766	0.252101	-0.000008
C21	C	-0.560636	0.338145	-0.000004
C22	C	-0.549193	0.192024	-0.000008
C23	C	-0.645496	0.217986	-0.000006
C24	C	-0.699372	0.304025	-0.000005
C25	C	-0.656938	0.364107	-0.000002
C26	C	-0.495322	0.105981	-0.000018
C27	C	-0.537749	0.045904	-0.000018
C28	C	-0.634053	0.071865	-0.000011
C29	C	-0.687929	0.157904	-0.000009
C30	C	-0.676487	0.011784	-0.000013
C31	C	-0.772790	0.037745	-0.000011
C32	C	-0.784232	0.183866	-0.000007
C33	C	-1.101177	0.062741	-0.000015
C34	C	-1.109412	-0.021959	-0.000020
N35	N	-1.085966	0.191486	0.216329
C36	C	-1.164729	0.504823	0.000001
C37	C	-1.156987	0.584406	-0.000007
C38	C	-1.069790	0.591134	-0.000010
C39	C	-0.990331	0.518273	-0.000014
C40	C	-0.998075	0.438692	-0.000012
C41	C	-1.037696	0.825598	-0.000022
C42	C	-1.029958	0.905187	-0.000021
C43	C	-1.196615	0.971316	-0.000016
C44	C	-1.204351	0.891730	-0.000009
C45	C	-1.124892	0.818876	-0.000017
N46	N	-1.061874	0.672480	-0.000016
N47	N	-1.132809	0.737532	-0.000018
N48	N	-1.108728	0.218532	-0.216343
C49	C	-1.142462	0.258770	0.260026
C50	C	-1.137879	0.253308	0.347433
C51	C	-1.076805	0.180559	0.391141
C52	C	-1.020303	0.113271	0.347438
C53	C	-1.024881	0.118737	0.260033
C54	C	-1.056805	0.156709	0.652549
C55	C	-1.052232	0.151248	0.739960
C56	C	-1.169808	0.291286	0.739949
C57	C	-1.174385	0.296743	0.652543
C58	C	-1.117879	0.229457	0.608847
N59	N	-1.072122	0.174974	0.480484
N60	N	-1.122559	0.235045	0.519505
H61	H	-0.777788	0.325163	-0.000014
C62	C	-1.199069	0.326405	0.394914
C63	C	-1.143790	0.356330	0.445094
C64	C	-1.200129	0.423678	0.488834
H65	H	-1.237764	0.307658	0.429067
H66	H	-1.236082	0.370547	0.356387
H67	H	-1.106793	0.312197	0.483617
H68	H	-1.105097	0.375095	0.410962
H69	H	-1.237142	0.467820	0.450307
H70	H	-1.238821	0.404923	0.522982
H71	H	-1.162631	0.443996	0.522880
H72	H	-0.387359	0.421176	-0.000008
H73	H	-1.261306	1.030640	-0.000011
H74	H	-1.224116	0.355981	0.616957
H75	H	-0.933375	0.379372	-0.000013
H76	H	-0.958948	0.910657	-0.000010
C77	C	-0.352072	0.132686	0.000112
C78	C	-0.368302	0.090460	0.071542
C79	C	-0.314548	0.004369	0.071683
H80	H	-0.288615	0.125705	0.000152
H81	H	-0.368071	0.109907	-0.048285
H82	H	-0.352296	0.113232	0.119927
H83	H	-0.431748	0.097417	0.071517
H84	H	-0.330547	-0.018410	0.023286
H85	H	-0.251094	-0.002604	0.071721
H86	H	-0.325558	-0.024294	0.120143
H87	H	-1.221686	0.643723	-0.000005
C88	C	-0.951502	0.746426	0.000105
C89	C	-0.947329	0.694332	0.071532
C90	C	-0.867944	0.621381	0.071672
H91	H	-0.898390	0.761709	0.000149
H92	H	-0.953602	0.716984	-0.048294
H93	H	-0.945220	0.723769	0.119919
H94	H	-1.000422	0.679027	0.071504
H95	H	-0.870045	0.591939	0.023272
H96	H	-0.814839	0.636672	0.071713
H97	H	-0.865107	0.586023	0.120130
H98	H	-0.493876	-0.024153	-0.000025
C99	C	-0.963658	0.045587	0.212631
C100	C	-0.983191	-0.026925	0.233856
C101	C	-0.926814	-0.094324	0.190198
H102	H	-0.900700	0.035429	0.226934
H103	H	-0.975138	0.059211	0.154308
H104	H	-0.971703	-0.040547	0.292165
H105	H	-1.046138	-0.016794	0.219550
H106	H	-0.938294	-0.080700	0.131876
H107	H	-0.863859	-0.104474	0.204505
H108	H	-0.940065	-0.143529	0.204587
H109	H	-1.010797	0.101921	0.616979
H110	H	-0.807334	-0.011176	-0.000004
H111	H	-0.970570	0.054039	0.383030
H112	H	-0.919334	0.523757	-0.000022
C113	C	-0.617832	-0.081594	0.000019
C114	C	-0.524413	-0.091472	0.000032
C115	C	-0.470354	-0.177481	0.000073
H116	H	-0.633701	-0.104422	-0.048390
H117	H	-0.628654	-0.110409	0.048462
H118	H	-0.513596	-0.062669	-0.048405
H119	H	-0.508516	-0.068664	0.048439
H120	H	-0.481176	-0.206296	0.048516
H121	H	-0.486231	-0.200301	-0.048338
H122	H	-0.406963	-0.184195	0.000089
C123	C	-1.208800	0.337845	0.212727
C124	C	-1.257276	0.395609	0.269707
C125	C	-1.318384	0.468470	0.226168
H126	H	-1.251136	0.323387	0.178613
H127	H	-1.175025	0.362556	0.178661
H128	H	-1.291049	0.370903	0.303758
H129	H	-1.214964	0.410092	0.303822
H130	H	-1.284610	0.493180	0.192103
H131	H	-1.360715	0.454002	0.192057
H132	H	-1.351277	0.507674	0.264823
H133	H	-0.416907	0.084846	-0.000023
H134	H	-0.828096	0.253931	0.000001
H135	H	-1.275356	0.886261	-0.000007
H136	H	-1.235734	0.499354	0.000008
H137	H	-0.562072	0.468287	0.000004
C138	C	-0.715278	0.457568	-0.000040
C139	C	-0.657514	0.504633	-0.000058
C140	C	-0.711223	0.590728	-0.000107
H141	H	-0.750551	0.467823	0.048368
H142	H	-0.755614	0.473795	-0.048484
H143	H	-0.617194	0.488412	0.048381
H144	H	-0.622241	0.494404	-0.048463
H145	H	-0.751559	0.606954	-0.048551
H146	H	-0.746494	0.600973	0.048302
H147	H	-0.672039	0.622672	-0.000127
H148	H	-1.215811	0.346068	0.775534
H149	H	-1.002496	0.092003	0.775544
