data_functionalizedCrystal
_audit_creation_method	'MofGen! by Chris Wilmer'
_symmetry_space_group_name_H-M	'P1'
_symmetry_Int_Tables_number	1
_symmetry_cell_setting	triclinic
loop_
_symmetry_equiv_pos_as_xyz
  x,y,z
_cell_length_a	21.295417
_cell_length_b	21.295420
_cell_length_c	13.897441
_cell_angle_alpha	90.020972
_cell_angle_beta	89.964549
_cell_angle_gamma	89.975452
loop_
_atom_site_label
_atom_site_type_symbol
_atom_site_fract_x
_atom_site_fract_y
_atom_site_fract_z
Zn1	Zn	-0.250695	-0.962326	-0.545403
Zn2	Zn	-0.355972	-0.962237	-0.384088
Zn3	Zn	-0.250710	-0.857058	-0.384115
Zn4	Zn	-0.355920	-0.857018	-0.545334
O5	O	-0.303324	-0.909660	-0.464735
O6	O	-0.264676	-1.050403	-0.524022
O7	O	-0.342038	-0.948264	-0.249110
O8	O	-0.162619	-0.871075	-0.405550
O9	O	-0.342023	-1.050338	-0.405505
O10	O	-0.162608	-0.948415	-0.524048
O11	O	-0.264702	-0.870989	-0.249130
O12	O	-0.264650	-0.768963	-0.405483
O13	O	-0.341933	-0.871008	-0.680325
O14	O	-0.341947	-0.768934	-0.523930
O15	O	-0.264625	-0.948377	-0.680376
O16	O	-0.444055	-0.948226	-0.405438
O17	O	-0.444016	-0.870922	-0.523904
C18	C	-0.303295	-0.746108	-0.464703
C19	C	-0.303298	-0.676140	-0.464712
C20	C	-0.263123	-0.176715	-0.526539
C21	C	-0.263120	-0.242458	-0.526541
C22	C	-0.303324	-0.275300	-0.464738
C23	C	-0.343546	-0.242395	-0.402945
C24	C	-0.343552	-0.176654	-0.402952
N25	N	-0.308076	-0.378495	-0.380280
N26	N	-0.308067	-0.440946	-0.380276
C27	C	-0.303310	-0.473375	-0.464715
N28	N	-0.298550	-0.440993	-0.549161
N29	N	-0.298556	-0.378536	-0.549163
C30	C	-0.303322	-0.346586	-0.464724
C31	C	-0.263091	-0.577558	-0.526511
C32	C	-0.263093	-0.643302	-0.526514
C33	C	-0.343515	-0.643238	-0.402910
C34	C	-0.343517	-0.577495	-0.402915
C35	C	-0.303301	-0.544659	-0.464714
C36	C	-0.466876	-0.909577	-0.464682
C37	C	-0.536844	-0.909599	-0.464691
C38	C	-0.569710	-0.949887	-0.403069
C39	C	-0.635453	-0.949917	-0.403090
C40	C	-0.668327	-0.909647	-0.464724
C41	C	-0.635453	-0.869356	-0.526359
C42	C	-0.569711	-0.869333	-0.526342
N43	N	-0.771586	-0.854580	-0.472067
N44	N	-0.834038	-0.854604	-0.472077
C45	C	-0.866401	-0.909718	-0.464780
N46	N	-0.833954	-0.964807	-0.457453
N47	N	-0.771497	-0.964782	-0.457438
C48	C	-0.739612	-0.909669	-0.464750
C49	C	-0.970553	-0.950041	-0.403177
C50	C	-1.036296	-0.950071	-0.403206
C51	C	-1.036295	-0.869506	-0.526469
C52	C	-0.970553	-0.869481	-0.526446
C53	C	-0.937686	-0.909747	-0.464795
C54	C	-0.139134	-0.909760	-0.464810
C55	C	-0.069166	-0.909802	-0.464842
C56	C	-0.303271	-0.909698	-0.716328
C57	C	-0.303249	-0.909715	-0.823542
C58	C	-0.303346	-0.073850	-0.464760
C59	C	-0.303336	-0.143818	-0.464751
C60	C	-0.303231	-0.909727	-0.910612
C61	C	-0.303203	-0.909745	-1.019845
C62	C	-0.303332	-0.909657	-0.214121
C63	C	-0.303177	-0.909763	-0.106907
H64	H	-0.376282	-0.269140	-0.352627
C65	C	-0.387741	-0.679357	-0.334925
C66	C	-0.387738	-0.751669	-0.334914
C67	C	-0.431967	-0.787791	-0.266929
C68	C	-0.476200	-0.751601	-0.198955
C69	C	-0.476206	-0.679284	-0.198964
C70	C	-0.431976	-0.643162	-0.266949
H71	H	-0.354992	-0.778464	-0.385234
H72	H	-0.431963	-0.841325	-0.266923
H73	H	-0.508942	-0.778340	-0.148629
H74	H	-0.508951	-0.652490	-0.148643
H75	H	-0.431980	-0.589628	-0.266955
H76	H	-0.376260	-0.550710	-0.352597
C77	C	-0.218873	-0.278655	-0.594498
C78	C	-0.218862	-0.350968	-0.594480
C79	C	-0.174612	-0.387163	-0.662430
C80	C	-0.130374	-0.351045	-0.730398
C81	C	-0.130383	-0.278728	-0.730419
C82	C	-0.174633	-0.242533	-0.662468
H83	H	-0.251612	-0.377708	-0.544163
H84	H	-0.174605	-0.440697	-0.662414
H85	H	-0.097617	-0.377839	-0.780699
H86	H	-0.097633	-0.251988	-0.780735
H87	H	-0.174640	-0.188999	-0.662484
C88	C	-0.533560	-0.994183	-0.335256
C89	C	-0.488428	-0.966918	-0.259472
C90	C	-0.452277	-1.011214	-0.191658
C91	C	-0.461259	-1.082776	-0.199628
C92	C	-0.506393	-1.110045	-0.275416
C93	C	-0.542543	-1.065748	-0.343230
H94	H	-0.481777	-0.913940	-0.253569
H95	H	-0.418866	-0.991027	-0.135555
H96	H	-0.434498	-1.115566	-0.149429
H97	H	-0.513043	-1.163022	-0.281319
H98	H	-0.575955	-1.085935	-0.399333
H99	H	-0.662217	-0.982726	-0.352910
C100	C	-1.072450	-0.994394	-0.335419
C101	C	-1.063475	-0.989291	-0.225754
C102	C	-1.099629	-1.033616	-0.157967
C103	C	-1.144757	-1.083044	-0.199845
C104	C	-1.153734	-1.088150	-0.309516
C105	C	-1.117580	-1.043825	-0.377303
H106	H	-1.030067	-0.952699	-0.194748
H107	H	-1.092983	-1.029836	-0.076780
H108	H	-1.171520	-1.115856	-0.149665
H109	H	-1.187142	-1.124742	-0.340522
H110	H	-1.124226	-1.047605	-0.458489
C111	C	-0.533555	-0.825010	-0.594126
C112	C	-0.488422	-0.775587	-0.552243
C113	C	-0.452265	-0.731262	-0.620026
C114	C	-0.461241	-0.736360	-0.729692
C115	C	-0.506376	-0.785785	-0.771581
C116	C	-0.542533	-0.830110	-0.703798
H117	H	-0.481776	-0.771811	-0.471056
H118	H	-0.418853	-0.694675	-0.589016
H119	H	-0.434475	-0.703549	-0.779869
H120	H	-0.513022	-0.789561	-0.852767
H121	H	-0.575945	-0.866698	-0.734807
C122	C	-0.671611	-0.825059	-0.594157
C123	C	-0.743924	-0.825081	-0.594175
C124	C	-0.780081	-0.780785	-0.661981
C125	C	-0.743926	-0.736467	-0.729768
C126	C	-0.671609	-0.736444	-0.729753
C127	C	-0.635451	-0.780740	-0.661947
H128	H	-0.770692	-0.857889	-0.543993
H129	H	-0.833615	-0.780802	-0.661992
H130	H	-0.770691	-0.703676	-0.779962
H131	H	-0.644841	-0.703636	-0.779935
H132	H	-0.581917	-0.780722	-0.661936
C133	C	-0.934393	-0.994341	-0.335379
C134	C	-0.862081	-0.994316	-0.335355
C135	C	-0.825923	-1.038618	-0.267559
C136	C	-0.862079	-1.082946	-0.199787
C137	C	-0.934396	-1.082974	-0.199809
C138	C	-0.970553	-1.038671	-0.267604
H139	H	-0.835312	-0.961500	-0.385526
H140	H	-0.772389	-1.038598	-0.267543
H141	H	-0.835313	-1.115742	-0.149601
H142	H	-0.961164	-1.115789	-0.149638
H143	H	-1.024087	-1.038691	-0.267620
H144	H	-1.063061	-0.836720	-0.576657
C145	C	-0.218862	-0.541430	-0.594492
C146	C	-0.224084	-0.550489	-0.704133
C147	C	-0.179856	-0.514361	-0.772113
C148	C	-0.130405	-0.469174	-0.730450
C149	C	-0.125181	-0.460113	-0.620803
C150	C	-0.169409	-0.496241	-0.552823
H151	H	-0.260692	-0.583940	-0.734980
H152	H	-0.183724	-0.521069	-0.853282
H153	H	-0.097665	-0.442430	-0.780773
H154	H	-0.088573	-0.426661	-0.589956
H155	H	-0.165542	-0.489533	-0.471655
H156	H	-0.376300	-0.149869	-0.352636
C157	C	-0.218855	-0.679488	-0.594491
C158	C	-0.224071	-0.670470	-0.704132
C159	C	-0.179832	-0.706656	-0.772111
C160	C	-0.130377	-0.751860	-0.730449
C161	C	-0.125159	-0.760881	-0.620802
C162	C	-0.169398	-0.724695	-0.552823
H163	H	-0.260682	-0.637005	-0.734978
H164	H	-0.183696	-0.699978	-0.853279
H165	H	-0.097629	-0.778647	-0.780771
H166	H	-0.088547	-0.794346	-0.589956
H167	H	-0.165534	-0.731373	-0.471655
C168	C	-0.218892	-0.140602	-0.594531
C169	C	-0.224118	-0.149680	-0.704169
C170	C	-0.179890	-0.113567	-0.772167
C171	C	-0.130435	-0.068376	-0.730526
C172	C	-0.125207	-0.059296	-0.620883
C173	C	-0.169436	-0.095408	-0.552885
H174	H	-0.260730	-0.183135	-0.734999
H175	H	-0.183760	-0.120289	-0.853332
H176	H	-0.097694	-0.041643	-0.780862
H177	H	-0.088595	-0.025841	-0.590053
H178	H	-0.165565	-0.088687	-0.471720
C179	C	-0.934398	-0.825158	-0.594227
C180	C	-0.943497	-0.753602	-0.586255
C181	C	-0.907343	-0.709279	-0.654044
C182	C	-0.862089	-0.736511	-0.729804
C183	C	-0.852987	-0.808070	-0.737779
C184	C	-0.889142	-0.852394	-0.669990
H185	H	-0.976998	-0.733440	-0.530170
H186	H	-0.914080	-0.656306	-0.648140
H187	H	-0.835325	-0.703701	-0.779986
H188	H	-0.819486	-0.828233	-0.793864
H189	H	-0.882404	-0.905366	-0.675894
