data_functionalizedCrystal
_audit_creation_method	'MofGen! by Chris Wilmer'
_symmetry_space_group_name_H-M	'P1'
_symmetry_Int_Tables_number	1
_symmetry_cell_setting	triclinic
loop_
_symmetry_equiv_pos_as_xyz
  x,y,z
_cell_length_a	16.959455
_cell_length_b	13.897441
_cell_length_c	16.959454
_cell_angle_alpha	89.972033
_cell_angle_beta	90.017095
_cell_angle_gamma	89.973184
loop_
_atom_site_label
_atom_site_type_symbol
_atom_site_fract_x
_atom_site_fract_y
_atom_site_fract_z
Zn1	Zn	1.208434	-0.545555	-0.314719
Zn2	Zn	1.208342	-0.384264	-0.446914
Zn3	Zn	1.076248	-0.384257	-0.314747
Zn4	Zn	1.076227	-0.545500	-0.446853
O5	O	1.142313	-0.464894	-0.380808
O6	O	1.319033	-0.524186	-0.332269
O7	O	1.190789	-0.249281	-0.429420
O8	O	1.093830	-0.405673	-0.204132
O9	O	1.318965	-0.405686	-0.429393
O10	O	1.190947	-0.524179	-0.204112
O11	O	1.093740	-0.249276	-0.332317
O12	O	0.965634	-0.405619	-0.332257
O13	O	1.093795	-0.680489	-0.429287
O14	O	0.965619	-0.524084	-0.429314
O15	O	1.190927	-0.680530	-0.332209
O16	O	1.190769	-0.405632	-0.557517
O17	O	1.093705	-0.524091	-0.557472
C18	C	0.936946	-0.464845	-0.380782
C19	C	0.849090	-0.464847	-0.380790
C20	C	0.477568	-0.403160	-0.431330
C21	C	0.477660	-0.526746	-0.330352
C22	C	0.560206	-0.526722	-0.330339
C23	C	0.601437	-0.464918	-0.380823
C24	C	0.560122	-0.403136	-0.431320
C25	C	0.601527	-0.588509	-0.279848
C26	C	0.684078	-0.588489	-0.279834
C27	C	0.725311	-0.526679	-0.330315
C28	C	0.683990	-0.464894	-0.380813
C29	C	0.725221	-0.403089	-0.431298
C30	C	0.683902	-0.341299	-0.481793
C31	C	0.601354	-0.341326	-0.481801
C32	C	0.807859	-0.526652	-0.330306
C33	C	0.807775	-0.403066	-0.431288
C34	C	1.142369	-0.716487	-0.380738
C35	C	1.142393	-0.823701	-0.380709
C36	C	1.142414	-1.019996	-0.380655
C37	C	1.142400	-0.910764	-0.380687
C38	C	1.348481	-0.464943	-0.380835
C39	C	1.436337	-0.464964	-0.380846
C40	C	1.142246	-0.464877	-0.586175
C41	C	1.142290	-0.464903	-0.674031
C42	C	1.142302	-0.214280	-0.380821
C43	C	1.142432	-0.107066	-0.380628
C44	C	1.091845	-0.526569	-1.045513
C45	C	1.193001	-0.403317	-1.045500
C46	C	1.192973	-0.403308	-0.962954
C47	C	1.142380	-0.464930	-0.921684
C48	C	1.091814	-0.526560	-0.962959
C49	C	1.243532	-0.341672	-0.921673
C50	C	1.243506	-0.341660	-0.839122
C51	C	1.192916	-0.403287	-0.797850
C52	C	1.142349	-0.464921	-0.839131
C53	C	1.091756	-0.526542	-0.797860
C54	C	1.041192	-0.588181	-0.839139
C55	C	1.041224	-0.588187	-0.921688
C56	C	1.192884	-0.403281	-0.715302
C57	C	1.091725	-0.526533	-0.715307
C58	C	1.142401	-0.464932	-0.174640
C59	C	1.142438	-0.464948	-0.086783
H60	H	0.567951	-0.638833	-0.238752
H61	H	0.717713	-0.638802	-0.238717
C62	C	1.036076	-0.594334	-0.669916
N63	N	0.994164	-0.645406	-0.635728
C64	C	0.853306	-0.594618	-0.274766
N65	N	0.887535	-0.645811	-0.232928
C66	C	0.555897	-0.273368	-0.537346
N67	N	0.521656	-0.222185	-0.579183
C68	C	0.729267	-0.273315	-0.537323
N69	N	0.763439	-0.222108	-0.579145
H70	H	0.841339	-0.352733	-0.472396
H71	H	0.999995	-0.638349	-0.805527
C72	C	0.432118	-0.335194	-0.486873
N73	N	0.397883	-0.284002	-0.528708
C74	C	1.248502	-0.335484	-0.669899
N75	N	1.290398	-0.284418	-0.635702
H76	H	0.444085	-0.577070	-0.289254
C77	C	0.985600	-0.655973	-0.967100
N78	N	0.943700	-0.707024	-1.001309
H79	H	1.050679	-0.576757	-1.079126
C80	C	1.299122	-0.273851	-0.793723
N81	N	1.341011	-0.222775	-0.759527
H82	H	1.234187	-0.353142	-1.079108
C83	C	1.299170	-0.273879	-0.967075
N84	N	1.341075	-0.222813	-1.001276
