data_functionalizedCrystal
_audit_creation_method	'MofGen! by Chris Wilmer'
_symmetry_space_group_name_H-M	'P1'
_symmetry_Int_Tables_number	1
_symmetry_cell_setting	triclinic
loop_
_symmetry_equiv_pos_as_xyz
  x,y,z
_cell_length_a	19.288864
_cell_length_b	17.766277
_cell_length_c	19.288865
_cell_angle_alpha	89.988397
_cell_angle_beta	96.863755
_cell_angle_gamma	90.023209
loop_
_atom_site_label
_atom_site_type_symbol
_atom_site_fract_x
_atom_site_fract_y
_atom_site_fract_z
O1	O	0.921353	0.062844	-0.086649
O2	O	0.719092	0.062794	-0.098337
O3	O	0.826067	0.062806	0.008637
O4	O	0.814378	0.062832	-0.193623
O5	O	0.826048	-0.062383	0.008643
O6	O	0.719074	-0.062395	-0.098332
O7	O	0.921334	-0.062344	-0.086643
Cu8	Cu	0.820202	-0.073800	-0.092487
Cu9	Cu	0.820224	0.074250	-0.092494
O10	O	0.814360	-0.062356	-0.193618
C11	C	0.693207	0.000193	-0.097959
C12	C	0.616103	0.000173	-0.096830
C13	C	0.571407	0.000193	-0.159598
C14	C	0.498960	0.000201	-0.158537
C15	C	0.471212	0.000205	-0.094705
C16	C	0.515918	0.000180	-0.031929
C17	C	0.588364	0.000164	-0.032991
C18	C	0.362957	0.044082	-0.044527
C19	C	0.290512	0.044103	-0.043468
C20	C	0.247767	0.000250	-0.091425
C21	C	0.277473	-0.043614	-0.140454
C22	C	0.349918	-0.043630	-0.141517
C23	C	0.392658	0.000221	-0.093546
C24	C	0.124514	0.000278	-0.153047
C25	C	0.052066	0.000281	-0.151984
C26	C	0.069026	0.000267	-0.025374
C27	C	0.141473	0.000256	-0.026439
C28	C	0.169212	0.000265	-0.090278
N29	N	0.820192	-0.177931	-0.092482
C30	C	0.867575	-0.217312	-0.045137
C31	C	0.867579	-0.296114	-0.045134
C32	C	0.820206	-0.335531	-0.092488
C33	C	0.772814	-0.296140	-0.139837
C34	C	0.772807	-0.217340	-0.139834
C35	C	0.810908	-0.460362	-0.155775
C36	C	0.810920	-0.539161	-0.155779
C37	C	0.820225	-0.578577	-0.092496
C38	C	0.829533	-0.539185	-0.029207
C39	C	0.829525	-0.460385	-0.029204
C40	C	0.820209	-0.420977	-0.092496
C41	C	0.867616	-0.703405	-0.045143
C42	C	0.867615	-0.782208	-0.045139
C43	C	0.772853	-0.782233	-0.139848
C44	C	0.772850	-0.703431	-0.139846
C45	C	0.820235	-0.664022	-0.092495
C46	C	0.947220	0.000258	-0.087022
C47	C	1.024324	0.000283	-0.088151
C48	C	0.825682	0.000209	0.034516
C49	C	0.824553	0.000202	0.111620
N50	N	0.820241	0.178380	-0.092493
C51	C	0.814745	0.000242	-0.219497
C52	C	0.815874	0.000254	-0.296601
C53	C	0.887321	0.000214	0.156316
C54	C	0.886260	0.000226	0.228763
C55	C	0.822428	0.000210	0.256511
C56	C	0.759652	0.000203	0.211805
C57	C	0.760714	0.000198	0.139359
C58	C	0.772242	-0.043653	0.364800
C59	C	0.771182	-0.043654	0.437245
C60	C	0.819148	0.000226	0.479956
C61	C	0.868186	0.044097	0.450216
C62	C	0.869249	0.044093	0.377771
C63	C	0.821269	0.000215	0.335065
C64	C	0.880770	0.000252	0.603209
C65	C	0.879707	0.000268	0.675657
C66	C	0.753097	0.000238	0.658697
C67	C	0.754162	0.000229	0.586250
C68	C	0.818001	0.000232	0.558511
H69	H	0.906158	-0.185228	-0.006579
H70	H	0.397755	0.079797	-0.005473
N71	N	0.718294	-0.090963	0.469324
H72	H	0.743353	-0.128465	0.502805
H73	H	0.688074	-0.118706	0.431237
N74	N	0.693012	0.000186	0.091146
H75	H	0.652411	0.000181	0.119713
H76	H	0.690688	-0.046227	0.060730
H77	H	0.493322	0.000193	0.020044
N78	N	0.690801	0.000177	0.241724
H79	H	0.663318	0.046578	0.225401
H80	H	0.699707	0.000149	0.294396
H81	H	0.909176	0.079815	0.353560
H82	H	0.177866	0.000244	0.024674
N83	N	0.839583	-0.581694	0.039050
H84	H	0.886241	-0.567963	0.065513
H85	H	0.838142	-0.637575	0.029382
N86	N	0.721696	-0.174858	-0.190899
H87	H	0.691682	-0.211783	-0.220896
H88	H	0.748184	-0.142141	-0.221540
H89	H	0.624756	0.000148	0.018124
N90	N	0.800874	-0.417856	-0.224037
H91	H	0.843043	-0.385138	-0.228046
H92	H	0.757849	-0.385228	-0.225625
N93	N	0.918718	-0.660893	0.005927
H94	H	0.948734	-0.697802	0.035926
H95	H	0.892224	-0.628217	0.036566
H96	H	0.906166	-0.328185	-0.006578
N97	N	0.839561	-0.417897	0.039051
H98	H	0.845458	-0.454818	0.079143
H99	H	0.797376	-0.385227	0.042998
N100	N	0.720517	-0.090993	0.318729
H101	H	0.691129	-0.057414	0.284663
H102	H	0.689341	-0.118789	0.348604
H103	H	0.593987	0.000202	-0.211580
N104	N	0.039110	0.000262	0.043476
H105	H	-0.013567	0.000273	0.034626
H106	H	0.055499	0.046664	0.070933
H107	H	0.266331	0.079822	-0.003548
N108	N	0.956172	0.000219	0.126397
H109	H	0.995774	0.000229	0.165710
H110	H	0.959380	0.046627	0.096699
N111	N	0.918735	-0.824689	0.005917
H112	H	0.948756	-0.787763	0.035906
H113	H	0.949348	-0.857352	-0.020618
N114	N	0.949621	0.000256	0.573284
H115	H	0.952893	0.046657	0.543587
H116	H	0.952827	-0.046189	0.543655
N117	N	0.800875	-0.581643	-0.224037
H118	H	0.843047	-0.614312	-0.228063
H119	H	0.794949	-0.544669	-0.264084
N120	N	0.450739	0.000225	-0.226239
H121	H	0.479305	0.000228	-0.266840
H122	H	0.420341	0.046643	-0.228549
H123	H	0.374102	-0.079347	-0.181436
H124	H	0.734278	-0.814325	-0.178402
H125	H	0.930822	0.000282	0.712049
N126	N	0.721714	-0.338648	-0.190908
H127	H	0.728910	-0.394545	-0.183727
H128	H	0.729576	-0.324856	-0.240164
N129	N	0.721742	-0.660956	-0.190916
H130	H	0.729584	-0.674652	-0.240195
H131	H	0.728947	-0.605069	-0.183671
N132	N	0.231379	-0.090913	-0.192189
H133	H	0.180978	-0.084252	-0.184076
H134	H	0.244885	-0.145623	-0.185880
H135	H	0.907245	0.079829	0.484991
N136	N	0.953962	0.000240	0.276984
H137	H	0.994563	0.000243	0.248418
H138	H	0.956264	-0.046168	0.307419
N139	N	0.684244	0.000223	0.688606
H140	H	0.680986	0.046632	0.718274
H141	H	0.681012	-0.046214	0.718262
N142	N	0.154440	0.000283	-0.221897
H143	H	0.115129	0.000291	-0.261501
H144	H	0.184107	-0.046130	-0.225092
N145	N	0.003854	0.000243	-0.219687
H146	H	0.032423	0.000230	-0.260286
H147	H	-0.026575	0.046639	-0.222037
H148	H	0.703049	0.000215	0.549857
