data_functionalizedCrystal
_audit_creation_method	'MofGen! by Chris Wilmer'
_symmetry_space_group_name_H-M	'P1'
_symmetry_Int_Tables_number	1
_symmetry_cell_setting	triclinic
loop_
_symmetry_equiv_pos_as_xyz
  x,y,z
_cell_length_a	19.077105
_cell_length_b	16.120484
_cell_length_c	19.076919
_cell_angle_alpha	84.953390
_cell_angle_beta	89.923776
_cell_angle_gamma	90.738523
loop_
_atom_site_label
_atom_site_type_symbol
_atom_site_fract_x
_atom_site_fract_y
_atom_site_fract_z
Zn1	Zn	1.040337	-0.403262	0.456942
Zn2	Zn	1.039017	-0.537287	0.344927
Zn3	Zn	0.928051	-0.392095	0.334278
Zn4	Zn	0.916861	-0.536784	0.457659
O5	O	0.981066	-0.467357	0.398451
O6	O	1.138276	-0.425924	0.446240
O7	O	1.028428	-0.513564	0.245000
O8	O	0.948182	-0.276934	0.345793
O9	O	1.137306	-0.524392	0.363943
O10	O	1.030678	-0.285138	0.435913
O11	O	0.946902	-0.406892	0.237176
O12	O	0.828452	-0.406405	0.346488
O13	O	0.929109	-0.523535	0.556078
O14	O	0.820230	-0.512707	0.437136
O15	O	1.019827	-0.425436	0.555551
O16	O	1.017576	-0.653863	0.364638
O17	O	0.927829	-0.653494	0.447462
C18	C	0.798901	-0.458290	0.390734
C19	C	0.720969	-0.454433	0.387451
C20	C	0.971363	-0.683924	0.407299
C21	C	0.967276	-0.776577	0.411111
C22	C	0.680093	-0.508043	0.433036
C23	C	0.606867	-0.504408	0.429953
C24	C	0.574519	-0.447165	0.381281
C25	C	0.615400	-0.393548	0.335694
C26	C	0.688624	-0.397180	0.338781
C27	C	0.355979	-0.430354	0.367000
C28	C	0.282749	-0.426728	0.363916
C29	C	0.274222	-0.537586	0.458176
C30	C	0.347448	-0.541217	0.461255
C31	C	0.388323	-0.487598	0.415670
N32	N	0.499670	-0.443449	0.378128
N33	N	0.463169	-0.491310	0.418828
C34	C	0.959816	-0.946215	0.418084
C35	C	1.002442	-0.987665	0.378836
C36	C	0.998291	-1.082058	0.382716
C37	C	0.963966	-0.851814	0.414205
C38	C	1.163943	-0.476459	0.406199
C39	C	1.241874	-0.480338	0.409501
C40	C	0.973367	-0.475675	0.582072
C41	C	0.970086	-0.479220	0.660321
C42	C	0.990826	-0.249946	0.389585
C43	C	0.994984	-0.157298	0.385807
C44	C	0.988779	-0.459013	0.215544
C45	C	0.992206	-0.455240	0.137292
C46	C	1.015774	-0.429813	0.696809
C47	C	1.012683	-0.433140	0.770331
C48	C	0.963906	-0.485879	0.807364
C49	C	0.918214	-0.535288	0.770871
C50	C	0.921302	-0.531956	0.697350
C51	C	0.949602	-0.501317	1.027278
C52	C	0.946518	-0.504647	1.100804
C53	C	1.040987	-0.402498	1.100259
C54	C	1.044074	-0.399174	1.026737
C55	C	0.998378	-0.448580	0.990250
N56	N	0.960747	-0.489283	0.882516
N57	N	1.001535	-0.445171	0.915099
H58	H	0.706425	-0.554659	0.472667
O59	O	0.251438	-0.371042	0.316614
C60	C	0.303216	-0.324508	0.277029
H61	H	0.354337	-0.325566	0.307952
H62	H	0.311876	-0.352891	0.225090
C63	C	0.216233	-0.232607	0.224200
C64	C	0.279019	-0.233901	0.262182
H65	H	0.201307	-0.176717	0.215038
H66	H	0.181349	-0.263960	0.250867
H67	H	0.223458	-0.256264	0.180921
H68	H	0.271791	-0.210254	0.305464
H69	H	0.313902	-0.202542	0.235523
O70	O	0.912651	-0.988543	0.461683
C71	C	0.948454	-1.042870	0.510913
H72	H	1.002096	-1.057277	0.488904
H73	H	0.955364	-1.012092	0.562067
C74	C	0.839884	-1.106634	0.552349
C75	C	0.905765	-1.124335	0.525315
H76	H	0.813550	-1.156885	0.561236
H77	H	0.815762	-1.070031	0.519184
H78	H	0.845651	-1.080984	0.594974
H79	H	0.899997	-1.149975	0.482686
H80	H	0.929885	-1.160945	0.558473
H81	H	0.884091	-0.572180	0.667641
H82	H	1.042052	-0.952260	0.342319
O83	O	1.057138	-0.385121	0.805668
C84	C	1.100843	-0.337848	0.757216
H85	H	1.103937	-0.369738	0.706303
H86	H	1.078343	-0.272908	0.745725
C87	C	1.170999	-0.291689	0.851119
C88	C	1.174804	-0.330860	0.788589
H89	H	1.216621	-0.287375	0.870471
H90	H	1.141553	-0.323535	0.883763
H91	H	1.152246	-0.237576	0.841534
H92	H	1.193548	-0.384976	0.798176
H93	H	1.204255	-0.299023	0.755947
H94	H	0.573589	-0.548064	0.467073
H95	H	0.906796	-0.547595	1.130954
H96	H	1.055495	-0.386870	0.666662
H97	H	0.878496	-0.578226	0.801029
O98	O	1.091475	-0.347868	0.990872
C99	C	1.131150	-0.304987	1.038845
H100	H	1.100361	-0.303045	1.089917
H101	H	1.182701	-0.338517	1.050168
C102	C	1.184260	-0.217864	0.944233
C103	C	1.146442	-0.215472	1.006959
H104	H	1.193696	-0.162648	0.924565
H105	H	1.157532	-0.246755	0.911913
H106	H	1.227215	-0.245810	0.953678
H107	H	1.103485	-0.187536	0.997512
H108	H	1.173163	-0.186574	1.039278
O109	O	0.395713	-0.378195	0.322816
C110	C	0.438812	-0.328365	0.362559
H111	H	0.414657	-0.324734	0.416876
H112	H	0.493054	-0.357002	0.368343
C113	C	0.474918	-0.244613	0.258075
C114	C	0.445247	-0.240148	0.324786
H115	H	0.478890	-0.190198	0.234774
H116	H	0.445883	-0.278187	0.231299
H117	H	0.520116	-0.268481	0.262904
H118	H	0.400046	-0.216290	0.319956
H119	H	0.474274	-0.206568	0.351560
H120	H	1.078188	-0.362273	1.129975
O121	O	0.378981	-0.596790	0.508479
C122	C	0.452376	-0.588483	0.501442
H123	H	0.465869	-0.559127	0.446450
H124	H	0.473392	-0.547088	0.542322
C125	C	0.469362	-0.711036	0.580361
C126	C	0.485934	-0.674987	0.512816
H127	H	0.490063	-0.764395	0.587380
H128	H	0.419914	-0.716632	0.585104
H129	H	0.486875	-0.676532	0.614419
H130	H	0.468413	-0.709486	0.478759
H131	H	0.535380	-0.669400	0.508067
O132	O	0.905177	-0.549379	0.991951
C133	C	0.861450	-0.596620	1.040404
H134	H	0.887847	-0.603328	1.094143
H135	H	0.809252	-0.563781	1.044732
C136	C	0.816117	-0.675281	0.948887
C137	C	0.848540	-0.683526	1.014889
H138	H	0.808150	-0.728887	0.933147
H139	H	0.845574	-0.643452	0.916242
H140	H	0.772622	-0.647912	0.952503
H141	H	0.892038	-0.710885	1.011271
H142	H	0.819090	-0.715361	1.047533
O143	O	0.234412	-0.589579	0.502428
C144	C	0.162845	-0.574116	0.489258
H145	H	0.156683	-0.508211	0.463237
H146	H	0.141421	-0.620759	0.452844
C147	C	0.129503	-0.664192	0.591171
C148	C	0.121934	-0.583243	0.559217
H149	H	0.104265	-0.669825	0.634324
H150	H	0.177718	-0.674612	0.600043
H151	H	0.111650	-0.703051	0.560819
H152	H	0.139794	-0.544386	0.589566
H153	H	0.073720	-0.572816	0.550352
O154	O	0.728363	-0.345023	0.294595
C155	C	0.771462	-0.295193	0.334338
H156	H	0.747309	-0.291565	0.388656
H157	H	0.825705	-0.323828	0.340119
C158	C	0.807564	-0.211436	0.229855
C159	C	0.777894	-0.206974	0.296567
H160	H	0.811534	-0.157019	0.206556
H161	H	0.778529	-0.245009	0.203079
H162	H	0.852763	-0.235302	0.234682
H163	H	0.732693	-0.183118	0.291739
H164	H	0.806922	-0.173395	0.323342
H165	H	0.589056	-0.346936	0.296068
