data_functionalizedCrystal
_audit_creation_method	'MofGen! by Chris Wilmer'
_symmetry_space_group_name_H-M	'P1'
_symmetry_Int_Tables_number	1
_symmetry_cell_setting	triclinic
loop_
_symmetry_equiv_pos_as_xyz
  x,y,z
_cell_length_a	13.897448
_cell_length_b	21.395362
_cell_length_c	21.395355
_cell_angle_alpha	90.043940
_cell_angle_beta	89.984371
_cell_angle_gamma	89.966429
loop_
_atom_site_label
_atom_site_type_symbol
_atom_site_fract_x
_atom_site_fract_y
_atom_site_fract_z
Zn1	Zn	-0.383718	-0.957916	-0.354598
Zn2	Zn	-0.544997	-0.957842	-0.249826
Zn3	Zn	-0.383763	-0.853131	-0.249799
Zn4	Zn	-0.545017	-0.853124	-0.354531
O5	O	-0.464374	-0.905503	-0.302189
O6	O	-0.405085	-1.045584	-0.340739
O7	O	-0.523620	-0.943924	-0.162145
O8	O	-0.248775	-0.867065	-0.263718
O9	O	-0.523576	-1.045530	-0.263764
O10	O	-0.248742	-0.944050	-0.340714
O11	O	-0.405161	-0.866993	-0.162125
O12	O	-0.405181	-0.765452	-0.263653
O13	O	-0.523610	-0.867053	-0.442218
O14	O	-0.523654	-0.765447	-0.340599
O15	O	-0.405104	-0.944043	-0.442267
O16	O	-0.679982	-0.943918	-0.263698
O17	O	-0.679996	-0.866981	-0.340624
C18	C	-0.714988	-0.905458	-0.302170
C19	C	-0.822202	-0.905495	-0.302184
C20	C	-0.464425	-0.742716	-0.302116
C21	C	-0.464470	-0.673074	-0.302100
C22	C	-0.464354	-0.905555	-0.465612
C23	C	-0.464346	-0.905578	-0.535253
C24	C	-1.018497	-0.905561	-0.302223
C25	C	-0.909265	-0.905523	-0.302203
C26	C	-0.212781	-0.905566	-0.302221
C27	C	-0.105567	-0.905593	-0.302234
C28	C	-0.464323	-1.068927	-0.302262
C29	C	-0.464302	-1.138568	-0.302293
C30	C	-0.526240	-0.640375	-0.342105
C31	C	-0.526217	-0.574940	-0.342133
C32	C	-0.464433	-0.542206	-0.302144
C33	C	-0.402650	-0.574913	-0.262136
C34	C	-0.402669	-0.640348	-0.262114
C35	C	-0.456662	-0.438480	-0.245739
C36	C	-0.456650	-0.373047	-0.245760
C37	C	-0.464370	-0.340385	-0.302214
C38	C	-0.472121	-0.373165	-0.358647
C39	C	-0.472140	-0.438599	-0.358625
C40	C	-0.464405	-0.471254	-0.302164
C41	C	-0.526118	-0.236734	-0.342253
C42	C	-0.526088	-0.171297	-0.342282
C43	C	-0.402526	-0.171272	-0.262279
C44	C	-0.402551	-0.236707	-0.262255
C45	C	-0.464352	-0.269434	-0.302242
C46	C	-0.402637	-0.945665	-0.567993
C47	C	-0.402596	-0.945664	-0.633429
C48	C	-0.464280	-0.905582	-0.666122
C49	C	-0.525993	-0.865488	-0.633374
C50	C	-0.526026	-0.865485	-0.567940
C51	C	-0.551135	-0.900619	-0.769788
C52	C	-0.551103	-0.900626	-0.835221
C53	C	-0.464178	-0.905586	-0.867942
C54	C	-0.377282	-0.910553	-0.835223
C55	C	-0.377315	-0.910550	-0.769788
C56	C	-0.464251	-0.905580	-0.737074
C57	C	-0.402419	-0.945675	-0.971635
C58	C	-0.402376	-0.945669	-1.037072
C59	C	-0.525782	-0.865496	-1.037016
C60	C	-0.525817	-0.865498	-0.971580
C61	C	-0.464137	-0.905591	-0.938894
C62	C	-0.464324	-0.905488	-0.139401
C63	C	-0.464060	-0.905587	-0.069760
H64	H	-0.576562	-0.667017	-0.374666
C65	C	-0.594052	-0.135327	-0.386281
H66	H	-0.630869	-0.164192	-0.410084
H67	H	-0.557226	-0.109847	-0.413638
H68	H	-0.636013	-0.109758	-0.362260
H69	H	-0.621902	-0.896413	-0.743152
C70	C	-0.334506	-0.989774	-1.073089
H71	H	-0.343314	-0.984031	-1.116741
H72	H	-0.348632	-1.031864	-1.062395
H73	H	-0.269696	-0.980627	-1.062358
H74	H	-0.576073	-0.832859	-0.944923
H75	H	-0.621860	-0.896586	-0.861857
C76	C	-0.281716	-0.916416	-0.871206
H77	H	-0.294154	-0.915824	-0.914862
H78	H	-0.251289	-0.954667	-0.860358
H79	H	-0.240770	-0.882488	-0.860606
H80	H	-0.576214	-0.832851	-0.659997
H81	H	-0.352216	-0.144621	-0.229722
C82	C	-0.334615	-0.272679	-0.218241
H83	H	-0.297820	-0.243814	-0.194424
H84	H	-0.292648	-0.298254	-0.242244
H85	H	-0.371469	-0.298153	-0.190889
H86	H	-0.576275	-0.832838	-0.541283
H87	H	-0.352190	-0.978317	-0.945020
H88	H	-0.576435	-0.263381	-0.374815
H89	H	-0.575997	-0.832855	-1.063634
H90	H	-0.478406	-0.346573	-0.404617
H91	H	-0.450344	-0.346364	-0.199808
C92	C	-0.594111	-0.538963	-0.386177
H93	H	-0.630905	-0.567826	-0.409997
H94	H	-0.557216	-0.513504	-0.413515
H95	H	-0.636097	-0.513371	-0.362198
C96	C	-0.448117	-0.474402	-0.183639
H97	H	-0.443496	-0.445510	-0.150034
H98	H	-0.392201	-0.499945	-0.184529
H99	H	-0.503381	-0.499906	-0.178041
C100	C	-0.281739	-0.916005	-0.733796
H101	H	-0.294213	-0.915297	-0.690140
H102	H	-0.241170	-0.881932	-0.744492
H103	H	-0.250877	-0.954161	-0.744543
H104	H	-0.352365	-0.666971	-0.229536
C105	C	-0.480662	-0.474657	-0.420695
H106	H	-0.479575	-0.518303	-0.412593
H107	H	-0.428250	-0.463991	-0.447116
H108	H	-0.539435	-0.463927	-0.440664
C109	C	-0.334721	-0.989766	-0.669450
H110	H	-0.297997	-1.013646	-0.640612
H111	H	-0.292685	-0.965816	-0.694961
H112	H	-0.371617	-1.017056	-0.694994
H113	H	-0.352343	-0.548258	-0.229578
C114	C	-0.334784	-0.989759	-0.532042
H115	H	-0.298021	-1.013630	-0.560916
H116	H	-0.371685	-1.017048	-0.506535
H117	H	-0.292770	-0.965798	-0.506499
