data_functionalizedCrystal
_audit_creation_method	'MofGen! by Chris Wilmer'
_symmetry_space_group_name_H-M	'P1'
_symmetry_Int_Tables_number	1
_symmetry_cell_setting	triclinic
loop_
_symmetry_equiv_pos_as_xyz
  x,y,z
_cell_length_a	25.639233
_cell_length_b	11.169417
_cell_length_c	11.169416
_cell_angle_alpha	89.988781
_cell_angle_beta	89.989665
_cell_angle_gamma	90.010052
loop_
_atom_site_label
_atom_site_type_symbol
_atom_site_fract_x
_atom_site_fract_y
_atom_site_fract_z
Zn1	Zn	-0.295604	-1.834847	-0.477925
Zn2	Zn	-0.208181	-1.834770	-0.678594
Zn3	Zn	-0.208186	-1.634167	-0.477926
Zn4	Zn	-0.295589	-1.634140	-0.678568
O5	O	-0.251890	-1.734481	-0.578253
O6	O	-0.284011	-2.002786	-0.504554
O7	O	-0.135017	-1.808139	-0.651986
O8	O	-0.219791	-1.660830	-0.309976
O9	O	-0.219782	-2.002730	-0.651985
O10	O	-0.284016	-1.808269	-0.309976
O11	O	-0.135020	-1.660756	-0.504557
O12	O	-0.219777	-1.466213	-0.504532
O13	O	-0.368757	-1.660785	-0.651941
O14	O	-0.283991	-1.466194	-0.651942
O15	O	-0.368767	-1.808243	-0.504529
O16	O	-0.219768	-1.808113	-0.846540
O17	O	-0.283986	-1.660711	-0.846521
C18	C	-0.251883	-1.422656	-0.578235
C19	C	-0.251893	-1.289256	-0.578256
C20	C	-0.388263	-1.734520	-0.578232
C21	C	-0.446377	-1.734536	-0.578223
C22	C	-0.251886	-1.734433	-0.890078
C23	C	-0.251902	-1.734523	-1.023478
C24	C	-0.806752	-1.811415	-0.501238
C25	C	-0.861356	-1.811430	-0.501205
O26	O	-0.889602	-1.876698	-0.435891
N27	N	-0.888660	-1.734668	-0.577942
C28	C	-0.861357	-1.657878	-0.654708
O29	O	-0.889595	-1.592587	-0.719975
C30	C	-0.806753	-1.657858	-0.654735
C31	C	-0.779452	-1.734633	-0.578001
C32	C	-0.779450	-1.888183	-0.424510
C33	C	-0.724850	-1.888169	-0.424545
C34	C	-0.697551	-1.811388	-0.501308
C35	C	-0.724852	-1.734620	-0.578036
C36	C	-0.779451	-1.581063	-0.731494
C37	C	-0.724844	-1.581049	-0.731513
C38	C	-0.697543	-1.657824	-0.654780
C39	C	-0.642952	-1.657825	-0.654835
N40	N	-0.615648	-1.734586	-0.578098
C41	C	-0.642947	-1.811368	-0.501334
C42	C	-0.976027	-1.657925	-0.654646
C43	C	-1.030630	-1.657950	-0.654627
C44	C	-1.030625	-1.811500	-0.501121
C45	C	-0.976022	-1.811480	-0.501147
C46	C	-0.948723	-1.734686	-0.577909
C47	C	-0.528282	-1.811334	-0.501415
C48	C	-0.473677	-1.811317	-0.501460
C49	C	-0.473686	-1.657763	-0.654960
C50	C	-0.528287	-1.657784	-0.654920
C51	C	-0.555583	-1.734574	-0.578137
O52	O	-0.614671	-1.592587	-0.720112
O53	O	-0.614702	-1.876637	-0.436067
C54	C	-0.116048	-1.734511	-0.578188
C55	C	-0.057934	-1.734727	-0.577858
C56	C	-0.251897	-2.047523	-0.578272
C57	C	-0.251900	-2.180923	-0.578281
C58	C	-0.251906	-1.734561	-0.265211
C59	C	-0.251912	-1.734596	-0.131811
H60	H	-0.451451	-1.873841	-0.438973
H61	H	-0.702621	-1.518500	-0.794010
H62	H	-0.550501	-1.873860	-0.438887
O63	O	-0.554755	-1.583274	-0.729628
C64	C	-0.541433	-1.609486	-0.849261
H65	H	-0.501790	-1.655617	-0.851787
H66	H	-0.572171	-1.671182	-0.889665
C67	C	-0.587601	-1.435803	-0.918848
C68	C	-0.538908	-1.492452	-0.921952
H69	H	-0.586045	-1.363613	-0.963690
H70	H	-0.596578	-1.418145	-0.838250
H71	H	-0.613211	-1.487229	-0.952516
H72	H	-0.513301	-1.441033	-0.888271
H73	H	-0.529927	-1.510099	-1.002547
H74	H	-0.451449	-1.595254	-0.717463
H75	H	-0.702626	-1.950685	-0.362058
O76	O	-0.805883	-1.962891	-0.349900
C77	C	-0.770067	-2.030610	-0.282173
H78	H	-0.731147	-2.034716	-0.331362
H79	H	-0.764257	-1.986687	-0.191019
C80	C	-0.839168	-2.153325	-0.204463
C81	C	-0.791367	-2.158377	-0.264883
H82	H	-0.852308	-2.232136	-0.193793
H83	H	-0.863299	-2.107699	-0.250089
H84	H	-0.834321	-2.116717	-0.128508
H85	H	-0.796217	-2.194970	-0.340842
H86	H	-0.767238	-2.204012	-0.219270
H87	H	-1.052862	-1.874017	-0.438613
H88	H	-0.953797	-1.873995	-0.438662
O89	O	-1.057066	-1.583267	-0.729214
C90	C	-1.021255	-1.515525	-0.796991
H91	H	-0.982332	-1.511379	-0.747849
H92	H	-1.015451	-1.559453	-0.888147
C93	C	-1.090364	-1.392878	-0.874633
C94	C	-1.042558	-1.387778	-0.814270
H95	H	-1.103505	-1.314079	-0.885296
H96	H	-1.114491	-1.438520	-0.828973
H97	H	-1.085520	-1.429490	-0.950589
H98	H	-1.047403	-1.351181	-0.738309
H99	H	-1.018432	-1.342127	-0.859917
O100	O	-0.949453	-1.583504	-0.729290
C101	C	-0.917882	-1.651807	-0.806849
H102	H	-0.909698	-1.742763	-0.764524
H103	H	-0.938932	-1.664988	-0.895774
C104	C	-0.876069	-1.474029	-0.880606
C105	C	-0.866013	-1.585740	-0.828616
H106	H	-0.844075	-1.433275	-0.894038
H107	H	-0.897340	-1.428011	-0.828356
H108	H	-0.893612	-1.485029	-0.954704
H109	H	-0.848477	-1.574738	-0.754513
H110	H	-0.844738	-1.631755	-0.880854
H111	H	-0.801670	-1.518544	-0.793979
