data_functionalizedCrystal
_audit_creation_method	'MofGen! by Chris Wilmer'
_symmetry_space_group_name_H-M	'P1'
_symmetry_Int_Tables_number	1
_symmetry_cell_setting	triclinic
loop_
_symmetry_equiv_pos_as_xyz
  x,y,z
_cell_length_a	10.723024
_cell_length_b	10.723024
_cell_length_c	8.965430
_cell_angle_alpha	89.997602
_cell_angle_beta	90.003808
_cell_angle_gamma	84.467869
loop_
_atom_site_label
_atom_site_type_symbol
_atom_site_fract_x
_atom_site_fract_y
_atom_site_fract_z
O1	O	-1.657189	-0.175016	-0.124026
O2	O	-1.294036	-0.191770	-0.124030
O3	O	-1.483989	-0.001817	-0.124022
O4	O	-1.467236	-0.364969	-0.124034
O5	O	-1.483972	-0.001832	0.124057
O6	O	-1.294019	-0.191785	0.124049
O7	O	-1.657172	-0.175032	0.124053
Cu8	Cu	-1.475594	-0.183410	0.146703
Cu9	Cu	-1.475614	-0.183392	-0.146680
O10	O	-1.467219	-0.364985	0.124045
C11	C	-1.247528	-0.190558	0.000009
C12	C	-1.108974	-0.186911	0.000007
C13	C	-1.482762	0.044675	0.000015
C14	C	-1.479114	0.183229	0.000010
C15	C	-1.703680	-0.176243	0.000011
C16	C	-1.842234	-0.179891	0.000003
C17	C	-1.033991	-0.293198	0.000002
C18	C	-0.890788	-0.289431	0.000001
N19	N	-1.475589	-0.183422	0.353052
C20	C	-1.468447	-0.411477	0.000004
C21	C	-1.472094	-0.550031	-0.000000
C22	C	-1.585401	0.258212	0.000009
C23	C	-1.581634	0.401415	0.000004
N24	N	-1.475629	-0.183370	-0.353029
C25	C	-1.388471	-0.271954	0.549758
C26	C	-1.362269	-0.159325	0.450297
C27	C	-1.501735	-0.296043	0.450305
C28	C	-1.449371	-0.070683	0.549699
C29	C	-1.588887	-0.207475	0.549716
C30	C	-1.562731	-0.094764	0.450300
H31	H	-0.826355	-0.380421	-0.000009
H32	H	-1.636424	-0.019792	0.406907
O33	O	-1.059153	-0.074988	0.000271
C34	C	-1.042879	0.120158	0.128746
C35	C	-1.099356	-0.006566	0.128651
H36	H	-1.075382	0.175524	0.232514
H37	H	-0.936267	0.103335	0.128840
H38	H	-1.075248	0.175470	0.024878
H39	H	-1.067083	-0.061943	0.232502
H40	H	-1.205961	0.010345	0.128479
O41	O	-1.703237	-0.231669	0.601686
C42	C	-1.924699	-0.166942	0.607965
C43	C	-1.795280	-0.139395	0.548978
H44	H	-1.999147	-0.092341	0.565401
H45	H	-1.946939	-0.263028	0.567159
H46	H	-1.923803	-0.165810	0.735110
H47	H	-1.796079	-0.140460	0.421837
H48	H	-1.773090	-0.043327	0.589899
O49	O	-1.422693	0.042991	0.601375
C50	C	-1.273514	0.197185	0.608315
C51	C	-1.303584	0.068451	0.549660
H52	H	-1.177204	0.217798	0.566552
H53	H	-1.347275	0.272771	0.566454
H54	H	-1.273774	0.196251	0.735467
H55	H	-1.303307	0.069262	0.422512
H56	H	-1.229818	-0.007080	0.591634
H57	H	-1.381099	0.385544	0.000011
O58	O	-1.527943	-0.409788	0.398371
C59	C	-1.465606	-0.631665	0.389912
C60	C	-1.435818	-0.502932	0.448864
H61	H	-1.391126	-0.707003	0.430685
H62	H	-1.561423	-0.653044	0.432534
H63	H	-1.466281	-0.630232	0.262768
H64	H	-1.435074	-0.504269	0.576004
H65	H	-1.340020	-0.481604	0.406127
H66	H	-1.679187	0.216390	0.000020
O67	O	-1.084078	-0.404983	-0.000060
C68	C	-1.272473	-0.510661	0.000048
C69	C	-1.215921	-0.383975	0.000080
H70	H	-1.379075	-0.493719	0.000192
H71	H	-1.240192	-0.566038	-0.103797
H72	H	-1.240003	-0.566021	0.103844
H73	H	-1.248365	-0.328513	-0.103646
H74	H	-1.248197	-0.328693	0.103994
H75	H	-0.906659	-0.088896	-0.000003
H76	H	-1.672624	0.465848	0.000010
O77	O	-1.247905	-0.135226	0.398255
C78	C	-1.026757	-0.201253	0.389963
C79	C	-1.156203	-0.228698	0.448961
H80	H	-0.952578	-0.276793	0.430960
H81	H	-1.028031	-0.200664	0.262813
H82	H	-1.003822	-0.105917	0.432523
H83	H	-1.179219	-0.324036	0.406511
H84	H	-1.154863	-0.229205	0.576109
H85	H	-1.385328	0.225051	-0.000001
H86	H	-1.314731	-0.346758	0.593427
