data_functionalizedCrystal
_audit_creation_method	'MofGen! by Chris Wilmer'
_symmetry_space_group_name_H-M	'P1'
_symmetry_Int_Tables_number	1
_symmetry_cell_setting	triclinic
loop_
_symmetry_equiv_pos_as_xyz
  x,y,z
_cell_length_a	18.050589
_cell_length_b	18.215407
_cell_length_c	18.215407
_cell_angle_alpha	89.992262
_cell_angle_beta	90.004591
_cell_angle_gamma	89.976159
loop_
_atom_site_label
_atom_site_type_symbol
_atom_site_fract_x
_atom_site_fract_y
_atom_site_fract_z
Zn1	Zn	-0.295893	-1.124982	0.416097
Zn2	Zn	0.204107	-0.624982	0.916097
Zn3	Zn	-0.420047	-1.124905	0.293041
Zn4	Zn	0.079953	-0.624905	0.793041
Zn5	Zn	-0.295866	-1.001936	0.293049
Zn6	Zn	0.204134	-0.501936	0.793049
Zn7	Zn	-0.420036	-1.001873	0.416070
Zn8	Zn	0.079964	-0.501873	0.916070
O9	O	-0.357961	-1.063424	0.354564
O10	O	0.142039	-0.563424	0.854564
O11	O	-0.312378	-1.227956	0.399782
O12	O	0.187622	-0.727956	0.899782
O13	O	-0.403567	-1.108587	0.190057
O14	O	0.096433	-0.608587	0.690057
O15	O	-0.191945	-1.018317	0.309387
O16	O	0.308055	-0.518317	0.809387
O17	O	-0.403594	-1.227899	0.309372
O18	O	0.096406	-0.727899	0.809372
O19	O	-0.191965	-1.108718	0.399790
O20	O	0.308035	-0.608718	0.899790
O21	O	-0.312332	-1.018242	0.190064
O22	O	0.187668	-0.518242	0.690064
O23	O	-0.312321	-0.898943	0.309360
O24	O	0.187679	-0.398943	0.809360
O25	O	-0.403576	-1.018210	0.519058
O26	O	0.096424	-0.518210	1.019058
O27	O	-0.403549	-0.898897	0.399743
O28	O	0.096451	-0.398897	0.899743
O29	O	-0.312368	-1.108657	0.519078
O30	O	0.187632	-0.608657	1.019078
O31	O	-0.523970	-1.108526	0.309345
O32	O	-0.023970	-0.608526	0.809345
O33	O	-0.523962	-1.018135	0.399734
O34	O	-0.023962	-0.518135	0.899734
C35	C	-0.357932	-0.872218	0.354550
C36	C	0.142068	-0.372218	0.854550
C37	C	-0.357937	-0.790419	0.354561
C38	C	0.142063	-0.290419	0.854561
C39	C	-0.310533	-0.602253	0.401711
C40	C	0.189467	-0.102253	0.901711
C41	C	-0.310537	-0.525395	0.401712
C42	C	0.189463	-0.025395	0.901712
C43	C	-0.405377	-0.525347	0.307424
C44	C	0.094623	-0.025347	0.807424
C45	C	-0.405369	-0.602204	0.307419
C46	C	0.094631	-0.102204	0.807419
C47	C	-0.357948	-0.640655	0.354566
C48	C	0.142052	-0.140655	0.854566
C49	C	-0.357960	-0.486939	0.354573
C50	C	0.142040	0.013061	0.854573
C51	C	-0.357965	-0.403606	0.354575
C52	C	0.142035	0.096394	0.854575
C53	C	-0.357942	-0.723994	0.354564
C54	C	0.142058	-0.223994	0.854564
C55	C	-0.550913	-1.063335	0.354552
C56	C	-0.050913	-0.563335	0.854552
C57	C	-0.633459	-1.063364	0.354571
C58	C	-0.133459	-0.563364	0.854571
C59	C	-0.832932	-1.014258	0.403708
C60	C	-0.332932	-0.514258	0.903708
C61	C	-0.882348	-0.996330	0.336554
C62	C	-0.382348	-0.496330	0.836554
C63	C	-0.784589	-1.063437	0.354581
C64	C	-0.284589	-0.563437	0.854581
C65	C	-0.882254	-1.081401	0.421742
C66	C	-0.382254	-0.581401	0.921742
C67	C	-0.930574	-1.063505	0.354596
C68	C	-0.430574	-0.563505	0.854596
C69	C	-0.832918	-1.045474	0.287392
C70	C	-0.332918	-0.545474	0.787392
C71	C	-0.832820	-1.130575	0.372625
C72	C	-0.332820	-0.630575	0.872625
C73	C	-0.882214	-1.112673	0.305425
C74	C	-0.382214	-0.612673	0.805425
C75	C	-0.700491	-1.063395	0.354573
C76	C	-0.200491	-0.563395	0.854573
C77	C	-1.014670	-1.063547	0.354596
C78	C	-0.514670	-0.563547	0.854596
C79	C	-0.164255	-1.063533	0.354593
C80	C	0.335745	-0.563533	0.854593
C81	C	-0.081709	-1.063580	0.354605
C82	C	0.418291	-0.563580	0.854605
C83	C	-0.357974	-1.063435	0.546517
C84	C	0.142026	-0.563435	1.046517
C85	C	-0.357979	-1.063440	0.628316
C86	C	0.142021	-0.563440	1.128316
C87	C	-0.357982	-0.255377	0.354577
C88	C	0.142018	0.244623	0.854577
C89	C	-0.357971	-0.337176	0.354578
C90	C	0.142029	0.162824	0.854578
C91	C	-0.405471	-1.110471	0.893375
C92	C	0.094529	-0.610471	1.393375
C93	C	-0.405474	-1.110473	0.816516
C94	C	0.094526	-0.610473	1.316516
C95	C	-0.310476	-1.016388	0.816506
C96	C	0.189524	-0.516388	1.316506
C97	C	-0.310477	-1.016383	0.893363
C98	C	0.189523	-0.516383	1.393363
C99	C	-0.357973	-1.063429	0.931796
C100	C	0.142027	-0.563429	1.431796
C101	C	-0.357976	-1.063435	0.778080
C102	C	0.142024	-0.563435	1.278080
C103	C	-0.357979	-1.063437	0.694746
C104	C	0.142021	-0.563437	1.194746
C105	C	-0.357971	-1.063426	1.015135
C106	C	0.142029	-0.563426	1.515135
C107	C	-0.357967	-1.063413	1.163358
C108	C	0.142033	-0.563413	1.663358
C109	C	-0.357970	-1.063424	1.081559
C110	C	0.142030	-0.563424	1.581559
H111	H	-0.443986	-0.494030	0.269039
H112	H	0.056014	0.005970	0.769039
H113	H	-0.271805	-0.978086	0.785205
H114	H	0.228195	-0.478086	1.285205
H115	H	-0.271926	-0.494131	0.440101
H116	H	0.228074	0.005869	0.940101
O117	O	-0.451646	-1.156063	0.930790
O118	O	0.048354	-0.656063	1.430790
C119	C	-0.499621	-1.114137	0.975223
C120	C	0.000379	-0.614137	1.475223
H121	H	-0.473423	-1.058379	0.986729
H122	H	0.026577	-0.558379	1.486729
H123	H	-0.509576	-1.144106	1.029273
H124	H	-0.009576	-0.644106	1.529273
H125	H	-0.554656	-1.106025	0.945596
H126	H	-0.054656	-0.606025	1.445596
O127	O	-0.806876	-1.198233	0.390980
O128	O	-0.306876	-0.698233	0.890980
C129	C	-0.831983	-1.216933	0.461848
C130	C	-0.331983	-0.716933	0.961848
H131	H	-0.845896	-1.164765	0.493553
H132	H	-0.345896	-0.664765	0.993553
H133	H	-0.786740	-1.248491	0.492057
H134	H	-0.286740	-0.748491	0.992057
H135	H	-0.883613	-1.252664	0.457240
H136	H	-0.383613	-0.752664	0.957240
O137	O	-0.264264	-0.970660	0.930576
O138	O	0.235736	-0.470660	1.430576
C139	C	-0.222351	-0.929128	0.880176
C140	C	0.277649	-0.429128	1.380176
H141	H	-0.219778	-0.959275	0.825395
H142	H	0.280222	-0.459275	1.325395
H143	H	-0.163839	-0.921305	0.902390
H144	H	0.336161	-0.421305	1.402390
H145	H	-0.249543	-0.873223	0.871988
H146	H	0.250457	-0.373223	1.371988
H147	H	-0.903717	-1.154291	0.263839
H148	H	-0.403717	-0.654291	0.763839
O149	O	-0.807144	-0.964475	0.453118
O150	O	-0.307144	-0.464475	0.953118
C151	C	-0.832400	-0.893801	0.433831
C152	C	-0.332400	-0.393801	0.933831
H153	H	-0.846266	-0.892465	0.372787
H154	H	-0.346266	-0.392465	0.872787
H155	H	-0.787265	-0.851787	0.446063
H156	H	-0.287265	-0.351787	0.946063
H157	H	-0.884089	-0.880000	0.467044
H158	H	-0.384089	-0.380000	0.967044
O159	O	-0.264398	-0.639492	0.447528
O160	O	0.235602	-0.139492	0.947528
C161	C	-0.222563	-0.589112	0.489152
C162	C	0.277437	-0.089112	0.989152
H163	H	-0.219949	-0.534321	0.459014
H164	H	0.280051	-0.034321	0.959014
H165	H	-0.164060	-0.611338	0.497098
H166	H	0.335940	-0.111338	0.997098
H167	H	-0.249849	-0.580939	0.545000
H168	H	0.250151	-0.080939	1.045000
O169	O	-0.451501	-0.639399	0.261597
O170	O	0.048499	-0.139399	0.761597
C171	C	-0.493349	-0.588982	0.219976
C172	C	0.006651	-0.088982	0.719976
H173	H	-0.495978	-0.534199	0.250117
H174	H	0.004022	-0.034199	0.750117
H175	H	-0.551845	-0.611172	0.212027
H176	H	-0.051845	-0.111172	0.712027
H177	H	-0.466064	-0.580805	0.164129
H178	H	0.033936	-0.080805	0.664129
H179	H	-0.904120	-0.939586	0.321306
H180	H	-0.404120	-0.439586	0.821306
H181	H	-0.811337	-1.030241	0.230585
H182	H	-0.311337	-0.530241	0.730585
H183	H	-0.903925	-1.096568	0.478534
H184	H	-0.403925	-0.596568	0.978534
O185	O	-0.451636	-1.156241	0.779308
O186	O	0.048364	-0.656241	1.279308
C187	C	-0.493568	-1.197746	0.829714
C188	C	0.006432	-0.697746	1.329714
H189	H	-0.463148	-1.200306	0.884502
H190	H	0.036852	-0.700306	1.384502
H191	H	-0.501495	-1.255727	0.807517
H192	H	-0.001495	-0.755727	1.307517
H193	H	-0.549970	-1.170770	0.837880
H194	H	-0.049970	-0.670770	1.337880
