data_functionalizedCrystal
_audit_creation_method	'MofGen! by Chris Wilmer'
_symmetry_space_group_name_H-M	'P1'
_symmetry_Int_Tables_number	1
_symmetry_cell_setting	triclinic
loop_
_symmetry_equiv_pos_as_xyz
  x,y,z
_cell_length_a	10.654545
_cell_length_b	14.044220
_cell_length_c	9.730223
_cell_angle_alpha	89.994583
_cell_angle_beta	89.997167
_cell_angle_gamma	88.835978
loop_
_atom_site_label
_atom_site_type_symbol
_atom_site_fract_x
_atom_site_fract_y
_atom_site_fract_z
O1	O	1.681229	0.133211	-0.114280
O2	O	2.181229	0.633211	0.385720
O3	O	1.317026	0.145909	-0.114287
O4	O	1.817026	0.645909	0.385713
O5	O	1.493660	0.001539	-0.114270
O6	O	1.993660	0.501539	0.385730
O7	O	1.504594	0.277580	-0.114297
O8	O	2.004594	0.777580	0.385703
O9	O	1.493648	0.001535	0.114310
O10	O	1.993648	0.501535	0.614310
O11	O	1.317013	0.145905	0.114293
O12	O	1.817013	0.645905	0.614293
O13	O	1.681216	0.133207	0.114300
O14	O	2.181216	0.633207	0.614300
Zn15	Zn	1.499112	0.139555	0.150588
Zn16	Zn	1.999112	0.639555	0.650588
Zn17	Zn	1.499129	0.139561	-0.150575
Zn18	Zn	1.999129	0.639561	0.349425
O19	O	1.504581	0.277576	0.114283
O20	O	2.004581	0.777576	0.614283
C21	C	1.270128	0.144975	0.000003
C22	C	1.770128	0.644975	0.500003
C23	C	1.130404	0.142189	0.000001
C24	C	1.630404	0.642189	0.500001
C25	C	1.064761	0.140875	0.124601
C26	C	1.564761	0.640875	0.624601
C27	C	0.933476	0.138240	0.124601
C28	C	1.433476	0.638240	0.624601
C29	C	0.933490	0.138238	-0.124609
C30	C	1.433490	0.638238	0.375391
C31	C	1.064772	0.140866	-0.124608
C32	C	1.564772	0.640866	0.375392
C33	C	1.488868	-0.033808	0.000020
C34	C	1.988868	0.466192	0.500020
C35	C	1.474593	-0.139128	0.000022
C36	C	1.974593	0.360872	0.500022
C37	C	1.448494	-0.331961	0.000002
C38	C	1.948494	0.168039	0.500002
C39	C	1.549742	-0.388929	-0.000001
C40	C	2.049742	0.111071	0.499999
C41	C	1.535220	-0.496228	-0.000012
C42	C	2.035220	0.003772	0.499988
C43	C	1.463014	-0.224652	0.000013
C44	C	1.963014	0.275348	0.500013
C45	C	1.728114	0.134140	0.000007
C46	C	2.228114	0.634140	0.500007
C47	C	1.867838	0.136927	0.000000
C48	C	2.367838	0.636927	0.500000
C49	C	1.509373	0.312924	-0.000011
C50	C	2.009373	0.812924	0.499989
C51	C	1.523649	0.418244	-0.000021
C52	C	2.023649	0.918244	0.499979
N53	N	1.499110	0.139551	0.356125
N54	N	1.999110	0.639551	0.856125
N55	N	1.499141	0.139557	-0.356112
N56	N	1.999141	0.639557	0.143888
C57	C	1.577356	0.075652	0.428058
C58	C	2.077356	0.575652	0.928058
C59	C	1.577368	0.075652	0.571941
C60	C	2.077368	0.575652	1.071941
C61	C	1.420886	0.203460	0.571945
C62	C	1.920886	0.703460	1.071945
C63	C	1.420868	0.203454	0.428064
C64	C	1.920868	0.703454	0.928064
H65	H	1.118194	0.141952	0.226065
H66	H	1.618194	0.641952	0.726065
Cl67	Cl	1.675736	-0.004684	0.662368
Cl68	Cl	2.175736	0.495316	1.162368
Cl69	Cl	1.297835	-0.381072	-0.000008
Cl70	Cl	1.797835	0.118928	0.499992
H71	H	0.880035	0.137171	0.226063
H72	H	1.380035	0.637171	0.726063
H73	H	1.357185	0.255489	0.630532
H74	H	1.857185	0.755489	1.130532
Cl75	Cl	1.700411	-0.339819	0.000017
Cl76	Cl	2.200411	0.160181	0.500017
H77	H	1.357145	0.255489	0.369492
H78	H	1.857145	0.755489	0.869492
H79	H	0.880037	0.137162	-0.226062
H80	H	1.380037	0.637162	0.273938
Cl81	Cl	1.675712	-0.004687	0.337626
Cl82	Cl	2.175712	0.495313	0.837626
H83	H	1.118221	0.141933	-0.226079
H84	H	1.618221	0.641933	0.273921
