data_functionalizedCrystal
_audit_creation_method	'MofGen! by Chris Wilmer'
_symmetry_space_group_name_H-M	'P1'
_symmetry_Int_Tables_number	1
_symmetry_cell_setting	triclinic
loop_
_symmetry_equiv_pos_as_xyz
  x,y,z
_cell_length_a	18.050591
_cell_length_b	18.050589
_cell_length_c	21.395355
_cell_angle_alpha	89.987098
_cell_angle_beta	89.970606
_cell_angle_gamma	90.024669
loop_
_atom_site_label
_atom_site_type_symbol
_atom_site_fract_x
_atom_site_fract_y
_atom_site_fract_z
Zn1	Zn	1.135363	-0.295816	-0.354367
Zn2	Zn	1.635363	0.204184	0.145633
Zn3	Zn	1.135253	-0.419988	-0.249600
Zn4	Zn	1.635253	0.080012	0.250400
Zn5	Zn	1.011161	-0.295808	-0.249595
Zn6	Zn	1.511161	0.204192	0.250405
Zn7	Zn	1.011130	-0.419961	-0.354331
Zn8	Zn	1.511130	0.080039	0.145669
O9	O	1.073227	-0.357893	-0.301973
O10	O	1.573227	0.142107	0.198027
O11	O	1.239273	-0.312302	-0.340486
O12	O	1.739273	0.187698	0.159514
O13	O	1.118759	-0.403523	-0.161921
O14	O	1.618759	0.096477	0.338079
O15	O	1.027696	-0.191885	-0.263506
O16	O	1.527696	0.308115	0.236494
O17	O	1.239192	-0.403530	-0.263514
O18	O	1.739192	0.096470	0.236486
O19	O	1.118947	-0.191890	-0.340481
O20	O	1.618947	0.308110	0.159519
O21	O	1.027589	-0.312289	-0.161917
O22	O	1.527589	0.187711	0.338083
O23	O	0.907233	-0.312263	-0.263471
O24	O	1.407233	0.187737	0.236529
O25	O	1.027643	-0.403485	-0.442014
O26	O	1.527643	0.096515	0.057986
O27	O	0.907210	-0.403477	-0.340420
O28	O	1.407210	0.096523	0.159580
O29	O	1.118916	-0.312276	-0.442040
O30	O	1.618916	0.187724	0.057960
O31	O	1.118729	-0.523909	-0.263479
O32	O	1.618729	-0.023909	0.236521
O33	O	1.027536	-0.523889	-0.340425
O34	O	1.527536	-0.023889	0.159575
C35	C	0.880275	-0.357867	-0.301942
C36	C	1.380275	0.142133	0.198058
C37	C	0.797729	-0.357874	-0.301943
C38	C	1.297729	0.142126	0.198057
C39	C	1.073137	-0.550845	-0.301963
C40	C	1.573137	-0.050845	0.198037
C41	C	1.073167	-0.633391	-0.301979
C42	C	1.573167	-0.133391	0.198021
C43	C	0.548894	-0.308220	-0.260197
C44	C	1.048894	0.191780	0.239803
C45	C	0.598338	-0.290145	-0.317376
C46	C	1.098338	0.209855	0.182624
C47	C	0.500609	-0.357912	-0.301994
C48	C	1.000609	0.142088	0.198006
C49	C	0.598247	-0.375933	-0.244793
C50	C	1.098247	0.124067	0.255207
C51	C	0.646594	-0.357891	-0.301966
C52	C	1.146594	0.142109	0.198034
C53	C	0.548965	-0.339802	-0.359204
C54	C	1.048965	0.160198	0.140796
C55	C	0.548870	-0.425621	-0.286582
C56	C	1.048870	0.074379	0.213418
C57	C	0.598291	-0.407572	-0.343801
C58	C	1.098291	0.092428	0.156199
C59	C	0.416510	-0.357922	-0.302010
C60	C	0.916510	0.142078	0.197990
C61	C	0.730690	-0.357881	-0.301957
C62	C	1.230690	0.142119	0.198043
C63	C	1.023625	-0.832858	-0.343807
C64	C	1.523625	-0.332858	0.156193
C65	C	1.005516	-0.882285	-0.286633
C66	C	1.505516	-0.382285	0.213367
C67	C	1.073240	-0.784521	-0.301987
C68	C	1.573240	-0.284521	0.198013
C69	C	1.091386	-0.882177	-0.359168
C70	C	1.591386	-0.382177	0.140832
C71	C	1.073309	-0.930506	-0.302000
C72	C	1.573309	-0.430506	0.198000
C73	C	1.055095	-0.832861	-0.244783
C74	C	1.555095	-0.332861	0.255217
C75	C	1.140996	-0.832748	-0.317356
C76	C	1.640996	-0.332748	0.182644
C77	C	1.122913	-0.882153	-0.260142
C78	C	1.622913	-0.382153	0.239858
C79	C	1.073198	-0.700423	-0.301981
C80	C	1.573198	-0.200423	0.198019
C81	C	1.073351	-1.014603	-0.302000
C82	C	1.573351	-0.514603	0.198000
C83	C	1.266933	-0.357920	-0.302005
C84	C	1.766933	0.142080	0.197995
C85	C	1.349478	-0.357931	-0.302018
C86	C	1.849478	0.142069	0.197982
C87	C	1.073289	-0.357878	-0.465396
C88	C	1.573289	0.142122	0.034604
C89	C	1.073315	-0.357872	-0.535038
C90	C	1.573315	0.142128	-0.035038
C91	C	1.073337	-0.164188	-0.301997
C92	C	1.573337	0.335812	0.198003
C93	C	1.073384	-0.081642	-0.302007
C94	C	1.573384	0.418358	0.197993
C95	C	1.120839	-0.310377	-0.567765
C96	C	1.620839	0.189623	-0.067765
C97	C	1.120838	-0.310345	-0.633201
C98	C	1.620838	0.189655	-0.133201
C99	C	1.073321	-0.357821	-0.665906
C100	C	1.573321	0.142179	-0.165906
C101	C	1.025787	-0.405319	-0.633170
C102	C	1.525787	0.094681	-0.133170
C103	C	1.025785	-0.405344	-0.567736
C104	C	1.525785	0.094656	-0.067736
C105	C	1.067426	-0.424690	-0.769577
C106	C	1.567426	0.075310	-0.269577
C107	C	1.067434	-0.424666	-0.835010
C108	C	1.567434	0.075334	-0.335010
C109	C	1.073325	-0.357743	-0.867727
C110	C	1.573325	0.142257	-0.367727
C111	C	1.079224	-0.290842	-0.835003
C112	C	1.579224	0.209158	-0.335003
C113	C	1.079221	-0.290867	-0.769569
C114	C	1.579221	0.209133	-0.269569
C115	C	1.073318	-0.357799	-0.736858
C116	C	1.573318	0.142201	-0.236858
C117	C	1.120851	-0.310210	-0.971407
C118	C	1.620851	0.189790	-0.471407
C119	C	1.120844	-0.310176	-1.036844
C120	C	1.620844	0.189824	-0.536844
C121	C	1.025798	-0.405157	-1.036812
C122	C	1.525798	0.094843	-0.536812
C123	C	1.025800	-0.405183	-0.971377
C124	C	1.525800	0.094817	-0.471377
C125	C	1.073331	-0.357711	-0.938678
C126	C	1.573331	0.142289	-0.438678
C127	C	1.073208	-0.357855	-0.139185
C128	C	1.573208	0.142145	0.360815
C129	C	1.073326	-0.357652	-0.069544
C130	C	1.573326	0.142348	0.430456
H131	H	0.527208	-0.266174	-0.224906
H132	H	1.027208	0.233826	0.275094
H133	H	1.084023	-0.236394	-0.742928
H134	H	1.584023	0.263606	-0.242928
F135	F	0.626546	-0.395867	-0.181580
F136	F	1.126546	0.104133	0.318420
F137	F	1.111410	-0.910494	-0.422367
F138	F	1.611410	-0.410494	0.077633
H139	H	1.159549	-0.271551	-0.944783
H140	H	1.659549	0.228449	-0.444783
H141	H	1.159541	-0.271721	-0.541146
H142	H	1.659541	0.228279	-0.041146
F143	F	1.034986	-0.804667	-0.181564
F144	F	1.534986	-0.304667	0.318436
H145	H	0.619842	-0.449586	-0.379176
H146	H	1.119842	0.050414	0.120824
H147	H	0.981606	-0.811212	-0.379123
H148	H	1.481606	-0.311212	0.120877
H149	H	0.620053	-0.232874	-0.330412
H150	H	1.120053	0.267126	0.169588
H151	H	0.527126	-0.482873	-0.273537
H152	H	1.027126	0.017127	0.226463
H153	H	0.527406	-0.324484	-0.407581
H154	H	1.027406	0.175516	0.092419
H155	H	0.948249	-0.904060	-0.273646
H156	H	1.448249	-0.404060	0.226354
H157	H	1.164900	-0.903661	-0.224741
H158	H	1.664900	-0.403661	0.275259
H159	H	1.198250	-0.810975	-0.330371
H160	H	1.698250	-0.310975	0.169629
F161	F	1.171409	-0.259781	-0.668039
F162	F	1.671409	0.240219	-0.168039
H163	H	1.084023	-0.236346	-0.861640
H164	H	1.584023	0.263654	-0.361640
H165	H	0.987106	-0.443863	-0.944729
H166	H	1.487106	0.056137	-0.444729
H167	H	0.987096	-0.443972	-0.659803
H168	H	1.487096	0.056028	-0.159803
F169	F	1.061162	-0.495867	-0.869831
F170	F	1.561162	0.004133	-0.369831
F171	F	1.171437	-0.259632	-1.071675
F172	F	1.671437	0.240368	-0.571675
F173	F	0.975221	-0.455679	-1.071615
F174	F	1.475221	0.044321	-0.571615
H175	H	1.062429	-0.479173	-0.742944
H176	H	1.562429	0.020827	-0.242944
H177	H	0.987081	-0.444019	-0.541089
H178	H	1.487081	0.055981	-0.041089
