data_functionalizedCrystal
_audit_creation_method	'MofGen! by Chris Wilmer'
_symmetry_space_group_name_H-M	'P1'
_symmetry_Int_Tables_number	1
_symmetry_cell_setting	triclinic
loop_
_symmetry_equiv_pos_as_xyz
  x,y,z
_cell_length_a	15.297327
_cell_length_b	12.759401
_cell_length_c	12.759393
_cell_angle_alpha	90.018567
_cell_angle_beta	80.358266
_cell_angle_gamma	99.705457
loop_
_atom_site_label
_atom_site_type_symbol
_atom_site_fract_x
_atom_site_fract_y
_atom_site_fract_z
Zn1	Zn	-0.359128	1.533794	0.666304
Zn2	Zn	0.140872	2.033794	1.166304
Zn3	Zn	-0.510015	1.503244	0.521009
Zn4	Zn	-0.010015	2.003244	1.021009
Zn5	Zn	-0.359172	1.358087	0.490652
Zn6	Zn	0.140828	1.858087	0.990652
Zn7	Zn	-0.509943	1.327654	0.696636
Zn8	Zn	-0.009943	1.827654	1.196636
O9	O	-0.434565	1.430695	0.593650
O10	O	0.065435	1.930695	1.093650
O11	O	-0.379155	1.676760	0.647041
O12	O	0.120845	2.176760	1.147041
O13	O	-0.490054	1.483939	0.369971
O14	O	0.009946	1.983939	0.869971
O15	O	-0.232922	1.406916	0.488554
O16	O	0.267078	1.906916	0.988554
O17	O	-0.490011	1.654315	0.540293
O18	O	0.009989	2.154315	1.040293
O19	O	-0.232889	1.536007	0.617604
O20	O	0.267111	2.036007	1.117604
O21	O	-0.379231	1.377293	0.347667
O22	O	0.120769	1.877293	0.847667
O23	O	-0.379161	1.207031	0.517965
O24	O	0.120839	1.707031	1.017965
O25	O	-0.489888	1.355049	0.839623
O26	O	0.010112	1.855049	1.339623
O27	O	-0.489931	1.184673	0.669301
O28	O	0.010069	1.684673	1.169301
O29	O	-0.379085	1.506498	0.817339
O30	O	0.120915	2.006498	1.317339
O31	O	-0.636250	1.454430	0.569705
O32	O	-0.136250	1.954430	1.069705
O33	O	-0.636197	1.325425	0.698737
O34	O	-0.136197	1.825425	1.198737
C35	C	-0.434543	1.157732	0.593631
C36	C	0.065457	1.657732	1.093631
C37	C	-0.434556	1.040952	0.593652
C38	C	0.065444	1.540952	1.093652
C39	C	-0.376942	0.997749	0.649362
C40	C	0.123058	1.497749	1.149362
C41	C	-0.376960	0.888021	0.649372
C42	C	0.123040	1.388021	1.149372
C43	C	-0.492212	0.864709	0.537962
C44	C	0.007788	1.364709	1.037962
C45	C	-0.492190	0.974436	0.537946
C46	C	0.007810	1.474436	1.037946
C47	C	-0.319309	1.064265	0.705068
C48	C	0.180691	1.564265	1.205068
C49	C	-0.261691	1.021062	0.760783
C50	C	0.238309	1.521062	1.260783
C51	C	-0.261708	0.911335	0.760793
C52	C	0.238292	1.411335	1.260793
C53	C	-0.319343	0.844810	0.705088
C54	C	0.180657	1.344810	1.205088
C55	C	-0.668957	1.383339	0.640829
C56	C	-0.168957	1.883339	1.140829
C57	C	-0.769231	1.363176	0.661048
C58	C	-0.269231	1.863176	1.161048
C59	C	-1.051873	1.575236	0.449502
C60	C	-0.551873	2.075236	0.949502
C61	C	-0.957660	1.594179	0.430500
C62	C	-0.457660	2.094179	0.930500
C63	C	-0.910548	1.536430	0.488136
C64	C	-0.410548	2.036430	0.988136
C65	C	-0.957658	1.459734	0.564776
C66	C	-0.457658	1.959734	1.064776
C67	C	-1.051880	1.440783	0.583774
C68	C	-0.551880	1.940783	1.083774
C69	C	-0.910556	1.401977	0.622408
C70	C	-0.410556	1.901977	1.122408
C71	C	-0.957665	1.325281	0.699048
C72	C	-0.457665	1.825281	1.199048
C73	C	-1.051878	1.306334	0.718043
C74	C	-0.551878	1.806334	1.218043
C75	C	-1.098990	1.364082	0.660407
C76	C	-0.598990	1.864082	1.160407
C77	C	-0.816334	1.420929	0.603410
C78	C	-0.316334	1.920929	1.103410
C79	C	-0.816341	1.286475	0.737681
C80	C	-0.316341	1.786475	1.237681
C81	C	-0.910554	1.267532	0.756683
C82	C	-0.410554	1.767532	1.256683
C83	C	-0.199257	1.478264	0.546309
C84	C	0.300743	1.978264	1.046309
C85	C	-0.098983	1.498535	0.526136
C86	C	0.401017	1.998535	1.026136
C87	C	-0.434473	1.430787	0.867665
C88	C	0.065527	1.930787	1.367665
C89	C	-0.434435	1.430826	0.984434
C90	C	0.065565	1.930826	1.484434
C91	C	-0.434586	1.704723	0.593670
C92	C	0.065414	2.204723	1.093670
C93	C	-0.434596	1.821498	0.593678
C94	C	0.065404	2.321498	1.093678
C95	C	-0.434590	1.430677	0.320688
C96	C	0.065410	1.930677	0.820688
C97	C	-0.434375	1.430892	0.203868
C98	C	0.065625	1.930892	0.703868
C99	C	-0.376734	1.509696	1.027693
C100	C	0.123266	2.009696	1.527693
C101	C	-0.376702	1.509728	1.137411
C102	C	0.123298	2.009728	1.637411
C103	C	-0.492078	1.352014	1.160602
C104	C	0.007922	1.852014	1.660602
C105	C	-0.492105	1.351979	1.050886
C106	C	0.007895	1.851979	1.550886
C107	C	-0.319064	1.588543	0.961241
C108	C	0.180936	2.088543	1.461241
C109	C	-0.261359	1.667420	1.004500
C110	C	0.238641	2.167420	1.504500
C111	C	-0.261327	1.667451	1.114217
C112	C	0.238673	2.167451	1.614217
C113	C	-0.318999	1.588606	1.180677
C114	C	0.181001	2.088606	1.680677
H115	H	-0.214761	1.075234	0.806128
H116	H	0.285239	1.575234	1.306128
Cl117	Cl	-0.969788	1.171116	0.853027
Cl118	Cl	-0.469788	1.671116	1.353027
H119	H	-0.319288	1.153612	0.705066
H120	H	0.180712	1.653612	1.205066
H121	H	-0.214334	1.731671	1.149433
H122	H	0.285666	2.231671	1.649433
H123	H	-0.777985	1.483375	0.541008
H124	H	-0.277985	1.983375	1.041008
H125	H	-0.539104	1.009612	0.492583
H126	H	-0.039104	1.509612	0.992583
H127	H	-0.777983	1.239449	0.784611
H128	H	-0.277983	1.739449	1.284611
H129	H	-0.833836	1.551858	0.472659
H130	H	-0.333836	2.051858	0.972659
H131	H	-0.214787	0.876163	0.806150
H132	H	0.285213	1.376163	1.306150
Cl133	Cl	-0.898443	1.690603	0.334168
Cl134	Cl	-0.398443	2.190603	0.834168
Cl135	Cl	-0.318943	1.588636	1.318606
Cl136	Cl	0.181057	2.088636	1.818606
H137	H	-0.319333	0.755467	0.705075
H138	H	0.180667	1.255467	1.205075
Cl139	Cl	-0.564578	1.252905	1.244152
Cl140	Cl	-0.064578	1.752905	1.744152
H141	H	-0.539137	0.810536	0.492612
H142	H	-0.039137	1.310536	0.992612
H143	H	-0.539076	1.287743	1.015661
H144	H	-0.039076	1.787743	1.515661
Cl145	Cl	-0.319104	1.588511	0.823311
Cl146	Cl	0.180896	2.088511	1.323311
H147	H	-1.090240	1.622240	0.402577
H148	H	-0.590240	2.122240	0.902577
Cl149	Cl	-1.217433	1.339845	0.683865
Cl150	Cl	-0.717433	1.839845	1.183865
Cl151	Cl	-0.188848	1.766521	0.920951
Cl152	Cl	0.311152	2.266521	1.420951
H153	H	-1.090232	1.243870	0.780436
H154	H	-0.590232	1.743870	1.280436
