data_functionalizedCrystal
_audit_creation_method	'MofGen! by Chris Wilmer'
_symmetry_space_group_name_H-M	'P1'
_symmetry_Int_Tables_number	1
_symmetry_cell_setting	triclinic
loop_
_symmetry_equiv_pos_as_xyz
  x,y,z
_cell_length_a	13.032831
_cell_length_b	13.032721
_cell_length_c	13.032268
_cell_angle_alpha	103.289627
_cell_angle_beta	90.886977
_cell_angle_gamma	90.902885
loop_
_atom_site_label
_atom_site_type_symbol
_atom_site_fract_x
_atom_site_fract_y
_atom_site_fract_z
Zn1	Zn	1.399428	-0.702884	-0.857492
Zn2	Zn	1.399318	-0.857952	-0.702424
Zn3	Zn	1.255414	-0.659406	-0.658991
Zn4	Zn	1.206359	-0.852325	-0.851935
O5	O	1.315130	-0.768142	-0.767710
O6	O	1.540438	-0.744005	-0.857424
O7	O	1.400712	-0.815774	-0.551018
O8	O	1.295093	-0.519539	-0.669471
O9	O	1.540357	-0.857933	-0.743496
O10	O	1.400900	-0.551483	-0.815309
O11	O	1.294986	-0.669903	-0.519108
O12	O	1.107882	-0.664446	-0.664083
O13	O	1.211487	-0.848342	-0.998317
O14	O	1.071842	-0.806183	-0.805839
O15	O	1.353334	-0.738549	-1.002399
O16	O	1.353146	-1.002840	-0.738108
O17	O	1.211380	-0.998706	-0.847953
C18	C	1.053296	-0.729987	-0.729646
C19	C	0.941275	-0.713692	-0.713389
C20	C	0.873527	-0.776647	-0.776195
C21	C	0.757747	-0.759806	-0.759394
C22	C	1.276952	-1.038540	-0.797167
C23	C	1.260707	-1.154235	-0.809817
C24	C	1.323655	-1.207840	-0.761163
C25	C	1.306867	-1.327417	-0.774236
C26	C	1.577986	-0.806447	-0.805925
C27	C	1.690000	-0.822770	-0.822209
C28	C	1.276951	-0.797668	-1.039178
C29	C	1.260681	-0.810250	-1.154861
C30	C	1.353481	-0.496694	-0.738165
C31	C	1.369823	-0.381019	-0.725575
C32	C	1.323611	-0.761535	-1.208456
C33	C	1.306797	-0.774538	-1.328021
C34	C	1.353229	-0.738664	-0.497299
C35	C	1.369735	-0.725817	-0.381613
H36	H	0.913561	-0.647322	-0.647184
H37	H	1.240463	-0.825867	-1.370647
H38	H	1.389980	-1.165210	-0.709834
H39	H	1.194352	-0.861574	-1.197492
O40	O	1.181561	-1.204932	-0.871136
C41	C	1.126275	-1.131869	-0.913814
H42	H	1.177849	-1.060710	-0.915032
H43	H	1.056730	-1.105134	-0.863272
C44	C	1.026816	-1.271697	-1.025568
C45	C	1.090163	-1.184302	-1.027072
H46	H	1.004535	-1.304040	-1.095429
H47	H	1.064059	-1.320921	-0.996813
H48	H	0.968869	-1.249405	-0.983444
H49	H	1.148114	-1.206596	-1.069184
H50	H	1.052928	-1.135082	-1.055837
H51	H	0.730039	-0.693432	-0.693185
H52	H	0.717707	-0.889135	-0.888428
H53	H	1.389932	-0.710199	-1.165823
O54	O	0.906704	-0.855699	-0.855235
C55	C	0.966479	-0.812664	-0.924899
H56	H	0.998417	-0.732017	-0.881978
H57	H	0.916724	-0.803896	-0.994981
C58	C	1.016613	-0.985494	-1.017022
C59	C	1.055847	-0.886445	-0.964303
H60	H	1.071737	-1.031006	-1.041333
H61	H	0.976338	-1.014488	-0.970092
H62	H	0.975151	-0.978172	-1.075417
H63	H	1.097297	-0.893767	-0.905902
H64	H	1.096130	-0.857453	-1.011225
O65	O	1.448742	-0.664471	-1.330636
C66	C	1.409626	-0.582085	-1.252126
H67	H	1.330335	-0.605927	-1.228832
H68	H	1.403587	-0.507877	-1.283971
C69	C	1.579551	-0.530843	-1.183427
C70	C	1.482168	-0.560131	-1.154810
H71	H	1.624300	-0.517296	-1.123399
H72	H	1.605906	-0.586345	-1.236322
H73	H	1.574504	-0.469006	-1.209965
H74	H	1.487214	-0.621973	-1.128285
H75	H	1.455816	-0.504638	-1.101908
H76	H	1.436153	-1.338392	-0.674242
O77	O	1.227763	-1.378419	-0.835408
C78	C	1.228622	-1.486459	-0.834859
H79	H	1.270927	-1.497287	-0.760974
H80	H	1.269262	-1.531769	-0.907775
C81	C	1.065551	-1.515342	-0.926316
C82	C	1.117504	-1.528641	-0.835564
H83	H	0.997009	-1.541364	-0.926756
H84	H	1.064974	-1.442554	-0.926689
H85	H	1.099429	-1.553101	-0.987069
H86	H	1.083633	-1.490872	-0.774813
H87	H	1.118073	-1.601423	-0.835180
