data_functionalizedCrystal
_audit_creation_method	'MofGen! by Chris Wilmer'
_symmetry_space_group_name_H-M	'P1'
_symmetry_Int_Tables_number	1
_symmetry_cell_setting	triclinic
loop_
_symmetry_equiv_pos_as_xyz
  x,y,z
_cell_length_a	11.792241
_cell_length_b	8.559649
_cell_length_c	7.681481
_cell_angle_alpha	85.074634
_cell_angle_beta	84.227878
_cell_angle_gamma	103.013960
loop_
_atom_site_label
_atom_site_type_symbol
_atom_site_fract_x
_atom_site_fract_y
_atom_site_fract_z
O1	O	1.474844	-0.233835	0.146253
O2	O	1.142435	-0.256393	0.146293
O3	O	1.337925	-0.012765	0.146267
O4	O	1.279354	-0.477462	0.146278
O5	O	1.362006	0.017269	-0.146594
O6	O	1.166515	-0.226359	-0.146568
O7	O	1.498924	-0.203801	-0.146608
Zn8	Zn	1.336543	-0.210312	-0.193086
Zn9	Zn	1.304816	-0.249882	0.192771
O10	O	1.303434	-0.447429	-0.146583
C11	C	1.112313	-0.239960	-0.000132
C12	C	0.986687	-0.235721	-0.000117
C13	C	1.354404	0.061743	-0.000160
C14	C	1.367615	0.239008	-0.000152
N15	N	1.358205	-0.183305	-0.456423
C16	C	0.756692	-0.227918	-0.000168
C17	C	0.884679	-0.232253	-0.000140
C18	C	1.529045	-0.220234	-0.000179
C19	C	1.654671	-0.224474	-0.000183
C20	C	1.286955	-0.521937	-0.000151
C21	C	1.273743	-0.699203	-0.000148
N22	N	1.283164	-0.276876	0.456108
H23	H	1.183267	0.218083	-0.000143
C24	C	1.573948	0.258488	-0.000181
C25	C	1.489769	0.350666	-0.000178
H26	H	1.649359	0.327425	-0.000208
H27	H	1.556401	0.182313	0.101949
H28	H	1.573186	0.203232	-0.102307
H29	H	1.490526	0.405913	0.101955
H30	H	1.507321	0.426870	-0.102318
C31	C	1.453444	0.098320	-0.513510
C32	C	1.461619	-0.054370	-0.557938
H33	H	1.517293	0.177917	-0.576184
H34	H	1.381725	0.119361	-0.543658
H35	H	1.455791	0.101240	-0.390557
H36	H	1.459263	-0.057294	-0.680890
H37	H	1.533357	-0.075416	-0.527802
C38	C	1.187921	-0.558507	-0.486795
C39	C	1.179745	-0.405817	-0.442368
H40	H	1.124079	-0.638106	-0.424108
H41	H	1.185571	-0.561432	-0.609731
H42	H	1.259652	-0.579544	-0.456647
H43	H	1.108018	-0.384775	-0.472528
H44	H	1.182084	-0.402888	-0.319405
