data_functionalizedCrystal
_audit_creation_method	'MofGen! by Chris Wilmer'
_symmetry_space_group_name_H-M	'P1'
_symmetry_Int_Tables_number	1
_symmetry_cell_setting	triclinic
loop_
_symmetry_equiv_pos_as_xyz
  x,y,z
_cell_length_a	19.188930
_cell_length_b	17.666332
_cell_length_c	14.519709
_cell_angle_alpha	89.992588
_cell_angle_beta	96.587538
_cell_angle_gamma	90.023234
loop_
_atom_site_label
_atom_site_type_symbol
_atom_site_fract_x
_atom_site_fract_y
_atom_site_fract_z
O1	O	0.926560	0.063193	-0.115137
O2	O	0.723303	0.063142	-0.130636
O3	O	0.830321	0.063162	0.011385
O4	O	0.819542	0.063173	-0.257159
O5	O	0.830302	-0.062735	0.011393
O6	O	0.723285	-0.062755	-0.130629
O7	O	0.926541	-0.062703	-0.115129
Cu8	Cu	0.824911	-0.074225	-0.122878
Cu9	Cu	0.824933	0.074663	-0.122887
O10	O	0.819524	-0.062724	-0.257151
C11	C	0.697281	0.000187	-0.130131
C12	C	0.619771	0.000167	-0.128624
N13	N	0.824900	-0.178944	-0.122872
C14	C	0.575144	0.000182	-0.211957
C15	C	0.502315	0.000190	-0.210542
C16	C	0.474117	0.000198	-0.125788
C17	C	0.518754	0.000179	-0.042444
C18	C	0.591581	0.000163	-0.043861
N19	N	0.365913	0.043074	-0.061007
N20	N	0.296729	0.043091	-0.059666
C21	C	0.254693	0.000245	-0.121511
N22	N	0.284453	-0.042610	-0.184762
N23	N	0.353642	-0.042623	-0.186106
C24	C	0.395149	0.000215	-0.124241
C25	C	0.131096	0.000268	-0.203315
C26	C	0.058266	0.000271	-0.201896
C27	C	0.074706	0.000268	-0.033796
C28	C	0.147535	0.000256	-0.035217
C29	C	0.175725	0.000260	-0.119980
C30	C	0.872303	-0.218545	-0.060015
C31	C	0.872307	-0.297792	-0.060011
C32	C	0.824915	-0.337436	-0.122879
C33	C	0.777504	-0.297826	-0.185740
C34	C	0.777496	-0.218580	-0.185736
N35	N	0.816130	-0.461853	-0.204517
N36	N	0.816141	-0.537133	-0.204517
C37	C	0.824934	-0.576200	-0.122891
N38	N	0.833729	-0.537143	-0.041263
N39	N	0.833721	-0.461855	-0.041263
C40	C	0.824918	-0.423365	-0.122889
C41	C	0.872343	-0.701730	-0.060025
C42	C	0.872342	-0.780979	-0.060019
C43	C	0.777542	-0.781011	-0.185756
C44	C	0.777540	-0.701764	-0.185754
C45	C	0.824944	-0.662128	-0.122889
C46	C	0.952563	0.000253	-0.115635
C47	C	1.030073	0.000278	-0.117142
N48	N	0.824949	0.179382	-0.122887
C49	C	0.829809	0.000213	0.045746
C50	C	0.828304	0.000213	0.148118
C51	C	0.820035	0.000227	-0.291511
C52	C	0.821541	0.000232	-0.393883
C53	C	0.822762	0.000231	0.522979
C54	C	0.824301	0.000226	0.418681
C55	C	0.825533	0.000221	0.335552
C56	C	0.827072	0.000217	0.231247
H57	H	0.598091	0.000186	-0.280978
O58	O	0.459054	0.000245	-0.291581
C59	C	0.499552	0.000225	-0.366696
H60	H	0.553892	0.024040	-0.343069
H61	H	0.472782	0.036792	-0.425061
H62	H	0.504730	-0.060172	-0.392700
O63	O	0.491332	0.000323	0.039863
C64	C	0.449722	0.065528	0.045699
H65	H	0.467033	0.111097	-0.002425
H66	H	0.456177	0.087412	0.120049
H67	H	0.392311	0.050802	0.024193
O68	O	0.731438	-0.819394	-0.246862
C69	C	0.689611	-0.767443	-0.302363
H70	H	0.688773	-0.710959	-0.264553
H71	H	0.633875	-0.790367	-0.316615
H72	H	0.712363	-0.758994	-0.370799
H73	H	0.910909	-0.330041	-0.008823
O74	O	0.731399	-0.336215	-0.246844
C75	C	0.689568	-0.284264	-0.302340
H76	H	0.688730	-0.227781	-0.264529
H77	H	0.633832	-0.307191	-0.316587
H78	H	0.712316	-0.275813	-0.370778
H79	H	0.738895	-0.186336	-0.236923
O80	O	0.634836	0.000187	0.037178
C81	C	0.594335	0.000173	0.112291
H82	H	0.540023	0.024016	0.088663
H83	H	0.621145	0.036719	0.170660
H84	H	0.589088	-0.060226	0.138289
O85	O	0.918309	-0.663114	0.001029
C86	C	0.880885	-0.617278	0.057823
H87	H	0.826277	-0.605454	0.020961
H88	H	0.910006	-0.561529	0.072421
H89	H	0.876109	-0.647785	0.126009
H90	H	0.154049	0.000260	-0.272334
H91	H	0.183871	0.000248	0.032642
O92	O	0.015012	0.000318	-0.282937
C93	C	0.055515	0.000299	-0.358048
H94	H	0.109850	0.024124	-0.334418
H95	H	0.028743	0.036859	-0.416419
H96	H	0.060703	-0.060099	-0.384044
O97	O	0.047208	0.000311	0.048455
C98	C	-0.026642	0.000307	0.031839
H99	H	-0.043640	0.024143	-0.040202
H100	H	-0.049051	0.036863	0.086051
H101	H	-0.046952	-0.060088	0.036232
O102	O	0.731528	-0.663174	-0.246737
C103	C	0.741698	-0.584729	-0.233273
H104	H	0.767696	-0.573901	-0.159863
H105	H	0.688838	-0.554636	-0.243713
H106	H	0.776781	-0.562218	-0.285353
H107	H	0.910901	-0.186276	-0.008825
H108	H	0.910941	-0.813223	-0.008829
