data_functionalizedCrystal
_audit_creation_method	'MofGen! by Chris Wilmer'
_symmetry_space_group_name_H-M	'P1'
_symmetry_Int_Tables_number	1
_symmetry_cell_setting	triclinic
loop_
_symmetry_equiv_pos_as_xyz
  x,y,z
_cell_length_a	18.215407
_cell_length_b	12.645330
_cell_length_c	18.215399
_cell_angle_alpha	90.023030
_cell_angle_beta	90.019833
_cell_angle_gamma	90.018140
loop_
_atom_site_label
_atom_site_type_symbol
_atom_site_fract_x
_atom_site_fract_y
_atom_site_fract_z
Zn1	Zn	1.125109	-0.422038	0.416141
Zn2	Zn	1.625109	0.077962	0.916141
Zn3	Zn	1.125033	-0.599320	0.293085
Zn4	Zn	1.625033	-0.099320	0.793085
Zn5	Zn	1.002041	-0.422072	0.293088
Zn6	Zn	1.502041	0.077928	0.793088
Zn7	Zn	1.002023	-0.599261	0.416110
Zn8	Zn	1.502023	-0.099261	0.916110
O9	O	1.063551	-0.510673	0.354606
O10	O	1.563551	-0.010673	0.854606
O11	O	1.228083	-0.445565	0.399829
O12	O	1.728083	0.054435	0.899829
O13	O	1.108693	-0.575847	0.190101
O14	O	1.608693	-0.075847	0.690101
O15	O	1.018406	-0.273720	0.309426
O16	O	1.518406	0.226280	0.809426
O17	O	1.228027	-0.575813	0.309421
O18	O	1.728027	-0.075813	0.809421
O19	O	1.108823	-0.273695	0.399832
O20	O	1.608823	0.226305	0.899832
O21	O	1.018332	-0.445624	0.190104
O22	O	1.518332	0.054376	0.690104
O23	O	0.899055	-0.445566	0.309396
O24	O	1.399055	0.054434	0.809396
O25	O	1.018374	-0.575713	0.519099
O26	O	1.518374	-0.075713	1.019099
O27	O	0.899041	-0.575746	0.399780
O28	O	1.399041	-0.075746	0.899780
O29	O	1.108805	-0.445507	0.519121
O30	O	1.608805	0.054493	1.019121
O31	O	1.108675	-0.747659	0.309391
O32	O	1.608675	-0.247659	0.809391
O33	O	1.018300	-0.747616	0.399777
O34	O	1.518300	-0.247616	0.899777
C35	C	0.872345	-0.510654	0.354585
C36	C	1.372345	-0.010654	0.854585
C37	C	0.790546	-0.510672	0.354594
C38	C	1.290546	-0.010672	0.854594
C39	C	0.602364	-0.578563	0.401597
C40	C	1.102364	-0.078563	0.901597
C41	C	0.525506	-0.578567	0.401606
C42	C	1.025506	-0.078567	0.901606
C43	C	0.525490	-0.442801	0.307631
C44	C	1.025490	0.057199	0.807631
C45	C	0.602348	-0.442793	0.307626
C46	C	1.102348	0.057207	0.807626
C47	C	0.640783	-0.510680	0.354608
C48	C	1.140783	-0.010680	0.854608
C49	C	0.487067	-0.510692	0.354622
C50	C	0.987067	-0.010692	0.854622
C51	C	0.403733	-0.510695	0.354632
C52	C	0.903733	-0.010695	0.854632
C53	C	0.724122	-0.510676	0.354600
C54	C	1.224122	-0.010676	0.854600
C55	C	1.063498	-0.786102	0.354596
C56	C	1.563498	-0.286102	0.854596
C57	C	1.063542	-0.903932	0.354616
C58	C	1.563542	-0.403932	0.854616
C59	C	1.006922	-1.071513	0.411653
C60	C	1.506922	-0.571513	0.911653
C61	C	1.006632	-0.948954	0.411470
C62	C	1.506632	-0.448954	0.911470
C63	C	1.042549	-0.948523	0.277058
C64	C	1.542549	-0.448523	0.777058
C65	C	1.042203	-1.071122	0.277404
C66	C	1.542203	-0.571122	0.777404
C67	C	1.141502	-1.071022	0.374509
C68	C	1.641502	-0.571022	0.874509
C69	C	1.141024	-0.948415	0.376205
C70	C	1.641024	-0.448415	0.876205
C71	C	1.255504	-0.510692	0.354628
C72	C	1.755504	-0.010692	0.854628
C73	C	1.337303	-0.510700	0.354637
C74	C	1.837303	-0.010700	0.854637
C75	C	1.063596	-0.510600	0.546559
C76	C	1.563596	-0.010600	1.046559
C77	C	1.063615	-0.510568	0.628358
C78	C	1.563615	-0.010568	1.128358
C79	C	1.063625	-0.234167	0.354633
C80	C	1.563625	0.265833	0.854633
C81	C	1.063657	-0.116337	0.354644
C82	C	1.563657	0.383663	0.854644
C83	C	1.063549	-0.510669	0.163400
C84	C	1.563549	-0.010669	0.663400
C85	C	1.063672	-0.510401	0.081602
C86	C	1.563672	-0.010401	0.581602
C87	C	1.110720	-0.442707	0.816565
C88	C	1.610720	0.057293	1.316565
C89	C	1.110728	-0.442676	0.893424
C90	C	1.610728	0.057324	1.393424
C91	C	1.016563	-0.578266	0.893389
C92	C	1.516563	-0.078266	1.393389
C93	C	1.016551	-0.578290	0.816532
C94	C	1.516551	-0.078290	1.316532
C95	C	1.063634	-0.510513	0.778122
C96	C	1.563634	-0.010513	1.278122
C97	C	1.063654	-0.510457	0.931838
C98	C	1.563654	-0.010457	1.431838
C99	C	1.063663	-0.510424	1.015172
C100	C	1.563663	-0.010424	1.515172
C101	C	1.063624	-0.510544	0.694783
C102	C	1.563624	-0.010544	1.194783
H103	H	1.019766	-0.918802	0.468979
H104	H	1.519766	-0.418802	0.968979
H105	H	1.149069	-0.387460	0.924721
H106	H	1.649069	0.112540	1.424721
H107	H	0.494229	-0.633842	0.439871
H108	H	0.994229	-0.133842	0.939871
H109	H	0.494187	-0.387531	0.269379
H110	H	0.994187	0.112469	0.769379
H111	H	0.633656	-0.633839	0.439855
H112	H	1.133656	-0.133839	0.939855
F113	F	0.643238	-0.370533	0.257615
F114	F	1.143238	0.129467	0.757615
F115	F	1.023927	-1.109962	0.487070
F116	F	1.523927	-0.609962	0.987070
F117	F	0.966460	-0.650399	0.934274
F118	F	1.466460	-0.150399	1.434274
H119	H	1.082562	-0.919362	0.233421
H120	H	1.582562	-0.419362	0.733421
H121	H	0.949572	-1.102414	0.398661
H122	H	1.449572	-0.602414	0.898661
H123	H	0.948921	-0.919719	0.398309
H124	H	1.448921	-0.419719	0.898309
F125	F	0.966430	-0.650457	0.775615
F126	F	1.466430	-0.150457	1.275615
F127	F	1.160827	-0.370570	0.775689
F128	F	1.660827	0.129430	1.275689
F129	F	0.967825	-1.108626	0.255409
F130	F	1.467825	-0.608626	0.755409
H131	H	0.986237	-0.917912	0.259925
H132	H	1.486237	-0.417912	0.759925
F133	F	1.093866	-1.109886	0.219987
F134	F	1.593866	-0.609886	0.719987
H135	H	1.156855	-0.919267	0.433284
H136	H	1.656855	-0.419267	0.933284
H137	H	1.160652	-1.101868	0.430103
H138	H	1.660652	-0.601868	0.930103
F139	F	1.199187	-0.908343	0.325889
F140	F	1.699187	-0.408343	0.825889
F141	F	1.196753	-1.108924	0.320246
F142	F	1.696753	-0.608924	0.820246
