data_functionalizedCrystal
_audit_creation_method	'MofGen! by Chris Wilmer'
_symmetry_space_group_name_H-M	'P1'
_symmetry_Int_Tables_number	1
_symmetry_cell_setting	triclinic
loop_
_symmetry_equiv_pos_as_xyz
  x,y,z
_cell_length_a	23.532361
_cell_length_b	22.010155
_cell_length_c	14.044220
_cell_angle_alpha	90.004453
_cell_angle_beta	88.009273
_cell_angle_gamma	90.011417
loop_
_atom_site_label
_atom_site_type_symbol
_atom_site_fract_x
_atom_site_fract_y
_atom_site_fract_z
O1	O	0.761508	0.050466	0.114795
O2	O	0.596546	0.050480	0.131482
O3	O	0.676551	0.050467	-0.014822
O4	O	0.681503	0.050479	0.261099
O5	O	0.676525	-0.050583	-0.014822
O6	O	0.596519	-0.050570	0.131482
O7	O	0.761482	-0.050585	0.114795
Cu8	Cu	0.678998	-0.059804	0.123139
Cu9	Cu	0.679029	0.059700	0.123139
O10	O	0.681477	-0.050572	0.261099
C11	C	0.575293	-0.000043	0.131064
C12	C	0.512007	-0.000038	0.129808
N13	N	0.678980	-0.143857	0.123138
C14	C	0.238479	0.055041	0.124313
C15	C	0.297944	0.055043	0.125502
O16	O	0.328713	0.101887	0.126084
N17	N	0.327668	-0.000040	0.126103
C18	C	0.297924	-0.055128	0.125504
O19	O	0.328667	-0.101980	0.126124
C20	C	0.238461	-0.055129	0.124308
C21	C	0.208740	-0.000043	0.123717
C22	C	0.208758	0.110123	0.123720
C23	C	0.149298	0.110121	0.122533
C24	C	0.119559	0.055037	0.121938
C25	C	0.149280	-0.000044	0.122530
C26	C	0.208720	-0.110216	0.123703
C27	C	0.149253	-0.110212	0.122506
C28	C	0.119532	-0.055126	0.121915
C29	C	0.060081	-0.055130	0.120747
N30	N	0.030357	-0.000047	0.120146
C31	C	0.060096	0.055037	0.120742
C32	C	0.422801	-0.055122	0.128015
C33	C	0.482262	-0.055122	0.129217
C34	C	0.482278	0.055049	0.129213
C35	C	0.422815	0.055048	0.128017
C36	C	0.393077	-0.000039	0.127414
C37	C	-0.064774	0.055029	0.118249
C38	C	-0.124240	0.055022	0.117065
C39	C	-0.124250	-0.055148	0.117064
C40	C	-0.064790	-0.055142	0.118253
C41	C	-0.035053	-0.000049	0.118842
O42	O	0.029274	-0.101950	0.120160
O43	O	0.029347	0.101881	0.120110
C44	C	0.716473	-0.563637	0.180289
C45	C	0.716480	-0.627244	0.180286
O46	O	0.748337	-0.660137	0.228872
N47	N	0.679040	-0.659064	0.123128
C48	C	0.641595	-0.627272	0.065961
O49	O	0.609750	-0.660178	0.017342
C50	C	0.641592	-0.563666	0.065959
C51	C	0.679030	-0.531850	0.123128
C52	C	0.753909	-0.531821	0.237453
C53	C	0.753902	-0.468218	0.237456
C54	C	0.716458	-0.436430	0.180296
C55	C	0.679023	-0.468246	0.123132
C56	C	0.604150	-0.531875	0.008787
C57	C	0.604150	-0.468265	0.008789
C58	C	0.641588	-0.436449	0.065959
C59	C	0.641572	-0.372856	0.065975
N60	N	0.679012	-0.341037	0.123133
C61	C	0.716455	-0.372824	0.180294
C62	C	0.641605	-0.760850	0.065968
C63	C	0.641606	-0.824455	0.065975
C64	C	0.716492	-0.824423	0.180299
C65	C	0.716488	-0.760817	0.180297
C66	C	0.679045	-0.729031	0.123127
C67	C	0.716436	-0.239253	0.180297
C68	C	0.716424	-0.175644	0.180299
C69	C	0.641540	-0.175681	0.065971
C70	C	0.641550	-0.239285	0.065973
C71	C	0.679003	-0.271069	0.123139
O72	O	0.609733	-0.339924	0.017411
O73	O	0.748300	-0.339911	0.228895
C74	C	0.782734	-0.000060	0.115213
C75	C	0.846021	-0.000062	0.116470
C76	C	0.674370	-0.000058	-0.050115
C77	C	0.667904	-0.000058	-0.155278
N78	N	0.679051	0.143752	0.123132
C79	C	0.656083	-0.000049	-0.347825
C80	C	0.701942	-0.000051	-0.405903
C81	C	0.695365	-0.000045	-0.513043
C82	C	0.662659	-0.000054	-0.240675
C83	C	0.683658	-0.000045	0.296393
C84	C	0.690124	-0.000041	0.401556
H85	H	-0.148436	0.099882	0.116587
H86	H	0.611885	-0.000043	-0.378566
C87	C	0.726476	-0.310765	0.307701
C88	C	0.757601	-0.274185	0.243138
H89	H	0.751888	-0.332333	0.346493
H90	H	0.702249	-0.285958	0.346742
H91	H	0.704187	-0.338821	0.273648
H92	H	0.779887	-0.246126	0.277190
H93	H	0.781838	-0.298995	0.204091
H94	H	0.611110	-0.734974	0.019416
C95	C	0.594114	-0.396747	-0.118617
C96	C	0.562989	-0.433326	-0.054053
H97	H	0.568702	-0.375182	-0.157414
H98	H	0.616402	-0.368695	-0.084573
H99	H	0.618342	-0.421560	-0.157664
H100	H	0.538763	-0.408513	-0.015002
H101	H	0.540691	-0.461382	-0.088100
C102	C	0.830758	-0.396664	0.242717
C103	C	0.795056	-0.433246	0.300293
H104	H	0.856163	-0.375074	0.281514
H105	H	0.851870	-0.421473	0.198920
H106	H	0.808452	-0.368628	0.208681
H107	H	0.817361	-0.461285	0.334324
H108	H	0.773942	-0.408434	0.344107
C109	C	0.358200	-0.119059	0.045220
C110	C	0.390117	-0.115681	0.127362
H111	H	0.338028	-0.156447	0.044814
H112	H	0.331985	-0.086263	0.044699
H113	H	0.382944	-0.116766	-0.009562
H114	H	0.365373	-0.117969	0.182144
H115	H	0.416335	-0.148486	0.127892
H116	H	0.746974	-0.734916	0.226850
C117	C	0.768206	0.051875	-0.308280
C118	C	0.761614	-0.000065	-0.364409
H119	H	0.805042	0.051861	-0.282657
H120	H	0.763756	0.087110	-0.346342
H121	H	0.740294	0.051872	-0.257763
H122	H	0.789523	-0.000059	-0.414930
H123	H	0.766070	-0.035309	-0.326344
H124	H	0.506502	0.099901	0.129697
H125	H	0.125043	-0.155072	0.122023
H126	H	0.573664	-0.557769	-0.037768
C127	C	0.790518	-0.818018	0.293308
C128	C	0.757654	-0.859371	0.243129
H129	H	0.815925	-0.839596	0.332098
H130	H	0.811627	-0.793205	0.249506
H131	H	0.766287	-0.793214	0.332364
H132	H	0.781885	-0.884173	0.204067
H133	H	0.736543	-0.884194	0.286936
C134	C	-0.000170	0.118954	0.201042
C135	C	-0.032092	0.115586	0.118904
H136	H	0.020009	0.156338	0.201446
H137	H	-0.024907	0.116663	0.255821
H138	H	0.026044	0.086150	0.201552
H139	H	-0.058309	0.148388	0.118397
H140	H	-0.007352	0.117884	0.064110
C141	C	0.128751	0.204039	0.203600
C142	C	0.116637	0.170676	0.121866
H143	H	0.108593	0.241427	0.203180
H144	H	0.117453	0.181416	0.258653
H145	H	0.168425	0.211908	0.204388
H146	H	0.076964	0.162803	0.121082
H147	H	0.127932	0.193304	0.066799
C148	C	0.273359	0.174047	0.206524
C149	C	0.241442	0.170677	0.124381
H150	H	0.293536	0.211433	0.206933
H151	H	0.248619	0.171753	0.261299
H152	H	0.299576	0.141245	0.207038
H153	H	0.215223	0.203477	0.123870
H154	H	0.266184	0.172977	0.069591
C155	C	0.567529	-0.232921	-0.047031
C156	C	0.600395	-0.274259	0.003135
H157	H	0.542126	-0.254510	-0.085834
H158	H	0.546414	-0.208124	-0.003222
H159	H	0.591758	-0.208100	-0.086073
H160	H	0.576166	-0.299077	0.042183
H161	H	0.621512	-0.299067	-0.040680
C162	C	0.428816	0.163945	0.128137
C163	C	0.390148	0.115600	0.127359
H164	H	0.408650	0.201328	0.127724
H165	H	0.450465	0.161653	0.183856
H166	H	0.453551	0.161644	0.073345
H167	H	0.365416	0.117898	0.182155
H168	H	0.368490	0.117893	0.071634
H169	H	0.506456	-0.099979	0.129714
C170	C	0.202707	-0.219111	0.123558
C171	C	0.241379	-0.170770	0.124344
H172	H	0.222870	-0.256496	0.123946
H173	H	0.177979	-0.216818	0.178347
H174	H	0.181052	-0.216808	0.067836
H175	H	0.263031	-0.173071	0.180069
H176	H	0.266117	-0.173065	0.069549
C177	C	-0.070781	-0.164041	0.118129
C178	C	-0.032117	-0.115693	0.118902
H179	H	-0.050611	-0.201422	0.118516
H180	H	-0.095505	-0.161751	0.172924
H181	H	-0.092441	-0.161744	0.062412
H182	H	-0.010459	-0.117987	0.174623
H183	H	-0.007383	-0.117985	0.064102
H184	H	0.746911	-0.149742	0.226857
C185	C	-0.215415	-0.104056	0.115231
C186	C	-0.156947	-0.115695	0.116406
H187	H	-0.235600	-0.141436	0.114814
H188	H	-0.226690	-0.081427	0.170290
H189	H	-0.223607	-0.081420	0.059779
H190	H	-0.148754	-0.138327	0.171861
H191	H	-0.145668	-0.138333	0.061341
C192	C	0.851158	-0.551356	0.273843
C193	C	0.795071	-0.566752	0.300297
H194	H	0.876567	-0.572915	0.312652
H195	H	0.858445	-0.561794	0.208940
H196	H	0.856499	-0.508918	0.282012
H197	H	0.789728	-0.609190	0.292121
H198	H	0.787781	-0.556319	0.365215
C199	C	0.567585	-0.818085	-0.047030
C200	C	0.600449	-0.859425	0.003139
H201	H	0.542181	-0.839674	-0.085830
H202	H	0.546473	-0.793285	-0.003222
H203	H	0.591816	-0.793268	-0.086075
H204	H	0.576219	-0.884239	0.042190
H205	H	0.621563	-0.884236	-0.040674
H206	H	0.611053	-0.149789	0.019435
