data_functionalizedCrystal
_audit_creation_method	'MofGen! by Chris Wilmer'
_symmetry_space_group_name_H-M	'P1'
_symmetry_Int_Tables_number	1
_symmetry_cell_setting	triclinic
loop_
_symmetry_equiv_pos_as_xyz
  x,y,z
_cell_length_a	17.077404
_cell_length_b	25.639239
_cell_length_c	17.077396
_cell_angle_alpha	90.031074
_cell_angle_beta	90.019501
_cell_angle_gamma	90.038911
loop_
_atom_site_label
_atom_site_type_symbol
_atom_site_fract_x
_atom_site_fract_y
_atom_site_fract_z
Zn1	Zn	1.199968	-0.208148	0.443829
Zn2	Zn	1.199839	-0.295585	0.312557
Zn3	Zn	1.068700	-0.208166	0.312576
Zn4	Zn	1.068632	-0.295554	0.443780
O5	O	1.134285	-0.251863	0.378185
O6	O	1.309798	-0.219752	0.426427
O7	O	1.182418	-0.284010	0.202712
O8	O	1.086196	-0.134998	0.330016
O9	O	1.309703	-0.283992	0.329982
O10	O	1.182638	-0.134985	0.426446
O11	O	1.086071	-0.219783	0.202727
O12	O	0.958844	-0.219753	0.329969
O13	O	1.086080	-0.283939	0.553634
O14	O	0.958794	-0.283957	0.426364
O15	O	1.182572	-0.219722	0.553669
O16	O	1.182352	-0.368746	0.329935
O17	O	1.085954	-0.368724	0.426345
C18	C	0.930337	-0.251854	0.378164
C19	C	0.843087	-0.251862	0.378173
C20	C	0.802092	-0.285344	0.428285
C21	C	0.720111	-0.285345	0.428298
C22	C	0.679128	-0.251867	0.378194
C23	C	0.720129	-0.218382	0.328079
C24	C	0.802108	-0.218378	0.328071
C25	C	0.549259	-0.218392	0.328098
C26	C	0.467275	-0.218396	0.328105
C27	C	0.467262	-0.285358	0.428325
C28	C	0.549241	-0.285355	0.428317
C29	C	0.590237	-0.251871	0.378201
C30	C	1.134153	-0.387706	0.378150
C31	C	1.134168	-0.445820	0.378160
C32	C	1.184610	-0.806182	0.328071
C33	C	1.184641	-0.860787	0.328081
O34	O	1.227391	-0.889023	0.285454
N35	N	1.134423	-0.888102	0.378237
C36	C	1.084177	-0.860811	0.428392
O37	O	1.041467	-0.889059	0.471056
C38	C	1.084151	-0.806208	0.428385
C39	C	1.134367	-0.778895	0.378220
C40	C	1.234822	-0.778869	0.277910
C41	C	1.234790	-0.724269	0.277899
C42	C	1.184547	-0.696981	0.328048
C43	C	1.134335	-0.724294	0.378209
C44	C	1.033910	-0.778917	0.478543
C45	C	1.033889	-0.724310	0.478532
C46	C	1.084104	-0.696997	0.428367
C47	C	1.084060	-0.642406	0.428346
N48	N	1.134278	-0.615090	0.378190
C49	C	1.184521	-0.642378	0.328041
C50	C	1.084236	-0.975482	0.428404
C51	C	1.084258	-1.030084	0.428408
C52	C	1.184722	-1.030056	0.328098
C53	C	1.184696	-0.975452	0.328091
C54	C	1.134454	-0.948166	0.378248
C55	C	1.184450	-0.527713	0.328020
C56	C	1.184412	-0.473107	0.328011
C57	C	1.083951	-0.473140	0.428324
C58	C	1.083986	-0.527741	0.428331
C59	C	1.134242	-0.555026	0.378176
O60	O	1.041334	-0.614135	0.470954
O61	O	1.227232	-0.614123	0.285392
C62	C	1.339029	-0.251873	0.378208
C63	C	1.426279	-0.251877	0.378217
C64	C	1.134333	-0.251825	0.582930
C65	C	1.134353	-0.251808	0.670180
C66	C	1.134439	-0.115490	0.378239
C67	C	1.134505	-0.057376	0.378261
C68	C	1.134283	-0.251864	0.174238
C69	C	1.134415	-0.251733	0.086988
C70	C	1.184598	-0.218368	0.711190
C71	C	1.184608	-0.218350	0.793170
C72	C	1.134375	-0.251777	0.834139
C73	C	1.084124	-0.285219	0.793123
C74	C	1.084111	-0.285233	0.711144
C75	C	1.084156	-0.285187	0.963994
C76	C	1.084169	-0.285174	1.045978
C77	C	1.184652	-0.218304	1.046019
C78	C	1.184639	-0.218319	0.964040
C79	C	1.134389	-0.251762	0.923030
H80	H	1.225375	-0.549922	0.287182
O81	O	0.985122	-0.697861	0.527366
C82	C	1.002260	-0.711149	0.605618
H83	H	1.032457	-0.750773	0.607275
H84	H	0.945592	-0.713042	0.640770
H85	H	1.042588	-0.680378	0.632086
H86	H	1.225547	-0.191103	0.930685
H87	H	1.043221	-0.312433	0.826487
O88	O	1.233425	-0.185740	1.085761
C89	C	1.216314	-0.133634	1.065753
H90	H	1.186128	-0.132564	1.006227
H91	H	1.272993	-0.110194	1.062962
H92	H	1.175986	-0.116009	1.111890
O93	O	1.035288	-0.317773	0.671426
C94	C	0.990945	-0.347268	0.725163
H95	H	1.023100	-0.349064	0.783609
H96	H	0.982533	-0.388468	0.701461
H97	H	0.931345	-0.328124	0.733873
O98	O	1.035323	-0.317565	1.085858
C99	C	0.984661	-0.287776	1.133262
H100	H	1.012409	-0.248157	1.145566
H101	H	0.974113	-0.309059	1.190899
H102	H	0.926495	-0.282023	1.101656
O103	O	0.841813	-0.185841	0.279313
C104	C	0.788063	-0.156285	0.235103
H105	H	0.729604	-0.177700	0.232334
H106	H	0.811727	-0.150656	0.173268
H107	H	0.779395	-0.116600	0.263955
O108	O	1.233448	-0.185937	0.833099
C109	C	1.284130	-0.215695	0.880511
H110	H	1.256406	-0.255316	0.892767
H111	H	1.294670	-0.194387	0.938170
H112	H	1.342297	-0.221444	0.848935
H113	H	0.993016	-0.801146	0.519390
O114	O	1.233454	-1.056563	0.279298
C115	C	1.216389	-1.043289	0.201024
H116	H	1.153684	-1.028308	0.196960
H117	H	1.223186	-1.079230	0.162296
H118	H	1.258497	-1.011595	0.180523
O119	O	1.233157	-0.446634	0.279171
C120	C	1.216042	-0.460017	0.200922
H121	H	1.185887	-0.499683	0.199278
H122	H	1.272716	-0.461864	0.165777
H123	H	1.175685	-0.429325	0.174436
O124	O	0.841778	-0.317881	0.477032
C125	C	0.788010	-0.347441	0.521252
H126	H	0.729594	-0.326030	0.524031
H127	H	0.811717	-0.353068	0.583083
H128	H	0.779242	-0.387126	0.492401
O129	O	1.035263	-0.446602	0.477122
C130	C	1.079923	-0.414956	0.527832
H131	H	1.141750	-0.431374	0.532735
H132	H	1.051506	-0.414322	0.588220
H133	H	1.082627	-0.373585	0.503550
H134	H	1.275682	-0.702034	0.237052
H135	H	1.275740	-0.801081	0.237072
H136	H	0.686736	-0.312609	0.469104
O137	O	1.035180	-0.554195	0.477131
C138	C	0.990812	-0.518399	0.521375
H139	H	1.022936	-0.479450	0.524105
H140	H	0.982417	-0.534149	0.583221
H141	H	0.931205	-0.512651	0.492576
H142	H	1.043225	-0.312412	0.930606
H143	H	0.582607	-0.312619	0.469112
H144	H	0.433879	-0.312621	0.469133
O145	O	0.427584	-0.185824	0.279414
C146	C	0.481344	-0.156275	0.235170
H147	H	0.539799	-0.154489	0.267319
H148	H	0.457687	-0.115075	0.226919
H149	H	0.490019	-0.175365	0.175496
H150	H	0.582636	-0.191121	0.287296
O151	O	1.233517	-0.948866	0.279473
C152	C	1.284195	-0.917240	0.324204
H153	H	1.256474	-0.909049	0.383665
H154	H	1.294722	-0.878852	0.292231
H155	H	1.342369	-0.938246	0.332886
O156	O	1.233420	-0.185848	0.671517
C157	C	1.277782	-0.156337	0.725297
H158	H	1.245640	-0.154516	0.783729
H159	H	1.286198	-0.115147	0.701631
H160	H	1.337380	-0.175484	0.734020
H161	H	0.686754	-0.191121	0.287287
O162	O	1.035447	-1.056532	0.477206
C163	C	0.991084	-1.020731	0.521448
H164	H	1.023217	-0.981786	0.524182
H165	H	0.982680	-1.036481	0.583293
H166	H	0.931481	-1.014977	0.492645
O167	O	1.035381	-0.948920	0.477014
C168	C	0.984675	-0.917399	0.432273
H169	H	1.012392	-0.909219	0.372812
H170	H	0.974109	-0.878999	0.464237
H171	H	0.926523	-0.938490	0.423591
