data_functionalizedCrystal
_audit_creation_method	'MofGen! by Chris Wilmer'
_symmetry_space_group_name_H-M	'P1'
_symmetry_Int_Tables_number	1
_symmetry_cell_setting	triclinic
loop_
_symmetry_equiv_pos_as_xyz
  x,y,z
_cell_length_a	13.897441
_cell_length_b	17.640112
_cell_length_c	17.640280
_cell_angle_alpha	92.184069
_cell_angle_beta	101.229226
_cell_angle_gamma	78.825410
loop_
_atom_site_label
_atom_site_type_symbol
_atom_site_fract_x
_atom_site_fract_y
_atom_site_fract_z
Zn1	Zn	-0.227809	-1.221970	0.067363
Zn2	Zn	-0.028905	-1.247569	0.194372
Zn3	Zn	-0.091460	-1.094998	0.093092
Zn4	Zn	-0.215102	-1.120649	0.220001
O5	O	-0.140819	-1.171296	0.143707
O6	O	-0.180562	-1.331620	0.062717
O7	O	0.097784	-1.227309	0.180979
O8	O	-0.141044	-1.090392	-0.016587
O9	O	-0.034428	-1.350428	0.156030
O10	O	-0.241219	-1.183678	-0.035490
O11	O	0.051825	-1.115215	0.106569
O12	O	-0.128723	-0.992146	0.131420
O13	O	-0.351774	-1.134111	0.199711
O14	O	-0.219562	-1.010991	0.224659
O15	O	-0.361110	-1.208551	0.087569
O16	O	-0.022107	-1.252181	0.304037
O17	O	-0.158905	-1.158934	0.322866
C18	C	-0.179552	-0.974018	0.183613
C19	C	-0.196140	-0.889625	0.200704
C20	C	-0.392421	-1.171337	0.143629
C21	C	-0.499639	-1.171354	0.143595
C22	C	-0.082356	-1.211140	0.341001
C23	C	-0.057365	-1.228254	0.425390
C24	C	-0.695946	-1.171364	0.143540
C25	C	-0.586707	-1.171356	0.143573
C26	C	0.109797	-1.171289	0.143721
C27	C	0.216980	-1.171375	0.143510
C28	C	-0.101935	-1.369345	0.103645
C29	C	-0.085365	-1.453742	0.086573
C30	C	-0.014816	-0.562831	0.013859
C31	C	-0.030411	-0.483535	0.029934
C32	C	-0.124750	-0.503240	0.127158
C33	C	-0.109167	-0.582540	0.111089
C34	C	-0.054198	-0.612329	0.054440
C35	C	-0.148549	-0.632037	0.151669
C36	C	-0.132962	-0.711330	0.135604
C37	C	-0.077993	-0.741126	0.078959
C38	C	-0.038611	-0.691622	0.038375
C39	C	-0.203511	-0.602247	0.208322
C40	C	-0.242893	-0.651745	0.248902
C41	C	-0.227313	-0.731039	0.232834
C42	C	-0.172344	-0.760834	0.176188
C43	C	-0.266695	-0.780543	0.273418
C44	C	-0.251109	-0.859836	0.257353
C45	C	-0.156758	-0.840128	0.160123
C46	C	-0.199527	-1.131318	-0.054362
C47	C	-0.224544	-1.114282	-0.138767
C48	C	-0.330969	-1.041590	0.752133
C49	C	-0.307454	-1.057673	0.831429
C50	C	-0.165119	-1.154832	0.811744
C51	C	-0.188625	-1.138760	0.732444
C52	C	-0.271550	-1.082137	0.702645
C53	C	-0.129206	-1.179307	0.682957
C54	C	-0.152707	-1.163233	0.603664
C55	C	-0.235627	-1.106611	0.573859
C56	C	-0.295051	-1.066063	0.623353
C57	C	-0.046277	-1.235926	0.712758
C58	C	0.013142	-1.276473	0.663270
C59	C	-0.010363	-1.260403	0.583975
C60	C	-0.093282	-1.203781	0.554170
C61	C	0.049062	-1.300951	0.534482
C62	C	0.025561	-1.284877	0.455189
C63	C	-0.116783	-1.187707	0.474878
H64	H	-0.112014	-0.864381	0.113983
H65	H	-0.169502	-0.478975	0.173284
O66	O	-0.375627	-1.011022	0.594529
C67	C	-0.514399	-0.916394	0.622403
C68	C	-0.423164	-0.978687	0.655152
H69	H	-0.552871	-0.890245	0.671398
H70	H	-0.488916	-0.869143	0.593386
H71	H	-0.568996	-0.943721	0.578161
H72	H	-0.368529	-0.951429	0.699423
H73	H	-0.448721	-1.025930	0.684121
O74	O	-0.062721	-0.818136	0.063277
C75	C	0.011365	-0.921100	-0.013165
C76	C	-0.005836	-0.833875	0.004530
H77	H	0.057338	-0.933849	-0.060674
H78	H	0.053211	-0.954543	0.041226
H79	H	-0.063795	-0.939475	-0.033183
H80	H	0.069278	-0.815428	0.024529
H81	H	-0.047729	-0.800482	-0.049878
H82	H	0.029928	-0.587085	-0.032281
O83	O	-0.218693	-0.525248	0.224059
C84	C	-0.292836	-0.422274	0.300461
C85	C	-0.275709	-0.509490	0.282722
H86	H	-0.338952	-0.409504	0.347879
H87	H	-0.217708	-0.403870	0.320564
H88	H	-0.334587	-0.388870	0.246024
H89	H	-0.233992	-0.542955	0.337128
H90	H	-0.350869	-0.527834	0.262587
O91	O	-0.411545	-0.986549	0.723309
C92	C	-0.550317	-0.891921	0.751183
C93	C	-0.459082	-0.954214	0.783932
H94	H	-0.588788	-0.865772	0.800178
H95	H	-0.524834	-0.844670	0.722166
H96	H	-0.604914	-0.919248	0.706941
H97	H	-0.404446	-0.926956	0.828203
H98	H	-0.484638	-1.001457	0.812901
H99	H	0.006132	-0.715875	-0.007766
O100	O	0.007878	-0.435554	-0.009586
C101	C	0.103161	-0.424384	-0.107686
C102	C	0.059834	-0.478804	-0.063004
H103	H	0.145195	-0.459332	-0.150873
H104	H	0.039783	-0.379271	-0.139888
H105	H	0.156644	-0.394261	-0.065328
H106	H	0.006364	-0.508981	-0.105309
H107	H	0.123264	-0.523870	-0.030791
O108	O	-0.296425	-0.622875	0.303868
C109	C	-0.454249	-0.606111	0.345735
C110	C	-0.393723	-0.638859	0.283444
H111	H	-0.532933	-0.619008	0.329236
H112	H	-0.416067	-0.634082	0.403805
H113	H	-0.458569	-0.540942	0.350255
H114	H	-0.389383	-0.704025	0.278854
H115	H	-0.431928	-0.610829	0.225407
H116	H	0.080662	-1.322573	0.687544
H117	H	-0.311442	-0.756277	0.319547
H118	H	-0.184316	-1.141605	0.450614
O119	O	-0.365181	-1.018407	0.879566
C120	C	-0.470943	-1.026268	0.971090
C121	C	-0.405585	-1.070833	0.916618
H122	H	-0.503645	-1.068634	1.001049
H123	H	-0.423421	-0.994145	1.016340
H124	H	-0.534209	-0.983018	0.936160
H125	H	-0.342311	-1.114122	0.951483
H126	H	-0.453176	-1.102904	0.871366
H127	H	-0.283179	-0.900138	0.290397
H128	H	-0.027147	-1.249013	0.777323
O129	O	-0.258284	-1.090991	0.496835
C130	C	-0.203353	-1.048419	0.387045
C131	C	-0.177556	-1.066098	0.474275
H132	H	-0.138108	-1.028274	0.368782
H133	H	-0.218236	-1.102828	0.353523
H134	H	-0.272856	-1.001011	0.374264
H135	H	-0.108040	-1.113482	0.487129
H136	H	-0.162736	-1.011652	0.507751
H137	H	-0.097599	-1.200932	0.836018
O138	O	0.129561	-1.355941	0.563558
C139	C	0.228910	-1.423710	0.677001
C140	C	0.137698	-1.361431	0.644173
H141	H	0.235531	-1.428157	0.742184
H142	H	0.219323	-1.481791	0.649032
H143	H	0.299452	-1.407247	0.664089
H144	H	0.067113	-1.377821	0.657074
H145	H	0.147372	-1.303366	0.672142
O146	O	0.083195	-1.324170	0.407009
C147	C	0.110032	-1.342499	0.276119
C148	C	0.044687	-1.297931	0.330599
H149	H	0.078910	-1.321313	0.214328
H150	H	0.189853	-1.332358	0.294384
H151	H	0.109671	-1.406866	0.279312
H152	H	0.044964	-1.233550	0.327433
H153	H	-0.035103	-1.308136	0.312317
