data_functionalizedCrystal
_audit_creation_method	'MofGen! by Chris Wilmer'
_symmetry_space_group_name_H-M	'P1'
_symmetry_Int_Tables_number	1
_symmetry_cell_setting	triclinic
loop_
_symmetry_equiv_pos_as_xyz
  x,y,z
_cell_length_a	13.185408
_cell_length_b	27.732048
_cell_length_c	11.804365
_cell_angle_alpha	101.725897
_cell_angle_beta	82.233045
_cell_angle_gamma	67.308078
loop_
_atom_site_label
_atom_site_type_symbol
_atom_site_fract_x
_atom_site_fract_y
_atom_site_fract_z
O1	O	1.471311	-0.138838	-0.098901
O2	O	1.152993	-0.089739	-0.098935
O3	O	1.322033	-0.185936	-0.098894
O4	O	1.302271	-0.042641	-0.098942
O5	O	1.277532	-0.160630	0.099151
O6	O	1.108492	-0.064434	0.099111
O7	O	1.426809	-0.113533	0.099144
Cu8	Cu	1.263587	-0.086673	0.117210
Cu9	Cu	1.316215	-0.116599	-0.117001
O10	O	1.257769	-0.017336	0.099104
C11	C	1.090031	-0.072109	0.000084
C12	C	0.968724	-0.057284	0.000072
C13	C	0.897968	-0.004494	0.000052
C14	C	0.783990	0.009439	0.000058
C15	C	0.740757	-0.029417	0.000075
C16	C	0.811514	-0.082209	0.000086
C17	C	0.925502	-0.096142	0.000090
C18	C	0.768291	-0.121065	0.000113
C19	C	0.839048	-0.173856	0.000124
C20	C	0.953024	-0.187787	0.000126
C21	C	0.996257	-0.148931	0.000110
C22	C	0.654303	-0.107131	0.000109
C23	C	0.681836	-0.198779	0.000147
C24	C	0.795815	-0.212712	0.000141
C25	C	1.299367	-0.191237	0.000132
C26	C	1.298115	-0.244732	0.000141
C27	C	1.390155	-0.595221	0.000090
C28	C	1.385521	-0.796295	0.000073
O29	O	1.469685	-0.838225	0.000030
N30	N	1.285284	-0.802712	0.000063
C31	C	1.186201	-0.758856	0.000050
O32	O	1.100840	-0.768929	0.000030
C33	C	1.190837	-0.557785	0.000059
C34	C	1.291078	-0.551370	0.000080
C35	C	1.490388	-0.588806	0.000110
C36	C	1.491543	-0.538539	0.000121
C37	C	1.392466	-0.494688	0.000111
C38	C	1.292234	-0.501104	0.000091
C39	C	1.091756	-0.513932	0.000037
C40	C	1.092925	-0.463663	0.000036
C41	C	1.193166	-0.457248	0.000058
C42	C	1.194312	-0.406987	0.000093
N43	N	1.294549	-0.400570	0.000102
C44	C	1.393626	-0.444421	0.000111
C45	C	1.183773	-0.864423	0.000048
C46	C	1.182613	-0.914690	0.000048
C47	C	1.381935	-0.952126	0.000068
C48	C	1.383092	-0.901856	0.000077
C49	C	1.284010	-0.858006	0.000058
C50	C	1.396046	-0.338856	0.000135
C51	C	1.397192	-0.288583	0.000151
C52	C	1.197872	-0.251153	0.000124
C53	C	1.196724	-0.301420	0.000115
C54	C	1.295821	-0.345273	0.000116
O55	O	1.110197	-0.365035	0.000122
O56	O	1.478981	-0.434340	0.000106
C57	C	1.388999	-0.645488	0.000079
C58	C	1.288766	-0.651903	0.000059
C59	C	1.189689	-0.608053	0.000049
C60	C	1.287606	-0.702171	0.000059
C61	C	1.386683	-0.746022	0.000068
C62	C	1.486920	-0.739605	0.000078
C63	C	1.488076	-0.689339	0.000089
C64	C	1.089452	-0.614469	0.000040
C65	C	1.088304	-0.664737	0.000031
C66	C	1.187381	-0.708588	0.000040
C67	C	1.489772	-0.131163	0.000123
C68	C	1.611081	-0.145990	0.000127
C69	C	1.280436	-0.012035	0.000075
C70	C	1.281690	0.041459	0.000058
N71	N	1.226579	-0.065626	0.281942
N72	N	1.353232	-0.137651	-0.281733
C73	C	1.442101	-0.188202	0.655942
C74	C	1.470096	-0.204127	0.531288
C75	C	1.409219	-0.169503	0.468945
C76	C	1.320343	-0.118952	0.531270
C77	C	1.292350	-0.103025	0.655937
C78	C	1.259468	-0.084325	0.468940
C79	C	1.170592	-0.033774	0.531264
C80	C	1.142604	-0.017849	0.655919
C81	C	1.203481	-0.052473	0.718262
C82	C	1.287461	-0.100252	0.344272
C83	C	1.137710	-0.015074	0.344267
C84	C	1.109715	0.000850	0.468922
H85	H	0.646650	-0.230426	0.000106
H86	H	1.180685	-0.039509	0.819766
Br87	Br	1.533241	-0.279882	0.000181
H88	H	0.596702	-0.064148	0.000102
H89	H	0.647949	-0.018069	0.000081
H90	H	1.476741	-0.374557	0.000132
H91	H	0.726387	0.052422	0.000049
H92	H	1.070244	0.023314	0.706664
Br93	Br	1.150952	-0.167841	0.000089
Br94	Br	0.891854	-0.284355	0.000157
Br95	Br	1.049044	-0.259429	0.000171
Br96	Br	0.956644	0.048234	0.000041
H97	H	1.037350	0.042009	0.519682
Br98	Br	1.627599	-0.529847	0.000116
Br99	Br	1.624869	-0.648312	0.000122
H100	H	1.464717	-0.896639	0.000093
Br101	Br	1.055093	0.031920	0.259669
H102	H	1.462607	-0.987838	0.000077
Br103	Br	1.046561	-0.923384	0.000047
H104	H	1.432017	-0.182470	0.367445
H105	H	1.359824	-0.141411	0.293539
H106	H	1.491665	-0.216387	0.706710
H107	H	1.103084	-0.828722	0.000033
H108	H	1.010131	-0.519144	0.000013
Br109	Br	0.958450	-0.404154	0.000005
Br110	Br	1.063417	-0.191632	0.000112
H111	H	1.115093	-0.306638	0.000130
Br112	Br	1.621378	-0.799125	0.000100
Br113	Br	0.952248	-0.673432	0.000011
H114	H	1.008770	-0.578769	0.000030
Br115	Br	1.590710	-0.272726	0.446705
H116	H	1.569702	-0.684122	0.000106
