data_functionalizedCrystal
_audit_creation_method	'MofGen! by Chris Wilmer'
_symmetry_space_group_name_H-M	'P1'
_symmetry_Int_Tables_number	1
_symmetry_cell_setting	triclinic
loop_
_symmetry_equiv_pos_as_xyz
  x,y,z
_cell_length_a	10.489741
_cell_length_b	14.519709
_cell_length_c	8.965430
_cell_angle_alpha	89.991191
_cell_angle_beta	90.000479
_cell_angle_gamma	95.890341
loop_
_atom_site_label
_atom_site_type_symbol
_atom_site_fract_x
_atom_site_fract_y
_atom_site_fract_z
O1	O	1.692694	-0.130119	0.123951
O2	O	1.321371	-0.142332	0.123974
O3	O	1.516878	-0.002041	0.123948
O4	O	1.497188	-0.270410	0.123977
O5	O	1.516867	-0.002027	-0.124130
O6	O	1.321361	-0.142319	-0.124105
O7	O	1.692684	-0.130106	-0.124128
Cu8	Cu	1.507021	-0.136211	-0.146768
Cu9	Cu	1.507034	-0.136227	0.146614
O10	O	1.497177	-0.270397	-0.124102
C11	C	1.273844	-0.141403	-0.000062
C12	C	1.132243	-0.138643	-0.000054
C13	C	1.065034	-0.049380	-0.000077
C14	C	0.972473	-0.091554	0.122240
C15	C	0.972496	-0.091562	-0.122346
C16	C	1.041547	-0.180854	0.122364
C17	C	1.041580	-0.180849	-0.122332
C18	C	0.949046	-0.223088	0.000015
C19	C	1.515955	0.032331	-0.000091
C20	C	1.513205	0.134727	-0.000092
C21	C	1.740211	-0.131035	-0.000088
C22	C	1.881812	-0.133794	-0.000087
C23	C	1.498100	-0.304768	-0.000059
C24	C	1.500850	-0.407165	-0.000049
N25	N	1.507021	-0.136199	-0.353117
C26	C	1.503082	0.509678	-0.000052
C27	C	1.505893	0.405355	-0.000064
C28	C	1.508143	0.322206	-0.000074
C29	C	1.510955	0.217876	-0.000082
C30	C	1.596739	-0.070808	-0.549799
C31	C	1.622705	-0.154058	-0.450315
C32	C	1.481112	-0.052956	-0.450393
C33	C	1.533067	-0.219524	-0.549742
C34	C	1.391424	-0.118367	-0.549829
C35	C	1.417341	-0.201677	-0.450389
N36	N	1.507044	-0.136231	0.352963
H37	H	1.072228	-0.218582	-0.225741
C38	C	1.553717	0.080399	-0.303367
C39	C	1.451506	0.042094	-0.391481
H40	H	1.535448	0.139082	-0.267010
H41	H	1.565315	0.040440	-0.221677
H42	H	1.629703	0.087665	-0.361668
H43	H	1.375522	0.034821	-0.333177
H44	H	1.439893	0.082062	-0.473183
C45	C	1.674296	-0.303734	-0.695284
C46	C	1.562855	-0.314595	-0.608375
H47	H	1.692698	-0.362426	-0.731469
H48	H	1.661895	-0.264049	-0.777095
H49	H	1.743879	-0.277373	-0.636218
H50	H	1.493271	-0.340950	-0.667444
H51	H	1.575249	-0.354295	-0.526553
H52	H	1.115488	0.024000	0.000068
C53	C	1.315045	-0.275302	-0.235646
C54	C	1.314926	-0.276422	-0.391817
H55	H	1.251817	-0.321445	-0.199486
H56	H	1.396943	-0.287483	-0.200078
H57	H	1.296432	-0.216221	-0.201462
H58	H	1.333548	-0.335502	-0.426001
H59	H	1.233010	-0.264248	-0.427399
H60	H	0.941856	-0.053790	0.225644
C61	C	1.178366	-0.084473	-0.488553
C62	C	1.259485	-0.097944	-0.608896
H63	H	1.096916	-0.071852	-0.525024
H64	H	1.168774	-0.138740	-0.428737
H65	H	1.214386	-0.033680	-0.430295
H66	H	1.223469	-0.148741	-0.667149
H67	H	1.269073	-0.043670	-0.668737
C68	C	1.143238	-0.309127	0.219034
C69	C	1.082629	-0.231802	0.262131
H70	H	1.168608	-0.340572	0.305321
H71	H	1.085567	-0.349673	0.161874
H72	H	1.216657	-0.289570	0.160695
H73	H	1.009204	-0.251359	0.320461
H74	H	1.140304	-0.191248	0.319315
C75	C	0.803739	-0.335309	0.127034
C76	C	0.881275	-0.322248	0.000109
H77	H	0.761894	-0.396523	0.127089
H78	H	0.855261	-0.326063	0.213929
H79	H	0.741464	-0.292206	0.126148
H80	H	0.943557	-0.365347	0.001001
H81	H	0.829749	-0.331504	-0.086808
H82	H	0.941907	-0.053771	-0.225756
C83	C	1.640357	0.067927	-0.694718
C84	C	1.699209	0.003779	-0.608736
H85	H	1.703620	0.113972	-0.731094
H86	H	1.596981	0.037077	-0.776395
H87	H	1.580571	0.096248	-0.634963
H88	H	1.758988	-0.024547	-0.668493
H89	H	1.742605	0.034633	-0.527047
H90	H	1.720472	-0.169161	-0.406604
