data_functionalizedCrystal
_audit_creation_method	'MofGen! by Chris Wilmer'
_symmetry_space_group_name_H-M	'P1'
_symmetry_Int_Tables_number	1
_symmetry_cell_setting	triclinic
loop_
_symmetry_equiv_pos_as_xyz
  x,y,z
_cell_length_a	14.853569
_cell_length_b	14.853567
_cell_length_c	9.730223
_cell_angle_alpha	89.999618
_cell_angle_beta	89.998218
_cell_angle_gamma	83.635248
loop_
_atom_site_label
_atom_site_type_symbol
_atom_site_fract_x
_atom_site_fract_y
_atom_site_fract_z
O1	O	1.196363	0.117710	-0.114215
O2	O	0.933904	0.131730	-0.114230
O3	O	1.072144	-0.006510	-0.114226
O4	O	1.058123	0.255950	-0.114219
O5	O	1.072134	-0.006513	0.114354
O6	O	0.933894	0.131727	0.114350
O7	O	1.196353	0.117707	0.114365
Zn8	Zn	1.065122	0.124717	0.150649
Zn9	Zn	1.065135	0.124721	-0.150515
O10	O	1.058112	0.255947	0.114361
C11	C	0.900310	0.131093	0.000058
C12	C	0.800226	0.129189	0.000051
C13	C	0.763850	0.046178	0.000044
C14	C	0.742560	0.210410	0.000064
C15	C	0.648526	0.208624	0.000066
C16	C	0.612150	0.125613	0.000058
C17	C	0.669807	0.044389	0.000050
C18	C	0.590862	0.289847	0.000088
C19	C	0.496821	0.288064	0.000091
C20	C	0.460443	0.205052	0.000074
C21	C	0.518107	0.123824	0.000064
C22	C	0.481730	0.040813	0.000057
C23	C	0.539393	-0.040415	0.000037
C24	C	0.633429	-0.038623	0.000033
C25	C	0.366407	0.203259	0.000079
C26	C	0.387688	0.039024	0.000063
C27	C	1.071504	-0.040100	0.000060
C28	C	1.069600	-0.140183	0.000047
C29	C	0.979434	-0.552718	0.000068
C30	C	1.143667	-0.573998	0.000078
C31	C	1.145457	-0.479964	0.000070
C32	C	1.064234	-0.422303	0.000063
C33	C	0.981222	-0.458675	0.000065
C34	C	1.228468	-0.443585	0.000082
C35	C	1.230262	-0.349545	0.000076
C36	C	1.149038	-0.291882	0.000060
C37	C	1.066022	-0.328260	0.000059
C38	C	0.984800	-0.270599	0.000053
C39	C	0.901783	-0.306974	0.000043
C40	C	0.899998	-0.401012	0.000048
C41	C	1.150822	-0.197845	0.000054
C42	C	0.986587	-0.176556	0.000049
C43	C	1.229947	0.118344	0.000074
C44	C	1.330030	0.120249	0.000071
C45	C	1.058753	0.289537	0.000072
C46	C	1.060657	0.389621	0.000075
N47	N	1.065119	0.124713	0.356186
C48	C	1.126352	0.063527	0.428113
C49	C	1.126360	0.063528	0.571996
C50	C	1.003899	0.185909	0.572011
C51	C	1.003888	0.185904	0.428131
N52	N	1.065139	0.124720	0.643949
H53	H	0.810802	-0.019956	0.000022
Br54	Br	0.920773	0.268941	0.330503
Br55	Br	0.711688	-0.148851	0.000019
H56	H	1.176221	0.013703	0.630556
H57	H	0.620487	0.357430	0.000103
H58	H	0.772184	0.277994	0.000080
Br59	Br	1.263478	-0.148480	0.000100
Br60	Br	0.338328	-0.073640	0.000036
H61	H	0.449880	0.354205	0.000106
Br62	Br	0.791556	-0.228709	0.000051
H63	H	0.319463	0.269395	0.000107
H64	H	0.832410	-0.430638	0.000041
H65	H	0.920445	-0.129613	0.000037
H66	H	0.509763	-0.108003	0.000022
Br67	Br	0.866774	-0.602081	0.000035
H68	H	1.209794	-0.620951	0.000094
Br69	Br	1.338692	-0.521841	0.000129
H70	H	1.176209	0.013701	0.369539
H71	H	1.297859	-0.319937	0.000082
H72	H	0.954047	0.235730	0.630603
