data_functionalizedCrystal
_audit_creation_method	'MofGen! by Chris Wilmer'
_symmetry_space_group_name_H-M	'P1'
_symmetry_Int_Tables_number	1
_symmetry_cell_setting	triclinic
loop_
_symmetry_equiv_pos_as_xyz
  x,y,z
_cell_length_a	14.971486
_cell_length_b	10.489741
_cell_length_c	13.448316
_cell_angle_alpha	89.993703
_cell_angle_beta	89.998199
_cell_angle_gamma	84.076651
loop_
_atom_site_label
_atom_site_type_symbol
_atom_site_fract_x
_atom_site_fract_y
_atom_site_fract_z
O1	O	1.187893	0.166222	-0.082577
O2	O	0.927607	0.186128	-0.082604
O3	O	1.063673	-0.009491	-0.082584
O4	O	1.051827	0.361841	-0.082597
O5	O	1.063655	-0.009503	0.082800
O6	O	0.927589	0.186116	0.082780
O7	O	1.187876	0.166210	0.082807
Cu8	Cu	1.057731	0.176162	0.097894
Cu9	Cu	1.057752	0.176176	-0.097691
O10	O	1.051810	0.361829	0.082787
C11	C	0.894268	0.185232	0.000085
C12	C	0.794956	0.182564	0.000074
C13	C	0.738385	0.297485	0.000072
C14	C	0.645071	0.294971	0.000087
C15	C	0.608330	0.177534	0.000097
C16	C	0.664909	0.062604	0.000103
C17	C	0.758221	0.065120	0.000095
C18	C	0.470416	0.057369	0.000117
C19	C	0.377098	0.054853	0.000123
C20	C	0.357267	0.287220	0.000108
C21	C	0.450579	0.289736	0.000101
C22	C	0.507151	0.174805	0.000104
C23	C	1.062769	-0.057019	0.000107
C24	C	1.060093	-0.198617	0.000105
C25	C	0.973518	-0.265755	0.000089
C26	C	1.014406	-0.358357	0.081636
C27	C	1.014444	-0.358320	-0.081419
C28	C	1.101017	-0.289354	0.081720
C29	C	1.101043	-0.289307	-0.081409
C30	C	1.141994	-0.381882	0.000158
C31	C	1.221215	0.167106	0.000116
C32	C	1.320527	0.169774	0.000120
C33	C	1.052713	0.409357	0.000094
C34	C	1.055390	0.550955	0.000089
N35	N	1.057723	0.176151	0.235459
N36	N	1.057766	0.176177	-0.235255
C37	C	1.117992	0.089567	0.287508
C38	C	1.117998	0.089566	0.391611
C39	C	1.057738	0.176156	0.443663
C40	C	0.997462	0.262745	0.391607
C41	C	0.997453	0.262739	0.287505
C42	C	0.997487	0.262753	0.608587
C43	C	0.997497	0.262761	0.712695
C44	C	1.118032	0.089580	0.712693
C45	C	1.118023	0.089574	0.608591
C46	C	1.057748	0.176165	0.556542
H47	H	0.311201	0.380801	0.000110
H48	H	1.137650	-0.258681	-0.150347
H49	H	0.977809	-0.388855	-0.150368
H50	H	1.167067	0.019060	0.245134
H51	H	1.167073	0.019061	0.433989
O52	O	0.938887	0.346682	0.442279
C53	C	0.883264	0.278243	0.502496
H54	H	0.918251	0.178518	0.518097
H55	H	0.869465	0.331452	0.575697
H56	H	0.817099	0.269418	0.462391
H57	H	1.167095	0.019072	0.566211
O58	O	1.176547	0.005287	0.763135
C59	C	1.161192	-0.121018	0.737729
H60	H	1.126707	-0.120946	0.662152
H61	H	1.228025	-0.183663	0.734159
H62	H	1.116430	-0.160578	0.796331
O63	O	0.813269	-0.046429	-0.000039
C64	C	0.867821	-0.051936	-0.085708
H65	H	0.873186	0.049315	-0.114271
H66	H	0.937637	-0.099337	-0.066445
H67	H	0.836753	-0.110238	-0.145680
H68	H	0.977767	-0.388950	0.150571
O69	O	1.144757	-0.252958	0.163959
C70	C	1.220259	-0.192051	0.134872
H71	H	1.209758	-0.152949	0.056177
H72	H	1.229406	-0.109802	0.188077
H73	H	1.282663	-0.264146	0.136840
O74	O	0.938877	0.346973	0.237095
C75	C	0.885677	0.423383	0.305358
H76	H	0.922364	0.424918	0.379559
H77	H	0.872679	0.525212	0.275267
H78	H	0.818970	0.381808	0.316446
O79	O	0.774218	0.411454	0.000014
C80	C	0.868709	0.389037	0.000030
H81	H	0.889978	0.289535	-0.031276
H82	H	0.897833	0.464195	-0.047994
H83	H	0.894724	0.395257	0.079369
H84	H	0.599014	0.388551	0.000083
O85	O	0.938920	0.346687	0.763376
C86	C	0.883310	0.278226	0.823593
H87	H	0.918308	0.178504	0.839181
H88	H	0.869512	0.331422	0.896799
H89	H	0.817144	0.269393	0.783493
O90	O	0.486122	0.403922	0.000133
C91	C	0.416184	0.504823	0.000108
H92	H	0.352574	0.468977	0.031425
H93	H	0.436214	0.586801	0.048117
H94	H	0.403209	0.540285	-0.079236
O95	O	1.227001	-0.441784	0.000392
C96	C	1.272294	-0.406600	0.086471
H97	H	1.221150	-0.373415	0.146286
H98	H	1.317894	-0.492621	0.114935
H99	H	1.314465	-0.325317	0.067800
O100	O	0.939028	0.347044	0.558068
C101	C	0.954368	0.473344	0.583507
H102	H	1.025984	0.474134	0.612116
H103	H	0.944488	0.537331	0.515038
H104	H	0.905037	0.510699	0.643934
O105	O	0.341554	-0.059333	0.000179
C106	C	0.411493	-0.160235	0.000163
H107	H	0.475103	-0.124390	0.031470
H108	H	0.391463	-0.242214	0.048185
H109	H	0.424466	-0.195692	-0.079177
O110	O	0.629326	-0.051553	-0.000021
C111	C	0.658142	-0.121596	-0.085686
H112	H	0.723073	-0.086734	-0.114245
H113	H	0.670407	-0.227797	-0.066419
H114	H	0.604250	-0.106899	-0.145663
O115	O	0.888586	-0.205587	0.000348
C116	C	0.843260	-0.240582	0.086469
H117	H	0.894387	-0.273905	0.146268
H118	H	0.797799	-0.154421	0.114923
H119	H	0.800941	-0.321714	0.067858
H120	H	0.516476	-0.036219	0.000121
