data_functionalizedCrystal
_audit_creation_method	'MofGen! by Chris Wilmer'
_symmetry_space_group_name_H-M	'P1'
_symmetry_Int_Tables_number	1
_symmetry_cell_setting	triclinic
loop_
_symmetry_equiv_pos_as_xyz
  x,y,z
_cell_length_a	6.817900
_cell_length_b	16.418049
_cell_length_c	10.992410
_cell_angle_alpha	93.843616
_cell_angle_beta	108.764651
_cell_angle_gamma	103.389670
loop_
_atom_site_label
_atom_site_type_symbol
_atom_site_fract_x
_atom_site_fract_y
_atom_site_fract_z
V1	V	-4.086920	-0.115886	-0.401046
O2	O	-4.073689	0.005569	-0.392946
O3	O	-4.037641	-0.229782	-0.398750
O4	O	-4.064933	-0.114103	-0.575751
O5	O	-4.046208	-0.110911	-0.214720
V6	V	-4.567240	-0.101359	-0.378705
O7	O	-4.355206	-0.147753	-0.450051
O8	O	-4.749152	-0.069492	-0.329699
O9	O	-4.393313	0.012538	-0.381000
O10	O	-4.697868	-0.222813	-0.386805
O11	O	-4.725349	-0.106334	-0.565031
O12	O	-4.366021	-0.103141	-0.204000
C13	C	-3.881573	-0.257548	-0.392539
C14	C	-3.922744	-0.350660	-0.391827
C15	C	-3.916385	-0.109987	-0.618320
C16	C	-3.979686	-0.109283	-0.761145
C17	C	-4.200504	-0.569149	-0.396640
C18	C	-4.239178	-0.656639	-0.395982
C19	C	-3.873016	-0.648094	-0.383119
C20	C	-3.834349	-0.560608	-0.383786
C21	C	-3.998096	-0.521137	-0.390540
C22	C	-4.075438	-0.696113	-0.389215
C23	C	-4.117369	-0.790973	-0.388502
C24	C	-3.956164	-0.426271	-0.391256
C25	C	-3.848321	-0.102870	-0.956243
C26	C	-3.782517	-0.103949	-0.807764
C27	C	-4.158227	-0.191869	-0.838572
C28	C	-4.222713	-0.191138	-0.987135
C29	C	-4.138189	-0.031223	-0.948479
C30	C	-4.067573	-0.030831	-0.799465
C31	C	-4.212722	0.040299	-0.387208
C32	C	-4.150791	0.133410	-0.387928
C33	C	-4.177909	-0.107261	-0.161424
C34	C	-4.093847	-0.107960	-0.018597
H35	H	-4.403996	-0.695727	-0.400952
N36	N	-3.705787	-0.688428	-0.376222
N37	N	-3.740333	-0.766541	-0.375628
H38	H	-3.622223	-0.795027	-0.370755
H39	H	-3.669520	-0.521515	-0.378823
N40	N	-4.027599	0.047455	-0.973676
N41	N	-3.891759	0.101298	-0.881528
H42	H	-3.813634	0.156862	-0.899321
H43	H	-3.938726	0.030262	-0.746868
H44	H	-3.648065	-0.044567	-0.754192
N45	N	-3.718991	-0.027859	-0.979574
N46	N	-3.806256	0.022724	-1.042434
H47	H	-3.714920	0.075704	-1.058918
H48	H	-4.333839	-0.537015	-0.402138
N49	N	-3.800741	-0.172038	-1.016729
N50	N	-3.946872	-0.225065	-1.105558
H51	H	-3.913278	-0.273917	-1.148280
N52	N	-3.694243	-0.174079	-0.776917
N53	N	-3.681118	-0.222382	-0.865113
H54	H	-3.618777	-0.271915	-0.843331
N55	N	-4.246225	-0.029660	-0.758738
N56	N	-4.424766	-0.032384	-0.840982
H57	H	-4.550981	-0.031581	-0.812241
H58	H	-4.193449	-0.249242	-1.033632
H59	H	-4.403021	-0.198320	-1.029795
N60	N	-4.344830	-0.200498	-0.802470
N61	N	-4.348319	-0.145748	-0.719072
H62	H	-4.480107	-0.151840	-0.693573
H63	H	-4.098730	-0.250115	-0.813194
N64	N	-4.361834	-0.034994	-0.999739
N65	N	-4.488215	-0.093881	-1.087520
H66	H	-4.646165	-0.096550	-1.123730
