data_functionalizedCrystal
_audit_creation_method	'MofGen! by Chris Wilmer'
_symmetry_space_group_name_H-M	'P1'
_symmetry_Int_Tables_number	1
_symmetry_cell_setting	triclinic
loop_
_symmetry_equiv_pos_as_xyz
  x,y,z
_cell_length_a	10.908937
_cell_length_b	19.188924
_cell_length_c	10.065875
_cell_angle_alpha	98.757069
_cell_angle_beta	83.441416
_cell_angle_gamma	71.613960
loop_
_atom_site_label
_atom_site_type_symbol
_atom_site_fract_x
_atom_site_fract_y
_atom_site_fract_z
O1	O	1.723314	-0.120355	-0.113524
O2	O	2.223314	0.379645	0.386476
O3	O	1.349144	-0.065798	-0.113522
O4	O	1.849144	0.434202	0.386478
O5	O	1.547029	-0.195967	-0.113507
O6	O	2.047029	0.304033	0.386493
O7	O	1.525429	0.009814	-0.113539
O8	O	2.025429	0.509814	0.386461
O9	O	1.509294	-0.171063	0.113479
O10	O	2.009294	0.328937	0.613479
O11	O	1.311410	-0.040895	0.113464
O12	O	1.811410	0.459105	0.613464
O13	O	1.685580	-0.095451	0.113462
O14	O	2.185580	0.404549	0.613462
Zn15	Zn	1.492503	-0.064219	0.149502
Zn16	Zn	1.992503	0.435781	0.649502
Zn17	Zn	1.542220	-0.097030	-0.149562
Zn18	Zn	2.042220	0.402970	0.350438
O19	O	1.487695	0.034718	0.113447
O20	O	1.987695	0.534718	0.613447
C21	C	1.282407	-0.048248	-0.000028
C22	C	1.782407	0.451752	0.499972
C23	C	1.139769	-0.033064	-0.000027
C24	C	1.639769	0.466936	0.499973
C25	C	0.943655	-0.072783	-0.000045
C26	C	1.443655	0.427217	0.499955
C27	C	1.091075	-0.088475	-0.000026
C28	C	1.591075	0.411525	0.499974
C29	C	1.527463	-0.209446	-0.000012
C30	C	2.027463	0.290554	0.499988
C31	C	1.525367	-0.286711	-0.000009
C32	C	2.025367	0.213289	0.499991
C33	C	1.544958	-0.336572	-0.123739
C34	C	2.044958	0.163428	0.376261
C35	C	1.542972	-0.409169	-0.123749
C36	C	2.042972	0.090831	0.376251
C37	C	1.521420	-0.431905	-0.000022
C38	C	2.021420	0.068095	0.499978
C39	C	1.501819	-0.382031	0.123724
C40	C	2.001819	0.117969	0.623724
C41	C	1.503793	-0.309434	0.123731
C42	C	2.003793	0.190566	0.623731
N43	N	1.576134	-0.549478	0.092064
N44	N	2.076134	-0.049478	0.592064
N45	N	1.574263	-0.618444	0.092049
N46	N	2.074263	-0.118444	0.592049
C47	C	1.515470	-0.650634	-0.000036
C48	C	2.015470	-0.150634	0.499964
N49	N	1.458638	-0.611259	-0.092126
N50	N	1.958638	-0.111259	0.407874
N51	N	1.460515	-0.542288	-0.092115
N52	N	1.960515	-0.042288	0.407885
C53	C	1.519277	-0.510622	-0.000016
C54	C	2.019277	-0.010622	0.499984
C55	C	1.532908	-0.779214	-0.123786
C56	C	2.032908	-0.279214	0.376214
C57	C	1.530913	-0.851810	-0.123791
C58	C	2.030913	-0.351810	0.376209
C59	C	1.489773	-0.824672	0.123686
C60	C	1.989773	-0.324672	0.623686
C61	C	1.491755	-0.752076	0.123688
C62	C	1.991755	-0.252076	0.623688
C63	C	1.513329	-0.729353	-0.000052
C64	C	2.013329	-0.229353	0.499948
C65	C	1.752317	-0.113002	-0.000034
C66	C	2.252317	0.386998	0.499966
C67	C	1.894956	-0.128186	-0.000044
C68	C	2.394956	0.371814	0.499956
C69	C	1.507261	0.048197	-0.000050
C70	C	2.007261	0.548197	0.499950
C71	C	1.509359	0.125460	-0.000063
C72	C	2.009359	0.625460	0.499937
N73	N	1.458582	-0.041827	0.353605
N74	N	1.958582	0.458173	0.853605
N75	N	1.576151	-0.119428	-0.353665
N76	N	2.076151	0.380572	0.146335
C77	C	1.530410	-0.089243	0.421389
C78	C	2.030410	0.410757	0.921389
C79	C	1.504313	-0.072006	0.578555
C80	C	2.004313	0.427994	1.078555
H81	H	1.158520	-0.147530	-0.000019
H82	H	1.658520	0.352470	0.499981
H83	H	1.423489	-0.018649	0.636869
H84	H	1.923489	0.481351	1.136869
F85	F	1.051625	0.044125	-0.000054
F86	F	1.551625	0.544125	0.499946
F87	F	1.635814	-0.159081	0.345167
F88	F	2.135814	0.340919	0.845167
F89	F	1.682003	-0.189082	0.570121
F90	F	2.182003	0.310918	1.070121
F91	F	0.983110	-0.205372	-0.000034
F92	F	1.483110	0.294628	0.499966
H93	H	1.475813	-0.711478	0.224443
H94	H	1.975813	-0.211478	0.724443
F95	F	1.482938	-0.256364	0.255428
F96	F	1.982938	0.243636	0.755428
F97	F	1.352944	0.027911	0.429828
F98	F	1.852944	0.527911	0.929828
H99	H	1.558918	-0.449773	-0.224509
H100	H	2.058918	0.050227	0.275491
F101	F	0.855506	0.004401	-0.000078
F102	F	1.355506	0.504401	0.499922
H103	H	1.562521	-0.318076	-0.224498
H104	H	2.062521	0.181924	0.275502
F105	F	1.478874	-0.406227	0.255403
F106	F	1.978874	0.093773	0.755403
F107	F	1.551757	-0.904876	-0.255489
F108	F	2.051757	-0.404876	0.244511
F109	F	1.555860	-0.755026	-0.255478
F110	F	2.055860	-0.255026	0.244522
H111	H	1.472215	-0.843181	0.224427
H112	H	1.972215	-0.343181	0.724427
