data_functionalizedCrystal
_audit_creation_method	'MofGen! by Chris Wilmer'
_symmetry_space_group_name_H-M	'P1'
_symmetry_Int_Tables_number	1
_symmetry_cell_setting	triclinic
loop_
_symmetry_equiv_pos_as_xyz
  x,y,z
_cell_length_a	23.532407
_cell_length_b	23.532407
_cell_length_c	22.010155
_cell_angle_alpha	90.009202
_cell_angle_beta	90.010358
_cell_angle_gamma	82.848678
loop_
_atom_site_label
_atom_site_type_symbol
_atom_site_fract_x
_atom_site_fract_y
_atom_site_fract_z
O1	O	0.755269	0.069133	0.050455
O2	O	1.255269	0.569133	0.550455
O3	O	0.589406	0.079137	0.050474
O4	O	1.089406	0.579137	0.550474
O5	O	0.677339	-0.008797	0.050453
O6	O	1.177339	0.491203	0.550453
O7	O	0.667336	0.157067	0.050476
O8	O	1.167336	0.657067	0.550476
O9	O	0.677312	-0.008797	-0.050597
O10	O	1.177312	0.491203	0.449403
O11	O	0.589379	0.079137	-0.050576
O12	O	1.089379	0.579137	0.449424
O13	O	0.755243	0.069133	-0.050595
O14	O	1.255243	0.569133	0.449405
Cu15	Cu	0.672308	0.074135	-0.059812
Cu16	Cu	1.172308	0.574135	0.440188
Cu17	Cu	0.672340	0.074135	0.059691
Cu18	Cu	1.172340	0.574135	0.559691
O19	O	0.667309	0.157067	-0.050574
O20	O	1.167309	0.657067	0.449426
C21	C	0.568176	0.078882	-0.000049
C22	C	1.068176	0.578882	0.499951
C23	C	0.504959	0.078116	-0.000042
C24	C	1.004959	0.578116	0.499958
C25	C	0.677071	-0.030013	-0.000074
C26	C	1.177071	0.469987	0.499926
C27	C	0.676305	-0.093230	-0.000078
C28	C	1.176305	0.406770	0.499922
C29	C	0.723539	-0.492333	-0.000050
C30	C	1.223539	0.007667	0.499950
C31	C	0.722827	-0.551733	-0.000046
C32	C	1.222827	-0.051733	0.499954
O33	O	0.766613	-0.588478	-0.000028
O34	O	1.266613	-0.088478	0.499972
N35	N	0.670551	-0.574359	-0.000040
N36	N	1.170551	-0.074359	0.499960
C37	C	0.618983	-0.537582	-0.000033
C38	C	1.118983	-0.037582	0.499967
O39	O	0.574452	-0.562281	-0.000027
O40	O	1.074452	-0.062281	0.499973
C41	C	0.619695	-0.478182	-0.000033
C42	C	1.119695	0.021818	0.499967
C43	C	0.671974	-0.455560	-0.000045
C44	C	1.171974	0.044440	0.499955
C45	C	0.775814	-0.469710	-0.000061
C46	C	1.275814	0.030290	0.499939
C47	C	0.776525	-0.410313	-0.000067
C48	C	1.276525	0.089687	0.499933
C49	C	0.724961	-0.373540	-0.000062
C50	C	1.224961	0.126460	0.499938
C51	C	0.672685	-0.396164	-0.000051
C52	C	1.172685	0.103836	0.499949
C53	C	0.568127	-0.441406	-0.000022
C54	C	1.068127	0.058594	0.499978
C55	C	0.568844	-0.382004	-0.000022
C56	C	1.068844	0.117996	0.499978
C57	C	0.621123	-0.359381	-0.000034
C58	C	1.121123	0.140619	0.499966
C59	C	0.621832	-0.299995	-0.000052
C60	C	1.121832	0.200005	0.499948
N61	N	0.674109	-0.277368	-0.000057
N62	N	1.174109	0.222632	0.499943
C63	C	0.725673	-0.314141	-0.000062
C64	C	1.225673	0.185859	0.499938
C65	C	0.617491	-0.662324	-0.000031
C66	C	1.117491	-0.162324	0.499969
C67	C	0.616778	-0.721722	-0.000035
C68	C	1.116778	-0.221722	0.499965
C69	C	0.720623	-0.735869	-0.000047
C70	C	1.220623	-0.235869	0.499953
C71	C	0.721335	-0.676470	-0.000047
C72	C	1.221335	-0.176470	0.499953
C73	C	0.669767	-0.639698	-0.000037
C74	C	1.169767	-0.139698	0.499963
C75	C	0.727163	-0.189405	-0.000075
C76	C	1.227163	0.310595	0.499925
C77	C	0.727869	-0.130003	-0.000083
C78	C	1.227869	0.369997	0.499917
C79	C	0.624025	-0.115860	-0.000069
C80	C	1.124025	0.384140	0.499931
C81	C	0.623318	-0.175257	-0.000064
C82	C	1.123318	0.324743	0.499936
C83	C	0.674891	-0.212029	-0.000065
C84	C	1.174891	0.287971	0.499935
O85	O	0.578070	-0.263215	-0.000067
O86	O	1.078070	0.236785	0.499933
O87	O	0.770196	-0.289433	-0.000060
O88	O	1.270196	0.210567	0.499940
C89	C	0.105856	0.125350	-0.000063
C90	C	0.605856	0.625350	0.499937
C91	C	0.046456	0.124638	-0.000067
C92	C	0.546456	0.624638	0.499933
O93	O	0.009711	0.168424	-0.000083
O94	O	0.509711	0.668424	0.499917
N95	N	0.023830	0.072362	-0.000073
N96	N	0.523830	0.572362	0.499927
C97	C	0.060607	0.020794	-0.000082
C98	C	0.560607	0.520794	0.499918
O99	O	0.035908	-0.023737	-0.000088
O100	O	0.535908	0.476263	0.499912
C101	C	0.120006	0.021506	-0.000082
C102	C	0.620006	0.521506	0.499918
C103	C	0.142629	0.073785	-0.000070
C104	C	0.642629	0.573785	0.499930
C105	C	0.128479	0.177625	-0.000051
C106	C	0.628479	0.677625	0.499949
C107	C	0.187876	0.178336	-0.000046
C108	C	0.687876	0.678336	0.499954
C109	C	0.224649	0.126772	-0.000053
C110	C	0.724649	0.626772	0.499947
C111	C	0.202025	0.074497	-0.000065
C112	C	0.702025	0.574497	0.499935
C113	C	0.156783	-0.030062	-0.000096
C114	C	0.656783	0.469938	0.499904
C115	C	0.216185	-0.029345	-0.000097
C116	C	0.716185	0.470655	0.499903
C117	C	0.238808	0.022934	-0.000084
C118	C	0.738808	0.522934	0.499916
C119	C	0.298194	0.023643	-0.000067
C120	C	0.798194	0.523643	0.499933
N121	N	0.320820	0.075920	-0.000061
N122	N	0.820820	0.575920	0.499939
C123	C	0.284048	0.127484	-0.000054
C124	C	0.784048	0.627484	0.499946
C125	C	-0.064135	0.019302	-0.000082
C126	C	0.435865	0.519302	0.499918
C127	C	-0.123533	0.018589	-0.000077
C128	C	0.376467	0.518589	0.499923
C129	C	-0.137680	0.122434	-0.000063
C130	C	0.362320	0.622434	0.499937
C131	C	-0.078281	0.123146	-0.000064
C132	C	0.421719	0.623146	0.499936
C133	C	-0.041509	0.071578	-0.000076
C134	C	0.458491	0.571578	0.499924
C135	C	0.408784	0.128974	-0.000043
C136	C	0.908784	0.628974	0.499957
C137	C	0.468186	0.129680	-0.000035
C138	C	0.968186	0.629680	0.499965
C139	C	0.482329	0.025836	-0.000052
C140	C	0.982329	0.525836	0.499948
C141	C	0.422932	0.025129	-0.000057
C142	C	0.922932	0.525129	0.499943
C143	C	0.386160	0.076702	-0.000054
C144	C	0.886160	0.576702	0.499946
O145	O	0.334974	-0.020119	-0.000054
O146	O	0.834974	0.479881	0.499946
O147	O	0.308755	0.172007	-0.000055
O148	O	0.808755	0.672007	0.499945
C149	C	0.776472	0.069388	-0.000071
C150	C	1.276472	0.569388	0.499929
C151	C	0.839689	0.070154	-0.000073
C152	C	1.339689	0.570154	0.499927
C153	C	0.667577	0.178283	-0.000046
C154	C	1.167577	0.678283	0.499954
C155	C	0.668343	0.241500	-0.000037
C156	C	1.168343	0.741500	0.499963
N157	N	0.672291	0.074135	-0.143865
N158	N	1.172291	0.574135	0.356135
C159	C	0.706685	0.108496	-0.563643
C160	C	1.206685	0.608496	-0.063643
C161	C	0.706692	0.108494	-0.627251
C162	C	1.206692	0.608494	-0.127251
O163	O	0.735915	0.137705	-0.660141
O164	O	1.235915	0.637705	-0.160141
N165	N	0.672351	0.074128	-0.659072
N166	N	1.172351	0.574128	-0.159072
C167	C	0.638005	0.039758	-0.627282
C168	C	1.138005	0.539758	-0.127282
O169	O	0.608796	0.010527	-0.660189
O170	O	1.108796	0.510527	-0.160189
C171	C	0.638002	0.039757	-0.563676
C172	C	1.138002	0.539757	-0.063676
C173	C	0.672341	0.074129	-0.531858
C174	C	1.172341	0.574129	-0.031858
C175	C	0.741022	0.142864	-0.531825
C176	C	1.241022	0.642864	-0.031825
C177	C	0.741014	0.142867	-0.468222
C178	C	1.241014	0.642867	0.031778
C179	C	0.706670	0.108500	-0.436437
C180	C	1.206670	0.608500	0.063563
C181	C	0.672333	0.074131	-0.468255
C182	C	1.172333	0.574131	0.031745
C183	C	0.603660	0.005383	-0.531887
C184	C	1.103660	0.505383	-0.031887
C185	C	0.603660	0.005384	-0.468276
C186	C	1.103660	0.505384	0.031724
C187	C	0.637999	0.039757	-0.436458
C188	C	1.137999	0.539757	0.063542
C189	C	0.637981	0.039766	-0.372866
C190	C	1.137981	0.539766	0.127134
N191	N	0.672322	0.074132	-0.341045
N192	N	1.172322	0.574132	0.158955
C193	C	0.706667	0.108498	-0.372830
C194	C	1.206667	0.608498	0.127170
C195	C	0.638015	0.039762	-0.760860
C196	C	1.138015	0.539762	-0.260860
C197	C	0.638015	0.039766	-0.824465
C198	C	1.138015	0.539766	-0.324465
C199	C	0.706703	0.108502	-0.824429
C200	C	1.206703	0.608502	-0.324429
C201	C	0.706700	0.108501	-0.760823
C202	C	1.206700	0.608501	-0.260823
C203	C	0.672356	0.074128	-0.729039
C204	C	1.172356	0.574128	-0.229039
C205	C	0.706648	0.108501	-0.239259
C206	C	1.206648	0.608501	0.260741
C207	C	0.706635	0.108502	-0.175650
C208	C	1.206635	0.608502	0.324350
C209	C	0.637950	0.039764	-0.175691
C210	C	1.137950	0.539764	0.324309
C211	C	0.637960	0.039765	-0.239295
C212	C	1.137960	0.539765	0.260705
C213	C	0.672313	0.074135	-0.271077
C214	C	1.172313	0.574135	0.228923
O215	O	0.608775	0.010568	-0.339935
O216	O	1.108775	0.510568	0.160065
O217	O	0.735876	0.137719	-0.339916
O218	O	1.235876	0.637719	0.160084
N219	N	0.672362	0.074131	0.143744
N220	N	1.172362	0.574131	0.643744
H221	H	0.770443	-0.111587	-0.000094
H222	H	1.270443	0.388413	0.499906
H223	H	0.098544	0.219617	-0.000048
H224	H	0.598544	0.719617	0.499952
C225	C	0.783139	-0.229349	0.000045
C226	C	1.283139	0.270651	0.500045
C227	C	0.785794	-0.263846	0.052043
C228	C	1.285794	0.236154	0.552043
C229	C	0.837353	-0.300644	0.052174
C230	C	1.337353	0.199356	0.552174
H231	H	0.785067	-0.252875	-0.035151
H232	H	1.285067	0.247125	0.464849
H233	H	0.814386	-0.207382	0.000070
H234	H	1.314386	0.292618	0.500070
H235	H	0.754555	-0.285812	0.052013
H236	H	1.254555	0.214188	0.552013
H237	H	0.783875	-0.240336	0.087247
H238	H	1.283875	0.259664	0.587247
H239	H	0.868601	-0.278676	0.052198
H240	H	1.368601	0.221324	0.552198
H241	H	0.839277	-0.324166	0.016975
H242	H	1.339277	0.175834	0.516975
H243	H	0.839164	-0.324050	0.087456
H244	H	1.339164	0.175950	0.587456
C245	C	0.744024	0.145721	-0.726203
C246	C	1.244024	0.645721	-0.226203
C247	C	0.782779	0.110996	-0.689673
C248	C	1.282779	0.610996	-0.189673
C249	C	0.817168	0.145265	-0.657770
C250	C	1.317168	0.645265	-0.157770
H251	H	0.764529	0.166198	-0.754178
H252	H	1.264529	0.666198	-0.254178
H253	H	0.720553	0.172041	-0.701355
H254	H	1.220553	0.672041	-0.201355
H255	H	0.806247	0.084687	-0.714519
H256	H	1.306247	0.584687	-0.214519
H257	H	0.762289	0.090519	-0.661687
H258	H	1.262289	0.590519	-0.161687
H259	H	0.793698	0.171585	-0.632922
H260	H	1.293698	0.671585	-0.132922
H261	H	0.837670	0.165741	-0.685750
H262	H	1.337670	0.665741	-0.185750
H263	H	0.843464	0.121710	-0.632977
H264	H	1.343464	0.621710	-0.132977
C265	C	0.568024	-0.075957	-0.000184
C266	C	1.068024	0.424043	0.499816
C267	C	0.536510	-0.086128	-0.052171
C268	C	1.036510	0.413872	0.447829
C269	C	0.484923	-0.049375	-0.052295
C270	C	0.984923	0.450625	0.447705
H271	H	0.546519	-0.082746	0.035020
H272	H	1.046519	0.417254	0.535020
H273	H	0.575915	-0.037334	-0.000218
H274	H	1.075915	0.462666	0.499782
H275	H	0.528618	-0.124743	-0.052131
H276	H	1.028618	0.375257	0.447869
H277	H	0.557998	-0.079336	-0.087382
H278	H	1.057998	0.420664	0.412618
H279	H	0.492813	-0.010751	-0.052329
H280	H	0.992813	0.489249	0.447671
H281	H	0.463423	-0.056166	-0.017089
H282	H	0.963423	0.443834	0.482911
H283	H	0.463536	-0.056267	-0.087570
H284	H	0.963536	0.443733	0.412430
H285	H	0.819097	-0.391900	-0.000074
H286	H	1.319097	0.108100	0.499926
H287	H	0.768979	0.170854	-0.442322
H288	H	1.268979	0.670854	0.057678
H289	H	0.817806	-0.499645	-0.000063
H290	H	1.317806	0.000355	0.499937
H291	H	0.575496	-0.632386	-0.000028
H292	H	1.075496	-0.132386	0.499972
C293	C	0.744092	0.145773	-0.858868
C294	C	1.244092	0.645773	-0.358868
C295	C	0.801566	0.129778	-0.843372
C296	C	1.301566	0.629778	-0.343372
C297	C	0.836022	0.164102	-0.875080
C298	C	1.336022	0.664102	-0.375080
H299	H	0.739252	0.140879	-0.901315
H300	H	1.239252	0.640879	-0.401315
H301	H	0.733324	0.184804	-0.848431
H302	H	1.233324	0.684804	-0.348431
H303	H	0.812330	0.090757	-0.853814
H304	H	1.312330	0.590757	-0.353814
H305	H	0.806424	0.134675	-0.800931
H306	H	1.306424	0.634675	-0.300931
H307	H	0.825254	0.203133	-0.864642
H308	H	1.325254	0.703133	-0.364642
H309	H	0.831177	0.159206	-0.917525
H310	H	1.331177	0.659206	-0.417525
H311	H	0.875021	0.153258	-0.864566
H312	H	1.375021	0.653258	-0.364566
C313	C	-0.053833	0.179966	-0.000086
C314	C	0.446167	0.679966	0.499914
C315	C	-0.098758	0.224967	-0.000093
C316	C	0.401242	0.724967	0.499907
C317	C	-0.076262	0.277319	-0.000123
C318	C	0.423738	0.777319	0.499877
H319	H	-0.030958	0.182486	0.035142
H320	H	0.469042	0.682486	0.535142
H321	H	-0.030981	0.182436	-0.035340
H322	H	0.469019	0.682436	0.464660
H323	H	-0.121601	0.222498	0.035157
H324	H	0.378399	0.722498	0.535157
H325	H	-0.121637	0.222465	-0.035318
H326	H	0.378363	0.722465	0.464682
H327	H	-0.053409	0.279789	-0.035377
H328	H	0.446591	0.779789	0.464623
H329	H	-0.053386	0.279834	0.035106
H330	H	0.446614	0.779834	0.535106
H331	H	-0.106739	0.307859	-0.000133
H332	H	0.393261	0.807859	0.499867
H333	H	0.734622	0.136488	-0.265129
H334	H	1.234622	0.636488	0.234871
C335	C	0.566399	-0.031879	-0.566532
C336	C	1.066399	0.468121	-0.066532
C337	C	0.573736	-0.024521	-0.629042
C338	C	1.073736	0.475479	-0.129042
C339	C	0.539414	-0.058835	-0.660975
C340	C	1.039414	0.441165	-0.160975
H341	H	0.577173	-0.070919	-0.556179
H342	H	1.077173	0.429081	-0.056179
H343	H	0.527359	-0.021097	-0.556150
H344	H	1.027359	0.478903	-0.056150
H345	H	0.612767	-0.035307	-0.639419
H346	H	1.112767	0.464693	-0.139419
H347	H	0.562958	0.014511	-0.639412
H348	H	1.062958	0.514511	-0.139412
H349	H	0.500375	-0.048054	-0.650593
H350	H	1.000375	0.451946	-0.150593
H351	H	0.550192	-0.097874	-0.650617
H352	H	1.050192	0.402126	-0.150617
H353	H	0.544384	-0.053844	-0.703391
H354	H	1.044384	0.446156	-0.203391
H355	H	0.574207	-0.740136	-0.000036
H356	H	1.074207	-0.240136	0.499964
C357	C	-0.147980	-0.038231	-0.000114
C358	C	0.352020	0.461769	0.499886
C359	C	-0.103055	-0.083232	-0.000133
C360	C	0.396945	0.416768	0.499867
C361	C	-0.125551	-0.135584	-0.000179
C362	C	0.374449	0.364416	0.499821
H363	H	-0.170844	-0.040751	0.035113
H364	H	0.329156	0.459249	0.535113
H365	H	-0.170844	-0.040701	-0.035369
H366	H	0.329156	0.459299	0.464631
H367	H	-0.080201	-0.080763	0.035118
H368	H	0.419799	0.419237	0.535118
H369	H	-0.080187	-0.080730	-0.035357
H370	H	0.419813	0.419270	0.464643
H371	H	-0.148415	-0.138054	-0.035434
H372	H	0.351585	0.361946	0.464566
H373	H	-0.148415	-0.138099	0.035048
H374	H	0.351585	0.361901	0.535048
H375	H	-0.095074	-0.166124	-0.000198
H376	H	0.404926	0.333876	0.499802
H377	H	0.734598	0.136494	-0.149747
H378	H	1.234598	0.636494	0.350253
C379	C	0.778329	0.180245	-0.566218
C380	C	1.278329	0.680245	-0.066218
C381	C	0.808383	0.210349	-0.524727
C382	C	1.308383	0.710349	-0.024727
C383	C	0.842749	0.244801	-0.556383
C384	C	1.342749	0.744801	-0.056383
H385	H	0.804725	0.156841	-0.591033
H386	H	1.304725	0.656841	-0.091033
H387	H	0.754854	0.206607	-0.591016
H388	H	1.254854	0.706607	-0.091016
H389	H	0.831857	0.183989	-0.499940
H390	H	1.331857	0.683989	0.000060
H391	H	0.782003	0.233763	-0.499911
H392	H	1.282003	0.733763	0.000089
H393	H	0.819274	0.271163	-0.581180
H394	H	1.319274	0.771163	-0.081180
H395	H	0.869141	0.221393	-0.581196
H396	H	1.369141	0.721393	-0.081196
H397	H	0.863141	0.265234	-0.528236
H398	H	1.363141	0.765234	-0.028236
C399	C	0.778054	-0.651832	0.000041
C400	C	1.278054	-0.151832	0.500041
C401	C	0.781507	-0.618130	0.052023
C402	C	1.281507	-0.118130	0.552023
C403	C	0.833747	-0.595421	0.052123
C404	C	1.333747	-0.095421	0.552123
H405	H	0.808709	-0.682186	0.000068
H406	H	1.308709	-0.182186	0.500068
H407	H	0.780490	-0.628926	-0.035178
H408	H	1.280490	-0.128926	0.464822
H409	H	0.779078	-0.641035	0.087233
H410	H	1.279078	-0.141035	0.587233
H411	H	0.750865	-0.587768	0.052007
H412	H	1.250865	-0.087768	0.552007
H413	H	0.836182	-0.572515	0.016903
H414	H	1.336182	-0.072515	0.516903
H415	H	0.864397	-0.625778	0.052148
H416	H	1.364397	-0.125778	0.552148
H417	H	0.836094	-0.572548	0.087388
H418	H	1.336094	-0.072548	0.587388
C419	C	-0.024146	-0.036647	0.000011
C420	C	0.475854	0.463353	0.500011
C421	C	0.010385	-0.039267	0.051993
C422	C	0.510385	0.460733	0.551993
C423	C	0.047232	-0.090795	0.052095
C424	C	0.547232	0.409205	0.552095
H425	H	-0.046061	-0.067927	0.000040
H426	H	0.453939	0.432073	0.500040
H427	H	-0.000651	-0.038539	-0.035208
H428	H	0.499349	0.461461	0.464792
H429	H	-0.013107	-0.037381	0.087203
H430	H	0.486893	0.462619	0.587203
H431	H	0.032313	-0.008000	0.051975
H432	H	0.532313	0.492000	0.551975
H433	H	0.070727	-0.092686	0.016875
H434	H	0.570727	0.407314	0.516875
H435	H	0.025312	-0.122070	0.052122
H436	H	0.525312	0.377930	0.552122
H437	H	0.070669	-0.092577	0.087360
H438	H	0.570669	0.407423	0.587360
H439	H	0.609986	0.011785	-0.149800
H440	H	1.109986	0.511785	0.350200
C441	C	0.368962	0.185028	-0.000003
C442	C	0.868962	0.685028	0.499997
C443	C	0.401498	0.230955	0.000026
C444	C	0.901498	0.730955	0.500026
C445	C	0.364834	0.282601	0.000075
C446	C	0.864834	0.782601	0.500075
H447	H	0.345476	0.186999	-0.035232
H448	H	0.845476	0.686999	0.464768
H449	H	0.345510	0.186941	0.035250
H450	H	0.845510	0.686941	0.535250
H451	H	0.424940	0.229044	-0.035224
H452	H	0.924940	0.729044	0.464776
H453	H	0.424982	0.229004	0.035252
H454	H	0.924982	0.729004	0.535252
H455	H	0.341382	0.284513	0.035328
H456	H	0.841382	0.784513	0.535328
H457	H	0.341350	0.284565	-0.035154
H458	H	0.841350	0.784565	0.464846
H459	H	0.386904	0.313768	0.000100
H460	H	0.886904	0.813768	0.500100
C461	C	0.600710	0.002391	-0.858898
C462	C	1.100710	0.502391	-0.358898
C463	C	0.570643	-0.027713	-0.817441
C464	C	1.070643	0.472287	-0.317441
C465	C	0.536280	-0.062158	-0.849136
C466	C	1.036280	0.437842	-0.349136
H467	H	0.574322	0.025800	-0.883718
H468	H	1.074322	0.525800	-0.383718
H469	H	0.624188	-0.023970	-0.883693
H470	H	1.124188	0.476030	-0.383693
H471	H	0.547167	-0.001355	-0.792655
H472	H	1.047167	0.498645	-0.292655
H473	H	0.597017	-0.051133	-0.792619
H474	H	1.097017	0.448867	-0.292619
H475	H	0.559758	-0.088520	-0.873931
H476	H	1.059758	0.411480	-0.373931
H477	H	0.509895	-0.038745	-0.873955
H478	H	1.009895	0.461255	-0.373955
H479	H	0.515879	-0.082592	-0.821012
H480	H	1.015879	0.417408	-0.321012
H481	H	0.610043	0.011774	-0.734985
H482	H	1.110043	0.511774	-0.234985
H483	H	0.525555	-0.459814	-0.000009
H484	H	1.025555	0.040186	0.499991
C485	C	0.566308	-0.031952	-0.433878
C486	C	1.066308	0.468048	0.066122
C487	C	0.536229	-0.062039	-0.475363
C488	C	1.036229	0.437961	0.024637
C489	C	0.501809	-0.096431	-0.443699
C490	C	1.001809	0.403569	0.056301
H491	H	0.589731	-0.058328	-0.409060
H492	H	1.089731	0.441672	0.090940
H493	H	0.539931	-0.008492	-0.409084
H494	H	1.039931	0.491508	0.090916
H495	H	0.562604	-0.085497	-0.500147
H496	H	1.062604	0.414503	-0.000147
H497	H	0.512796	-0.035678	-0.500183
H498	H	1.012796	0.464322	-0.000183
H499	H	0.475432	-0.072971	-0.418905
H500	H	0.975432	0.427029	0.081095
H501	H	0.525237	-0.122804	-0.418882
H502	H	1.025237	0.377196	0.081118
H503	H	0.481393	-0.116845	-0.471841
H504	H	0.981393	0.383155	0.028159
H505	H	0.206289	0.220908	-0.000036
H506	H	0.706289	0.720908	0.499964
H507	H	0.762610	-0.765821	-0.000048
H508	H	1.262610	-0.265821	0.499952
C509	C	0.600768	0.002412	-0.273919
C510	C	1.100768	0.502412	0.226081
C511	C	0.635521	-0.036328	-0.310437
C512	C	1.135521	0.463672	0.189563
C513	C	0.601282	-0.070747	-0.342341
C514	C	1.101282	0.429253	0.157659
H515	H	0.580302	-0.018106	-0.245944
H516	H	1.080302	0.481894	0.254056
H517	H	0.574438	0.025864	-0.298774
H518	H	1.074438	0.525864	0.201226
H519	H	0.661840	-0.059777	-0.285583
H520	H	1.161840	0.440223	0.214417
H521	H	0.655986	-0.015826	-0.338423
H522	H	1.155986	0.484174	0.161577
H523	H	0.574952	-0.047295	-0.367196
H524	H	1.074952	0.452705	0.132804
H525	H	0.580818	-0.091261	-0.314362
H526	H	1.080818	0.408739	0.185638
H527	H	0.624856	-0.097032	-0.367126
H528	H	1.124856	0.402968	0.132874
H529	H	-0.167632	0.164421	-0.000060
H530	H	0.332368	0.664421	0.499940
C531	C	0.512792	-0.342174	-0.000042
C532	C	1.012792	0.157826	0.499958
C533	C	0.466861	-0.374706	-0.000046
C534	C	0.966861	0.125294	0.499954
C535	C	0.415219	-0.338036	-0.000074
C536	C	0.915219	0.161964	0.499926
H537	H	0.510840	-0.318689	0.035185
H538	H	1.010840	0.181311	0.535185
H539	H	0.510866	-0.318723	-0.035296
H540	H	1.010866	0.181277	0.464704
H541	H	0.468786	-0.398147	0.035204
H542	H	0.968786	0.101853	0.535204
H543	H	0.468795	-0.398189	-0.035271
H544	H	0.968795	0.101811	0.464729
H545	H	0.413293	-0.314585	-0.035328
H546	H	0.913293	0.185415	0.464672
H547	H	0.413272	-0.314553	0.035154
H548	H	0.913272	0.185447	0.535154
H549	H	0.384049	-0.360103	-0.000083
H550	H	0.884049	0.139897	0.499917
H551	H	0.580748	-0.193677	-0.000071
H552	H	1.080748	0.306323	0.499929
C553	C	0.132343	-0.086883	-0.000147
C554	C	0.632343	0.413117	0.499853
C555	C	0.177271	-0.131881	-0.000174
C556	C	0.677271	0.368119	0.499826
C557	C	0.154780	-0.184236	-0.000232
C558	C	0.654780	0.315764	0.499768
H559	H	0.109478	-0.089412	0.035079
H560	H	0.609478	0.410588	0.535079
H561	H	0.109479	-0.089349	-0.035403
H562	H	0.609479	0.410651	0.464597
H563	H	0.200124	-0.129416	0.035078
H564	H	0.700124	0.370584	0.535078
H565	H	0.200139	-0.129370	-0.035397
H566	H	0.700139	0.370630	0.464603
H567	H	0.131917	-0.186701	-0.035488
H568	H	0.631917	0.313299	0.464512
H569	H	0.131916	-0.186759	0.034994
H570	H	0.631916	0.313241	0.534994
H571	H	0.185260	-0.214773	-0.000257
H572	H	0.685260	0.285227	0.499743
H573	H	0.246123	-0.071339	-0.000107
H574	H	0.746123	0.428661	0.499893
H575	H	0.486602	0.172255	-0.000025
H576	H	0.986602	0.672255	0.499975
H577	H	0.404512	-0.017441	-0.000058
H578	H	0.904512	0.482559	0.499942
H579	H	0.512280	-0.016146	-0.000056
H580	H	1.012280	0.483854	0.499944
