data_functionalizedCrystal
_audit_creation_method	'MofGen! by Chris Wilmer'
_symmetry_space_group_name_H-M	'P1'
_symmetry_Int_Tables_number	1
_symmetry_cell_setting	triclinic
loop_
_symmetry_equiv_pos_as_xyz
  x,y,z
_cell_length_a	10.654550
_cell_length_b	16.992695
_cell_length_c	9.130313
_cell_angle_alpha	89.998255
_cell_angle_beta	89.996220
_cell_angle_gamma	87.576563
loop_
_atom_site_label
_atom_site_type_symbol
_atom_site_fract_x
_atom_site_fract_y
_atom_site_fract_z
O1	O	1.677356	0.110186	-0.121922
O2	O	1.312785	0.120685	-0.121899
O3	O	1.493609	0.001285	-0.121899
O4	O	1.496532	0.229586	-0.121922
O5	O	1.493607	0.001288	0.121700
O6	O	1.312783	0.120688	0.121700
O7	O	1.677354	0.110190	0.121676
Cu8	Cu	1.495068	0.115439	0.143931
Cu9	Cu	1.495071	0.115435	-0.144153
O10	O	1.496530	0.229589	0.121676
C11	C	1.265919	0.119915	-0.000097
C12	C	1.126277	0.117609	-0.000087
C13	C	1.052866	0.187910	-0.000116
C14	C	0.921658	0.185738	-0.000141
C15	C	0.937282	0.042959	-0.000115
C16	C	1.068488	0.045131	-0.000080
C17	C	1.043844	0.270342	-0.000137
C18	C	0.912636	0.268171	-0.000162
C19	C	1.489848	-0.027947	-0.000100
C20	C	1.478628	-0.115052	-0.000099
C21	C	1.586879	-0.164704	-0.000105
C22	C	1.576330	-0.246548	-0.000118
C23	C	1.457529	-0.278738	-0.000115
C24	C	1.349270	-0.229080	-0.000114
C25	C	1.359820	-0.147237	-0.000112
C26	C	1.413802	-0.522574	-0.000133
C27	C	1.403260	-0.604422	-0.000131
C28	C	1.630321	-0.621884	-0.000137
C29	C	1.640861	-0.540040	-0.000126
C30	C	1.532602	-0.490389	-0.000132
N31	N	1.446743	-0.362396	-0.000124
N32	N	1.543389	-0.406733	-0.000134
C33	C	1.724220	0.110959	-0.000129
C34	C	1.863862	0.113265	-0.000148
C35	C	1.500291	0.258821	-0.000126
C36	C	1.511510	0.345926	-0.000136
N37	N	1.495076	0.115441	0.346553
N38	N	1.495073	0.115427	-0.346776
C39	C	1.575168	0.062589	0.423205
C40	C	1.575164	0.062580	0.576542
C41	C	1.414971	0.168281	0.576561
C42	C	1.414970	0.168286	0.423227
C43	C	1.667658	0.001565	0.423195
C44	C	1.667654	0.001556	0.576532
H45	H	0.869116	0.293084	0.105003
H46	H	0.890215	-0.016050	-0.000131
C47	C	1.631643	-0.079891	0.366963
C48	C	1.514509	-0.087422	0.269997
C49	C	1.478493	-0.168875	0.213763
C50	C	1.559613	-0.242797	0.254496
C51	C	1.676755	-0.235269	0.351467
C52	C	1.712770	-0.153816	0.407700
H53	H	1.454453	-0.032698	0.239840
H54	H	1.391777	-0.174448	0.141979
H55	H	1.532952	-0.303094	0.212868
H56	H	1.736811	-0.289993	0.381624
H57	H	1.799487	-0.148243	0.479485
H58	H	1.081769	0.296589	-0.105312
C59	C	1.695412	-0.301162	-0.000119
C60	C	1.790511	-0.297116	0.126379
C61	C	1.909601	-0.351729	0.126374
C62	C	1.933591	-0.410387	-0.000128
C63	C	1.838489	-0.414434	-0.126636
C64	C	1.719399	-0.359822	-0.126631
H65	H	1.772755	-0.253692	0.220032
H66	H	1.980002	-0.348732	0.220024
H67	H	2.021748	-0.450814	-0.000132
H68	H	1.856245	-0.457859	-0.220289
H69	H	1.648998	-0.362819	-0.220281
H70	H	1.325649	-0.482157	-0.000138
C71	C	1.087245	0.313895	0.137582
C72	C	0.989669	0.346807	0.248579
C73	C	1.033071	0.390357	0.386295
C74	C	1.174049	0.400996	0.413014
C75	C	1.271635	0.368083	0.302014
C76	C	1.228233	0.324532	0.164298
H77	H	0.885301	0.338932	0.228803
H78	H	0.960831	0.414722	0.468464
H79	H	1.206178	0.433234	0.514959
H80	H	1.376003	0.375957	0.321790
H81	H	1.300472	0.300168	0.082129
C82	C	1.793068	0.027379	0.358926
C83	C	1.915879	-0.019834	0.394302
C84	C	2.041287	0.005984	0.330034
C85	C	2.043885	0.079015	0.230390
C86	C	1.921070	0.126233	0.195009
C87	C	1.795661	0.100415	0.259277
H88	H	1.913960	-0.073901	0.468069
H89	H	2.132203	-0.028970	0.356226
H90	H	2.136719	0.098128	0.182815
H91	H	1.922989	0.180299	0.121242
H92	H	1.704746	0.135369	0.233085
C93	C	0.859868	0.310115	-0.137901
C94	C	0.898142	0.279705	-0.291077
C95	C	0.845373	0.321644	-0.428812
C96	C	0.754330	0.393993	-0.413371
C97	C	0.716051	0.424407	-0.260189
C98	C	0.768820	0.382467	-0.122454
H99	H	0.965542	0.226145	-0.302513
H100	H	0.873710	0.299129	-0.542207
H101	H	0.715267	0.425039	-0.515330
H102	H	0.648651	0.477967	-0.248753
H103	H	0.740483	0.404982	-0.009059
H104	H	1.632216	-0.055428	0.624087
H105	H	1.683620	-0.138501	-0.000098
H106	H	1.271671	-0.106811	-0.000107
C107	C	1.218588	-0.264490	-0.000114
C108	C	1.126373	-0.246035	0.126382
C109	C	0.995689	-0.281444	0.126387
C110	C	0.957221	-0.335308	-0.000104
C111	C	1.049438	-0.353765	-0.126609
C112	C	1.180122	-0.318356	-0.126614
H113	H	1.154847	-0.206159	0.220026
H114	H	0.927424	-0.267780	0.220035
H115	H	0.860481	-0.361520	-0.000101
H116	H	1.020963	-0.393641	-0.220254
H117	H	1.248387	-0.332020	-0.220262
H118	H	1.349751	0.211306	0.639006
C119	C	1.799587	0.019728	0.632772
C120	C	1.872869	-0.040443	0.729738
C121	C	2.004791	-0.022264	0.785985
C122	C	2.063430	0.056085	0.745266
C123	C	1.990147	0.116261	0.648295
C124	C	1.858226	0.098083	0.592048
H125	H	1.829461	-0.098446	0.759885
H126	H	2.059039	-0.066811	0.857769
H127	H	2.161087	0.069542	0.786903
H128	H	2.033555	0.174265	0.618148
H129	H	1.803977	0.142629	0.520264
H130	H	1.737601	-0.513837	-0.000128
H131	H	1.718459	-0.662319	-0.000135
H132	H	1.128255	-0.012114	-0.000035
H133	H	1.349741	0.211316	0.360819
H134	H	1.306513	-0.630628	-0.000105
