data_functionalizedCrystal
_audit_creation_method	'MofGen! by Chris Wilmer'
_symmetry_space_group_name_H-M	'P1'
_symmetry_Int_Tables_number	1
_symmetry_cell_setting	triclinic
loop_
_symmetry_equiv_pos_as_xyz
  x,y,z
_cell_length_a	15.995350
_cell_length_b	15.072220
_cell_length_c	10.654554
_cell_angle_alpha	89.993684
_cell_angle_beta	96.010391
_cell_angle_gamma	90.000308
loop_
_atom_site_label
_atom_site_type_symbol
_atom_site_fract_x
_atom_site_fract_y
_atom_site_fract_z
O1	O	1.111926	0.073701	-0.161881
O2	O	0.868267	0.073719	-0.181870
O3	O	0.995697	0.073711	0.010936
O4	O	0.984496	0.073709	-0.354688
O5	O	0.995688	-0.073855	0.010959
O6	O	0.868258	-0.073846	-0.181847
O7	O	1.111917	-0.073864	-0.161858
Zn8	Zn	0.990087	-0.097284	-0.171849
Zn9	Zn	0.990098	0.097139	-0.171880
O10	O	0.984488	-0.073856	-0.354665
C11	C	0.837063	-0.000061	-0.181032
C12	C	0.744098	-0.000055	-0.178555
N13	N	0.990085	-0.229973	-0.171827
C14	C	0.406299	-0.000073	-0.169658
C15	C	0.452934	-0.000402	-0.032344
C16	C	0.549639	-0.000063	-0.034822
C17	C	0.573885	-0.000064	-0.174071
C18	C	0.533197	0.084199	-0.241812
C19	C	0.436541	0.084263	-0.238362
C20	C	0.436209	-0.083546	-0.241173
C21	C	0.533154	-0.084653	-0.241140
C22	C	0.668597	-0.000057	-0.176572
C23	C	0.311587	-0.000075	-0.167160
C24	C	0.990099	-0.589175	-0.171870
C25	C	1.058509	-0.551544	-0.069047
C26	C	1.058326	-0.448719	-0.068668
C27	C	0.990093	-0.410971	-0.171849
C28	C	0.902569	-0.448307	-0.143231
C29	C	0.902973	-0.551165	-0.142504
C30	C	1.008427	-0.551253	-0.303614
C31	C	1.010404	-0.448389	-0.302731
C32	C	0.990084	-0.310257	-0.171839
C33	C	0.990102	-0.689888	-0.171877
C34	C	1.143121	-0.000082	-0.162696
C35	C	1.236086	-0.000083	-0.165174
C36	C	0.994869	-0.000070	0.057735
C37	C	0.992406	-0.000063	0.197146
N38	N	0.990106	0.229828	-0.171891
C39	C	0.985315	-0.000073	-0.401463
C40	C	0.987778	-0.000074	-0.540874
C41	C	0.912746	-0.000069	0.378667
C42	C	0.915060	-0.000060	0.247676
C43	C	1.067444	-0.000066	0.277615
C44	C	1.065129	-0.000068	0.408604
C45	C	0.835395	-0.000074	0.429189
C46	C	0.760357	-0.000070	0.348729
C47	C	0.762671	-0.000061	0.217737
C48	C	0.840022	-0.000057	0.167206
H49	H	0.577755	-0.060467	0.018425
N50	N	1.086823	-0.583799	-0.338139
N51	N	1.097875	-0.665354	-0.349851
H52	H	1.153245	-0.688341	-0.374226
N53	N	0.396820	0.089094	-0.364826
N54	N	0.349387	0.152721	-0.397729
H55	H	0.321338	0.156142	-0.487044
H56	H	0.433026	0.059694	0.022281
H57	H	0.577189	0.060446	0.018765
N58	N	0.833031	-0.000100	0.562991
N59	N	0.797987	-0.062312	0.614773
H60	H	0.796319	-0.062334	0.709272
H61	H	0.415409	-0.147416	-0.196272
H62	H	0.547918	0.087331	-0.344115
H63	H	0.697380	-0.000066	0.389880
H64	H	0.417949	0.147253	-0.188982
N65	N	0.568481	0.162865	-0.182837
N66	N	0.623581	0.157089	-0.090931
H67	H	0.648509	0.212645	-0.049284
N68	N	0.837149	-0.582410	-0.232872
N69	N	0.854265	-0.630023	-0.322769
H70	H	0.807773	-0.652086	-0.386586
N71	N	1.146458	-0.000082	0.226022
N72	N	1.213447	-0.000093	0.297877
H73	H	1.269254	-0.000109	0.261443
H74	H	0.560180	-0.146991	-0.191690
N75	N	0.842373	-0.000056	0.033399
N76	N	0.809384	-0.062254	-0.031744
H77	H	0.811043	-0.062259	-0.126244
N78	N	0.686034	-0.000062	0.135531
N79	N	0.688108	-0.000058	0.018579
H80	H	0.633981	-0.000063	-0.039481
N81	N	1.141779	-0.000070	0.490781
N82	N	1.210836	-0.000073	0.445660
H83	H	1.264972	-0.000071	0.503697
H84	H	0.886936	-0.575163	-0.046425
N85	N	0.945850	-0.581765	-0.399609
N86	N	0.870204	-0.563271	-0.393519
H87	H	0.826006	-0.584821	-0.461309
H88	H	0.549110	-0.089744	-0.342684
H89	H	0.850404	-0.423856	-0.216127
N90	N	0.429341	-0.076254	0.036474
N91	N	0.377875	-0.130953	-0.014869
H92	H	0.361228	-0.184542	0.033720
H93	H	0.405037	-0.084117	-0.342413
H94	H	1.123362	-0.423475	-0.085709
H95	H	1.074794	-0.423987	-0.324446
N96	N	1.140366	-0.582563	-0.090104
N97	N	1.149246	-0.632769	-0.181131
H98	H	1.207060	-0.654679	-0.196009
N99	N	1.043933	-0.583980	0.052908
N100	N	1.044814	-0.665570	0.074040
H101	H	1.034516	-0.688478	0.160170
N102	N	1.043620	-0.417866	0.054021
N103	N	1.033450	-0.472299	0.139630
H104	H	1.023092	-0.450511	0.226297
H105	H	0.886158	-0.422553	-0.048245
H106	H	0.963865	-0.422692	-0.382830
