data_functionalizedCrystal
_audit_creation_method	'MofGen! by Chris Wilmer'
_symmetry_space_group_name_H-M	'P1'
_symmetry_Int_Tables_number	1
_symmetry_cell_setting	triclinic
loop_
_symmetry_equiv_pos_as_xyz
  x,y,z
_cell_length_a	10.654550
_cell_length_b	11.026607
_cell_length_c	9.130313
_cell_angle_alpha	90.000037
_cell_angle_beta	89.996220
_cell_angle_gamma	96.535460
loop_
_atom_site_label
_atom_site_type_symbol
_atom_site_fract_x
_atom_site_fract_y
_atom_site_fract_z
O1	O	1.704901	0.170762	-0.121918
O2	O	1.342954	0.187032	-0.121895
O3	O	1.493930	0.001991	-0.121899
O4	O	1.553926	0.355802	-0.121914
O5	O	1.493929	0.001996	0.121700
O6	O	1.342953	0.187037	0.121704
O7	O	1.704900	0.170767	0.121681
Cu8	Cu	1.523927	0.178902	0.143935
Cu9	Cu	1.523928	0.178896	-0.144149
O10	O	1.553924	0.355807	0.121685
C11	C	1.295897	0.185839	-0.000092
C12	C	1.155677	0.182265	-0.000083
C13	C	1.099841	0.291214	-0.000109
C14	C	0.968090	0.287849	-0.000134
C15	C	0.948022	0.066576	-0.000114
C16	C	1.079771	0.069943	-0.000078
C17	C	1.111426	0.418964	-0.000127
C18	C	0.979675	0.415599	-0.000152
C19	C	1.482861	-0.043310	-0.000101
C20	C	1.449867	-0.178302	-0.000104
C21	C	1.540970	-0.251341	-0.000112
C22	C	1.506871	-0.390862	-0.000115
C23	C	1.751958	0.171959	-0.000125
C24	C	1.892177	0.175533	-0.000144
C25	C	1.564993	0.401109	-0.000116
C26	C	1.597988	0.536100	-0.000123
N27	N	1.523934	0.178906	0.346558
N28	N	1.523928	0.178883	-0.346771
C29	C	1.590814	0.096998	0.423208
C30	C	1.590808	0.096983	0.576544
C31	C	1.457040	0.260795	0.576568
C32	C	1.457040	0.260803	0.423234
C33	C	1.668049	0.002426	0.423195
C34	C	1.668043	0.002411	0.576532
H35	H	1.151603	0.468929	0.101823
C36	C	1.030625	0.505388	0.235072
C37	C	0.929320	0.467722	0.141810
H38	H	0.999533	0.537569	0.322706
H39	H	1.074659	0.437599	0.257911
H40	H	1.086376	0.566556	0.187852
H41	H	0.873573	0.406547	0.189025
H42	H	0.885265	0.535519	0.118973
H43	H	1.155912	0.459640	-0.105300
H44	H	1.403623	-0.431617	-0.000118
C45	C	1.504697	-0.111024	0.281820
C46	C	1.611696	-0.123718	0.367008
H47	H	1.469909	-0.188897	0.247129
H48	H	1.443719	-0.076475	0.339634
H49	H	1.527905	-0.059105	0.200908
H50	H	1.588487	-0.175630	0.447926
H51	H	1.672686	-0.158285	0.309191
H52	H	1.644212	-0.210581	-0.000109
C53	C	1.841717	0.160892	0.406414
C54	C	1.799826	0.042412	0.359003
H55	H	1.923076	0.185580	0.366798
H56	H	1.784335	0.215221	0.374278
H57	H	1.846169	0.162220	0.510324
H58	H	1.795365	0.041086	0.255093
H59	H	1.857223	-0.011932	0.391131
C60	C	1.043585	0.523335	-0.221237
C61	C	0.937430	0.480571	-0.137782
H62	H	1.017501	0.563440	-0.306202
H63	H	1.098172	0.579074	-0.164591
H64	H	1.087063	0.456487	-0.249537
H65	H	0.893957	0.547421	-0.109473
H66	H	0.882822	0.424829	-0.194438
C67	C	1.250506	-0.194546	-0.125325
C68	C	1.310490	-0.233315	-0.000103
H69	H	1.164461	-0.228514	-0.125327
H70	H	1.255134	-0.108012	-0.125308
H71	H	1.291232	-0.220839	-0.210266
H72	H	1.269769	-0.207014	0.084838
H73	H	1.305853	-0.319867	-0.000107
H74	H	1.402568	0.327488	0.360827
H75	H	1.701236	-0.423147	-0.000240
H76	H	1.402575	0.327472	0.639014
H77	H	1.769076	0.023243	0.618141
C78	C	1.046695	-0.149111	-0.000042
C79	C	1.141147	-0.049817	-0.000034
H80	H	1.084589	-0.223047	-0.000022
H81	H	0.995707	-0.145810	0.084885
H82	H	0.995746	-0.145824	-0.085013
H83	H	1.192091	-0.053098	0.084943
H84	H	1.192157	-0.053120	-0.084969
C85	C	0.737148	-0.036836	-0.000159
C86	C	0.864581	-0.056885	-0.000123
H87	H	0.685639	-0.113059	-0.000175
H88	H	0.719666	0.008063	0.084778
H89	H	0.719711	0.008070	-0.085120
H90	H	0.882019	-0.101783	0.084844
H91	H	0.882069	-0.101803	-0.085068
H92	H	1.618360	-0.085899	0.624085
