data_functionalizedCrystal
_audit_creation_method	'MofGen! by Chris Wilmer'
_symmetry_space_group_name_H-M	'P1'
_symmetry_Int_Tables_number	1
_symmetry_cell_setting	triclinic
loop_
_symmetry_equiv_pos_as_xyz
  x,y,z
_cell_length_a	9.065218
_cell_length_b	15.995350
_cell_length_c	8.140239
_cell_angle_alpha	89.998714
_cell_angle_beta	89.997198
_cell_angle_gamma	84.254130
loop_
_atom_site_label
_atom_site_type_symbol
_atom_site_fract_x
_atom_site_fract_y
_atom_site_fract_z
O1	O	1.957507	0.122770	-0.136609
O2	O	1.527985	0.132840	-0.136610
O3	O	1.754487	0.006007	-0.136608
O4	O	1.731005	0.249604	-0.136611
O5	O	1.754475	0.006005	0.136619
O6	O	1.527973	0.132839	0.136617
O7	O	1.957495	0.122769	0.136619
Zn8	Zn	1.742732	0.127803	0.179998
Zn9	Zn	1.742748	0.127806	-0.179990
O10	O	1.730992	0.249602	0.136616
C11	C	1.473015	0.131872	0.000003
C12	C	1.309240	0.128978	0.000002
C13	C	1.753510	-0.025196	0.000003
C14	C	1.750600	-0.118169	-0.000007
C15	C	1.740148	-0.455995	-0.000001
C16	C	1.578837	-0.409785	-0.000615
C17	C	1.581748	-0.313072	0.000001
C18	C	1.745332	-0.288396	-0.000005
C19	C	1.824889	-0.328871	0.156019
C20	C	1.820837	-0.425537	0.156149
C21	C	1.824183	-0.425868	-0.154561
C22	C	1.824145	-0.328923	-0.156623
C23	C	1.748271	-0.193676	-0.000001
C24	C	1.737214	-0.550716	0.000006
C25	C	2.012465	0.123737	0.000002
C26	C	2.176239	0.126631	-0.000008
C27	C	1.731969	0.280805	0.000002
C28	C	1.734880	0.373778	0.000001
N29	N	1.742731	0.127802	0.425681
N30	N	1.742760	0.127801	-0.425673
H31	H	1.519210	-0.285124	-0.111842
O32	O	1.761487	-0.450950	-0.295687
C33	C	1.867340	-0.502768	-0.385912
H34	H	1.957401	-0.531554	-0.299373
H35	H	1.919202	-0.463660	-0.483305
C36	C	1.680639	-0.537961	-0.576095
C37	C	1.791248	-0.573322	-0.469804
H38	H	1.633703	-0.581480	-0.627851
H39	H	1.609324	-0.503048	-0.515313
H40	H	1.723874	-0.505372	-0.657241
H41	H	1.748010	-0.605901	-0.388649
H42	H	1.862554	-0.608242	-0.530575
H43	H	1.765979	-0.302115	-0.272045
H44	H	1.514368	-0.428805	-0.112502
O45	O	1.966453	-0.309474	-0.167589
C46	C	1.997997	-0.258515	-0.033298
H47	H	1.918973	-0.268793	0.072081
H48	H	1.983405	-0.189684	-0.071997
C49	C	2.255973	-0.269322	-0.106109
C50	C	2.158922	-0.281951	0.023325
H51	H	2.355241	-0.283774	-0.071184
H52	H	2.234721	-0.303651	-0.196587
H53	H	2.243795	-0.211962	-0.138346
H54	H	2.171088	-0.339311	0.055545
H55	H	2.180180	-0.247631	0.113810
H56	H	1.943117	-0.456727	-0.155614
O57	O	1.962190	-0.462852	0.164400
C58	C	2.043048	-0.438692	0.027345
H59	H	1.988615	-0.376684	-0.023353
H60	H	2.044287	-0.489191	-0.071615
C61	C	2.270086	-0.504010	0.142065
C62	C	2.203237	-0.427847	0.079806
H63	H	2.368899	-0.497324	0.174421
H64	H	2.215610	-0.520290	0.234399
H65	H	2.271104	-0.546084	0.059588
H66	H	2.202203	-0.385777	0.162289
H67	H	2.257716	-0.411560	-0.012514
O68	O	1.759171	-0.295442	0.294594
C69	C	1.863953	-0.256507	0.388093
H70	H	1.957261	-0.239349	0.304562
H71	H	1.911517	-0.301559	0.487644
C72	C	1.673513	-0.197370	0.571179
C73	C	1.788109	-0.176290	0.468582
H74	H	1.626730	-0.147891	0.620836
H75	H	1.602919	-0.223604	0.508192
H76	H	1.713167	-0.234915	0.654124
H77	H	1.748452	-0.138755	0.385628
H78	H	1.858695	-0.150048	0.531558
O79	O	1.506443	-0.280484	0.133608
C80	C	1.358498	-0.300323	0.126555
H81	H	1.352041	-0.358135	0.045984
H82	H	1.285377	-0.245020	0.072278
C83	C	1.312321	-0.247600	0.399966
C84	C	1.304392	-0.318610	0.301019
H85	H	1.278942	-0.258877	0.507583
H86	H	1.411993	-0.234231	0.404717
H87	H	1.251387	-0.201521	0.354716
H88	H	1.365339	-0.364685	0.346258
H89	H	1.204729	-0.331988	0.296280
H90	H	1.514644	-0.429866	0.110649
H91	H	1.762813	-0.444279	0.272783
H92	H	1.945070	-0.313833	0.161817
