data_functionalizedCrystal
_audit_creation_method	'MofGen! by Chris Wilmer'
_symmetry_space_group_name_H-M	'P1'
_symmetry_Int_Tables_number	1
_symmetry_cell_setting	triclinic
loop_
_symmetry_equiv_pos_as_xyz
  x,y,z
_cell_length_a	10.654546
_cell_length_b	12.996460
_cell_length_c	10.654551
_cell_angle_alpha	90.003302
_cell_angle_beta	95.515557
_cell_angle_gamma	89.987210
loop_
_atom_site_label
_atom_site_type_symbol
_atom_site_fract_x
_atom_site_fract_y
_atom_site_fract_z
O1	O	-1.667846	0.085733	0.176381
O2	O	-1.302367	0.085696	0.193191
O3	O	-1.493509	0.085716	0.002047
O4	O	-1.476704	0.085713	0.367525
O5	O	-1.493489	-0.085418	0.002036
O6	O	-1.302347	-0.085438	0.193180
O7	O	-1.667826	-0.085401	0.176370
Cu8	Cu	-1.485085	-0.101045	0.184774
Cu9	Cu	-1.485109	0.101340	0.184787
O10	O	-1.476684	-0.085421	0.367514
C11	C	-1.255559	0.000125	0.191953
C12	C	-1.116116	0.000111	0.188262
C13	C	-1.036630	0.000121	0.300805
C14	C	-0.905609	0.000132	0.297330
C15	C	-0.933572	0.000127	0.068760
C16	C	-1.064590	0.000109	0.072236
C17	C	-1.088156	0.000124	0.416831
C18	C	-1.008669	0.000135	0.529382
C19	C	-0.877648	0.000146	0.525907
C20	C	-0.826114	0.000145	0.409881
N21	N	-1.485077	-0.243392	0.184765
C22	C	-1.485107	-0.663207	0.184788
C23	C	-1.485095	-0.546401	0.184786
C24	C	-1.485093	-0.453303	0.184777
C25	C	-1.485079	-0.336491	0.184773
C26	C	-0.714634	0.000159	0.177612
C27	C	-0.854076	0.000140	0.181311
C28	C	-1.492265	0.000151	-0.044757
C29	C	-1.488572	0.000158	-0.184200
N30	N	-1.485126	0.243687	0.184787
C31	C	-1.486851	0.093441	-0.249706
C32	C	-1.483371	0.093436	-0.380726
C33	C	-1.483339	-0.093144	-0.380723
C34	C	-1.486810	-0.093138	-0.249704
C35	C	-1.488614	0.186736	-0.184201
C36	C	-1.486894	0.280027	-0.249707
C37	C	-1.483414	0.280022	-0.380728
C38	C	-1.481653	0.186726	-0.446242
C39	C	-1.477928	0.000146	0.414318
C40	C	-1.481621	0.000146	0.553761
H41	H	-1.129310	0.000103	-0.019406
H42	H	-1.488315	0.355985	-0.196356
C43	C	-1.481524	0.382634	-0.452782
H44	H	-1.483081	0.438194	-0.395002
H45	H	-1.407062	0.386513	-0.494953
H46	H	-1.553290	0.386509	-0.512833
H47	H	-1.488184	-0.169097	-0.196365
C48	C	-1.065352	0.000134	0.657000
H49	H	-1.154766	0.000136	0.642954
H50	H	-1.038113	-0.059540	0.703390
H51	H	-1.038158	0.059824	0.703384
C52	C	-1.477791	0.186722	-0.590357
H53	H	-1.477013	0.255640	-0.619990
H54	H	-1.403884	0.152259	-0.611030
H55	H	-1.550110	0.152276	-0.628961
H56	H	-1.491451	0.186751	-0.077518
H57	H	-1.194838	0.000120	0.419673
C58	C	-1.481416	-0.195758	-0.452787
H59	H	-1.479114	-0.182401	-0.540201
H60	H	-1.408873	-0.234098	-0.422378
H61	H	-1.555100	-0.234078	-0.440256
C62	C	-0.790211	0.000155	0.649702
H63	H	-0.704800	0.000155	0.631019
H64	H	-0.805966	0.059833	0.697228
H65	H	-0.805914	-0.059531	0.697227
C66	C	-0.681993	0.000161	0.406060
H67	H	-0.642032	0.000172	0.489704
H68	H	-0.657485	-0.059511	0.363061
H69	H	-0.657550	0.059853	0.363073
C70	C	-0.876886	0.000141	-0.058856
H71	H	-0.787471	0.000164	-0.044807
H72	H	-0.904069	-0.059537	-0.105254
H73	H	-0.904132	0.059826	-0.105233
