data_functionalizedCrystal
_audit_creation_method	'MofGen! by Chris Wilmer'
_symmetry_space_group_name_H-M	'P1'
_symmetry_Int_Tables_number	1
_symmetry_cell_setting	triclinic
loop_
_symmetry_equiv_pos_as_xyz
  x,y,z
_cell_length_a	15.944493
_cell_length_b	15.944551
_cell_length_c	9.616153
_cell_angle_alpha	89.996788
_cell_angle_beta	89.993701
_cell_angle_gamma	83.486891
loop_
_atom_site_label
_atom_site_type_symbol
_atom_site_fract_x
_atom_site_fract_y
_atom_site_fract_z
O1	O	1.114558	0.108097	-0.115630
O2	O	0.870001	0.121504	-0.115637
O3	O	0.998958	-0.007476	-0.115621
O4	O	0.985601	0.237076	-0.115646
O5	O	0.998940	-0.007473	0.115670
O6	O	0.869984	0.121507	0.115654
O7	O	1.114540	0.108100	0.115661
Zn8	Zn	0.992259	0.114804	0.152380
Zn9	Zn	0.992282	0.114800	-0.152356
O10	O	0.985584	0.237079	0.115645
C11	C	0.838698	0.120957	0.000008
C12	C	0.745449	0.119314	0.000005
C13	C	0.998395	-0.038768	0.000025
C14	C	0.996732	-0.132014	0.000026
C15	C	0.509689	0.195235	-0.000004
C16	C	0.459122	0.154295	0.114045
C17	C	0.574728	0.116270	0.000008
C18	C	0.459144	0.154274	-0.113990
C19	C	0.409819	0.113336	0.000005
C20	C	0.525389	0.075352	0.114151
C21	C	0.525415	0.075342	-0.113986
C22	C	0.474880	0.034345	0.000091
C23	C	0.669728	0.117963	0.000011
C24	C	0.314821	0.111637	0.000012
C25	C	0.912826	-0.346853	0.000004
C26	C	0.951780	-0.407877	0.114046
C27	C	0.993725	-0.302739	0.000015
C28	C	0.951817	-0.407864	-0.113989
C29	C	0.990814	-0.467651	-0.000002
C30	C	1.032702	-0.362535	0.114151
C31	C	1.032727	-0.362515	-0.113987
C32	C	1.071741	-0.423521	0.000083
C33	C	0.995399	-0.207737	0.000026
C34	C	0.989146	-0.562652	-0.000002
C35	C	1.145844	0.108646	0.000013
C36	C	1.239092	0.110289	0.000007
C37	C	0.986147	0.268372	-0.000004
C38	C	0.987809	0.361617	-0.000014
N39	N	0.992249	0.114806	0.360355
N40	N	0.992299	0.114791	-0.360331
C41	C	0.923060	0.183574	0.580716
C42	C	0.923208	0.183828	0.419548
C43	C	1.079898	0.133936	0.418804
C44	C	1.079520	0.134422	0.580022
C45	C	0.974667	0.026675	0.580275
C46	C	0.972646	0.027266	0.419048
H47	H	0.430177	0.187644	0.210456
H48	H	0.917596	-0.427934	-0.210410
C49	C	1.078924	-0.335322	-0.244233
C50	C	1.089616	-0.241561	-0.267385
C51	C	1.135806	-0.214365	-0.397644
C52	C	1.171305	-0.280931	-0.504752
C53	C	1.160614	-0.374699	-0.481603
C54	C	1.114424	-0.401894	-0.351344
H55	H	1.063338	-0.192279	-0.188095
H56	H	1.143720	-0.144952	-0.414780
H57	H	1.205497	-0.260799	-0.601177
H58	H	1.186893	-0.423980	-0.560893
H59	H	1.106510	-0.471308	-0.334208
H60	H	0.430213	0.187637	-0.210396
C61	C	0.564314	0.030339	0.244550
C62	C	0.660319	0.023634	0.268679
C63	C	0.699245	-0.021375	0.399077
C64	C	0.642166	-0.059679	0.505347
C65	C	0.546156	-0.052976	0.481222
C66	C	0.507230	-0.007967	0.350823
H67	H	0.702577	0.051990	0.190008
H68	H	0.770318	-0.026337	0.416936
H69	H	0.670982	-0.092997	0.601876
H70	H	0.503898	-0.081332	0.559892
H71	H	0.436157	-0.003005	0.332964
C72	C	0.454056	-0.057637	0.000107
C73	C	0.484169	-0.117050	0.120784
C74	C	0.463380	-0.209042	0.120771
C75	C	0.412478	-0.241621	0.000082
C76	C	0.382361	-0.182207	-0.120604
C77	C	0.403150	-0.090215	-0.120592
H78	H	0.521853	-0.092934	0.210133
H79	H	0.485674	-0.253024	0.210111
H80	H	0.397088	-0.309719	0.000072
H81	H	0.344678	-0.206323	-0.209954
H82	H	0.380856	-0.046233	-0.209932
H83	H	0.934463	0.249219	0.380962
H84	H	0.857703	0.172363	0.619527
H85	H	1.025160	-0.024510	0.618397
C86	C	0.822114	-0.301831	0.000147
C87	C	0.761325	-0.317185	-0.119236
C88	C	0.670616	-0.272161	-0.119086
C89	C	0.640697	-0.211784	0.000447
C90	C	0.701487	-0.196427	0.119838
C91	C	0.792196	-0.241451	0.119688
H92	H	0.783472	-0.361882	-0.207729
H93	H	0.625616	-0.283530	-0.207468
H94	H	0.573549	-0.178455	0.000558
H95	H	0.679340	-0.151730	0.208331
H96	H	0.837196	-0.230082	0.208070
C97	C	0.530812	0.287118	0.000130
C98	C	0.500928	0.346521	0.120941
C99	C	0.522053	0.438402	0.121082
C100	C	0.573061	0.470879	0.000411
C101	C	0.602948	0.411476	-0.120409
C102	C	0.581824	0.319595	-0.120550
H103	H	0.463166	0.322480	0.210276
H104	H	0.499928	0.482376	0.210521
H105	H	0.588699	0.538895	0.000515
H106	H	0.640710	0.435517	-0.209745
H107	H	0.603948	0.275621	-0.209990
H108	H	0.917556	-0.427977	0.210457
H109	H	1.095800	0.197467	0.378408
C110	C	1.162531	-0.468346	0.000162
C111	C	1.223236	-0.452878	-0.119309
C112	C	1.314024	-0.497705	-0.119225
C113	C	1.344108	-0.557998	0.000330
C114	C	1.283402	-0.573469	0.119810
C115	C	1.192614	-0.528642	0.119725
H116	H	1.200967	-0.408242	-0.207819
H117	H	1.358962	-0.486252	-0.207672
H118	H	1.411315	-0.591182	0.000393
H119	H	1.305670	-0.618104	0.208319
H120	H	1.147675	-0.540095	0.208173
C121	C	0.938092	0.271425	0.635325
C122	C	1.012900	0.280925	0.733127
C123	C	1.027953	0.368779	0.787698
C124	C	0.968198	0.447134	0.744467
C125	C	0.893386	0.437637	0.646660
C126	C	0.878333	0.349783	0.592088
H127	H	1.057138	0.222919	0.765134
H128	H	1.083334	0.375809	0.860102
H129	H	0.979341	0.512169	0.784864
H130	H	0.849147	0.495642	0.614653
H131	H	0.822951	0.342753	0.519685
H132	H	0.912147	0.008275	0.621012
H133	H	0.554368	0.042018	-0.210403
H134	H	1.019795	-0.026314	0.378760
C135	C	1.100503	0.221236	0.630804
C136	C	1.178711	0.227500	0.722523
C137	C	1.199693	0.314317	0.773295
C138	C	1.142465	0.394869	0.732348
C139	C	1.064251	0.388607	0.640624
C140	C	1.043270	0.301791	0.589852
H141	H	1.221079	0.167868	0.752839
H142	H	1.257592	0.318951	0.841196
H143	H	1.157997	0.459135	0.769933
H144	H	1.021884	0.448239	0.610308
H145	H	0.985371	0.297156	0.521951
H146	H	1.066883	-0.342551	0.210670
H147	H	0.858058	0.172431	0.380033
H148	H	1.132652	0.086299	0.619017
H149	H	1.132647	0.085172	0.380458
H150	H	0.908171	0.012748	0.380848
