data_functionalizedCrystal
_audit_creation_method	'MofGen! by Chris Wilmer'
_symmetry_space_group_name_H-M	'P1'
_symmetry_Int_Tables_number	1
_symmetry_cell_setting	triclinic
loop_
_symmetry_equiv_pos_as_xyz
  x,y,z
_cell_length_a	29.839134
_cell_length_b	18.101395
_cell_length_c	18.101389
_cell_angle_alpha	90.016841
_cell_angle_beta	89.971270
_cell_angle_gamma	89.974035
loop_
_atom_site_label
_atom_site_type_symbol
_atom_site_fract_x
_atom_site_fract_y
_atom_site_fract_z
Zn1	Zn	0.686782	0.295009	-0.418934
Zn2	Zn	1.186782	0.795009	0.081066
Zn3	Zn	0.686719	0.418834	-0.295096
Zn4	Zn	1.186719	0.918834	0.204904
Zn5	Zn	0.611656	0.295000	-0.295085
Zn6	Zn	1.111656	0.795000	0.204915
Zn7	Zn	0.611626	0.418802	-0.418875
Zn8	Zn	1.111626	0.918802	0.081125
O9	O	0.649195	0.356911	-0.356997
O10	O	1.149195	0.856911	0.143003
O11	O	0.749640	0.311452	-0.402535
O12	O	1.249640	0.811452	0.097465
O13	O	0.676747	0.402418	-0.191461
O14	O	1.176747	0.902418	0.308539
O15	O	0.621660	0.191368	-0.311535
O16	O	1.121660	0.691368	0.188465
O17	O	0.749594	0.402426	-0.311552
O18	O	1.249594	0.902426	0.188448
O19	O	0.676855	0.191375	-0.402526
O20	O	1.176855	0.691375	0.097474
O21	O	0.621599	0.311437	-0.191454
O22	O	1.121599	0.811437	0.308546
O23	O	0.548785	0.311406	-0.311477
O24	O	1.048785	0.811406	0.188523
O25	O	0.621609	0.402370	-0.522516
O26	O	1.121609	0.902370	-0.022516
O27	O	0.548763	0.402362	-0.402425
O28	O	1.048763	0.902362	0.097575
O29	O	0.676826	0.311420	-0.522559
O30	O	1.176826	0.811420	-0.022559
O31	O	0.676718	0.522463	-0.311495
O32	O	1.176718	1.022463	0.188505
O33	O	0.621548	0.522439	-0.402435
O34	O	1.121548	1.022439	0.097565
C35	C	0.532473	0.356880	-0.356944
C36	C	1.032473	0.856880	0.143056
C37	C	0.482538	0.356884	-0.356939
C38	C	0.982538	0.856884	0.143061
C39	C	0.649135	0.549322	-0.356976
C40	C	1.149135	1.049322	0.143024
C41	C	0.649151	0.631636	-0.356991
C42	C	1.149151	1.131636	0.143009
C43	C	0.649221	0.356893	-0.550159
C44	C	1.149221	0.856893	-0.050159
C45	C	0.649232	0.356885	-0.632474
C46	C	1.149232	0.856885	-0.132474
C47	C	0.172893	0.404342	-0.404296
C48	C	0.672893	0.904342	0.095704
C49	C	-0.014780	0.404363	-0.404329
C50	C	0.485220	0.904363	0.095671
O51	O	-0.039046	0.444679	-0.444562
O52	O	0.460954	0.944679	0.055438
N53	N	-0.038247	0.356938	-0.357053
N54	N	0.461753	0.856938	0.142947
C55	C	-0.014792	0.309502	-0.309770
C56	C	0.485208	0.809502	0.190230
O57	O	-0.039058	0.269159	-0.269565
O58	O	0.460942	0.769159	0.230435
C59	C	0.172880	0.309478	-0.309741
C60	C	0.672880	0.809478	0.190259
C61	C	0.196344	0.356911	-0.357014
C62	C	0.696344	0.856911	0.142986
C63	C	0.196357	0.451771	-0.451566
C64	C	0.696357	0.951771	0.048434
C65	C	0.243273	0.451768	-0.451554
C66	C	0.743273	0.951768	0.048446
C67	C	0.266724	0.404337	-0.404273
C68	C	0.766724	0.904337	0.095727
C69	C	0.243260	0.356908	-0.357003
C70	C	0.743260	0.856908	0.142997
C71	C	0.196334	0.262038	-0.262462
C72	C	0.696334	0.762038	0.237538
C73	C	0.243255	0.262034	-0.262460
C74	C	0.743255	0.762034	0.237540
C75	C	0.266719	0.309468	-0.309733
C76	C	0.766719	0.809468	0.190267
C77	C	0.313626	0.309473	-0.309709
C78	C	0.813626	0.809473	0.190291
N79	N	0.337093	0.356898	-0.356985
N80	N	0.837093	0.856898	0.143015
C81	C	0.313642	0.404330	-0.404267
C82	C	0.813642	0.904330	0.095733
C83	C	-0.113323	0.309519	-0.309787
C84	C	0.386677	0.809519	0.190213
C85	C	-0.160241	0.309525	-0.309793
C86	C	0.339759	0.809525	0.190207
C87	C	-0.160225	0.404386	-0.404353
C88	C	0.339775	0.904386	0.095647
C89	C	-0.113306	0.404383	-0.404343
C90	C	0.386694	0.904383	0.095657
C91	C	-0.089856	0.356943	-0.357062
C92	C	0.410144	0.856943	0.142938
C93	C	0.412168	0.404321	-0.404238
C94	C	0.912168	0.904321	0.095762
C95	C	0.459087	0.404316	-0.404220
C96	C	0.959087	0.904316	0.095780
C97	C	0.459068	0.309453	-0.309663
C98	C	0.959068	0.809453	0.190337
C99	C	0.412152	0.309460	-0.309678
C100	C	0.912152	0.809460	0.190322
C101	C	0.388703	0.356896	-0.356971
C102	C	0.888703	0.856896	0.143029
O103	O	0.337922	0.269173	-0.269503
O104	O	0.837922	0.769173	0.230497
O105	O	0.337916	0.444655	-0.444477
O106	O	0.837916	0.944655	0.055523
C107	C	0.125978	0.404345	-0.404307
C108	C	0.625978	0.904345	0.095693
C109	C	0.102513	0.356917	-0.357037
C110	C	0.602513	0.856917	0.142963
C111	C	0.125965	0.309485	-0.309756
C112	C	0.625965	0.809485	0.190244
C113	C	0.055596	0.356923	-0.357043
C114	C	0.555596	0.856923	0.142957
C115	C	0.032144	0.404355	-0.404325
C116	C	0.532144	0.904355	0.095675
C117	C	0.055611	0.451780	-0.451600
C118	C	0.555611	0.951780	0.048400
C119	C	0.102527	0.451777	-0.451589
C120	C	0.602527	0.951777	0.048411
C121	C	0.102498	0.262060	-0.262480
C122	C	0.602498	0.762060	0.237520
C123	C	0.055582	0.262067	-0.262495
C124	C	0.555582	0.762067	0.237505
C125	C	0.032131	0.309499	-0.309777
C126	C	0.532131	0.809499	0.190223
C127	C	0.766374	0.356943	-0.357052
C128	C	1.266374	0.856943	0.142948
C129	C	0.816308	0.356957	-0.357075
C130	C	1.316308	0.856957	0.142925
C131	C	0.649268	0.163749	-0.357036
C132	C	1.149268	0.663749	0.142964
C133	C	0.649299	0.081435	-0.357052
C134	C	1.149299	0.581435	0.142948
C135	C	0.649249	0.930727	-0.357031
C136	C	1.149249	1.430727	0.142969
C137	C	0.614618	0.899418	-0.414390
C138	C	1.114618	1.399418	0.085610
C139	C	0.614454	0.813800	-0.414211
C140	C	1.114454	1.313800	0.085789
C141	C	0.649200	0.782344	-0.357012
C142	C	1.149200	1.282344	0.142988
C143	C	0.636383	0.813480	-0.278959
C144	C	1.136383	1.313480	0.221041
C145	C	0.636160	0.899125	-0.279302
C146	C	1.136160	1.399125	0.220698
C147	C	0.696774	0.899081	-0.377038
C148	C	1.196774	1.399081	0.122962
C149	C	0.696495	0.813430	-0.378750
C150	C	1.196495	1.313430	0.121250
C151	C	0.649174	0.698485	-0.356996
C152	C	1.149174	1.198485	0.143004
C153	C	0.649275	1.014586	-0.357041
C154	C	1.149275	1.514586	0.142959
C155	C	0.649259	0.356746	-0.931565
C156	C	1.149259	0.856746	-0.431565
C157	C	0.614398	0.413787	-0.900212
C158	C	1.114398	0.913787	-0.400212
C159	C	0.614492	0.414052	-0.814594
C160	C	1.114492	0.914052	-0.314594
C161	C	0.649245	0.356815	-0.783182
C162	C	1.149245	0.856815	-0.283182
C163	C	0.696578	0.378006	-0.814294
C164	C	1.196578	0.878006	-0.314294
C165	C	0.696384	0.378380	-0.899939
C166	C	1.196384	0.878380	-0.399939
C167	C	0.637198	0.278386	-0.899985
C168	C	1.137198	0.778386	-0.399985
C169	C	0.636145	0.278839	-0.814334
C170	C	1.136145	0.778839	-0.314334
C171	C	0.649241	0.356852	-0.699323
C172	C	1.149241	0.856852	-0.199323
C173	C	0.649266	0.356710	-1.015424
C174	C	1.149266	0.856710	-0.515424
C175	C	0.649195	0.356877	-0.164587
C176	C	1.149195	0.856877	0.335413
C177	C	0.649271	0.356676	-0.082273
C178	C	1.149271	0.856676	0.417727
H179	H	0.478190	0.442944	-0.442716
H180	H	0.978190	0.942944	0.057284
H181	H	0.603283	0.259081	-0.921566
H182	H	1.103283	0.759081	-0.421566
H183	H	0.121627	0.490402	-0.490084
H184	H	0.621627	0.990402	0.009916
C185	C	0.625286	0.785357	-0.492398
C186	C	1.125286	1.285357	0.007602
N187	N	0.633442	0.763938	-0.551293
N188	N	1.133442	1.263938	-0.051293
C189	C	0.029777	0.209881	-0.210489
C190	C	0.529777	0.709881	0.289511
N191	N	0.010342	0.170570	-0.171325
N192	N	0.510342	0.670570	0.328675
H193	H	0.706608	0.435662	-0.919926
H194	H	1.206608	0.935662	-0.419926
H195	H	0.723238	0.338638	-0.920682
H196	H	1.223238	0.838638	-0.420682
C197	C	0.170533	0.209848	-0.210464
C198	C	0.670533	0.709848	0.289536
N199	N	0.151102	0.170532	-0.171300
N200	N	0.651102	0.670532	0.328700
H201	H	0.706160	0.793079	-0.436193
H202	H	1.206160	1.293079	0.063807
C203	C	0.386381	0.456509	-0.456258
C204	C	0.886381	0.956509	0.043742
N205	N	0.366958	0.495822	-0.495435
N206	N	0.866958	0.995822	0.004565
H207	H	0.579227	0.793369	-0.400957
H208	H	1.079227	1.293369	0.099043
C209	C	0.386341	0.257287	-0.257670
C210	C	0.886341	0.757287	0.242330
N211	N	0.366903	0.217984	-0.218501
N212	N	0.866903	0.717984	0.281499
H213	H	0.662589	0.235888	-0.920263
H214	H	1.162589	0.735888	-0.420263
C215	C	0.732612	0.323647	-0.786808
C216	C	1.232612	0.823647	-0.286808
N217	N	0.759752	0.282703	-0.766102
N218	N	1.259752	0.782703	-0.266102
C219	C	0.668752	0.927109	-0.219590
C220	C	1.168752	1.427109	0.280410
N221	N	0.693298	0.948183	-0.174612
N222	N	1.193298	1.448183	0.325388
C223	C	0.269047	0.209848	-0.210444
C224	C	0.769047	0.709848	0.289556
N225	N	0.288473	0.170544	-0.171263
N226	N	0.788473	0.670544	0.328737
C227	C	-0.087500	0.456558	-0.456351
C228	C	0.412500	0.956558	0.043649
N229	N	-0.068065	0.495857	-0.495527
N230	N	0.431935	0.995857	0.004473
C231	C	0.567316	0.928559	-0.396705
C232	C	1.067316	1.428559	0.103295
N233	N	0.531688	0.950507	-0.383380
N234	N	1.031688	1.450507	0.116620
H235	H	0.660813	0.793105	-0.235056
H236	H	1.160813	1.293105	0.264944
C237	C	0.625341	0.927198	-0.492831
C238	C	1.125341	1.427198	0.007169
N239	N	0.633417	0.948129	-0.551915
N240	N	1.133417	1.448129	-0.051915
H241	H	0.706979	0.434679	-0.792855
H242	H	1.206979	0.934679	-0.292855
H243	H	0.579193	0.400661	-0.920793
H244	H	1.079193	0.900661	-0.420793
H245	H	0.262373	0.490392	-0.490051
H246	H	0.762373	0.990392	0.009949
C247	C	0.484873	0.257272	-0.257665
C248	C	0.984873	0.757272	0.242335
N249	N	0.504311	0.217962	-0.218506
N250	N	1.004311	0.717962	0.281494
C251	C	0.029806	0.503954	-0.503612
C252	C	0.529806	1.003954	-0.003612
N253	N	0.010367	0.543245	-0.542788
N254	N	0.510367	1.043245	-0.042788
H255	H	0.602010	0.792087	-0.261709
H256	H	1.102010	1.292087	0.238291
H257	H	0.601419	0.919160	-0.262356
H258	H	1.101419	1.419160	0.237644
H259	H	0.601312	0.262859	-0.793997
H260	H	1.101312	0.762859	-0.293997
H261	H	0.121587	0.223435	-0.223977
H262	H	0.621587	0.723435	0.276023
H263	H	0.708460	0.920641	-0.432985
H264	H	1.208460	1.420641	0.067015
H265	H	0.723661	0.792015	-0.340018
H266	H	1.223661	1.292015	0.159982
H267	H	0.659683	0.234083	-0.792952
H268	H	1.159683	0.734083	-0.292952
H269	H	0.722575	0.919327	-0.335262
H270	H	1.222575	1.419327	0.164738
H271	H	0.579393	0.400790	-0.793556
H272	H	1.079393	0.900790	-0.293556
H273	H	0.622282	0.471515	-0.921740
H274	H	1.122282	0.971515	-0.421740
C275	C	0.625242	0.492522	-0.786923
C276	C	1.125242	0.992522	-0.286923
N277	N	0.633329	0.551633	-0.766083
N278	N	1.133329	1.051633	-0.266083
H279	H	0.177268	0.490396	-0.490072
H280	H	0.677268	0.990396	0.009928
H281	H	-0.179341	0.270908	-0.271291
H282	H	0.320659	0.770908	0.228709
C283	C	-0.186030	0.456557	-0.456368
C284	C	0.313970	0.956557	0.043632
N285	N	-0.205469	0.495846	-0.495547
N286	N	0.294531	0.995846	0.004453
H287	H	-0.094234	0.270887	-0.271282
H288	H	0.405766	0.770887	0.228718
