data_functionalizedCrystal
_audit_creation_method	'MofGen! by Chris Wilmer'
_symmetry_space_group_name_H-M	'P1'
_symmetry_Int_Tables_number	1
_symmetry_cell_setting	triclinic
loop_
_symmetry_equiv_pos_as_xyz
  x,y,z
_cell_length_a	29.917948
_cell_length_b	29.917021
_cell_length_c	29.913391
_cell_angle_alpha	60.005297
_cell_angle_beta	60.010472
_cell_angle_gamma	59.993667
loop_
_atom_site_label
_atom_site_type_symbol
_atom_site_fract_x
_atom_site_fract_y
_atom_site_fract_z
O1	O	0.061938	-0.653075	0.546110
O2	O	0.561938	-0.153075	1.046110
O3	O	0.023328	-0.508466	0.440017
O4	O	0.523328	-0.008466	0.940017
O5	O	0.114898	-0.599963	0.439941
O6	O	0.614898	-0.099963	0.939941
O7	O	-0.029633	-0.561578	0.546186
O8	O	0.470367	-0.061578	1.046186
O9	O	0.145278	-0.569587	0.470242
O10	O	0.645278	-0.069587	0.970242
O11	O	0.053708	-0.478090	0.470318
O12	O	0.553708	0.021910	0.970318
O13	O	0.092318	-0.622699	0.576411
O14	O	0.592318	-0.122699	1.076411
Zn15	Zn	0.077836	-0.545572	0.528175
Zn16	Zn	0.577836	-0.045572	1.028175
Zn17	Zn	0.037809	-0.585593	0.488253
Zn18	Zn	0.537809	-0.085593	0.988253
O19	O	0.000747	-0.531202	0.576487
O20	O	0.500747	-0.031202	1.076487
N21	N	0.105154	-0.518262	0.555424
N22	N	0.605154	-0.018262	1.055424
N23	N	0.010496	-0.612908	0.461004
N24	N	0.510496	-0.112908	0.961004
C25	C	0.164136	-0.309209	0.614352
C26	C	0.664136	0.190791	1.114352
C27	C	0.164251	-0.459335	0.764424
C28	C	0.664251	0.040665	1.264424
C29	C	0.164150	-0.459313	0.614341
C30	C	0.664150	0.040687	1.114341
C31	C	0.314282	-0.459305	0.614278
C32	C	0.814282	0.040695	1.114278
C33	C	0.180666	-0.358742	0.630849
C34	C	0.680666	0.141258	1.130849
C35	C	0.180732	-0.442815	0.714891
C36	C	0.680732	0.057185	1.214891
C37	C	0.264747	-0.442797	0.630809
C38	C	0.764747	0.057203	1.130809
C39	C	0.180676	-0.442802	0.630843
C40	C	0.680676	0.057198	1.130843
C41	C	0.143097	-0.246161	0.593354
C42	C	0.643097	0.253839	1.093354
C43	C	0.143120	-0.480326	0.593337
C44	C	0.643120	0.019674	1.093337
C45	C	0.201706	-0.421790	0.651848
C46	C	0.701706	0.078210	1.151848
C47	C	0.405963	-0.443499	0.565998
C48	C	0.905963	0.056501	1.065998
C49	C	0.463273	-0.462598	0.546874
C50	C	0.963273	0.037402	1.046874
C51	C	0.463297	-0.555329	0.582235
C52	C	0.963297	-0.055329	1.082235
C53	C	0.405988	-0.536228	0.601360
C54	C	0.905988	-0.036228	1.101360
C55	C	0.156905	-0.217495	0.537012
C56	C	0.656905	0.282505	1.037012
C57	C	0.137776	-0.160180	0.517926
C58	C	0.637776	0.339820	1.017926
C59	C	0.091035	-0.160201	0.611524
C60	C	0.591035	0.339799	1.111524
C61	C	0.110164	-0.217516	0.630611
C62	C	0.610164	0.282484	1.130611
C63	C	0.086772	-0.466488	0.607209
C64	C	0.586772	0.033512	1.107209
C65	C	0.067659	-0.485590	0.588108
C66	C	0.567659	0.014410	1.088108
C67	C	0.161236	-0.532368	0.541277
C68	C	0.661236	-0.032368	1.041277
C69	C	0.180352	-0.513266	0.560371
C70	C	0.680352	-0.013266	1.060371
C71	C	0.086942	-0.466529	0.856152
C72	C	0.586942	0.033471	1.356152
C73	C	0.067877	-0.485647	0.913465
C74	C	0.567877	0.014353	1.413465
C75	C	0.161489	-0.532436	0.913415
C76	C	0.661489	-0.032436	1.413415
C77	C	0.180552	-0.513318	0.856101
C78	C	0.680552	-0.013318	1.356101
C79	C	0.143277	-0.480363	0.827471
C80	C	0.643277	0.019637	1.327471
C81	C	0.377323	-0.480313	0.593239
C82	C	0.877323	0.019687	1.093239
C83	C	-0.111377	-0.650681	0.422736
C84	C	0.388623	-0.150681	0.922736
C85	C	-0.027364	-0.650787	0.422929
C86	C	0.472636	-0.150787	0.922929
C87	C	-0.048335	-0.671770	0.401835
C88	C	0.451665	-0.171770	0.901835
C89	C	-0.064214	-0.763416	0.450041
C90	C	0.435786	-0.263416	0.950041
C91	C	-0.045160	-0.820731	0.469172
C92	C	0.454840	-0.320731	0.969172
C93	C	0.047573	-0.820841	0.433980
C94	C	0.547573	-0.320841	0.933980
C95	C	0.028517	-0.763527	0.414847
C96	C	0.528517	-0.263527	0.914847
C97	C	-0.140115	-0.664483	0.479060
C98	C	0.359885	-0.164483	0.979060
C99	C	-0.197425	-0.645309	0.498058
C100	C	0.302575	-0.145309	0.998058
C101	C	-0.197256	-0.598535	0.404405
C102	C	0.302744	-0.098535	0.904405
C103	C	-0.139946	-0.617709	0.385407
C104	C	0.360054	-0.117709	0.885407
C105	C	-0.041168	-0.594444	0.409067
C106	C	0.458832	-0.094444	0.909067
C107	C	-0.022104	-0.575374	0.428250
C108	C	0.477896	-0.075374	0.928250
C109	C	0.024568	-0.668986	0.475143
C110	C	0.524568	-0.168986	0.975143
C111	C	0.005504	-0.688059	0.455967
C112	C	0.505504	-0.188059	0.955967
C113	C	-0.041000	-0.594453	0.310105
C114	C	0.459000	-0.094453	0.810105
C115	C	-0.021803	-0.575386	0.252792
C116	C	0.478197	-0.075386	0.752792
C117	C	0.024951	-0.669004	0.252854
C118	C	0.524951	-0.169004	0.752854
C119	C	0.005755	-0.688070	0.310168
C120	C	0.505755	-0.188070	0.810168
C121	C	-0.027222	-0.650793	0.338792
C122	C	0.472778	-0.150793	0.838792
C123	C	-0.027377	-0.734817	0.422881
C124	C	0.472623	-0.234817	0.922881
N125	N	0.491125	-0.518235	0.555255
N126	N	0.991125	-0.018235	1.055255
O127	O	0.678406	-0.527360	0.420422
O128	O	1.178406	-0.027360	0.920422
O129	O	0.678588	-0.633782	0.564887
O130	O	1.178588	-0.133782	1.064887
O131	O	0.678516	-0.633539	0.473265
O132	O	1.178516	-0.133539	0.973265
O133	O	0.678478	-0.527602	0.512044
O134	O	1.178478	-0.027602	1.012044
O135	O	0.587469	-0.603251	0.503685
O136	O	1.087469	-0.103251	1.003685
O137	O	0.587541	-0.603493	0.595307
O138	O	1.087541	-0.103493	1.095307
O139	O	0.587359	-0.497071	0.450842
O140	O	1.087359	0.002929	0.950842
Zn141	Zn	0.572994	-0.545473	0.527905
Zn142	Zn	1.072994	-0.045473	1.027905
Zn143	Zn	0.692953	-0.585380	0.487825
Zn144	Zn	1.192953	-0.085380	0.987825
O145	O	0.587431	-0.497313	0.542465
O146	O	1.087431	0.002687	1.042465
N147	N	0.774821	-0.612618	0.460470
N148	N	1.274821	-0.112618	0.960470
N149	N	0.105125	-0.132348	0.555445
N150	N	0.605125	0.367652	1.055445
O151	O	-0.029633	0.055031	0.546198
O152	O	0.470367	0.555031	1.046198
O153	O	0.114837	0.055047	0.439777
O154	O	0.614837	0.555047	0.939777
O155	O	0.023189	0.055024	0.440050
O156	O	0.523189	0.555024	0.940050
O157	O	0.062016	0.055054	0.545925
O158	O	0.562016	0.555054	1.045925
O159	O	0.053572	-0.036031	0.470398
O160	O	0.553572	0.463969	0.970398
O161	O	0.145220	-0.036008	0.470125
O162	O	0.645220	0.463992	0.970125
O163	O	0.000750	-0.036024	0.576546
O164	O	0.500750	0.463976	1.076546
Zn165	Zn	0.077809	-0.050473	0.528154
Zn166	Zn	0.577809	0.449527	1.028154
Zn167	Zn	0.037778	0.069496	0.488169
Zn168	Zn	0.537778	0.569496	0.988169
O169	O	0.092399	-0.036001	0.576273
O170	O	0.592399	0.463999	1.076273
N171	N	0.010456	0.151371	0.460879
N172	N	0.510456	0.651371	0.960879
N173	N	0.105414	-0.518315	0.941279
N174	N	0.605414	-0.018315	1.441279
O175	O	0.096182	-0.653057	1.128644
O176	O	0.596182	-0.153057	1.628644
O177	O	-0.010215	-0.508539	1.128670
O178	O	0.489785	-0.008539	1.628670
O179	O	-0.009968	-0.600172	1.128636
O180	O	0.490032	-0.100172	1.628636
O181	O	0.095935	-0.561424	1.128678
O182	O	0.595935	-0.061424	1.628678
O183	O	0.020367	-0.569808	1.037586
O184	O	0.520367	-0.069808	1.537586
O185	O	0.020121	-0.478175	1.037620
O186	O	0.520121	0.021825	1.537620
O187	O	0.126517	-0.622693	1.037594
O188	O	0.626517	-0.122693	1.537594
Zn189	Zn	0.078135	-0.545613	1.023151
Zn190	Zn	0.578135	-0.045613	1.523151
Zn191	Zn	0.038167	-0.585619	1.143113
Zn192	Zn	0.538167	-0.085619	1.643113
O193	O	0.126270	-0.531061	1.037628
O194	O	0.626270	-0.031061	1.537628
N195	N	0.010887	-0.612923	1.224985
N196	N	0.510887	-0.112923	1.724985
C197	C	0.034899	-0.475056	0.440551
C198	C	0.534899	0.024944	0.940551
C199	C	0.148298	-0.588365	0.440456
C200	C	0.648298	-0.088365	0.940456
C201	C	0.080746	-0.656109	0.575876
C202	C	0.580746	-0.156109	1.075876
C203	C	-0.032653	-0.542801	0.575971
C204	C	0.467347	-0.042801	1.075971
C205	C	0.633086	-0.633292	0.598298
C206	C	1.133086	-0.133292	1.098298
C207	C	0.632998	-0.632993	0.484834
C208	C	1.132998	-0.132993	0.984834
C209	C	0.632857	-0.497559	0.417433
C210	C	1.132857	0.002441	0.917433
C211	C	0.632949	-0.497860	0.530895
C212	C	1.132949	0.002140	1.030895
C213	C	0.148191	0.009634	0.440259
C214	C	0.648191	0.509634	0.940259
C215	C	0.034733	0.009493	0.440634
C216	C	0.534733	0.509493	0.940634
C217	C	-0.032641	0.009502	0.576027
C218	C	0.467359	0.509502	1.076027
C219	C	0.080854	0.009529	0.575690
C220	C	0.580854	0.509529	1.075690
C221	C	-0.009699	-0.475150	1.083148
C222	C	0.490301	0.024850	1.583148
C223	C	-0.009388	-0.588620	1.083088
C224	C	0.490612	-0.088620	1.583088
C225	C	0.126001	-0.656082	1.083116
C226	C	0.626001	-0.156082	1.583116
C227	C	0.125697	-0.542605	1.083155
C228	C	0.625697	-0.042605	1.583155
H229	H	0.056584	-0.439691	0.832846
H230	H	0.556584	0.060309	1.332846
C231	C	0.023763	-0.418942	0.395534
C232	C	0.523763	0.081058	0.895534
H233	H	0.055428	-0.418794	0.363694
H234	H	0.555428	0.081206	0.863694
H235	H	-0.006096	-0.412299	0.386999
H236	H	0.493904	0.087701	0.886999
H237	H	0.015097	-0.391115	0.408134
H238	H	0.515097	0.108885	0.908134
H239	H	0.158967	-0.534314	1.083161
H240	H	0.658967	-0.034314	1.583161
C241	C	0.204374	-0.599414	0.395383
C242	C	0.704374	-0.099414	0.895383
H243	H	0.227346	-0.635651	0.408663
H244	H	0.727346	-0.135651	0.908663
H245	H	0.199593	-0.595297	0.364276
H246	H	0.699593	-0.095297	0.864276
H247	H	0.220784	-0.574112	0.385411
H248	H	0.720784	-0.074112	0.885411
C249	C	0.374432	-0.381991	0.557068
C250	C	0.874432	0.118009	1.057068
H251	H	0.399700	-0.362804	0.538110
H252	H	0.899700	0.137196	1.038110
H253	H	0.352057	-0.368546	0.536081
H254	H	0.852057	0.131454	1.036081
H255	H	0.352093	-0.376678	0.591510
H256	H	0.852093	0.123322	1.091510
H257	H	0.088995	-0.697649	0.609197
H258	H	0.588995	-0.197649	1.109197
C259	C	-0.054315	-0.599796	1.083019
C260	C	0.445685	-0.099796	1.583019
H261	H	-0.040930	-0.636045	1.082995
H262	H	0.459070	-0.136045	1.582995
H263	H	-0.085463	-0.595713	1.114759
H264	H	0.414537	-0.095713	1.614759
H265	H	-0.064263	-0.574527	1.051252
H266	H	0.435737	-0.074527	1.551252
H267	H	-0.074166	-0.534620	0.609333
H268	H	0.425834	-0.034620	1.109333
H269	H	0.051792	-0.699362	0.229554
H270	H	0.551792	-0.199362	0.729554
H271	H	-0.043102	-0.433644	1.083156
H272	H	0.456898	0.066356	1.583156
C273	C	0.171129	-0.712150	1.083104
C274	C	0.671129	-0.212150	1.583104
H275	H	0.157907	-0.735152	1.083095
H276	H	0.657907	-0.235152	1.583095
H277	H	0.202236	-0.707356	1.051356
H278	H	0.702236	-0.207356	1.551356
H279	H	0.181077	-0.728537	1.114863
H280	H	0.681077	-0.228537	1.614863
C281	C	0.023509	0.009484	0.395696
C282	C	0.523509	0.509484	0.895696
H283	H	0.055143	0.009490	0.363827
H284	H	0.555143	0.509490	0.863827
H285	H	0.014826	-0.022272	0.408349
H286	H	0.514826	0.477728	0.908349
H287	H	-0.006363	0.041238	0.387183
H288	H	0.493637	0.541238	0.887183
H289	H	0.633132	-0.666701	0.639790
H290	H	1.133132	-0.166701	1.139790
H291	H	0.633014	-0.666272	0.476534
H292	H	1.133014	-0.166272	0.976534
C293	C	0.109055	-0.852428	0.425151
C294	C	0.609055	-0.352428	0.925151
H295	H	0.115126	-0.890659	0.440439
H296	H	0.615126	-0.390659	0.940439
H297	H	0.129090	-0.843065	0.387054
H298	H	0.629090	-0.343065	0.887054
H299	H	0.120876	-0.843053	0.442524
H300	H	0.620876	-0.343053	0.942524
C301	C	-0.125694	-0.731839	0.458868
C302	C	0.374306	-0.231839	0.958868
H303	H	-0.144902	-0.757083	0.477779
H304	H	0.355098	-0.257083	0.977779
H305	H	-0.139168	-0.709467	0.479867
H306	H	0.360832	-0.209467	0.979867
H307	H	-0.130943	-0.709489	0.424397
H308	H	0.369057	-0.209489	0.924397
C309	C	0.005907	-0.470417	0.945007
C310	C	0.505907	0.029583	1.445007
H311	H	-0.013559	-0.448047	0.919744
H312	H	0.486441	0.051953	1.419744
H313	H	-0.003480	-0.502824	0.967363
H314	H	0.496520	-0.002824	1.467363
H315	H	-0.003474	-0.450974	0.967366
H316	H	0.496526	0.049026	1.467366
C317	C	-0.088689	0.009496	0.621163
C318	C	0.411311	0.509496	1.121163
H319	H	-0.111703	0.009491	0.607949
H320	H	0.388297	0.509491	1.107949
H321	H	-0.083876	-0.022254	0.652273
H322	H	0.416124	0.477746	1.152273
H323	H	-0.105068	0.041256	0.631104
H324	H	0.394932	0.541256	1.131104
C325	C	0.632780	-0.452418	0.361388
C326	C	1.132780	0.047582	0.861388
H327	H	0.632755	-0.420628	0.361344
H328	H	1.132755	0.079372	0.861344
H329	H	0.664516	-0.464947	0.333513
H330	H	1.164516	0.035053	0.833513
H331	H	0.601011	-0.443824	0.354737
H332	H	1.101011	0.056176	0.854737
H333	H	0.632941	-0.464583	0.539193
H334	H	1.132941	0.035417	1.039193
H335	H	-0.067926	-0.564092	0.382165
H336	H	0.432074	-0.064092	0.882165
H337	H	0.191844	-0.559260	0.936723
H338	H	0.691844	-0.059260	1.436723
H339	H	0.089168	0.009538	0.608950
H340	H	0.589168	0.509538	1.108950
H341	H	0.226428	-0.524588	0.832752
H342	H	0.726428	-0.024588	1.332752
C343	C	0.204113	0.010009	0.394999
C344	C	0.704113	0.510009	0.894999
H345	H	0.204122	0.010079	0.363200
H346	H	0.704122	0.510079	0.863200
H347	H	0.210592	0.041844	0.386490
H348	H	0.710592	0.541844	0.886490
H349	H	0.232123	-0.021665	0.407381
H350	H	0.732123	0.478335	0.907381
C351	C	0.045819	-0.430250	0.643463
C352	C	0.545819	0.069750	1.143463
H353	H	0.065272	-0.420859	0.652855
H354	H	0.565272	0.079141	1.152855
H355	H	0.023444	-0.397840	0.624033
H356	H	0.523444	0.102160	1.124033
H357	H	0.023479	-0.449702	0.675877
H358	H	0.523479	0.050298	1.175877
C359	C	0.005678	-0.470367	0.603355
C360	C	0.505678	0.029633	1.103355
H361	H	-0.000373	-0.486454	0.587252
H362	H	0.499627	0.013546	1.087252
H363	H	-0.010400	-0.483557	0.642025
H364	H	0.489600	0.016443	1.142025
H365	H	-0.010430	-0.431693	0.590183
H366	H	0.489570	0.068307	1.090183
C367	C	0.202195	-0.568605	0.505017
C368	C	0.702195	-0.068605	1.005017
H369	H	0.238491	-0.574107	0.499491
H370	H	0.738491	-0.074107	0.999491
H371	H	0.196703	-0.602959	0.522512
H372	H	0.696703	-0.102959	1.022512
H373	H	0.196664	-0.551094	0.470671
H374	H	0.696664	-0.051094	0.970671
C375	C	-0.037283	-0.513397	0.413007
C376	C	0.462717	-0.013397	0.913007
H377	H	-0.021226	-0.507378	0.429166
H378	H	0.478774	-0.007378	0.929166
H379	H	-0.024039	-0.497324	0.374340
H380	H	0.475961	0.002676	0.874340
H381	H	-0.075954	-0.497256	0.426121
H382	H	0.424046	0.002744	0.926121
C383	C	0.242333	-0.528485	0.545116
C384	C	0.742333	-0.028485	1.045116
H385	H	0.248386	-0.512387	0.561208
H386	H	0.748386	-0.012387	1.061208
H387	H	0.258446	-0.567155	0.558283
H388	H	0.758446	-0.067155	1.058283
H389	H	0.258404	-0.515290	0.506443
H390	H	0.758404	-0.015290	1.006443
C391	C	0.374488	-0.576726	0.631322
C392	C	0.874488	-0.076726	1.131322
H393	H	0.399772	-0.612761	0.633411
H394	H	0.899772	-0.112761	1.133411
H395	H	0.352148	-0.575271	0.667231
H396	H	0.852148	-0.075271	1.167231
H397	H	0.352116	-0.567137	0.611800
H398	H	0.852116	-0.067137	1.111800
C399	C	-0.229038	-0.660491	0.560017
C400	C	0.270962	-0.160491	1.060017
H401	H	-0.203816	-0.682877	0.579527
H402	H	0.296184	-0.182877	1.079527
H403	H	-0.251395	-0.628070	0.569392
H404	H	0.248605	-0.128070	1.069392
H405	H	-0.251401	-0.679903	0.569357
H406	H	0.248599	-0.179903	1.069357
C407	C	0.494830	-0.616833	0.591162
C408	C	0.994830	-0.116833	1.091162
H409	H	0.533064	-0.622935	0.575865
H410	H	1.033064	-0.122935	1.075865
H411	H	0.485463	-0.636821	0.629272
H412	H	0.985463	-0.136821	1.129272
H413	H	0.485426	-0.628686	0.573843
H414	H	0.985426	-0.128686	1.073843
C415	C	0.494780	-0.422103	0.516903
C416	C	0.994780	0.077897	1.016903
H417	H	0.469501	-0.386064	0.514801
H418	H	0.969501	0.113936	1.014801
H419	H	0.517158	-0.431689	0.536416
H420	H	1.017158	0.068311	1.036416
H421	H	0.517115	-0.423566	0.480994
H422	H	1.017115	0.076434	0.980994
H423	H	0.149018	-0.136838	0.472047
H424	H	0.649018	0.363162	0.972047
C425	C	0.193127	-0.249001	0.496029
C426	C	0.693127	0.250999	0.996029
H427	H	0.198603	-0.223718	0.459739
H428	H	0.698603	0.276282	0.959739
H429	H	0.227490	-0.271356	0.501514
H430	H	0.727490	0.228644	1.001514
H431	H	0.175625	-0.271361	0.501544
H432	H	0.675625	0.228639	1.001544
H433	H	0.064226	-0.136878	0.641864
H434	H	0.564226	0.363122	1.141864
H435	H	0.098918	-0.240852	0.676488
H436	H	0.598918	0.259148	1.176488
H437	H	0.016979	-0.733950	0.333522
H438	H	0.516979	-0.233950	0.833522
C439	C	-0.036970	-0.513409	0.221241
C440	C	0.463030	-0.013409	0.721241
H441	H	-0.020814	-0.507389	0.183008
H442	H	0.479186	-0.007389	0.683008
H443	H	-0.075632	-0.497275	0.230565
H444	H	0.424368	0.002725	0.730565
H445	H	-0.023810	-0.497329	0.230679
H446	H	0.476190	0.002671	0.730679
C447	C	0.060722	-0.709987	0.511479
C448	C	0.560722	-0.209987	1.011479
H449	H	0.066208	-0.746273	0.516987
H450	H	0.566208	-0.246273	1.016987
H451	H	0.095085	-0.704527	0.494048
H452	H	0.595085	-0.204527	0.994048
H453	H	0.043170	-0.704460	0.545829
H454	H	0.543170	-0.204460	1.045829
H455	H	-0.067855	-0.564093	0.333408
H456	H	0.432145	-0.064093	0.833408
H457	H	0.058518	-0.740243	0.392731
H458	H	0.558518	-0.240243	0.892731
C459	C	0.020692	-0.750035	0.471201
C460	C	0.520692	-0.250035	0.971201
H461	H	0.004629	-0.756054	0.455047
H462	H	0.504629	-0.256054	0.955047
H463	H	0.059360	-0.766170	0.458086
H464	H	0.559360	-0.266170	0.958086
H465	H	0.007449	-0.766114	0.509870
H466	H	0.507449	-0.266114	1.009870
C467	C	-0.085681	-0.852191	0.499052
C468	C	0.414319	-0.352191	0.999052
H469	H	-0.121699	-0.826883	0.501101
H470	H	0.378301	-0.326883	1.001101
H471	H	-0.076072	-0.874554	0.479516
H472	H	0.423928	-0.374554	0.979516
H473	H	-0.084276	-0.874540	0.534981
H474	H	0.415724	-0.374540	1.034981
H475	H	-0.116855	-0.691337	0.509456
H476	H	0.383145	-0.191337	1.009456
H477	H	-0.220518	-0.571693	0.374008
H478	H	0.279482	-0.071693	0.874008
H479	H	-0.116547	-0.606465	0.339541
H480	H	0.383453	-0.106465	0.839541
