data_functionalizedCrystal
_audit_creation_method	'MofGen! by Chris Wilmer'
_symmetry_space_group_name_H-M	'P1'
_symmetry_Int_Tables_number	1
_symmetry_cell_setting	triclinic
loop_
_symmetry_equiv_pos_as_xyz
  x,y,z
_cell_length_a	16.109301
_cell_length_b	16.109301
_cell_length_c	14.586319
_cell_angle_alpha	90.001143
_cell_angle_beta	90.005214
_cell_angle_gamma	83.461532
loop_
_atom_site_label
_atom_site_type_symbol
_atom_site_fract_x
_atom_site_fract_y
_atom_site_fract_z
O1	O	0.106867	1.103131	0.076193
O2	O	0.120166	0.861069	0.076206
O3	O	-0.007514	0.988749	0.076190
O4	O	0.234548	0.975450	0.076209
O5	O	-0.007516	0.988740	-0.076291
O6	O	0.120164	0.861060	-0.076275
O7	O	0.106865	1.103122	-0.076288
Cu8	Cu	0.113515	0.982090	-0.090204
Cu9	Cu	0.113517	0.982100	0.090122
O10	O	0.234546	0.975441	-0.076272
C11	C	0.119627	0.830089	-0.000033
C12	C	0.118011	0.737794	-0.000028
C13	C	0.188494	0.428796	-0.000038
C14	C	0.190020	0.515516	-0.000033
C15	C	0.038531	0.535389	-0.000033
C16	C	0.037007	0.448671	-0.000032
C17	C	0.111991	0.395376	-0.000039
C18	C	0.115041	0.568815	-0.000035
C19	C	0.116694	0.662841	-0.000029
C20	C	0.110338	0.301344	-0.000043
C21	C	-0.038490	0.988206	-0.000051
C22	C	-0.130785	0.986591	-0.000052
C23	C	-0.353058	1.058599	-0.000042
C24	C	-0.439778	1.057075	-0.000034
C25	C	-0.419904	0.905586	-0.000029
C26	C	-0.333185	0.907111	-0.000030
C27	C	-0.299765	0.983620	-0.000041
C28	C	-0.473204	0.980571	-0.000033
C29	C	-0.567230	0.978918	-0.000024
C30	C	-0.205733	0.985273	-0.000048
C31	C	0.265522	0.975984	-0.000029
C32	C	0.357817	0.977599	-0.000021
C33	C	0.107405	1.134101	-0.000047
C34	C	0.109020	1.226396	-0.000046
N35	N	0.113513	0.982089	-0.217036
C36	C	0.056994	1.038644	-0.452049
C37	C	0.056992	1.038647	-0.548031
C38	C	0.170033	0.925547	-0.548026
C39	C	0.170030	0.925541	-0.452046
C40	C	0.113512	0.982094	-0.404060
C41	C	0.113513	0.982103	-0.596021
C42	C	0.113511	0.982105	-0.700088
C43	C	0.113513	0.982092	-0.299987
N44	N	0.113512	0.982108	0.216954
H45	H	-0.025296	0.421461	-0.000029
H46	H	-0.325850	1.120897	-0.000049
H47	H	-0.022518	0.578792	-0.000029
O48	O	-0.455949	0.823067	-0.000037
H49	H	-0.525204	0.834602	-0.000050
O50	O	-0.275694	0.826237	-0.000040
H51	H	-0.313501	0.772780	-0.000050
H52	H	-0.483167	1.118130	-0.000032
H53	H	0.010973	1.084693	-0.412982
H54	H	0.216054	0.879487	-0.412971
H55	H	0.216050	0.879503	-0.587105
O56	O	0.269365	0.371310	-0.000035
H57	H	0.322819	0.409122	-0.000024
H58	H	0.252317	0.542722	-0.000031
O59	O	-0.003955	1.099650	-0.599794
H60	H	-0.043246	1.138977	-0.550298
