data_functionalizedCrystal
_audit_creation_method	'MofGen! by Chris Wilmer'
_symmetry_space_group_name_H-M	'P1'
_symmetry_Int_Tables_number	1
_symmetry_cell_setting	triclinic
loop_
_symmetry_equiv_pos_as_xyz
  x,y,z
_cell_length_a	23.532407
_cell_length_b	19.188930
_cell_length_c	18.266242
_cell_angle_alpha	90.022918
_cell_angle_beta	89.988983
_cell_angle_gamma	97.003272
loop_
_atom_site_label
_atom_site_type_symbol
_atom_site_fract_x
_atom_site_fract_y
_atom_site_fract_z
O1	O	0.071102	-0.925922	-0.061124
O2	O	0.080673	-0.722581	-0.061074
O3	O	-0.007031	-0.830383	-0.061087
O4	O	0.158806	-0.818120	-0.061111
O5	O	-0.007035	-0.830365	0.060675
O6	O	0.080669	-0.722562	0.060688
O7	O	0.071097	-0.925904	0.060638
Zn8	Zn	0.075882	-0.824230	0.079995
Zn9	Zn	0.075888	-0.824254	-0.080431
O10	O	0.158802	-0.818102	0.060651
C11	C	0.080361	-0.696561	-0.000187
C12	C	0.079431	-0.619060	-0.000168
C13	C	-0.028250	-0.830062	-0.000204
C14	C	-0.091469	-0.829123	-0.000198
C15	C	0.071410	-0.951923	-0.000251
C16	C	0.072340	-1.029425	-0.000275
C17	C	-0.490449	-0.887029	-0.000252
C18	C	-0.549851	-0.886157	-0.000258
O19	O	-0.586482	-0.939837	-0.000298
N20	N	-0.572613	-0.822068	-0.000242
C21	C	-0.535970	-0.758848	-0.000228
O22	O	-0.560786	-0.704255	-0.000215
C23	C	-0.476569	-0.759721	-0.000228
C24	C	-0.453810	-0.823814	-0.000236
C25	C	-0.467690	-0.951117	-0.000262
C26	C	-0.408292	-0.951989	-0.000255
C27	C	-0.371653	-0.888773	-0.000239
C28	C	-0.394412	-0.824685	-0.000230
C29	C	-0.439927	-0.696501	-0.000219
C30	C	-0.380523	-0.697379	-0.000219
C31	C	-0.357764	-0.761472	-0.000228
C32	C	-0.298376	-0.762342	-0.000207
N33	N	-0.275614	-0.826430	-0.000223
C34	C	-0.312252	-0.889646	-0.000239
C35	C	-0.660717	-0.757019	-0.000229
C36	C	-0.720116	-0.756146	-0.000224
C37	C	-0.733993	-0.883455	-0.000256
C38	C	-0.674592	-0.884328	-0.000255
C39	C	-0.637954	-0.821108	-0.000245
C40	C	-0.187512	-0.891472	-0.000224
C41	C	-0.128108	-0.892339	-0.000214
C42	C	-0.114236	-0.765029	-0.000187
C43	C	-0.173634	-0.764163	-0.000193
C44	C	-0.210272	-0.827390	-0.000214
O45	O	-0.261710	-0.708690	-0.000170
O46	O	-0.287428	-0.944230	-0.000261
C47	C	0.180021	-0.818423	-0.000234
C48	C	0.243240	-0.819362	-0.000244
N49	N	0.075878	-0.824219	0.189482
C50	C	0.130893	-0.573972	-0.000187
C51	C	0.130019	-0.501151	-0.000194
C52	C	0.077680	-0.473421	-0.000198
C53	C	0.026211	-0.518519	-0.000175
C54	C	0.027086	-0.591339	-0.000160
N55	N	0.037674	-0.365575	-0.041663
N56	N	0.036846	-0.296399	-0.041679
C57	C	0.075038	-0.254021	-0.000243
N58	N	0.114099	-0.283431	0.041201
N59	N	0.114929	-0.352613	0.041214
C60	C	0.076724	-0.394462	-0.000214
C61	C	0.125556	-0.129971	-0.000269
C62	C	0.124680	-0.057149	-0.000272
C63	C	0.020870	-0.074520	-0.000260
C64	C	0.021748	-0.147340	-0.000250
C65	C	0.074092	-0.175061	-0.000257
N66	N	0.075888	-0.824271	-0.189918
C67	C	0.037062	-0.871970	0.227785
C68	C	0.037059	-0.871974	0.304430
C69	C	0.075883	-0.824235	0.342769
C70	C	0.114702	-0.776475	0.304457
C71	C	0.114700	-0.776468	0.227813
N72	N	0.126298	-0.814998	0.463096
N73	N	0.126298	-0.815010	0.535904
C74	C	0.075891	-0.824254	0.573691
N75	N	0.025481	-0.833500	0.535921
N76	N	0.025482	-0.833492	0.463106
C77	C	0.075889	-0.824238	0.425876
C78	C	0.037068	-0.872012	0.695102
C79	C	0.037065	-0.872012	0.771748
C80	C	0.114713	-0.776516	0.771773
C81	C	0.114711	-0.776513	0.695128
C82	C	0.075890	-0.824265	0.656797
H83	H	-0.109581	-0.944533	-0.000220
O84	O	-0.033757	-0.195978	-0.000236
H85	H	-0.070300	-0.164465	-0.000244
H86	H	-0.021745	-0.051943	-0.000309
O87	O	-0.004816	-0.923462	0.186441
H88	H	-0.031812	-0.956662	0.225957
O89	O	-0.004803	-0.923485	0.345758
H90	H	-0.031794	-0.956692	0.306228
O91	O	0.156581	-0.724987	0.345801
H92	H	0.150066	-0.733020	0.405532
O93	O	-0.004819	-0.923484	0.653744
H94	H	0.019074	-0.957255	0.618794
O95	O	0.180189	-0.008515	-0.000285
H96	H	0.182272	0.025057	-0.049914
H97	H	0.146309	-0.737582	0.196626
O98	O	0.187350	-0.603867	-0.000189
H99	H	0.179315	-0.662079	-0.000181
O100	O	-0.004798	-0.923524	0.813067
H101	H	-0.031785	-0.956731	0.773534
O102	O	0.185524	-0.452503	-0.000217
H103	H	0.210577	-0.462338	-0.049852
O104	O	0.156590	-0.725025	0.813111
H105	H	0.150074	-0.733054	0.872842
H106	H	-0.350694	-0.645897	-0.000212
O107	O	-0.030243	-0.488618	-0.000179
H108	H	-0.022207	-0.430406	-0.000200
O109	O	-0.464466	-0.627372	-0.000212
H110	H	-0.429001	-0.583568	-0.000210
H111	H	-0.630888	-0.705535	-0.000215
O112	O	-0.028421	-0.639977	-0.000143
H113	H	-0.064964	-0.608464	-0.000149
O114	O	0.182009	-0.159880	-0.000263
H115	H	0.217649	-0.116290	-0.000263
O116	O	0.156580	-0.725016	0.653805
H117	H	0.200961	-0.733606	0.668489
O118	O	-0.227023	-0.959665	-0.000236
H119	H	-0.201209	-1.004370	-0.000233
O120	O	-0.383747	-1.021117	-0.000286
H121	H	-0.419211	-1.064922	-0.000310
O122	O	-0.744662	-0.687018	-0.000201
H123	H	-0.729926	-0.656671	-0.049823
H124	H	-0.497516	-1.002598	-0.000278
O125	O	-0.650046	-0.953455	-0.000278
H126	H	-0.685508	-0.997262	-0.000296
O127	O	-0.773517	-0.951641	-0.000272
H128	H	-0.765436	-0.982343	-0.049904
H129	H	-0.192165	-0.711973	-0.000165
O130	O	-0.074714	-0.696848	-0.000170
H131	H	-0.029587	-0.708228	-0.000176
