data_functionalizedCrystal
_audit_creation_method	'MofGen! by Chris Wilmer'
_symmetry_space_group_name_H-M	'P1'
_symmetry_Int_Tables_number	1
_symmetry_cell_setting	triclinic
loop_
_symmetry_equiv_pos_as_xyz
  x,y,z
_cell_length_a	16.992695
_cell_length_b	14.971486
_cell_length_c	14.048226
_cell_angle_alpha	89.998499
_cell_angle_beta	89.993436
_cell_angle_gamma	87.141176
loop_
_atom_site_label
_atom_site_type_symbol
_atom_site_fract_x
_atom_site_fract_y
_atom_site_fract_z
O1	O	0.102190	1.194127	-0.079052
O2	O	0.114427	0.934587	-0.079078
O3	O	-0.005835	1.063316	-0.079057
O4	O	0.222452	1.065397	-0.079072
O5	O	-0.005842	1.063299	0.079264
O6	O	0.114420	0.934570	0.079244
O7	O	0.102183	1.194110	0.079270
Zn8	Zn	0.108300	1.064337	0.104394
Zn9	Zn	0.108310	1.064359	-0.104201
O10	O	0.222445	1.065380	0.079249
C11	C	0.113876	0.901215	0.000080
C12	C	0.112236	0.801803	0.000070
C13	C	0.182887	0.749541	0.000067
C14	C	0.181341	0.656133	0.000081
C15	C	0.109144	0.614988	0.000092
C16	C	0.038488	0.667257	0.000098
C17	C	0.040034	0.760663	0.000091
C18	C	0.035269	0.472568	0.000111
C19	C	0.033723	0.379155	0.000117
C20	C	0.176577	0.368038	0.000102
C21	C	0.178123	0.461445	0.000094
C22	C	0.107466	0.513707	0.000099
C23	C	-0.035054	1.060631	0.000103
C24	C	-0.122105	1.052644	0.000102
C25	C	-0.172274	1.129708	0.000111
C26	C	-0.254067	1.122198	0.000101
C27	C	-0.285691	1.037623	0.000089
C28	C	-0.235517	0.960553	0.000078
C29	C	-0.153724	0.968064	0.000081
C30	C	-0.529318	1.006493	0.000073
C31	C	-0.611117	0.998988	0.000073
C32	C	-0.629662	1.160634	0.000094
C33	C	-0.547867	1.168138	0.000103
C34	C	-0.497700	1.091068	0.000087
N35	N	-0.369297	1.029945	0.000082
N36	N	-0.414095	1.098747	0.000087
C37	C	0.251664	1.068066	0.000087
C38	C	0.338715	1.076053	0.000082
C39	C	0.102733	1.227482	0.000110
C40	C	0.104373	1.326894	0.000114
N41	N	0.108293	1.064328	0.246754
N42	N	0.108310	1.064375	-0.246562
C43	C	0.055063	1.121350	0.296581
C44	C	0.055063	1.121356	0.396239
C45	C	0.108297	1.064344	0.446068
C46	C	0.161529	1.007316	0.396234
C47	C	0.161526	1.007306	0.296578
C48	C	0.161535	1.007342	0.603948
C49	C	0.161540	1.007353	0.703611
C50	C	0.055072	1.121393	0.703609
C51	C	0.055068	1.121383	0.603953
C52	C	0.108302	1.064355	0.554126
H53	H	-0.020297	0.633749	0.000120
H54	H	-0.522126	1.237008	0.000113
N55	N	-0.002334	1.182868	0.449993
H56	H	0.027708	1.224603	0.491326
H57	H	-0.037091	1.146153	0.491301
H58	H	-0.146533	1.198578	0.000126
H59	H	0.238873	0.613586	0.000077
N60	N	0.218944	0.945808	0.242834
H61	H	0.210862	0.954450	0.172142
H62	H	0.209792	0.881707	0.260267
H63	H	-0.112878	0.905310	0.000073
H64	H	-0.022267	0.515117	0.000116
N65	N	-0.002330	1.182918	0.757348
H66	H	-0.036044	1.219046	0.710659
H67	H	0.027774	1.224599	0.798671
N68	N	-0.036167	0.817035	0.000101
H69	H	-0.082139	0.776798	0.000109
H70	H	-0.038638	0.856033	-0.058591
H71	H	-0.294912	1.184952	0.000110
N72	N	0.252804	0.311707	0.000168
H73	H	0.284326	0.325519	-0.058508
H74	H	0.240837	0.246304	0.000237
N75	N	-0.683776	1.243751	0.000111
H76	H	-0.718118	1.244246	-0.058580
H77	H	-0.651278	1.298423	0.000155
H78	H	-0.488481	0.943737	0.000060
N79	N	0.260758	0.793916	0.000044
H80	H	0.305280	0.746631	0.000045
H81	H	0.264511	0.832433	0.058731
N82	N	-0.269620	0.869331	0.000059
H83	H	-0.329048	0.876265	0.000062
H84	H	-0.251277	0.835344	0.058747
H85	H	0.011725	1.167811	0.563383
N86	N	-0.002350	1.182848	0.242841
H87	H	-0.036071	1.218971	0.289532
H88	H	-0.037068	1.146125	0.201504
N89	N	0.218962	0.945872	0.757358
H90	H	0.252684	0.909742	0.710673
H91	H	0.188888	0.904192	0.798727
N92	N	0.218947	0.945831	0.550203
H93	H	0.252673	0.909717	0.596889
H94	H	0.253661	0.982548	0.508842
N95	N	0.218945	0.945828	0.449982
H96	H	0.274614	0.960101	0.432623
H97	H	0.209753	0.881718	0.432633
H98	H	0.236912	0.494942	0.000077
H99	H	-0.025067	0.345658	0.000127
H100	H	-0.636861	0.930114	0.000079
