data_functionalizedCrystal
_audit_creation_method	'MofGen! by Chris Wilmer'
_symmetry_space_group_name_H-M	'P1'
_symmetry_Int_Tables_number	1
_symmetry_cell_setting	triclinic
loop_
_symmetry_equiv_pos_as_xyz
  x,y,z
_cell_length_a	13.032831
_cell_length_b	17.637651
_cell_length_c	13.032268
_cell_angle_alpha	95.517745
_cell_angle_beta	89.113023
_cell_angle_gamma	92.682084
loop_
_atom_site_label
_atom_site_type_symbol
_atom_site_fract_x
_atom_site_fract_y
_atom_site_fract_z
Zn1	Zn	1.381839	-0.508243	0.630045
Zn2	Zn	1.881839	-0.008243	1.130045
Zn3	Zn	1.377848	-0.620370	0.424798
Zn4	Zn	1.877848	-0.120370	0.924798
Zn5	Zn	1.238912	-0.476804	0.445613
Zn6	Zn	1.738912	0.023196	0.945613
Zn7	Zn	1.185030	-0.616301	0.576130
Zn8	Zn	1.685030	-0.116301	1.076130
O9	O	1.295908	-0.555429	0.519147
O10	O	1.795908	-0.055429	1.019147
O11	O	1.521820	-0.537977	0.616670
O12	O	2.021820	-0.037977	1.116670
O13	O	1.380298	-0.589871	0.287041
O14	O	1.880298	-0.089871	0.787041
O15	O	1.282092	-0.375669	0.501353
O16	O	1.782092	0.124331	1.001353
O17	O	1.518888	-0.620356	0.465876
O18	O	2.018888	-0.120356	0.965876
O19	O	1.387099	-0.398767	0.636854
O20	O	1.887099	0.101233	1.136854
O21	O	1.278222	-0.484394	0.302334
O22	O	1.778222	0.015606	0.802334
O23	O	1.091255	-0.480449	0.449074
O24	O	1.591255	0.019551	0.949074
O25	O	1.190258	-0.613421	0.723801
O26	O	1.690258	-0.113421	1.223801
O27	O	1.051668	-0.582936	0.544965
O28	O	1.551668	-0.082936	1.044965
O29	O	1.334852	-0.534031	0.763411
O30	O	1.834852	-0.034031	1.263411
O31	O	1.328051	-0.725135	0.413598
O32	O	1.828051	-0.225135	0.913598
O33	O	1.186388	-0.722146	0.524781
O34	O	1.686388	-0.222146	1.024781
C35	C	1.035028	-0.527840	0.493428
C36	C	1.535028	-0.027840	0.993428
C37	C	0.923415	-0.516057	0.482444
C38	C	1.423415	-0.016057	0.982444
C39	C	0.854092	-0.561579	0.524879
C40	C	1.354092	-0.061579	1.024879
C41	C	0.738734	-0.549402	0.513528
C42	C	1.238734	-0.049402	1.013528
C43	C	1.250963	-0.750950	0.461105
C44	C	1.750963	-0.250950	0.961105
C45	C	1.231823	-0.834607	0.436317
C46	C	1.731823	-0.334607	0.936317
C47	C	1.441920	-1.169577	0.707838
C48	C	1.941920	-0.669577	1.207838
C49	C	1.423906	-1.248181	0.684525
C50	C	1.923906	-0.748181	1.184525
C51	C	1.314665	-1.224235	0.543312
C52	C	1.814665	-0.724235	1.043312
C53	C	1.332675	-1.145628	0.566610
C54	C	1.832675	-0.645628	1.066610
C55	C	1.396302	-1.118306	0.648875
C56	C	1.896302	-0.618306	1.148875
C57	C	1.287057	-1.094357	0.507647
C58	C	1.787057	-0.594357	1.007647
C59	C	1.305061	-1.015756	0.530946
C60	C	1.805061	-0.515756	1.030946
C61	C	1.368683	-0.988427	0.613209
C62	C	1.868683	-0.488427	1.113209
C63	C	1.414306	-1.039705	0.672174
C64	C	1.914306	-0.539705	1.172174
C65	C	1.223424	-1.121681	0.425387
C66	C	1.723424	-0.621681	0.925387
C67	C	1.177806	-1.070409	0.366424
C68	C	1.677806	-0.570409	0.866424
C69	C	1.195815	-0.991807	0.389718
C70	C	1.695815	-0.491807	0.889718
C71	C	1.259437	-0.964478	0.471981
C72	C	1.759437	-0.464478	0.971981
C73	C	1.150192	-0.940529	0.330753
C74	C	1.650192	-0.440529	0.830753
C75	C	1.168196	-0.861929	0.354052
C76	C	1.668196	-0.361929	0.854052
C77	C	1.277441	-0.885878	0.495280
C78	C	1.777441	-0.385878	0.995280
C79	C	1.557805	-0.583127	0.544966
C80	C	2.057805	-0.083127	1.044966
C81	C	1.669411	-0.594930	0.555968
C82	C	2.169411	-0.094930	1.055968
C83	C	1.256990	-0.576779	0.781060
C84	C	1.756990	-0.076779	1.281060
C85	C	1.240405	-0.585877	0.892671
C86	C	1.740405	-0.085877	1.392671
C87	C	1.341051	-0.359150	0.577440
C88	C	1.841051	0.140850	1.077440
C89	C	1.360289	-0.275508	0.602281
C90	C	1.860289	0.224492	1.102281
C91	C	1.334744	-0.534115	0.258274
C92	C	1.834744	-0.034115	0.758274
C93	C	1.351572	-0.524825	0.146745
C94	C	1.851572	-0.024825	0.646745
C95	C	1.304554	-0.550652	0.962030
C96	C	1.804554	-0.050652	1.462030
C97	C	1.287414	-0.560055	1.077387
C98	C	1.787414	-0.060055	1.577387
H99	H	0.712686	-0.501408	0.468796
H100	H	1.212686	-0.001408	0.968796
H101	H	0.897362	-0.468067	0.437716
H102	H	1.397362	0.031933	0.937716
H103	H	1.329262	-0.863632	0.562262
H104	H	1.829262	-0.363632	1.062262
O105	O	0.700299	-0.652201	0.609412
O106	O	1.200299	-0.152201	1.109412
C107	C	0.613442	-0.692174	0.646638
C108	C	1.113442	-0.192174	1.146638
H109	H	0.545184	-0.653804	0.652023
H110	H	1.045184	-0.153804	1.152023
H111	H	0.630229	-0.709929	0.726296
H112	H	1.130229	-0.209929	1.226296
H113	H	0.594678	-0.745112	0.591699
H114	H	1.094678	-0.245112	1.091699
H115	H	1.419181	-0.487700	1.120731
H116	H	1.919181	0.012300	1.620731
H117	H	1.172791	-0.622989	0.918694
H118	H	1.672791	-0.122989	1.418694
O119	O	1.206870	-0.604442	1.108447
O120	O	1.706870	-0.104442	1.608447
C121	C	1.243911	-0.663988	1.160356
C122	C	1.743911	-0.163988	1.660356
H123	H	1.326598	-0.674433	1.135095
H124	H	1.826598	-0.174433	1.635095
H125	H	1.194089	-0.718166	1.140868
H126	H	1.694089	-0.218166	1.640868
H127	H	1.240998	-0.647517	1.247077
H128	H	1.740998	-0.147517	1.747077
H129	H	0.880145	-0.609564	0.569617
H130	H	1.380145	-0.109564	1.069617
H131	H	1.372159	-0.513532	0.936009
H132	H	1.872159	-0.013532	1.436009
H133	H	1.466127	-1.017459	0.739156
H134	H	1.966127	-0.517459	1.239156
O135	O	1.385989	-0.912057	0.635835
O136	O	1.885989	-0.412057	1.135835
C137	C	1.291924	-0.877761	0.659853
C138	C	1.791924	-0.377761	1.159853
H139	H	1.226274	-0.915571	0.623506
H140	H	1.726274	-0.415571	1.123506
H141	H	1.292889	-0.819617	0.628380
H142	H	1.792889	-0.319617	1.128380
H143	H	1.280544	-0.870361	0.747093
H144	H	1.780544	-0.370361	1.247093
O145	O	1.252951	-1.250690	0.463293
O146	O	1.752951	-0.750690	0.963293
C147	C	1.294264	-1.225686	0.371090
C148	C	1.794264	-0.725686	0.871090
H149	H	1.346248	-1.172513	0.389771
H150	H	1.846248	-0.672513	0.889771
H151	H	1.229143	-1.211710	0.319641
H152	H	1.729143	-0.711710	0.819641
H153	H	1.340805	-1.272614	0.329299
H154	H	1.840805	-0.772614	0.829299
O155	O	1.503717	-1.143156	0.787816
O156	O	2.003717	-0.643156	1.287816
C157	C	1.540148	-1.205264	0.834850
C158	C	2.040148	-0.705264	1.334850
H159	H	1.485676	-1.257250	0.817621
H160	H	1.985676	-0.757250	1.317621
H161	H	1.544236	-1.190103	0.921764
H162	H	2.044236	-0.690103	1.421764
H163	H	1.619990	-1.218660	0.803201
H164	H	2.119990	-0.718660	1.303201
H165	H	1.098379	-0.962788	0.263780
H166	H	1.598379	-0.462788	0.763780
O167	O	1.468049	-1.298021	0.741885
O168	O	1.968049	-0.798021	1.241885
C169	C	1.390767	-1.342742	0.787537
C170	C	1.890767	-0.842742	1.287537
H171	H	1.316191	-1.311225	0.792884
H172	H	1.816191	-0.811225	1.292884
H173	H	1.415325	-1.353740	0.868166
H174	H	1.915325	-0.853740	1.368166
H175	H	1.378294	-1.399423	0.738480
H176	H	1.878294	-0.899423	1.238480
H177	H	1.131047	-0.820183	0.306039
H178	H	1.631047	-0.320183	0.806039
H179	H	1.208756	-1.185683	0.406428
H180	H	1.708756	-0.685683	0.906428
H181	H	1.125997	-1.092666	0.299446
H182	H	1.625997	-0.592666	0.799446
