data_functionalizedCrystal
_audit_creation_method	'MofGen! by Chris Wilmer'
_symmetry_space_group_name_H-M	'P1'
_symmetry_Int_Tables_number	1
_symmetry_cell_setting	triclinic
loop_
_symmetry_equiv_pos_as_xyz
  x,y,z
_cell_length_a	19.120785
_cell_length_b	19.121385
_cell_length_c	12.759387
_cell_angle_alpha	87.591080
_cell_angle_beta	87.522005
_cell_angle_gamma	84.993840
loop_
_atom_site_label
_atom_site_type_symbol
_atom_site_fract_x
_atom_site_fract_y
_atom_site_fract_z
Zn1	Zn	-0.234194	-1.063745	-0.511477
Zn2	Zn	-0.351888	-1.058632	-0.328589
Zn3	Zn	-0.239251	-0.946073	-0.342961
Zn4	Zn	-0.356854	-0.941032	-0.511376
O5	O	-0.295547	-1.002371	-0.423601
O6	O	-0.245612	-1.161528	-0.481244
O7	O	-0.336985	-1.043671	-0.183474
O8	O	-0.140108	-0.965932	-0.371373
O9	O	-0.332081	-1.157772	-0.346877
O10	O	-0.136393	-1.052385	-0.495181
O11	O	-0.254231	-0.960974	-0.194033
O12	O	-0.259047	-0.846943	-0.371275
O13	O	-0.340545	-0.957340	-0.658412
O14	O	-0.345448	-0.843239	-0.495009
O15	O	-0.250427	-1.047497	-0.658486
O16	O	-0.451019	-1.038782	-0.346779
O17	O	-0.454667	-0.952383	-0.481072
C18	C	-0.303336	-0.819561	-0.434691
C19	C	-0.306685	-0.741354	-0.439459
C20	C	-0.327863	-0.298933	-0.469738
C21	C	-0.324722	-0.372417	-0.465237
C22	C	-0.278094	-0.411068	-0.398682
C23	C	-0.234609	-0.376230	-0.336614
C24	C	-0.237755	-0.302748	-0.341110
C25	C	-0.266346	-0.633034	-0.381887
C26	C	-0.263202	-0.706521	-0.377399
C27	C	-0.353316	-0.702703	-0.506021
C28	C	-0.356454	-0.629219	-0.510515
C29	C	-0.312972	-0.594388	-0.448443
C30	C	-0.274880	-0.486180	-0.394083
C31	C	-0.316190	-0.519277	-0.453038
C32	C	-0.478375	-0.994500	-0.412377
C33	C	-0.556587	-0.991197	-0.407606
C34	C	-0.999038	-0.970242	-0.377424
C35	C	-0.925550	-0.973347	-0.381906
C36	C	-0.886813	-1.019880	-0.448662
C37	C	-0.921569	-1.063306	-0.510948
C38	C	-0.995056	-1.060198	-0.506470
C39	C	-0.664830	-1.031514	-0.465414
C40	C	-0.591337	-1.034621	-0.469884
C41	C	-0.595324	-0.944661	-0.340844
C42	C	-0.668812	-0.941559	-0.336368
C43	C	-0.703561	-0.984982	-0.398657
C44	C	-0.811696	-1.023057	-0.453243
C45	C	-0.778677	-0.981802	-0.394081
C46	C	-0.112004	-1.010291	-0.434891
C47	C	-0.033789	-1.013667	-0.439702
C48	C	-0.295476	-1.002427	-0.697636
C49	C	-0.295445	-1.002451	-0.814413
C50	C	-0.287724	-0.185894	-0.412457
C51	C	-0.284381	-0.264101	-0.407677
C52	C	-0.201611	-1.096336	-0.814509
C53	C	-0.154684	-1.143289	-0.869418
C54	C	-0.154657	-1.143308	-0.979140
C55	C	-0.201562	-1.096366	-1.033956
C56	C	-0.248490	-1.049413	-0.979047
C57	C	-0.248513	-1.049401	-0.869322
C58	C	-0.342319	-0.955525	-0.978951
C59	C	-0.342350	-0.955509	-0.869229
C60	C	-0.389224	-0.908584	-1.033767
C61	C	-0.436157	-0.861633	-0.978858
C62	C	-0.436182	-0.861617	-0.869129
C63	C	-0.389278	-0.908556	-0.814320
C64	C	-0.295565	-1.002357	-0.150633
C65	C	-0.295392	-1.002478	-0.033860
H66	H	-0.225223	-0.737989	-0.323209
O67	O	-0.389314	-0.908414	-0.707744
C68	C	-0.374100	-0.841764	-0.676270
H69	H	-0.387823	-0.800722	-0.741213
H70	H	-0.406395	-0.827876	-0.601672
H71	H	-0.315781	-0.842798	-0.660475
H72	H	-0.201635	-1.096332	-0.725167
O73	O	-0.389329	-0.908598	-1.140343
C74	C	-0.455992	-0.923771	-1.171748
H75	H	-0.497048	-0.909985	-1.106747
H76	H	-0.469833	-0.891506	-1.246305
H77	H	-0.455000	-0.982091	-1.187587
O78	O	-0.195444	-0.269021	-0.280790
C79	C	-0.153626	-0.318889	-0.221063
H80	H	-0.148980	-0.371392	-0.261045
H81	H	-0.099084	-0.300034	-0.214696
H82	H	-0.178997	-0.325568	-0.139152
O83	O	-0.481811	-0.816069	-1.031980
C84	C	-0.551300	-0.828423	-0.999950
H85	H	-0.551632	-0.855397	-0.918558
H86	H	-0.585015	-0.776279	-0.997331
H87	H	-0.573444	-0.863581	-1.058060
H88	H	-1.030573	-0.932353	-0.323060
H89	H	-0.474389	-0.823375	-0.824429
H90	H	-0.365829	-0.267470	-0.523940
O91	O	-0.361382	-0.481707	-0.517809
C92	C	-0.323184	-0.440936	-0.590793
H93	H	-0.266822	-0.465470	-0.599465
H94	H	-0.348730	-0.439032	-0.670069
H95	H	-0.323114	-0.385339	-0.561863
H96	H	-0.780151	-1.060946	-0.507595
H97	H	-0.394425	-0.597755	-0.564709
O98	O	-0.367028	-0.406284	-0.525372
C99	C	-0.410602	-0.446828	-0.460066
H100	H	-0.415839	-0.424463	-0.378404
H101	H	-0.464747	-0.445354	-0.494561
H102	H	-0.386456	-0.503452	-0.454424
H103	H	-0.388716	-0.731071	-0.556555
O104	O	-0.891903	-0.931144	-0.321295
C105	C	-0.941852	-0.889400	-0.261426
H106	H	-0.992985	-0.916006	-0.252892
H107	H	-0.920990	-0.882825	-0.180380
H108	H	-0.951969	-0.835613	-0.302590
H109	H	-0.693113	-1.066880	-0.516122
H110	H	-0.236914	-0.517658	-0.339895
O111	O	-0.706333	-0.896293	-0.271500
C112	C	-0.659901	-0.858643	-0.217470
H113	H	-0.607600	-0.858408	-0.263842
H114	H	-0.683551	-0.802310	-0.208263
H115	H	-0.651007	-0.884766	-0.136618
O116	O	-0.109193	-1.188865	-0.816004
C117	C	-0.119266	-1.178774	-0.707387
H118	H	-0.174553	-1.153374	-0.690453
H119	H	-0.112268	-1.231680	-0.662793
H120	H	-0.079123	-1.143111	-0.681083
O121	O	-0.561538	-0.902404	-0.280505
C122	C	-0.520961	-0.858752	-0.345620
H123	H	-0.543253	-0.853448	-0.427280
H124	H	-0.522501	-0.804646	-0.310895
H125	H	-0.464319	-0.882862	-0.351337
O126	O	-0.224034	-0.599317	-0.321565
C127	C	-0.182216	-0.649190	-0.261846
H128	H	-0.177575	-0.701691	-0.301832
H129	H	-0.127672	-0.630339	-0.255483
H130	H	-0.207584	-0.655869	-0.179933
H131	H	-0.196647	-0.407705	-0.282418
O132	O	-0.553738	-1.079741	-0.534897
C133	C	-0.572316	-1.063574	-0.639432
H134	H	-0.594964	-1.006508	-0.646836
H135	H	-0.523692	-1.071652	-0.693918
H136	H	-0.613311	-1.099489	-0.662072
O137	O	-0.883867	-1.108413	-0.575857
C138	C	-0.843076	-1.070129	-0.648704
H139	H	-0.834405	-1.017281	-0.615488
H140	H	-0.790146	-1.100971	-0.664225
H141	H	-0.871690	-1.061177	-0.725303
O142	O	-1.028704	-1.102446	-0.567011
C143	C	-0.978758	-1.144169	-0.626917
H144	H	-0.926293	-1.148845	-0.586922
H145	H	-0.997581	-1.198703	-0.633553
H146	H	-0.972014	-1.118699	-0.708715
H147	H	-0.810220	-0.943912	-0.339733
O148	O	-0.109047	-1.188983	-1.032319
C149	C	-0.067638	-1.230397	-0.960419
H150	H	-0.096371	-1.231578	-0.880279
H151	H	-0.057769	-1.286162	-0.989233
H152	H	-0.015292	-1.206940	-0.953604
H153	H	-0.201531	-1.096379	-1.123299
