data_functionalizedCrystal
_audit_creation_method	'MofGen! by Chris Wilmer'
_symmetry_space_group_name_H-M	'P1'
_symmetry_Int_Tables_number	1
_symmetry_cell_setting	triclinic
loop_
_symmetry_equiv_pos_as_xyz
  x,y,z
_cell_length_a	12.759401
_cell_length_b	12.759400
_cell_length_c	19.076919
_cell_angle_alpha	87.725144
_cell_angle_beta	87.716999
_cell_angle_gamma	90.013799
loop_
_atom_site_label
_atom_site_type_symbol
_atom_site_fract_x
_atom_site_fract_y
_atom_site_fract_z
Zn1	Zn	1.582345	-0.442178	0.397930
Zn2	Zn	2.082345	0.057822	0.897930
Zn3	Zn	1.589311	-0.610814	0.280242
Zn4	Zn	2.089311	-0.110814	0.780242
Zn5	Zn	1.413718	-0.435147	0.280253
Zn6	Zn	1.913718	0.064853	0.780253
Zn7	Zn	1.406638	-0.617811	0.397902
Zn8	Zn	1.906638	-0.117811	0.897902
O9	O	1.498003	-0.526488	0.339082
O10	O	1.998003	-0.026488	0.839082
O11	O	1.730290	-0.464562	0.382326
O12	O	2.230290	0.035438	0.882326
O13	O	1.571897	-0.581641	0.181754
O14	O	2.071897	-0.081641	0.681754
O15	O	1.436135	-0.289060	0.295879
O16	O	1.936135	0.210940	0.795879
O17	O	1.735408	-0.588458	0.295861
O18	O	2.235408	-0.088458	0.795861
O19	O	1.560025	-0.294225	0.382336
O20	O	2.060025	0.205775	0.882336
O21	O	1.442889	-0.452579	0.181762
O22	O	1.942889	0.047421	0.681762
O23	O	1.265758	-0.459364	0.295852
O24	O	1.765758	0.040636	0.795852
O25	O	1.424067	-0.600383	0.496395
O26	O	1.924067	-0.100383	0.996395
O27	O	1.260556	-0.593566	0.382288
O28	O	1.760556	-0.093566	0.882288
O29	O	1.553159	-0.471347	0.496416
O30	O	2.053159	0.028653	0.996416
O31	O	1.565031	-0.758762	0.295834
O32	O	2.065031	-0.258762	0.795834
O33	O	1.430822	-0.763903	0.382278
O34	O	1.930822	-0.263903	0.882278
C35	C	1.225037	-0.526462	0.339068
C36	C	1.725037	-0.026462	0.839068
C37	C	1.108259	-0.526478	0.339079
C38	C	1.608259	-0.026478	0.839079
C39	C	1.497942	-0.799454	0.339067
C40	C	1.997942	-0.299454	0.839067
C41	C	1.498010	-0.916232	0.339084
C42	C	1.998010	-0.416232	0.839084
C43	C	1.056070	-0.456516	0.294155
C44	C	1.556070	0.043484	0.794155
C45	C	0.946345	-0.456541	0.294164
C46	C	1.446345	0.043459	0.794164
C47	C	0.941009	-0.596495	0.384028
C48	C	1.441009	-0.096495	0.884028
C49	C	1.050731	-0.596473	0.384015
C50	C	1.550731	-0.096473	0.884015
C51	C	1.113598	-0.386520	0.249219
C52	C	1.613598	0.113480	0.749219
C53	C	1.061409	-0.316551	0.204291
C54	C	1.561409	0.183449	0.704291
C55	C	0.951684	-0.316577	0.204300
C56	C	1.451684	0.183423	0.704300
C57	C	0.894149	-0.386571	0.249237
C58	C	1.394149	0.113429	0.749237
C59	C	1.567964	-0.968385	0.294123
C60	C	2.067964	-0.468385	0.794123
C61	C	1.568028	-1.078110	0.294144
C62	C	2.068028	-0.578110	0.794144
C63	C	1.428173	-1.083519	0.384091
C64	C	1.928173	-0.583519	0.884091
C65	C	1.428116	-0.973796	0.384073
C66	C	1.928116	-0.473796	0.884073
C67	C	1.637859	-0.910820	0.249134
C68	C	2.137859	-0.410820	0.749134
C69	C	1.707818	-0.962974	0.204168
C70	C	2.207818	-0.462974	0.704168
C71	C	1.707881	-1.072699	0.204190
C72	C	2.207881	-0.572699	0.704190
C73	C	1.637985	-1.130271	0.249178
C74	C	2.137985	-0.630271	0.749178
C75	C	1.772036	-0.526514	0.339096
C76	C	2.272036	-0.026514	0.839096
C77	C	1.888812	-0.526525	0.339101
C78	C	2.388812	-0.026525	0.839101
C79	C	1.487046	-0.537430	0.522657
C80	C	1.987046	-0.037430	1.022657
C81	C	1.482377	-0.542093	0.600885
C82	C	1.982377	-0.042093	1.100885
C83	C	1.498093	-0.252456	0.339112
C84	C	1.998093	0.247544	0.839112
C85	C	1.498131	-0.135680	0.339125
C86	C	1.998131	0.364320	0.839125
C87	C	1.508978	-0.515512	0.156221
C88	C	2.008978	-0.015512	0.656221
C89	C	1.513850	-0.510553	0.077993
C90	C	2.013850	-0.010553	0.577993
C91	C	1.547391	-0.477104	0.637649
C92	C	2.047391	0.022896	1.137649
C93	C	1.542991	-0.481481	0.711153
C94	C	2.042991	0.018519	1.211153
C95	C	1.473582	-0.550853	0.747892
C96	C	1.973582	-0.050853	1.247892
C97	C	1.408561	-0.615845	0.711123
C98	C	1.908561	-0.115845	1.211123
C99	C	1.412956	-0.611461	0.637620
C100	C	1.912956	-0.111461	1.137620
C101	C	1.453224	-0.571162	0.967721
C102	C	1.953224	-0.071162	1.467721
C103	C	1.448836	-0.575542	1.041229
C104	C	1.948836	-0.075542	1.541229
C105	C	1.583266	-0.441177	1.041254
C106	C	2.083266	0.058823	1.541254
C107	C	1.587660	-0.436804	0.967750
C108	C	2.087660	0.063196	1.467750
C109	C	1.522635	-0.501791	0.930987
C110	C	2.022635	-0.001791	1.430987
N111	N	1.469085	-0.555332	0.823025
N112	N	1.969085	-0.055332	1.323025
N113	N	1.527127	-0.497307	0.855855
N114	N	2.027127	0.002693	1.355855
H115	H	1.202941	-0.386489	0.249208
H116	H	1.702941	0.113511	0.749208
F117	F	1.661535	-0.362969	0.928655
F118	F	2.161535	0.137031	1.428655
F119	F	0.879772	-0.670983	0.431849
F120	F	1.379772	-0.170983	0.931849
F121	F	1.353788	-1.144795	0.431966
F122	F	1.853788	-0.644795	0.931966
H123	H	1.371153	-0.931333	0.420685
H124	H	1.871153	-0.431333	0.920685
H125	H	1.093225	-0.653442	0.420597
H126	H	1.593225	-0.153442	0.920597
H127	H	0.909195	-0.259611	0.167714
H128	H	1.409195	0.240389	0.667714
H129	H	1.764853	-1.115159	0.167582
H130	H	2.264853	-0.615159	0.667582
H131	H	1.764731	-0.916093	0.167545
H132	H	2.264731	-0.416093	0.667545
H133	H	1.637812	-0.821476	0.249110
H134	H	2.137812	-0.321476	0.749110
F135	F	1.122643	-0.242070	0.156464
F136	F	1.622643	0.257930	0.656464
H137	H	1.638050	-1.219617	0.249197
H138	H	2.138050	-0.719617	0.749197
F139	F	1.621272	-0.403273	0.598555
F140	F	2.121272	0.096727	1.098555
H141	H	0.804804	-0.386591	0.249238
H142	H	1.304804	0.113409	0.749238
F143	F	1.612225	-0.412347	0.750277
F144	F	2.112225	0.087653	1.250277
H145	H	1.636204	-0.388266	1.071194
H146	H	2.136204	0.111734	1.571194
F147	F	1.374953	-0.649377	1.080328
F148	F	1.874953	-0.149377	1.580328
F149	F	1.384018	-0.640328	0.928605
F150	F	1.884018	-0.140328	1.428605
H151	H	1.352042	-0.672325	0.741042
H152	H	1.852042	-0.172325	1.241042
F153	F	1.343756	-0.680629	0.598494
F154	F	1.843756	-0.180629	1.098494
