data_functionalizedCrystal
_audit_creation_method	'MofGen! by Chris Wilmer'
_symmetry_space_group_name_H-M	'P1'
_symmetry_Int_Tables_number	1
_symmetry_cell_setting	triclinic
loop_
_symmetry_equiv_pos_as_xyz
  x,y,z
_cell_length_a	15.297979
_cell_length_b	13.897447
_cell_length_c	15.296720
_cell_angle_alpha	99.647031
_cell_angle_beta	88.354193
_cell_angle_gamma	99.680176
loop_
_atom_site_label
_atom_site_type_symbol
_atom_site_fract_x
_atom_site_fract_y
_atom_site_fract_z
Zn1	Zn	1.253400	-0.286936	-0.727384
Zn2	Zn	1.278667	-0.416483	-0.580919
Zn3	Zn	1.132278	-0.277565	-0.555550
Zn4	Zn	1.106897	-0.470560	-0.701943
O5	O	1.192811	-0.362886	-0.641449
O6	O	1.379327	-0.285411	-0.729220
O7	O	1.280445	-0.371502	-0.454992
O8	O	1.148393	-0.143823	-0.578374
O9	O	1.397891	-0.380589	-0.621613
O10	O	1.237380	-0.150708	-0.704620
O11	O	1.172894	-0.269439	-0.436353
O12	O	1.006335	-0.321875	-0.553704
O13	O	1.105135	-0.472755	-0.827880
O14	O	0.987688	-0.463668	-0.661259
O15	O	1.212769	-0.337848	-0.846572
O16	O	1.255834	-0.558641	-0.596943
O17	O	1.129635	-0.598371	-0.685859
C18	C	0.965229	-0.397624	-0.601968
C19	C	0.867865	-0.412512	-0.585099
C20	C	0.831803	-0.468944	-0.521059
C21	C	0.740324	-0.482936	-0.505214
C22	C	0.684899	-0.440491	-0.553402
C23	C	0.720962	-0.384052	-0.617439
C24	C	0.812449	-0.370066	-0.633291
C25	C	0.665545	-0.341613	-0.665634
C26	C	0.701607	-0.285174	-0.729671
C27	C	0.793086	-0.271189	-0.745519
C28	C	0.848511	-0.313634	-0.697331
C29	C	0.574057	-0.355599	-0.649783
C30	C	0.554703	-0.256721	-0.762015
C31	C	0.646182	-0.242729	-0.777860
C32	C	1.192743	-0.613507	-0.641416
C33	C	1.192789	-0.720718	-0.641446
C34	C	1.192828	-0.807785	-0.641473
C35	C	1.192885	-0.917013	-0.641506
C36	C	1.421281	-0.328013	-0.681084
C37	C	1.518641	-0.313153	-0.697975
C38	C	1.153302	-0.412379	-0.869893
C39	C	1.136466	-0.433470	-0.967243
C40	C	1.192899	-0.111287	-0.641505
C41	C	1.192937	-0.004070	-0.641529
C42	C	1.313174	-0.211971	-1.280583
C43	C	1.328998	-0.192156	-1.189119
C44	C	1.280866	-0.252483	-1.133646
C45	C	1.216908	-0.332628	-1.169645
C46	C	1.201087	-0.352450	-1.261118
C47	C	1.168780	-0.392961	-1.114181
C48	C	1.104822	-0.473107	-1.150180
C49	C	1.089004	-0.492925	-1.241644
C50	C	1.137135	-0.432598	-1.297118
C51	C	1.184600	-0.373139	-1.022707
C52	C	1.072514	-0.513618	-1.003242
C53	C	1.056690	-0.533433	-1.094706
C54	C	1.232216	-0.313508	-0.413902
C55	C	1.249221	-0.292120	-0.316583
H56	H	0.509575	-0.222160	-0.801255
H57	H	1.236675	-0.307883	-0.993406
H58	H	1.293754	-0.236344	-1.059173
H59	H	0.610413	-0.451886	-0.540497
C60	C	0.700664	-0.545003	-0.434765
N61	N	0.670792	-0.591750	-0.381696
C62	C	1.019564	-0.579980	-0.942224
N63	N	0.979685	-0.629960	-0.896261
H64	H	0.876937	-0.503501	-0.481835
C65	C	1.399342	-0.103992	-1.149526
N66	N	1.452325	-0.037578	-1.119704
H67	H	0.923002	-0.302242	-0.710226
H68	H	1.352361	-0.162867	-1.325758
H69	H	1.004614	-0.598688	-1.124029
H70	H	0.822443	-0.225244	-0.797671
C71	C	1.119744	-0.454403	-1.397737
N72	N	1.106653	-0.470828	-1.473526
H73	H	1.036932	-0.558191	-1.270952
H74	H	0.544704	-0.401553	-0.597644
H75	H	0.675557	-0.196777	-0.830000
