data_functionalizedCrystal
_audit_creation_method	'MofGen! by Chris Wilmer'
_symmetry_space_group_name_H-M	'P1'
_symmetry_Int_Tables_number	1
_symmetry_cell_setting	triclinic
loop_
_symmetry_equiv_pos_as_xyz
  x,y,z
_cell_length_a	18.050590
_cell_length_b	25.639239
_cell_length_c	18.050582
_cell_angle_alpha	90.024638
_cell_angle_beta	89.999233
_cell_angle_gamma	90.027853
loop_
_atom_site_label
_atom_site_type_symbol
_atom_site_fract_x
_atom_site_fract_y
_atom_site_fract_z
Zn1	Zn	1.135238	-0.208335	0.419591
Zn2	Zn	1.135126	-0.295763	0.295396
Zn3	Zn	1.011058	-0.208327	0.295449
Zn4	Zn	1.010983	-0.295725	0.419579
O5	O	1.073101	-0.252037	0.357504
O6	O	1.239148	-0.219952	0.403099
O7	O	1.118653	-0.284177	0.191479
O8	O	1.027609	-0.135163	0.311944
O9	O	1.239066	-0.284185	0.311854
O10	O	1.118844	-0.135169	0.403150
O11	O	1.027500	-0.219938	0.191517
O12	O	0.907123	-0.219901	0.311932
O13	O	1.027481	-0.284120	0.523505
O14	O	0.907068	-0.284112	0.403130
O15	O	1.118771	-0.219915	0.523514
O16	O	1.118580	-0.368923	0.311843
O17	O	1.027373	-0.368895	0.403079
C18	C	0.880149	-0.252002	0.357536
C19	C	0.797603	-0.251999	0.357567
C20	C	0.598144	-0.287017	0.407043
C21	C	0.548764	-0.239344	0.425320
C22	C	0.646473	-0.252028	0.357531
C23	C	0.548772	-0.299728	0.339253
C24	C	0.500488	-0.252061	0.357497
C25	C	0.598180	-0.204330	0.375844
C26	C	0.598192	-0.264747	0.289745
C27	C	0.548834	-0.217041	0.307997
C28	C	0.730571	-0.252010	0.357552
C29	C	0.416391	-0.252073	0.357476
C30	C	1.072976	-0.387880	0.357470
C31	C	1.072991	-0.445994	0.357480
C32	C	1.120717	-0.806359	0.310078
C33	C	1.120746	-0.860963	0.310088
O34	O	1.161195	-0.889202	0.269748
N35	N	1.073232	-0.888277	0.357553
C36	C	1.025691	-0.860982	0.405017
O37	O	0.985280	-0.889228	0.445391
C38	C	1.025667	-0.806379	0.405010
C39	C	1.073179	-0.779069	0.357536
C40	C	1.168226	-0.779049	0.262609
C41	C	1.168196	-0.724448	0.262598
C42	C	1.120657	-0.697158	0.310057
C43	C	1.073149	-0.724468	0.357526
C44	C	0.978131	-0.779086	0.452477
C45	C	0.978111	-0.724479	0.452466
C46	C	1.025622	-0.697169	0.404993
C47	C	1.025580	-0.642578	0.404973
N48	N	1.073094	-0.615265	0.357508
C49	C	1.120633	-0.642555	0.310050
C50	C	1.025747	-0.975653	0.405028
C51	C	1.025767	-1.030255	0.405032
C52	C	1.120823	-1.030233	0.310104
C53	C	1.120799	-0.975629	0.310097
C54	C	1.073261	-0.948340	0.357563
C55	C	1.120566	-0.527890	0.310030
C56	C	1.120529	-0.473284	0.310022
C57	C	1.025477	-0.473312	0.404952
C58	C	1.025510	-0.527913	0.404958
C59	C	1.073061	-0.555200	0.357495
O60	O	0.985154	-0.614305	0.445295
O61	O	1.161044	-0.614302	0.269689
C62	C	1.266807	-0.252074	0.357472
C63	C	1.349353	-0.252089	0.357459
C64	C	1.073130	-0.252014	0.551210
C65	C	1.073143	-0.252004	0.633755
C66	C	1.073247	-0.115664	0.357554
C67	C	1.073309	-0.057550	0.357576
C68	C	1.073115	-0.252023	0.164552
C69	C	1.073247	-0.251885	0.082006
C70	C	1.023537	-0.286871	0.833201
C71	C	1.091289	-0.299661	0.882573
C72	C	1.073179	-0.251965	0.784886
C73	C	1.005465	-0.239161	0.882595
C74	C	1.073209	-0.251927	0.930871
C75	C	1.140967	-0.264779	0.833171
C76	C	1.055097	-0.204257	0.833188
C77	C	1.122895	-0.217028	0.882538
C78	C	1.073162	-0.251988	0.700787
C79	C	1.073234	-0.251904	1.014968
H80	H	0.619799	-0.316554	0.448960
H81	H	0.527066	-0.340054	0.323809
Br82	Br	1.192964	-0.167799	0.918422
Br83	Br	1.232753	-0.816075	0.198194
Br84	Br	1.029543	-0.137056	0.797002
Br85	Br	0.512577	-0.221430	0.520841
H86	H	1.206886	-0.702215	0.223943
Br87	Br	1.185280	-0.938571	0.245666
Br88	Br	0.634379	-0.282671	0.194232
Br89	Br	0.953631	-0.336133	0.797092
Br90	Br	1.236461	-0.282885	0.797144
Br91	Br	0.634194	-0.137097	0.401696
Br92	Br	0.961221	-0.938623	0.469448
Br93	Br	1.185337	-1.067280	0.245692
Br94	Br	0.961274	-1.067313	0.469452
Br95	Br	0.910000	-0.221136	0.918783
H96	H	0.527319	-0.187432	0.266112
Br97	Br	1.185013	-0.436224	0.245588
H98	H	1.159288	-0.550101	0.271383
Br99	Br	0.913654	-0.816136	0.516917
Br100	Br	0.913594	-0.687447	0.516891
H101	H	0.986824	-0.550150	0.443618
H102	H	0.986769	-0.451084	0.443590
H103	H	1.106602	-0.339990	0.904266
