data_functionalizedCrystal
_audit_creation_method	'MofGen! by Chris Wilmer'
_symmetry_space_group_name_H-M	'P1'
_symmetry_Int_Tables_number	1
_symmetry_cell_setting	triclinic
loop_
_symmetry_equiv_pos_as_xyz
  x,y,z
_cell_length_a	15.297475
_cell_length_b	29.839131
_cell_length_c	15.298259
_cell_angle_alpha	80.280107
_cell_angle_beta	88.370891
_cell_angle_gamma	80.343089
loop_
_atom_site_label
_atom_site_type_symbol
_atom_site_fract_x
_atom_site_fract_y
_atom_site_fract_z
Zn1	Zn	1.253365	-0.224385	-0.726610
Zn2	Zn	1.753365	0.275615	-0.226610
Zn3	Zn	1.278551	-0.314322	-0.580088
Zn4	Zn	1.778551	0.185678	-0.080088
Zn5	Zn	1.132216	-0.228754	-0.554833
Zn6	Zn	1.632216	0.271246	-0.054833
Zn7	Zn	1.106810	-0.289027	-0.701235
Zn8	Zn	1.606810	0.210973	-0.201235
O9	O	1.192735	-0.264122	-0.640691
O10	O	1.692735	0.235878	-0.140691
O11	O	1.379282	-0.245072	-0.728363
O12	O	1.879282	0.254928	-0.228363
O13	O	1.280311	-0.315386	-0.454148
O14	O	1.780311	0.184614	0.045852
O15	O	1.148379	-0.165311	-0.577670
O16	O	1.648379	0.334689	-0.077670
O17	O	1.397785	-0.311149	-0.620713
O18	O	1.897785	0.188851	-0.120713
O19	O	1.237387	-0.162101	-0.703874
O20	O	1.737387	0.337899	-0.203874
O21	O	1.172800	-0.252519	-0.435593
O22	O	1.672800	0.247481	0.064407
O23	O	1.006270	-0.227992	-0.553065
O24	O	1.506270	0.272008	-0.053065
O25	O	1.105079	-0.268037	-0.827191
O26	O	1.605079	0.231963	-0.327191
O27	O	0.987605	-0.272274	-0.660625
O28	O	1.487605	0.227726	-0.160625
O29	O	1.212752	-0.220545	-0.845834
O30	O	1.712752	0.279455	-0.345834
O31	O	1.255677	-0.373830	-0.596107
O32	O	1.755677	0.126170	-0.096107
O33	O	1.129500	-0.355246	-0.685114
O34	O	1.629500	0.144754	-0.185114
C35	C	0.965155	-0.247862	-0.601351
C36	C	1.465155	0.252138	-0.101351
C37	C	0.867791	-0.240915	-0.584542
C38	C	1.367791	0.259085	-0.084542
C39	C	1.192585	-0.380838	-0.640621
C40	C	1.692585	0.119162	-0.140621
C41	C	1.192595	-0.430772	-0.640634
C42	C	1.692595	0.069228	-0.140634
C43	C	0.554625	-0.313777	-0.760831
C44	C	1.054625	0.186223	-0.260831
C45	C	0.646103	-0.320308	-0.776621
C46	C	1.146103	0.179692	-0.276621
C47	C	0.701530	-0.300460	-0.728603
C48	C	1.201530	0.199540	-0.228603
C49	C	0.665469	-0.274081	-0.664791
C50	C	1.165469	0.225919	-0.164791
C51	C	0.573982	-0.267552	-0.648994
C52	C	1.073982	0.232448	-0.148994
C53	C	0.720887	-0.254236	-0.616767
C54	C	1.220887	0.245764	-0.116767
C55	C	0.684826	-0.227856	-0.552955
C56	C	1.184826	0.272144	-0.052955
C57	C	0.593348	-0.221329	-0.537162
C58	C	1.093348	0.278671	-0.037162
C59	C	0.537922	-0.241176	-0.585179
C60	C	1.037922	0.258824	-0.085179
C61	C	0.812374	-0.260764	-0.632564
C62	C	1.312374	0.239236	-0.132564
C63	C	0.831731	-0.214539	-0.520728
C64	C	1.331731	0.285461	-0.020728
C65	C	0.740253	-0.208009	-0.504937
C66	C	1.240253	0.291991	-0.004937
C67	C	1.258524	-0.750085	-0.594445
C68	C	1.758524	-0.250085	-0.094445
C69	C	1.258626	-0.937763	-0.594498
C70	C	1.758626	-0.437763	-0.094498
O71	O	1.314560	-0.970244	-0.555172
O72	O	1.814560	-0.470244	-0.055172
N73	N	1.192906	-0.951570	-0.640789
N74	N	1.692906	-0.451570	-0.140789
C75	C	1.127159	-0.918455	-0.687075
C76	C	1.627159	-0.418455	-0.187075
O77	O	1.071267	-0.934505	-0.726457
O78	O	1.571267	-0.434505	-0.226457
C79	C	1.127061	-0.730778	-0.687027
C80	C	1.627061	-0.230778	-0.187027
C81	C	1.192780	-0.716974	-0.640725
C82	C	1.692780	-0.216974	-0.140725
C83	C	1.324238	-0.736280	-0.548149
C84	C	1.824238	-0.236280	-0.048149
C85	C	1.324209	-0.689364	-0.548132
C86	C	1.824209	-0.189364	-0.048132
C87	C	1.258466	-0.656252	-0.594412
C88	C	1.758466	-0.156252	-0.094412
C89	C	1.192751	-0.670057	-0.640709
C90	C	1.692751	-0.170057	-0.140709
C91	C	1.061318	-0.697663	-0.733317
C92	C	1.561318	-0.197663	-0.233317
C93	C	1.061301	-0.650742	-0.733303
C94	C	1.561301	-0.150742	-0.233303
C95	C	1.127020	-0.636938	-0.687002
C96	C	1.627020	-0.136938	-0.187002
C97	C	1.126979	-0.590029	-0.686972
C98	C	1.626979	-0.090029	-0.186972
N99	N	1.192699	-0.576222	-0.640681
N100	N	1.692699	-0.076222	-0.140681
C101	C	1.258442	-0.609333	-0.594401
C102	C	1.758442	-0.109333	-0.094401
C103	C	1.127214	-1.016988	-0.687095
C104	C	1.627214	-0.516988	-0.187095
C105	C	1.127237	-1.063907	-0.687106
C106	C	1.627237	-0.563907	-0.187106
C107	C	1.258705	-1.083212	-0.594531
C108	C	1.758705	-0.583212	-0.094531
C109	C	1.258678	-1.036292	-0.594515
C110	C	1.758678	-0.536292	-0.094515
C111	C	1.192934	-1.003181	-0.640804
C112	C	1.692934	-0.503181	-0.140804
C113	C	1.258376	-0.510805	-0.594369
C114	C	1.758376	-0.010805	-0.094369
C115	C	1.258339	-0.463883	-0.594354
C116	C	1.758339	0.036117	-0.094354
C117	C	1.126874	-0.444582	-0.686933
C118	C	1.626874	0.055418	-0.186933
C119	C	1.126908	-0.491500	-0.686945
C120	C	1.626908	0.008500	-0.186945
C121	C	1.192666	-0.524611	-0.640661
C122	C	1.692666	-0.024611	-0.140661
O123	O	1.071079	-0.557523	-0.726286
O124	O	1.571079	-0.057523	-0.226286
O125	O	1.314336	-0.593273	-0.555041
O126	O	1.814336	-0.093273	-0.055041
C127	C	1.258553	-0.797002	-0.594462
C128	C	1.758553	-0.297002	-0.094462
C129	C	1.192838	-0.810807	-0.640759
C130	C	1.692838	-0.310807	-0.140759
C131	C	1.127095	-0.777696	-0.687039
C132	C	1.627095	-0.277696	-0.187039
C133	C	1.192861	-0.857726	-0.640770
C134	C	1.692861	-0.357726	-0.140770
C135	C	1.258605	-0.890837	-0.594490
C136	C	1.758605	-0.390837	-0.094490
C137	C	1.324325	-0.877030	-0.548199
C138	C	1.824325	-0.377030	-0.048199
C139	C	1.324296	-0.830113	-0.548182
C140	C	1.824296	-0.330113	-0.048182
C141	C	1.061375	-0.791503	-0.733330
C142	C	1.561375	-0.291503	-0.233330
C143	C	1.061408	-0.838420	-0.733342
C144	C	1.561408	-0.338420	-0.233342
C145	C	1.127152	-0.871532	-0.687062
C146	C	1.627152	-0.371532	-0.187062
C147	C	1.421205	-0.280445	-0.680186
C148	C	1.921205	0.219555	-0.180186
C149	C	1.518565	-0.287401	-0.697016
C150	C	2.018565	0.212599	-0.197016
C151	C	1.153272	-0.240982	-0.869188
C152	C	1.653272	0.259018	-0.369188
C153	C	1.136455	-0.231121	-0.966559
C154	C	1.636455	0.268879	-0.466559
C155	C	1.192907	-0.146950	-0.640786
C156	C	1.692907	0.353050	-0.140786
C157	C	1.192981	-0.097019	-0.640826
C158	C	1.692981	0.402981	-0.140826
C159	C	1.312957	-0.334255	-1.279667
C160	C	1.812957	0.165745	-0.779667
C161	C	1.328753	-0.343522	-1.188181
C162	C	1.828753	0.156478	-0.688181
C163	C	1.280680	-0.315422	-1.132771
C164	C	1.780680	0.184578	-0.632771
C165	C	1.216808	-0.278054	-1.168856
C166	C	1.716808	0.221946	-0.668856
C167	C	1.201006	-0.268788	-1.260350
C168	C	1.701006	0.231212	-0.760350
C169	C	1.168729	-0.249956	-1.113454
C170	C	1.668729	0.250044	-0.613454
C171	C	1.104857	-0.212588	-1.149539
C172	C	1.604857	0.287412	-0.649539
C173	C	1.089058	-0.203323	-1.241025
C174	C	1.589058	0.296677	-0.741025
C175	C	1.137131	-0.231423	-1.296435
C176	C	1.637131	0.268577	-0.796435
C177	C	1.184531	-0.259222	-1.021960
C178	C	1.684531	0.240778	-0.521960
C179	C	1.072580	-0.193756	-1.002643
C180	C	1.572580	0.306244	-0.502643
C181	C	1.056784	-0.184488	-1.094129
C182	C	1.556784	0.315512	-0.594129
C183	C	1.232096	-0.287143	-0.413093
C184	C	1.732096	0.212857	0.086907
C185	C	1.249082	-0.296889	-0.315752
C186	C	1.749082	0.203111	0.184248
H187	H	0.841725	-0.282242	-0.684520
H188	H	1.341725	0.217758	-0.184520
F189	F	1.328673	-1.118460	-0.545273
F190	F	1.828673	-0.618460	-0.045273
F191	F	1.120325	-0.221561	-1.393807
F192	F	1.620325	0.278439	-0.893807
H193	H	1.007799	-0.708894	-0.771016
H194	H	1.507799	-0.208894	-0.271016
F195	F	0.991454	-0.853105	-0.782623
F196	F	1.491454	-0.353105	-0.282623
H197	H	0.463432	-0.235859	-0.572328
H198	H	0.963432	0.264141	-0.072328
H199	H	1.311856	-0.452647	-0.556646
H200	H	1.811856	0.047353	-0.056646
H201	H	0.776015	-0.305779	-0.741464
H202	H	1.276015	0.194221	-0.241464
F203	F	1.056910	-0.409335	-0.736187
F204	F	1.556910	0.090665	-0.236187
F205	F	0.988809	-0.144720	-1.132545
F206	F	1.488809	0.355280	-0.632545
F207	F	1.021405	-0.163852	-0.943675
F208	F	1.521405	0.336148	-0.443675
F209	F	0.684476	-0.348382	-0.844530
F210	F	1.184476	0.151618	-0.344530
H211	H	0.509490	-0.329937	-0.799915
H212	H	1.009490	0.170063	-0.299915
H213	H	1.073396	-0.502739	-0.724650
H214	H	1.573396	-0.002739	-0.224650
H215	H	0.563993	-0.199854	-0.485193
H216	H	1.063993	0.300146	0.014807
H217	H	1.073675	-0.990031	-0.724790
H218	H	1.573675	-0.490031	-0.224790
H219	H	1.380749	-0.373951	-1.158806
H220	H	1.880749	0.126049	-0.658806
F221	F	0.701863	-0.179934	-0.437026
F222	F	1.201863	0.320066	0.062974
F223	F	0.890716	-0.193417	-0.469616
F224	F	1.390716	0.306583	0.030384
H225	H	1.311924	-0.537759	-0.556683
H226	H	1.811924	-0.037759	-0.056683
F227	F	1.394246	-0.815428	-0.498904
F228	F	1.894246	-0.315428	0.001096
F229	F	1.394165	-0.674679	-0.498863
F230	F	1.894165	-0.174679	0.001137
H231	H	1.377779	-0.763236	-0.510462
H232	H	1.877779	-0.263236	-0.010462
F233	F	0.991398	-0.756268	-0.782591
F234	F	1.491398	-0.256268	-0.282591
F235	F	1.328624	-1.021605	-0.545236
F236	F	1.828624	-0.521605	-0.045236
F237	F	1.057282	-1.078593	-0.736375
F238	F	1.557282	-0.578593	-0.236375
H239	H	1.007765	-0.623784	-0.771000
H240	H	1.507765	-0.123784	-0.271000
F241	F	1.394292	-0.912278	-0.498941
F242	F	1.894292	-0.412278	0.001059
F243	F	1.252507	-0.298991	-0.983566
F244	F	1.752507	0.201009	-0.483566
H245	H	1.293544	-0.322971	-1.058280
H246	H	1.793544	0.177029	-0.558280
H247	H	1.352085	-0.357132	-1.324788
H248	H	1.852085	0.142868	-0.824788
F249	F	1.021051	-0.163565	-1.279421
F250	F	1.521051	0.336435	-0.779421
