data_functionalizedCrystal
_audit_creation_method	'MofGen! by Chris Wilmer'
_symmetry_space_group_name_H-M	'P1'
_symmetry_Int_Tables_number	1
_symmetry_cell_setting	triclinic
loop_
_symmetry_equiv_pos_as_xyz
  x,y,z
_cell_length_a	19.188933
_cell_length_b	19.188940
_cell_length_c	17.666332
_cell_angle_alpha	89.994337
_cell_angle_beta	89.992162
_cell_angle_gamma	83.147142
loop_
_atom_site_label
_atom_site_type_symbol
_atom_site_fract_x
_atom_site_fract_y
_atom_site_fract_z
O1	O	0.926152	0.087174	-0.062924
O2	O	1.426152	0.587174	0.437076
O3	O	0.722841	0.098906	-0.062931
O4	O	1.222841	0.598906	0.437069
O5	O	0.830360	-0.008615	-0.062921
O6	O	1.330360	0.491385	0.437079
O7	O	0.818633	0.194695	-0.062933
O8	O	1.318633	0.694695	0.437067
O9	O	0.830341	-0.008618	0.062975
O10	O	1.330341	0.491382	0.562975
O11	O	0.722822	0.098903	0.062966
O12	O	1.222822	0.598903	0.562966
O13	O	0.926133	0.087170	0.062973
O14	O	1.426133	0.587170	0.562973
Cu15	Cu	0.824476	0.093037	0.074465
Cu16	Cu	1.324476	0.593037	0.574465
Cu17	Cu	0.824498	0.093040	-0.074423
Cu18	Cu	1.324498	0.593040	0.425577
O19	O	0.818614	0.194692	0.062963
O20	O	1.318614	0.694692	0.562963
C21	C	0.696821	0.098525	0.000017
C22	C	1.196821	0.598525	0.500017
C23	C	0.619316	0.097383	0.000014
C24	C	1.119316	0.597383	0.500014
C25	C	0.066071	0.089240	-0.068604
C26	C	0.566071	0.589240	0.431396
C27	C	0.138895	0.090308	-0.068607
C28	C	0.638895	0.590308	0.431393
C29	C	0.175302	0.090844	0.000019
C30	C	0.675302	0.590844	0.500019
C31	C	0.138881	0.090293	0.068653
C32	C	0.638881	0.590293	0.568653
C33	C	0.066059	0.089218	0.068654
C34	C	0.566059	0.589218	0.568654
N35	N	0.284315	0.132261	0.051098
N36	N	0.784315	0.632261	0.551098
N37	N	0.353493	0.133283	0.051093
N38	N	0.853493	0.633283	0.551093
C39	C	0.394711	0.094081	0.000020
C40	C	0.894711	0.594081	0.500020
N41	N	0.364136	0.053827	-0.051058
N42	N	0.864136	0.553827	0.448942
N43	N	0.294951	0.052807	-0.051054
N44	N	0.794951	0.552807	0.448946
C45	C	0.254265	0.092009	0.000026
C46	C	0.754265	0.592009	0.500026
C47	C	0.510088	0.095785	-0.068613
C48	C	1.010088	0.595785	0.431387
C49	C	0.582914	0.096849	-0.068613
C50	C	1.082914	0.596849	0.431387
C51	C	0.582897	0.096841	0.068649
C52	C	1.082897	0.596841	0.568649
C53	C	0.510074	0.095770	0.068648
C54	C	1.010074	0.595770	0.568648
C55	C	0.473673	0.095246	0.000014
C56	C	0.973673	0.595246	0.500014
C57	C	0.829970	-0.034628	0.000027
C58	C	1.329970	0.465372	0.500027
C59	C	0.828826	-0.112132	0.000026
C60	C	1.328826	0.387868	0.500026
C61	C	0.820681	-0.665393	0.068635
C62	C	1.320681	-0.165393	0.568635
C63	C	0.821748	-0.592568	0.068639
C64	C	1.321748	-0.092568	0.568639
C65	C	0.822295	-0.556147	0.000013
C66	C	1.322295	-0.056147	0.500013
C67	C	0.821757	-0.592554	-0.068621
C68	C	1.321757	-0.092554	0.431379
C69	C	0.820683	-0.665376	-0.068624
C70	C	1.320683	-0.165376	0.431376
N71	N	0.863719	-0.447122	-0.051065
N72	N	1.363719	0.052878	0.448935
N73	N	0.864740	-0.377944	-0.051058
N74	N	1.364740	0.122056	0.448942
C75	C	0.825529	-0.336738	0.000016
C76	C	1.325529	0.163262	0.500016
N77	N	0.785266	-0.367324	0.051094
N78	N	1.285266	0.132676	0.551094
N79	N	0.784247	-0.436509	0.051090
N80	N	1.284247	0.063491	0.551090
C81	C	0.823459	-0.477184	0.000008
C82	C	1.323459	0.022816	0.500008
C83	C	0.827218	-0.221375	0.068651
C84	C	1.327218	0.278625	0.568651
C85	C	0.828281	-0.148548	0.068653
C86	C	1.328281	0.351452	0.568653
C87	C	0.828297	-0.148536	-0.068610
C88	C	1.328297	0.351464	0.431390
C89	C	0.827227	-0.221360	-0.068609
C90	C	1.327227	0.278640	0.431391
C91	C	0.826691	-0.257775	0.000023
C92	C	1.326691	0.242225	0.500023
C93	C	0.952153	0.087552	0.000024
C94	C	1.452153	0.587552	0.500024
C95	C	1.029658	0.088693	0.000021
C96	C	1.529658	0.588693	0.500021
C97	C	0.819004	0.220704	0.000013
C98	C	1.319004	0.720704	0.500013
C99	C	0.820148	0.298209	0.000009
C100	C	1.320148	0.798209	0.500009
N101	N	0.824465	0.093034	0.179184
N102	N	1.324465	0.593034	0.679184
N103	N	0.824514	0.093038	-0.179142
N104	N	1.324514	0.593038	0.320858
C105	C	0.866676	0.135279	0.218786
C106	C	1.366676	0.635279	0.718786
C107	C	0.866687	0.135277	0.298034
C108	C	1.366687	0.635277	0.798034
C109	C	0.824475	0.093038	0.337676
C110	C	1.324475	0.593038	0.837676
C111	C	0.782262	0.050783	0.298064
C112	C	1.282262	0.550783	0.798064
C113	C	0.782257	0.050781	0.218818
C114	C	1.282257	0.550781	0.718818
N115	N	0.763326	0.091317	0.462114
N116	N	1.263326	0.591317	0.962114
N117	N	0.763332	0.091323	0.537394
N118	N	1.263332	0.591323	1.037394
C119	C	0.824487	0.093040	0.576440
C120	C	1.324487	0.593040	1.076440
N121	N	0.885636	0.094765	0.537362
N122	N	1.385636	0.594765	1.037362
N123	N	0.885629	0.094762	0.462075
N124	N	1.385629	0.594762	0.962075
C125	C	0.824475	0.093035	0.423605
C126	C	1.324475	0.593035	0.923605
C127	C	0.866713	0.135285	0.701972
C128	C	1.366713	0.635285	1.201972
C129	C	0.866726	0.135278	0.781221
C130	C	1.366726	0.635278	1.281221
C131	C	0.782294	0.050789	0.781250
C132	C	1.282294	0.550789	1.281250
C133	C	0.782288	0.050792	0.702002
C134	C	1.282288	0.550792	1.202002
C135	C	0.824496	0.093044	0.662368
C136	C	1.324496	0.593044	1.162368
H137	H	0.036438	0.088810	-0.124490
H138	H	0.536438	0.588810	0.375510
H139	H	0.480425	0.095328	0.124530
H140	H	0.980425	0.595328	0.624530
H141	H	0.820244	-0.695038	0.124521
H142	H	1.320244	-0.195038	0.624521
H143	H	0.826797	-0.250997	-0.124492
H144	H	1.326797	0.249003	0.375508
H145	H	0.901060	0.169680	0.330285
H146	H	1.401060	0.669680	0.830285
N147	N	0.176090	0.090862	-0.138715
N148	N	0.676090	0.590862	0.361285
N149	N	0.143582	0.090390	-0.199987
N150	N	0.643582	0.590390	0.300013
H151	H	0.169848	0.090782	-0.249502
H152	H	0.669848	0.590782	0.250498
H153	H	0.168528	0.090728	0.124529
H154	H	0.668528	0.590728	0.624529
N155	N	0.909847	0.178430	0.661493
N156	N	1.409847	0.678430	1.161493
N157	N	0.947549	0.216132	0.696866
N158	N	1.447549	0.716132	1.196866
H159	H	0.978018	0.246598	0.668280
H160	H	1.478018	0.746598	1.168280
N161	N	0.620102	0.097398	-0.138723
N162	N	1.120102	0.597398	0.361277
N163	N	0.587590	0.096928	-0.199992
N164	N	1.087590	0.596928	0.300008
H165	H	0.613853	0.097315	-0.249509
H166	H	1.113853	0.597315	0.250491
N167	N	0.822287	-0.555388	0.138748
N168	N	1.322287	-0.055388	0.638748
N169	N	0.821804	-0.587909	0.200019
N170	N	1.321804	-0.087909	0.700019
H171	H	0.822184	-0.561653	0.249535
H172	H	1.322184	-0.061653	0.749535
N173	N	0.620074	0.097399	0.138751
N174	N	1.120074	0.597399	0.638751
N175	N	0.605352	0.146481	0.184702
N176	N	1.105352	0.646481	0.684702
H177	H	0.631612	0.146874	0.234214
H178	H	1.131612	0.646874	0.734214
H179	H	0.822200	-0.562895	-0.124497
H180	H	1.322200	-0.062895	0.375503
N181	N	0.028871	0.088673	0.138765
N182	N	0.528871	0.588673	0.638765
N183	N	0.030420	0.137994	0.184714
N184	N	0.530420	0.637994	0.684714
H185	H	0.004156	0.137612	0.234232
H186	H	0.504156	0.637612	0.734232
N187	N	0.739141	0.007629	0.338542
N188	N	1.239141	0.507629	0.838542
N189	N	0.747701	-0.057460	0.329698
N190	N	1.247701	0.442540	0.829698
H191	H	0.717247	-0.087942	0.358284
H192	H	1.217247	0.412058	0.858284
N193	N	0.472912	0.095245	-0.138722
N194	N	0.972912	0.595245	0.361278
N195	N	0.505437	0.095724	-0.199993
N196	N	1.005437	0.595724	0.300007
H197	H	0.479184	0.095341	-0.249509
H198	H	0.979184	0.595341	0.250491
N199	N	0.820135	-0.702549	-0.138733
N200	N	1.320135	-0.202549	0.361267
N201	N	0.820617	-0.670025	-0.200003
N202	N	1.320617	-0.170025	0.299997
H203	H	0.820231	-0.696279	-0.249520
H204	H	1.320231	-0.196279	0.250480
H205	H	0.826776	-0.251025	0.124536
H206	H	1.326776	0.248975	0.624536
H207	H	0.828713	-0.118913	0.124538
H208	H	1.328713	0.381087	0.624538
H209	H	0.828734	-0.118882	-0.124486
H210	H	1.328734	0.381118	0.375514
N211	N	0.909782	0.178452	0.178314
N212	N	1.409782	0.678452	0.678314
N213	N	0.947461	0.216176	0.213690
N214	N	1.447461	0.716176	0.713690
H215	H	0.977902	0.246671	0.185106
H216	H	1.477902	0.746671	0.685106
N217	N	0.739138	0.007618	0.178373
N218	N	1.239138	0.507618	0.678373
N219	N	0.701457	-0.030101	0.213772
N220	N	1.201457	0.469899	0.713772
H221	H	0.671004	-0.060586	0.185207
H222	H	1.171004	0.439414	0.685207
H223	H	0.901104	0.169678	0.813464
H224	H	1.401104	0.669678	1.313464
N225	N	0.739183	0.007642	0.821745
N226	N	1.239183	0.507642	1.321745
N227	N	0.739193	0.007647	0.892500
N228	N	1.239193	0.507647	1.392500
H229	H	0.708746	-0.022828	0.921104
H230	H	1.208746	0.477172	1.421104
H231	H	0.747913	0.016394	0.669758
H232	H	1.247913	0.516394	1.169758
