data_functionalizedCrystal
_audit_creation_method	'MofGen! by Chris Wilmer'
_symmetry_space_group_name_H-M	'P1'
_symmetry_Int_Tables_number	1
_symmetry_cell_setting	triclinic
loop_
_symmetry_equiv_pos_as_xyz
  x,y,z
_cell_length_a	15.298068
_cell_length_b	15.297327
_cell_length_c	12.759401
_cell_angle_alpha	80.337164
_cell_angle_beta	99.701840
_cell_angle_gamma	110.796215
loop_
_atom_site_label
_atom_site_type_symbol
_atom_site_fract_x
_atom_site_fract_y
_atom_site_fract_z
Zn1	Zn	1.357607	-0.124747	0.893292
Zn2	Zn	1.857607	0.375253	1.393292
Zn3	Zn	1.330601	-0.280249	0.743473
Zn4	Zn	1.830601	0.219751	1.243473
Zn5	Zn	1.202110	-0.151601	0.691634
Zn6	Zn	1.702110	0.348399	1.191634
Zn7	Zn	1.175116	-0.307110	0.893120
Zn8	Zn	1.675116	0.192890	1.393120
O9	O	1.266359	-0.215927	0.805380
O10	O	1.766359	0.284073	1.305380
O11	O	1.484172	-0.122895	0.895185
O12	O	1.984172	0.377105	1.395185
O13	O	1.313552	-0.263181	0.589574
O14	O	1.813552	0.236819	1.089574
O15	O	1.245336	-0.017880	0.696762
O16	O	1.745336	0.482120	1.196762
O17	O	1.464331	-0.237142	0.785113
O18	O	1.964331	0.262858	1.285113
O19	O	1.359580	0.001850	0.844919
O20	O	1.859580	0.501850	1.344919
O21	O	1.219150	-0.168664	0.551488
O22	O	1.719150	0.331336	1.051488
O23	O	1.068382	-0.194710	0.696596
O24	O	1.568382	0.305290	1.196596
O25	O	1.199328	-0.282921	1.040166
O26	O	1.699328	0.217079	1.540166
O27	O	1.048549	-0.308961	0.844626
O28	O	1.548549	0.191039	1.344626
O29	O	1.333404	-0.148940	1.040292
O30	O	1.833404	0.351060	1.540292
O31	O	1.287376	-0.413971	0.784946
O32	O	1.787376	0.086029	1.284946
O33	O	1.173142	-0.433706	0.894892
O34	O	1.673142	0.066294	1.394892
C35	C	1.024719	-0.257665	0.764968
C36	C	1.524719	0.242335	1.264968
C37	C	0.921341	-0.275543	0.747708
C38	C	1.421341	0.224457	1.247708
C39	C	0.671195	-0.088382	0.928779
C40	C	1.171195	0.411618	1.428779
C41	C	0.768323	-0.071587	0.945002
C42	C	1.268323	0.428413	1.445002
C43	C	0.806583	-0.122574	0.895680
C44	C	1.306583	0.377426	1.395680
C45	C	0.747704	-0.190360	0.830132
C46	C	1.247704	0.309640	1.330132
C47	C	0.650565	-0.207162	0.813914
C48	C	1.150565	0.292838	1.313914
C49	C	0.785953	-0.241354	0.780815
C50	C	1.285953	0.258646	1.280815
C51	C	0.727074	-0.309140	0.715268
C52	C	1.227074	0.190860	1.215268
C53	C	0.629945	-0.325938	0.699052
C54	C	1.129945	0.174062	1.199052
C55	C	0.591685	-0.274950	0.748374
C56	C	1.091685	0.225050	1.248374
C57	C	0.883092	-0.224552	0.797033
C58	C	1.383092	0.275448	1.297033
C59	C	0.862462	-0.343332	0.682168
C60	C	1.362462	0.156668	1.182168
C61	C	0.765333	-0.360127	0.665945
C62	C	1.265333	0.139873	1.165945
C63	C	1.224424	-0.457583	0.845553
C64	C	1.724424	0.042417	1.345553
C65	C	1.206570	-0.560950	0.862788
C66	C	1.706570	-0.060950	1.362788
C67	C	1.394351	-0.811065	0.682617
C68	C	1.894351	-0.311065	1.182617
C69	C	1.411125	-0.713946	0.666418
C70	C	1.911125	-0.213946	1.166418
C71	C	1.359988	-0.675692	0.715510
C72	C	1.859988	-0.175692	1.215510
C73	C	1.292073	-0.734566	0.780802
C74	C	1.792073	-0.234566	1.280802
C75	C	1.275291	-0.831695	0.796996
C76	C	1.775291	-0.331695	1.296996
C77	C	1.240929	-0.696323	0.829889
C78	C	1.740929	-0.196323	1.329889
C79	C	1.173014	-0.755197	0.895181
C80	C	1.673014	-0.255197	1.395181
C81	C	1.156236	-0.852315	0.911373
C82	C	1.656236	-0.352315	1.411373
C83	C	1.207373	-0.890569	0.862282
C84	C	1.707373	-0.390569	1.362282
C85	C	1.257711	-0.599194	0.813695
C86	C	1.757711	-0.099194	1.313695
C87	C	1.138651	-0.619824	0.928074
C88	C	1.638651	-0.119824	1.428074
C89	C	1.121877	-0.716943	0.944273
C90	C	1.621877	-0.216943	1.444273
C91	C	1.508941	-0.174026	0.845950
C92	C	2.008941	0.325974	1.345950
C93	C	1.612315	-0.156171	0.863239
C94	C	2.112315	0.343829	1.363239
C95	C	1.266368	-0.215931	1.079416
C96	C	1.766368	0.284069	1.579416
C97	C	1.266372	-0.215933	1.196194
C98	C	1.766372	0.284067	1.696194
C99	C	1.308482	0.026677	0.765077
C100	C	1.808482	0.526677	1.265077
C101	C	1.326432	0.130061	0.747903
C102	C	1.826432	0.630061	1.247903
C103	C	1.336176	-0.146180	1.251123
C104	C	1.836176	0.353820	1.751123
C105	C	1.336168	-0.146180	1.360846
C106	C	1.836168	0.353820	1.860846
C107	C	1.196548	-0.285694	1.360700
C108	C	1.696548	0.214306	1.860700
C109	C	1.196553	-0.285690	1.250978
C110	C	1.696553	0.214310	1.750978
C111	C	1.266345	-0.215943	1.532413
C112	C	1.766345	0.284057	2.032413
C113	C	1.266359	-0.215937	1.415638
C114	C	1.766359	0.284063	1.915638
H115	H	0.582006	-0.381140	0.645688
H116	H	1.082006	0.118860	1.145688
H117	H	0.512595	-0.288627	0.735177
H118	H	1.012595	0.211373	1.235177
O119	O	1.121251	-0.360929	1.419797
O120	O	1.621251	0.139071	1.919797
H121	H	1.072706	-0.409426	1.363162
H122	H	1.572706	0.090574	1.863162
H123	H	0.717381	-0.415319	0.612577
H124	H	1.217381	0.084681	1.112577
H125	H	1.139703	-0.342491	1.206252
H126	H	1.639703	0.157509	1.706252
O127	O	1.083477	-0.578584	0.981018
O128	O	1.583477	-0.078584	1.481018
H129	H	1.096144	-0.594447	1.069250
H130	H	1.596144	-0.094447	1.569250
H131	H	0.640033	-0.046881	0.968937
H132	H	1.140033	0.453119	1.468937
H133	H	0.893611	-0.384854	0.642012
H134	H	1.393611	0.115146	1.142012
H135	H	0.931022	-0.169360	0.850401
H136	H	1.431022	0.330640	1.350401
O137	O	1.484371	-0.650454	0.595998
O138	O	1.984371	-0.150454	1.095998
H139	H	1.487442	-0.576494	0.592974
H140	H	1.987442	-0.076494	1.092974
H141	H	1.313008	-0.551267	0.760532
H142	H	1.813008	-0.051267	1.260532
H143	H	1.393009	-0.089379	1.405564
H144	H	1.893009	0.410621	1.905564
O145	O	0.911345	-0.104448	0.913150
O146	O	1.411345	0.395552	1.413150
H147	H	0.945862	-0.048737	0.967001
H148	H	1.445862	0.451263	1.467001
O149	O	0.831822	0.001533	1.015679
O150	O	1.331822	0.501533	1.515679
H151	H	0.810407	-0.017748	1.097666
H152	H	1.310407	0.482252	1.597666
O153	O	1.378085	-0.570942	0.698054
O154	O	1.878085	-0.070942	1.198054
H155	H	1.433908	-0.536429	0.644415
H156	H	1.933908	-0.036429	1.144415
H157	H	1.435974	-0.842222	0.642647
H158	H	1.935974	-0.342222	1.142647
H159	H	1.193721	-0.969650	0.875470
H160	H	1.693721	-0.469650	1.375470
H161	H	1.100924	-0.900251	0.964525
H162	H	1.600924	-0.400251	1.464525
H163	H	1.066579	-0.764891	0.997434
H164	H	1.566579	-0.264891	1.497434
H165	H	1.393025	-0.089378	1.206520
H166	H	1.893025	0.410622	1.706520
