data_functionalizedCrystal
_audit_creation_method	'MofGen! by Chris Wilmer'
_symmetry_space_group_name_H-M	'P1'
_symmetry_Int_Tables_number	1
_symmetry_cell_setting	triclinic
loop_
_symmetry_equiv_pos_as_xyz
  x,y,z
_cell_length_a	16.625548
_cell_length_b	16.120484
_cell_length_c	16.625539
_cell_angle_alpha	87.131385
_cell_angle_beta	90.020568
_cell_angle_gamma	92.926626
loop_
_atom_site_label
_atom_site_type_symbol
_atom_site_fract_x
_atom_site_fract_y
_atom_site_fract_z
Zn1	Zn	1.216388	-0.331882	0.472167
Zn2	Zn	1.549721	0.001451	0.805500
Zn3	Zn	1.883055	0.334784	1.138834
Zn4	Zn	1.209447	-0.471307	0.344164
Zn5	Zn	1.542780	-0.137974	0.677497
Zn6	Zn	1.876113	0.195360	1.010831
Zn7	Zn	1.081548	-0.331914	0.337349
Zn8	Zn	1.414882	0.001419	0.670682
Zn9	Zn	1.748215	0.334752	1.004016
Zn10	Zn	1.074678	-0.471259	0.478951
Zn11	Zn	1.408011	-0.137926	0.812285
Zn12	Zn	1.741345	0.195408	1.145618
O13	O	1.145515	-0.401591	0.408158
O14	O	1.478849	-0.068257	0.741491
O15	O	1.812182	0.265076	1.074824
O16	O	1.328299	-0.350384	0.455200
O17	O	1.661633	-0.017051	0.788533
O18	O	1.994966	0.316283	1.121866
O19	O	1.192451	-0.452849	0.230429
O20	O	1.525784	-0.119516	0.563762
O21	O	1.859118	0.213817	0.897096
O22	O	1.105215	-0.215244	0.349541
O23	O	1.438548	0.118089	0.682875
O24	O	1.771882	0.451423	1.016208
O25	O	1.323200	-0.452819	0.361156
O26	O	1.656533	-0.119485	0.694490
O27	O	1.989866	0.213848	1.027823
O28	O	1.204281	-0.215221	0.448592
O29	O	1.537615	0.118113	0.781925
O30	O	1.870948	0.451446	1.115258
O31	O	1.098484	-0.350438	0.225422
O32	O	1.431818	-0.017105	0.558755
O33	O	1.765151	0.316228	0.892089
O34	O	0.967805	-0.350392	0.356120
O35	O	1.301138	-0.017059	0.689453
O36	O	1.634472	0.316275	1.022787
O37	O	1.093506	-0.452737	0.590882
O38	O	1.426839	-0.119404	0.924216
O39	O	1.760173	0.213930	1.257549
O40	O	0.962757	-0.452768	0.460155
O41	O	1.296091	-0.119435	0.793488
O42	O	1.629424	0.213899	1.126821
O43	O	1.197620	-0.350338	0.585898
O44	O	1.530953	-0.017004	0.919231
O45	O	1.864286	0.316329	1.252564
O46	O	1.185789	-0.587966	0.367735
O47	O	1.519123	-0.254633	0.701068
O48	O	1.852456	0.078700	1.034402
O49	O	1.086775	-0.587931	0.466763
O50	O	1.420109	-0.254598	0.800096
O51	O	1.753442	0.078735	1.133430
C52	C	0.936025	-0.401579	0.408135
C53	C	1.269358	-0.068245	0.741468
C54	C	1.602692	0.265088	1.074801
C55	C	0.846403	-0.401594	0.408145
C56	C	1.179736	-0.068260	0.741478
C57	C	1.513070	0.265073	1.074812
C58	C	0.518227	-0.401599	0.408180
C59	C	0.851561	-0.068266	0.741513
C60	C	1.184894	0.265067	1.074846
C61	C	0.609536	-0.401595	0.408167
C62	C	0.942869	-0.068262	0.741501
C63	C	1.276203	0.265071	1.074834
C64	C	0.682312	-0.401597	0.408162
C65	C	1.015646	-0.068264	0.741495
C66	C	1.348979	0.265070	1.074828
C67	C	0.773627	-0.401592	0.408150
C68	C	1.106960	-0.068259	0.741484
C69	C	1.440293	0.265074	1.074817
C70	C	1.134805	-0.618199	0.418742
C71	C	1.468139	-0.284866	0.752076
C72	C	1.801472	0.048468	1.085409
C73	C	1.130297	-0.710865	0.423297
C74	C	1.463631	-0.377532	0.756631
C75	C	1.796964	-0.044198	1.089964
C76	C	1.122072	-0.880527	0.431630
C77	C	1.455405	-0.547193	0.764964
C78	C	1.788738	-0.213860	1.098297
C79	C	1.169103	-0.921814	0.384698
C80	C	1.502437	-0.588481	0.718032
C81	C	1.835770	-0.255147	1.051365
C82	C	1.164526	-1.016220	0.389335
C83	C	1.497860	-0.682886	0.722668
C84	C	1.831193	-0.349553	1.056001
C85	C	1.126648	-0.786113	0.426995
C86	C	1.459981	-0.452779	0.760328
C87	C	1.793314	-0.119446	1.093662
C88	C	1.355823	-0.401603	0.408181
C89	C	1.689157	-0.068270	0.741515
C90	C	2.022490	0.265063	1.074848
C91	C	1.445444	-0.401609	0.408192
C92	C	1.778778	-0.068275	0.741525
C93	C	2.112111	0.265058	1.074858
C94	C	1.145571	-0.401529	0.618464
C95	C	1.478904	-0.068195	0.951797
C96	C	1.812237	0.265138	1.285130
C97	C	1.145594	-0.401502	0.708084
C98	C	1.478928	-0.068169	1.041417
C99	C	1.812261	0.265165	1.374750
C100	C	1.156289	-0.184136	0.397549
C101	C	1.489622	0.149197	0.730883
C102	C	1.822956	0.482530	1.064216
C103	C	1.160880	-0.091470	0.393029
C104	C	1.494213	0.241863	0.726362
C105	C	1.827547	0.575196	1.059696
C106	C	1.145509	-0.401592	0.198667
C107	C	1.478843	-0.068259	0.532000
C108	C	1.812176	0.265074	0.865334
C109	C	1.145653	-0.401384	0.109036
C110	C	1.478987	-0.068051	0.442369
C111	C	1.812320	0.265283	0.775703
C112	C	1.145636	-0.401409	1.036255
C113	C	1.478969	-0.068075	1.369588
C114	C	1.812303	0.265258	1.702922
C115	C	1.145622	-0.401437	0.944948
C116	C	1.478955	-0.068104	1.278281
C117	C	1.812289	0.265229	1.611614
C118	C	1.145616	-0.401456	0.872172
C119	C	1.478949	-0.068123	1.205506
C120	C	1.812282	0.265211	1.538839
C121	C	1.145601	-0.401483	0.780859
C122	C	1.478934	-0.068150	1.114193
C123	C	1.812268	0.265183	1.447526
H124	H	1.078373	-0.916078	0.475288
H125	H	1.411706	-0.582745	0.808622
H126	H	1.745039	-0.249412	1.141955
C127	C	1.228135	-0.873790	0.325702
C128	C	1.561468	-0.540457	0.659036
C129	C	1.894801	-0.207123	0.992369
C130	C	1.232681	-0.778019	0.321081
C131	C	1.566014	-0.444686	0.654415
C132	C	1.899348	-0.111352	0.987748
C133	C	1.291705	-0.729991	0.262084
C134	C	1.625039	-0.396658	0.595417
C135	C	1.958372	-0.063325	0.928750
C136	C	1.346183	-0.777735	0.207707
C137	C	1.679516	-0.444401	0.541040
C138	C	2.012850	-0.111068	0.874374
C139	C	1.341638	-0.873511	0.212326
C140	C	1.674972	-0.540178	0.545660
C141	C	2.008305	-0.206845	0.878993
C142	C	1.282614	-0.921539	0.271324
C143	C	1.615947	-0.588206	0.604657
C144	C	1.949281	-0.254872	0.937991
H145	H	1.192352	-0.742672	0.361336
H146	H	1.525685	-0.409338	0.694669
H147	H	1.859019	-0.076005	1.028002
H148	H	1.295069	-0.659091	0.258664
H149	H	1.628403	-0.325758	0.591998
H150	H	1.961736	0.007576	0.925331
H151	H	1.389876	-0.742182	0.164033
H152	H	1.723209	-0.408849	0.497367
H153	H	2.056543	-0.075515	0.830700
H154	H	1.381968	-0.908859	0.172072
H155	H	1.715301	-0.575525	0.505405
H156	H	2.048634	-0.242192	0.838738
H157	H	1.279250	-0.992439	0.274743
H158	H	1.612583	-0.659106	0.608076
H159	H	1.945917	-0.325773	0.941410
