data_functionalizedCrystal
_audit_creation_method	'MofGen! by Chris Wilmer'
_symmetry_space_group_name_H-M	'P1'
_symmetry_Int_Tables_number	1
_symmetry_cell_setting	triclinic
loop_
_symmetry_equiv_pos_as_xyz
  x,y,z
_cell_length_a	17.640112
_cell_length_b	12.645330
_cell_length_c	17.640968
_cell_angle_alpha	101.228407
_cell_angle_beta	87.860920
_cell_angle_gamma	101.241872
loop_
_atom_site_label
_atom_site_type_symbol
_atom_site_fract_x
_atom_site_fract_y
_atom_site_fract_z
Zn1	Zn	1.247780	-0.030458	0.195081
Zn2	Zn	1.222027	-0.249165	0.068107
Zn3	Zn	1.095118	-0.099415	0.093730
Zn4	Zn	1.120767	-0.235211	0.220689
O5	O	1.171423	-0.153562	0.144402
O6	O	1.350632	-0.036452	0.156798
O7	O	1.183680	-0.263999	-0.034766
O8	O	1.115413	0.058093	0.107181
O9	O	1.331711	-0.197135	0.063511
O10	O	1.227573	0.108755	0.181643
O11	O	1.090440	-0.153978	-0.015941
O12	O	0.992252	-0.140447	0.132011
O13	O	1.159127	-0.173352	0.323563
O14	O	1.011096	-0.240216	0.225287
O15	O	1.252444	-0.022921	0.304750
O16	O	1.208550	-0.395675	0.088341
O17	O	1.134155	-0.385423	0.200442
C18	C	0.974120	-0.196301	0.184209
C19	C	0.889717	-0.214604	0.201257
C20	C	0.563040	-0.014493	0.014899
C21	C	0.483733	-0.031710	0.030928
C22	C	0.503375	-0.135841	0.127889
C23	C	0.582687	-0.118628	0.111870
C24	C	0.612512	-0.057954	0.055374
C25	C	0.632159	-0.162089	0.152345
C26	C	0.711463	-0.144883	0.136325
C27	C	0.741294	-0.084215	0.079830
C28	C	0.691816	-0.040748	0.039354
C29	C	0.602331	-0.222769	0.208838
C30	C	0.651804	-0.266231	0.249313
C31	C	0.731110	-0.249018	0.233297
C32	C	0.760941	-0.188350	0.176801
C33	C	0.780588	-0.292485	0.273773
C34	C	0.859892	-0.275278	0.257753
C35	C	0.840245	-0.171143	0.160781
C36	C	1.171365	-0.429008	0.144402
C37	C	1.171415	-0.546821	0.144414
C38	C	1.124892	-0.707868	0.215069
C39	C	1.124554	-0.585435	0.214940
C40	C	1.133571	-0.622203	0.068749
C41	C	1.133287	-0.744763	0.069178
C42	C	1.256009	-0.689787	0.148703
C43	C	1.255870	-0.566716	0.150553
C44	C	1.369496	-0.110658	0.104440
C45	C	1.453902	-0.092374	0.087410
C46	C	1.211520	-0.088888	0.342482
C47	C	1.228606	-0.061328	0.426892
C48	C	1.171505	0.122968	0.144414
C49	C	1.171539	0.240809	0.144419
C50	C	1.131526	-0.217899	-0.052917
C51	C	1.114586	-0.245129	-0.137356
C52	C	1.041907	-0.362295	0.753477
C53	C	1.057979	-0.336381	0.832790
C54	C	1.155141	-0.179751	0.813190
C55	C	1.139075	-0.205649	0.733875
C56	C	1.082458	-0.296923	0.704024
C57	C	1.179626	-0.140276	0.684422
C58	C	1.163563	-0.166176	0.605113
C59	C	1.106950	-0.257448	0.575256
C60	C	1.066395	-0.322822	0.624715
C61	C	1.236246	-0.049007	0.714273
C62	C	1.276797	0.016366	0.664821
C63	C	1.260731	-0.009529	0.585511
C64	C	1.204118	-0.100801	0.555654
C65	C	1.301286	0.055846	0.536052
C66	C	1.285224	0.029947	0.456742
C67	C	1.188056	-0.126700	0.476345
H68	H	0.805869	-0.070209	0.066786
H69	H	1.150106	-0.532996	0.271552
H70	H	1.201241	-0.105438	0.837505
Br71	Br	1.029568	-0.823233	0.059989
H72	H	1.062259	-0.573532	0.213380
H73	H	1.249324	-0.027925	0.778852
H74	H	0.587328	0.034933	-0.031095
Br75	Br	0.494701	-0.246143	0.230568
H76	H	1.164912	-0.780360	0.015614
Br77	Br	1.314272	-0.745649	0.062621
H78	H	1.150358	-0.714958	0.271900
Br79	Br	1.085155	-0.292608	0.467620
Br80	Br	1.308280	-0.702881	0.237677
Br81	Br	1.353636	0.140229	0.705338
H82	H	0.756290	-0.341894	0.319767
Br83	Br	0.416590	0.027267	-0.024018
H84	H	0.900174	-0.310667	0.290713
H85	H	0.716104	0.008678	-0.006640
H86	H	1.318243	0.083181	0.416477
Br87	Br	1.378131	0.179700	0.576570
H88	H	1.063004	-0.755963	0.213607
Br89	Br	1.002938	-0.425111	0.899904
H90	H	0.479080	-0.185245	0.173886
H91	H	0.864533	-0.121717	0.114788
Br92	Br	1.187210	-0.583172	-0.020204
Br93	Br	1.030764	-0.601785	0.058829
H94	H	1.141934	-0.201003	0.452043
Br95	Br	0.611316	-0.348591	0.325972
H96	H	1.284115	-0.514821	0.206159
H97	H	1.020274	-0.397126	0.600414
H98	H	1.293751	-0.539069	0.101554
H99	H	0.995786	-0.436599	0.729175
