data_functionalizedCrystal
_audit_creation_method	'MofGen! by Chris Wilmer'
_symmetry_space_group_name_H-M	'P1'
_symmetry_Int_Tables_number	1
_symmetry_cell_setting	triclinic
loop_
_symmetry_equiv_pos_as_xyz
  x,y,z
_cell_length_a	8.559649
_cell_length_b	27.732048
_cell_length_c	7.088929
_cell_angle_alpha	83.823277
_cell_angle_beta	95.325015
_cell_angle_gamma	76.210660
loop_
_atom_site_label
_atom_site_type_symbol
_atom_site_fract_x
_atom_site_fract_y
_atom_site_fract_z
O1	O	2.103996	-0.010831	-0.158953
O2	O	1.638173	0.014155	-0.158972
O3	O	1.885556	-0.069240	-0.158925
O4	O	1.856614	0.072564	-0.158999
O5	O	1.918617	-0.080408	0.159056
O6	O	1.671234	0.002988	0.159009
O7	O	2.137057	-0.021999	0.159029
Cu8	Cu	1.907164	-0.010525	0.188053
Cu9	Cu	1.868066	0.002682	-0.187997
O10	O	1.889674	0.061397	0.158982
C11	C	1.595127	0.010465	0.000017
C12	C	1.417607	0.016101	0.000011
C13	C	1.901480	-0.092810	0.000071
C14	C	1.899652	-0.146402	0.000086
C15	C	2.034313	-0.489909	-0.000006
C16	C	2.027524	-0.691331	-0.000033
O17	O	2.150662	-0.726877	-0.000112
N18	N	1.880839	-0.705340	-0.000038
C19	C	1.735839	-0.668990	-0.000048
O20	O	1.610917	-0.685527	-0.000072
C21	C	1.742628	-0.467569	-0.000034
C22	C	1.889325	-0.453563	-0.000011
C23	C	2.180997	-0.475902	0.000015
C24	C	2.182694	-0.425550	0.000032
C25	C	2.037706	-0.389204	0.000028
C26	C	1.891021	-0.403211	0.000006
C27	C	1.597629	-0.431219	-0.000058
C28	C	1.599338	-0.380861	-0.000060
C29	C	1.746035	-0.366856	-0.000036
C30	C	1.747730	-0.316513	0.000019
N31	N	1.894415	-0.302503	0.000023
C32	C	2.039403	-0.338849	0.000028
C33	C	1.732286	-0.774740	-0.000051
C34	C	1.730588	-0.825096	-0.000051
C35	C	2.022274	-0.847433	-0.000040
C36	C	2.023971	-0.797077	-0.000026
C37	C	1.878971	-0.760731	-0.000047
C38	C	2.042956	-0.233105	0.000066
C39	C	2.044640	-0.182747	0.000091
C40	C	1.752955	-0.160414	0.000070
C41	C	1.751270	-0.210768	0.000055
C42	C	1.896283	-0.247112	0.000046
O43	O	1.624656	-0.280940	0.000076
O44	O	2.164303	-0.322300	0.000009
C45	C	2.032616	-0.540261	-0.000023
C46	C	1.885931	-0.554268	-0.000045
C47	C	1.740943	-0.517922	-0.000049
C48	C	1.884234	-0.604623	-0.000045
C49	C	2.029222	-0.640968	-0.000041
C50	C	2.175907	-0.626959	-0.000036
C51	C	2.177604	-0.576607	-0.000019
C52	C	1.594258	-0.531932	-0.000054
C53	C	1.592574	-0.582285	-0.000069
C54	C	1.737562	-0.618630	-0.000064
C55	C	2.180103	-0.018308	0.000036
C56	C	2.357622	-0.023944	0.000029
C57	C	1.873750	0.084967	-0.000018
C58	C	1.875576	0.138559	-0.000046
N59	N	1.934676	-0.019815	0.452546
N60	N	1.840568	0.011967	-0.452490
H61	H	1.442073	-0.062541	0.000040
H62	H	1.333145	0.054701	-0.000020
H63	H	2.164104	-0.171348	0.000115
C64	C	2.202479	-0.273078	0.000074
N65	N	2.322634	-0.303186	0.000096
C66	C	1.708796	0.056460	0.437185
N67	N	1.609540	0.089973	0.354075
H68	H	2.032225	-0.052749	0.534221
H69	H	2.299070	-0.505491	0.000012
C70	C	2.344071	-0.410151	0.000038
N71	N	2.465628	-0.398555	0.000035
C72	C	2.185345	-0.781676	-0.000017
N73	N	2.306898	-0.770078	-0.000017
C74	C	1.572763	-0.734764	-0.000072
N75	N	1.452610	-0.704657	-0.000082
C76	C	1.569213	-0.840496	-0.000053
N77	N	1.447658	-0.852093	-0.000067
C78	C	1.436246	-0.446612	-0.000098
N79	N	1.314683	-0.458205	-0.000134
C80	C	1.589899	-0.226175	0.000041
N81	N	1.468349	-0.237775	0.000010
C82	C	2.338982	-0.561208	-0.000005
N83	N	2.460540	-0.549613	-0.000001
H84	H	2.140329	-0.877034	-0.000035
C85	C	1.431184	-0.597684	-0.000093
N86	N	1.309627	-0.609280	-0.000130
H87	H	1.481259	-0.351269	-0.000079
H88	H	1.634910	-0.130813	0.000073
H89	H	2.293963	-0.656561	-0.000024
H90	H	1.476188	-0.502342	-0.000062
