data_functionalizedCrystal
_audit_creation_method	'MofGen! by Chris Wilmer'
_symmetry_space_group_name_H-M	'P1'
_symmetry_Int_Tables_number	1
_symmetry_cell_setting	triclinic
loop_
_symmetry_equiv_pos_as_xyz
  x,y,z
_cell_length_a	14.853567
_cell_length_b	17.699083
_cell_length_c	16.176319
_cell_angle_alpha	90.000958
_cell_angle_beta	89.996997
_cell_angle_gamma	96.541028
loop_
_atom_site_label
_atom_site_type_symbol
_atom_site_fract_x
_atom_site_fract_y
_atom_site_fract_z
O1	O	0.114008	-1.004375	-0.068615
O2	O	0.614008	-0.504375	0.431385
O3	O	0.128841	-0.784035	-0.068643
O4	O	0.628841	-0.284035	0.431357
O5	O	-0.009827	-0.900090	-0.068631
O6	O	0.490173	-0.400090	0.431369
O7	O	0.252676	-0.888319	-0.068628
O8	O	0.752676	-0.388319	0.431372
O9	O	-0.009836	-0.900074	0.068862
O10	O	0.490164	-0.400074	0.568862
O11	O	0.128832	-0.784019	0.068850
O12	O	0.628832	-0.284019	0.568850
O13	O	0.113999	-1.004359	0.068878
O14	O	0.613999	-0.504359	0.568878
Cu15	Cu	0.121415	-0.894187	0.081418
Cu16	Cu	0.621415	-0.394187	0.581418
Cu17	Cu	0.121425	-0.894206	-0.081184
Cu18	Cu	0.621425	-0.394206	0.418816
O19	O	0.252667	-0.888303	0.068865
O20	O	0.752667	-0.388303	0.568865
C21	C	0.128305	-0.755828	0.000099
C22	C	0.628305	-0.255828	0.500099
C23	C	0.126711	-0.671806	0.000088
C24	C	0.626711	-0.171806	0.500088
C25	C	0.208106	-0.623396	0.000089
C26	C	0.708106	-0.123396	0.500089
C27	C	0.206602	-0.544449	0.000099
C28	C	0.706602	-0.044449	0.500099
C29	C	0.123703	-0.513913	0.000103
C30	C	0.623703	-0.013913	0.500103
C31	C	0.042301	-0.562329	0.000104
C32	C	0.542301	-0.062329	0.500104
C33	C	0.043806	-0.641275	0.000100
C34	C	0.543806	-0.141275	0.500100
C35	C	0.036232	-0.243950	0.000122
C36	C	0.536232	0.256050	0.500122
C37	C	0.034734	-0.164999	0.000123
C38	C	0.534734	0.335001	0.500123
C39	C	0.199028	-0.147125	0.000121
C40	C	0.699028	0.352875	0.500121
C41	C	0.200533	-0.226070	0.000117
C42	C	0.700533	0.273930	0.500117
C43	C	0.119132	-0.274479	0.000123
C44	C	0.619132	0.225521	0.500123
C45	C	0.120763	-0.360083	0.000114
C46	C	0.620763	0.139917	0.500114
C47	C	0.122070	-0.428311	0.000106
C48	C	0.622070	0.071689	0.500106
C49	C	-0.043418	-0.899549	0.000113
C50	C	0.456582	-0.399549	0.500113
C51	C	-0.143496	-0.897951	0.000106
C52	C	0.356504	-0.397951	0.500106
C53	C	-0.555751	-0.822255	0.000112
C54	C	-0.055751	-0.322255	0.500112
C55	C	-0.577539	-0.960131	0.000129
C56	C	-0.077539	-0.460131	0.500129
C57	C	-0.483511	-0.961634	0.000124
C58	C	0.016489	-0.461634	0.500124
C59	C	-0.425598	-0.893446	0.000115
C60	C	0.074402	-0.393446	0.500115
C61	C	-0.461714	-0.823756	0.000109
C62	C	0.038286	-0.323756	0.500109
C63	C	-0.447389	-1.031324	0.000138
C64	C	0.052611	-0.531324	0.500138
C65	C	-0.353355	-1.032829	0.000134
C66	C	0.146645	-0.532829	0.500134
C67	C	-0.295441	-0.964641	0.000118
C68	C	0.204559	-0.464641	0.500118
C69	C	-0.331561	-0.894947	0.000112
C70	C	0.168439	-0.394947	0.500112
C71	C	-0.273648	-0.826759	0.000103
C72	C	0.226352	-0.326759	0.500103
C73	C	-0.309767	-0.757065	0.000091
C74	C	0.190233	-0.257065	0.500091
C75	C	-0.403799	-0.755567	0.000094
C76	C	0.096201	-0.255567	0.500094
C77	C	-0.201409	-0.966139	0.000115
C78	C	0.298591	-0.466139	0.500115
C79	C	-0.179611	-0.828260	0.000100
C80	C	0.320389	-0.328260	0.500100
C81	C	0.286258	-0.888844	0.000120
C82	C	0.786258	-0.388844	0.500120
C83	C	0.386336	-0.890443	0.000121
C84	C	0.886336	-0.390443	0.500121
C85	C	0.114535	-0.032565	0.000131
C86	C	0.614535	0.467435	0.500131
C87	C	0.116130	-0.116587	0.000130
C88	C	0.616130	0.383413	0.500130
N89	N	0.121407	-0.894179	0.195783
N90	N	0.621407	-0.394179	0.695783
N91	N	0.121426	-0.894220	-0.195549
N92	N	0.621426	-0.394220	0.304451
C93	C	0.060030	-0.945584	0.239053
C94	C	0.560030	-0.445584	0.739053
C95	C	0.060029	-0.945588	0.325600
C96	C	0.560029	-0.445588	0.825600
C97	C	0.121410	-0.894190	0.368876
C98	C	0.621410	-0.394190	0.868876
C99	C	0.182790	-0.842780	0.325600
C100	C	0.682790	-0.342780	0.825600
C101	C	0.182786	-0.842773	0.239055
C102	C	0.682786	-0.342773	0.739055
C103	C	0.182807	-0.842806	0.674628
C104	C	0.682807	-0.342806	1.174628
C105	C	0.182808	-0.842818	0.761180
C106	C	0.682808	-0.342818	1.261180
C107	C	0.060050	-0.945621	0.761174
C108	C	0.560050	-0.445621	1.261174
C109	C	0.060046	-0.945614	0.674628
C110	C	0.560046	-0.445614	1.174628
C111	C	0.121422	-0.894201	0.631360
C112	C	0.621422	-0.394201	1.131360
C113	C	0.121422	-0.894197	0.537516
C114	C	0.621422	-0.394197	1.037516
C115	C	0.121416	-0.894198	0.462718
C116	C	0.621416	-0.394198	0.962718
H117	H	-0.032777	-0.140140	0.000127
H118	H	0.467223	0.359860	0.500127
Cl119	Cl	-0.017136	-1.010207	0.184658
Cl120	Cl	0.482864	-0.510207	0.684658
H121	H	0.010051	-0.987445	0.360830
H122	H	0.510051	-0.487445	0.860830
Cl123	Cl	0.312329	-0.661776	0.000080
Cl124	Cl	0.812329	-0.161776	0.500080
H125	H	-0.172005	-1.022883	0.000131
H126	H	0.327995	-0.522883	0.500131
H127	H	0.010071	-0.987482	0.796412
H128	H	0.510071	-0.487482	1.296412
Cl129	Cl	0.259978	-0.778197	0.815583
Cl130	Cl	0.759978	-0.278197	1.315583
Cl131	Cl	-0.106813	-0.742532	0.000082
Cl132	Cl	0.393187	-0.242532	0.500082
Cl133	Cl	-0.236952	-0.671347	0.000085
Cl134	Cl	0.263048	-0.171347	0.500085
H135	H	0.010067	-0.987470	0.639396
H136	H	0.510067	-0.487470	1.139396
H137	H	0.232765	-0.800927	0.360840
H138	H	0.732765	-0.300927	0.860840
Cl139	Cl	-0.449212	-0.667959	0.000076
Cl140	Cl	0.050788	-0.167959	0.500076
Cl141	Cl	-0.601155	-0.734644	0.000089
Cl142	Cl	-0.101155	-0.234644	0.500089
H143	H	0.232783	-0.800945	0.639406
H144	H	0.732783	-0.300945	1.139406
Cl145	Cl	-0.520196	-1.117040	0.000168
Cl146	Cl	-0.020196	-0.617040	0.500168
Cl147	Cl	0.259947	-0.778144	0.184659
Cl148	Cl	0.759947	-0.278144	0.684659
H149	H	0.272882	-0.505037	0.000099
H150	H	0.772882	-0.005037	0.500099
H151	H	0.268038	-0.250928	0.000111
H152	H	0.768038	0.249072	0.500111
H153	H	0.265309	-0.107700	0.000121
H154	H	0.765309	0.392300	0.500121
H155	H	-0.030050	-0.283356	0.000127
H156	H	0.469950	0.216644	0.500127
Cl157	Cl	-0.061916	-0.523941	0.000113
Cl158	Cl	0.438084	-0.023941	0.500113
H159	H	-0.022475	-0.680690	0.000099
H160	H	0.477525	-0.180690	0.500099
Cl161	Cl	-0.307957	-1.120443	0.000135
Cl162	Cl	0.192043	-0.620443	0.500135
Cl163	Cl	-0.650344	-1.045848	0.000155
Cl164	Cl	-0.150344	-0.545848	0.500155
