data_functionalizedCrystal
_audit_creation_method	'MofGen! by Chris Wilmer'
_symmetry_space_group_name_H-M	'P1'
_symmetry_Int_Tables_number	1
_symmetry_cell_setting	triclinic
loop_
_symmetry_equiv_pos_as_xyz
  x,y,z
_cell_length_a	17.699077
_cell_length_b	14.044190
_cell_length_c	16.176319
_cell_angle_alpha	89.988653
_cell_angle_beta	89.993140
_cell_angle_gamma	88.236177
loop_
_atom_site_label
_atom_site_type_symbol
_atom_site_fract_x
_atom_site_fract_y
_atom_site_fract_z
O1	O	1.012350	0.119823	-0.068745
O2	O	0.793047	0.135422	-0.068750
O3	O	0.899404	-0.010354	-0.068731
O4	O	0.905993	0.265600	-0.068764
O5	O	0.899387	-0.010364	0.068762
O6	O	0.793030	0.135413	0.068743
O7	O	1.012333	0.119814	0.068748
Cu8	Cu	0.902680	0.127613	0.081300
Cu9	Cu	0.902700	0.127624	-0.081302
O10	O	0.905976	0.265591	0.068730
C11	C	0.764803	0.134859	-0.000004
C12	C	0.680669	0.133185	-0.000005
C13	C	0.641138	0.132392	0.074943
C14	C	0.562086	0.130804	0.074944
C15	C	0.522566	0.130016	-0.000004
C16	C	0.562103	0.130807	-0.074958
C17	C	0.641154	0.132389	-0.074958
C18	C	0.243299	0.124430	-0.074959
C19	C	0.164243	0.122851	-0.074953
C20	C	0.164232	0.122845	0.074944
C21	C	0.243283	0.124426	0.074944
C22	C	0.282813	0.125212	-0.000010
C23	C	0.368530	0.126932	-0.000010
C24	C	0.436850	0.128303	-0.000005
C25	C	0.896513	-0.045667	0.000018
C26	C	0.887915	-0.150873	0.000025
C27	C	0.933175	-0.401265	-0.000007
C28	C	0.872208	-0.343494	-0.000002
C29	C	0.880950	-0.236310	0.000013
C30	C	0.924435	-0.508459	-0.000022
C31	C	1.040577	0.120377	0.000000
C32	C	1.124711	0.122051	-0.000004
C33	C	0.908867	0.300903	-0.000021
C34	C	0.917465	0.406109	-0.000034
N35	N	0.902672	0.127604	0.195665
N36	N	0.902714	0.127624	-0.195667
C37	C	0.949784	0.063081	0.238938
C38	C	0.949788	0.063080	0.325485
C39	C	0.902683	0.127608	0.368758
C40	C	0.855565	0.192134	0.325479
C41	C	0.855558	0.192130	0.238934
C42	C	0.855593	0.192152	0.674507
C43	C	0.855605	0.192153	0.761059
C44	C	0.949822	0.063102	0.761059
C45	C	0.949815	0.063098	0.674513
C46	C	0.902695	0.127620	0.631242
C47	C	0.902690	0.127619	0.537398
C48	C	0.902691	0.127614	0.462600
H49	H	0.132068	0.122209	-0.135989
O50	O	0.794370	-0.384598	0.000004
H51	H	0.787485	-0.429090	-0.056035
O52	O	1.011006	-0.360154	0.000005
H53	H	1.054325	-0.419007	-0.000005
H54	H	0.988146	0.010539	0.203711
H55	H	0.673339	0.133037	-0.135989
O56	O	0.285910	0.125296	0.155779
H57	H	0.245140	0.124477	0.207898
O58	O	1.000616	-0.006496	0.372161
H59	H	1.033381	-0.051352	0.327530
O60	O	0.519446	0.129958	0.155781
H61	H	0.560207	0.130786	0.207896
O62	O	0.121582	0.122433	0.155791
H63	H	0.059968	0.121354	0.143205
H64	H	0.673310	0.133041	0.135975
H65	H	0.817227	0.244690	0.639283
O66	O	0.285931	0.125287	-0.155798
H67	H	0.245167	0.124486	-0.207911
O68	O	1.000616	-0.006504	0.627838
H69	H	1.033371	-0.051381	0.672468
O70	O	0.804734	0.261722	0.192269
H71	H	0.765254	0.221873	0.152870
O72	O	0.804765	0.261738	0.372153
H73	H	0.772001	0.306602	0.327520
O74	O	0.519483	0.129962	-0.155799
H75	H	0.457872	0.128740	-0.143209
H76	H	0.988187	0.010561	0.796299
H77	H	0.817244	0.244701	0.796290
