data_functionalizedCrystal
_audit_creation_method	'MofGen! by Chris Wilmer'
_symmetry_space_group_name_H-M	'P1'
_symmetry_Int_Tables_number	1
_symmetry_cell_setting	triclinic
loop_
_symmetry_equiv_pos_as_xyz
  x,y,z
_cell_length_a	6.817900
_cell_length_b	10.943867
_cell_length_c	23.753023
_cell_angle_alpha	95.049031
_cell_angle_beta	100.067528
_cell_angle_gamma	108.843261
loop_
_atom_site_label
_atom_site_type_symbol
_atom_site_fract_x
_atom_site_fract_y
_atom_site_fract_z
V1	V	-4.016391	-0.180263	-0.178382
O2	O	-3.975949	0.006985	-0.174993
O3	O	-3.995055	-0.355819	-0.177155
O4	O	-3.951114	-0.178227	-0.256183
O5	O	-4.020194	-0.171837	-0.095418
V6	V	-4.498699	-0.157779	-0.168459
O7	O	-4.280315	-0.229584	-0.200147
O8	O	-4.684972	-0.108459	-0.146694
O9	O	-4.296828	0.017776	-0.169686
O10	O	-4.656538	-0.345028	-0.171848
O11	O	-4.612293	-0.166206	-0.251423
O12	O	-4.340769	-0.159816	-0.090658
C13	C	-3.847186	-0.398592	-0.174340
C14	C	-3.910916	-0.542116	-0.173856
C15	C	-4.138861	-0.633024	-0.176550
C16	C	-4.110615	-0.732557	-0.222160
C17	C	-4.052703	-0.698319	-0.127394
C18	C	-3.881854	-0.639773	-0.219511
C19	C	-3.823939	-0.605512	-0.124703
C20	C	-3.795544	-0.705006	-0.170323
C21	C	-3.791134	-0.172054	-0.275147
C22	C	-3.819226	-0.171551	-0.338750
C23	C	-4.050278	-0.286892	-0.741336
C24	C	-4.076711	-0.286439	-0.801099
O25	O	-4.138569	-0.386821	-0.838956
N26	N	-4.033337	-0.167900	-0.822822
C27	C	-3.963545	-0.049807	-0.784777
O28	O	-3.929082	0.051061	-0.808741
C29	C	-3.937128	-0.050262	-0.725015
C30	C	-3.980486	-0.168808	-0.703296
C31	C	-4.093634	-0.405429	-0.719616
C32	C	-4.067199	-0.405881	-0.659857
C33	C	-3.997407	-0.287797	-0.621817
C34	C	-3.954051	-0.169261	-0.643536
C35	C	-3.867352	0.067829	-0.686972
C36	C	-3.840939	0.067363	-0.627206
C37	C	-3.884298	-0.051183	-0.605487
C38	C	-3.857825	-0.051629	-0.545737
N39	N	-3.901199	-0.170168	-0.524015
C40	C	-3.970990	-0.288252	-0.562055
C41	C	-4.019032	-0.048861	-0.910282
C42	C	-4.045434	-0.048404	-0.970043
C43	C	-4.158601	-0.285037	-0.986361
C44	C	-4.132184	-0.285492	-0.926599
C45	C	-4.062406	-0.167400	-0.888560
C46	C	-3.915468	-0.289193	-0.436555
C47	C	-3.889017	-0.289635	-0.376789
C48	C	-3.775863	-0.053003	-0.360476
C49	C	-3.802300	-0.052561	-0.420237
C50	C	-3.872114	-0.170666	-0.458275
O51	O	-3.795983	0.048701	-0.507846
O52	O	-4.005469	-0.389104	-0.538083
C53	C	-4.108041	0.060543	-0.172500
C54	C	-4.023548	0.204065	-0.172988
C55	C	-4.164093	-0.165993	-0.071691
C56	C	-4.115238	-0.166490	-0.008088
H57	H	-3.650834	-0.736602	-0.167699
H58	H	-4.102520	-0.502414	-0.642180
H59	H	-4.125603	-0.724495	-0.088463
H60	H	-4.283379	-0.601212	-0.179246
Br61	Br	-3.621025	-0.513582	-0.056033
Br62	Br	-4.313613	-0.824445	-0.290827
Br63	Br	-4.188361	-0.565708	-0.771232
H64	H	-3.924323	-0.386173	-0.359110
H65	H	-3.767005	0.043969	-0.437921
Br66	Br	-4.191031	-0.446381	-0.897130
Br67	Br	-3.986532	0.112488	-0.999510
Br68	Br	-3.681136	0.107246	-0.308840
H69	H	-3.972311	-0.385366	-0.467520
H70	H	-3.809143	-0.613775	-0.258488
H71	H	-4.215434	-0.381188	-1.017344
H72	H	-3.962194	0.047310	-0.879313
Br73	Br	-3.808489	0.228723	-0.716431
H74	H	-3.784123	0.163530	-0.596237
