data_functionalizedCrystal
_audit_creation_method	'MofGen! by Chris Wilmer'
_symmetry_space_group_name_H-M	'P1'
_symmetry_Int_Tables_number	1
_symmetry_cell_setting	triclinic
loop_
_symmetry_equiv_pos_as_xyz
  x,y,z
_cell_length_a	18.050589
_cell_length_b	16.959455
_cell_length_c	16.959447
_cell_angle_alpha	90.015720
_cell_angle_beta	89.973357
_cell_angle_gamma	89.973165
loop_
_atom_site_label
_atom_site_type_symbol
_atom_site_fract_x
_atom_site_fract_y
_atom_site_fract_z
Zn1	Zn	-0.295672	-1.208339	-0.446958
Zn2	Zn	-0.419874	-1.208243	-0.314788
Zn3	Zn	-0.295699	-1.076167	-0.314793
Zn4	Zn	-0.419822	-1.076113	-0.446924
O5	O	-0.357767	-1.142216	-0.380866
O6	O	-0.312158	-1.318937	-0.429438
O7	O	-0.403435	-1.190705	-0.204178
O8	O	-0.191771	-1.093763	-0.332341
O9	O	-0.403409	-1.318866	-0.332334
O10	O	-0.191751	-1.190869	-0.429443
O11	O	-0.312204	-1.093670	-0.204181
O12	O	-0.312154	-0.965549	-0.332307
O13	O	-0.403320	-1.093671	-0.557539
O14	O	-0.403346	-0.965510	-0.429383
O15	O	-0.312108	-1.190817	-0.557565
O16	O	-0.523792	-1.190653	-0.332300
O17	O	-0.523753	-1.093578	-0.429379
C18	C	-0.357748	-0.936849	-0.380843
C19	C	-0.357758	-0.848993	-0.380851
C20	C	-0.550719	-1.142120	-0.380853
C21	C	-0.633265	-1.142152	-0.380873
C22	C	-0.405199	-0.807680	-0.330221
C23	C	-0.310321	-0.807752	-0.431487
C24	C	-0.310326	-0.725206	-0.431495
C25	C	-0.357767	-0.683893	-0.380864
C26	C	-0.405204	-0.725127	-0.330226
C27	C	-0.262884	-0.683967	-0.482127
C28	C	-0.262887	-0.601416	-0.482136
C29	C	-0.310332	-0.560102	-0.431509
C30	C	-0.357772	-0.601340	-0.380869
C31	C	-0.405213	-0.560027	-0.330238
C32	C	-0.452657	-0.601264	-0.279602
C33	C	-0.452650	-0.683812	-0.279598
C34	C	-0.310340	-0.477553	-0.431512
C35	C	-0.405218	-0.477474	-0.330243
C36	C	-0.832722	-1.089414	-0.433647
C37	C	-0.882165	-1.070151	-0.361519
C38	C	-0.784395	-1.142229	-0.380884
C39	C	-0.882033	-1.161531	-0.453019
C40	C	-0.930380	-1.142303	-0.380900
C41	C	-0.832751	-1.122929	-0.308718
C42	C	-0.832615	-1.214342	-0.400267
C43	C	-0.882036	-1.195106	-0.328090
C44	C	-0.700297	-1.142185	-0.380875
C45	C	-1.014477	-1.142347	-0.380900
C46	C	-0.164061	-1.142333	-0.380896
C47	C	-0.081515	-1.142383	-0.380909
C48	C	-0.357705	-1.142249	-0.587034
C49	C	-0.357679	-1.142263	-0.674891
C50	C	-0.357783	-0.348384	-0.380885
C51	C	-0.357781	-0.436240	-0.380882
C52	C	-0.405091	-1.091778	-1.046356
C53	C	-0.310111	-1.192936	-1.046377
C54	C	-0.310127	-1.192915	-0.963831
C55	C	-0.357626	-1.142326	-0.922544
C56	C	-0.405110	-1.091757	-0.963802
C57	C	-0.262649	-1.243489	-0.922567
C58	C	-0.262664	-1.243470	-0.840016
C59	C	-0.310160	-1.192876	-0.798727
C60	C	-0.357645	-1.142305	-0.839990
C61	C	-0.405144	-1.091715	-0.798703
C62	C	-0.452626	-1.041139	-0.839965
C63	C	-0.452606	-1.041162	-0.922513
C64	C	-0.310180	-1.192852	-0.716178
C65	C	-0.405163	-1.091694	-0.716149
C66	C	-0.357774	-1.142228	-0.175499
C67	C	-0.357591	-1.142368	-0.087643
H68	H	-0.443854	-0.443843	-0.289016
Cl69	Cl	-0.250406	-1.256537	-1.098282
Cl70	Cl	-0.250681	-0.859689	-0.495131
H71	H	-0.224256	-0.567848	-0.523369
Cl72	Cl	-0.799286	-1.020359	-0.502440
H73	H	-0.271706	-0.443982	-0.472734
H74	H	-0.224257	-0.717609	-0.523345
H75	H	-0.903946	-1.009203	-0.345140
H76	H	-0.811193	-1.106562	-0.247704
Cl77	Cl	-0.512295	-0.977592	-0.974389
Cl78	Cl	-0.915259	-1.264115	-0.259135
Cl79	Cl	-0.202945	-1.307089	-0.974474
Cl80	Cl	-0.798986	-1.308421	-0.425609
H81	H	-0.491281	-0.567616	-0.238375
Cl82	Cl	-0.915459	-1.186691	-0.547193
H83	H	-0.443747	-1.050598	-1.079955
Cl84	Cl	-0.202971	-1.307047	-0.788151
Cl85	Cl	-0.464876	-1.028087	-0.664251
H86	H	-0.491274	-0.717395	-0.238371
H87	H	-0.491303	-0.999952	-0.806337
Cl88	Cl	-0.250498	-1.256433	-0.664310
H89	H	-0.443829	-0.841259	-0.288996
