data_functionalizedCrystal
_audit_creation_method	'MofGen! by Chris Wilmer'
_symmetry_space_group_name_H-M	'P1'
_symmetry_Int_Tables_number	1
_symmetry_cell_setting	triclinic
loop_
_symmetry_equiv_pos_as_xyz
  x,y,z
_cell_length_a	10.654546
_cell_length_b	16.098538
_cell_length_c	10.654551
_cell_angle_alpha	87.247833
_cell_angle_beta	95.515557
_cell_angle_gamma	87.227728
loop_
_atom_site_label
_atom_site_type_symbol
_atom_site_fract_x
_atom_site_fract_y
_atom_site_fract_z
O1	O	-1.673430	0.069391	0.170804
O2	O	-1.307949	0.069362	0.187617
O3	O	-1.499092	0.069377	-0.003529
O4	O	-1.482287	0.069375	0.361950
O5	O	-1.487926	-0.069136	0.007593
O6	O	-1.296782	-0.069152	0.198738
O7	O	-1.662264	-0.069123	0.181925
Zn8	Zn	-1.477750	-0.091130	0.192098
Zn9	Zn	-1.492462	0.091368	0.177444
O10	O	-1.471121	-0.069139	0.373071
C11	C	-1.255567	0.000101	0.191944
C12	C	-1.116123	0.000090	0.188255
N13	N	-1.467719	-0.215680	0.202097
C14	C	-1.036638	0.000098	0.300797
C15	C	-0.905618	0.000107	0.297321
C16	C	-0.933580	0.000103	0.068752
C17	C	-1.064597	0.000088	0.072229
C18	C	-1.088164	0.000100	0.416823
C19	C	-1.008678	0.000109	0.529374
C20	C	-0.877657	0.000118	0.525898
C21	C	-0.826123	0.000118	0.409871
C22	C	-1.548878	-0.259258	0.120997
C23	C	-1.541873	-0.346447	0.128004
C24	C	-1.453713	-0.390057	0.216119
C25	C	-1.372546	-0.346473	0.297223
C26	C	-1.379546	-0.259285	0.290209
C27	C	-1.428336	-0.653309	0.241525
C28	C	-1.421344	-0.740503	0.248535
C29	C	-1.590670	-0.740472	0.079314
C30	C	-1.597668	-0.653282	0.072313
C31	C	-1.516496	-0.609706	0.153412
C32	C	-1.446553	-0.479179	0.223286
C33	C	-1.523651	-0.520585	0.146238
C34	C	-0.714644	0.000129	0.177601
C35	C	-0.854085	0.000113	0.181302
C36	C	-1.492275	0.000122	-0.044766
C37	C	-1.488583	0.000128	-0.184210
N38	N	-1.502503	0.215918	0.167435
C39	C	-1.492937	0.075630	-0.255784
C40	C	-1.489456	0.075626	-0.386804
C41	C	-1.477272	-0.075390	-0.374664
C42	C	-1.480744	-0.075385	-0.243646
C43	C	-1.500776	0.151142	-0.196349
C44	C	-1.505132	0.226651	-0.267924
C45	C	-1.501651	0.226647	-0.398944
C46	C	-1.493815	0.151134	-0.458389
C47	C	-1.477938	0.000118	0.414308
C48	C	-1.481630	0.000119	0.553751
H49	H	-1.194846	0.000097	0.419665
C50	C	-1.504485	0.151154	-0.052210
N51	N	-1.507237	0.151161	0.056360
C52	C	-1.694644	-0.605318	-0.024627
N53	N	-1.767688	-0.569192	-0.097643
C54	C	-1.065368	0.000105	0.656996
N55	N	-1.108066	0.000101	0.753124
C56	C	-0.790226	0.000117	0.649705
N57	N	-0.724374	0.000119	0.742962
C58	C	-0.681995	0.000124	0.406055
N59	N	-0.573439	0.000134	0.403182
C60	C	-1.290274	-0.211349	0.379436
N61	N	-1.223033	-0.175245	0.446646
C62	C	-1.489986	0.151134	-0.602516
N63	N	-1.487111	0.151135	-0.711072
H64	H	-0.891611	0.000116	-0.025713
H65	H	-1.470892	-0.136868	-0.423075
C66	C	-1.506482	0.309706	-0.477677
N67	N	-1.510144	0.372270	-0.536980
C68	C	-1.679943	-0.788413	-0.009900
N69	N	-1.747183	-0.824523	-0.077104
C70	C	-1.152036	0.000083	-0.051573
N71	N	-1.217895	0.000078	-0.144824
H72	H	-1.620672	-0.223757	0.049250
C73	C	-1.475961	-0.158441	-0.164910
N74	N	-1.472356	-0.221001	-0.105606
H75	H	-1.607958	-0.381928	0.061965
H76	H	-1.349551	-0.776006	0.320294
C77	C	-1.339208	-0.605386	0.330902
N78	N	-1.272131	-0.569287	0.398285
C79	C	-1.275557	-0.394446	0.394139
N80	N	-1.202503	-0.430579	0.467138
H81	H	-1.595426	-0.485076	0.074490
H82	H	-1.374774	-0.514693	0.295034
C83	C	-1.513751	0.309710	-0.202531
N84	N	-1.520246	0.372272	-0.153280
