data_functionalizedCrystal
_audit_creation_method	'MofGen! by Chris Wilmer'
_symmetry_space_group_name_H-M	'P1'
_symmetry_Int_Tables_number	1
_symmetry_cell_setting	triclinic
loop_
_symmetry_equiv_pos_as_xyz
  x,y,z
_cell_length_a	19.188930
_cell_length_b	19.188924
_cell_length_c	16.053802
_cell_angle_alpha	87.445328
_cell_angle_beta	92.586369
_cell_angle_gamma	83.143372
loop_
_atom_site_label
_atom_site_type_symbol
_atom_site_fract_x
_atom_site_fract_y
_atom_site_fract_z
O1	O	-0.929109	-0.084208	-0.069702
O2	O	-0.595776	0.249126	0.263631
O3	O	-0.262442	0.582459	0.596965
O4	O	-0.725795	-0.095944	-0.069645
O5	O	-0.392462	0.237389	0.263688
O6	O	-0.059128	0.570722	0.597021
O7	O	-0.833321	0.011580	-0.069666
O8	O	-0.499988	0.344913	0.263668
O9	O	-0.166654	0.678246	0.597001
O10	O	-0.821583	-0.191732	-0.069682
O11	O	-0.488249	0.141602	0.263651
O12	O	-0.154916	0.474935	0.596985
O13	O	-0.827403	0.005686	0.069194
O14	O	-0.494069	0.339019	0.402528
O15	O	-0.160736	0.672352	0.735861
O16	O	-0.719876	-0.101838	0.069215
O17	O	-0.386543	0.231495	0.402548
O18	O	-0.053210	0.564828	0.735881
O19	O	-0.923190	-0.090102	0.069158
O20	O	-0.589857	0.243232	0.402491
O21	O	-0.256524	0.576565	0.735825
Zn22	Zn	-0.820594	-0.096906	0.091233
Zn23	Zn	-0.487260	0.236427	0.424567
Zn24	Zn	-0.153927	0.569761	0.757900
Zn25	Zn	-0.828392	-0.089140	-0.091721
Zn26	Zn	-0.495058	0.244193	0.241613
Zn27	Zn	-0.161725	0.577526	0.574946
O28	O	-0.815664	-0.197626	0.069178
O29	O	-0.482331	0.135708	0.402511
O30	O	-0.148997	0.469041	0.735845
C31	C	-0.696824	-0.098512	-0.000208
C32	C	-0.363491	0.234822	0.333125
C33	C	-0.030158	0.568155	0.666459
C34	C	-0.619319	-0.097372	-0.000186
C35	C	-0.285986	0.235961	0.333147
C36	C	0.047348	0.569295	0.666481
C37	C	-0.829983	0.034644	-0.000235
C38	C	-0.496649	0.367977	0.333099
C39	C	-0.163316	0.701310	0.666432
C40	C	-0.828844	0.112148	-0.000232
C41	C	-0.495510	0.445482	0.333101
C42	C	-0.162177	0.778815	0.666435
C43	C	-0.952161	-0.087534	-0.000281
C44	C	-0.618828	0.245799	0.333052
C45	C	-0.285494	0.579132	0.666385
C46	C	-1.029667	-0.088674	-0.000309
C47	C	-0.696333	0.244659	0.333025
C48	C	-0.363000	0.577993	0.666358
C49	C	-0.574394	-0.160462	-0.000204
C50	C	-0.241061	0.172871	0.333129
C51	C	0.092272	0.506204	0.666462
C52	C	-0.501571	-0.159390	-0.000213
C53	C	-0.168237	0.173943	0.333120
C54	C	0.165096	0.507276	0.666453
C55	C	-0.473676	-0.095224	-0.000221
C56	C	-0.140343	0.238110	0.333112
C57	C	0.192991	0.571443	0.666446
C58	C	-0.518610	-0.032125	-0.000198
C59	C	-0.185277	0.301208	0.333135
C60	C	0.148056	0.634541	0.666469
C61	C	-0.591432	-0.033199	-0.000181
C62	C	-0.258099	0.300134	0.333153
C63	C	0.075235	0.633467	0.666486
N64	N	-0.367713	-0.044169	-0.047511
N65	N	-0.034379	0.289164	0.285823
N66	N	0.298954	0.622498	0.619156
N67	N	-0.298535	-0.043153	-0.047529
N68	N	0.034798	0.290180	0.285804
N69	N	0.368132	0.623514	0.619138
C70	C	-0.254270	-0.091983	-0.000272
C71	C	0.079064	0.241350	0.333062
C72	C	0.412397	0.574683	0.666395
N73	N	-0.281795	-0.141878	0.046994
N74	N	0.051539	0.191455	0.380328
N75	N	0.384872	0.524788	0.713661
N76	N	-0.350979	-0.142897	0.047009
N77	N	-0.017645	0.190437	0.380342
N78	N	0.315688	0.523770	0.713676
C79	C	-0.394714	-0.094052	-0.000239
C80	C	-0.061381	0.239282	0.333094
C81	C	0.271952	0.572615	0.666427
C82	C	-0.130381	-0.153916	-0.000299
C83	C	0.202952	0.179418	0.333035
C84	C	0.536286	0.512751	0.666368
C85	C	-0.057556	-0.152841	-0.000303
C86	C	0.275777	0.180492	0.333031
C87	C	0.609110	0.513826	0.666364
C88	C	-0.074598	-0.025574	-0.000296
C89	C	0.258735	0.307760	0.333038
C90	C	0.592069	0.641093	0.666371
C91	C	-0.147421	-0.026650	-0.000283
C92	C	0.185913	0.306683	0.333050
C93	C	0.519246	0.640016	0.666383
C94	C	-0.175308	-0.090823	-0.000289
C95	C	0.158026	0.242510	0.333045
C96	C	0.491359	0.575844	0.666378
C97	C	-0.819003	-0.220690	-0.000255
C98	C	-0.485669	0.112644	0.333079
C99	C	-0.152336	0.445977	0.666412
C100	C	-0.820142	-0.298194	-0.000263
C101	C	-0.486809	0.035139	0.333071
C102	C	-0.153475	0.368473	0.666404
C103	C	-0.831538	0.151760	-0.075925
C104	C	-0.498205	0.485093	0.257409
C105	C	-0.164872	0.818427	0.590742
C106	C	-0.830459	0.224583	-0.075931
C107	C	-0.497125	0.557916	0.257403
C108	C	-0.163792	0.891250	0.590736
C109	C	-0.826698	0.257793	-0.000240
C110	C	-0.493365	0.591126	0.333093
C111	C	-0.160032	0.924460	0.666427
C112	C	-0.823999	0.218172	0.075463
C113	C	-0.490666	0.551505	0.408796
C114	C	-0.157333	0.884838	0.742129
C115	C	-0.825072	0.145349	0.075467
C116	C	-0.491739	0.478683	0.408800
C117	C	-0.158405	0.812016	0.742133
N118	N	-0.862345	0.375066	0.056084
N119	N	-0.529012	0.708399	0.389418
N120	N	-0.195679	1.041732	0.722751
N121	N	-0.861328	0.444244	0.056075
N122	N	-0.527995	0.777578	0.389409
N123	N	-0.194661	1.110911	0.722742
C124	C	-0.823464	0.477203	-0.000247
C125	C	-0.490131	0.810536	0.333086
C126	C	-0.156798	1.143869	0.666420
N127	N	-0.786666	0.438371	-0.056573
N128	N	-0.453333	0.771704	0.276760
N129	N	-0.119999	1.105037	0.610094
N130	N	-0.787687	0.369186	-0.056567
N131	N	-0.454353	0.702519	0.276767
N132	N	-0.121020	1.035853	0.610100
C133	C	-0.825534	0.336756	-0.000236
C134	C	-0.492201	0.670090	0.333098
C135	C	-0.158868	1.003423	0.666431
C136	C	-0.824988	0.595777	-0.075951
C137	C	-0.491654	0.929111	0.257382
C138	C	-0.158321	1.262444	0.590715
C139	C	-0.823903	0.668601	-0.075954
C140	C	-0.490570	1.001934	0.257379
C141	C	-0.157237	1.335268	0.590712
C142	C	-0.817451	0.662189	0.075441
C143	C	-0.484118	0.995522	0.408775
C144	C	-0.150784	1.328856	0.742108
C145	C	-0.818528	0.589366	0.075442
C146	C	-0.485195	0.922699	0.408775
C147	C	-0.151862	1.256033	0.742109
C148	C	-0.822300	0.556165	-0.000257
C149	C	-0.488967	0.889498	0.333077
C150	C	-0.155633	1.222832	0.666410
N151	N	-0.815277	-0.102205	0.216095
N152	N	-0.481944	0.231128	0.549428
N153	N	-0.148610	0.564461	0.882761
N154	N	-0.833714	-0.083835	-0.216582
N155	N	-0.500380	0.249498	0.116751
N156	N	-0.167047	0.582831	0.450085
C157	C	-0.861046	-0.056470	0.259780
C158	C	-0.527713	0.276863	0.593113
C159	C	-0.194380	0.610197	0.926447
C160	C	-0.857334	-0.060184	0.347187
C161	C	-0.524000	0.273150	0.680521
C162	C	-0.190667	0.606483	1.013854
C163	C	-0.807855	-0.109637	0.390908
C164	C	-0.474521	0.223697	0.724241
C165	C	-0.141188	0.557030	1.057575
C166	C	-0.762081	-0.155374	0.347216
C167	C	-0.428747	0.177959	0.680550
C168	C	-0.095414	0.511293	1.013883
C169	C	-0.765790	-0.151657	0.259811
C170	C	-0.432457	0.181677	0.593144
C171	C	-0.099124	0.515010	0.926477
C172	C	-0.791650	-0.125855	0.652321
C173	C	-0.458316	0.207478	0.985654
C174	C	-0.124983	0.540812	1.318987
C175	C	-0.787945	-0.129571	0.739733
C176	C	-0.454611	0.203763	1.073066
C177	C	-0.121278	0.537096	1.406399
C178	C	-0.883197	-0.034379	0.739698
C179	C	-0.549864	0.298954	1.073031
C180	C	-0.216531	0.632288	1.406364
C181	C	-0.886905	-0.030669	0.652290
C182	C	-0.553572	0.302665	0.985623
C183	C	-0.220239	0.635998	1.318957
C184	C	-0.841129	-0.076404	0.608606
C185	C	-0.507796	0.256930	0.941939
C186	C	-0.174462	0.590263	1.275273
N187	N	-0.804060	-0.113435	0.480252
N188	N	-0.470727	0.219898	0.813586
N189	N	-0.137393	0.553232	1.146919
N190	N	-0.844921	-0.072601	0.519263
N191	N	-0.511587	0.260732	0.852597
N192	N	-0.178254	0.594066	1.185930
H193	H	-0.597095	-0.212716	-0.000210
H194	H	-0.263761	0.120617	0.333123
H195	H	0.069572	0.453950	0.666456
H196	H	-0.464986	-0.210768	-0.000226
H197	H	-0.131653	0.122566	0.333108
H198	H	0.201681	0.455899	0.666441
N199	N	-0.914402	-0.003117	0.212630
N200	N	-0.581068	0.330216	0.545964
N201	N	-0.247735	0.663549	0.879297
H202	H	-0.909806	-0.007698	0.150629
H203	H	-0.576473	0.325635	0.483963
H204	H	-0.243140	0.658969	0.817296
H205	H	-0.963262	-0.011698	0.227873
H206	H	-0.629929	0.321635	0.561207
H207	H	-0.296595	0.654969	0.894540
H208	H	-0.721790	-0.195637	0.382819
H209	H	-0.388457	0.137696	0.716152
H210	H	-0.055123	0.471029	1.049485
H211	H	-0.834607	0.124732	-0.137565
H212	H	-0.501274	0.458066	0.195769
H213	H	-0.167941	0.791399	0.529102
H214	H	-0.826094	0.700852	-0.137595
H215	H	-0.492761	1.034185	0.195738
H216	H	-0.159428	1.367518	0.529072
N217	N	-0.044520	0.043635	-0.000307
N218	N	0.288813	0.376968	0.333026
N219	N	0.622147	0.710302	0.666359
H220	H	-0.084034	0.083441	-0.000296
H221	H	0.249299	0.416775	0.333037
H222	H	0.582633	0.750108	0.666370
H223	H	-0.012466	0.044667	0.051164
H224	H	0.320868	0.378001	0.384498
H225	H	0.654201	0.711334	0.717831
H226	H	-0.628010	0.018178	-0.000166
H227	H	-0.294677	0.351511	0.333167
H228	H	0.038656	0.684845	0.666500
N229	N	-0.488529	0.037084	-0.000196
N230	N	-0.155196	0.370417	0.333137
N231	N	0.178138	0.703750	0.666470
H232	H	-0.435579	0.028191	-0.000211
H233	H	-0.102246	0.361525	0.333122
H234	H	0.231087	0.694858	0.666456
H235	H	-0.507191	0.066872	-0.051665
H236	H	-0.173858	0.400205	0.281668
H237	H	0.159475	0.733539	0.615001
H238	H	-0.153087	-0.206169	-0.000291
H239	H	0.180246	0.127164	0.333043
H240	H	0.513580	0.460498	0.666376
H241	H	-0.894602	-0.022942	0.382756
H242	H	-0.561269	0.310392	0.716089
H243	H	-0.227935	0.643725	1.049422
H244	H	-0.754378	-0.163096	0.616760
H245	H	-0.421044	0.170238	0.950093
H246	H	-0.087711	0.503571	1.283427
N247	N	-0.716422	-0.200981	0.212688
N248	N	-0.383089	0.132352	0.546022
N249	N	-0.049755	0.465685	0.879355
H250	H	-0.684514	-0.232874	0.253647
H251	H	-0.351181	0.100459	0.586980
H252	H	-0.017847	0.433792	0.920313
H253	H	-0.744590	-0.230240	0.176398
H254	H	-0.411257	0.103093	0.509731
H255	H	-0.077924	0.436426	0.843064
H256	H	-0.828055	0.568743	-0.137590
H257	H	-0.494721	0.902077	0.195743
H258	H	-0.161388	1.235410	0.529077
H259	H	-0.814384	0.689227	0.137070
H260	H	-0.481051	1.022561	0.470404
H261	H	-0.147717	1.355894	0.803737
H262	H	-0.927195	0.009600	0.616694
H263	H	-0.593862	0.342933	0.950028
H264	H	-0.260528	0.676267	1.283361
N265	N	-0.009095	-0.220894	-0.000256
N266	N	0.324239	0.112439	0.333078
N267	N	0.657572	0.445772	0.666411
H268	H	-0.037813	-0.261708	-0.000238
H269	H	0.295520	0.071625	0.333095
H270	H	0.628853	0.404959	0.666429
H271	H	0.019306	-0.221068	-0.051718
H272	H	0.352639	0.112265	0.281615
H273	H	0.685973	0.445599	0.614948
N274	N	-0.195881	0.041397	-0.000264
N275	N	0.137452	0.374731	0.333070
N276	N	0.470786	0.708064	0.666403
H277	H	-0.167162	0.082211	-0.000269
H278	H	0.166172	0.415544	0.333065
H279	H	0.499505	0.748877	0.666398
H280	H	-0.228681	0.045911	-0.051732
H281	H	0.104653	0.379244	0.281601
H282	H	0.437986	0.712577	0.614935
H283	H	-0.832649	0.256841	-0.137571
H284	H	-0.499315	0.590174	0.195763
H285	H	-0.165982	0.923507	0.529096
H286	H	-0.920466	0.002857	0.775273
H287	H	-0.587132	0.336190	1.108606
H288	H	-0.253799	0.669524	1.441940
H289	H	-0.820935	0.245216	0.137091
H290	H	-0.487602	0.578549	0.470424
H291	H	-0.154269	0.911882	0.803757
N292	N	-0.822171	0.102617	0.157107
N293	N	-0.488838	0.435950	0.490441
N294	N	-0.155505	0.769284	0.823774
H295	H	-0.777302	0.108091	0.190213
H296	H	-0.443969	0.441425	0.523547
H297	H	-0.110635	0.774758	0.856880
H298	H	-0.863878	0.119706	0.190121
H299	H	-0.530544	0.453040	0.523454
H300	H	-0.197211	0.786373	0.856788
N301	N	-0.815629	0.546637	0.157083
N302	N	-0.482296	0.879971	0.490416
N303	N	-0.148963	1.213304	0.823749
H304	H	-0.813085	0.578724	0.205033
H305	H	-0.479751	0.912057	0.538367
H306	H	-0.146418	1.245390	0.871700
H307	H	-0.859209	0.522079	0.160367
H308	H	-0.525875	0.855412	0.493700
H309	H	-0.192542	1.188746	0.827033
N310	N	-0.734582	-0.182918	0.786892
N311	N	-0.401249	0.150415	1.120225
N312	N	-0.067916	0.483749	1.453558
H313	H	-0.706147	-0.211329	0.745956
H314	H	-0.372813	0.122005	1.079289
H315	H	-0.039480	0.455338	1.412622
H316	H	-0.702264	-0.157811	0.823188
H317	H	-0.368930	0.175523	1.156522
H318	H	-0.035597	0.508856	1.489855
