data_functionalizedCrystal
_audit_creation_method	'MofGen! by Chris Wilmer'
_symmetry_space_group_name_H-M	'P1'
_symmetry_Int_Tables_number	1
_symmetry_cell_setting	triclinic
loop_
_symmetry_equiv_pos_as_xyz
  x,y,z
_cell_length_a	15.995350
_cell_length_b	15.995350
_cell_length_c	14.472310
_cell_angle_alpha	90.001162
_cell_angle_beta	89.990621
_cell_angle_gamma	83.492375
loop_
_atom_site_label
_atom_site_type_symbol
_atom_site_fract_x
_atom_site_fract_y
_atom_site_fract_z
O1	O	1.110997	0.107921	-0.076758
O2	O	0.867221	0.121248	-0.076776
O3	O	0.995773	-0.007303	-0.076766
O4	O	0.982445	0.236472	-0.076769
O5	O	0.995740	-0.007296	0.076916
O6	O	0.867188	0.121256	0.076906
O7	O	1.110963	0.107928	0.076924
Cu8	Cu	0.989073	0.114593	0.090947
Cu9	Cu	0.989112	0.114584	-0.090800
O10	O	0.982412	0.236480	0.076913
C11	C	0.836010	0.120701	0.000062
C12	C	0.743060	0.119049	0.000055
C13	C	0.405312	0.113117	0.000074
C14	C	0.452746	0.021565	0.000418
C15	C	0.549436	0.023217	0.000065
C16	C	0.572873	0.116060	0.000065
C17	C	0.531804	0.161212	-0.087692
C18	C	0.435169	0.158912	-0.087759
C19	C	0.434792	0.160812	0.087007
C20	C	0.531737	0.160790	0.088160
C21	C	0.667570	0.117727	0.000057
C22	C	0.310614	0.111452	0.000076
C23	C	0.995205	-0.038494	0.000073
C24	C	0.993553	-0.131444	0.000068
C25	C	0.987621	-0.469192	0.000071
C26	C	0.896069	-0.421758	-0.000281
C27	C	0.897721	-0.325068	0.000066
C28	C	0.990564	-0.301631	0.000069
C29	C	1.035701	-0.342705	0.087831
C30	C	1.033401	-0.439340	0.087904
C31	C	1.035330	-0.439707	-0.086861
C32	C	1.035309	-0.342762	-0.088021
C33	C	0.992231	-0.206934	0.000071
C34	C	0.985956	-0.563890	0.000075
C35	C	1.142175	0.108476	0.000083
C36	C	1.235125	0.110127	0.000084
C37	C	0.982980	0.267671	0.000072
C38	C	0.984631	0.360621	0.000071
N39	N	0.989051	0.114598	0.218778
N40	N	0.989140	0.114572	-0.218631
C41	C	0.989111	0.114581	0.592869
C42	C	0.920095	0.183135	0.553698
C43	C	0.920254	0.183385	0.446610
C44	C	0.989081	0.114590	0.407278
C45	C	1.076445	0.133671	0.446122
C46	C	1.076057	0.134159	0.553243
C47	C	0.971542	0.026741	0.553398
C48	C	0.969538	0.027327	0.446270
C49	C	0.989069	0.114593	0.302390
C50	C	0.989128	0.114579	0.697757
H51	H	0.577308	-0.012521	-0.062951
N52	N	0.552079	0.250475	0.095182
H53	H	0.524835	0.277572	0.152382
H54	H	0.615071	0.250907	0.099055
H55	H	0.402921	0.226128	-0.091741
H56	H	0.416874	0.125979	-0.153359
H57	H	1.100617	-0.471588	0.091888
N58	N	0.991671	-0.306608	-0.174034
H59	H	0.969803	-0.353267	-0.210695
H60	H	0.943150	-0.263753	-0.155956
H61	H	0.859490	-0.440293	-0.063217
H62	H	0.862239	-0.296649	-0.062846
H63	H	0.545930	0.229421	-0.090955
H64	H	1.005412	-0.460250	-0.153379
N65	N	1.124995	-0.322421	-0.095044
H66	H	1.137950	-0.286096	-0.040979
H67	H	1.164489	-0.376359	-0.094289
H68	H	0.854945	0.171953	0.579481
N69	N	1.124743	-0.481772	-0.087646
H70	H	1.134336	-0.519747	-0.031996
H71	H	1.134756	-0.516218	-0.145904
H72	H	0.931159	0.247952	0.580608
N73	N	0.834236	0.168330	0.411814
H74	H	0.795873	0.161472	0.466064
H75	H	0.810177	0.217868	0.373152
H76	H	1.129029	0.085068	0.420643
N77	N	0.934891	0.269788	0.412643
H78	H	0.941294	0.307854	0.467258
H79	H	0.987744	0.265495	0.373931
N80	N	1.096565	0.219011	0.586337
H81	H	1.105770	0.255747	0.531339
H82	H	1.048312	0.246533	0.624664
H83	H	1.092297	0.197002	0.419285
H84	H	1.129018	0.086196	0.579154
H85	H	0.433166	-0.014865	-0.062168
N86	N	0.888975	0.002443	0.589215
H87	H	0.862121	0.048136	0.631397
H88	H	0.850194	-0.004971	0.535499
N89	N	0.567896	0.117136	0.174162
H90	H	0.610745	0.068586	0.156145
H91	H	0.595889	0.158378	0.213086
N92	N	0.884382	0.008168	0.412709
H93	H	0.858567	0.055805	0.372406
H94	H	0.891055	-0.045771	0.375811
N95	N	1.031802	-0.043420	0.410827
H96	H	1.073748	-0.019801	0.368805
H97	H	1.062380	-0.073060	0.464724
H98	H	0.577852	-0.012275	0.062973
N99	N	1.038196	-0.040848	0.586948
H100	H	1.095317	-0.027782	0.565270
H101	H	1.037277	-0.042873	0.656686
N102	N	0.428190	-0.026900	0.083785
H103	H	0.365590	-0.030640	0.082580
H104	H	0.459382	-0.085437	0.082626
N105	N	0.569401	0.119670	-0.174208
H106	H	0.613026	0.071611	-0.156757
H107	H	0.523535	0.097445	-0.211811
H108	H	0.414242	0.130885	0.153524
N109	N	0.392726	0.250224	0.087812
H110	H	0.408426	0.280104	0.029941
H111	H	0.329667	0.249849	0.090250
N112	N	0.847788	-0.447695	0.082612
H113	H	0.844495	-0.510350	0.080452
H114	H	0.877505	-0.433124	0.141019
N115	N	0.850376	-0.288144	0.083534
H116	H	0.828354	-0.334689	0.120250
H117	H	0.889445	-0.258294	0.123453
N118	N	0.989767	-0.463588	0.174796
H119	H	0.972203	-0.411525	0.212691
H120	H	0.938380	-0.491541	0.157714
N121	N	1.126061	-0.324028	0.092147
H122	H	1.138634	-0.288672	0.037125
H123	H	1.135369	-0.292376	0.150958
H124	H	1.004324	-0.314320	0.153137
