data_functionalizedCrystal
_audit_creation_method	'MofGen! by Chris Wilmer'
_symmetry_space_group_name_H-M	'P1'
_symmetry_Int_Tables_number	1
_symmetry_cell_setting	triclinic
loop_
_symmetry_equiv_pos_as_xyz
  x,y,z
_cell_length_a	15.995350
_cell_length_b	15.995350
_cell_length_c	14.472310
_cell_angle_alpha	89.998838
_cell_angle_beta	89.990621
_cell_angle_gamma	96.507625
loop_
_atom_site_label
_atom_site_type_symbol
_atom_site_fract_x
_atom_site_fract_y
_atom_site_fract_z
O1	O	1.110997	-0.107921	-0.076758
O2	O	1.610997	0.392079	0.423242
O3	O	0.867221	-0.121248	-0.076776
O4	O	1.367221	0.378752	0.423224
O5	O	0.995773	0.007303	-0.076766
O6	O	1.495773	0.507303	0.423234
O7	O	0.982445	-0.236472	-0.076769
O8	O	1.482445	0.263528	0.423231
O9	O	0.995740	0.007296	0.076916
O10	O	1.495740	0.507296	0.576916
O11	O	0.867188	-0.121256	0.076906
O12	O	1.367188	0.378744	0.576906
O13	O	1.110963	-0.107928	0.076924
O14	O	1.610963	0.392072	0.576924
Cu15	Cu	0.989073	-0.114593	0.090947
Cu16	Cu	1.489073	0.385407	0.590947
Cu17	Cu	0.989112	-0.114584	-0.090800
Cu18	Cu	1.489112	0.385416	0.409200
O19	O	0.982412	-0.236480	0.076913
O20	O	1.482412	0.263520	0.576913
C21	C	0.836010	-0.120701	0.000062
C22	C	1.336010	0.379299	0.500062
C23	C	0.743060	-0.119049	0.000055
C24	C	1.243060	0.380951	0.500055
C25	C	0.405312	-0.113117	0.000074
C26	C	0.905312	0.386883	0.500074
C27	C	0.452746	-0.021565	0.000418
C28	C	0.952746	0.478435	0.500418
C29	C	0.549436	-0.023217	0.000065
C30	C	1.049436	0.476783	0.500065
C31	C	0.572873	-0.116060	0.000065
C32	C	1.072873	0.383940	0.500065
C33	C	0.531804	-0.161212	-0.087692
C34	C	1.031804	0.338788	0.412308
C35	C	0.435169	-0.158912	-0.087759
C36	C	0.935169	0.341088	0.412241
C37	C	0.434792	-0.160812	0.087007
C38	C	0.934792	0.339188	0.587007
C39	C	0.531737	-0.160790	0.088160
C40	C	1.031737	0.339210	0.588160
C41	C	0.667570	-0.117727	0.000057
C42	C	1.167570	0.382273	0.500057
C43	C	0.310614	-0.111452	0.000076
C44	C	0.810614	0.388548	0.500076
C45	C	0.995205	0.038494	0.000073
C46	C	1.495205	0.538494	0.500073
C47	C	0.993553	0.131444	0.000068
C48	C	1.493553	0.631444	0.500068
C49	C	1.142175	-0.108476	0.000083
C50	C	1.642175	0.391524	0.500083
C51	C	1.235125	-0.110127	0.000084
C52	C	1.735125	0.389873	0.500084
C53	C	0.982980	-0.267671	0.000072
C54	C	1.482980	0.232329	0.500072
C55	C	0.984631	-0.360621	0.000071
C56	C	1.484631	0.139379	0.500071
N57	N	0.989051	-0.114598	0.218778
N58	N	1.489051	0.385402	0.718778
C59	C	0.987621	0.469192	0.000071
C60	C	1.487621	0.969192	0.500071
C61	C	0.896069	0.421758	-0.000281
C62	C	1.396069	0.921758	0.499719
C63	C	0.897721	0.325068	0.000066
C64	C	1.397721	0.825068	0.500066
C65	C	0.990564	0.301631	0.000069
C66	C	1.490564	0.801631	0.500069
C67	C	1.035701	0.342705	0.087831
C68	C	1.535701	0.842705	0.587831
C69	C	1.033401	0.439340	0.087904
C70	C	1.533401	0.939340	0.587904
C71	C	1.035330	0.439707	-0.086861
C72	C	1.535330	0.939707	0.413139
C73	C	1.035309	0.342762	-0.088021
C74	C	1.535309	0.842762	0.411979
C75	C	0.992231	0.206934	0.000071
C76	C	1.492231	0.706934	0.500071
C77	C	0.985956	0.563890	0.000075
C78	C	1.485956	1.063890	0.500075
N79	N	0.989140	-0.114572	-0.218631
N80	N	1.489140	0.385428	0.281369
C81	C	0.989111	-0.114581	0.592869
C82	C	1.489111	0.385419	1.092869
C83	C	0.920095	-0.183135	0.553698
C84	C	1.420095	0.316865	1.053698
C85	C	0.920254	-0.183385	0.446610
C86	C	1.420254	0.316615	0.946610
C87	C	0.989081	-0.114590	0.407278
C88	C	1.489081	0.385410	0.907278
C89	C	1.076445	-0.133671	0.446122
C90	C	1.576445	0.366329	0.946122
C91	C	1.076057	-0.134159	0.553243
C92	C	1.576057	0.365841	1.053243
C93	C	0.971542	-0.026741	0.553398
C94	C	1.471542	0.473259	1.053398
C95	C	0.969538	-0.027327	0.446270
C96	C	1.469538	0.472673	0.946270
C97	C	0.989069	-0.114593	0.302390
C98	C	1.489069	0.385407	0.802390
C99	C	0.989128	-0.114579	0.697757
C100	C	1.489128	0.385421	1.197757
H101	H	0.403031	-0.228313	0.087600
H102	H	0.903031	0.271687	0.587600
F103	F	0.885537	-0.008397	0.413090
F104	F	1.385537	0.491603	0.913090
F105	F	1.097168	-0.216448	0.411046
F106	F	1.597168	0.283552	0.911046
H107	H	0.560193	-0.129845	-0.153002
H108	H	1.060193	0.370155	0.346998
F109	F	1.030980	0.042479	0.411290
F110	F	1.530980	0.542479	0.911290
F111	F	0.427149	0.026057	-0.081381
F112	F	0.927149	0.526057	0.418619
H113	H	0.862239	0.296649	-0.062846
H114	H	1.362239	0.796649	0.437154
H115	H	1.021872	0.024275	0.578728
H116	H	1.521872	0.524275	1.078728
F117	F	0.407936	-0.121693	0.173951
F118	F	0.907936	0.378307	0.673951
H119	H	0.931473	-0.248569	0.420976
H120	H	1.431473	0.251431	0.920976
F121	F	0.550286	-0.250359	-0.091975
F122	F	1.050286	0.249641	0.408025
F123	F	0.850993	0.288638	0.082427
F124	F	1.350993	0.788638	0.582427
H125	H	0.577308	0.012521	-0.062951
H126	H	1.077308	0.512521	0.437049
F127	F	0.411254	-0.115865	-0.173502
F128	F	0.911254	0.384135	0.326498
H129	H	0.859490	0.440293	-0.063217
H130	H	1.359490	0.940293	0.436783
H131	H	1.103014	0.327400	-0.093317
H132	H	1.603014	0.827400	0.406683
F133	F	0.994690	0.305607	0.173193
F134	F	1.494690	0.805607	0.673193
H135	H	0.402921	-0.226128	-0.091741
H136	H	0.902921	0.273872	0.408259
F137	F	0.567340	-0.117641	0.173018
F138	F	1.067340	0.382359	0.673018
H139	H	0.577852	0.012275	0.062973
H140	H	1.077852	0.512275	0.562973
H141	H	0.931159	-0.247952	0.580608
H142	H	1.431159	0.252048	1.080608
H143	H	1.091540	-0.198219	0.578220
H144	H	1.591540	0.301781	1.078220
F145	F	0.551814	-0.249287	0.095088
F146	F	1.051814	0.250713	0.595088
F147	F	0.848312	0.447646	0.081291
F148	F	1.348312	0.947646	0.581291
F149	F	0.990340	0.463260	0.173646
F150	F	1.490340	0.963260	0.673646
F151	F	0.428515	0.026264	0.082678
F152	F	0.928515	0.526264	0.582678
F153	F	0.890067	-0.002771	0.588744
F154	F	1.390067	0.497229	1.088744
H155	H	1.129029	-0.085068	0.420643
H156	H	1.629029	0.414932	0.920643
F157	F	1.121254	0.481493	0.093121
F158	F	1.621254	0.981493	0.593121
H159	H	0.855314	-0.172016	0.420349
H160	H	1.355314	0.327984	0.920349
F161	F	1.124855	0.324243	0.092103
F162	F	1.624855	0.824243	0.592103
H163	H	1.005412	0.460250	-0.153379
H164	H	1.505412	0.960250	0.346621
F165	F	1.145140	-0.071312	0.587113
F166	F	1.645140	0.428688	1.087113
H167	H	1.102831	0.471468	-0.087449
H168	H	1.602831	0.971468	0.412551
H169	H	1.002307	0.315516	-0.152945
H170	H	1.502307	0.815516	0.347055
H171	H	0.854945	-0.171953	0.579481
H172	H	1.354945	0.328047	1.079481
