data_functionalizedCrystal
_audit_creation_method	'MofGen! by Chris Wilmer'
_symmetry_space_group_name_H-M	'P1'
_symmetry_Int_Tables_number	1
_symmetry_cell_setting	triclinic
loop_
_symmetry_equiv_pos_as_xyz
  x,y,z
_cell_length_a	14.853569
_cell_length_b	13.930277
_cell_length_c	16.109301
_cell_angle_alpha	90.005979
_cell_angle_beta	96.451349
_cell_angle_gamma	89.995143
loop_
_atom_site_label
_atom_site_type_symbol
_atom_site_fract_x
_atom_site_fract_y
_atom_site_fract_z
O1	O	-1.196188	0.079781	0.108556
O2	O	-0.696188	0.579781	0.608556
O3	O	-0.933707	0.079795	0.121484
O4	O	-0.433707	0.579795	0.621484
O5	O	-1.072158	0.079778	-0.006001
O6	O	-0.572158	0.579778	0.493999
O7	O	-1.057737	0.079799	0.236041
O8	O	-0.557737	0.579799	0.736041
O9	O	-1.072139	-0.079884	-0.006004
O10	O	-0.572139	0.420116	0.493996
O11	O	-0.933688	-0.079867	0.121481
O12	O	-0.433688	0.420133	0.621481
O13	O	-1.196169	-0.079880	0.108553
O14	O	-0.696169	0.420120	0.608553
Zn15	Zn	-1.064925	-0.105223	0.115017
Zn16	Zn	-0.564925	0.394777	0.615017
Zn17	Zn	-1.064951	0.105138	0.115020
Zn18	Zn	-0.564951	0.605138	0.615020
O19	O	-1.057718	-0.079863	0.236038
O20	O	-0.557718	0.420137	0.736038
C21	C	-0.900110	-0.000034	0.120897
C22	C	-0.400110	0.499966	0.620897
C23	C	-0.800029	-0.000029	0.119140
C24	C	-0.300029	0.499971	0.619140
N25	N	-1.064915	-0.248789	0.115014
N26	N	-0.564915	0.251211	0.615014
C27	C	-0.763779	-0.000032	0.042587
C28	C	-0.263779	0.499968	0.542587
C29	C	-0.742240	-0.000030	0.194043
C30	C	-0.242240	0.499970	0.694043
C31	C	-0.648208	-0.000030	0.192396
C32	C	-0.148208	0.499970	0.692396
C33	C	-0.611958	-0.000033	0.115843
C34	C	-0.111958	0.499967	0.615843
C35	C	-0.669739	-0.000035	0.040937
C36	C	-0.169739	0.499965	0.540937
C37	C	-0.590420	-0.000038	0.267300
C38	C	-0.090420	0.499962	0.767300
C39	C	-0.496382	-0.000040	0.265655
C40	C	0.003618	0.499960	0.765655
C41	C	-0.460131	-0.000035	0.189101
C42	C	0.039869	0.499965	0.689101
C43	C	-0.517918	-0.000036	0.114192
C44	C	-0.017918	0.499964	0.614192
C45	C	-0.481668	-0.000039	0.037639
C46	C	0.018332	0.499961	0.537639
C47	C	-0.539454	-0.000033	-0.037270
C48	C	-0.039454	0.499967	0.462730
C49	C	-0.633488	-0.000031	-0.035617
C50	C	-0.133488	0.499969	0.464383
C51	C	-0.366097	-0.000038	0.187448
C52	C	0.133903	0.499962	0.687448
C53	C	-0.387628	-0.000043	0.035989
C54	C	0.112372	0.499957	0.535989
C55	C	-1.003642	-0.701051	0.171449
C56	C	-0.503642	-0.201051	0.671449
C57	C	-1.126284	-0.701036	0.058586
C58	C	-0.626284	-0.201036	0.558586
C59	C	-1.126273	-0.600540	0.058583
C60	C	-0.626273	-0.100540	0.558583
C61	C	-1.064947	-0.550295	0.115015
C62	C	-0.564947	-0.050295	0.615015
C63	C	-1.003631	-0.600546	0.171449
C64	C	-0.503631	-0.100546	0.671449
C65	C	-1.187594	-0.550281	0.002155
C66	C	-0.687594	-0.050281	0.502155
C67	C	-1.187586	-0.449779	0.002151
C68	C	-0.687586	0.050221	0.502151
C69	C	-1.126255	-0.399533	0.058579
C70	C	-0.626255	0.100467	0.558579
C71	C	-1.064936	-0.449790	0.115016
C72	C	-0.564936	0.050210	0.615016
C73	C	-1.003610	-0.399545	0.171447
C74	C	-0.503610	0.100455	0.671447
C75	C	-0.942286	-0.449801	0.227880
C76	C	-0.442286	0.050199	0.727880
C77	C	-0.942300	-0.550299	0.227878
C78	C	-0.442300	-0.050299	0.727878
C79	C	-1.126241	-0.299034	0.058582
C80	C	-0.626241	0.200966	0.558582
C81	C	-1.003599	-0.299040	0.171448
C82	C	-0.503599	0.200960	0.671448
C83	C	-0.229766	-0.000047	0.109140
C84	C	0.270234	0.499953	0.609140
C85	C	-0.329847	-0.000040	0.110895
C86	C	0.170153	0.499960	0.610895
C87	C	-1.071564	-0.000053	-0.036978
C88	C	-0.571564	0.499947	0.463022
C89	C	-1.069813	-0.000054	-0.129276
C90	C	-0.569813	0.499946	0.370724
N91	N	-1.064968	0.248704	0.115017
N92	N	-0.564968	0.748704	0.615017
C93	C	-1.147895	-0.000043	-0.351438
C94	C	-0.647895	0.499957	0.148562
C95	C	-1.146242	-0.000035	-0.438161
C96	C	-0.646242	0.499965	0.061839
C97	C	-0.981975	-0.000030	-0.418518
C98	C	-0.481975	0.499970	0.081482
C99	C	-0.983628	-0.000032	-0.331797
C100	C	-0.483628	0.499968	0.168203
C101	C	-1.066591	-0.000043	-0.298260
C102	C	-0.566591	0.499957	0.201740
C103	C	-1.063285	-0.000034	-0.471703
C104	C	-0.563285	0.499966	0.028297
C105	C	-1.061492	-0.000025	-0.565732
C106	C	-0.561492	0.499975	-0.065732
C107	C	-1.068384	-0.000050	-0.204225
C108	C	-0.568384	0.499950	0.295775
C109	C	-1.058312	-0.000030	0.267015
C110	C	-0.558312	0.499970	0.767015
C111	C	-1.060063	-0.000022	0.359313
C112	C	-0.560063	0.499978	0.859313
H113	H	-0.358121	-0.000040	-0.026350
H114	H	0.141879	0.499960	0.473650
Cl115	Cl	-1.203382	-0.764198	-0.012349
Cl116	Cl	-0.703382	-0.264198	0.487651
Cl117	Cl	-0.635996	-0.000030	0.363531
Cl118	Cl	-0.135996	0.499970	0.863531
Cl119	Cl	-0.706137	-0.000035	-0.129779
Cl120	Cl	-0.206137	0.499965	0.370221
Cl121	Cl	-0.423746	-0.000039	0.359825
Cl122	Cl	0.076254	0.499961	0.859825
Cl123	Cl	-1.264692	-0.613443	-0.068780
Cl124	Cl	-0.764692	-0.113443	0.431220
Cl125	Cl	-0.836420	-0.000023	-0.051580
Cl126	Cl	-0.336420	0.499977	0.448420
H127	H	-0.771760	-0.000034	0.256370
H128	H	-0.271760	0.499966	0.756370
H129	H	-0.319052	-0.000051	0.248438
H130	H	0.180948	0.499949	0.748438
Cl131	Cl	-1.252190	-0.000055	-0.309279
Cl132	Cl	-0.752190	0.499945	0.190721
Cl133	Cl	-1.248458	-0.000034	-0.505010
Cl134	Cl	-0.748458	0.499966	-0.005010
H135	H	-0.953656	-0.258137	0.217399
H136	H	-0.453656	0.241863	0.717399
Cl137	Cl	-0.865217	-0.613479	0.298819
Cl138	Cl	-0.365217	-0.113479	0.798819
Cl139	Cl	-0.865199	-0.386625	0.298826
Cl140	Cl	-0.365199	0.113375	0.798826
H141	H	-0.914430	-0.000023	-0.445835
H142	H	-0.414430	0.499977	0.054165
H143	H	-0.917417	-0.000028	-0.288497
H144	H	-0.417417	0.499972	0.211503
Cl145	Cl	-0.926550	-0.764224	0.242387
Cl146	Cl	-0.426550	-0.264224	0.742387
H147	H	-0.509927	-0.000030	-0.099600
H148	H	-0.009927	0.499970	0.400400
H149	H	-1.237518	-0.408868	-0.043800
H150	H	-0.737518	0.091132	0.456200
Cl151	Cl	-1.203333	-0.235863	-0.012352
Cl152	Cl	-0.703333	0.264137	0.487648
