data_functionalizedCrystal
_audit_creation_method	'MofGen! by Chris Wilmer'
_symmetry_space_group_name_H-M	'P1'
_symmetry_Int_Tables_number	1
_symmetry_cell_setting	triclinic
loop_
_symmetry_equiv_pos_as_xyz
  x,y,z
_cell_length_a	15.995350
_cell_length_b	17.699083
_cell_length_c	16.776229
_cell_angle_alpha	90.005210
_cell_angle_beta	90.000050
_cell_angle_gamma	83.387695
loop_
_atom_site_label
_atom_site_type_symbol
_atom_site_fract_x
_atom_site_fract_y
_atom_site_fract_z
O1	O	-1.110787	-0.097546	0.066222
O2	O	-0.866988	-0.109593	0.066239
O3	O	-0.995776	0.006608	0.066223
O4	O	-0.982000	-0.213747	0.066238
O5	O	-0.995764	0.006588	-0.066353
O6	O	-0.866976	-0.109613	-0.066338
O7	O	-1.110776	-0.097566	-0.066354
Zn8	Zn	-0.988874	-0.103593	-0.087395
Zn9	Zn	-0.988889	-0.103566	0.087280
O10	O	-0.981988	-0.213768	-0.066338
C11	C	-0.995276	0.034796	-0.000065
C12	C	-0.993795	0.118816	-0.000065
C13	C	-0.835788	-0.109105	-0.000047
C14	C	-0.742841	-0.107612	-0.000041
C15	C	-1.141975	-0.098054	-0.000066
C16	C	-1.234923	-0.099547	-0.000067
C17	C	-0.405104	-0.102250	-0.000058
C18	C	-0.452706	-0.019493	-0.000360
C19	C	-0.549394	-0.020987	-0.000055
C20	C	-0.572659	-0.104910	-0.000050
C21	C	-0.531496	-0.145716	0.075657
C22	C	-0.434864	-0.143637	0.075715
C23	C	-0.434508	-0.145370	-0.075049
C24	C	-0.531454	-0.145351	-0.076044
C25	C	-0.667354	-0.106417	-0.000043
C26	C	-0.310409	-0.100745	-0.000060
C27	C	-0.982487	-0.241955	-0.000048
C28	C	-0.983968	-0.325976	-0.000043
N29	N	-0.988869	-0.103611	-0.206607
C30	C	-1.069391	0.167312	-0.000072
C31	C	-1.067994	0.246257	-0.000065
C32	C	-0.991001	0.276706	-0.000057
C33	C	-0.915400	0.228205	-0.000048
C34	C	-0.916797	0.149261	-0.000050
C35	C	-0.909763	0.546577	-0.000041
C36	C	-0.908372	0.625527	-0.000042
C37	C	-1.060960	0.643574	-0.000056
C38	C	-1.062358	0.564630	-0.000058
C39	C	-0.986757	0.516135	-0.000045
C40	C	-0.988272	0.430533	-0.000051
C41	C	-0.989485	0.362306	-0.000056
C42	C	-0.938214	-0.057618	-0.751778
C43	C	-0.938212	-0.057624	-0.668326
C44	C	-0.988893	-0.103560	-0.626606
C45	C	-1.039586	-0.149487	-0.668343
C46	C	-1.039592	-0.149476	-0.751793
C47	C	-1.039564	-0.149531	-0.331795
C48	C	-1.039552	-0.149540	-0.248339
C49	C	-0.938184	-0.057679	-0.248328
C50	C	-0.938190	-0.057668	-0.331779
C51	C	-0.988886	-0.103592	-0.373508
C52	C	-0.988888	-0.103583	-0.463996
C53	C	-0.988886	-0.103573	-0.536119
N54	N	-0.988901	-0.103543	0.206491
H55	H	-0.577883	0.011090	-0.054326
H56	H	-0.852711	0.253002	-0.000037
H57	H	-0.546694	-0.206551	-0.080614
H58	H	-1.080856	-0.186885	-0.634368
Br59	Br	-0.595915	0.032626	0.090708
Br60	Br	-0.869391	0.004681	-0.611694
H61	H	-0.896917	-0.020265	-0.365743
H62	H	-0.896938	-0.020215	-0.785740
H63	H	-1.080867	-0.186872	-0.785769
H64	H	-1.129552	0.285740	-0.000071
H65	H	-0.434247	0.013578	-0.054652
H66	H	-0.402623	-0.206386	-0.075558
H67	H	-0.896907	-0.020284	-0.214342
Br68	Br	-1.108361	-0.211861	-0.388418
H69	H	-0.433185	0.013442	0.053630
Br70	Br	-0.404453	-0.094011	0.170034
Br71	Br	-0.380904	-0.244901	0.081447
Br72	Br	-1.108337	-0.211889	-0.191719
H73	H	-0.545496	-0.207372	0.078476
Br74	Br	-0.578889	-0.098452	0.169563
H75	H	-0.558826	-0.115562	-0.132052
H76	H	-0.414023	-0.118324	-0.132434
Br77	Br	-1.173887	0.125997	-0.000094
Br78	Br	-1.166852	0.523310	-0.000068
Br79	Br	-1.163564	0.709392	-0.000073
H80	H	-0.848204	0.507102	-0.000031
Br81	Br	-0.803874	0.666850	-0.000033
Br82	Br	-0.814199	0.083444	-0.000035
