data_functionalizedCrystal
_audit_creation_method	'MofGen! by Chris Wilmer'
_symmetry_space_group_name_H-M	'P1'
_symmetry_Int_Tables_number	1
_symmetry_cell_setting	triclinic
loop_
_symmetry_equiv_pos_as_xyz
  x,y,z
_cell_length_a	17.699083
_cell_length_b	10.489741
_cell_length_c	16.176319
_cell_angle_alpha	89.993511
_cell_angle_beta	89.998611
_cell_angle_gamma	83.911094
loop_
_atom_site_label
_atom_site_type_symbol
_atom_site_fract_x
_atom_site_fract_y
_atom_site_fract_z
O1	O	1.005134	0.161296	-0.068630
O2	O	0.784893	0.182281	-0.068657
O3	O	0.900025	-0.013903	-0.068638
O4	O	0.890002	0.357479	-0.068649
O5	O	0.900009	-0.013915	0.068855
O6	O	0.784877	0.182268	0.068836
O7	O	1.005118	0.161283	0.068863
Cu8	Cu	0.894996	0.171775	0.081404
Cu9	Cu	0.895015	0.171789	-0.081198
O10	O	0.889986	0.357467	0.068844
C11	C	0.756683	0.181523	0.000086
C12	C	0.672650	0.179267	0.000076
C13	C	0.624782	0.294422	0.000073
C14	C	0.545825	0.292295	0.000083
C15	C	0.514737	0.175011	0.000091
C16	C	0.562611	0.059847	0.000097
C17	C	0.641567	0.061975	0.000092
C18	C	0.244192	0.051260	0.000118
C19	C	0.165230	0.049140	0.000120
C20	C	0.148450	0.281580	0.000109
C21	C	0.227406	0.283709	0.000104
C22	C	0.275273	0.168545	0.000114
C23	C	0.360887	0.170853	0.000104
C24	C	0.429124	0.172702	0.000096
C25	C	0.899260	-0.061427	0.000108
C26	C	0.896995	-0.203014	0.000106
C27	C	0.823740	-0.269793	0.000091
C28	C	0.858337	-0.362565	0.067887
C29	C	0.858370	-0.362527	-0.067671
C30	C	0.931622	-0.293921	0.067958
C31	C	0.931645	-0.293874	-0.067661
C32	C	0.966296	-0.386619	0.000151
C33	C	1.033328	0.162042	0.000118
C34	C	1.117361	0.164297	0.000123
C35	C	0.890751	0.404991	0.000096
C36	C	0.893016	0.546578	0.000093
N37	N	0.894988	0.171764	0.195769
N38	N	0.895029	0.171790	-0.195563
C39	C	0.945984	0.084929	0.239042
C40	C	0.945988	0.084928	0.325589
C41	C	0.894999	0.171768	0.368862
C42	C	0.843997	0.258607	0.325583
C43	C	0.843990	0.258601	0.239037
C44	C	0.844023	0.258631	0.674611
C45	C	0.844036	0.258632	0.761163
C46	C	0.946021	0.084957	0.761162
C47	C	0.946014	0.084951	0.674617
C48	C	0.895010	0.171785	0.631346
C49	C	0.895006	0.171784	0.537502
C50	C	0.895006	0.171776	0.462704
H51	H	0.506854	0.386067	0.000080
H52	H	0.802495	0.329336	0.639387
H53	H	0.802477	0.329310	0.360821
C54	C	0.202887	0.513260	0.000104
C55	C	0.261577	0.412631	0.000099
H56	H	0.223983	0.592851	0.000109
H57	H	0.172441	0.507606	-0.047839
H58	H	0.172440	0.507579	0.048055
H59	H	0.292021	0.418306	-0.047855
H60	H	0.292035	0.418287	0.048047
H61	H	0.987549	0.014248	0.796403
C62	C	0.019964	0.381549	0.000122
C63	C	0.095832	0.408174	0.000109
H64	H	-0.012517	0.459702	0.000125
H65	H	0.010472	0.333458	-0.047818
H66	H	0.010482	0.333445	0.048077
H67	H	0.105315	0.456270	-0.047849
H68	H	0.105328	0.456286	0.048054
C69	C	0.189744	-0.180423	0.000151
C70	C	0.131057	-0.079788	0.000138
H71	H	0.168644	-0.260011	0.000166
H72	H	0.220189	-0.174769	-0.047795
H73	H	0.220191	-0.174748	0.048100
H74	H	0.100612	-0.085458	-0.047815
H75	H	0.100598	-0.085445	0.048088
H76	H	0.987509	0.014219	0.203815
C77	C	0.989179	-0.135990	0.648161
C78	C	1.002058	-0.010620	0.627133
H79	H	1.023774	-0.195026	0.618867
H80	H	0.996438	-0.148292	0.705906
H81	H	0.938590	-0.149682	0.633958
H82	H	1.052645	0.003075	0.641341
H83	H	0.994805	0.001687	0.569375
H84	H	0.827372	-0.392910	-0.124992
H85	H	0.763510	-0.219023	0.000152
H86	H	0.802511	0.329350	0.796394
H87	H	0.650088	0.389929	0.000065
H88	H	0.680540	-0.031796	0.000094
C89	C	0.743186	0.430288	0.247725
C90	C	0.787937	0.354058	0.191469
H91	H	0.708583	0.489223	0.218357
H92	H	0.715679	0.377255	0.281488
H93	H	0.774948	0.476102	0.281473
H94	H	0.756175	0.308238	0.157724
H95	H	0.815446	0.407098	0.157691
H96	H	0.827334	-0.393005	0.125195
C97	C	0.342714	-0.081214	0.070797
C98	C	0.296803	-0.075323	0.000119
H99	H	0.375193	-0.159369	0.070796
H100	H	0.372525	-0.011070	0.070789
H101	H	0.311557	-0.077220	0.118740
H102	H	0.327960	-0.079308	-0.047825
H103	H	0.266988	-0.145487	0.000119
H104	H	0.962584	-0.263669	0.125338
H105	H	0.987512	0.014220	0.360821
H106	H	0.537293	-0.035648	0.000115
C107	C	0.935002	-0.286939	-0.215957
C108	C	0.973461	-0.252716	-0.145027
H109	H	0.960812	-0.261518	-0.263723
H110	H	0.933467	-0.377166	-0.216789
H111	H	0.884647	-0.245322	-0.215467
H112	H	1.023814	-0.294341	-0.145514
H113	H	0.975005	-0.162472	-0.144195
H114	H	1.026580	-0.437163	0.000196
