data_functionalizedCrystal
_audit_creation_method	'MofGen! by Chris Wilmer'
_symmetry_space_group_name_H-M	'P1'
_symmetry_Int_Tables_number	1
_symmetry_cell_setting	triclinic
loop_
_symmetry_equiv_pos_as_xyz
  x,y,z
_cell_length_a	29.839131
_cell_length_b	17.077404
_cell_length_c	17.077396
_cell_angle_alpha	89.981638
_cell_angle_beta	89.968087
_cell_angle_gamma	90.039390
loop_
_atom_site_label
_atom_site_type_symbol
_atom_site_fract_x
_atom_site_fract_y
_atom_site_fract_z
Zn1	Zn	-0.178878	1.199953	-0.443800
Zn2	Zn	0.154456	1.533287	-0.110467
Zn3	Zn	0.487789	1.866620	0.222867
Zn4	Zn	-0.254008	1.199818	-0.312526
Zn5	Zn	0.079325	1.533151	0.020807
Zn6	Zn	0.412658	1.866485	0.354140
Zn7	Zn	-0.178890	1.068685	-0.312551
Zn8	Zn	0.154443	1.402019	0.020783
Zn9	Zn	0.487776	1.735352	0.354116
Zn10	Zn	-0.253979	1.068611	-0.443752
Zn11	Zn	0.079355	1.401944	-0.110419
Zn12	Zn	0.412688	1.735277	0.222914
O13	O	-0.216439	1.134267	-0.378157
O14	O	0.116895	1.467600	-0.044824
O15	O	0.450228	1.800934	0.288509
O16	O	-0.188851	1.309782	-0.426396
O17	O	0.144482	1.643116	-0.093063
O18	O	0.477816	1.976449	0.240271
O19	O	-0.244062	1.182398	-0.202682
O20	O	0.089272	1.515731	0.130651
O21	O	0.422605	1.849064	0.463984
O22	O	-0.116022	1.086186	-0.329991
O23	O	0.217312	1.419519	0.003342
O24	O	0.550645	1.752853	0.336675
O25	O	-0.244049	1.309683	-0.329950
O26	O	0.089284	1.643016	0.003384
O27	O	0.422618	1.976350	0.336717
O28	O	-0.116012	1.182628	-0.426420
O29	O	0.217321	1.515962	-0.093086
O30	O	0.550654	1.849295	0.240247
O31	O	-0.188873	1.086055	-0.202700
O32	O	0.144461	1.419388	0.130633
O33	O	0.477794	1.752722	0.463966
O34	O	-0.188844	0.958829	-0.329945
O35	O	0.144489	1.292162	0.003388
O36	O	0.477823	1.625495	0.336722
O37	O	-0.243999	1.086059	-0.553606
O38	O	0.089335	1.419393	-0.220272
O39	O	0.422668	1.752726	0.113061
O40	O	-0.244011	0.958774	-0.426338
O41	O	0.089322	1.292107	-0.093005
O42	O	0.422656	1.625440	0.240328
O43	O	-0.188822	1.182556	-0.553641
O44	O	0.144511	1.515889	-0.220307
O45	O	0.477844	1.849223	0.113026
O46	O	-0.316872	1.182325	-0.329903
O47	O	0.016462	1.515659	0.003430
O48	O	0.349795	1.848992	0.336763
O49	O	-0.316850	1.085928	-0.426315
O50	O	0.016484	1.419261	-0.092981
O51	O	0.349817	1.752595	0.240352
C52	C	-0.216426	0.930319	-0.378140
C53	C	0.116907	1.263652	-0.044806
C54	C	0.450241	1.596986	0.288527
C55	C	-0.216431	0.843069	-0.378151
C56	C	0.116902	1.176403	-0.044817
C57	C	0.450235	1.509736	0.288516
C58	C	-0.333161	1.134125	-0.378118
C59	C	0.000172	1.467459	-0.044785
C60	C	0.333505	1.800792	0.288548
C61	C	-0.383096	1.134136	-0.378128
C62	C	-0.049762	1.467470	-0.044795
C63	C	0.283571	1.800803	0.288539
C64	C	-0.187741	0.802132	-0.428447
C65	C	0.145592	1.135465	-0.095114
C66	C	0.478926	1.468798	0.238220
C67	C	-0.187744	0.720151	-0.428451
C68	C	0.145590	1.053485	-0.095117
C69	C	0.478923	1.386818	0.238216
C70	C	-0.216440	0.679110	-0.378161
C71	C	0.116894	1.012443	-0.044828
C72	C	0.450227	1.345777	0.288505
C73	C	-0.245132	0.720053	-0.327860
C74	C	0.088202	1.053387	0.005474
C75	C	0.421535	1.386720	0.338807
C76	C	-0.245126	0.802032	-0.327853
C77	C	0.088207	1.135366	0.005481
C78	C	0.421540	1.468699	0.338814
C79	C	-0.245142	0.549183	-0.327879
C80	C	0.088191	0.882517	0.005454
C81	C	0.421525	1.215850	0.338788
C82	C	-0.245148	0.467199	-0.327887
C83	C	0.088185	0.800532	0.005446
C84	C	0.421519	1.133865	0.338780
C85	C	-0.187759	0.467302	-0.428477
C86	C	0.145574	0.800636	-0.095144
C87	C	0.478907	1.133969	0.238189
C88	C	-0.187754	0.549281	-0.428470
C89	C	0.145579	0.882614	-0.095137
C90	C	0.478913	1.215948	0.238196
C91	C	-0.216447	0.590219	-0.378169
C92	C	0.116887	0.923552	-0.044836
C93	C	0.450220	1.256886	0.288497
C94	C	-0.692738	1.184552	-0.328029
C95	C	-0.359405	1.517886	0.005304
C96	C	-0.026071	1.851219	0.338637
C97	C	-0.880411	1.184649	-0.328060
C98	C	-0.547078	1.517983	0.005274
C99	C	-0.213744	1.851316	0.338607
O100	O	-0.904675	1.227402	-0.285434
O101	O	-0.571341	1.560736	0.047899
O102	O	-0.238008	1.894069	0.381233
N103	N	-0.903881	1.134430	-0.378217
N104	N	-0.570547	1.467763	-0.044883
N105	N	-0.237214	1.801096	0.288450
C106	C	-0.880430	1.084186	-0.428373
C107	C	-0.547096	1.417519	-0.095040
C108	C	-0.213763	1.750853	0.238294
O109	O	-0.904699	1.041479	-0.471041
O110	O	-0.571365	1.374812	-0.137707
O111	O	-0.238032	1.708146	0.195626
C112	C	-0.692757	1.084094	-0.428346
C113	C	-0.359424	1.417427	-0.095012
C114	C	-0.026091	1.750760	0.238321
C115	C	-0.669290	1.134311	-0.378180
C116	C	-0.335957	1.467644	-0.044847
C117	C	-0.002623	1.800978	0.288487
C118	C	-0.669270	1.234766	-0.277868
C119	C	-0.335937	1.568099	0.055465
C120	C	-0.002604	1.901433	0.388798
C121	C	-0.622355	1.234738	-0.277858
C122	C	-0.289022	1.568072	0.055475
C123	C	0.044312	1.901405	0.388808
C124	C	-0.598907	1.184497	-0.328009
C125	C	-0.265574	1.517830	0.005324
C126	C	0.067760	1.851164	0.338658
C127	C	-0.622375	1.134283	-0.378170
C128	C	-0.289041	1.467616	-0.044837
C129	C	0.044292	1.800950	0.288497
C130	C	-0.669307	1.033855	-0.478506
C131	C	-0.335974	1.367188	-0.145172
C132	C	-0.002640	1.700521	0.188161
C133	C	-0.622386	1.033837	-0.478496
C134	C	-0.289053	1.367171	-0.145162
C135	C	0.044281	1.700504	0.188171
C136	C	-0.598919	1.084054	-0.428330
C137	C	-0.265585	1.417388	-0.094997
C138	C	0.067748	1.750721	0.238337
C139	C	-0.552011	1.084014	-0.428311
C140	C	-0.218678	1.417347	-0.094977
C141	C	0.114655	1.750681	0.238356
N142	N	-0.528541	1.134233	-0.378154
N143	N	-0.195208	1.467567	-0.044821
N144	N	0.138125	1.800900	0.288513
C145	C	-0.551989	1.184475	-0.328003
C146	C	-0.218656	1.517808	0.005330
C147	C	0.114678	1.851142	0.338664
C148	C	-0.978960	1.084237	-0.428382
C149	C	-0.645627	1.417570	-0.095049
C150	C	-0.312294	1.750904	0.238284
C151	C	-1.025878	1.084259	-0.428388
C152	C	-0.692545	1.417592	-0.095055
C153	C	-0.359211	1.750926	0.238278
C154	C	-1.025856	1.184723	-0.328076
C155	C	-0.692523	1.518057	0.005257
C156	C	-0.359189	1.851390	0.338591
C157	C	-0.978937	1.184697	-0.328067
C158	C	-0.645604	1.518030	0.005267
C159	C	-0.312271	1.851364	0.338600
C160	C	-0.955490	1.134456	-0.378226
C161	C	-0.622157	1.467790	-0.044892
C162	C	-0.288824	1.801123	0.288441
C163	C	-0.453463	1.184412	-0.327985
C164	C	-0.120130	1.517746	0.005348
C165	C	0.213203	1.851079	0.338682
C166	C	-0.406544	1.184378	-0.327977
C167	C	-0.073210	1.517711	0.005356
C168	C	0.260123	1.851045	0.338689
C169	C	-0.406570	1.083917	-0.428292
C170	C	-0.073236	1.417250	-0.094959
C171	C	0.260097	1.750583	0.238375
C172	C	-0.453485	1.083948	-0.428297
C173	C	-0.120152	1.417281	-0.094964
C174	C	0.213181	1.750615	0.238369
C175	C	-0.476931	1.134202	-0.378141
C176	C	-0.143598	1.467535	-0.044808
C177	C	0.189736	1.800869	0.288525
O178	O	-0.527719	1.041289	-0.470920
O179	O	-0.194385	1.374623	-0.137587
O180	O	0.138948	1.707956	0.195746
O181	O	-0.527712	1.227188	-0.285354
O182	O	-0.194379	1.560521	0.047979
O183	O	0.138955	1.893854	0.381313
C184	C	-0.739653	1.184580	-0.328039
C185	C	-0.406320	1.517913	0.005294
C186	C	-0.072987	1.851247	0.338627
C187	C	-0.763121	1.134366	-0.378200
C188	C	-0.429788	1.467700	-0.044867
C189	C	-0.096454	1.801033	0.288466
C190	C	-0.739673	1.084125	-0.428351
C191	C	-0.406340	1.417458	-0.095018
C192	C	-0.073006	1.750792	0.238315
C193	C	-0.810039	1.134388	-0.378206
C194	C	-0.476705	1.467722	-0.044873
C195	C	-0.143372	1.801055	0.288460
C196	C	-0.833487	1.184630	-0.328056
C197	C	-0.500153	1.517963	0.005278
C198	C	-0.166820	1.851296	0.338611
C199	C	-0.810017	1.234849	-0.277899
C200	C	-0.476683	1.568183	0.055435
C201	C	-0.143350	1.901516	0.388768
C202	C	-0.763101	1.234822	-0.277889
C203	C	-0.429768	1.568155	0.055445
C204	C	-0.096435	1.901488	0.388778
C205	C	-0.763143	1.033905	-0.478508
C206	C	-0.429810	1.367239	-0.145175
C207	C	-0.096476	1.700572	0.188159
C208	C	-0.810058	1.033937	-0.478513
C209	C	-0.476725	1.367270	-0.145180
C210	C	-0.143392	1.700603	0.188153
C211	C	-0.833506	1.084178	-0.428363
C212	C	-0.500173	1.417511	-0.095029
C213	C	-0.166840	1.750845	0.238304
C214	C	-0.099260	1.134431	-0.378214
C215	C	0.234073	1.467764	-0.044880
C216	C	0.567406	1.801097	0.288453
C217	C	-0.049326	1.134500	-0.378238
C218	C	0.284007	1.467834	-0.044904
C219	C	0.617341	1.801167	0.288429
C220	C	-0.216406	1.134314	-0.582902
C221	C	0.116928	1.467648	-0.249568
C222	C	0.450261	1.800981	0.083765
C223	C	-0.216392	1.134335	-0.670152
C224	C	0.116942	1.467668	-0.336818
C225	C	0.450275	1.801001	-0.003485
C226	C	-0.216452	1.339011	-0.378175
C227	C	0.116881	1.672344	-0.044842
C228	C	0.450215	2.005678	0.288491
C229	C	-0.216458	1.426261	-0.378183
C230	C	0.116876	1.759594	-0.044850
C231	C	0.450209	2.092928	0.288483
C232	C	-0.187659	1.184582	-0.711161
C233	C	0.145674	1.517916	-0.377828
C234	C	0.479008	1.851249	-0.044495
C235	C	-0.187644	1.184592	-0.793142
C236	C	0.145689	1.517925	-0.459808
C237	C	0.479023	1.851259	-0.126475
C238	C	-0.216364	1.134357	-0.834111
C239	C	0.116969	1.467690	-0.500778
C240	C	0.450302	1.801024	-0.167444
C241	C	-0.245098	1.084104	-0.793096
C242	C	0.088235	1.417437	-0.459762
C243	C	0.421568	1.750770	-0.126429
C244	C	-0.245111	1.084091	-0.711117
C245	C	0.088223	1.417424	-0.377783
C246	C	0.421556	1.750758	-0.044450
C247	C	-0.245071	1.084135	-0.963966
C248	C	0.088262	1.417469	-0.630632
C249	C	0.421595	1.750802	-0.297299
C250	C	-0.245060	1.084149	-1.045950
C251	C	0.088274	1.417482	-0.712617
C252	C	0.421607	1.750816	-0.379284
C253	C	-0.187605	1.184636	-1.045991
C254	C	0.145729	1.517970	-0.712658
C255	C	0.479062	1.851303	-0.379324
C256	C	-0.187617	1.184624	-0.964012
C257	C	0.145716	1.517957	-0.630679
C258	C	0.479050	1.851290	-0.297345
C259	C	-0.216352	1.134371	-0.923002
C260	C	0.116982	1.467704	-0.589669
C261	C	0.450315	1.801038	-0.256335
C262	C	-0.216439	1.134265	-0.174209
C263	C	0.116894	1.467598	0.159124
C264	C	0.450227	1.800931	0.492457
C265	C	-0.216327	1.134397	-0.086960
C266	C	0.117006	1.467730	0.246373
C267	C	0.450340	1.801063	0.579707
H268	H	-0.164374	0.835542	-0.469401
H269	H	0.168959	1.168875	-0.136067
H270	H	0.502292	1.502208	0.197266
F271	F	-0.275670	0.676372	-0.274334
F272	F	0.057663	1.009705	0.059000
F273	F	0.390997	1.343039	0.392333
H274	H	-0.744055	0.992994	-0.519348
H275	H	-0.410722	1.326327	-0.186015
H276	H	-0.077389	1.659660	0.147319
F277	F	-0.157216	0.592959	-0.482000
F278	F	0.176117	0.926292	-0.148666
F279	F	0.509451	1.259625	0.184667
H280	H	-1.044981	1.043360	-0.469231
H281	H	-0.711648	1.376693	-0.135898
H282	H	-0.378315	1.710026	0.197436
F283	F	-0.275691	1.030608	-0.667472
F284	F	0.057642	1.363942	-0.334138
F285	F	0.390976	1.697275	-0.000805
H286	H	-0.472547	1.225336	-0.287145
H287	H	-0.139214	1.558669	0.046188
H288	H	0.194119	1.892002	0.379522
F289	F	-0.275698	0.423521	-0.274378
F290	F	0.057635	0.756854	0.058955
F291	F	0.390969	1.090188	0.392288
F292	F	-0.381570	1.237828	-0.274581
F293	F	-0.048237	1.571161	0.058752
F294	F	0.285096	1.904494	0.392085
H295	H	-0.164382	0.686823	-0.469409
H296	H	0.168951	1.020157	-0.136075
H297	H	0.502285	1.353490	0.197258
H298	H	-0.268445	1.043242	-1.079306
H299	H	0.064888	1.376575	-0.745972
H300	H	0.398221	1.709908	-0.412639
H301	H	-0.268463	1.043202	-0.930578
H302	H	0.064870	1.376535	-0.597245
H303	H	0.398204	1.709869	-0.263912
H304	H	-0.959873	1.043323	-0.469229
H305	H	-0.626539	1.376657	-0.135896
H306	H	-0.293206	1.709990	0.197438
F307	F	-0.157221	0.423733	-0.482010
F308	F	0.176112	0.757066	-0.148677
F309	F	0.509445	1.090399	0.184657
H310	H	-0.268505	0.582512	-0.286917
H311	H	0.064828	0.915846	0.046417
H312	H	0.398161	1.249179	0.379750
F313	F	-0.694273	0.980412	-0.531906
F314	F	-0.360940	1.313746	-0.198573
F315	F	-0.027606	1.647079	0.134760
H316	H	-0.268489	0.835363	-0.286896
H317	H	0.064845	1.168696	0.046438
H318	H	0.398178	1.502029	0.379771
F319	F	-0.597385	1.288196	-0.224474
F320	F	-0.264051	1.621529	0.108860
F321	F	0.069282	1.954863	0.442193
F322	F	-0.275663	1.030637	-0.836700
F323	F	0.057670	1.363970	-0.503367
F324	F	0.391004	1.697303	-0.170034
F325	F	-0.694218	1.288246	-0.224487
F326	F	-0.360885	1.621579	0.108846
F327	F	-0.027552	1.954913	0.442179
H328	H	-0.743997	1.275713	-0.237039
H329	H	-0.410664	1.609047	0.096294
H330	H	-0.077331	1.942380	0.429627
F331	F	-0.953966	1.238145	-0.274675
F332	F	-0.620632	1.571478	0.058659
F333	F	-0.287299	1.904811	0.391992
F334	F	-0.381607	1.030451	-0.481666
F335	F	-0.048273	1.363784	-0.148332
F336	F	0.285060	1.697118	0.185001
H337	H	-0.164248	1.225511	-0.826528
H338	H	0.169085	1.558844	-0.493195
H339	H	0.502419	1.892177	-0.159862
H340	H	-1.044955	1.225632	-0.287241
H341	H	-0.711622	1.558966	0.046092
H342	H	-0.378289	1.892299	0.379425
F343	F	-0.597435	0.980364	-0.531885
F344	F	-0.264101	1.313698	-0.198552
F345	F	0.069232	1.647031	0.134782
H346	H	-0.164233	1.225534	-0.930657
H347	H	0.169101	1.558867	-0.597323
H348	H	0.502434	1.892200	-0.263990
H349	H	-0.472594	1.043059	-0.469149
H350	H	-0.139260	1.376393	-0.135815
H351	H	0.194073	1.709726	0.197518
F352	F	-0.834980	1.288318	-0.224522
F353	F	-0.501647	1.621651	0.108811
F354	F	-0.168313	1.954985	0.442144
H355	H	-0.164207	1.225552	-1.079385
H356	H	0.169126	1.558886	-0.746052
H357	H	0.502460	1.892219	-0.412718
H358	H	-0.829162	0.993037	-0.519364
H359	H	-0.495828	1.326370	-0.186030
H360	H	-0.162495	1.659703	0.147303
F361	F	-0.157092	1.238054	-0.667566
F362	F	0.176241	1.571388	-0.334232
F363	F	0.509574	1.904721	-0.000899
