data_functionalizedCrystal
_audit_creation_method	'MofGen! by Chris Wilmer'
_symmetry_space_group_name_H-M	'P1'
_symmetry_Int_Tables_number	1
_symmetry_cell_setting	triclinic
loop_
_symmetry_equiv_pos_as_xyz
  x,y,z
_cell_length_a	25.639239
_cell_length_b	17.077404
_cell_length_c	17.077396
_cell_angle_alpha	90.018362
_cell_angle_beta	90.031074
_cell_angle_gamma	90.036656
loop_
_atom_site_label
_atom_site_type_symbol
_atom_site_fract_x
_atom_site_fract_y
_atom_site_fract_z
Zn1	Zn	-0.208179	1.199968	0.443805
Zn2	Zn	0.291821	1.699968	0.943805
Zn3	Zn	-0.295617	1.199839	0.312533
Zn4	Zn	0.204383	1.699839	0.812533
Zn5	Zn	-0.208194	1.068700	0.312555
Zn6	Zn	0.291806	1.568700	0.812555
Zn7	Zn	-0.295582	1.068632	0.443759
Zn8	Zn	0.204418	1.568632	0.943759
O9	O	-0.251893	1.134285	0.378163
O10	O	0.248107	1.634285	0.878163
O11	O	-0.219786	1.309798	0.426401
O12	O	0.280214	1.809798	0.926401
O13	O	-0.284041	1.182418	0.202689
O14	O	0.215959	1.682418	0.702689
O15	O	-0.135027	1.086196	0.329994
O16	O	0.364973	1.586196	0.829994
O17	O	-0.284026	1.309703	0.329956
O18	O	0.215974	1.809703	0.829956
O19	O	-0.135016	1.182638	0.426423
O20	O	0.364984	1.682638	0.926423
O21	O	-0.219811	1.086071	0.202705
O22	O	0.280189	1.586071	0.702705
O23	O	-0.219778	0.958844	0.329950
O24	O	0.280222	1.458844	0.829950
O25	O	-0.283967	1.086080	0.553612
O26	O	0.216033	1.586080	1.053612
O27	O	-0.283982	0.958794	0.426345
O28	O	0.216018	1.458794	0.926345
O29	O	-0.219753	1.182572	0.553646
O30	O	0.280247	1.682572	1.053646
O31	O	-0.368777	1.182352	0.329912
O32	O	0.131223	1.682352	0.829912
O33	O	-0.368752	1.085954	0.426323
O34	O	0.131248	1.585954	0.926323
C35	C	-0.251878	0.930337	0.378145
C36	C	0.248122	1.430337	0.878145
C37	C	-0.251884	0.843087	0.378156
C38	C	0.248116	1.343087	0.878156
C39	C	-0.387736	1.134153	0.378127
C40	C	0.112264	1.634153	0.878127
C41	C	-0.445850	1.134168	0.378138
C42	C	0.054150	1.634168	0.878138
C43	C	-0.218494	0.802147	0.428452
C44	C	0.281506	1.302147	0.928452
C45	C	-0.218498	0.720167	0.428456
C46	C	0.281502	1.220167	0.928456
C47	C	-0.251894	0.679128	0.378167
C48	C	0.248106	1.179128	0.878167
C49	C	-0.285286	0.720074	0.327866
C50	C	0.214714	1.220074	0.827866
C51	C	-0.285280	0.802053	0.327859
C52	C	0.214720	1.302053	0.827859
C53	C	-0.285298	0.549204	0.327885
C54	C	0.214702	1.049204	0.827885
C55	C	-0.285305	0.467219	0.327893
C56	C	0.214695	0.967219	0.827893
C57	C	-0.218516	0.467318	0.428482
C58	C	0.281484	0.967318	0.928482
C59	C	-0.218509	0.549297	0.428475
C60	C	0.281491	1.049297	0.928475
C61	C	-0.251902	0.590237	0.378175
C62	C	0.248098	1.090237	0.878175
C63	C	-0.806213	1.184610	0.328047
C64	C	-0.306213	1.684610	0.828047
C65	C	-0.860818	1.184641	0.328058
C66	C	-0.360818	1.684641	0.828058
O67	O	-0.889055	1.227391	0.285429
O68	O	-0.389055	1.727391	0.785429
N69	N	-0.888132	1.134423	0.378215
N70	N	-0.388132	1.634423	0.878215
C71	C	-0.860839	1.084177	0.428371
C72	C	-0.360839	1.584177	0.928371
O73	O	-0.889086	1.041467	0.471035
O74	O	-0.389086	1.541467	0.971035
C75	C	-0.806236	1.084151	0.428364
C76	C	-0.306236	1.584151	0.928364
C77	C	-0.778924	1.134367	0.378197
C78	C	-0.278924	1.634367	0.878197
C79	C	-0.778902	1.234822	0.277885
C80	C	-0.278902	1.734822	0.777885
C81	C	-0.724301	1.234790	0.277874
C82	C	-0.224301	1.734790	0.777874
C83	C	-0.697012	1.184547	0.328024
C84	C	-0.197012	1.684547	0.828024
C85	C	-0.724324	1.134335	0.378186
C86	C	-0.224324	1.634335	0.878186
C87	C	-0.778944	1.033910	0.478523
C88	C	-0.278944	1.533910	0.978523
C89	C	-0.724337	1.033889	0.478512
C90	C	-0.224337	1.533889	0.978512
C91	C	-0.697026	1.084104	0.428345
C92	C	-0.197026	1.584104	0.928345
C93	C	-0.642435	1.084060	0.428325
C94	C	-0.142435	1.584060	0.928325
N95	N	-0.615120	1.134277	0.378167
N96	N	-0.115120	1.634277	0.878167
C97	C	-0.642409	1.184521	0.328017
C98	C	-0.142409	1.684521	0.828017
C99	C	-0.975510	1.084236	0.428383
C100	C	-0.475510	1.584236	0.928383
C101	C	-1.030112	1.084258	0.428386
C102	C	-0.530112	1.584258	0.928386
C103	C	-1.030087	1.184722	0.328074
C104	C	-0.530087	1.684722	0.828074
C105	C	-0.975483	1.184696	0.328067
C106	C	-0.475483	1.684696	0.828067
C107	C	-0.948196	1.134454	0.378225
C108	C	-0.448196	1.634454	0.878225
C109	C	-0.527744	1.184450	0.327997
C110	C	-0.027744	1.684450	0.827997
C111	C	-0.473138	1.184412	0.327988
C112	C	0.026862	1.684412	0.827988
C113	C	-0.473169	1.083951	0.428302
C114	C	0.026831	1.583951	0.928302
C115	C	-0.527769	1.083986	0.428309
C116	C	-0.027769	1.583986	0.928309
C117	C	-0.555056	1.134242	0.378154
C118	C	-0.055056	1.634242	0.878154
O119	O	-0.614163	1.041333	0.470934
O120	O	-0.114163	1.541333	0.970934
O121	O	-0.614155	1.227232	0.285367
O122	O	-0.114155	1.727232	0.785367
C123	C	-0.115520	1.134439	0.378216
C124	C	0.384480	1.634439	0.878216
C125	C	-0.057406	1.134504	0.378239
C126	C	0.442594	1.634504	0.878239
C127	C	-0.251855	1.134332	0.582907
C128	C	0.248145	1.634332	1.082907
C129	C	-0.251838	1.134353	0.670157
C130	C	0.248162	1.634353	1.170157
C131	C	-0.251908	1.339029	0.378181
C132	C	0.248092	1.839029	0.878181
C133	C	-0.251915	1.426279	0.378189
C134	C	0.248085	1.926279	0.878189
C135	C	-0.251894	1.134283	0.174215
C136	C	0.248106	1.634283	0.674215
C137	C	-0.251763	1.134415	0.086966
C138	C	0.248237	1.634415	0.586966
C139	C	-0.218399	1.184598	0.711166
C140	C	0.281601	1.684598	1.211166
C141	C	-0.218381	1.184608	0.793147
C142	C	0.281619	1.684608	1.293147
C143	C	-0.251806	1.134375	0.834117
C144	C	0.248194	1.634375	1.334117
C145	C	-0.285247	1.084124	0.793102
C146	C	0.214753	1.584124	1.293102
C147	C	-0.285262	1.084111	0.711123
C148	C	0.214738	1.584111	1.211123
C149	C	-0.285216	1.084156	0.963972
C150	C	0.214784	1.584156	1.463972
C151	C	-0.285202	1.084169	1.045957
C152	C	0.214798	1.584169	1.545957
C153	C	-0.218335	1.184652	1.045996
C154	C	0.281665	1.684652	1.545996
C155	C	-0.218350	1.184639	0.964017
C156	C	0.281650	1.684639	1.464017
C157	C	-0.251792	1.134389	0.923008
C158	C	0.248208	1.634389	1.423008
H159	H	-0.191300	0.835555	0.469405
H160	H	0.308700	1.335555	0.969405
H161	H	-1.052315	1.225636	0.287242
H162	H	-0.552315	1.725636	0.787242
H163	H	-0.191318	0.582708	0.469429
H164	H	0.308682	1.082708	0.969429
H165	H	-0.312488	0.582535	0.286924
H166	H	0.187512	1.082535	0.786924
H167	H	-0.191153	1.225524	0.826532
H168	H	0.308847	1.725524	1.326532
C169	C	-0.181785	0.422282	0.483816
C170	C	0.318215	0.922282	0.983816
N171	N	-0.154123	0.388358	0.525495
N172	N	0.345877	0.888358	1.025495
C173	C	-0.322010	1.028860	0.838172
C174	C	0.177990	1.528860	1.338172
N175	N	-0.349700	0.987234	0.872118
N176	N	0.150300	1.487234	1.372118
H177	H	-0.191309	0.686837	0.469413
H178	H	0.308691	1.186837	0.969413
H179	H	-0.702067	1.275682	0.237027
H180	H	-0.202067	1.775682	0.737027
C181	C	-0.322042	0.422078	0.272572
C182	C	0.177958	0.922078	0.772572
N183	N	-0.349713	0.388077	0.230903
N184	N	0.150287	0.888077	0.730903
C185	C	-0.694324	0.978617	0.533692
C186	C	-0.194324	1.478617	1.033692
N187	N	-0.671719	0.936985	0.575252
N188	N	-0.171719	1.436985	1.075252
C189	C	-0.808975	0.978671	0.533713
C190	C	-0.308975	1.478671	1.033713
N191	N	-0.831593	0.937062	0.575287
N192	N	-0.331593	1.437062	1.075287
C193	C	-0.945446	1.239939	0.272883
C194	C	-0.445446	1.739939	0.772883
N195	N	-0.922824	1.281551	0.231318
N196	N	-0.422824	1.781551	0.731318
H197	H	-0.191135	1.225547	0.930661
H198	H	0.308865	1.725547	1.430661
C199	C	-0.443099	1.239651	0.272795
C200	C	0.056901	1.739651	0.772795
N201	N	-0.420475	1.281256	0.231224
N202	N	0.079525	1.781256	0.731224
C203	C	-0.181549	1.239927	1.091107
C204	C	0.318451	1.739927	1.591107
N205	N	-0.153844	1.281561	1.125089
N206	N	0.346156	1.781561	1.625089
H207	H	-0.312419	1.043264	1.079312
H208	H	0.187581	1.543264	1.579312
H209	H	-0.549954	1.225375	0.287157
H210	H	-0.049954	1.725375	0.787157
H211	H	-0.801114	1.275740	0.237047
H212	H	-0.301114	1.775740	0.737047
C213	C	-0.443141	1.028688	0.483468
C214	C	0.056859	1.528688	0.983468
N215	N	-0.420522	0.987070	0.525024
N216	N	0.079478	1.487070	1.025024
C217	C	-0.322048	1.028839	0.666014
C218	C	0.177952	1.528839	1.166014
N219	N	-0.349757	0.987204	0.632038
N220	N	0.150243	1.487204	1.132038
C221	C	-0.322022	0.674928	0.272547
C222	C	0.177978	1.174928	0.772547
N223	N	-0.349694	0.640925	0.230881
N224	N	0.150306	1.140925	0.730881
H225	H	-1.052345	1.043360	0.469230
H226	H	-0.552345	1.543360	0.969230
H227	H	-0.312469	0.835385	0.286903
H228	H	0.187531	1.335385	0.786903
H229	H	-0.953295	1.043317	0.469225
H230	H	-0.453295	1.543317	0.969225
H231	H	-0.550008	1.043099	0.469161
H232	H	-0.050008	1.543099	0.969161
C233	C	-0.181627	1.239858	0.666107
C234	C	0.318373	1.739858	1.166107
N235	N	-0.153928	1.281479	0.632170
N236	N	0.346072	1.781479	1.132170
H237	H	-0.312439	1.043225	0.930585
H238	H	0.187561	1.543225	1.430585
