data_functionalizedCrystal
_audit_creation_method	'MofGen! by Chris Wilmer'
_symmetry_space_group_name_H-M	'P1'
_symmetry_Int_Tables_number	1
_symmetry_cell_setting	triclinic
loop_
_symmetry_equiv_pos_as_xyz
  x,y,z
_cell_length_a	19.188930
_cell_length_b	15.995350
_cell_length_c	14.472310
_cell_angle_alpha	90.001162
_cell_angle_beta	89.973109
_cell_angle_gamma	83.318578
loop_
_atom_site_label
_atom_site_type_symbol
_atom_site_fract_x
_atom_site_fract_y
_atom_site_fract_z
O1	O	-0.926420	-0.104528	0.077134
O2	O	-0.426420	0.395472	0.577134
O3	O	-0.723145	-0.118600	0.077070
O4	O	-0.223145	0.381400	0.577070
O5	O	-0.830339	0.010344	0.077103
O6	O	-0.330339	0.510344	0.577103
O7	O	-0.819226	-0.233472	0.077101
O8	O	-0.319226	0.266528	0.577101
O9	O	-0.830312	0.010337	-0.076580
O10	O	-0.330312	0.510337	0.423420
O11	O	-0.723117	-0.118607	-0.076612
O12	O	-0.223117	0.381393	0.423388
O13	O	-0.926393	-0.104535	-0.076548
O14	O	-0.426393	0.395465	0.423452
Cu15	Cu	-0.824752	-0.111572	-0.090613
Cu16	Cu	-0.324752	0.388428	0.409387
Cu17	Cu	-0.824785	-0.111563	0.091134
Cu18	Cu	-0.324785	0.388437	0.591134
O19	O	-0.819198	-0.233479	-0.076581
O20	O	-0.319198	0.266521	0.423419
C21	C	-0.829866	0.041533	0.000263
C22	C	-0.329866	0.541533	0.500263
C23	C	-0.828489	0.134479	0.000268
C24	C	-0.328489	0.634479	0.500268
C25	C	-0.697119	-0.118148	0.000221
C26	C	-0.197119	0.381852	0.500221
C27	C	-0.619611	-0.116780	0.000196
C28	C	-0.119611	0.383220	0.500196
C29	C	-0.952419	-0.104987	0.000303
C30	C	-0.452419	0.395013	0.500303
C31	C	-1.029927	-0.106355	0.000333
C32	C	-0.529927	0.393645	0.500333
C33	C	-0.574880	-0.192440	0.000210
C34	C	-0.074880	0.307560	0.500210
C35	C	-0.502052	-0.191155	0.000220
C36	C	-0.002052	0.308845	0.500220
C37	C	-0.473960	-0.114205	0.000235
C38	C	0.026040	0.385795	0.500235
C39	C	-0.518701	-0.038535	0.000216
C40	C	-0.018701	0.461465	0.500216
C41	C	-0.591526	-0.039823	0.000197
C42	C	-0.091526	0.460177	0.500197
N43	N	-0.365839	-0.055384	0.052577
N44	N	0.134161	0.444616	0.552577
N45	N	-0.296658	-0.054167	0.052598
N46	N	0.203342	0.445833	0.552598
C47	C	-0.254541	-0.110322	0.000292
C48	C	0.245459	0.389678	0.500292
N49	N	-0.284219	-0.167754	-0.052024
N50	N	0.215781	0.332246	0.447976
N51	N	-0.353407	-0.168974	-0.052040
N52	N	0.146593	0.331026	0.447960
C53	C	-0.394994	-0.112801	0.000256
C54	C	0.105006	0.387199	0.500256
C55	C	-0.130842	-0.184594	0.000315
C56	C	0.369158	0.315406	0.500315
C57	C	-0.058014	-0.183306	0.000320
C58	C	0.441986	0.316694	0.500320
C59	C	-0.074664	-0.030684	0.000325
C60	C	0.425336	0.469316	0.500325
C61	C	-0.147491	-0.031974	0.000311
C62	C	0.352509	0.468026	0.500311
C63	C	-0.175575	-0.108932	0.000311
C64	C	0.324425	0.391068	0.500311
C65	C	-0.819671	-0.264669	0.000260
C66	C	-0.319671	0.235331	0.500260
C67	C	-0.821049	-0.357614	0.000261
C68	C	-0.321049	0.142386	0.500261
N69	N	-0.824735	-0.111578	-0.218444
N70	N	-0.324735	0.388422	0.281556
C71	C	-0.823542	0.472208	0.000263
C72	C	-0.323542	0.972208	0.500263
C73	C	-0.747200	0.424495	0.000584
C74	C	-0.247200	0.924495	0.500584
C75	C	-0.748578	0.327809	0.000238
C76	C	-0.248578	0.827809	0.500238
C77	C	-0.825996	0.304657	0.000266
C78	C	-0.325996	0.804657	0.500266
C79	C	-0.863634	0.345868	-0.087480
C80	C	-0.363634	0.845868	0.412520
C81	C	-0.861717	0.442496	-0.087555
C82	C	-0.361717	0.942496	0.412445
C83	C	-0.863325	0.442869	0.087211
C84	C	-0.363325	0.942869	0.587211
C85	C	-0.863307	0.345924	0.088371
C86	C	-0.363307	0.845924	0.588371
C87	C	-0.827386	0.209964	0.000265
C88	C	-0.327386	0.709964	0.500265
C89	C	-0.822153	0.566901	0.000259
C90	C	-0.322153	1.066901	0.500259
C91	C	-0.824784	-0.111560	-0.592535
C92	C	-0.324784	0.388440	-0.092535
C93	C	-0.767234	-0.180325	-0.553387
C94	C	-0.267234	0.319675	-0.053387
C95	C	-0.767367	-0.180575	-0.446299
C96	C	-0.267367	0.319425	0.053701
C97	C	-0.824759	-0.111569	-0.406944
C98	C	-0.324759	0.388431	0.093056
C99	C	-0.897609	-0.130384	-0.445758
C100	C	-0.397609	0.369616	0.054242
C101	C	-0.897286	-0.130872	-0.552880
C102	C	-0.397286	0.369128	-0.052880
C103	C	-0.810134	-0.023774	-0.553069
C104	C	-0.310134	0.476226	-0.053069
C105	C	-0.808463	-0.024366	-0.445943
C106	C	-0.308463	0.475634	0.054057
C107	C	-0.824749	-0.111572	-0.302056
C108	C	-0.324749	0.388428	0.197944
C109	C	-0.824799	-0.111558	-0.697423
C110	C	-0.324799	0.388442	-0.197423
N111	N	-0.824808	-0.111551	0.218965
N112	N	-0.324808	0.388449	0.718965
H113	H	-0.597741	-0.255105	0.000212
H114	H	-0.097741	0.244895	0.500212
H115	H	-0.495823	0.024118	0.000241
H116	H	0.004177	0.524118	0.500241
N117	N	-0.639778	0.041785	0.000177
N118	N	-0.139778	0.541785	0.500177
H119	H	-0.610934	0.090730	0.000184
H120	H	-0.110934	0.590730	0.500184
H121	H	-0.670385	0.044581	0.057142
H122	H	-0.170385	0.544581	0.557142
N123	N	-0.825323	0.466600	-0.174459
N124	N	-0.325323	0.966600	0.325541
H125	H	-0.782444	0.494375	-0.157466
H126	H	-0.282444	0.994375	0.342534
H127	H	-0.858512	0.507062	-0.211741
H128	H	-0.358512	1.007062	0.288259
N129	N	-0.009766	-0.264916	0.000342
N130	N	0.490234	0.235084	0.500342
H131	H	0.040631	-0.252425	0.000351
H132	H	0.540631	0.247575	0.500351
H133	H	-0.018833	-0.298473	-0.056628
H134	H	0.481167	0.201527	0.443372
H135	H	-0.920511	0.331950	-0.090723
H136	H	-0.420511	0.831950	0.409277
N137	N	-0.865710	0.044019	-0.586608
N138	N	-0.365710	0.544019	-0.086608
H139	H	-0.891244	0.072245	-0.531850
H140	H	-0.391244	0.572245	-0.031850
H141	H	-0.900175	0.017986	-0.627182
H142	H	-0.400175	0.517986	-0.127182
H143	H	-0.465625	-0.252768	0.000229
H144	H	0.034375	0.247232	0.500229
H145	H	-0.919764	0.330769	0.093690
H146	H	-0.419764	0.830769	0.593690
N147	N	-0.937884	0.485205	0.088015
N148	N	-0.437884	0.985205	0.588015
H149	H	-0.971432	0.441044	0.085973
H150	H	-0.471432	0.941044	0.585973
H151	H	-0.945813	0.523207	0.032360
H152	H	-0.445813	1.023207	0.532360
H153	H	-0.941448	-0.082747	-0.578772
H154	H	-0.441448	0.417253	-0.078772
N155	N	-0.955701	-0.065804	-0.411985
N156	N	-0.455701	0.434196	0.088015
H157	H	-0.979851	-0.035729	-0.466631
H158	H	-0.479851	0.464271	0.033369
H159	H	-0.935255	-0.023678	-0.371086
H160	H	-0.435255	0.476322	0.128914
H161	H	-0.754874	-0.010081	-0.420577
H162	H	-0.254874	0.489919	0.079423
H163	H	-0.183912	0.029637	0.000305
H164	H	0.316088	0.529637	0.500305
H165	H	-0.838377	0.463320	0.153719
H166	H	-0.338377	0.963320	0.653719
H167	H	-0.153710	-0.247257	0.000302
H168	H	0.346290	0.252743	0.500302
H169	H	-0.847657	0.029183	-0.419157
H170	H	-0.347657	0.529183	0.080843
H171	H	-0.758165	-0.005616	-0.580154
H172	H	-0.258165	0.494384	-0.080154
H173	H	-0.051792	0.031970	0.000394
H174	H	0.448208	0.531970	0.500394
H175	H	-0.718990	0.299282	0.063137
H176	H	-0.218990	0.799282	0.563137
N177	N	-0.826903	0.309647	0.174363
N178	N	-0.326903	0.809647	0.674363
H179	H	-0.786411	0.266658	0.156334
H180	H	-0.286411	0.766658	0.656334
H181	H	-0.861285	0.281775	0.213321
H182	H	-0.361285	0.781775	0.713321
N183	N	-0.706789	0.448895	0.083928
N184	N	-0.206789	0.948895	0.583928
H185	H	-0.737572	0.491118	0.122288
H186	H	-0.237572	0.991118	0.622288
H187	H	-0.663862	0.474675	0.062893
H188	H	-0.163862	0.974675	0.562893
H189	H	-0.837470	0.317387	-0.152798
H190	H	-0.337470	0.817387	0.347202
H191	H	-0.712908	-0.169342	-0.579192
H192	H	-0.212908	0.330658	-0.079192
H193	H	-0.910196	-0.194886	-0.577851
H194	H	-0.410196	0.305114	-0.077851
N195	N	-0.706941	0.450289	-0.082324
N196	N	-0.206941	0.950289	0.417676
H197	H	-0.737939	0.492748	-0.120090
H198	H	-0.237939	0.992748	0.379910
H199	H	-0.691710	0.399121	-0.121447
H200	H	-0.191710	0.899121	0.378553
H201	H	-0.718768	0.299832	-0.062787
H202	H	-0.218768	0.799832	0.437213
H203	H	-0.713216	-0.169404	-0.420060
H204	H	-0.213216	0.330596	0.079940
N205	N	-0.935954	0.485493	-0.092808
N206	N	-0.435954	0.985493	0.407192
H207	H	-0.969779	0.441650	-0.095071
H208	H	-0.469779	0.941650	0.404929
H209	H	-0.941531	0.521395	-0.150328
H210	H	-0.441531	1.021395	0.349672
N211	N	-0.779472	-0.266148	-0.588978
N212	N	-0.279472	0.233852	-0.088978
H213	H	-0.822130	-0.260677	-0.630356
H214	H	-0.322130	0.239323	-0.130356
H215	H	-0.787344	-0.304072	-0.535100
H216	H	-0.287344	0.195928	-0.035100
N217	N	-0.779624	-0.266950	-0.412435
N218	N	-0.279624	0.233050	0.087565
H219	H	-0.826343	-0.281241	-0.435988
H220	H	-0.326343	0.218759	0.064012
H221	H	-0.779692	-0.267523	-0.342653
H222	H	-0.279692	0.232477	0.157347
H223	H	-0.910828	-0.193666	-0.418916
H224	H	-0.410828	0.306334	0.081084
