data_functionalizedCrystal
_audit_creation_method	'MofGen! by Chris Wilmer'
_symmetry_space_group_name_H-M	'P1'
_symmetry_Int_Tables_number	1
_symmetry_cell_setting	triclinic
loop_
_symmetry_equiv_pos_as_xyz
  x,y,z
_cell_length_a	18.050591
_cell_length_b	25.639239
_cell_length_c	18.050582
_cell_angle_alpha	89.975362
_cell_angle_beta	89.979078
_cell_angle_gamma	90.034692
loop_
_atom_site_label
_atom_site_type_symbol
_atom_site_fract_x
_atom_site_fract_y
_atom_site_fract_z
Zn1	Zn	1.135238	-0.208240	-0.420021
Zn2	Zn	1.135126	-0.295667	-0.295826
Zn3	Zn	1.011058	-0.208242	-0.295832
Zn4	Zn	1.010983	-0.295640	-0.419962
O5	O	1.073101	-0.251947	-0.357910
O6	O	1.239148	-0.219848	-0.403568
O7	O	1.118653	-0.284083	-0.191902
O8	O	1.027609	-0.135076	-0.312333
O9	O	1.239066	-0.284081	-0.312323
O10	O	1.118844	-0.135075	-0.403574
O11	O	1.027500	-0.219851	-0.191906
O12	O	0.907123	-0.219825	-0.312276
O13	O	1.027481	-0.284034	-0.523894
O14	O	0.907068	-0.284036	-0.403473
O15	O	1.118771	-0.219821	-0.523938
O16	O	1.118580	-0.368829	-0.312266
O17	O	1.027373	-0.368809	-0.403468
C18	C	0.880149	-0.251928	-0.357869
C19	C	0.797604	-0.251932	-0.357869
C20	C	0.598161	-0.216974	-0.308390
C21	C	0.548729	-0.264661	-0.290112
C22	C	0.646473	-0.251948	-0.357903
C23	C	0.548824	-0.204277	-0.376179
C24	C	0.500488	-0.251959	-0.357934
C25	C	0.598128	-0.299660	-0.339589
C26	C	0.598227	-0.239244	-0.425688
C27	C	0.548817	-0.286965	-0.407435
C28	C	0.730571	-0.251941	-0.357883
C29	C	0.416392	-0.251971	-0.357954
C30	C	1.072977	-0.387790	-0.357876
C31	C	1.072991	-0.445904	-0.357886
C32	C	1.120717	-0.806265	-0.310502
C33	C	1.120746	-0.860869	-0.310512
O34	O	1.161195	-0.889104	-0.270187
N35	N	1.073232	-0.888186	-0.357959
C36	C	1.025691	-0.860896	-0.405405
O37	O	0.985280	-0.889145	-0.445764
C38	C	1.025667	-0.806293	-0.405398
C39	C	1.073179	-0.778979	-0.357943
C40	C	1.168226	-0.778951	-0.263051
C41	C	1.168196	-0.724350	-0.263040
C42	C	1.120657	-0.697064	-0.310481
C43	C	1.073149	-0.724378	-0.357932
C44	C	0.978131	-0.779004	-0.452847
C45	C	0.978111	-0.724397	-0.452837
C46	C	1.025622	-0.697083	-0.405381
C47	C	1.025580	-0.642491	-0.405362
N48	N	1.073094	-0.615174	-0.357914
C49	C	1.120633	-0.642460	-0.310474
C50	C	1.025747	-0.975567	-0.405416
C51	C	1.025768	-1.030169	-0.405420
C52	C	1.120823	-1.030138	-0.310528
C53	C	1.120799	-0.975535	-0.310521
C54	C	1.073261	-0.948250	-0.357969
C55	C	1.120566	-0.527795	-0.310455
C56	C	1.120530	-0.473190	-0.310446
C57	C	1.025477	-0.473226	-0.405340
C58	C	1.025510	-0.527826	-0.405347
C59	C	1.073061	-0.555110	-0.357901
O60	O	0.985154	-0.614222	-0.445668
O61	O	1.161044	-0.614205	-0.270129
C62	C	1.266807	-0.251967	-0.357952
C63	C	1.349353	-0.251976	-0.357970
C64	C	1.073131	-0.251924	-0.551616
C65	C	1.073143	-0.251914	-0.634162
C66	C	1.073247	-0.115574	-0.357961
C67	C	1.073309	-0.057460	-0.357982
C68	C	1.023537	-0.286785	-0.833589
C69	C	1.091289	-0.299569	-0.882987
C70	C	1.073180	-0.251874	-0.785292
C71	C	1.005465	-0.239076	-0.882976
C72	C	1.073209	-0.251837	-0.931277
C73	C	1.140967	-0.264683	-0.833603
C74	C	1.055097	-0.204168	-0.833588
C75	C	1.122896	-0.216933	-0.882963
C76	C	1.073162	-0.251897	-0.701194
C77	C	1.073235	-0.251814	-1.015374
C78	C	1.073115	-0.251933	-0.164958
C79	C	1.073247	-0.251795	-0.082413
H80	H	0.619696	-0.339992	-0.324080
O81	O	1.167024	-0.949085	-0.264402
C82	C	1.208968	-0.984884	-0.222519
H83	H	1.211532	-1.023794	-0.252949
H84	H	1.181809	-0.990730	-0.166090
C85	C	1.284858	-0.915743	-0.174514
C86	C	1.288013	-0.963531	-0.211892
H87	H	1.333616	-0.902572	-0.167956
H88	H	1.256599	-0.891624	-0.202730
H89	H	1.262223	-0.920622	-0.127495
H90	H	1.310640	-0.958651	-0.258914
H91	H	1.316279	-0.987649	-0.183684
O92	O	0.973511	-0.322010	-0.807595
C93	C	0.973715	-0.321237	-0.729493
H94	H	0.995827	-0.282086	-0.709313
H95	H	1.010638	-0.353929	-0.707870
C96	C	0.867034	-0.377206	-0.725434
C97	C	0.894187	-0.329118	-0.700649
H98	H	0.817979	-0.382069	-0.707641
H99	H	0.866898	-0.377728	-0.778053
H100	H	0.897811	-0.404443	-0.707413
H101	H	0.863416	-0.301881	-0.718679
H102	H	0.894316	-0.328591	-0.648033
O103	O	1.166861	-0.554232	-0.264401
C104	C	1.240857	-0.540831	-0.280721
H105	H	1.242343	-0.501178	-0.309276
H106	H	1.265873	-0.571532	-0.318923
C107	C	1.284062	-0.586990	-0.173295
C108	C	1.285888	-0.538284	-0.208362
H109	H	1.311841	-0.585421	-0.128661
H110	H	1.234210	-0.596020	-0.162301
H111	H	1.304907	-0.612569	-0.205138
H112	H	1.265035	-0.512708	-0.176522
H113	H	1.335738	-0.529250	-0.219348
O114	O	1.214430	-0.805370	-0.216892
C115	C	1.256364	-0.769543	-0.175030
H116	H	1.225923	-0.730642	-0.172436
H117	H	1.312748	-0.763688	-0.202279
C118	C	1.304515	-0.838641	-0.099182
C119	C	1.267123	-0.790864	-0.095991
H120	H	1.311155	-0.851793	-0.050428
H121	H	1.276266	-0.862779	-0.127386
H122	H	1.351498	-0.833755	-0.121893
H123	H	1.220138	-0.795751	-0.073289
H124	H	1.295365	-0.766727	-0.067781
O125	O	1.109661	-0.347681	-0.908796
C126	C	1.180586	-0.361423	-0.882580
H127	H	1.193445	-0.338300	-0.830206
H128	H	1.223749	-0.352162	-0.926800
C129	C	1.166590	-0.448580	-0.929282
C130	C	1.182381	-0.420183	-0.864952
H131	H	1.167699	-0.484826	-0.918412
H132	H	1.118808	-0.439321	-0.946948
H133	H	1.202561	-0.440856	-0.966127
H134	H	1.146405	-0.427902	-0.828113
H135	H	1.230157	-0.429445	-0.847280
H136	H	0.619985	-0.228476	-0.482982
H137	H	0.527288	-0.316580	-0.449320
H138	H	0.939438	-0.801234	-0.491487
O139	O	1.209266	-0.277652	-0.807720
C140	C	1.208422	-0.277524	-0.729614
H141	H	1.149231	-0.283338	-0.709160
H142	H	1.230518	-0.238618	-0.708475
C143	C	1.330310	-0.314949	-0.725605
C144	C	1.257611	-0.322093	-0.700482
H145	H	1.360654	-0.342440	-0.707633
H146	H	1.330880	-0.315033	-0.778226
H147	H	1.348713	-0.282526	-0.707987
H148	H	1.239205	-0.354513	-0.718107
H149	H	1.257038	-0.322016	-0.647862
O150	O	0.624139	-0.181733	-0.258444
C151	C	0.702241	-0.181883	-0.259551
H152	H	0.722450	-0.197475	-0.315129
H153	H	0.723823	-0.207858	-0.213058
C154	C	0.706283	-0.106743	-0.180230
C155	C	0.731104	-0.125890	-0.248494
H156	H	0.724088	-0.072204	-0.173406
H157	H	0.653664	-0.106643	-0.179481
H158	H	0.724270	-0.128394	-0.141493
H159	H	0.713110	-0.104242	-0.287229
H160	H	0.783721	-0.125985	-0.249249
O161	O	0.523072	-0.156138	-0.394525
C162	C	0.548199	-0.119389	-0.342147
H163	H	0.600173	-0.134848	-0.313808
H164	H	0.503191	-0.112512	-0.298922
C165	C	0.502400	-0.048663	-0.416411
C166	C	0.566239	-0.067649	-0.381608
H167	H	0.513525	-0.016746	-0.440751
H168	H	0.485469	-0.073421	-0.451698
H169	H	0.464900	-0.042937	-0.380384
H170	H	0.603735	-0.073381	-0.417636
H171	H	0.583177	-0.042890	-0.346328
O172	O	1.173148	-0.181753	-0.908636
C173	C	1.244433	-0.195413	-0.883326
H174	H	1.245796	-0.238795	-0.869533
H175	H	1.258241	-0.171859	-0.831581
C176	C	1.300135	-0.130267	-0.961151
C177	C	1.301810	-0.183550	-0.944216
H178	H	1.335528	-0.122947	-0.998709
H179	H	1.252108	-0.121062	-0.978201
H180	H	1.311639	-0.110645	-0.918025
H181	H	1.290296	-0.203170	-0.987340
H182	H	1.349836	-0.192758	-0.927175
H183	H	1.159219	-0.450952	-0.271799
O184	O	0.522821	-0.277404	-0.221697
C185	C	0.547972	-0.240436	-0.169643
H186	H	0.561876	-0.202393	-0.199271
H187	H	0.599616	-0.255954	-0.140762
C188	C	0.469822	-0.277207	-0.075379
C189	C	0.486893	-0.230481	-0.111769
H190	H	0.432148	-0.271068	-0.039678
H191	H	0.452879	-0.302115	-0.110448
H192	H	0.512864	-0.290134	-0.051319
H193	H	0.443854	-0.217559	-0.135836
H194	H	0.503827	-0.205571	-0.076703
H195	H	1.206886	-0.702114	-0.224400
O196	O	1.167034	-1.056730	-0.264566
C197	C	1.156878	-1.110781	-0.274770
H198	H	1.132449	-1.118215	-0.332033
H199	H	1.117435	-1.126351	-0.230642
C200	C	1.262068	-1.129616	-0.197841
C201	C	1.232070	-1.138747	-0.268175
H202	H	1.308449	-1.146867	-0.193770
H203	H	1.268910	-1.093201	-0.190964
H204	H	1.229192	-1.142591	-0.161076
H205	H	1.264941	-1.125765	-0.304938
H206	H	1.225236	-1.175160	-0.275058
O207	O	0.979585	-1.056618	-0.451582
C208	C	0.937610	-1.020819	-0.493434
H209	H	0.968010	-0.981875	-0.496024
H210	H	0.881222	-1.015060	-0.466178
C211	C	0.889522	-1.089931	-0.569289
C212	C	0.926864	-1.042101	-0.572475
H213	H	0.882891	-1.103059	-0.618044
H214	H	0.917800	-1.114050	-0.541091
H215	H	0.842537	-1.085125	-0.546572
H216	H	0.973852	-1.046908	-0.595183
H217	H	0.898595	-1.017983	-0.600679
H218	H	0.987030	-0.953354	-0.444052
H219	H	0.939401	-0.702184	-0.491477
O220	O	0.979457	-0.554421	-0.451474
C221	C	1.021728	-0.585944	-0.499505
H222	H	1.078031	-0.594094	-0.473373
H223	H	1.029838	-0.564870	-0.554543
C224	C	0.911739	-0.627826	-0.545020
C225	C	0.980889	-0.637840	-0.512921
H226	H	0.886547	-0.659837	-0.553299
H227	H	0.883259	-0.606588	-0.512663
H228	H	0.918507	-0.610264	-0.590882
H229	H	0.974120	-0.655396	-0.467056
H230	H	1.009367	-0.659083	-0.545270
O231	O	1.036853	-0.156097	-0.807549
C232	C	1.037745	-0.156687	-0.729449
H233	H	1.074832	-0.189754	-0.709319
H234	H	0.979059	-0.162876	-0.707785
C235	C	1.022346	-0.063688	-0.725315
C236	C	1.067902	-0.104299	-0.700591
H237	H	1.040944	-0.031373	-0.707513
H238	H	1.021742	-0.063291	-0.777933
H239	H	0.973444	-0.068853	-0.707260
H240	H	1.116800	-0.099137	-0.718654
H241	H	1.068514	-0.104695	-0.647975
O242	O	0.979410	-0.446689	-0.451503
C243	C	1.021659	-0.415049	-0.499483
H244	H	1.080152	-0.431470	-0.504128
H245	H	1.024219	-0.373675	-0.476510
C246	C	0.913496	-0.394025	-0.570951
C247	C	0.985336	-0.414196	-0.576660
H248	H	0.891089	-0.393497	-0.618556
H249	H	0.885031	-0.415340	-0.538624
H250	H	0.915639	-0.359549	-0.551803
H251	H	0.983191	-0.448674	-0.595798
H252	H	1.013799	-0.392887	-0.608992
H253	H	0.948187	-0.228267	-0.904665
