data_functionalizedCrystal
_audit_creation_method	'MofGen! by Chris Wilmer'
_symmetry_space_group_name_H-M	'P1'
_symmetry_Int_Tables_number	1
_symmetry_cell_setting	triclinic
loop_
_symmetry_equiv_pos_as_xyz
  x,y,z
_cell_length_a	19.121102
_cell_length_b	29.839131
_cell_length_c	19.120904
_cell_angle_alpha	87.598232
_cell_angle_beta	89.911827
_cell_angle_gamma	87.589066
loop_
_atom_site_label
_atom_site_type_symbol
_atom_site_fract_x
_atom_site_fract_y
_atom_site_fract_z
Zn1	Zn	1.054788	-0.219753	0.441992
Zn2	Zn	1.388121	0.113580	0.775326
Zn3	Zn	1.721454	0.446913	1.108659
Zn4	Zn	1.059688	-0.291815	0.324733
Zn5	Zn	1.393022	0.041518	0.658066
Zn6	Zn	1.726355	0.374851	0.991399
Zn7	Zn	0.942558	-0.213364	0.319778
Zn8	Zn	1.275892	0.119970	0.653111
Zn9	Zn	1.609225	0.453303	0.986445
Zn10	Zn	0.937500	-0.291513	0.436935
Zn11	Zn	1.270833	0.041820	0.770268
Zn12	Zn	1.604166	0.375153	1.103602
O13	O	0.998633	-0.254111	0.380859
O14	O	1.331967	0.079222	0.714193
O15	O	1.665300	0.412555	1.047526
O16	O	1.153542	-0.232113	0.430627
O17	O	1.486876	0.101220	0.763961
O18	O	1.820209	0.434554	1.097294
O19	O	1.048319	-0.278861	0.225971
O20	O	1.381652	0.054473	0.559305
O21	O	1.714985	0.387806	0.892638
O22	O	0.957512	-0.151347	0.336033
O23	O	1.290845	0.181986	0.669366
O24	O	1.624179	0.515320	1.002700
O25	O	1.157143	-0.285057	0.344477
O26	O	1.490476	0.048277	0.677811
O27	O	1.823809	0.381610	1.011144
O28	O	1.039966	-0.156042	0.425823
O29	O	1.373300	0.177292	0.759156
O30	O	1.706633	0.510625	1.092490
O31	O	0.962264	-0.221223	0.222331
O32	O	1.295597	0.112111	0.555665
O33	O	1.628930	0.445444	0.888998
O34	O	0.843783	-0.220930	0.331129
O35	O	1.177116	0.112404	0.664463
O36	O	1.510449	0.445737	0.997796
O37	O	0.948890	-0.284542	0.535710
O38	O	1.282224	0.048791	0.869043
O39	O	1.615557	0.382125	1.202377
O40	O	0.840066	-0.278346	0.417204
O41	O	1.173399	0.054987	0.750537
O42	O	1.506733	0.388321	1.083871
O43	O	1.035061	-0.231820	0.539425
O44	O	1.368395	0.101513	0.872759
O45	O	1.701728	0.434846	1.206092
O46	O	1.043414	-0.354639	0.339574
O47	O	1.376747	-0.021306	0.672907
O48	O	1.710080	0.312027	1.006240
O49	O	0.953642	-0.354418	0.422008
O50	O	1.286975	-0.021084	0.755342
O51	O	1.620309	0.312249	1.088675
C52	C	0.816487	-0.248912	0.373081
C53	C	1.149820	0.084421	0.706414
C54	C	1.483154	0.417755	1.039747
C55	C	0.738563	-0.246699	0.369769
C56	C	1.071896	0.086634	0.703103
C57	C	1.405230	0.419968	1.036436
C58	C	0.700041	-0.275595	0.412958
C59	C	1.033374	0.057739	0.746291
C60	C	1.366707	0.391072	1.079625
C61	C	0.626823	-0.273509	0.409850
C62	C	0.960156	0.059824	0.743183
C63	C	1.293489	0.393157	1.076517
C64	C	0.592129	-0.242531	0.363550
C65	C	0.925462	0.090803	0.696883
C66	C	1.258795	0.424136	1.030216
C67	C	0.630656	-0.213632	0.320360
C68	C	0.963990	0.119701	0.653693
C69	C	1.297323	0.453035	0.987026
C70	C	0.703873	-0.215715	0.323471
C71	C	1.037206	0.117618	0.656805
C72	C	1.370539	0.450951	0.990138
C73	C	0.371158	-0.234741	0.351919
C74	C	0.704492	0.098593	0.685252
C75	C	1.037825	0.431926	1.018585
C76	C	0.297937	-0.232660	0.348809
C77	C	0.631270	0.100673	0.682142
C78	C	0.964603	0.434006	1.015475
C79	C	0.294108	-0.292537	0.438300
C80	C	0.627441	0.040796	0.771634
C81	C	0.960775	0.374129	1.104967
C82	C	0.367326	-0.294620	0.441405
C83	C	0.700660	0.038714	0.774739
C84	C	1.033993	0.372047	1.108072
C85	C	0.405847	-0.265720	0.398218
C86	C	0.739181	0.067614	0.731551
C87	C	1.072514	0.400947	1.064884
C88	C	0.517289	-0.240399	0.360370
C89	C	0.850622	0.092934	0.693704
C90	C	1.183955	0.426267	1.027037
C91	C	0.480686	-0.267849	0.401401
C92	C	0.814019	0.065484	0.734734
C93	C	1.147353	0.398818	1.068068
C94	C	0.998529	-0.370829	0.380796
C95	C	1.331862	-0.037496	0.714129
C96	C	1.665196	0.295837	1.047463
C97	C	0.998548	-0.420764	0.380795
C98	C	1.331881	-0.087431	0.714128
C99	C	1.665214	0.245902	1.047461
C100	C	1.041555	-0.732823	0.427677
C101	C	1.374888	-0.399489	0.761010
C102	C	1.708222	-0.066156	1.094343
C103	C	1.041629	-0.920499	0.427722
C104	C	1.374963	-0.587166	0.761055
C105	C	1.708296	-0.253832	1.094389
O106	O	1.078093	-0.946813	0.467534
O107	O	1.411426	-0.613480	0.800868
O108	O	1.744759	-0.280146	1.134201
N109	N	0.998749	-0.941559	0.380942
N110	N	1.332083	-0.608226	0.714276
N111	N	1.665416	-0.274892	1.047609
C112	C	0.955844	-0.915697	0.334151
C113	C	1.289177	-0.582363	0.667484
C114	C	1.622511	-0.249030	1.000818
O115	O	0.919368	-0.937916	0.294368
O116	O	1.252702	-0.604582	0.627701
O117	O	1.586035	-0.271249	0.961035
C118	C	0.955767	-0.728021	0.334110
C119	C	1.289100	-0.394688	0.667443
C120	C	1.622433	-0.061354	1.000776
C121	C	0.998655	-0.706964	0.380888
C122	C	1.331988	-0.373631	0.714221
C123	C	1.665321	-0.040297	1.047554
C124	C	1.084439	-0.711765	0.474451
C125	C	1.417772	-0.378432	0.807785
C126	C	1.751106	-0.045099	1.141118
C127	C	1.084423	-0.664849	0.474437
C128	C	1.417756	-0.331516	0.807770
C129	C	1.751089	0.001818	1.141104
C130	C	1.041523	-0.638990	0.427648
C131	C	1.374856	-0.305657	0.760981
C132	C	1.708189	0.027677	1.094315
C133	C	0.998639	-0.660048	0.380873
C134	C	1.331972	-0.326714	0.714207
C135	C	1.665305	0.006619	1.047540
C136	C	0.912858	-0.702160	0.287322
C137	C	1.246192	-0.368826	0.620656
C138	C	1.579525	-0.035493	0.953989
C139	C	0.912841	-0.655238	0.287317
C140	C	1.246175	-0.321905	0.620651
C141	C	1.579508	0.011429	0.953984
C142	C	0.955730	-0.634181	0.334095
C143	C	1.289063	-0.300848	0.667429
C144	C	1.622396	0.032486	1.000762
C145	C	0.955722	-0.587273	0.334070
C146	C	1.289055	-0.253939	0.667403
C147	C	1.622389	0.079394	1.000736
N148	N	0.998602	-0.566213	0.380849
N149	N	1.331936	-0.232879	0.714183
N150	N	1.665269	0.100454	1.047516
C151	C	1.041502	-0.592071	0.427639
C152	C	1.374836	-0.258738	0.760972
C153	C	1.708169	0.074595	1.094305
C154	C	0.955889	-1.014229	0.334175
C155	C	1.289222	-0.680896	0.667509
C156	C	1.622556	-0.347562	1.000842
C157	C	0.955909	-1.061148	0.334185
C158	C	1.289242	-0.727814	0.667518
C159	C	1.622576	-0.394481	1.000851
C160	C	1.041693	-1.065947	0.427757
C161	C	1.375027	-0.732614	0.761090
C162	C	1.708360	-0.399280	1.094423
C163	C	1.041676	-1.019027	0.427743
C164	C	1.375010	-0.685694	0.761077
C165	C	1.708343	-0.352361	1.094410
C166	C	0.998769	-0.993169	0.380955
C167	C	1.332102	-0.659836	0.714288
C168	C	1.665436	-0.326503	1.047622
C169	C	1.041466	-0.493544	0.427604
C170	C	1.374799	-0.160210	0.760938
C171	C	1.708132	0.173123	1.094271
C172	C	1.041448	-0.446623	0.427584
C173	C	1.374781	-0.113290	0.760917
C174	C	1.708114	0.220044	1.094251
C175	C	0.955661	-0.441828	0.334015
C176	C	1.288994	-0.108495	0.667348
C177	C	1.622328	0.224839	1.000681
C178	C	0.955681	-0.488745	0.334032
C179	C	1.289015	-0.155411	0.667366
C180	C	1.622348	0.177922	1.000699
C181	C	0.998586	-0.514601	0.380833
C182	C	1.331919	-0.181268	0.714166
C183	C	1.665252	0.152065	1.047500
O184	O	0.919272	-0.560931	0.294284
O185	O	1.252605	-0.227597	0.627617
O186	O	1.585939	0.105736	0.960950
O187	O	1.077961	-0.569844	0.467426
O188	O	1.411295	-0.236511	0.800760
O189	O	1.744628	0.096823	1.134093
C190	C	1.041571	-0.779739	0.427691
C191	C	1.374904	-0.446406	0.761024
C192	C	1.708238	-0.113072	1.094358
C193	C	0.998687	-0.800796	0.380916
C194	C	1.332020	-0.467463	0.714250
C195	C	1.665354	-0.134130	1.047583
C196	C	0.955787	-0.774938	0.334127
C197	C	1.289120	-0.441604	0.667461
C198	C	1.622454	-0.108271	1.000794
C199	C	0.998707	-0.847715	0.380926
C200	C	1.332041	-0.514382	0.714259
C201	C	1.665374	-0.181048	1.047592
C202	C	1.041608	-0.873574	0.427715
C203	C	1.374941	-0.540241	0.761048
C204	C	1.708274	-0.206907	1.094382
C205	C	1.084488	-0.852514	0.474495
C206	C	1.417821	-0.519181	0.807828
C207	C	1.751154	-0.185847	1.141161
C208	C	1.084471	-0.805598	0.474480
C209	C	1.417805	-0.472264	0.807813
C210	C	1.751138	-0.138931	1.141147
C211	C	0.912907	-0.795997	0.287348
C212	C	1.246240	-0.462664	0.620681
C213	C	1.579574	-0.129331	0.954014
C214	C	0.912927	-0.842914	0.287365
C215	C	1.246260	-0.509581	0.620699
C216	C	1.579594	-0.176247	0.954032
C217	C	0.955827	-0.868773	0.334154
C218	C	1.289161	-0.535439	0.667488
C219	C	1.622494	-0.202106	1.000821
C220	C	1.181491	-0.259331	0.388669
C221	C	1.514825	0.074002	0.722002
C222	C	1.848158	0.407335	1.055336
C223	C	1.259414	-0.261556	0.391997
C224	C	1.592748	0.071778	0.725330
C225	C	1.926081	0.405111	1.058664
C226	C	0.990865	-0.258860	0.563716
C227	C	1.324198	0.074473	0.897050
C228	C	1.657532	0.407806	1.230383
C229	C	0.987554	-0.260884	0.641639
C230	C	1.320888	0.072449	0.974972
C231	C	1.654221	0.405783	1.308306
C232	C	0.998757	-0.136939	0.380940
C233	C	1.332090	0.196395	0.714273
C234	C	1.665423	0.529728	1.047606
C235	C	0.998809	-0.087006	0.380974
C236	C	1.332143	0.246327	0.714307
C237	C	1.665476	0.579660	1.047640
C238	C	1.006412	-0.249350	0.198716
C239	C	1.339746	0.083984	0.532049
C240	C	1.673079	0.417317	0.865382
C241	C	1.009859	-0.247203	0.120799
C242	C	1.343192	0.086130	0.454133
C243	C	1.676525	0.419463	0.787466
C244	C	1.030861	-0.234386	0.680183
C245	C	1.364195	0.098947	1.013516
C246	C	1.697528	0.432280	1.346849
C247	C	1.027742	-0.236286	0.753399
C248	C	1.361076	0.097047	1.086732
C249	C	1.694409	0.430381	1.420066
C250	C	0.981319	-0.264685	0.788070
C251	C	1.314652	0.068648	1.121404
C252	C	1.647986	0.401981	1.454737
C253	C	0.938007	-0.291184	0.749521
C254	C	1.271341	0.042149	1.082854
C255	C	1.604674	0.375483	1.416188
C256	C	0.941123	-0.289282	0.676306
C257	C	1.274457	0.044052	1.009639
C258	C	1.607790	0.377385	1.342973
C259	C	0.969663	-0.271800	1.009035
C260	C	1.302996	0.061534	1.342369
C261	C	1.636330	0.394867	1.675702
C262	C	0.966552	-0.273701	1.082256
C263	C	1.299885	0.059632	1.415589
C264	C	1.633218	0.392966	1.748922
C265	C	1.056286	-0.218802	1.086128
C266	C	1.389619	0.114531	1.419462
C267	C	1.722953	0.447865	1.752795
C268	C	1.059401	-0.216904	1.012912
C269	C	1.392734	0.116429	1.346245
C270	C	1.726067	0.449762	1.679579
C271	C	1.016086	-0.243401	0.974369
C272	C	1.349420	0.089932	1.307702
C273	C	1.682753	0.423266	1.641036
C274	C	0.978131	-0.266629	0.862909
C275	C	1.311465	0.066705	1.196242
C276	C	1.644798	0.400038	1.529576
C277	C	1.019271	-0.241455	0.899532
C278	C	1.352605	0.091878	1.232865
C279	C	1.685938	0.425212	1.566198
H280	H	0.262736	-0.316065	0.473462
H281	H	0.596070	0.017268	0.806796
H282	H	0.929403	0.350601	1.140129
H283	H	1.076375	-0.429480	0.465676
H284	H	1.409708	-0.096147	0.799009
H285	H	1.743042	0.237187	1.132343
H286	H	1.119395	-0.788457	0.512571
H287	H	1.452728	-0.455123	0.845905
H288	H	1.786061	-0.121790	1.179238
Cl289	Cl	1.089228	-0.198684	0.636603
Cl290	Cl	1.422562	0.134649	0.969937
Cl291	Cl	1.755895	0.467982	1.303270
H292	H	0.728283	-0.300822	0.450658
H293	H	1.061616	0.032511	0.783992
H294	H	1.394950	0.365844	1.117325
H295	H	0.877899	-0.634186	0.249217
H296	H	1.211232	-0.300853	0.582551
H297	H	1.544565	0.032480	0.915884
Cl298	Cl	0.587041	-0.174684	0.262158
Cl299	Cl	0.920374	0.158649	0.595491
Cl300	Cl	1.253708	0.491982	0.928824
Cl301	Cl	1.095406	-0.526042	0.486438
Cl302	Cl	1.428739	-0.192709	0.819771
Cl303	Cl	1.762072	0.140624	1.153105
Cl304	Cl	0.902000	-1.087614	0.275366
Cl305	Cl	1.235334	-0.754280	0.608700
Cl306	Cl	1.568667	-0.420947	0.942033
H307	H	0.905851	-0.310854	0.644924
H308	H	1.239185	0.022479	0.978258
H309	H	1.572518	0.355813	1.311591
H310	H	1.063009	-0.214710	0.784778
H311	H	1.396342	0.118623	1.118112
H312	H	1.729676	0.451957	1.451445
Cl313	Cl	0.908183	-0.309403	1.125841
Cl314	Cl	1.241516	0.023930	1.459175
Cl315	Cl	1.574850	0.357263	1.792508
H316	H	0.900206	-0.314306	0.777756
H317	H	1.233540	0.019028	1.111090
H318	H	1.566873	0.352361	1.444423
Cl319	Cl	1.117764	-0.181201	0.969330
Cl320	Cl	1.451097	0.152133	1.302664
Cl321	Cl	1.784431	0.485466	1.635997
Cl322	Cl	0.858966	-0.763496	0.228524
Cl323	Cl	1.192299	-0.430163	0.561857
Cl324	Cl	1.525633	-0.096829	0.895190
Cl325	Cl	1.138421	-0.885031	0.533313
Cl326	Cl	1.471754	-0.551698	0.866646
Cl327	Cl	1.805087	-0.218365	1.199979
Cl328	Cl	1.077622	-0.205749	0.855943
Cl329	Cl	1.410956	0.127584	1.189277
Cl330	Cl	1.744289	0.460917	1.522610
Cl331	Cl	0.410936	-0.333567	0.499612
Cl332	Cl	0.744269	-0.000234	0.832945
Cl333	Cl	1.077603	0.333099	1.166279
Cl334	Cl	1.138376	-0.744265	0.533282
Cl335	Cl	1.471709	-0.410932	0.866616
Cl336	Cl	1.805043	-0.077599	1.199949
Cl337	Cl	0.473667	-0.201456	0.302166
Cl338	Cl	0.807000	0.131878	0.635500
Cl339	Cl	1.140334	0.465211	0.968833
Cl340	Cl	0.901940	-0.981728	0.275351
Cl341	Cl	1.235274	-0.648395	0.608684
Cl342	Cl	1.568607	-0.315061	0.942018
H343	H	0.878004	-0.860054	0.249266
H344	H	1.211337	-0.526721	0.582600
H345	H	1.544670	-0.193388	0.915933
Cl346	Cl	1.138336	-0.638384	0.533253
Cl347	Cl	1.471670	-0.305051	0.866586
Cl348	Cl	1.805003	0.028283	1.199919
H349	H	0.940337	-0.289754	0.891147
H350	H	1.273670	0.043579	1.224480
H351	H	1.607003	0.376913	1.557813
H352	H	0.920764	-0.505890	0.295937
H353	H	1.254097	-0.172557	0.629270
H354	H	1.587431	0.160777	0.962603
H355	H	0.508937	-0.293070	0.439101
H356	H	0.842270	0.040263	0.772435
H357	H	1.175604	0.373597	1.105768
H358	H	1.076625	-1.087009	0.465853
H359	H	1.409959	-0.753676	0.799187
H360	H	1.743292	-0.420343	1.132520
Cl361	Cl	0.901732	-0.409311	0.275197
Cl362	Cl	1.235065	-0.075978	0.608531
Cl363	Cl	1.568399	0.257355	0.941864
Cl364	Cl	0.419575	-0.198407	0.297627
Cl365	Cl	0.752909	0.134926	0.630961
Cl366	Cl	1.086242	0.468259	0.964294
H367	H	0.934404	-0.293382	0.977663
H368	H	1.267737	0.039951	1.310996
H369	H	1.601070	0.373285	1.644330
Cl370	Cl	0.578398	-0.309837	0.464147
Cl371	Cl	0.911731	0.023496	0.797480
Cl372	Cl	1.245064	0.356830	1.130814
Cl373	Cl	0.858935	-0.728620	0.228514
Cl374	Cl	1.192268	-0.395287	0.561848
Cl375	Cl	1.525602	-0.061953	0.895181
Cl376	Cl	0.254323	-0.193716	0.290593
Cl377	Cl	0.587656	0.139618	0.623926
Cl378	Cl	0.920989	0.472951	0.957260
Cl379	Cl	0.752301	-0.179387	0.269177
Cl380	Cl	1.085635	0.153946	0.602510
Cl381	Cl	1.418968	0.487280	0.935843
Cl382	Cl	1.095593	-0.992560	0.486553
Cl383	Cl	1.428926	-0.659227	0.819887
Cl384	Cl	1.762260	-0.325894	1.153220
H385	H	1.091549	-0.197229	1.117518
H386	H	1.424882	0.136104	1.450851
H387	H	1.758216	0.469437	1.784184
