data_functionalizedCrystal
_audit_creation_method	'MofGen! by Chris Wilmer'
_symmetry_space_group_name_H-M	'P1'
_symmetry_Int_Tables_number	1
_symmetry_cell_setting	triclinic
loop_
_symmetry_equiv_pos_as_xyz
  x,y,z
_cell_length_a	21.395364
_cell_length_b	21.295417
_cell_length_c	21.395356
_cell_angle_alpha	89.970425
_cell_angle_beta	89.976411
_cell_angle_gamma	90.044653
loop_
_atom_site_label
_atom_site_type_symbol
_atom_site_fract_x
_atom_site_fract_y
_atom_site_fract_z
Zn1	Zn	0.957858	-0.250374	-0.354253
Zn2	Zn	0.957764	-0.355642	-0.249472
Zn3	Zn	0.853074	-0.250418	-0.249490
Zn4	Zn	0.853044	-0.355637	-0.354213
O5	O	0.905435	-0.303018	-0.301857
O6	O	1.045523	-0.264322	-0.340364
O7	O	0.943850	-0.341705	-0.161797
O8	O	0.867026	-0.162323	-0.263412
O9	O	1.045454	-0.341662	-0.263381
O10	O	0.944010	-0.162291	-0.340381
O11	O	0.866935	-0.264398	-0.161810
O12	O	0.765392	-0.264392	-0.263372
O13	O	0.866974	-0.341653	-0.441896
O14	O	0.765370	-0.341696	-0.340311
O15	O	0.943980	-0.264316	-0.441926
O16	O	0.943820	-0.443731	-0.263342
O17	O	0.866883	-0.443727	-0.340294
C18	C	0.742647	-0.303049	-0.301839
C19	C	0.673006	-0.303077	-0.301847
C20	C	0.640351	-0.262872	-0.341993
C21	C	0.574916	-0.262855	-0.341996
C22	C	0.542138	-0.303055	-0.301858
C23	C	0.574800	-0.343263	-0.261704
C24	C	0.640235	-0.343274	-0.261698
C25	C	0.438414	-0.359745	-0.296819
C26	C	0.372981	-0.359735	-0.296829
C27	C	0.340317	-0.303020	-0.301872
C28	C	0.373093	-0.246313	-0.306918
C29	C	0.438528	-0.246324	-0.306913
C30	C	0.471185	-0.303047	-0.301860
C31	C	0.236710	-0.262793	-0.342023
C32	C	0.171273	-0.262775	-0.342021
C33	C	0.171159	-0.343189	-0.261733
C34	C	0.236594	-0.343201	-0.261732
C35	C	0.269366	-0.303004	-0.301880
C36	C	0.905355	-0.466570	-0.301825
C37	C	0.905378	-0.536538	-0.301833
C38	C	0.945441	-0.569330	-0.341939
C39	C	0.945463	-0.635073	-0.341955
C40	C	0.905429	-0.668020	-0.301852
C41	C	0.865359	-0.635220	-0.261743
C42	C	0.865333	-0.569478	-0.261733
N43	N	0.900693	-0.771282	-0.247019
N44	N	0.900720	-0.833734	-0.247030
C45	C	0.905502	-0.866095	-0.301881
N46	N	0.910267	-0.833645	-0.356721
N47	N	0.910243	-0.771188	-0.356709
C48	C	0.905452	-0.739305	-0.301859
C49	C	0.945591	-0.970173	-0.342007
C50	C	0.945609	-1.035917	-0.342024
C51	C	0.865508	-1.036062	-0.261807
C52	C	0.865487	-0.970320	-0.261796
C53	C	0.905532	-0.937379	-0.301895
C54	C	1.068858	-0.302988	-0.301875
C55	C	1.138499	-0.302975	-0.301883
C56	C	0.905484	-0.302979	-0.465280
C57	C	0.905505	-0.302962	-0.534922
C58	C	0.905532	-0.138828	-0.301903
C59	C	0.905574	-0.068859	-0.301922
C60	C	0.865466	-0.262704	-0.567632
C61	C	0.865464	-0.262692	-0.633067
C62	C	0.905512	-0.302932	-0.665790
C63	C	0.945554	-0.343199	-0.633072
C64	C	0.945550	-0.343214	-0.567638
C65	C	0.961964	-0.307867	-0.769476
C66	C	0.961969	-0.307847	-0.834909
C67	C	0.905522	-0.302890	-0.867611
C68	C	0.849070	-0.297939	-0.834872
C69	C	0.849066	-0.297954	-0.769437
C70	C	0.905520	-0.302921	-0.736742
C71	C	0.865478	-0.262616	-0.971274
C72	C	0.865475	-0.262609	-1.036710
C73	C	0.945570	-0.343113	-1.036714
C74	C	0.945567	-0.343123	-0.971279
C75	C	0.905522	-0.302872	-0.938562
C76	C	0.905422	-0.303011	-0.139069
C77	C	0.905522	-0.302851	-0.069429
H78	H	0.548323	-0.230112	-0.374687
N79	N	0.986480	-0.936505	-0.382967
N80	N	1.026402	-0.899785	-0.360959
H81	H	1.055277	-0.876005	-0.389888
N82	N	0.986383	-0.668588	-0.382922
N83	N	0.964336	-0.705275	-0.422832
H84	H	0.993236	-0.728944	-0.451765
H85	H	0.263394	-0.230059	-0.374711
N86	N	0.339727	-0.188381	-0.312077
N87	N	0.281305	-0.188377	-0.312081
H88	H	0.257736	-0.147464	-0.315727
H89	H	0.144472	-0.375920	-0.229052
H90	H	0.832866	-0.229828	-1.063342
H91	H	0.832761	-0.662050	-0.229093
H92	H	0.803106	-0.293897	-0.861496
N93	N	0.824612	-1.069719	-0.220852
N94	N	0.824636	-1.128416	-0.220868
H95	H	0.795750	-1.152189	-0.191945
N96	N	0.471998	-0.188400	-0.312067
N97	N	0.442833	-0.137763	-0.316572
H98	H	0.466472	-0.096852	-0.320211
H99	H	0.832870	-0.229842	-0.944634
N100	N	0.824555	-0.221589	-0.534224
N101	N	0.788805	-0.185649	-0.563442
H102	H	0.759909	-0.156612	-0.539847
N103	N	0.471779	-0.417679	-0.291654
N104	N	0.464418	-0.451753	-0.244631
H105	H	0.487983	-0.492667	-0.240980
H106	H	0.803101	-0.293923	-0.742784
N107	N	0.986532	-1.069406	-0.383004
N108	N	1.022278	-1.039983	-0.418803
H109	H	1.051181	-1.063635	-0.447747
H110	H	0.263182	-0.375943	-0.229042
H111	H	0.548108	-0.375993	-0.229023
N112	N	0.137924	-0.221690	-0.383026
N113	N	0.167195	-0.185802	-0.418863
H114	H	0.143643	-0.156782	-0.447822
N115	N	0.339514	-0.417662	-0.291683
N116	N	0.368684	-0.468296	-0.287174
H117	H	0.345049	-0.509209	-0.283540
N118	N	0.673584	-0.384346	-0.220681
N119	N	0.644315	-0.420232	-0.184842
H120	H	0.667868	-0.449241	-0.155873
H121	H	0.978046	-0.542512	-0.374592
H122	H	0.832709	-0.542778	-0.229073
H123	H	0.832861	-0.229906	-0.659705
N124	N	0.824560	-0.936829	-0.220823
N125	N	0.788815	-0.966251	-0.185021
H126	H	0.759907	-0.942599	-0.156083
H127	H	0.978179	-0.375876	-1.063356
H128	H	0.978173	-0.375905	-0.944646
H129	H	1.007936	-0.311876	-0.861561
N130	N	1.019632	-0.312935	-0.736085
N131	N	1.070030	-0.317349	-0.765321
H132	H	1.110757	-0.320929	-0.741741
H133	H	0.978157	-0.375996	-0.541006
N134	N	0.986454	-0.384303	-0.666504
N135	N	0.986452	-0.384285	-0.724927
H136	H	1.015337	-0.413318	-0.748539
H137	H	0.667030	-0.230140	-0.374685
