data_functionalizedCrystal
_audit_creation_method	'MofGen! by Chris Wilmer'
_symmetry_space_group_name_H-M	'P1'
_symmetry_Int_Tables_number	1
_symmetry_cell_setting	triclinic
loop_
_symmetry_equiv_pos_as_xyz
  x,y,z
_cell_length_a	14.971482
_cell_length_b	27.732048
_cell_length_c	13.448316
_cell_angle_alpha	90.008601
_cell_angle_beta	90.004522
_cell_angle_gamma	83.127632
loop_
_atom_site_label
_atom_site_type_symbol
_atom_site_fract_x
_atom_site_fract_y
_atom_site_fract_z
O1	O	1.185952	0.062980	0.082690
O2	O	0.925433	0.070526	0.082696
O3	O	1.063784	-0.003606	0.082674
O4	O	1.047601	0.137112	0.082712
O5	O	1.063770	-0.003607	-0.082710
O6	O	0.925419	0.070525	-0.082688
O7	O	1.185939	0.062980	-0.082694
Cu8	Cu	1.055678	0.066752	-0.097791
Cu9	Cu	1.055694	0.066753	0.097794
O10	O	1.047588	0.137112	-0.082671
C11	C	0.892106	0.070188	0.000005
C12	C	0.792825	0.069178	0.000006
C13	C	0.746181	0.068702	-0.090146
C14	C	0.652897	0.067745	-0.090147
C15	C	0.606259	0.067268	0.000005
C16	C	0.652911	0.067742	0.090164
C17	C	0.746193	0.068696	0.090164
C18	C	0.458480	0.065756	0.090157
C19	C	0.365191	0.064804	0.090157
C20	C	0.365184	0.064805	-0.090154
C21	C	0.458467	0.065759	-0.090154
C22	C	0.505111	0.066234	0.000005
C23	C	1.063437	-0.021615	-0.000021
C24	C	1.062414	-0.075275	-0.000029
C25	C	1.137731	-0.413743	0.000021
C26	C	1.133936	-0.615420	0.000035
O27	O	1.202808	-0.646358	0.000076
N28	N	1.051900	-0.634922	0.000036
C29	C	0.970806	-0.604001	0.000040
O30	O	0.900942	-0.625216	0.000051
C31	C	0.974602	-0.402325	0.000033
C32	C	1.056644	-0.382826	0.000022
C33	C	1.219766	-0.394244	0.000011
C34	C	1.220714	-0.343827	0.000002
C35	C	1.139627	-0.312910	0.000003
C36	C	1.057592	-0.332410	0.000013
C37	C	0.893510	-0.371405	0.000044
C38	C	0.894466	-0.320983	0.000045
C39	C	0.976508	-0.301484	0.000034
C40	C	0.977453	-0.251076	0.000005
N41	N	1.059489	-0.231574	0.000004
C42	C	1.140576	-0.262491	0.000003
C43	C	0.968819	-0.709884	0.000041
C44	C	0.967870	-0.760303	0.000041
C45	C	1.131000	-0.771719	0.000038
C46	C	1.131949	-0.721299	0.000031
C47	C	1.050856	-0.690382	0.000040
C48	C	1.142561	-0.156613	-0.000017
C49	C	1.143502	-0.106192	-0.000030
C50	C	0.980372	-0.094780	-0.000021
C51	C	0.979431	-0.145197	-0.000014
C52	C	1.060532	-0.176113	-0.000008
O53	O	0.908618	-0.220109	-0.000026
O54	O	1.210430	-0.241267	0.000013
C55	C	1.136783	-0.464159	0.000029
C56	C	1.054748	-0.483658	0.000039
C57	C	0.973661	-0.452741	0.000041
C58	C	1.053799	-0.534077	0.000039
C59	C	1.134886	-0.564994	0.000038
C60	C	1.216923	-0.545493	0.000037
C61	C	1.217871	-0.495076	0.000028
C62	C	0.891625	-0.472243	0.000042
C63	C	0.890683	-0.522660	0.000049
C64	C	0.971771	-0.553577	0.000048
C65	C	1.219265	0.063317	-0.000000
C66	C	1.318546	0.064327	0.000005
C67	C	1.047934	0.155121	0.000025
C68	C	1.048957	0.208780	0.000040
N69	N	1.055673	0.066751	-0.235356
C70	C	1.109511	0.096117	-0.287385
C71	C	1.109522	0.096115	-0.391488
C72	C	1.055690	0.066749	-0.443560
C73	C	1.001849	0.037381	-0.391524
C74	C	1.001843	0.037381	-0.287423
C75	C	1.001863	0.037384	-0.608504
C76	C	1.001867	0.037385	-0.712613
C77	C	1.109542	0.096118	-0.712569
C78	C	1.109536	0.096118	-0.608468
C79	C	1.055694	0.066750	-0.556439
N80	N	1.055706	0.066750	0.235358
H81	H	0.496455	0.066144	0.163574
H82	H	1.153367	0.120032	-0.566073
H83	H	0.327201	0.064418	-0.163565
Cl84	Cl	1.177233	0.133036	-0.777976
H85	H	0.958002	0.013469	-0.245062
Cl86	Cl	0.792514	-0.282119	0.000058
Cl87	Cl	0.934189	0.000456	-0.543098
H88	H	0.496436	0.066150	-0.163563
H89	H	0.825592	-0.447075	0.000045
H90	H	0.614932	0.067350	0.163567
H91	H	0.327221	0.064415	0.163566
H92	H	1.153343	0.120032	-0.244995
Cl93	Cl	0.934197	0.000465	-0.778074
Cl94	Cl	0.804833	0.069292	0.203503
H95	H	1.282947	-0.570674	0.000032
H96	H	0.784145	0.069094	-0.163558
Cl97	Cl	0.594260	0.067155	-0.203486
H98	H	1.210313	-0.090319	-0.000041
Cl99	Cl	1.232938	-0.810595	0.000041
H100	H	1.153365	0.120026	-0.433845
Cl101	Cl	1.244519	-0.195471	-0.000011
H102	H	1.287521	-0.327956	-0.000003
H103	H	1.285801	-0.419412	0.000013
Cl104	Cl	1.235090	-0.696792	0.000018
H105	H	0.901063	-0.776174	0.000033
Cl106	Cl	0.866862	-0.671024	0.000052
H107	H	0.826703	-0.387271	0.000059
H108	H	0.912626	-0.161074	-0.000032
H109	H	0.958022	0.013469	-0.433930
Cl110	Cl	1.321015	-0.470572	0.000023
Cl111	Cl	0.878439	-0.055904	-0.000018
Cl112	Cl	0.787534	-0.547166	0.000058
