data_functionalizedCrystal
_audit_creation_method	'MofGen! by Chris Wilmer'
_symmetry_space_group_name_H-M	'P1'
_symmetry_Int_Tables_number	1
_symmetry_cell_setting	triclinic
loop_
_symmetry_equiv_pos_as_xyz
  x,y,z
_cell_length_a	15.995343
_cell_length_b	15.072220
_cell_length_c	14.519709
_cell_angle_alpha	90.010326
_cell_angle_beta	83.584664
_cell_angle_gamma	89.999635
loop_
_atom_site_label
_atom_site_type_symbol
_atom_site_fract_x
_atom_site_fract_y
_atom_site_fract_z
O1	O	1.111166	0.073695	0.118845
O2	O	0.867412	0.073717	0.133532
O3	O	0.995752	0.073698	-0.008062
O4	O	0.982826	0.073715	0.260439
O5	O	0.995743	-0.073868	-0.008079
O6	O	0.867404	-0.073848	0.133515
O7	O	1.111158	-0.073870	0.118828
Zn8	Zn	0.989279	-0.097288	0.126169
Zn9	Zn	0.989290	0.097135	0.126191
O10	O	0.982818	-0.073850	0.260422
C11	C	0.836212	-0.000063	0.132918
C12	C	0.743259	-0.000055	0.131101
C13	C	0.573067	-0.000067	0.127804
C14	C	0.549569	-0.000073	0.025595
C15	C	0.452888	-0.000414	0.023672
C16	C	0.405503	-0.000078	0.124556
C17	C	0.434666	-0.084174	0.175939
C18	C	0.531460	-0.084239	0.177151
C19	C	0.531383	0.083576	0.178667
C20	C	0.434882	0.084676	0.174894
C21	C	0.310802	-0.000087	0.122726
C22	C	0.667768	-0.000064	0.129637
N23	N	0.989278	-0.229977	0.126153
C24	C	0.989291	-0.589178	0.126184
C25	C	1.058187	-0.551554	0.050673
C26	C	1.058006	-0.448729	0.050394
C27	C	0.989285	-0.410974	0.126169
C28	C	0.901896	-0.448311	0.105155
C29	C	0.902304	-0.551169	0.104622
C30	C	1.006998	-0.551251	0.222931
C31	C	1.008979	-0.448387	0.222283
C32	C	0.989276	-0.310261	0.126162
C33	C	0.989294	-0.689892	0.126189
C34	C	1.142358	-0.000088	0.119443
C35	C	1.235311	-0.000090	0.121259
C36	C	0.995145	-0.000085	-0.042429
C37	C	0.993340	-0.000085	-0.144807
N38	N	0.989299	0.229824	0.126200
C39	C	0.986695	-0.000062	-0.519690
C40	C	0.988540	-0.000069	-0.415386
C41	C	0.990017	-0.000074	-0.332252
C42	C	0.991863	-0.000080	-0.227941
C43	C	0.983425	-0.000066	0.294789
C44	C	0.985230	-0.000060	0.397167
H45	H	0.434387	-0.061055	-0.016376
O46	O	0.880756	-0.414222	0.012750
H47	H	0.877977	-0.340650	0.014462
H48	H	1.047023	-0.577416	-0.020717
O49	O	0.586591	0.079797	-0.026877
H50	H	0.569146	0.078298	-0.098734
H51	H	1.069367	-0.577189	0.243128
O52	O	0.550923	-0.088997	0.276429
H53	H	0.523133	-0.030635	0.315186
H54	H	0.402036	0.090019	0.248506
H55	H	0.558190	-0.147346	0.141968
O56	O	0.587868	-0.079844	-0.026046
H57	H	0.623565	-0.119488	0.020769
H58	H	1.046678	-0.424134	-0.021403
O59	O	0.392615	-0.088024	0.274281
H60	H	0.350382	-0.029901	0.287609
H61	H	1.123360	-0.576288	0.062983
H62	H	0.956759	-0.575586	0.279125
O63	O	0.881694	-0.582975	0.011153
H64	H	0.871531	-0.524891	-0.033241
O65	O	0.408006	-0.167402	0.129213
H66	H	0.373992	-0.149085	0.069406
H67	H	0.849387	-0.423856	0.158689
H68	H	0.559608	0.147338	0.146427
H69	H	0.849489	-0.576058	0.157529
O70	O	0.410224	0.167096	0.125347
H71	H	0.377649	0.147778	0.064779
O72	O	1.094130	-0.416062	0.243420
H73	H	1.122313	-0.373523	0.185721
H74	H	0.962062	-0.422685	0.281106
H75	H	0.433812	0.059857	-0.016551
H76	H	0.545509	0.084391	0.253899
O77	O	1.144048	-0.415278	0.066951
H78	H	1.186163	-0.472569	0.075227
