data_functionalizedCrystal
_audit_creation_method	'MofGen! by Chris Wilmer'
_symmetry_space_group_name_H-M	'P1'
_symmetry_Int_Tables_number	1
_symmetry_cell_setting	triclinic
loop_
_symmetry_equiv_pos_as_xyz
  x,y,z
_cell_length_a	35.288113
_cell_length_b	35.277611
_cell_length_c	35.277682
_cell_angle_alpha	89.997327
_cell_angle_beta	59.999432
_cell_angle_gamma	60.000166
loop_
_atom_site_label
_atom_site_type_symbol
_atom_site_fract_x
_atom_site_fract_y
_atom_site_fract_z
O1	O	-0.271232	-0.323090	0.011273
O2	O	-0.193633	-0.267966	-0.011225
O3	O	-0.271230	-0.267965	0.066395
O4	O	-0.193635	-0.323091	-0.066346
O5	O	-0.334254	-0.204920	0.066390
O6	O	-0.256658	-0.204921	-0.011230
O7	O	-0.334256	-0.260045	0.011268
Cu8	Cu	-0.301211	-0.226727	0.000019
Cu9	Cu	-0.226678	-0.301284	0.000025
O10	O	-0.256659	-0.260046	-0.066351
C11	C	-0.139921	-0.094839	-0.023515
C12	C	-0.166526	-0.044836	-0.020291
C13	C	-0.162510	-0.117863	-0.023839
C14	C	-0.071295	-0.163484	-0.023521
C15	C	-0.024525	-0.186877	-0.020303
C16	C	-0.093988	-0.186403	-0.023845
C17	C	-0.139916	-0.163485	-0.023523
C18	C	-0.166517	-0.186877	-0.020308
C19	C	-0.093993	-0.117863	-0.023837
C20	C	-0.188008	-0.205776	-0.017709
C21	C	-0.188021	-0.004439	-0.017686
C22	C	0.013260	-0.205775	-0.017702
C23	C	-0.214969	-0.229485	-0.014449
C24	C	-0.214987	0.046242	-0.014418
C25	C	0.060663	-0.229485	-0.014440
C26	C	-0.466057	-0.500369	0.034182
C27	C	-0.511983	-0.477348	0.034501
C28	C	-0.466054	-0.431728	0.034177
C29	C	-0.511980	-0.408811	0.034496
C30	C	-0.534676	-0.431729	0.034177
C31	C	-0.443465	-0.477347	0.034501
C32	C	-0.342486	-0.665896	0.021768
C33	C	-0.317224	-0.712772	0.018258
C34	C	-0.338910	-0.736288	0.016496
C35	C	-0.311516	-0.787116	0.012682
C36	C	-0.385862	-0.712923	0.018248
C37	C	-0.411124	-0.666049	0.021764
C38	C	-0.389434	-0.642536	0.023524
C39	C	-0.687733	-0.389815	0.021747
C40	C	-0.731082	-0.368211	0.018231
C41	C	-0.752825	-0.323007	0.016462
C42	C	-0.799821	-0.299581	0.012644
C43	C	-0.731219	-0.299405	0.018214
C44	C	-0.687878	-0.321006	0.021737
C45	C	-0.666135	-0.366216	0.023501
C46	C	-0.342474	-0.389811	0.021746
C47	C	-0.317205	-0.368208	0.018224
C48	C	-0.338888	-0.323002	0.016457
C49	C	-0.311491	-0.299577	0.012637
C50	C	-0.385836	-0.299403	0.018207
C51	C	-0.411101	-0.321009	0.021727
C52	C	-0.389418	-0.366213	0.023500
C53	C	-0.416828	-0.591710	0.027333
C54	C	-0.438663	-0.551196	0.030370
C55	C	-0.438657	-0.408305	0.030359
C56	C	-0.416819	-0.389634	0.027316
C57	C	-0.581672	-0.408306	0.030359
C58	C	-0.619135	-0.389636	0.027317
C59	C	-0.061850	-0.432022	-0.438498
C60	C	-0.015925	-0.477641	-0.461414
C61	C	-0.061850	-0.432022	-0.369855
C62	C	-0.015924	-0.477642	-0.392875
C63	C	0.006770	-0.500664	-0.438494
C64	C	-0.084440	-0.409104	-0.392879
C65	C	-0.185425	-0.320835	-0.480419
C66	C	-0.210689	-0.299078	-0.502026
C67	C	-0.189005	-0.322533	-0.547232
C68	C	-0.216400	-0.298947	-0.570658
C69	C	-0.142053	-0.367745	-0.570831
C70	C	-0.116790	-0.389496	-0.549227
C71	C	-0.138478	-0.366040	-0.504019
C72	C	0.159822	-0.666191	-0.549673
C73	C	0.203170	-0.713067	-0.571429
C74	C	0.224915	-0.736585	-0.547974
C75	C	0.271910	-0.787411	-0.571555
C76	C	0.203311	-0.713220	-0.502762
C77	C	0.159971	-0.666344	-0.481011
C78	C	0.138226	-0.642833	-0.504471
C79	C	-0.185423	-0.320837	-0.204330
C80	C	-0.210690	-0.299082	-0.157452
C81	C	-0.189006	-0.322537	-0.133935
C82	C	-0.216401	-0.298952	-0.083107
C83	C	-0.142058	-0.367748	-0.157296
C84	C	-0.116795	-0.389501	-0.204172
C85	C	-0.138480	-0.366040	-0.227687
C86	C	-0.111082	-0.389631	-0.480594
C87	C	-0.089245	-0.408434	-0.461922
C88	C	-0.089244	-0.408435	-0.319029
C89	C	-0.111081	-0.389633	-0.278515
C90	C	0.053765	-0.551490	-0.462079
C91	C	0.091227	-0.592004	-0.480880
O92	O	0.184792	-0.260049	0.011276
O93	O	0.074572	-0.204918	-0.011214
O94	O	0.074577	-0.204931	0.066402
O95	O	0.184787	-0.260036	-0.066340
O96	O	0.074580	-0.267979	0.066395
O97	O	0.074575	-0.267967	-0.011221
O98	O	0.184796	-0.323098	0.011268
Cu99	Cu	0.129686	-0.301289	0.000023
Cu100	Cu	0.129682	-0.226727	0.000031
O101	O	0.184791	-0.323085	-0.066347
O102	O	-0.334280	0.196123	0.011311
O103	O	-0.256678	0.063379	-0.011194
O104	O	-0.334272	0.140988	0.066428
O105	O	-0.256685	0.118515	-0.066311
O106	O	-0.271246	0.140988	0.066430
O107	O	-0.193651	0.063380	-0.011192
O108	O	-0.271253	0.196124	0.011313
Cu109	Cu	-0.226697	0.129752	0.000060
Cu110	Cu	-0.301234	0.129751	0.000058
O111	O	-0.193659	0.118515	-0.066309
O112	O	0.397507	-0.936914	-0.602533
O113	O	0.287295	-0.804173	-0.547413
O114	O	0.287292	-0.881789	-0.547409
O115	O	0.397511	-0.859297	-0.602537
O116	O	0.287290	-0.881788	-0.610455
O117	O	0.287294	-0.804171	-0.610459
O118	O	0.397506	-0.936912	-0.665578
Cu119	Cu	0.342400	-0.870542	-0.643775
Cu120	Cu	0.342402	-0.870543	-0.569216
O121	O	0.397510	-0.859295	-0.665583
O122	O	-0.271230	-0.267964	-0.665316
O123	O	-0.193638	-0.323088	-0.610187
O124	O	-0.271233	-0.323088	-0.610187
O125	O	-0.193635	-0.267964	-0.665317
O126	O	-0.334259	-0.260042	-0.547144
O127	O	-0.256663	-0.260042	-0.547145
O128	O	-0.334256	-0.204919	-0.602274
Cu129	Cu	-0.301214	-0.226724	-0.568953
Cu130	Cu	-0.226679	-0.301282	-0.643508
O131	O	-0.256660	-0.204919	-0.602274
C132	C	-0.456595	-0.094848	0.293242
C133	C	-0.503362	-0.044847	0.316630
C134	C	-0.433901	-0.117870	0.316162
C135	C	-0.387976	-0.163489	0.224603
C136	C	-0.361374	-0.186880	0.174603
C137	C	-0.365386	-0.186407	0.247627
C138	C	-0.387976	-0.163489	0.293246
C139	C	-0.361374	-0.186880	0.316639
C140	C	-0.433901	-0.117870	0.247623
C141	C	-0.339882	-0.205777	0.335538
C142	C	-0.541144	-0.004451	0.335525
C143	C	-0.339882	-0.205778	0.134207
C144	C	-0.312920	-0.229485	0.359247
C145	C	-0.588544	0.046227	0.359230
C146	C	-0.312919	-0.229485	0.083529
C147	C	-0.139914	-0.163526	0.293243
C148	C	-0.166515	-0.186921	0.316629
C149	C	-0.162508	-0.117907	0.316165
C150	C	-0.071292	-0.163518	0.224608
C151	C	-0.024521	-0.186904	0.174608
C152	C	-0.093990	-0.117899	0.247633
C153	C	-0.139918	-0.094881	0.293251
C154	C	-0.166524	-0.044881	0.316645
C155	C	-0.093985	-0.186440	0.247625
C156	C	-0.188019	-0.004485	0.335545
C157	C	-0.188006	-0.205822	0.335522
C158	C	0.013264	-0.205797	0.134213
C159	C	-0.214985	0.046193	0.359256
C160	C	-0.214967	-0.229534	0.359225
C161	C	0.060667	-0.229500	0.083535
C162	C	-0.387977	0.153259	0.293278
C163	C	-0.361372	0.150036	0.316669
C164	C	-0.433902	0.153576	0.316195
C165	C	-0.387982	0.153270	0.224638
C166	C	-0.361384	0.150059	0.174638
C167	C	-0.433907	0.153586	0.247659
C168	C	-0.456599	0.153258	0.293277
C169	C	-0.503365	0.150035	0.316666
C170	C	-0.365390	0.153587	0.247660
C171	C	-0.541147	0.147430	0.335562
C172	C	-0.339878	0.147432	0.335565
C173	C	-0.339894	0.147463	0.134243
C174	C	-0.588546	0.144163	0.359268
C175	C	-0.312913	0.144165	0.359273
C176	C	-0.312935	0.144208	0.083566
C177	C	0.533962	-0.500327	-0.438490
C178	C	0.556552	-0.477301	-0.461404
C179	C	0.465336	-0.431691	-0.369847
C180	C	0.488030	-0.408769	-0.392865
C181	C	0.533958	-0.431682	-0.438483
C182	C	0.488034	-0.477309	-0.392872
C183	C	0.588298	-0.665858	-0.480419
C184	C	0.613412	-0.712734	-0.502027
C185	C	0.660370	-0.736245	-0.547233
C186	C	0.687609	-0.787073	-0.570661
C187	C	0.682211	-0.712876	-0.570830
C188	C	0.657092	-0.666002	-0.549224
C189	C	0.610134	-0.642493	-0.504016
C190	C	0.657534	-0.389751	-0.549653
C191	C	0.682796	-0.368142	-0.571405
C192	C	0.661112	-0.322938	-0.547949
C193	C	0.688502	-0.299507	-0.571527
C194	C	0.614158	-0.299341	-0.502738
C195	C	0.588891	-0.320946	-0.480989
C196	C	0.610587	-0.366156	-0.504452
C197	C	0.312274	-0.389793	-0.204326
C198	C	0.268926	-0.368195	-0.157448
C199	C	0.247178	-0.322989	-0.133930
C200	C	0.200179	-0.299569	-0.083102
C201	C	0.268782	-0.299385	-0.157288
C202	C	0.312130	-0.320986	-0.204163
C203	C	0.333870	-0.366190	-0.227680
C204	C	0.582904	-0.591667	-0.480590
C205	C	0.561197	-0.551153	-0.461917
C206	C	0.418337	-0.408273	-0.319021
C207	C	0.380873	-0.389606	-0.278508
C208	C	0.561353	-0.408255	-0.462065
C209	C	0.583189	-0.389581	-0.480864
O210	O	-0.271267	0.196079	0.389818
O211	O	-0.193655	0.063337	0.334690
O212	O	-0.271264	0.140949	0.334697
O213	O	-0.193658	0.118467	0.389810
O214	O	-0.334279	0.140936	0.397745
O215	O	-0.256670	0.063324	0.397738
O216	O	-0.334282	0.196067	0.452865
Cu217	Cu	-0.301230	0.129694	0.431058
Cu218	Cu	-0.226708	0.129709	0.356497
O219	O	-0.256673	0.118454	0.452858
C220	C	0.006425	0.095680	-0.438452
C221	C	-0.016272	0.095363	-0.461370
C222	C	-0.062191	0.095669	-0.369813
C223	C	-0.084784	0.095352	-0.392834
C224	C	-0.062197	0.095680	-0.438452
C225	C	-0.016266	0.095352	-0.392834
C226	C	0.159478	0.108116	-0.480364
C227	C	0.202826	0.111633	-0.501968
C228	C	0.224567	0.113404	-0.547173
C229	C	0.271562	0.117227	-0.570597
C230	C	0.202961	0.111654	-0.570774
C231	C	0.159621	0.108130	-0.549172
C232	C	0.137880	0.106361	-0.503965
C233	C	-0.116535	0.108125	-0.549635
C234	C	-0.141649	0.111642	-0.571391
C235	C	-0.188604	0.113404	-0.547939
C236	C	-0.215842	0.117224	-0.571521
C237	C	-0.210441	0.111643	-0.502728
C238	C	-0.185323	0.108118	-0.480975
C239	C	-0.138368	0.106362	-0.504434
C240	C	-0.116504	0.108070	-0.204288
C241	C	-0.141615	0.111582	-0.157411
C242	C	-0.188570	0.113342	-0.133896
C243	C	-0.215802	0.117153	-0.083069
C244	C	-0.210414	0.111594	-0.157259
C245	C	-0.185302	0.108084	-0.204134
C246	C	-0.138343	0.106318	-0.227646
C247	C	0.090881	0.102545	-0.480543
C248	C	0.053420	0.099501	-0.461874
C249	C	-0.089418	0.099477	-0.318987
C250	C	-0.111120	0.102512	-0.278474
C251	C	-0.089431	0.099500	-0.462039
C252	C	-0.111138	0.102544	-0.480841
H253	H	-0.074999	-0.099378	-0.024354
O254	O	-0.321421	-0.433745	0.023405
C255	C	-0.308756	-0.462959	-0.014450
H256	H	-0.333929	-0.441211	-0.027224
H257	H	-0.317673	-0.489414	-0.003001
H258	H	-0.264427	-0.481876	-0.043733
O259	O	-0.120534	0.113425	-0.615279
C260	C	-0.158227	0.155354	-0.615240
H261	H	-0.200258	0.169173	-0.583801
H262	H	-0.155667	0.148866	-0.648362
H263	H	-0.149238	0.181928	-0.613528
H264	H	0.220414	0.113060	-0.482749
H265	H	0.329974	-0.426601	-0.223470
O266	O	0.593161	-0.255460	-0.479939
C267	C	0.630940	-0.255562	-0.475812
H268	H	0.660426	-0.291841	-0.478492
H269	H	0.609338	-0.229812	-0.440772
H270	H	0.653606	-0.245113	-0.504834
O271	O	-0.070880	0.106346	-0.572399
C272	C	-0.029071	0.064419	-0.576542
H273	H	-0.046765	0.050597	-0.548363
H274	H	-0.002522	0.070912	-0.572480
H275	H	-0.004119	0.037845	-0.612134
O276	O	-0.456619	0.154177	0.225669
C277	C	-0.502110	0.154397	0.255794
H278	H	-0.498473	0.139421	0.283378
H279	H	-0.504997	0.132399	0.235090
H280	H	-0.539645	0.191549	0.273275
H281	H	-0.278976	-0.387428	0.016796
H282	H	0.720442	-0.732021	-0.607636
H283	H	0.675201	-0.426561	-0.568760
O284	O	0.600686	-0.499312	-0.506098
C285	C	0.642978	-0.501613	-0.508618
H286	H	0.625856	-0.472993	-0.477800
H287	H	0.667233	-0.496835	-0.542291
H288	H	0.670043	-0.536871	-0.507800
H289	H	-0.748926	-0.262597	0.016776
H290	H	0.469033	-0.371287	-0.374376
O291	O	0.138592	0.106515	-0.572085
C292	C	0.119926	0.147263	-0.583639
H293	H	0.111317	0.176100	-0.559201
H294	H	0.081612	0.158343	-0.580114
H295	H	0.151754	0.140296	-0.620945
O296	O	0.138286	0.106472	-0.436424
C297	C	0.083895	0.144313	-0.407208
H298	H	0.076508	0.173259	-0.422989
H299	H	0.073506	0.157649	-0.371614
H300	H	0.057691	0.132631	-0.403393
H301	H	-0.199462	-0.099431	0.353648
O302	O	0.224121	0.113292	-0.614713
C303	C	0.242873	0.072559	-0.645026
H304	H	0.251406	0.043706	-0.629208
H305	H	0.281247	0.061493	-0.679758
H306	H	0.211130	0.079538	-0.650623
O307	O	-0.071405	-0.095797	0.225579
C308	C	-0.108868	-0.055777	0.223287
H309	H	-0.140160	-0.059974	0.226272
H310	H	-0.087325	-0.050836	0.188740
H311	H	-0.129413	-0.024160	0.252995
O312	O	-0.071375	-0.231162	0.225645
C313	C	-0.101282	-0.246543	0.255751
H314	H	-0.124536	-0.224713	0.293258
H315	H	-0.072962	-0.284535	0.250264
H316	H	-0.130530	-0.242821	0.248077
O317	O	-0.256335	-0.255187	-0.479122
C318	C	-0.298227	-0.255209	-0.474888
H319	H	-0.280628	-0.286642	-0.503108
H320	H	-0.324847	-0.222082	-0.478813
H321	H	-0.323080	-0.256921	-0.439320
H322	H	-0.452887	-0.099380	0.229135
H323	H	0.595627	-0.731757	-0.482811
O324	O	-0.271607	-0.735403	0.016536
C325	C	-0.257888	-0.704596	0.018853
H326	H	-0.276741	-0.675064	0.006780
H327	H	-0.212451	-0.724010	-0.004522
H328	H	-0.273377	-0.689801	0.056173
O329	O	0.728420	-0.391140	-0.615309
C330	C	0.742142	-0.435670	-0.631353
H331	H	0.723280	-0.446342	-0.600424
H332	H	0.787579	-0.461704	-0.653417
H333	H	0.726666	-0.434974	-0.653190
H334	H	-0.452887	0.154079	0.353674
O335	O	-0.321315	0.154224	0.225683
C336	C	-0.306133	0.154411	0.255792
H337	H	-0.342203	0.168657	0.293298
H338	H	-0.290983	0.177248	0.250304
H339	H	-0.272938	0.117479	0.248121
H340	H	0.003067	-0.496124	-0.374389
O341	O	0.465431	-0.499424	-0.370898
C342	C	0.495343	-0.544717	-0.401010
H343	H	0.518591	-0.546136	-0.438515
H344	H	0.467029	-0.554386	-0.395524
H345	H	0.524597	-0.570252	-0.393341
H346	H	0.142122	-0.647051	-0.568779
H347	H	0.251343	-0.387419	-0.138431
H348	H	0.550062	-0.646721	-0.443611
H349	H	-0.248917	-0.262271	-0.138434
O350	O	-0.534592	-0.364085	0.035138
C351	C	-0.504686	-0.348707	0.035336
H352	H	-0.481429	-0.370546	0.049577
H353	H	-0.533007	-0.310719	0.058182
H354	H	-0.475441	-0.352419	-0.001592
H355	H	-0.248670	0.113071	-0.483634
O356	O	-0.071238	-0.433443	-0.226866
C357	C	-0.079778	-0.462742	-0.243423
H358	H	-0.124490	-0.446958	-0.221953
H359	H	-0.057598	-0.498276	-0.240345
H360	H	-0.064154	-0.466684	-0.281357
O361	O	0.006679	-0.499620	-0.506135
C362	C	-0.023198	-0.469494	-0.521528
H363	H	-0.065763	-0.441935	-0.490317
H364	H	-0.024439	-0.490204	-0.545165
H365	H	-0.003553	-0.451981	-0.541548
H366	H	-0.530976	-0.495833	0.035018
O367	O	-0.399388	-0.499457	0.035133
C368	C	-0.384210	-0.544751	0.035327
H369	H	-0.420282	-0.546175	0.049582
H370	H	-0.369054	-0.554419	0.058162
H371	H	-0.351019	-0.570285	-0.001603
H372	H	0.674876	-0.646978	-0.568440
O373	O	-0.120907	-0.390585	-0.614750
C374	C	-0.074060	-0.435156	-0.630941
H375	H	-0.056892	-0.435239	-0.610814
H376	H	-0.043223	-0.444664	-0.669462
H377	H	-0.084183	-0.461606	-0.625640
O378	O	-0.071170	-0.433402	-0.572090
C379	C	-0.053531	-0.447577	-0.543321
H380	H	-0.070353	-0.415684	-0.516165
H381	H	-0.007877	-0.469554	-0.565296
H382	H	-0.068100	-0.468955	-0.525238
O383	O	-0.206618	0.106433	-0.437053
C384	C	-0.253438	0.108729	-0.421018
H385	H	-0.270480	0.125817	-0.441229
H386	H	-0.284374	0.130071	-0.382503
H387	H	-0.243323	0.072157	-0.426357
H388	H	-0.199462	-0.099379	-0.024361
O389	O	-0.406916	-0.735797	0.016596
C390	C	-0.419587	-0.752340	0.054455
H391	H	-0.394414	-0.755774	0.067229
H392	H	-0.410675	-0.787711	0.043011
H393	H	-0.463916	-0.726913	0.083736
O394	O	0.543301	-0.297968	-0.437066
C395	C	0.529567	-0.253432	-0.421027
H396	H	0.566852	-0.253470	-0.441236
H397	H	0.512403	-0.243836	-0.382512
H398	H	0.498341	-0.226976	-0.426363
H399	H	-0.449352	-0.647029	0.023192
H400	H	0.329715	-0.301763	-0.223180
O401	O	-0.128590	-0.364418	-0.370783
C402	C	-0.170881	-0.361888	-0.330768
H403	H	-0.163682	-0.397393	-0.334967
H404	H	-0.210356	-0.335414	-0.325836
H405	H	-0.172804	-0.350809	-0.299146
H406	H	-0.203090	0.106659	-0.223153
H407	H	0.251073	-0.262575	-0.138136
O408	O	-0.128847	0.094698	-0.370731
C409	C	-0.144016	0.094490	-0.325441
H410	H	-0.107946	0.080253	-0.324017
H411	H	-0.159142	0.071634	-0.315790
H412	H	-0.177226	0.131413	-0.299896
O413	O	-0.666696	-0.433722	0.023482
C414	C	-0.695052	-0.449922	0.021172
H415	H	-0.736684	-0.419078	0.033241
H416	H	-0.698911	-0.472006	0.044554
H417	H	-0.672490	-0.471783	-0.016146
H418	H	0.002721	0.094852	-0.498852
O419	O	0.006468	0.094648	-0.370829
C420	C	0.059517	0.054459	-0.395683
H421	H	0.063928	0.026880	-0.417655
H422	H	0.069184	0.040602	-0.370250
H423	H	0.088336	0.063395	-0.419241
O424	O	-0.752144	-0.391087	0.016606
C425	C	-0.806527	-0.365985	0.054448
H426	H	-0.813993	-0.342729	0.083384
H427	H	-0.816797	-0.391247	0.067799
H428	H	-0.832768	-0.343681	0.042761
O429	O	-0.120312	0.113254	-0.134793
C430	C	-0.073490	0.110954	-0.165595
H431	H	-0.056457	0.093876	-0.202851
H432	H	-0.042549	0.089602	-0.158031
H433	H	-0.083600	0.147525	-0.160812
H434	H	-0.078269	0.106635	-0.223429
H435	H	-0.248648	0.113027	-0.138110
H436	H	-0.328426	-0.223888	0.229142
O437	O	-0.666851	-0.298091	0.023353
C438	C	-0.648190	-0.286534	-0.017394
H439	H	-0.639581	-0.310972	-0.046231
H440	H	-0.609876	-0.290057	-0.028475
H441	H	-0.680020	-0.249229	-0.010424
O442	O	-0.071243	-0.231130	-0.024491
C443	C	-0.025767	-0.246508	-0.024688
H444	H	-0.010106	-0.224668	-0.038928
H445	H	0.006730	-0.284496	-0.047536
H446	H	-0.037150	-0.242797	0.012240
H447	H	-0.449327	-0.301790	0.023152
O448	O	-0.406939	-0.255458	0.016576
C449	C	-0.419586	-0.226247	0.054421
H450	H	-0.425346	-0.242039	0.083360
H451	H	-0.458119	-0.190656	0.067767
H452	H	-0.385522	-0.222424	0.042740
H453	H	-0.203079	-0.301728	-0.223475
O454	O	-0.206464	-0.297989	-0.436539
C455	C	-0.208299	-0.257125	-0.435564
H456	H	-0.177532	-0.260999	-0.471883
H457	H	-0.198791	-0.250927	-0.410672
H458	H	-0.250058	-0.226407	-0.423351
O459	O	0.224069	-0.735699	-0.615334
C460	C	0.195589	-0.704892	-0.631377
H461	H	0.154001	-0.675359	-0.600447
H462	H	0.191624	-0.724307	-0.653447
H463	H	0.218111	-0.690101	-0.653208
O464	O	0.224474	-0.736017	-0.479987
C465	C	0.243226	-0.714036	-0.468438
H466	H	0.251757	-0.693721	-0.492795
H467	H	0.281601	-0.741351	-0.472090
H468	H	0.211484	-0.689262	-0.431091
O469	O	0.139027	-0.643607	-0.437127
C470	C	0.143256	-0.605922	-0.437151
H471	H	0.176767	-0.612621	-0.473435
H472	H	0.152662	-0.601907	-0.411458
H473	H	0.103761	-0.572766	-0.426578
H474	H	-0.324821	-0.646755	0.023202
O475	O	-0.120900	-0.390562	-0.134522
C476	C	-0.068635	-0.402097	-0.156491
H477	H	-0.051645	-0.403238	-0.194069
H478	H	-0.042051	-0.437549	-0.155650
H479	H	-0.069948	-0.374834	-0.137517
O480	O	-0.456613	-0.095747	0.360871
C481	C	-0.502102	-0.050463	0.376253
H482	H	-0.498463	-0.039117	0.345034
H483	H	-0.504988	-0.025583	0.399851
H484	H	-0.539638	-0.050068	0.396313
