data_functionalizedCrystal
_audit_creation_method	'MofGen! by Chris Wilmer'
_symmetry_space_group_name_H-M	'P1'
_symmetry_Int_Tables_number	1
_symmetry_cell_setting	triclinic
loop_
_symmetry_equiv_pos_as_xyz
  x,y,z
_cell_length_a	12.645331
_cell_length_b	19.077114
_cell_length_c	19.077174
_cell_angle_alpha	85.340755
_cell_angle_beta	87.684354
_cell_angle_gamma	87.672623
loop_
_atom_site_label
_atom_site_type_symbol
_atom_site_fract_x
_atom_site_fract_y
_atom_site_fract_z
Zn1	Zn	1.627424	0.296698	-0.409870
Zn2	Zn	1.613598	0.409853	-0.296717
Zn3	Zn	1.443312	0.291981	-0.291998
Zn4	Zn	1.443238	0.414546	-0.414561
O5	O	1.531893	0.353269	-0.353286
O6	O	1.773937	0.311718	-0.394871
O7	O	1.585254	0.390279	-0.197443
O8	O	1.473553	0.193958	-0.303695
O9	O	1.763779	0.394852	-0.311739
O10	O	1.608819	0.197423	-0.390295
O11	O	1.460146	0.303679	-0.193975
O12	O	1.294955	0.308230	-0.308244
O13	O	1.473426	0.402851	-0.512587
O14	O	1.294900	0.398278	-0.398292
O15	O	1.608746	0.316269	-0.509140
O16	O	1.585181	0.509125	-0.316288
O17	O	1.460019	0.512573	-0.402868
C18	C	1.256463	0.353252	-0.353265
C19	C	1.138633	0.353262	-0.353274
C20	C	1.521121	0.536428	-0.360615
C21	C	1.516612	0.614785	-0.363773
C22	C	1.542620	0.360610	-0.537157
C23	C	1.547191	0.363738	-0.615512
C24	C	0.971100	0.296375	-0.296916
C25	C	1.093638	0.296507	-0.296683
C26	C	1.088602	0.426708	-0.335957
C27	C	0.965999	0.426395	-0.335575
C28	C	0.976907	0.337418	-0.427186
C29	C	1.099585	0.335743	-0.426705
C30	C	1.808398	0.353288	-0.353308
C31	C	1.926228	0.353295	-0.353317
C32	C	1.579713	0.649780	-0.320217
C33	C	1.575478	0.723405	-0.323192
C34	C	1.508135	0.762033	-0.369720
C35	C	1.445031	0.727033	-0.413281
C36	C	1.449272	0.653410	-0.410309
C37	C	1.488461	0.982419	-0.383441
C38	C	1.484222	1.056047	-0.386409
C39	C	1.614671	1.052414	-0.296320
C40	C	1.618902	0.978789	-0.293349
C41	C	1.555802	0.943795	-0.336913
N42	N	1.503802	0.837290	-0.372761
N43	N	1.560141	0.868540	-0.333876
C44	C	1.542728	1.169397	-0.345954
C45	C	1.547324	1.091042	-0.342852
C46	C	1.484205	0.320120	-0.650517
C47	C	1.488495	0.323065	-0.724140
C48	C	1.555779	0.369624	-0.762756
C49	C	1.618768	0.413246	-0.727746
C50	C	1.614471	0.410305	-0.654125
C51	C	1.575609	0.383261	-0.983135
C52	C	1.579904	0.386198	-1.056761
C53	C	1.449630	0.296017	-1.053150
C54	C	1.445343	0.293076	-0.979528
C55	C	1.508328	0.336701	-0.944524
N56	N	1.560169	0.372634	-0.838011
N57	N	1.503932	0.333694	-0.869271
C58	C	1.521272	0.345907	-0.170129
C59	C	1.516918	0.342580	-0.091767
H60	H	1.127690	0.241950	-0.307195
C61	C	1.371329	0.241866	-0.937052
H62	H	1.377798	0.246357	-0.888192
H63	H	1.300197	0.252659	-0.949523
H64	H	1.390348	0.194981	-0.947228
H65	H	1.437081	0.953933	-0.418911
C66	C	1.653914	0.437416	-1.099241
H67	H	1.647459	0.432912	-1.148100
H68	H	1.634900	0.484299	-1.089069
H69	H	1.725050	0.426621	-1.086768
C70	C	0.940815	0.266543	-0.449238
H71	H	0.894497	0.245970	-0.413595
H72	H	0.904797	0.274066	-0.492100
H73	H	1.000892	0.235859	-0.455605
C74	C	1.692786	0.464457	-0.770218
H75	H	1.729678	0.490016	-0.738824
H76	H	1.742241	0.438638	-0.797862
H77	H	1.652099	0.496322	-0.800163
H78	H	1.390204	0.758490	-0.451168
H79	H	1.665769	0.445817	-0.625624
C80	C	1.144409	0.262751	-0.444423
H81	H	1.186750	0.243031	-0.407232
H82	H	1.087665	0.232829	-0.450149
H83	H	1.186492	0.267366	-0.486818
C84	C	1.684082	1.090908	-0.248410
H85	H	1.671921	1.140288	-0.256846
H86	H	1.666560	1.076980	-0.200550
H87	H	1.756602	1.079213	-0.258290
H88	H	0.945589	0.241647	-0.307285
H89	H	1.626884	0.418791	-0.954644
C90	C	1.379863	0.614915	-0.458222
H91	H	1.339142	0.648464	-0.486355
H92	H	1.423832	0.587388	-0.487800
H93	H	1.333778	0.585152	-0.430068
H94	H	1.398350	0.260501	-1.081659
H95	H	1.626861	0.751894	-0.287723
C96	C	1.410183	0.268910	-0.608046
H97	H	1.373276	0.243362	-0.639442
H98	H	1.450859	0.237047	-0.578100
H99	H	1.360725	0.294737	-0.580404
H100	H	1.437201	0.287550	-0.752638
C101	C	0.924162	0.310054	-0.223315
H102	H	0.877341	0.350305	-0.226810
H103	H	0.886424	0.270321	-0.204510
H104	H	0.979775	0.317993	-0.193221
H105	H	0.933261	0.440210	-0.281662
C106	C	1.127889	0.310351	-0.222652
H107	H	1.066880	0.315924	-0.192605
H108	H	1.170830	0.271686	-0.204300
H109	H	1.167074	0.351993	-0.225375
H110	H	1.429397	1.087497	-0.424310
H111	H	0.936079	0.470080	-0.375026
H112	H	1.115182	0.440822	-0.282640
C113	C	1.127699	0.485361	-0.389879
H114	H	1.175000	0.465530	-0.423511
H115	H	1.068892	0.507800	-0.413096
H116	H	1.163350	0.518933	-0.366295
C117	C	1.141404	0.387984	-0.486191
H118	H	1.116600	0.376138	-0.529910
H119	H	1.116780	0.434337	-0.477654
H120	H	1.216641	0.385700	-0.487715
C121	C	0.937772	0.393469	-0.483909
H122	H	0.890777	0.426390	-0.462716
H123	H	0.996599	0.417233	-0.505615
H124	H	0.901769	0.371362	-0.518384
C125	C	1.653782	0.607292	-0.269032
H126	H	1.647264	0.558431	-0.273493
H127	H	1.724910	0.619727	-0.279873
H128	H	1.634851	0.617499	-0.222145
C129	C	1.692986	0.936303	-0.242173
H130	H	1.729969	0.967690	-0.216662
H131	H	1.652334	0.906389	-0.210275
H132	H	1.742377	0.908626	-0.268014
