data_functionalizedCrystal
_audit_creation_method	'MofGen! by Chris Wilmer'
_symmetry_space_group_name_H-M	'P1'
_symmetry_Int_Tables_number	1
_symmetry_cell_setting	triclinic
loop_
_symmetry_equiv_pos_as_xyz
  x,y,z
_cell_length_a	12.759400
_cell_length_b	10.685972
_cell_length_c	10.686551
_cell_angle_alpha	98.409768
_cell_angle_beta	85.594162
_cell_angle_gamma	85.620475
loop_
_atom_site_label
_atom_site_type_symbol
_atom_site_fract_x
_atom_site_fract_y
_atom_site_fract_z
Zn1	Zn	-0.235538	-1.995793	-0.866752
Zn2	Zn	-0.425867	-1.979371	-0.654488
Zn3	Zn	-0.264773	-1.767220	-0.638211
Zn4	Zn	-0.425760	-1.783495	-0.850394
O5	O	-0.337984	-1.881470	-0.752461
O6	O	-0.248595	-2.171248	-0.852252
O7	O	-0.416778	-1.937545	-0.474697
O8	O	-0.113868	-1.797602	-0.668561
O9	O	-0.388429	-2.159184	-0.696303
O10	O	-0.092389	-1.965534	-0.836469
O11	O	-0.298422	-1.781679	-0.462738
O12	O	-0.298318	-1.591745	-0.652699
O13	O	-0.388247	-1.825340	-1.030196
O14	O	-0.416595	-1.603702	-0.808589
O15	O	-0.248491	-1.981315	-1.042214
O16	O	-0.572880	-1.953327	-0.680442
O17	O	-0.572801	-1.809417	-0.824373
C18	C	-0.360618	-1.551665	-0.727104
C19	C	-0.370324	-1.410576	-0.716286
C20	C	-0.610959	-1.881392	-0.752429
C21	C	-0.727727	-1.881479	-0.752466
C22	C	-0.782583	-1.956509	-0.677618
C23	C	-0.892299	-1.956590	-0.677663
C24	C	-0.892294	-1.806599	-0.827408
C25	C	-0.782580	-1.806526	-0.827368
C26	C	-0.727731	-2.031462	-0.602716
C27	C	-0.782587	-2.106498	-0.527861
C28	C	-0.892303	-2.106579	-0.527906
C29	C	-0.947163	-2.031624	-0.602806
C30	C	-0.063940	-1.881584	-0.752524
C31	C	0.052842	-1.881633	-0.752551
C32	C	-0.315096	-1.906975	-1.083551
C33	C	-0.305342	-1.917843	-1.224642
C34	C	-0.315256	-1.212562	-0.777912
C35	C	-0.305554	-1.353652	-0.788743
C36	C	-0.360703	-1.856137	-0.422665
C37	C	-0.370144	-1.845514	-0.281594
H38	H	-0.242671	-1.412856	-0.859050
H39	H	-0.433206	-1.351365	-0.645965
N40	N	-0.609398	-2.031366	-0.602660
H41	H	-0.582971	-2.090230	-0.543853
H42	H	-0.575381	-2.061289	-0.691572
H43	H	-0.737915	-1.745430	-0.888318
N44	N	-0.723423	-2.187352	-0.447093
H45	H	-0.645595	-2.175918	-0.458419
H46	H	-0.750268	-2.160700	-0.354914
N47	N	-0.221951	-2.010878	-1.303029
H48	H	-0.180092	-2.057596	-1.244980
H49	H	-0.256920	-2.073799	-1.362545
H50	H	-0.936963	-2.167686	-0.466965
N51	N	-1.065498	-2.031722	-0.602871
H52	H	-1.091927	-2.090633	-0.544094
H53	H	-1.099512	-1.942839	-0.572822
H54	H	-0.936970	-1.745574	-0.888387
H55	H	-0.433089	-1.775279	-1.222414
