data_functionalizedCrystal
_audit_creation_method	'MofGen! by Chris Wilmer'
_symmetry_space_group_name_H-M	'P1'
_symmetry_Int_Tables_number	1
_symmetry_cell_setting	triclinic
loop_
_symmetry_equiv_pos_as_xyz
  x,y,z
_cell_length_a	16.625547
_cell_length_b	18.050590
_cell_length_c	16.625539
_cell_angle_alpha	90.028092
_cell_angle_beta	90.021309
_cell_angle_gamma	90.018489
loop_
_atom_site_label
_atom_site_type_symbol
_atom_site_fract_x
_atom_site_fract_y
_atom_site_fract_z
Zn1	Zn	1.232674	-0.295673	0.455992
Zn2	Zn	1.482674	-0.045673	0.705992
Zn3	Zn	1.732674	0.204327	0.955992
Zn4	Zn	1.982674	0.454327	1.205992
Zn5	Zn	1.232595	-0.419867	0.321155
Zn6	Zn	1.482595	-0.169867	0.571155
Zn7	Zn	1.732595	0.080133	0.821155
Zn8	Zn	1.982595	0.330133	1.071155
Zn9	Zn	1.097845	-0.295695	0.321162
Zn10	Zn	1.347845	-0.045695	0.571162
Zn11	Zn	1.597845	0.204305	0.821162
Zn12	Zn	1.847845	0.454305	1.071162
Zn13	Zn	1.097816	-0.419826	0.455935
Zn14	Zn	1.347816	-0.169826	0.705935
Zn15	Zn	1.597816	0.080174	0.955935
Zn16	Zn	1.847816	0.330174	1.205935
O17	O	1.165233	-0.357765	0.388561
O18	O	1.415233	-0.107765	0.638561
O19	O	1.665233	0.142235	0.888561
O20	O	1.915233	0.392235	1.138561
O21	O	1.345496	-0.312156	0.438126
O22	O	1.595496	-0.062156	0.688126
O23	O	1.845496	0.187844	0.938126
O24	O	2.095496	0.437844	1.188126
O25	O	1.214699	-0.403421	0.208323
O26	O	1.464699	-0.153421	0.458323
O27	O	1.714699	0.096579	0.708323
O28	O	1.964699	0.346579	0.958323
O29	O	1.115775	-0.191767	0.339074
O30	O	1.365775	0.058233	0.589074
O31	O	1.615775	0.308233	0.839074
O32	O	1.865775	0.558233	1.089074
O33	O	1.345438	-0.403400	0.339062
O34	O	1.595438	-0.153400	0.589062
O35	O	1.845438	0.096600	0.839062
O36	O	2.095438	0.346600	1.089062
O37	O	1.214834	-0.191751	0.438133
O38	O	1.464834	0.058249	0.688133
O39	O	1.714834	0.308249	0.938133
O40	O	1.964834	0.558249	1.188133
O41	O	1.115698	-0.312193	0.208329
O42	O	1.365698	-0.062193	0.458329
O43	O	1.615698	0.187807	0.708329
O44	O	1.865698	0.437807	0.958329
O45	O	0.985008	-0.312153	0.339019
O46	O	1.235008	-0.062153	0.589019
O47	O	1.485008	0.187847	0.839019
O48	O	1.735008	0.437847	1.089019
O49	O	1.115726	-0.403330	0.568775
O50	O	1.365726	-0.153330	0.818775
O51	O	1.615726	0.096670	1.068775
O52	O	1.865726	0.346670	1.318775
O53	O	0.984987	-0.403351	0.438036
O54	O	1.234987	-0.153351	0.688036
O55	O	1.484987	0.096649	0.938036
O56	O	1.734987	0.346649	1.188036
O57	O	1.214806	-0.312116	0.568817
O58	O	1.464806	-0.062116	0.818817
O59	O	1.714806	0.187884	1.068817
O60	O	1.964806	0.437884	1.318817
O61	O	1.214671	-0.523786	0.339007
O62	O	1.464671	-0.273786	0.589007
O63	O	1.714671	-0.023786	0.839007
O64	O	1.964671	0.226214	1.089007
O65	O	1.115650	-0.523756	0.438029
O66	O	1.365650	-0.273756	0.688029
O67	O	1.615650	-0.023756	0.938029
O68	O	1.865650	0.226244	1.188029
C69	C	0.955742	-0.357751	0.388523
C70	C	1.205742	-0.107751	0.638523
C71	C	1.455742	0.142249	0.888523
C72	C	1.705742	0.392249	1.138523
C73	C	0.866121	-0.357762	0.388526
C74	C	1.116121	-0.107762	0.638526
C75	C	1.366121	0.142238	0.888526
C76	C	1.616121	0.392238	1.138526
C77	C	0.793338	-0.357764	0.388536
C78	C	1.043338	-0.107764	0.638536
C79	C	1.293338	0.142236	0.888536
C80	C	1.543338	0.392236	1.138536
C81	C	0.702030	-0.357768	0.388556
C82	C	0.952030	-0.107768	0.638556
C83	C	1.202030	0.142232	0.888556
C84	C	1.452030	0.392232	1.138556
C85	C	0.629253	-0.357774	0.388576
C86	C	0.879253	-0.107774	0.638576
C87	C	1.129253	0.142226	0.888576
C88	C	1.379253	0.392226	1.138576
C89	C	0.537939	-0.357780	0.388596
C90	C	0.787939	-0.107780	0.638596
C91	C	1.037939	0.142220	0.888596
C92	C	1.287939	0.392220	1.138596
C93	C	1.165171	-0.550717	0.388529
C94	C	1.415171	-0.300717	0.638529
C95	C	1.665171	-0.050717	0.888529
C96	C	1.915171	0.199283	1.138529
C97	C	1.165218	-0.633263	0.388542
C98	C	1.415218	-0.383263	0.638542
C99	C	1.665218	-0.133263	0.888542
C100	C	1.915218	0.116737	1.138542
C101	C	1.219178	-0.832703	0.334769
C102	C	1.469178	-0.582703	0.584769
C103	C	1.719178	-0.332703	0.834769
C104	C	1.969178	-0.082703	1.084769
C105	C	1.238871	-0.882036	0.408360
C106	C	1.488871	-0.632036	0.658360
C107	C	1.738871	-0.382036	0.908360
C108	C	1.988871	-0.132036	1.158360
C109	C	1.165264	-0.784393	0.388574
C110	C	1.415264	-0.534393	0.638574
C111	C	1.665264	-0.284393	0.888574
C112	C	1.915264	-0.034393	1.138574
C113	C	1.145653	-0.882142	0.315016
C114	C	1.395653	-0.632142	0.565016
C115	C	1.645653	-0.382142	0.815016
C116	C	1.895653	-0.132142	1.065016
C117	C	1.165309	-0.930378	0.388599
C118	C	1.415309	-0.680378	0.638599
C119	C	1.665309	-0.430378	0.888599
C120	C	1.915309	-0.180378	1.138599
C121	C	1.184994	-0.832639	0.462204
C122	C	1.434994	-0.582639	0.712204
C123	C	1.684994	-0.332639	0.962204
C124	C	1.934994	-0.082639	1.212204
C125	C	1.091742	-0.832741	0.368810
C126	C	1.341742	-0.582741	0.618810
C127	C	1.591742	-0.332741	0.868810
C128	C	1.841742	-0.082741	1.118810
C129	C	1.111407	-0.882051	0.442452
C130	C	1.361407	-0.632051	0.692452
C131	C	1.611407	-0.382051	0.942452
C132	C	1.861407	-0.132051	1.192452
C133	C	1.165239	-0.700295	0.388559
C134	C	1.415239	-0.450295	0.638559
C135	C	1.665239	-0.200295	0.888559
C136	C	1.915239	0.049705	1.138559
C137	C	1.165333	-1.014475	0.388622
C138	C	1.415333	-0.764475	0.638622
C139	C	1.665333	-0.514475	0.888622
C140	C	1.915333	-0.264475	1.138622
C141	C	1.375541	-0.357780	0.388600
C142	C	1.625541	-0.107780	0.638600
C143	C	1.875541	0.142220	0.888600
C144	C	2.125541	0.392220	1.138600
C145	C	1.465163	-0.357786	0.388616
C146	C	1.715163	-0.107786	0.638616
C147	C	1.965163	0.142214	0.888616
C148	C	2.215163	0.392214	1.138616
C149	C	1.165272	-0.357716	0.598870
C150	C	1.415272	-0.107716	0.848870
C151	C	1.665272	0.142284	1.098870
C152	C	1.915272	0.392284	1.348870
C153	C	1.165289	-0.357695	0.688491
C154	C	1.415289	-0.107695	0.938491
C155	C	1.665289	0.142305	1.188491
C156	C	1.915289	0.392305	1.438491
C157	C	1.165317	-0.164059	0.388611
C158	C	1.415317	0.085941	0.638611
C159	C	1.665317	0.335941	0.888611
C160	C	1.915317	0.585941	1.138611
C161	C	1.165353	-0.081514	0.388632
C162	C	1.415353	0.168486	0.638632
C163	C	1.665353	0.418486	0.888632
C164	C	1.915353	0.668486	1.138632
C165	C	1.165240	-0.357760	0.179070
C166	C	1.415240	-0.107760	0.429070
C167	C	1.665240	0.142240	0.679070
C168	C	1.915240	0.392240	0.929070
C169	C	1.165379	-0.357572	0.089449
C170	C	1.415379	-0.107572	0.339449
C171	C	1.665379	0.142428	0.589449
C172	C	1.915379	0.392428	0.839449
C173	C	1.165302	-0.357679	0.761274
C174	C	1.415302	-0.107679	1.011274
C175	C	1.665302	0.142321	1.261274
C176	C	1.915302	0.392321	1.511274
C177	C	1.165321	-0.357651	0.852582
C178	C	1.415321	-0.107651	1.102582
C179	C	1.665321	0.142349	1.352582
C180	C	1.915321	0.392349	1.602582
C181	C	1.165340	-0.357625	0.925359
C182	C	1.415340	-0.107625	1.175359
C183	C	1.665340	0.142375	1.425359
C184	C	1.915340	0.392375	1.675359
C185	C	1.165360	-0.357598	1.016673
C186	C	1.415360	-0.107598	1.266673
C187	C	1.665360	0.142402	1.516673
C188	C	1.915360	0.392402	1.766673
H189	H	1.264787	-0.811034	0.289314
H190	H	1.514787	-0.561034	0.539314
H191	H	1.764787	-0.311034	0.789314
H192	H	2.014787	-0.061034	1.039314
N193	N	1.316888	-0.909236	0.429317
N194	N	1.566888	-0.659236	0.679317
N195	N	1.816888	-0.409236	0.929317
N196	N	2.066888	-0.159236	1.179317
N197	N	1.376301	-0.893439	0.386579
N198	N	1.626301	-0.643439	0.636579
N199	N	1.876301	-0.393439	0.886579
N200	N	2.126301	-0.143439	1.136579
H201	H	1.431400	-0.912661	0.401364
H202	H	1.681400	-0.662661	0.651364
H203	H	1.931400	-0.412661	0.901364
H204	H	2.181400	-0.162661	1.151364
N205	N	1.124803	-0.909404	0.236965
N206	N	1.374803	-0.659404	0.486965
N207	N	1.624803	-0.409404	0.736965
N208	N	1.874803	-0.159404	0.986965
N209	N	1.058570	-0.892737	0.206329
N210	N	1.308570	-0.642737	0.456329
N211	N	1.558570	-0.392737	0.706329
N212	N	1.808570	-0.142737	0.956329
H213	H	1.043849	-0.911988	0.151204
H214	H	1.293849	-0.661988	0.401204
H215	H	1.543849	-0.411988	0.651204
H216	H	1.793849	-0.161988	0.901204
H217	H	1.065833	-0.903583	0.488017
H218	H	1.315833	-0.653583	0.738017
H219	H	1.565833	-0.403583	0.988017
H220	H	1.815833	-0.153583	1.238017
H221	H	1.201538	-0.810987	0.524475
H222	H	1.451538	-0.560987	0.774475
H223	H	1.701538	-0.310987	1.024475
H224	H	1.951538	-0.060987	1.274475
H225	H	1.029565	-0.811069	0.352056
H226	H	1.279565	-0.561069	0.602056
H227	H	1.529565	-0.311069	0.852056
H228	H	1.779565	-0.061069	1.102056
