data_functionalizedCrystal
_audit_creation_method	'MofGen! by Chris Wilmer'
_symmetry_space_group_name_H-M	'P1'
_symmetry_Int_Tables_number	1
_symmetry_cell_setting	triclinic
loop_
_symmetry_equiv_pos_as_xyz
  x,y,z
_cell_length_a	12.759401
_cell_length_b	15.297327
_cell_length_c	12.759393
_cell_angle_alpha	99.642973
_cell_angle_beta	89.979062
_cell_angle_gamma	99.708126
loop_
_atom_site_label
_atom_site_type_symbol
_atom_site_fract_x
_atom_site_fract_y
_atom_site_fract_z
Zn1	Zn	1.533815	-0.359082	-0.666329
Zn2	Zn	1.503263	-0.509967	-0.521034
Zn3	Zn	1.358104	-0.359130	-0.490674
Zn4	Zn	1.327675	-0.509904	-0.696658
O5	O	1.430714	-0.434521	-0.593674
O6	O	1.676782	-0.379103	-0.647069
O7	O	1.483956	-0.490005	-0.369995
O8	O	1.406934	-0.232878	-0.488577
O9	O	1.654335	-0.489958	-0.540320
O10	O	1.536028	-0.232842	-0.617630
O11	O	1.377308	-0.379185	-0.347690
O12	O	1.207048	-0.379124	-0.517986
O13	O	1.355072	-0.489851	-0.839647
O14	O	1.184692	-0.489898	-0.669321
O15	O	1.506522	-0.379042	-0.817364
O16	O	1.454449	-0.636205	-0.569729
O17	O	1.325446	-0.636159	-0.698760
C18	C	1.157749	-0.434510	-0.593651
C19	C	1.040969	-0.434527	-0.593670
C20	C	0.974476	-0.492294	-0.672383
C21	C	0.864751	-0.492298	-0.672404
C22	C	0.888023	-0.376764	-0.514991
C23	C	0.997747	-0.376756	-0.514975
C24	C	1.383359	-0.668916	-0.640853
C25	C	1.363196	-0.769191	-0.661071
C26	C	1.575254	-1.051821	-0.449528
C27	C	1.594198	-0.957608	-0.430526
C28	C	1.536449	-0.910499	-0.488161
C29	C	1.459753	-0.957613	-0.564800
C30	C	1.440802	-1.051836	-0.583798
C31	C	1.401997	-0.910513	-0.622431
C32	C	1.325301	-0.957627	-0.699071
C33	C	1.306354	-1.051841	-0.718065
C34	C	1.364103	-1.098950	-0.660430
C35	C	1.420948	-0.816291	-0.603434
C36	C	1.286496	-0.816305	-0.737704
C37	C	1.267553	-0.910519	-0.756705
C38	C	1.704745	-0.434533	-0.593698
C39	C	1.821521	-0.434538	-0.593708
C40	C	1.430810	-0.434434	-0.867690
C41	C	1.430851	-0.434397	-0.984459
C42	C	1.478284	-0.199211	-0.546334
C43	C	1.498555	-0.098935	-0.526160
C44	C	1.509719	-0.376690	-1.027719
C45	C	1.509744	-0.376651	-1.137435
C46	C	1.352031	-0.492035	-1.160625
C47	C	1.352002	-0.492068	-1.050909
C48	C	1.430692	-0.434542	-0.320711
C49	C	1.430906	-0.434325	-0.203891
H50	H	1.051889	-0.329710	-0.450877
H51	H	0.852817	-0.329730	-0.450919
H52	H	1.573964	-0.329659	-1.172650
H53	H	0.810617	-0.539337	-0.736501
H54	H	1.348686	-1.175666	-0.675900
H55	H	1.551877	-0.833786	-0.472684
H56	H	1.009664	-0.539333	-0.736464
O57	O	1.586218	-0.320534	-0.963190
C58	C	1.668268	-0.167087	-0.898817
C59	C	1.581572	-0.230585	-0.971916
H60	H	1.664556	-0.094351	-0.905863
H61	H	1.654718	-0.176942	-0.812939
H62	H	1.749770	-0.182972	-0.923590
H63	H	1.500034	-0.214740	-0.947239
H64	H	1.595215	-0.220719	-1.057777
H65	H	1.287837	-0.538990	-1.214741
O66	O	1.495377	-0.770629	-0.528869
C67	C	1.552211	-0.741845	-0.344392
C68	C	1.467851	-0.793627	-0.428737
H69	H	1.529975	-0.760405	-0.263412
H70	H	1.633220	-0.760317	-0.366553
H71	H	1.555856	-0.666418	-0.340765
H72	H	1.464110	-0.869066	-0.432407
H73	H	1.386885	-0.775081	-0.406543
O74	O	1.668771	-0.911984	-0.356087
C75	C	1.800091	-0.921918	-0.224878
C76	C	1.715677	-0.973700	-0.309169
H77	H	1.838023	-0.971793	-0.186905
H78	H	1.863952	-0.877763	-0.264211
H79	H	1.760732	-0.877852	-0.161059
H80	H	1.754942	-1.017815	-0.373012
H81	H	1.651825	-1.017798	-0.269759
O82	O	1.193044	-0.956150	-0.831217
C83	C	1.061640	-0.946229	-0.962349
C84	C	1.146006	-0.894440	-0.878014
H85	H	1.023570	-0.896359	-1.000192
H86	H	1.100951	-0.990243	-1.026269
H87	H	0.997886	-0.990437	-0.922962
H88	H	1.209784	-0.850183	-0.917307
H89	H	1.106618	-0.850483	-0.814103
O90	O	1.631249	-1.097721	-0.393643
C91	C	1.661509	-1.242869	-0.363287
C92	C	1.598053	-1.191000	-0.426697
H93	H	1.634678	-1.318294	-0.389971
H94	H	1.749978	-1.224366	-0.378035
H95	H	1.646796	-1.224338	-0.274846
H96	H	1.612676	-1.209504	-0.515158
H97	H	1.509604	-1.209508	-0.411860
O98	O	1.275337	-0.548216	-1.009061
C99	C	1.118874	-0.662620	-1.043623
C100	C	1.205645	-0.599102	-1.091160
H101	H	1.062492	-0.703764	-1.109975
H102	H	1.157497	-0.709870	-1.001795
H103	H	1.072350	-0.621196	-0.983884
H104	H	1.252198	-0.640453	-1.150942
H105	H	1.166957	-0.551849	-1.132922
H106	H	1.243891	-1.090199	-0.780458
O107	O	1.230523	-0.770415	-0.793637
C108	C	1.200089	-0.625270	-0.823831
C109	C	1.263568	-0.677135	-0.760439
H110	H	1.226766	-0.549844	-0.796999
H111	H	1.214797	-0.643660	-0.912295
H112	H	1.111642	-0.643919	-0.809079
H113	H	1.352034	-0.658514	-0.775101
H114	H	1.248770	-0.658741	-0.671996
