data_functionalizedCrystal
_audit_creation_method	'MofGen! by Chris Wilmer'
_symmetry_space_group_name_H-M	'P1'
_symmetry_Int_Tables_number	1
_symmetry_cell_setting	triclinic
loop_
_symmetry_equiv_pos_as_xyz
  x,y,z
_cell_length_a	14.853567
_cell_length_b	17.019294
_cell_length_c	13.330367
_cell_angle_alpha	86.116384
_cell_angle_beta	89.995418
_cell_angle_gamma	83.514509
loop_
_atom_site_label
_atom_site_type_symbol
_atom_site_fract_x
_atom_site_fract_y
_atom_site_fract_z
O1	O	1.196089	0.102989	-0.092250
O2	O	0.933597	0.115258	-0.093326
O3	O	1.072165	-0.005701	-0.082863
O4	O	1.057521	0.223948	-0.102712
O5	O	1.072145	-0.005704	0.083984
O6	O	0.933577	0.115255	0.073521
O7	O	1.196069	0.102987	0.074598
Cu8	Cu	1.064821	0.109121	0.089294
Cu9	Cu	1.064845	0.109124	-0.108022
O10	O	1.057501	0.223946	0.064135
C11	C	0.899999	0.114701	-0.009857
C12	C	0.799920	0.113035	-0.009719
C13	C	0.387600	0.034141	-0.002878
C14	C	0.365930	0.177843	-0.015299
C15	C	0.459959	0.179409	-0.015438
C16	C	0.517814	0.108340	-0.009298
C17	C	0.481639	0.035705	-0.003019
C18	C	0.496141	0.252043	-0.021727
C19	C	0.590176	0.253613	-0.021866
C20	C	0.648033	0.182543	-0.015719
C21	C	0.611852	0.109904	-0.009439
C22	C	0.669707	0.038836	-0.003299
C23	C	0.633529	-0.033804	0.002988
C24	C	0.539495	-0.035365	0.003128
C25	C	0.742066	0.184104	-0.015859
C26	C	0.763745	0.040400	-0.003441
C27	C	1.071600	-0.035092	0.003098
C28	C	1.069933	-0.122664	0.010660
C29	C	1.069163	-0.163800	-0.076735
C30	C	1.067592	-0.246083	-0.069626
C31	C	1.066797	-0.287229	0.024878
C32	C	1.067564	-0.246087	0.112280
C33	C	1.069129	-0.163805	0.105170
C34	C	1.062065	-0.535667	0.050895
C35	C	1.060503	-0.617955	0.057998
C36	C	1.060529	-0.617945	-0.123910
C37	C	1.062099	-0.535662	-0.131011
C38	C	1.062862	-0.494527	-0.043609
C39	C	1.065193	-0.371336	0.032147
C40	C	1.064459	-0.410421	-0.050879
C41	C	1.229667	0.103544	-0.008874
C42	C	1.329746	0.105210	-0.009018
C43	C	1.058067	0.253337	-0.021829
C44	C	1.059733	0.340909	-0.029398
N45	N	1.064811	0.109118	0.228076
N46	N	1.064862	0.109121	-0.246804
C47	C	1.003484	0.162664	0.696067
C48	C	1.126230	0.055578	0.705298
C49	C	1.126220	0.055576	0.600280
C50	C	1.064842	0.109119	0.543150
C51	C	1.003474	0.162664	0.591039
C52	C	1.187593	0.002037	0.552383
C53	C	1.187586	0.002033	0.447358
C54	C	1.126202	0.055573	0.390227
C55	C	1.064831	0.109120	0.438122
C56	C	1.003453	0.162663	0.380992
C57	C	0.942077	0.216207	0.428886
C58	C	0.942091	0.216204	0.533908
C59	C	1.126189	0.055575	0.285205
C60	C	1.003443	0.162664	0.275964
H61	H	0.619624	0.312759	-0.026986
C62	C	1.069978	-0.118557	0.201312
N63	N	1.070616	-0.084476	0.273730
H64	H	1.237560	-0.041566	0.408370
C65	C	1.059625	-0.663214	0.161965
N66	N	1.058965	-0.697303	0.240268
H67	H	1.176165	0.011984	0.246215
C68	C	0.499691	-0.115261	0.010035
N69	N	0.469707	-0.175438	0.015234
C70	C	0.935944	0.221587	0.213128
N71	N	0.885112	0.265976	0.165800
H72	H	0.358140	-0.025000	0.002245
C73	C	1.070038	-0.118547	-0.180698
N74	N	1.070693	-0.084464	-0.259007
C75	C	0.874579	0.275093	0.586599
N76	N	0.823728	0.319447	0.626290
C77	C	0.781858	0.264002	-0.022776
N78	N	0.811828	0.324185	-0.027984
C79	C	1.193742	-0.003315	0.768143
N80	N	1.244593	-0.047679	0.815483
C81	C	1.066828	-0.291338	-0.165768
N82	N	1.066282	-0.325426	-0.238186
H83	H	1.065100	-0.376915	-0.127824
H84	H	1.062748	-0.502166	-0.207966
C85	C	0.935967	0.221554	0.748750
N86	N	0.885112	0.265909	0.788433
C87	C	1.059680	-0.663199	-0.220045
N88	N	1.059036	-0.697284	-0.292458
H89	H	1.237569	-0.041553	0.598900
C90	C	1.062908	-0.490430	0.147040
N91	N	1.063543	-0.456354	0.219462
H92	H	1.066911	-0.279595	0.189228
C93	C	0.302287	0.256014	-0.022053
N94	N	0.254347	0.314896	-0.027136
C95	C	0.874565	0.275103	0.366030
N96	N	0.823715	0.319462	0.318683
H97	H	0.810846	-0.017474	0.001563
H98	H	0.449030	0.309904	-0.026736
C99	C	0.697180	-0.111977	0.009744
N100	N	0.745126	-0.170855	0.014835
H101	H	1.064549	-0.404846	0.109093
