data_functionalizedCrystal
_audit_creation_method	'MofGen! by Chris Wilmer'
_symmetry_space_group_name_H-M	'P1'
_symmetry_Int_Tables_number	1
_symmetry_cell_setting	triclinic
loop_
_symmetry_equiv_pos_as_xyz
  x,y,z
_cell_length_a	10.686285
_cell_length_b	12.759401
_cell_length_c	12.759393
_cell_angle_alpha	90.020938
_cell_angle_beta	85.602987
_cell_angle_gamma	94.366763
loop_
_atom_site_label
_atom_site_type_symbol
_atom_site_fract_x
_atom_site_fract_y
_atom_site_fract_z
Zn1	Zn	-0.502237	-1.638400	-0.562006
Zn2	Zn	-0.713276	-1.651794	-0.372873
Zn3	Zn	-0.502304	-1.462703	-0.386337
Zn4	Zn	-0.713187	-1.476188	-0.548516
O5	O	-0.607751	-1.557272	-0.467433
O6	O	-0.530240	-1.787199	-0.536928
O7	O	-0.685355	-1.626673	-0.227634
O8	O	-0.325719	-1.474761	-0.420919
O9	O	-0.685290	-1.797039	-0.397973
O10	O	-0.325669	-1.603845	-0.549983
O11	O	-0.530355	-1.487749	-0.237525
O12	O	-0.530269	-1.317471	-0.407839
O13	O	-0.685139	-1.497744	-0.697331
O14	O	-0.685204	-1.327378	-0.526992
O15	O	-0.530155	-1.616921	-0.707241
O16	O	-0.889840	-1.639748	-0.384893
O17	O	-0.889775	-1.510731	-0.513937
C18	C	-0.607735	-1.284303	-0.467413
C19	C	-0.607759	-1.167528	-0.467427
C20	C	-0.935592	-1.578185	-0.446513
C21	C	-1.075844	-1.587228	-0.437599
C22	C	-0.607630	-1.557342	-0.741474
C23	C	-0.607578	-1.557373	-0.858254
C24	C	-0.278630	-1.536305	-0.488457
C25	C	-0.138378	-1.527370	-0.497417
C26	C	-0.607767	-1.831306	-0.467453
C27	C	-0.607774	-1.948083	-0.467462
C28	C	-0.688557	-1.117860	-0.529357
C29	C	-0.688562	-1.008136	-0.529377
C30	C	-0.526968	-0.997758	-0.405531
C31	C	-0.526957	-1.107479	-0.405516
C32	C	-0.526865	-1.619432	-0.918279
C33	C	-0.526810	-1.619446	-1.028007
C34	C	-0.688194	-1.495340	-1.017674
C35	C	-0.688241	-1.495320	-0.907949
C36	C	-0.607780	-1.557256	-0.194464
C37	C	-0.607477	-1.557406	-0.077707
H38	H	-1.084620	-1.469206	-0.555451
H39	H	-0.461184	-0.948853	-0.355123
H40	H	-1.129609	-1.645389	-0.379554
C41	C	-0.776927	-1.427095	-1.072336
H42	H	-0.824996	-1.390124	-1.020870
H43	H	-0.831891	-1.470794	-1.111633
H44	H	-0.728630	-1.378246	-1.118217
C45	C	-0.438077	-1.162118	-0.337389
H46	H	-0.389969	-1.110643	-0.300508
H47	H	-0.383155	-1.201437	-0.381155
H48	H	-0.486286	-1.207973	-0.288462
H49	H	-0.461180	-1.669956	-0.877821
H50	H	-0.461083	-1.669980	-1.076875
H51	H	-0.754353	-0.967702	-0.579808
C52	C	-0.777038	-1.427059	-0.841916
H53	H	-0.825085	-1.390119	-0.887225
H54	H	-0.728788	-1.378201	-0.802186
H55	H	-0.832040	-1.470756	-0.795610
H56	H	-0.754348	-1.166749	-0.579772
