data_functionalizedCrystal
_audit_creation_method	'MofGen! by Chris Wilmer'
_symmetry_space_group_name_H-M	'P1'
_symmetry_Int_Tables_number	1
_symmetry_cell_setting	triclinic
loop_
_symmetry_equiv_pos_as_xyz
  x,y,z
_cell_length_a	19.288867
_cell_length_b	10.723024
_cell_length_c	17.766277
_cell_angle_alpha	90.005773
_cell_angle_beta	89.992126
_cell_angle_gamma	96.197531
loop_
_atom_site_label
_atom_site_type_symbol
_atom_site_fract_x
_atom_site_fract_y
_atom_site_fract_z
O1	O	0.922365	-0.155671	-0.062567
O2	O	0.720241	-0.176666	-0.062574
O3	O	0.825965	0.015505	-0.062566
O4	O	0.816641	-0.347843	-0.062575
O5	O	0.825947	0.015515	0.062622
O6	O	0.720222	-0.176657	0.062614
O7	O	0.922346	-0.155661	0.062622
Cu8	Cu	0.821283	-0.166158	0.074049
Cu9	Cu	0.821305	-0.166169	-0.074001
O10	O	0.816622	-0.347833	0.062614
C11	C	0.694351	-0.175985	0.000019
C12	C	0.617234	-0.173956	0.000016
C13	C	0.825277	0.061996	0.000027
C14	C	0.823247	0.200507	0.000025
C15	C	0.061584	-0.159345	-0.068215
C16	C	0.134044	-0.161244	-0.068218
C17	C	0.170268	-0.162195	0.000022
C18	C	0.134029	-0.161213	0.068270
C19	C	0.061572	-0.159301	0.068271
C20	C	0.280083	-0.238301	0.052302
C21	C	0.352539	-0.240221	0.052298
C22	C	0.393752	-0.168085	0.000023
C23	C	0.362500	-0.094046	-0.052262
C24	C	0.290042	-0.092135	-0.052261
C25	C	0.248837	-0.164267	0.000029
C26	C	0.508553	-0.171117	-0.068224
C27	C	0.581015	-0.173008	-0.068224
C28	C	0.580998	-0.172990	0.068266
C29	C	0.508538	-0.171086	0.068264
C30	C	0.472320	-0.170155	0.000017
C31	C	0.948236	-0.156342	0.000027
C32	C	1.025353	-0.158371	0.000024
C33	C	0.882405	0.276732	0.000027
C34	C	0.880308	0.419891	0.000025
N35	N	0.821272	-0.166149	0.178179
C36	C	0.817310	0.605677	0.000020
C37	C	0.819340	0.467165	0.000022
N38	N	0.821321	-0.166168	-0.178132
C39	C	0.868102	-0.081097	0.217569
C40	C	0.868106	-0.081091	0.296371
C41	C	0.821287	-0.166159	0.335780
C42	C	0.774448	-0.251218	0.296380
C43	C	0.774440	-0.251213	0.217579
C44	C	0.812728	-0.279851	0.460615
C45	C	0.812740	-0.279858	0.539414
C46	C	0.821305	-0.166174	0.578826
C47	C	0.829873	-0.052479	0.539430
C48	C	0.829866	-0.052474	0.460629
C49	C	0.821289	-0.166173	0.421225
C50	C	0.868142	-0.081109	0.703662
C51	C	0.868142	-0.081101	0.782465
C52	C	0.774486	-0.251238	0.782472
C53	C	0.774484	-0.251235	0.703671
C54	C	0.821316	-0.166171	0.664270
H55	H	0.032100	-0.158583	-0.123787
H56	H	0.934604	0.236005	0.000033
H57	H	0.930951	0.485386	0.000030
F58	F	0.385793	-0.319028	0.107937
F59	F	0.917952	0.009438	0.338300
H60	H	0.610513	-0.173792	-0.123795
F61	F	0.917983	0.009434	0.824389
H62	H	0.768694	0.401677	0.000026
H63	H	0.479038	-0.170297	0.123831
F64	F	0.755016	0.253733	0.000016
F65	F	0.236228	-0.315071	0.107950
H66	H	0.163548	-0.162044	-0.123788
F67	F	0.838994	0.068521	0.581368
H68	H	0.906234	-0.011830	0.185492
H69	H	0.264600	-0.031848	-0.094831
F70	F	0.838979	0.068525	0.418704
F71	F	0.172583	-0.162220	0.140896
H72	H	0.906274	-0.011841	0.671581
F73	F	0.724653	-0.341766	0.824410
H74	H	0.396055	-0.035311	-0.094831
F75	F	0.619547	-0.173984	0.140893
H76	H	0.736353	-0.320497	0.671597
F77	F	0.803626	-0.400861	0.581335
H78	H	0.805741	-0.372432	0.428532
F79	F	0.724617	-0.341749	0.338321
F80	F	0.724595	-0.341741	0.175655
F81	F	0.470004	-0.170119	-0.140858
F82	F	0.023011	-0.158268	0.140904
