data_functionalizedCrystal
_audit_creation_method	'MofGen! by Chris Wilmer'
_symmetry_space_group_name_H-M	'P1'
_symmetry_Int_Tables_number	1
_symmetry_cell_setting	triclinic
loop_
_symmetry_equiv_pos_as_xyz
  x,y,z
_cell_length_a	16.992694
_cell_length_b	16.109301
_cell_length_c	15.186229
_cell_angle_alpha	89.999641
_cell_angle_beta	89.998303
_cell_angle_gamma	87.064851
loop_
_atom_site_label
_atom_site_type_symbol
_atom_site_fract_x
_atom_site_fract_y
_atom_site_fract_z
O1	O	1.040346	0.176289	0.073103
O2	O	1.290346	0.426289	0.323103
O3	O	1.540346	0.676289	0.573103
O4	O	1.790346	0.926289	0.823103
O5	O	0.812061	0.174355	0.073129
O6	O	1.062061	0.424355	0.323129
O7	O	1.312061	0.674355	0.573129
O8	O	1.562061	0.924355	0.823129
O9	O	0.932474	0.054709	0.073120
O10	O	1.182474	0.304709	0.323120
O11	O	1.432474	0.554709	0.573120
O12	O	1.682474	0.804709	0.823120
O13	O	0.919932	0.295934	0.073113
O14	O	1.169932	0.545934	0.323113
O15	O	1.419932	0.795934	0.573113
O16	O	1.669932	1.045934	0.823113
O17	O	0.932465	0.054706	-0.073337
O18	O	1.182465	0.304706	0.176663
O19	O	1.432465	0.554706	0.426663
O20	O	1.682465	0.804706	0.676663
O21	O	0.812052	0.174351	-0.073328
O22	O	1.062052	0.424351	0.176672
O23	O	1.312052	0.674351	0.426672
O24	O	1.562052	0.924351	0.676672
O25	O	1.040336	0.176285	-0.073354
O26	O	1.290336	0.426285	0.176646
O27	O	1.540336	0.676285	0.426646
O28	O	1.790336	0.926285	0.676646
Zn29	Zn	0.926193	0.175317	-0.096594
Zn30	Zn	1.176193	0.425317	0.153406
Zn31	Zn	1.426193	0.675317	0.403406
Zn32	Zn	1.676193	0.925317	0.653406
Zn33	Zn	0.926205	0.175322	0.096370
Zn34	Zn	1.176205	0.425322	0.346370
Zn35	Zn	1.426205	0.675322	0.596370
Zn36	Zn	1.676205	0.925322	0.846370
O37	O	0.919923	0.295931	-0.073345
O38	O	1.169923	0.545931	0.176655
O39	O	1.419923	0.795931	0.426655
O40	O	1.669923	1.045931	0.676655
C41	C	0.782844	0.171865	-0.000096
C42	C	1.032844	0.421865	0.249904
C43	C	1.282844	0.671865	0.499904
C44	C	1.532844	0.921865	0.749904
C45	C	0.695802	0.164441	-0.000085
C46	C	0.945802	0.414441	0.249915
C47	C	1.195802	0.664441	0.499915
C48	C	1.445802	0.914441	0.749915
C49	C	0.645543	0.236067	-0.000088
C50	C	0.895543	0.486067	0.249912
C51	C	1.145543	0.736067	0.499912
C52	C	1.395543	0.986067	0.749912
C53	C	0.563758	0.229087	-0.000100
C54	C	0.813758	0.479087	0.249900
C55	C	1.063758	0.729087	0.499900
C56	C	1.313758	0.979087	0.749900
C57	C	0.532234	0.150481	-0.000103
C58	C	0.782234	0.400481	0.249897
C59	C	1.032234	0.650481	0.499897
C60	C	1.282234	0.900481	0.749897
C61	C	0.582499	0.078849	-0.000103
C62	C	0.832499	0.328849	0.249897
C63	C	1.082499	0.578849	0.499897
C64	C	1.332499	0.828849	0.749897
C65	C	0.664282	0.085830	-0.000097
C66	C	0.914282	0.335830	0.249903
C67	C	1.164282	0.585830	0.499903
C68	C	1.414282	0.835830	0.749903
C69	C	0.288644	0.121548	-0.000125
C70	C	0.538644	0.371548	0.249875
C71	C	0.788644	0.621548	0.499875
C72	C	1.038644	0.871548	0.749875
C73	C	0.206854	0.114572	-0.000128
C74	C	0.456854	0.364572	0.249872
C75	C	0.706854	0.614572	0.499872
C76	C	0.956854	0.864572	0.749872
C77	C	0.188119	0.264811	-0.000128
C78	C	0.438119	0.514811	0.249872
C79	C	0.688119	0.764811	0.499872
C80	C	0.938119	1.014811	0.749872
C81	C	0.269904	0.271785	-0.000117
C82	C	0.519904	0.521785	0.249883
C83	C	0.769904	0.771785	0.499883
C84	C	1.019904	1.021785	0.749883
C85	C	0.320163	0.200154	-0.000121
C86	C	0.570163	0.450154	0.249879
C87	C	0.820163	0.700154	0.499879
C88	C	1.070163	0.950154	0.749879
N89	N	0.448637	0.143344	-0.000112
N90	N	0.698637	0.393344	0.249888
N91	N	0.948637	0.643344	0.499888
N92	N	1.198637	0.893344	0.749888
N93	N	0.403758	0.207291	-0.000118
N94	N	0.653758	0.457291	0.249882
N95	N	0.903758	0.707291	0.499882
N96	N	1.153758	0.957291	0.749882
C97	C	0.931962	0.023699	-0.000105
C98	C	1.181962	0.273699	0.249895
C99	C	1.431962	0.523699	0.499895
C100	C	1.681962	0.773699	0.749895
C101	C	0.930439	-0.068698	-0.000096
C102	C	1.180439	0.181302	0.249904
C103	C	1.430439	0.431302	0.499904
C104	C	1.680439	0.681302	0.749904
C105	C	1.069553	0.178775	-0.000127
C106	C	1.319553	0.428775	0.249873
C107	C	1.569553	0.678775	0.499873
C108	C	1.819553	0.928775	0.749873
C109	C	1.156595	0.186198	-0.000131
C110	C	1.406595	0.436198	0.249869
C111	C	1.656595	0.686198	0.499869
C112	C	1.906595	0.936198	0.749869
N113	N	0.926190	0.175314	-0.228287
N114	N	1.176190	0.425314	0.021713
N115	N	1.426190	0.675314	0.271713
N116	N	1.676190	0.925314	0.521713
C117	C	0.920435	0.326941	-0.000117
C118	C	1.170435	0.576941	0.249883
C119	C	1.420435	0.826941	0.499883
C120	C	1.670435	1.076941	0.749883
C121	C	0.921959	0.419338	-0.000121
C122	C	1.171959	0.669338	0.249879
C123	C	1.421959	0.919338	0.499879
C124	C	1.671959	1.169338	0.749879
C125	C	0.854049	0.637079	-0.000100
C126	C	1.104049	0.887079	0.249900
C127	C	1.354049	1.137079	0.499900
C128	C	1.604049	1.387079	0.749900
C129	C	0.855487	0.723895	-0.000094
C130	C	1.105487	0.973895	0.249906
C131	C	1.355487	1.223895	0.499906
C132	C	1.605487	1.473895	0.749906
C133	C	0.998353	0.713554	-0.000114
C134	C	1.248353	0.963554	0.249886
C135	C	1.498353	1.213554	0.499886
C136	C	1.748353	1.463554	0.749886
C137	C	0.996915	0.626740	-0.000114
C138	C	1.246915	0.876740	0.249886
C139	C	1.496915	1.126740	0.499886
C140	C	1.746915	1.376740	0.749886
C141	C	0.924761	0.588504	-0.000112
C142	C	1.174761	0.838504	0.249888
C143	C	1.424761	1.088504	0.499888
C144	C	1.674761	1.338504	0.749888
C145	C	0.927636	0.762135	-0.000105
C146	C	1.177636	1.012135	0.249895
C147	C	1.427636	1.262135	0.499895
C148	C	1.677636	1.512135	0.749895
C149	C	0.929195	0.856265	-0.000098
C150	C	1.179195	1.106265	0.249902
C151	C	1.429195	1.356265	0.499902
C152	C	1.679195	1.606265	0.749902
C153	C	0.923202	0.494368	-0.000117
C154	C	1.173202	0.744368	0.249883
C155	C	1.423202	0.994368	0.499883
C156	C	1.673202	1.244368	0.749883
C157	C	0.979531	0.122355	-0.546209
C158	C	1.229531	0.372355	-0.296209
C159	C	1.479531	0.622355	-0.046209
C160	C	1.729531	0.872355	0.203791
C161	C	0.979528	0.122356	-0.454020
C162	C	1.229528	0.372356	-0.204020
C163	C	1.479528	0.622356	0.045980
C164	C	1.729528	0.872356	0.295980
C165	C	0.872870	0.228284	-0.454022
C166	C	1.122870	0.478284	-0.204022
C167	C	1.372870	0.728284	0.045978
C168	C	1.622870	0.978284	0.295978
C169	C	0.872877	0.228287	-0.546210
C170	C	1.122877	0.478287	-0.296210
C171	C	1.372877	0.728287	-0.046210
C172	C	1.622877	0.978287	0.203790
C173	C	0.926206	0.175318	-0.592301
C174	C	1.176206	0.425318	-0.342301
C175	C	1.426206	0.675318	-0.092301
C176	C	1.676206	0.925318	0.157699
C177	C	0.926197	0.175315	-0.407923
C178	C	1.176197	0.425315	-0.157923
C179	C	1.426197	0.675315	0.092077
C180	C	1.676197	0.925315	0.342077
C181	C	0.926195	0.175316	-0.307967
C182	C	1.176195	0.425316	-0.057967
C183	C	1.426195	0.675316	0.192033
C184	C	1.676195	0.925316	0.442033
C185	C	0.926210	0.175319	-0.692264
C186	C	1.176210	0.425319	-0.442264
C187	C	1.426210	0.675319	-0.192264
C188	C	1.676210	0.925319	0.057736
N189	N	0.926214	0.175319	0.228062
N190	N	1.176214	0.425319	0.478062
N191	N	1.426214	0.675319	0.728062
N192	N	1.676214	0.925319	0.978062
H193	H	0.147190	0.323129	-0.000126
H194	H	0.397190	0.573129	0.249874
H195	H	0.647190	0.823129	0.499874
H196	H	0.897190	1.073129	0.749874
Br197	Br	0.759517	0.789815	-0.000070
Br198	Br	1.009517	1.039815	0.249930
Br199	Br	1.259517	1.289815	0.499930
Br200	Br	1.509517	1.539815	0.749930
H201	H	1.022956	0.079226	-0.583735
H202	H	1.272956	0.329226	-0.333735
H203	H	1.522956	0.579226	-0.083735
H204	H	1.772956	0.829226	0.166265
Br205	Br	1.051904	0.050479	-0.391468
Br206	Br	1.301904	0.300479	-0.141468
Br207	Br	1.551904	0.550479	0.108532
Br208	Br	1.801904	0.800479	0.358532
H209	H	0.556826	0.014846	-0.000117
H210	H	0.806826	0.264846	0.249883
H211	H	1.056826	0.514846	0.499883
H212	H	1.306826	0.764846	0.749883
Br213	Br	1.096272	0.765450	-0.000119
Br214	Br	1.346272	1.015450	0.249881
Br215	Br	1.596272	1.265450	0.499881
Br216	Br	1.846272	1.515450	0.749881
Br217	Br	0.164072	0.007884	-0.000151
Br218	Br	0.414072	0.257884	0.249849
Br219	Br	0.664072	0.507884	0.499849
Br220	Br	0.914072	0.757884	0.749849
H221	H	1.054501	0.587188	-0.000120
H222	H	1.304501	0.837188	0.249880
H223	H	1.554501	1.087188	0.499880
H224	H	1.804501	1.337188	0.749880
Br225	Br	0.800496	0.300166	-0.391466
Br226	Br	1.050496	0.550166	-0.141466
Br227	Br	1.300496	0.800166	0.108534
Br228	Br	1.550496	1.050166	0.358534
H229	H	0.829453	0.271420	-0.583740
H230	H	1.079453	0.521420	-0.333740
H231	H	1.329453	0.771420	-0.083740
H232	H	1.579453	1.021420	0.166260
Br233	Br	0.756127	0.585190	-0.000095
Br234	Br	1.006127	0.835190	0.249905
Br235	Br	1.256127	1.085190	0.499905
Br236	Br	1.506127	1.335190	0.749905
H237	H	0.671204	0.300077	-0.000085
H238	H	0.921204	0.550077	0.249915
H239	H	1.171204	0.800077	0.499915
H240	H	1.421204	1.050077	0.749915
Br241	Br	0.495552	0.326299	-0.000101
Br242	Br	0.745552	0.576299	0.249899
Br243	Br	0.995552	0.826299	0.499899
Br244	Br	1.245552	1.076299	0.749899
H245	H	0.329554	0.063220	-0.000130
H246	H	0.579554	0.313220	0.249870
H247	H	0.829554	0.563220	0.499870
H248	H	1.079554	0.813220	0.749870
H249	H	0.705203	0.027504	-0.000094
H250	H	0.955203	0.277504	0.249906
H251	H	1.205203	0.527504	0.499906
H252	H	1.455203	0.777504	0.749906
H253	H	0.295565	0.335795	-0.000105
H254	H	0.545565	0.585795	0.249895
H255	H	0.795565	0.835795	0.499895
H256	H	1.045565	1.085795	0.749895
