data_functionalizedCrystal
_audit_creation_method	'MofGen! by Chris Wilmer'
_symmetry_space_group_name_H-M	'P1'
_symmetry_Int_Tables_number	1
_symmetry_cell_setting	triclinic
loop_
_symmetry_equiv_pos_as_xyz
  x,y,z
_cell_length_a	12.759401
_cell_length_b	16.959454
_cell_length_c	12.759393
_cell_angle_alpha	89.970079
_cell_angle_beta	89.981295
_cell_angle_gamma	90.020236
loop_
_atom_site_label
_atom_site_type_symbol
_atom_site_fract_x
_atom_site_fract_y
_atom_site_fract_z
Zn1	Zn	1.606218	-0.314638	-0.593988
Zn2	Zn	1.606096	-0.446838	-0.418310
Zn3	Zn	1.430520	-0.314677	-0.418327
Zn4	Zn	1.430492	-0.446778	-0.593952
O5	O	1.518331	-0.380733	-0.506144
O6	O	1.753223	-0.332182	-0.570692
O7	O	1.582765	-0.429347	-0.271291
O8	O	1.453889	-0.204061	-0.441651
O9	O	1.753133	-0.429309	-0.441622
O10	O	1.582974	-0.204032	-0.570708
O11	O	1.453770	-0.332250	-0.271304
O12	O	1.283495	-0.332193	-0.441616
O13	O	1.453843	-0.429208	-0.740978
O14	O	1.283475	-0.429247	-0.570647
O15	O	1.582948	-0.332125	-0.741004
O16	O	1.582739	-0.557441	-0.441588
O17	O	1.453724	-0.557397	-0.570631
C18	C	1.245364	-0.380718	-0.506130
C19	C	1.128587	-0.380731	-0.506149
C20	C	1.073743	-0.431348	-0.573224
C21	C	0.964018	-0.431358	-0.573235
C22	C	0.963994	-0.330132	-0.439087
C23	C	1.073716	-0.330118	-0.439082
C24	C	1.128614	-0.481961	-0.640291
C25	C	1.073769	-0.532582	-0.707370
C26	C	0.964045	-0.532592	-0.707382
C27	C	0.909166	-0.481981	-0.640313
C28	C	1.518243	-0.586099	-0.506126
C29	C	1.518302	-0.673956	-0.506154
C30	C	1.451251	-1.045439	-0.573330
C31	C	1.585705	-1.045424	-0.439066
C32	C	1.585668	-0.962878	-0.439056
C33	C	1.518421	-0.921609	-0.506183
C34	C	1.451210	-0.962885	-0.573320
C35	C	1.652870	-0.921595	-0.371913
C36	C	1.652835	-0.839044	-0.371900
C37	C	1.585592	-0.797773	-0.439033
C38	C	1.518380	-0.839055	-0.506173
C39	C	1.451132	-0.797786	-0.573300
C40	C	1.383924	-0.839066	-0.640447
C41	C	1.383967	-0.921614	-0.640453
C42	C	1.585549	-0.715225	-0.439027
C43	C	1.451091	-0.715232	-0.573291
C44	C	1.792365	-0.380748	-0.506159
C45	C	1.909141	-0.380754	-0.506165
C46	C	1.518406	-0.380656	-0.780178
C47	C	1.518438	-0.380623	-0.896954
C48	C	1.518448	-0.174565	-0.506185
C49	C	1.518498	-0.086708	-0.506203
C50	C	1.451314	-0.330026	-1.061547
C51	C	1.451291	-0.330054	-0.951823
C52	C	1.585620	-0.431161	-0.951816
C53	C	1.585648	-0.431129	-1.061538
C54	C	1.384155	-0.279460	-1.116410
C55	C	1.316974	-0.228920	-1.061556
C56	C	1.316951	-0.228949	-0.951832
C57	C	1.384108	-0.279516	-0.896962
C58	C	1.518318	-0.380752	-0.233177
C59	C	1.518489	-0.380562	-0.116401
H60	H	1.118372	-0.288896	-0.384471
H61	H	1.384090	-0.279530	-0.807617
H62	H	0.819821	-0.481986	-0.640337
H63	H	1.217957	-0.481960	-0.640287
H64	H	1.640350	-0.472278	-1.106201
O65	O	0.904791	-0.275562	-0.366746
H66	H	0.925851	-0.213535	-0.384902
H67	H	1.118459	-0.573784	-0.761982
O68	O	0.904884	-0.587270	-0.779615
H69	H	0.961477	-0.622494	-0.826200
O70	O	1.378547	-0.670720	-0.645680
H71	H	1.331816	-0.713294	-0.692359
H72	H	1.640448	-1.079030	-0.384408
O73	O	1.384207	-0.279352	-1.234755
H74	H	1.463476	-0.263347	-1.263641
O75	O	1.311386	-0.794556	-0.712845
H76	H	1.358360	-0.756896	-0.766335
H77	H	1.329249	-0.955232	-0.695119
O78	O	1.378750	-1.089953	-0.645738
H79	H	1.390065	-1.154288	-0.634466
H80	H	1.707611	-0.955203	-0.317254
O81	O	1.244561	-0.174366	-1.120728
H82	H	1.255861	-0.182835	-1.206241
H83	H	1.707560	-0.805439	-0.317227
O84	O	1.658030	-0.670698	-0.366618
H85	H	1.704800	-0.713264	-0.319945
H86	H	1.262256	-0.187791	-0.907173
O87	O	1.658043	-0.485707	-0.892641
H88	H	1.646729	-0.477245	-0.807129
