data_functionalizedCrystal
_audit_creation_method	'MofGen! by Chris Wilmer'
_symmetry_space_group_name_H-M	'P1'
_symmetry_Int_Tables_number	1
_symmetry_cell_setting	triclinic
loop_
_symmetry_equiv_pos_as_xyz
  x,y,z
_cell_length_a	9.198806
_cell_length_b	17.699083
_cell_length_c	17.699083
_cell_angle_alpha	83.283015
_cell_angle_beta	89.995927
_cell_angle_gamma	90.002089
loop_
_atom_site_label
_atom_site_type_symbol
_atom_site_fract_x
_atom_site_fract_y
_atom_site_fract_z
O1	O	0.120692	-1.004075	-0.095710
O2	O	0.454025	-0.670742	0.237624
O3	O	0.787358	-0.337409	0.570957
O4	O	0.120740	-0.783697	-0.108162
O5	O	0.454073	-0.450364	0.225171
O6	O	0.787406	-0.117030	0.558505
O7	O	0.120701	-0.900112	0.008253
O8	O	0.454035	-0.566779	0.341587
O9	O	0.787368	-0.233446	0.674920
O10	O	0.120730	-0.887660	-0.212125
O11	O	0.454063	-0.554327	0.121208
O12	O	0.787396	-0.220993	0.454542
O13	O	-0.121084	-0.900103	0.008254
O14	O	0.212250	-0.566770	0.341587
O15	O	0.545583	-0.233437	0.674920
O16	O	-0.121046	-0.783688	-0.108162
O17	O	0.212288	-0.450354	0.225172
O18	O	0.545621	-0.117021	0.558505
O19	O	-0.121094	-1.004066	-0.095709
O20	O	0.212240	-0.670733	0.237624
O21	O	0.545573	-0.337400	0.570957
Cu22	Cu	-0.143146	-0.893876	-0.101936
Cu23	Cu	0.190187	-0.560543	0.231398
Cu24	Cu	0.523520	-0.227209	0.564731
Cu25	Cu	0.142792	-0.893887	-0.101936
Cu26	Cu	0.476126	-0.560554	0.231398
Cu27	Cu	0.809459	-0.227220	0.564731
O28	O	-0.121055	-0.887651	-0.212125
O29	O	0.212278	-0.554317	0.121209
O30	O	0.545611	-0.220984	0.454542
C31	C	-0.000147	-0.755495	-0.107716
C32	C	0.333186	-0.422162	0.225618
C33	C	0.666520	-0.088829	0.558951
C34	C	-0.000129	-0.671477	-0.106377
C35	C	0.333204	-0.338144	0.226956
C36	C	0.666538	-0.004811	0.560290
C37	C	-0.000191	-0.899662	0.036451
C38	C	0.333142	-0.566328	0.369784
C39	C	0.666475	-0.232995	0.703117
C40	C	-0.000192	-0.898323	0.120469
C41	C	0.333142	-0.564990	0.453802
C42	C	0.666475	-0.231656	0.787135
N43	N	-0.344260	-0.893874	-0.101935
N44	N	-0.010927	-0.560541	0.231399
N45	N	0.322406	-0.227207	0.564732
C46	C	-0.416473	-0.942756	-0.052842
C47	C	-0.083140	-0.609422	0.280491
C48	C	0.250193	-0.276089	0.613825
C49	C	-0.583886	-0.942768	-0.052839
C50	C	-0.250552	-0.609434	0.280494
C51	C	0.082781	-0.276101	0.613827
N52	N	0.343906	-0.893895	-0.101930
N53	N	0.677240	-0.560562	0.231403
N54	N	1.010573	-0.227228	0.564736
C55	C	-0.000204	-1.032268	-0.096156
C56	C	0.333130	-0.698934	0.237178
C57	C	0.666463	-0.365601	0.570511
C58	C	-0.000212	-1.116286	-0.097494
C59	C	0.333121	-0.782953	0.235839
C60	C	0.666454	-0.449619	0.569172
C61	C	-0.000121	-0.622856	-0.174710
C62	C	0.333213	-0.289523	0.158623
C63	C	0.666546	0.043810	0.491956
C64	C	-0.000140	-0.543913	-0.173448
C65	C	0.333194	-0.210580	0.159885
C66	C	0.666527	0.122754	0.493218
C67	C	-0.000157	-0.513592	-0.103852
C68	C	0.333177	-0.180259	0.229482
C69	C	0.666510	0.153074	0.562815
C70	C	-0.000169	-0.562219	-0.035513
C71	C	0.333164	-0.228886	0.297820
C72	C	0.666497	0.104447	0.631154
C73	C	-0.000161	-0.641161	-0.036776
C74	C	0.333173	-0.307828	0.296557
C75	C	0.666506	0.025505	0.629890
C76	C	-0.000206	-0.243856	-0.030418
C77	C	0.333127	0.089477	0.302915
C78	C	0.666461	0.422810	0.636249
C79	C	-0.000210	-0.164908	-0.029160
C80	C	0.333123	0.168425	0.304173
C81	C	0.666457	0.501758	0.637507
C82	C	-0.000185	-0.146608	-0.167090
C83	C	0.333148	0.186725	0.166243
C84	C	0.666482	0.520058	0.499577
C85	C	-0.000176	-0.225550	-0.168353
C86	C	0.333157	0.107783	0.164980
C87	C	0.666490	0.441117	0.498314
C88	C	-0.000197	-0.274170	-0.100015
C89	C	0.333137	0.059163	0.233319
C90	C	0.666470	0.392496	0.566652
C91	C	-0.000179	-0.359769	-0.101384
C92	C	0.333155	-0.026436	0.231949
C93	C	0.666488	0.306897	0.565282
C94	C	-0.000164	-0.427995	-0.102481
C95	C	0.333169	-0.094661	0.230852
C96	C	0.666503	0.238672	0.564185
C97	C	-0.000160	-0.888102	-0.240322
C98	C	0.333174	-0.554768	0.093011
C99	C	0.666507	-0.221435	0.426345
C100	C	-0.000150	-0.889440	-0.324340
C101	C	0.333184	-0.556107	0.008993
C102	C	0.666517	-0.222773	0.342327
C103	C	-0.000209	-0.966656	0.169090
C104	C	0.333125	-0.633323	0.502423
C105	C	0.666458	-0.299990	0.835756
C106	C	-0.000195	-0.965394	0.248033
C107	C	0.333138	-0.632061	0.581366
C108	C	0.666471	-0.298727	0.914700
C109	C	-0.000176	-0.895798	0.278354
C110	C	0.333158	-0.562464	0.611687
C111	C	0.666491	-0.229131	0.945020
C112	C	-0.000154	-0.827459	0.229727
C113	C	0.333179	-0.494126	0.563060
C114	C	0.666512	-0.160792	0.896393
C115	C	-0.000157	-0.828722	0.150785
C116	C	0.333176	-0.495389	0.484118
C117	C	0.666510	-0.162055	0.817451
C118	C	-0.000141	-0.822364	0.548090
C119	C	0.333192	-0.489030	0.881423
C120	C	0.666525	-0.155697	1.214756
C121	C	-0.000143	-0.821106	0.627038
C122	C	0.333190	-0.487773	0.960371
C123	C	0.666524	-0.154439	1.293704
C124	C	-0.000180	-0.959036	0.645338
C125	C	0.333154	-0.625703	0.978671
C126	C	0.666487	-0.292369	1.312004
C127	C	-0.000182	-0.960299	0.566396
C128	C	0.333151	-0.626966	0.899729
C129	C	0.666484	-0.293632	1.233063
C130	C	-0.000154	-0.891961	0.517776
C131	C	0.333180	-0.558627	0.851109
C132	C	0.666513	-0.225294	1.184442
C133	C	-0.000165	-0.893330	0.432177
C134	C	0.333168	-0.559997	0.765510
C135	C	0.666502	-0.226664	1.098843
C136	C	-0.000175	-0.894427	0.363951
C137	C	0.333159	-0.561094	0.697285
C138	C	0.666492	-0.227761	1.030618
H139	H	-0.354361	-0.984594	-0.010811
H140	H	-0.021028	-0.651261	0.322523
H141	H	0.312306	-0.317928	0.655856
C142	C	-0.428153	-0.837337	-0.158704
C143	C	-0.094819	-0.504003	0.174629
C144	C	0.238514	-0.170670	0.507962
H145	H	-0.361137	-0.806661	-0.189499
H146	H	-0.027804	-0.473327	0.143835
H147	H	0.305529	-0.139994	0.477168
H148	H	-0.487536	-0.864621	-0.190063
H149	H	-0.154203	-0.531288	0.143271
H150	H	0.179130	-0.197954	0.476604
H151	H	-0.487522	-0.805832	-0.131567
H152	H	-0.154189	-0.472498	0.201766
H153	H	0.179144	-0.139165	0.535099
C154	C	-0.667768	-0.999303	0.003944
C155	C	-0.334435	-0.665970	0.337277
C156	C	-0.001101	-0.332636	0.670611
H157	H	-0.769283	-0.991890	-0.003499
H158	H	-0.435950	-0.658557	0.329834
H159	H	-0.102616	-0.325223	0.663167
H160	H	-0.642886	-1.049848	-0.004052
H161	H	-0.309552	-0.716515	0.329281
H162	H	0.023781	-0.383182	0.662615
H163	H	-0.642902	-0.991038	0.054422
H164	H	-0.309568	-0.657704	0.387755
H165	H	0.023765	-0.324371	0.721088
H166	H	-0.594003	-0.852046	-0.143966
H167	H	-0.260670	-0.518713	0.189368
H168	H	0.072664	-0.185379	0.522701
H169	H	-0.000204	-0.537526	0.021154
H170	H	0.333129	-0.204193	0.354487
H171	H	0.666463	0.129141	0.687820
H172	H	-0.000106	-0.647537	-0.231384
H173	H	0.333227	-0.314204	0.101949
H174	H	0.666561	0.019130	0.435283
C175	C	-0.000126	-0.490433	-0.248615
C176	C	0.333208	-0.157100	0.084718
C177	C	0.666541	0.176234	0.418052
H178	H	-0.000096	-0.519797	-0.290244
H179	H	0.333237	-0.186464	0.043089
H180	H	0.666570	0.146869	0.376422
H181	H	-0.084446	-0.459262	-0.250994
H182	H	0.248888	-0.125929	0.082340
H183	H	0.582221	0.207405	0.415673
H184	H	0.084196	-0.459253	-0.250987
H185	H	0.417530	-0.125920	0.082347
H186	H	0.750863	0.207413	0.415680
C187	C	-0.000155	-0.694644	0.038390
C188	C	0.333178	-0.361311	0.371724
C189	C	0.666511	-0.027978	0.705057
H190	H	-0.000151	-0.665282	0.080021
H191	H	0.333182	-0.331948	0.413354
H192	H	0.666516	0.001385	0.746688
H193	H	-0.084466	-0.725826	0.040767
H194	H	0.248868	-0.392493	0.374101
H195	H	0.582201	-0.059159	0.707434
H196	H	0.084177	-0.725813	0.040762
H197	H	0.417510	-0.392480	0.374095
H198	H	0.750843	-0.059146	0.707428
H199	H	-0.000233	-1.023330	0.144409
H200	H	0.333100	-0.689997	0.477742
H201	H	0.666433	-0.356663	0.811076
H202	H	-0.000156	-0.250232	-0.225025
H203	H	0.333177	0.083101	0.108308
H204	H	0.666511	0.416434	0.441641
H205	H	-0.000176	-0.107012	-0.222734
H206	H	0.333157	0.226322	0.110599
H207	H	0.666491	0.559655	0.443933
H208	H	-0.000212	-1.021038	0.287618
H209	H	0.333121	-0.687705	0.620951
H210	H	0.666454	-0.354372	0.954284
C211	C	-0.000110	-0.744548	0.660393
C212	C	0.333224	-0.411215	0.993726
C213	C	0.666557	-0.077882	1.327059
H214	H	-0.000128	-0.753587	0.714371
H215	H	0.333206	-0.420253	1.047704
H216	H	0.666539	-0.086920	1.381038
H217	H	0.084218	-0.716424	0.643696
H218	H	0.417551	-0.383091	0.977029
H219	H	0.750884	-0.049757	1.310362
H220	H	-0.084424	-0.716411	0.643698
H221	H	0.248909	-0.383078	0.977031
H222	H	0.582242	-0.049744	1.310365
H223	H	-0.000226	-0.140225	0.027517
H224	H	0.333107	0.193108	0.360850
H225	H	0.666441	0.526442	0.694184
H226	H	-0.000118	-0.766718	0.508512
H227	H	0.333215	-0.433385	0.841845
H228	H	0.666548	-0.100052	1.175179
C229	C	-0.000218	-0.297328	0.044751
C230	C	0.333115	0.036005	0.378084
C231	C	0.666448	0.369338	0.711418
H232	H	-0.000214	-0.267962	0.086379
H233	H	0.333119	0.065372	0.419712
H234	H	0.666452	0.398705	0.753045
H235	H	-0.084533	-0.328507	0.047128
H236	H	0.248801	0.004826	0.380461
H237	H	0.582134	0.338160	0.713795
H238	H	0.084109	-0.328501	0.047128
H239	H	0.417443	0.004833	0.380461
H240	H	0.750776	0.338166	0.713794
H241	H	-0.000206	-1.016971	0.541714
H242	H	0.333128	-0.683638	0.875047
H243	H	0.666461	-0.350305	1.208380
H244	H	-0.000196	-1.014680	0.684934
H245	H	0.333137	-0.681347	1.018268
H246	H	0.666471	-0.348013	1.351601
C247	C	-0.000137	-0.750904	0.263077
C248	C	0.333196	-0.417571	0.596411
C249	C	0.666530	-0.084238	0.929744
H250	H	-0.000154	-0.759938	0.317056
H251	H	0.333179	-0.426604	0.650389
H252	H	0.666513	-0.093271	0.983723
H253	H	0.084183	-0.722775	0.246378
H254	H	0.417517	-0.389442	0.579711
H255	H	0.750850	-0.056109	0.913044
H256	H	-0.084459	-0.722774	0.246381
H257	H	0.248874	-0.389441	0.579714
H258	H	0.582208	-0.056108	0.913047
C259	C	-0.000138	-0.753558	0.097298
C260	C	0.333195	-0.420224	0.430632
C261	C	0.666529	-0.086891	0.763965
H262	H	-0.000127	-0.764277	0.045941
H263	H	0.333207	-0.430944	0.379275
H264	H	0.666540	-0.097610	0.712608
H265	H	-0.084443	-0.725006	0.106476
H266	H	0.248890	-0.391673	0.439809
H267	H	0.582224	-0.058340	0.773142
H268	H	0.084199	-0.725022	0.106474
H269	H	0.417532	-0.391688	0.439808
H270	H	0.750866	-0.058355	0.773141
