data_functionalizedCrystal
_audit_creation_method	'MofGen! by Chris Wilmer'
_symmetry_space_group_name_H-M	'P1'
_symmetry_Int_Tables_number	1
_symmetry_cell_setting	triclinic
loop_
_symmetry_equiv_pos_as_xyz
  x,y,z
_cell_length_a	12.759394
_cell_length_b	19.077105
_cell_length_c	19.077174
_cell_angle_alpha	94.516248
_cell_angle_beta	92.274588
_cell_angle_gamma	92.288709
loop_
_atom_site_label
_atom_site_type_symbol
_atom_site_fract_x
_atom_site_fract_y
_atom_site_fract_z
Zn1	Zn	-0.510482	-1.093765	-0.441858
Zn2	Zn	-0.010482	-0.593765	0.058142
Zn3	Zn	-0.678821	-1.088969	-0.323976
Zn4	Zn	-0.178821	-0.588969	0.176024
Zn5	Zn	-0.495796	-0.971148	-0.319255
Zn6	Zn	0.004204	-0.471148	0.180745
Zn7	Zn	-0.678752	-0.975863	-0.437093
Zn8	Zn	-0.178752	-0.475863	0.062907
O9	O	-0.590963	-1.032436	-0.380546
O10	O	-0.090963	-0.532436	0.119454
O11	O	-0.538988	-1.191779	-0.430190
O12	O	-0.038988	-0.691779	0.069810
O13	O	-0.648424	-1.069360	-0.224699
O14	O	-0.148424	-0.569360	0.275301
O15	O	-0.350726	-0.987447	-0.335538
O16	O	0.149274	-0.487447	0.164462
O17	O	-0.662665	-1.188256	-0.343582
O18	O	-0.162665	-0.688256	0.156418
O19	O	-0.361516	-1.077533	-0.425614
O20	O	0.138484	-0.577533	0.074386
O21	O	-0.513957	-0.982797	-0.221232
O22	O	-0.013957	-0.482797	0.278768
O23	O	-0.513890	-0.873123	-0.330917
O24	O	-0.013890	-0.373123	0.169083
O25	O	-0.662548	-0.995483	-0.536375
O26	O	-0.162548	-0.495483	-0.036375
O27	O	-0.648307	-0.876587	-0.417492
O28	O	-0.148307	-0.376587	0.082508
O29	O	-0.538921	-1.082105	-0.539876
O30	O	-0.038921	-0.582105	-0.039876
O31	O	-0.825829	-1.073931	-0.338962
O32	O	-0.325829	-0.573931	0.161038
O33	O	-0.825779	-0.990833	-0.422069
O34	O	-0.325779	-0.490833	0.077931
C35	C	-0.579498	-0.849276	-0.373176
C36	C	-0.079498	-0.349276	0.126824
C37	C	-0.574620	-0.770919	-0.370040
C38	C	-0.074620	-0.270919	0.129960
C39	C	-0.863926	-1.032393	-0.380527
C40	C	-0.363926	-0.532393	0.119473
C41	C	-0.980707	-1.032440	-0.380545
C42	C	-0.480707	-0.532440	0.119455
C43	C	-0.602365	-1.039855	-0.564420
C44	C	-0.102365	-0.539855	-0.064420
C45	C	-0.607224	-1.043016	-0.642776
C46	C	-0.107224	-0.543016	-0.142776
C47	C	-0.980715	-1.119041	-0.294076
C48	C	-0.480715	-0.619041	0.205924
C49	C	-1.035581	-1.162360	-0.250850
C50	C	-0.535581	-0.662360	0.249150
C51	C	-1.145306	-1.162402	-0.250871
C52	C	-0.645306	-0.662402	0.249129
C53	C	-1.200168	-1.119122	-0.294124
C54	C	-0.700168	-0.619122	0.205876
C55	C	-1.145302	-1.075803	-0.337349
C56	C	-0.645302	-0.575803	0.162651
C57	C	-1.035574	-1.075764	-0.337322
C58	C	-0.535574	-0.575764	0.162678
C59	C	-1.145294	-0.989207	-0.423821
C60	C	-0.645294	-0.489207	0.076179
C61	C	-1.035569	-0.989160	-0.423798
C62	C	-0.535569	-0.489160	0.076202
C63	C	-1.200156	-0.945927	-0.467074
C64	C	-0.700156	-0.445927	0.032926
C65	C	-1.145289	-0.902603	-0.510297
C66	C	-0.645289	-0.402603	-0.010297
C67	C	-1.035557	-0.902562	-0.510274
C68	C	-0.535557	-0.402562	-0.010274
C69	C	-0.980702	-0.945841	-0.467023
C70	C	-0.480702	-0.445841	0.032977
C71	C	-0.316935	-1.032499	-0.380581
C72	C	0.183065	-0.532499	0.119419
C73	C	-0.200161	-1.032526	-0.380596
C74	C	0.299839	-0.532526	0.119404
C75	C	-0.602472	-1.216312	-0.387945
C76	C	-0.102472	-0.716312	0.112055
C77	C	-0.607377	-1.294669	-0.391097
C78	C	-0.107377	-0.794669	0.108903
C79	C	-0.642409	-0.735926	-0.413571
C80	C	-0.142409	-0.235926	0.086429
C81	C	-0.637812	-0.662303	-0.410628
C82	C	-0.137812	-0.162303	0.089372
C83	C	-0.565430	-0.623673	-0.364149
C84	C	-0.065430	-0.123673	0.135851
C85	C	-0.497634	-0.658671	-0.320617
C86	C	0.002366	-0.158671	0.179383
C87	C	-0.502227	-0.732293	-0.323564
C88	C	-0.002227	-0.232293	0.176436
C89	C	-0.544174	-0.403289	-0.350512
C90	C	-0.044174	0.096711	0.149488
C91	C	-0.539588	-0.329662	-0.347567
C92	C	-0.039588	0.170338	0.152433
C93	C	-0.679765	-0.333299	-0.437579
C94	C	-0.179765	0.166701	0.062421
C95	C	-0.684356	-0.406923	-0.440519
C96	C	-0.184356	0.093077	0.059481
C97	C	-0.616556	-0.441914	-0.396989
C98	C	-0.116556	0.058086	0.103011
N99	N	-0.560731	-0.548417	-0.361138
N100	N	-0.060731	-0.048417	0.138862
N101	N	-0.621251	-0.517168	-0.400004
N102	N	-0.121251	-0.017168	0.099996
C103	C	-0.539498	-0.999435	-0.677782
C104	C	-0.039498	-0.499435	-0.177782
C105	C	-0.544073	-1.002403	-0.751406
C106	C	-0.044073	-0.502403	-0.251406
C107	C	-0.616368	-1.048956	-0.790023
C108	C	-0.116368	-0.548956	-0.290023
C109	C	-0.684101	-1.092539	-0.755012
C110	C	-0.184101	-0.592539	-0.255012
C111	C	-0.679531	-1.089567	-0.681389
C112	C	-0.179531	-0.589567	-0.181389
C113	C	-0.637548	-1.062673	-1.010405
C114	C	-0.137548	-0.562673	-0.510405
C115	C	-0.642110	-1.065643	-1.084032
C116	C	-0.142110	-0.565643	-0.584032
C117	C	-0.502082	-0.975506	-1.080421
C118	C	-0.002082	-0.475506	-0.580421
C119	C	-0.497515	-0.972541	-1.006798
C120	C	0.002485	-0.472541	-0.506798
C121	C	-0.565251	-1.016121	-0.971793
C122	C	-0.065251	-0.516121	-0.471793
N123	N	-0.621043	-1.051992	-0.865278
N124	N	-0.121043	-0.551992	-0.365278
N125	N	-0.560581	-1.013081	-0.896539
N126	N	-0.060581	-0.513081	-0.396539
C127	C	-0.579531	-1.025087	-0.197389
C128	C	-0.079531	-0.525087	0.302611
C129	C	-0.574385	-1.022062	-0.119038
C130	C	-0.074385	-0.522062	0.380962
H131	H	-0.891369	-1.119002	-0.294045
H132	H	-0.391369	-0.619002	0.205955
C133	C	-0.975225	-1.209964	-0.203273
C134	C	-0.475225	-0.709964	0.296727
N135	N	-0.929767	-1.245819	-0.167437
N136	N	-0.429767	-0.745819	0.332563
C137	C	-0.427656	-0.770785	-0.275675
C138	C	0.072344	-0.270785	0.224325
N139	N	-0.371484	-0.799776	-0.239605
N140	N	0.128516	-0.299776	0.260395
C141	C	-0.722036	-0.778413	-0.464701
C142	C	-0.222036	-0.278413	0.035299
N143	N	-0.782010	-0.810411	-0.503215
N144	N	-0.282010	-0.310411	-0.003215
H145	H	-1.289501	-0.945967	-0.467091
H146	H	-0.789501	-0.445967	0.032909
C147	C	-0.459967	-0.948222	-0.635310
C148	C	0.040033	-0.448222	-0.135310
N149	N	-0.400065	-0.909645	-0.603322
N150	N	0.099935	-0.409645	-0.103322
H151	H	-0.700984	-1.103556	-1.115472
H152	H	-0.200984	-0.603556	-0.615472
H153	H	-0.891358	-0.945807	-0.466995
H154	H	-0.391358	-0.445807	0.033005
C155	C	-0.712005	-1.110653	-0.971911
C156	C	-0.212005	-0.610653	-0.471911
N157	N	-0.768069	-1.146807	-0.942915
N158	N	-0.268069	-0.646807	-0.442915
H159	H	-1.189979	-1.197680	-0.215677
H160	H	-0.689979	-0.697680	0.284323
H161	H	-0.742971	-1.130440	-0.786459
H162	H	-0.242971	-0.630440	-0.286459
C163	C	-1.320869	-1.119175	-0.294148
C164	C	-0.820869	-0.619175	0.205852
N165	N	-1.411783	-1.119213	-0.294165
N166	N	-0.911783	-0.619213	0.205835
H167	H	-0.488927	-0.966912	-0.779904
H168	H	0.011073	-0.466912	-0.279904
H169	H	-0.438646	-0.934631	-0.975361
H170	H	0.061354	-0.434631	-0.475361
H171	H	-0.734674	-1.125061	-0.652888
H172	H	-0.234674	-0.625061	-0.152888
H173	H	-0.743299	-0.438370	-0.478365
H174	H	-0.243299	0.061630	0.021635
C175	C	-0.975214	-0.854912	-0.557832
C176	C	-0.475214	-0.354912	-0.057832
N177	N	-0.929767	-0.819022	-0.593655
N178	N	-0.429767	-0.319022	-0.093655
H179	H	-0.734963	-0.304801	-0.473019
H180	H	-0.234963	0.195199	0.026981
C181	C	-1.205644	-0.854999	-0.557868
C182	C	-0.705644	-0.354999	-0.057868
N183	N	-1.251107	-0.819140	-0.593697
N184	N	-0.751107	-0.319140	-0.093697
H185	H	-0.480635	-0.298211	-0.309723
H186	H	0.019365	0.201789	0.190277
H187	H	-0.446936	-0.940024	-1.108930
H188	H	0.053064	-0.440024	-0.608930
H189	H	-0.488974	-0.431770	-0.315062
H190	H	0.011026	0.068230	0.184938
C191	C	-0.712405	-0.623813	-0.458502
C192	C	-0.212405	-0.123813	0.041498
N193	N	-0.768598	-0.594824	-0.494558
N194	N	-0.268598	-0.094824	0.005442
C195	C	-0.418010	-0.616175	-0.269492
C196	C	0.081990	-0.116175	0.230508
N197	N	-0.358039	-0.584168	-0.230982
N198	N	0.141961	-0.084168	0.269018
