data_functionalizedCrystal
_audit_creation_method	'MofGen! by Chris Wilmer'
_symmetry_space_group_name_H-M	'P1'
_symmetry_Int_Tables_number	1
_symmetry_cell_setting	triclinic
loop_
_symmetry_equiv_pos_as_xyz
  x,y,z
_cell_length_a	19.851628
_cell_length_b	14.628931
_cell_length_c	14.628931
_cell_angle_alpha	59.999836
_cell_angle_beta	90.003481
_cell_angle_gamma	59.998289
loop_
_atom_site_label
_atom_site_type_symbol
_atom_site_fract_x
_atom_site_fract_y
_atom_site_fract_z
Zr1	Zr	0.648978	1.000475	-0.119855
O2	O	0.541412	1.191198	-0.265834
O3	O	0.681953	0.809764	-0.075105
O4	O	0.681954	1.000470	-0.265811
O5	O	0.541411	1.000492	0.075304
O6	O	0.792815	1.000452	-0.265792
O7	O	0.541412	1.000492	-0.075128
O8	O	0.792814	0.659315	0.075346
O9	O	0.541412	1.341630	-0.265834
O10	O	0.778751	0.888189	-0.056006
O11	O	0.696016	0.888202	0.056246
O12	O	0.696017	1.112733	-0.168285
O13	O	0.613282	1.112746	-0.056033
Zr14	Zr	0.825790	1.000447	0.120096
Zr15	Zr	0.825790	1.000447	-0.119826
Zr16	Zr	0.648978	1.000475	0.120066
Zr17	Zr	0.648979	1.240397	-0.119856
Zr18	Zr	0.825789	0.760525	0.120096
O19	O	0.792815	1.191158	0.075345
O20	O	0.792816	1.191158	-0.265793
O21	O	0.541411	1.191198	0.075304
O22	O	0.933356	0.809724	0.266074
O23	O	0.933357	0.809724	-0.075063
O24	O	0.681953	0.809764	0.266033
O25	O	0.933357	1.000430	-0.075063
O26	O	0.792815	1.000452	0.266051
O27	O	0.681953	1.000470	0.266033
O28	O	0.933357	1.000430	0.075368
O29	O	0.681954	1.341607	-0.265811
O30	O	0.792814	0.659315	0.266051
O31	O	0.933356	0.659292	0.266075
O32	O	0.933356	0.659292	0.075369
O33	O	0.541412	1.341630	-0.075129
O34	O	0.681954	1.341607	-0.075105
O35	O	0.778751	0.888189	0.168526
O36	O	0.861486	0.888176	0.056274
O37	O	0.778752	1.112720	-0.056006
O38	O	0.696017	1.112733	0.056246
C39	C	0.737384	0.700356	0.000121
C40	C	0.737384	0.598503	0.000121
C41	C	0.778426	0.553087	-0.055564
C42	C	0.778427	0.447817	-0.055565
C43	C	0.516220	1.000496	0.000084
C44	C	0.441158	1.000508	0.000071
C45	C	0.214703	1.122911	-0.061111
C46	C	0.192342	1.061711	-0.105469
C47	C	0.303752	1.000475	0.000103
C48	C	0.192372	1.061682	0.044441
C49	C	0.171020	1.000451	0.000134
C50	C	0.282379	0.939274	-0.044317
C51	C	0.282407	0.939263	0.105652
C52	C	0.260099	0.877974	0.061320
C53	C	0.380214	1.000492	0.000083
C54	C	0.094562	1.000425	0.000152
C55	C	0.958549	1.000426	0.000157
C56	C	1.033610	1.000414	0.000169
C57	C	0.737385	1.000461	-0.299985
C58	C	0.737385	1.000461	-0.401838
C59	C	0.737384	1.300566	0.000120
C60	C	0.737384	1.402419	0.000120
C61	C	0.795426	1.000452	-0.552503
C62	C	0.795427	1.000452	-0.447232
C63	C	0.737384	1.000461	0.300225
C64	C	0.737383	1.000461	0.402078
C65	C	0.958548	0.700320	0.000157
C66	C	1.033609	0.598456	0.000170
C67	C	0.737383	0.700356	0.300226
C68	C	0.737383	0.598503	0.402079
C69	C	0.958548	0.700320	0.300262
C70	C	1.033609	0.598456	0.402128
C71	C	0.516220	1.300601	-0.300022
C72	C	0.441159	1.402466	-0.401887
C73	C	0.516220	1.300601	0.000083
C74	C	0.441159	1.402466	0.000071
C75	C	0.737385	1.300566	-0.299986
C76	C	0.737385	1.402419	-0.401839
C77	C	1.025672	0.550626	-0.058443
C78	C	1.096193	0.454926	-0.058454
C79	C	1.174651	0.407051	0.000156
C80	C	1.182586	0.454891	0.058770
C81	C	1.112066	0.550595	0.058774
C82	C	1.112052	0.550612	0.391371
C83	C	1.182587	0.454912	0.487075
C84	C	1.174676	0.407052	0.593535
C85	C	1.096224	0.454905	0.604290
C86	C	1.025691	0.550609	0.508587
C87	C	0.362716	1.450322	-0.391130
C88	C	0.292181	1.546051	-0.486834
C89	C	0.300092	1.593917	-0.593295
C90	C	0.378544	1.546057	-0.604050
C91	C	0.449077	1.450336	-0.508347
C92	C	0.449096	1.450306	0.058674
C93	C	0.378575	1.546032	0.058658
C94	C	0.300117	1.593910	0.000045
C95	C	0.292182	1.546066	-0.058565
C96	C	0.362702	1.450349	-0.058555
C97	C	0.778425	0.553087	0.503186
C98	C	0.778426	0.447817	0.608458
H99	H	0.153532	1.113457	-0.194719
N100	N	0.671564	1.000465	-0.546195
H101	H	0.674217	0.920757	-0.522948
H102	H	0.615508	1.080230	-0.602708
H103	H	1.118540	0.589526	0.106510
N104	N	0.690843	0.546773	0.390648
H105	H	0.713487	0.507016	0.348409
H106	H	0.630425	0.619804	0.348425
N107	N	0.824981	0.396081	0.723344
H108	H	0.818385	0.328210	0.782261
H109	H	0.802317	0.469125	0.732269
H110	H	0.228292	1.585063	-0.106286
H111	H	1.089795	0.415922	0.690983
H112	H	1.118509	0.589566	0.304694
N113	N	0.941056	0.602247	-0.121660
H114	H	0.946741	0.557418	-0.158791
H115	H	0.909913	0.698322	-0.180575
N116	N	1.087624	0.403341	-0.121677
H117	H	1.027219	0.448188	-0.158793
H118	H	1.115006	0.307267	-0.067873
H119	H	0.845122	1.000437	-0.408171
H120	H	1.232066	0.329122	0.000145
N121	N	1.267199	0.403293	0.475472
H122	H	1.273802	0.476310	0.433181
H123	H	1.273747	0.363562	0.433237
H124	H	0.512947	1.411373	-0.517119
H125	H	0.356228	1.411400	-0.106273
N126	N	1.267211	0.403250	0.121981
H127	H	1.310674	0.335362	0.113081
H128	H	1.273750	0.363600	0.203938
H129	H	0.813558	0.592144	0.511812
N130	N	0.354176	1.398713	-0.276310
H131	H	0.381504	1.302645	-0.233985
H132	H	0.293760	1.443661	-0.284123
H133	H	1.232115	0.329123	0.671454
N134	N	0.941083	0.602190	0.520191
H135	H	0.909880	0.698262	0.483099
H136	H	0.946848	0.557248	0.602177
N137	N	0.824969	0.604809	-0.118721
H138	H	0.818368	0.672683	-0.109772
H139	H	0.802296	0.644495	-0.200692
N140	N	0.824965	0.396104	-0.118730
H141	H	0.818366	0.328237	-0.109781
H142	H	0.885373	0.356413	-0.087968
H143	H	0.702241	0.441475	0.047790
H144	H	0.228309	1.585002	-0.478056
N145	N	0.533712	1.398679	0.121895
H146	H	0.528027	1.443528	0.159008
H147	H	0.564854	1.415327	0.068088
N148	N	0.690845	0.546772	0.063279
H149	H	0.647411	0.563425	0.009491
H150	H	0.663508	0.591564	0.100440
N151	N	0.690822	0.454124	0.483295
H152	H	0.730445	0.437474	0.440997
H153	H	0.647383	0.550184	0.441092
H154	H	0.687692	1.000462	-0.440887
H155	H	0.196252	1.226436	-0.112951
H156	H	0.242653	1.671859	-0.671214
H157	H	0.321074	0.887565	-0.081905
H158	H	0.384976	1.585042	-0.690742
N159	N	0.387144	1.597622	0.121877
H160	H	0.447549	1.552751	0.159016
H161	H	0.359762	1.580979	0.180786
N162	N	0.224059	1.697149	0.000039
H163	H	0.241000	1.720180	0.046064
H164	H	0.190144	1.663778	0.033363
H165	H	0.321215	0.887561	0.194883
N166	N	0.284740	0.740736	0.129900
H167	H	0.318139	0.694665	0.096291
H168	H	0.233558	0.741576	0.130056
H169	H	0.153571	1.113452	0.081927
H170	H	0.845115	1.000451	-0.591554
