data_functionalizedCrystal
_audit_creation_method	'MofGen! by Chris Wilmer'
_symmetry_space_group_name_H-M	'P1'
_symmetry_Int_Tables_number	1
_symmetry_cell_setting	triclinic
loop_
_symmetry_equiv_pos_as_xyz
  x,y,z
_cell_length_a	16.109301
_cell_length_b	10.654550
_cell_length_c	14.586319
_cell_angle_alpha	90.004822
_cell_angle_beta	89.997824
_cell_angle_gamma	83.973192
loop_
_atom_site_label
_atom_site_type_symbol
_atom_site_fract_x
_atom_site_fract_y
_atom_site_fract_z
O1	O	1.104087	0.161424	0.076180
O2	O	0.862144	0.181512	0.076194
O3	O	0.988678	-0.011347	0.076183
O4	O	0.977553	0.354282	0.076191
O5	O	0.988677	-0.011359	-0.076297
O6	O	0.862143	0.181500	-0.076287
O7	O	1.104086	0.161411	-0.076301
Cu8	Cu	0.983114	0.171455	-0.090216
Cu9	Cu	0.983115	0.171469	0.090110
O10	O	0.977552	0.354270	-0.076290
C11	C	0.831164	0.180692	-0.000044
C12	C	0.738854	0.178253	-0.000039
C13	C	0.987861	-0.058140	-0.000056
C14	C	0.985417	-0.197550	-0.000053
C15	C	0.517228	0.287019	-0.000047
C16	C	0.430494	0.284717	-0.000053
C17	C	0.449008	0.055896	-0.000054
C18	C	0.535741	0.058199	-0.000055
C19	C	0.569848	0.173764	-0.000047
C20	C	0.396382	0.169159	-0.000052
C21	C	0.302341	0.166662	-0.000058
C22	C	0.663895	0.176262	-0.000042
C23	C	1.059918	-0.278046	-0.000060
C24	C	1.057616	-0.409036	-0.000053
C25	C	0.906306	-0.379020	-0.000036
C26	C	0.908608	-0.248033	-0.000036
C27	C	1.136726	-0.227564	-0.000076
C28	C	1.211233	-0.308061	-0.000084
C29	C	1.208932	-0.439051	-0.000078
C30	C	1.132123	-0.489543	-0.000063
C31	C	1.135066	0.162231	-0.000060
C32	C	1.227376	0.164671	-0.000060
C33	C	0.978369	0.401063	-0.000049
C34	C	0.980813	0.540473	-0.000046
N35	N	0.983117	0.171470	0.216942
N36	N	0.983119	0.171444	-0.217048
C37	C	1.039256	0.086237	0.451943
C38	C	1.039259	0.086234	0.547924
C39	C	0.926977	0.256685	0.547943
C40	C	0.926980	0.256693	0.451964
C41	C	0.983118	0.171462	0.403966
C42	C	0.983118	0.171451	0.595927
C43	C	0.983120	0.171449	0.699994
C44	C	0.983117	0.171466	0.299893
H45	H	0.544995	0.381119	-0.000048
Br46	Br	0.850793	0.372373	0.386845
Br47	Br	0.359084	0.438426	-0.000059
Br48	Br	0.402714	-0.100935	-0.000061
Br49	Br	0.607160	-0.095514	-0.000065
Br50	Br	1.139854	-0.049793	-0.000092
Br51	Br	0.850790	0.372349	0.613086
H52	H	1.273768	-0.266942	-0.000073
H53	H	1.269599	-0.504589	-0.000075
H54	H	1.130255	-0.596205	-0.000048
H55	H	0.843772	-0.420141	-0.000026
H56	H	0.847943	-0.182490	-0.000031
Br57	Br	1.115445	-0.029430	0.386807
H58	H	1.084972	0.016838	0.586985
