data_functionalizedCrystal
_audit_creation_method	'MofGen! by Chris Wilmer'
_symmetry_space_group_name_H-M	'P1'
_symmetry_Int_Tables_number	1
_symmetry_cell_setting	triclinic
loop_
_symmetry_equiv_pos_as_xyz
  x,y,z
_cell_length_a	8.497374
_cell_length_b	8.497374
_cell_length_c	12.759401
_cell_angle_alpha	89.995573
_cell_angle_beta	90.000368
_cell_angle_gamma	90.000262
loop_
_atom_site_label
_atom_site_type_symbol
_atom_site_fract_x
_atom_site_fract_y
_atom_site_fract_z
Zn1	Zn	0.891989	-0.628323	1.606208
Zn2	Zn	0.628229	-0.892068	1.606217
Zn3	Zn	0.628222	-0.628297	1.430566
Zn4	Zn	0.891967	-0.892055	1.430558
O5	O	0.760102	-0.760186	1.518387
O6	O	0.857013	-0.663325	1.753230
O7	O	0.407466	-0.857073	1.582924
O8	O	0.663218	-0.407538	1.453865
O9	O	0.663230	-0.857098	1.753237
O10	O	0.857006	-0.407557	1.582908
O11	O	0.407461	-0.663281	1.453873
O12	O	0.663197	-0.663269	1.283544
O13	O	1.112732	-0.857076	1.453851
O14	O	0.856969	-0.857051	1.283538
O15	O	1.112748	-0.663313	1.582901
O16	O	0.663208	-1.112829	1.582916
O17	O	0.856975	-1.112819	1.453860
C18	C	0.760080	-0.760157	1.245420
C19	C	0.760109	-0.760182	1.128643
C20	C	1.171582	-0.760188	1.518380
C21	C	1.350226	-0.760205	1.518382
C22	C	0.760109	-0.348706	1.518379
C23	C	0.760114	-0.170061	1.518379
C24	C	0.860839	-0.861246	1.073806
C25	C	0.860856	-0.861266	0.964082
C26	C	0.659399	-0.659154	0.964042
C27	C	0.659391	-0.659127	1.073764
C28	C	0.961556	-0.962301	1.128685
C29	C	1.062294	-1.063374	1.073847
C30	C	1.062311	-1.063394	0.964123
C31	C	0.961591	-0.962341	0.909237
C32	C	0.760124	-0.760216	1.792421
C33	C	0.760134	-0.760229	1.909197
H34	H	0.961551	-0.962299	1.218028
O35	O	0.561688	-0.561011	1.127203
C36	C	0.472337	-0.471472	1.296223
C37	C	0.583086	-0.582650	1.235835
H38	H	0.489575	-0.488952	1.384063
H39	H	0.500249	-0.344279	1.274711
H40	H	0.345102	-0.498957	1.274590
H41	H	0.710358	-0.555307	1.257435
H42	H	0.555039	-0.709810	1.257352
O43	O	1.159984	-1.161476	1.127321
C44	C	1.249318	-1.250950	1.296371
C45	C	1.138573	-1.139797	1.235946
H46	H	1.232069	-1.233437	1.384205
H47	H	1.221413	-1.378152	1.274891
H48	H	1.376555	-1.223469	1.274738
H49	H	1.011300	-1.167135	1.257546
H50	H	1.166614	-1.012628	1.257431
H51	H	0.577397	-0.576883	0.919345
H52	H	1.144347	-1.145682	0.919477
H53	H	0.961626	-0.962352	0.819892
