data_functionalizedCrystal
_audit_creation_method	'MofGen! by Chris Wilmer'
_symmetry_space_group_name_H-M	'P1'
_symmetry_Int_Tables_number	1
_symmetry_cell_setting	triclinic
loop_
_symmetry_equiv_pos_as_xyz
  x,y,z
_cell_length_a	19.077312
_cell_length_b	29.839131
_cell_length_c	19.077174
_cell_angle_alpha	92.262165
_cell_angle_beta	90.075859
_cell_angle_gamma	87.741726
loop_
_atom_site_label
_atom_site_type_symbol
_atom_site_fract_x
_atom_site_fract_y
_atom_site_fract_z
Zn1	Zn	1.090077	-0.215848	-0.354066
Zn2	Zn	1.423410	0.117485	-0.020733
Zn3	Zn	1.756743	0.450819	0.312601
Zn4	Zn	1.085256	-0.287839	-0.236543
Zn5	Zn	1.418589	0.045494	0.096790
Zn6	Zn	1.751922	0.378827	0.430123
Zn7	Zn	0.967863	-0.209841	-0.241299
Zn8	Zn	1.301196	0.123493	0.092034
Zn9	Zn	1.634530	0.456826	0.425368
Zn10	Zn	0.972518	-0.288062	-0.358732
Zn11	Zn	1.305851	0.045272	-0.025399
Zn12	Zn	1.639185	0.378605	0.307935
O13	O	1.028928	-0.250397	-0.297660
O14	O	1.362262	0.082936	0.035673
O15	O	1.695595	0.416269	0.369007
O16	O	1.187765	-0.227819	-0.334533
O17	O	1.521098	0.105514	-0.001200
O18	O	1.854432	0.438848	0.332133
O19	O	1.065717	-0.274886	-0.138844
O20	O	1.399051	0.058448	0.194489
O21	O	1.732384	0.391781	0.527822
O22	O	0.984145	-0.147773	-0.256295
O23	O	1.317478	0.185560	0.077038
O24	O	1.650811	0.518893	0.410372
O25	O	1.184223	-0.280711	-0.248190
O26	O	1.517556	0.052623	0.085143
O27	O	1.850890	0.385956	0.418477
O28	O	1.073934	-0.152187	-0.339145
O29	O	1.407268	0.181147	-0.005811
O30	O	1.740601	0.514480	0.327522
O31	O	0.979470	-0.217580	-0.142338
O32	O	1.312803	0.115753	0.190995
O33	O	1.646136	0.449086	0.524328
O34	O	0.870153	-0.217796	-0.260820
O35	O	1.203486	0.115538	0.072514
O36	O	1.536819	0.448871	0.405847
O37	O	0.992078	-0.281089	-0.456443
O38	O	1.325411	0.052244	-0.123110
O39	O	1.658745	0.385577	0.210224
O40	O	0.873572	-0.275264	-0.347097
O41	O	1.206906	0.058069	-0.013764
O42	O	1.540239	0.391402	0.319569
O43	O	1.078448	-0.228034	-0.453015
O44	O	1.411781	0.105299	-0.119681
O45	O	1.745115	0.438632	0.213652
O46	O	1.070231	-0.350733	-0.252714
O47	O	1.403564	-0.017400	0.080619
O48	O	1.736898	0.315933	0.413952
O49	O	0.987403	-0.350897	-0.342486
O50	O	1.320737	-0.017563	-0.009153
O51	O	1.654070	0.315770	0.324181
C52	C	0.846367	-0.245903	-0.304981
C53	C	1.179701	0.087431	0.028352
C54	C	1.513034	0.420764	0.361685
C55	C	0.768267	-0.243991	-0.308130
C56	C	1.101601	0.089342	0.025203
C57	C	1.434934	0.422676	0.358537
C58	C	0.328849	-0.230245	-0.330721
C59	C	0.662182	0.103089	0.002613
C60	C	0.995515	0.436422	0.335946
C61	C	0.402232	-0.232049	-0.327758
C62	C	0.735565	0.101284	0.005575
C63	C	1.068898	0.434618	0.338908
C64	C	0.437067	-0.260440	-0.281250
C65	C	0.770400	0.072893	0.052084
C66	C	1.103734	0.406227	0.385417
C67	C	0.398516	-0.287032	-0.237706
C68	C	0.731849	0.046302	0.095627
C69	C	1.065182	0.379635	0.428961
C70	C	0.325134	-0.285229	-0.240673
C71	C	0.658468	0.048104	0.092661
C72	C	0.991801	0.381437	0.425994
C73	C	0.656335	-0.268780	-0.267553
C74	C	0.989668	0.064553	0.065781
C75	C	1.323001	0.397886	0.399114
C76	C	0.729721	-0.270580	-0.264588
C77	C	1.063055	0.062754	0.068745
C78	C	1.396388	0.396087	0.402079
C79	C	0.733432	-0.215597	-0.354642
C80	C	1.066766	0.117736	-0.021308
C81	C	1.400099	0.451069	0.312025
C82	C	0.660049	-0.213796	-0.357601
C83	C	0.993383	0.119538	-0.024268
C84	C	1.326716	0.452871	0.309066
C85	C	0.621505	-0.240389	-0.314060
C86	C	0.954838	0.092944	0.019273
C87	C	1.288171	0.426278	0.352607
N88	N	0.512076	-0.262284	-0.278219
N89	N	0.845409	0.071049	0.055114
N90	N	1.178743	0.404383	0.388448
N91	N	0.546497	-0.238547	-0.317095
N92	N	0.879830	0.094786	0.016239
N93	N	1.213164	0.428120	0.349572
C94	C	1.028819	-0.367116	-0.297605
C95	C	1.362152	-0.033782	0.035728
C96	C	1.695485	0.299551	0.369062
C97	C	1.028837	-0.417051	-0.297603
C98	C	1.362170	-0.083717	0.035731
C99	C	1.695504	0.249616	0.369064
C100	C	1.075675	-0.728962	-0.340864
C101	C	1.409008	-0.395629	-0.007531
C102	C	1.742341	-0.062296	0.325802
C103	C	1.075753	-0.916639	-0.340903
C104	C	1.409086	-0.583305	-0.007570
C105	C	1.742419	-0.249972	0.325763
O106	O	1.115469	-0.942828	-0.377646
O107	O	1.448802	-0.609495	-0.044313
O108	O	1.782135	-0.276162	0.289020
N109	N	1.029051	-0.937844	-0.297733
N110	N	1.362384	-0.604511	0.035600
N111	N	1.695717	-0.271178	0.368933
C112	C	0.982323	-0.912128	-0.254554
C113	C	1.315656	-0.578795	0.078780
C114	C	1.648990	-0.245462	0.412113
O115	O	0.942597	-0.934472	-0.217841
O116	O	1.275930	-0.601138	0.115492
O117	O	1.609264	-0.267805	0.448826
C118	C	0.982242	-0.724453	-0.254519
C119	C	1.315575	-0.391120	0.078815
C120	C	1.648909	-0.057787	0.412148
C121	C	1.028952	-0.703250	-0.297686
C122	C	1.362285	-0.369917	0.035647
C123	C	1.695619	-0.036583	0.368980
C124	C	1.122380	-0.707759	-0.384029
C125	C	1.455713	-0.374426	-0.050696
C126	C	1.789047	-0.041092	0.282638
C127	C	1.122363	-0.660843	-0.384016
C128	C	1.455696	-0.327509	-0.050683
C129	C	1.789029	0.005824	0.282651
C130	C	1.075640	-0.635130	-0.340838
C131	C	1.408973	-0.301797	-0.007505
C132	C	1.742307	0.031537	0.325829
C133	C	1.028935	-0.656334	-0.297673
C134	C	1.362268	-0.323000	0.035660
C135	C	1.695601	0.010333	0.368993
C136	C	0.935511	-0.698738	-0.211343
C137	C	1.268845	-0.365405	0.121990
C138	C	1.602178	-0.032071	0.455323
C139	C	0.935494	-0.651817	-0.211340
C140	C	1.268828	-0.318483	0.121994
C141	C	1.602161	0.014850	0.455327
C142	C	0.982204	-0.630613	-0.254507
C143	C	1.315537	-0.297280	0.078826
C144	C	1.648871	0.036054	0.412159
C145	C	0.982194	-0.583705	-0.254482
C146	C	1.315528	-0.250371	0.078851
C147	C	1.648861	0.082962	0.412184
N148	N	1.028896	-0.562499	-0.297653
N149	N	1.362230	-0.229166	0.035681
N150	N	1.695563	0.104168	0.369014
C151	C	1.075619	-0.588211	-0.340830
C152	C	1.408952	-0.254878	-0.007497
C153	C	1.742286	0.078455	0.325836
C154	C	0.982370	-1.010661	-0.254574
C155	C	1.315703	-0.677327	0.078759
C156	C	1.649036	-0.343994	0.412093
C157	C	0.982391	-1.057579	-0.254582
C158	C	1.315724	-0.724246	0.078752
C159	C	1.649057	-0.390913	0.412085
C160	C	1.075819	-1.062086	-0.340933
C161	C	1.409153	-0.728753	-0.007599
C162	C	1.742486	-0.395419	0.325734
C163	C	1.075801	-1.015167	-0.340921
C164	C	1.409135	-0.681833	-0.007587
C165	C	1.742468	-0.348500	0.325746
C166	C	1.029071	-0.989455	-0.297744
C167	C	1.362405	-0.656121	0.035589
C168	C	1.695738	-0.322788	0.368923
C169	C	1.075579	-0.489684	-0.340799
C170	C	1.408913	-0.156350	-0.007466
C171	C	1.742246	0.176983	0.325867
C172	C	1.075560	-0.442763	-0.340780
C173	C	1.408893	-0.109430	-0.007447
C174	C	1.742227	0.223903	0.325886
C175	C	0.982129	-0.438260	-0.254433
C176	C	1.315462	-0.104927	0.078901
C177	C	1.648795	0.228406	0.412234
C178	C	0.982150	-0.485177	-0.254448
C179	C	1.315484	-0.151844	0.078885
C180	C	1.648817	0.181490	0.412218
C181	C	1.028878	-0.510888	-0.297638
C182	C	1.362212	-0.177554	0.035696
C183	C	1.695545	0.155779	0.369029
O184	O	0.942494	-0.557487	-0.217765
O185	O	1.275827	-0.224154	0.115569
O186	O	1.609160	0.109180	0.448902
O187	O	1.115328	-0.565860	-0.377549
O188	O	1.448662	-0.232526	-0.044216
O189	O	1.781995	0.100807	0.289118
C190	C	1.075692	-0.775879	-0.340877
C191	C	1.409025	-0.442545	-0.007544
C192	C	1.742359	-0.109212	0.325789
C193	C	1.028987	-0.797082	-0.297712
C194	C	1.362320	-0.463749	0.035621
C195	C	1.695653	-0.130416	0.368954
C196	C	0.982264	-0.771370	-0.254535
C197	C	1.315597	-0.438036	0.078799
C198	C	1.648931	-0.104703	0.412132
C199	C	1.029008	-0.844001	-0.297720
C200	C	1.362341	-0.510668	0.035613
C201	C	1.695674	-0.177334	0.368947
C202	C	1.075730	-0.869713	-0.340898
C203	C	1.409064	-0.536380	-0.007565
C204	C	1.742397	-0.203047	0.325769
C205	C	1.122432	-0.848508	-0.384068
C206	C	1.455765	-0.515174	-0.050735
C207	C	1.789099	-0.181841	0.282599
C208	C	1.122415	-0.801591	-0.384055
C209	C	1.455748	-0.468258	-0.050722
C210	C	1.789081	-0.134925	0.282612
C211	C	0.935562	-0.792576	-0.211364
C212	C	1.268895	-0.459242	0.121969
C213	C	1.602229	-0.125909	0.455302
C214	C	0.935584	-0.839492	-0.211380
C215	C	1.268917	-0.506159	0.121953
C216	C	1.602250	-0.172825	0.455286
C217	C	0.982306	-0.865205	-0.254558
C218	C	1.315640	-0.531871	0.078775
C219	C	1.648973	-0.198538	0.412108
C220	C	1.212202	-0.254910	-0.290311
C221	C	1.545536	0.078423	0.043023
C222	C	1.878869	0.411757	0.376356
C223	C	1.290303	-0.256833	-0.287179
C224	C	1.623636	0.076500	0.046155
C225	C	1.956969	0.409834	0.379488
C226	C	1.036320	-0.255257	-0.480938
C227	C	1.369653	0.078077	-0.147604
C228	C	1.702987	0.411410	0.185729
C229	C	1.039470	-0.257327	-0.559040
C230	C	1.372803	0.076006	-0.225706
C231	C	1.706137	0.409339	0.107627
C232	C	1.029058	-0.133224	-0.297730
C233	C	1.362391	0.200109	0.035604
C234	C	1.695725	0.533443	0.368937
C235	C	1.029113	-0.083292	-0.297760
C236	C	1.362447	0.250041	0.035574
C237	C	1.695780	0.583375	0.368907
C238	C	0.996047	-0.228465	-0.597550
C239	C	1.329381	0.104868	-0.264217
C240	C	1.662714	0.438202	0.069116
C241	C	0.999004	-0.230414	-0.670936
C242	C	1.332338	0.102919	-0.337602
C243	C	1.665671	0.436252	-0.004269
C244	C	1.045388	-0.261224	-0.705808
C245	C	1.378721	0.072109	-0.372475
C246	C	1.712055	0.405443	-0.039142
C247	C	1.088813	-0.290090	-0.667292
C248	C	1.422146	0.043244	-0.333959
C249	C	1.755479	0.376577	-0.000626
C250	C	1.085852	-0.288142	-0.593909
C251	C	1.419185	0.045191	-0.260575
C252	C	1.752518	0.378525	0.072758
C253	C	1.059056	-0.270250	-0.925087
C254	C	1.392389	0.063084	-0.591754
C255	C	1.725722	0.396417	-0.258420
C256	C	1.062015	-0.272194	-0.998476
C257	C	1.395348	0.061139	-0.665143
C258	C	1.728681	0.394472	-0.331809
C259	C	0.972205	-0.212519	-1.002114
C260	C	1.305538	0.120814	-0.668781
C261	C	1.638872	0.454147	-0.335448
C262	C	0.969251	-0.210573	-0.928729
C263	C	1.302585	0.122761	-0.595396
C264	C	1.635918	0.456094	-0.262062
C265	C	1.012673	-0.239440	-0.890219
C266	C	1.346006	0.093894	-0.556886
C267	C	1.679340	0.427227	-0.223553
N268	N	1.048413	-0.263216	-0.780820
N269	N	1.381747	0.070117	-0.447486
N270	N	1.715080	0.403450	-0.114153
N271	N	1.009644	-0.237449	-0.815210
N272	N	1.342977	0.095884	-0.481876
N273	N	1.676310	0.429217	-0.148543
C274	C	1.021606	-0.245526	-0.115094
C275	C	1.354939	0.087808	0.218239
C276	C	1.688272	0.421141	0.551573
C277	C	1.018592	-0.243332	-0.036987
C278	C	1.351925	0.090002	0.296346
C279	C	1.685259	0.423335	0.629680
H280	H	0.433613	-0.210399	-0.363217
H281	H	0.766946	0.122934	-0.029884
H282	H	1.100279	0.456267	0.303450
Br283	Br	0.918940	-0.975772	-0.195975
Br284	Br	1.252274	-0.642439	0.137358
Br285	Br	1.585607	-0.309106	0.470692
H286	H	0.944362	-1.074839	-0.219422
H287	H	1.277695	-0.741506	0.113911
H288	H	1.611029	-0.408172	0.447244
Br289	Br	0.785746	-0.179510	-0.413732
Br290	Br	1.119080	0.153823	-0.080399
Br291	Br	1.452413	0.487156	0.252935
Br292	Br	0.918723	-0.403356	-0.195836
Br293	Br	1.252057	-0.070023	0.137498
Br294	Br	1.585390	0.263311	0.470831
Br295	Br	0.918769	-0.513954	-0.195852
Br296	Br	1.252102	-0.180621	0.137481
Br297	Br	1.585436	0.152713	0.470815
Br298	Br	0.872190	-0.868262	-0.152786
Br299	Br	1.205523	-0.534929	0.180548
Br300	Br	1.538856	-0.201595	0.513881
Br301	Br	0.272821	-0.321321	-0.181586
Br302	Br	0.606154	0.012013	0.151747
Br303	Br	0.939488	0.345346	0.485081
Br304	Br	1.138958	-0.413990	-0.399366
Br305	Br	1.472292	-0.080657	-0.066033
Br306	Br	1.805625	0.252677	0.267300
H307	H	0.931479	-0.185485	-0.900341
H308	H	1.264812	0.147848	-0.567008
H309	H	1.598145	0.481182	-0.233674
H310	H	0.963642	-0.206913	-0.702288
H311	H	1.296975	0.126420	-0.368955
H312	H	1.630309	0.459754	-0.035622
Br313	Br	0.913277	-0.173346	-1.054381
Br314	Br	1.246611	0.159988	-0.721047
Br315	Br	1.579944	0.493321	-0.387714
H316	H	1.126576	-0.315178	-0.695692
H317	H	1.459909	0.018156	-0.362358
H318	H	1.793242	0.351489	-0.029025
H319	H	1.160450	-0.784331	-0.419206
H320	H	1.493783	-0.450998	-0.085873
H321	H	1.827117	-0.117664	0.247460
Br322	Br	0.776998	-0.309122	-0.201479
Br323	Br	1.110332	0.024211	0.131854
Br324	Br	1.443665	0.357545	0.465188
Br325	Br	1.124977	-0.314005	-1.045803
Br326	Br	1.458311	0.019328	-0.712470
Br327	Br	1.791644	0.352662	-0.379136
H328	H	0.624960	-0.290433	-0.232097
H329	H	0.958294	0.042900	0.101237
H330	H	1.291627	0.376234	0.434570
Br331	Br	0.612778	-0.175264	-0.420723
Br332	Br	0.946111	0.158069	-0.087390
Br333	Br	1.279444	0.491402	0.245944
Br334	Br	1.117990	-0.309424	-0.872833
Br335	Br	1.451323	0.023909	-0.539500
Br336	Br	1.784656	0.357242	-0.206166
H337	H	1.113625	-0.510612	-0.375973
H338	H	1.446958	-0.177279	-0.042640
H339	H	1.780292	0.156054	0.290694
H340	H	0.897476	-0.715994	-0.176191
H341	H	1.230809	-0.382660	0.157142
H342	H	1.564142	-0.049327	0.490476
Br343	Br	0.933100	-0.186646	-0.550230
Br344	Br	1.266433	0.146687	-0.216897
Br345	Br	1.599766	0.480020	0.116437
Br346	Br	1.144779	-0.327317	-0.541643
Br347	Br	1.478113	0.006016	-0.208309
Br348	Br	1.811446	0.339349	0.125024
Br349	Br	0.872070	-0.616924	-0.152741
Br350	Br	1.205403	-0.283591	0.180593
Br351	Br	1.538737	0.049742	0.513926
H352	H	1.160396	-0.643582	-0.419169
H353	H	1.493729	-0.310248	-0.085836
H354	H	1.827062	0.023085	0.247498
H355	H	0.300491	-0.207123	-0.368589
H356	H	0.633824	0.126211	-0.035255
H357	H	0.967158	0.459544	0.298078
Br358	Br	1.185795	-0.742646	-0.442640
Br359	Br	1.519128	-0.409313	-0.109306
Br360	Br	1.852461	-0.075979	0.224027
Br361	Br	0.445791	-0.325566	-0.174592
Br362	Br	0.779125	0.007767	0.158742
Br363	Br	1.112458	0.341101	0.492075
Br364	Br	1.139195	-0.986396	-0.399507
Br365	Br	1.472529	-0.653062	-0.066174
Br366	Br	1.805862	-0.319729	0.267159
Br367	Br	1.139229	-1.096991	-0.399530
Br368	Br	1.472563	-0.763657	-0.066197
Br369	Br	1.805896	-0.430324	0.267136
H370	H	1.160478	-0.869451	-0.419223
H371	H	1.493811	-0.536118	-0.085889
H372	H	1.827144	-0.202784	0.247444
Br373	Br	0.872141	-0.757687	-0.152765
Br374	Br	1.205474	-0.424354	0.180568
Br375	Br	1.538808	-0.091020	0.513902
