data_functionalizedCrystal
_audit_creation_method	'MofGen! by Chris Wilmer'
_symmetry_space_group_name_H-M	'P1'
_symmetry_Int_Tables_number	1
_symmetry_cell_setting	triclinic
loop_
_symmetry_equiv_pos_as_xyz
  x,y,z
_cell_length_a	15.944499
_cell_length_b	14.971486
_cell_length_c	14.048226
_cell_angle_alpha	90.001501
_cell_angle_beta	89.996813
_cell_angle_gamma	96.454131
loop_
_atom_site_label
_atom_site_type_symbol
_atom_site_fract_x
_atom_site_fract_y
_atom_site_fract_z
O1	O	0.109466	-1.186807	-0.079044
O2	O	0.442799	-0.853474	0.254289
O3	O	0.776133	-0.520141	0.587623
O4	O	0.122575	-0.926390	-0.079069
O5	O	0.455908	-0.593057	0.254264
O6	O	0.789241	-0.259724	0.587597
O7	O	-0.006251	-1.063734	-0.079058
O8	O	0.327083	-0.730401	0.254276
O9	O	0.660416	-0.397068	0.587609
O10	O	0.238291	-1.049463	-0.079056
O11	O	0.571625	-0.716130	0.254278
O12	O	0.904958	-0.382797	0.587611
O13	O	-0.006258	-1.063718	0.079264
O14	O	0.327075	-0.730384	0.412597
O15	O	0.660408	-0.397051	0.745930
O16	O	0.122567	-0.926374	0.079252
O17	O	0.455900	-0.593041	0.412585
O18	O	0.789234	-0.259707	0.745919
O19	O	0.109458	-1.186791	0.079277
O20	O	0.442792	-0.853457	0.412611
O21	O	0.776125	-0.520124	0.745944
Zn22	Zn	0.116011	-1.056580	0.104402
Zn23	Zn	0.449345	-0.723246	0.437735
Zn24	Zn	0.782678	-0.389913	0.771068
Zn25	Zn	0.116021	-1.056601	-0.104194
Zn26	Zn	0.449355	-0.723268	0.229140
Zn27	Zn	0.782688	-0.389935	0.562473
O28	O	0.238284	-1.049447	0.079266
O29	O	0.571617	-0.716113	0.412599
O30	O	0.904950	-0.382780	0.745932
C31	C	0.121985	-0.893058	0.000088
C32	C	0.455318	-0.559725	0.333421
C33	C	0.788651	-0.226391	0.666755
C34	C	0.120228	-0.793763	0.000078
C35	C	0.453561	-0.460430	0.333412
C36	C	0.786894	-0.127097	0.666745
C37	C	-0.037550	-1.063142	0.000101
C38	C	0.295784	-0.729808	0.333434
C39	C	0.629117	-0.396475	0.666767
C40	C	-0.130800	-1.061390	0.000093
C41	C	0.202534	-0.728057	0.333427
C42	C	0.535867	-0.394723	0.666760
C43	C	-0.422260	-1.141183	0.000106
C44	C	-0.088927	-0.807850	0.333440
C45	C	0.244407	-0.474517	0.666773
C46	C	-0.361278	-1.099697	0.078166
C47	C	-0.027944	-0.766363	0.411500
C48	C	0.305389	-0.433030	0.744833
C49	C	-0.466442	-1.055026	0.000104
C50	C	-0.133109	-0.721693	0.333437
C51	C	0.200224	-0.388360	0.666770
C52	C	-0.361277	-1.099690	-0.077926
C53	C	-0.027943	-0.766357	0.255407
C54	C	0.305390	-0.433023	0.588741
C55	C	-0.301531	-1.058158	0.000097
C56	C	0.031803	-0.724824	0.333430
C57	C	0.365136	-0.391491	0.666764
C58	C	-0.406688	-1.013516	0.078228
C59	C	-0.073355	-0.680182	0.411562
C60	C	0.259978	-0.346849	0.744895
C61	C	-0.406694	-1.013521	-0.077934
C62	C	-0.073360	-0.680188	0.255399
C63	C	0.259973	-0.346854	0.588732
C64	C	-0.345729	-0.971971	0.000145
C65	C	-0.012396	-0.638638	0.333478
C66	C	0.320938	-0.305305	0.666812
C67	C	-0.561444	-1.053225	0.000108
C68	C	-0.228111	-0.719891	0.333442
C69	C	0.105223	-0.386558	0.666775
C70	C	-0.206530	-1.059952	0.000099
C71	C	0.126803	-0.726619	0.333432
C72	C	0.460137	-0.393286	0.666766
C73	C	0.110048	-1.220123	0.000118
C74	C	0.443382	-0.886790	0.333451
C75	C	0.776715	-0.553456	0.666784
C76	C	0.111805	-1.319418	0.000121
C77	C	0.445138	-0.986084	0.333455
C78	C	0.778472	-0.652751	0.666788
C79	C	0.269583	-1.050039	0.000105
C80	C	0.602916	-0.716706	0.333439
C81	C	0.936249	-0.383373	0.666772
C82	C	0.362833	-1.051791	0.000106
C83	C	0.696166	-0.718458	0.333440
C84	C	1.029499	-0.385124	0.666773
N85	N	0.116004	-1.056571	0.246762
N86	N	0.449337	-0.723238	0.580096
N87	N	0.782671	-0.389905	0.913429
C88	C	0.195909	-0.736441	0.000080
C89	C	0.529243	-0.403108	0.333414
C90	C	0.862576	-0.069775	0.666747
C91	C	0.194253	-0.643144	0.000094
C92	C	0.527587	-0.309811	0.333428
C93	C	0.860920	0.023523	0.666761
C94	C	0.116915	-0.607170	0.000100
C95	C	0.450249	-0.273837	0.333433
C96	C	0.783582	0.059496	0.666767
C97	C	0.041228	-0.664500	0.000101
C98	C	0.374562	-0.331166	0.333434
C99	C	0.707895	0.002167	0.666767
C100	C	0.042885	-0.757795	0.000093
C101	C	0.376218	-0.424462	0.333427
C102	C	0.709552	-0.091129	0.666760
C103	C	0.037781	-0.470042	0.000114
C104	C	0.371114	-0.136708	0.333447
C105	C	0.704447	0.196625	0.666781
C106	C	0.036124	-0.376740	0.000119
C107	C	0.369457	-0.043406	0.333453
C108	C	0.702790	0.289927	0.666786
C109	C	0.189149	-0.355390	0.000115
C110	C	0.522483	-0.022057	0.333448
C111	C	0.855816	0.311276	0.666781
C112	C	0.190806	-0.448686	0.000107
C113	C	0.524139	-0.115353	0.333441
C114	C	0.857473	0.217981	0.666774
C115	C	0.115118	-0.506009	0.000107
C116	C	0.448452	-0.172676	0.333440
C117	C	0.781785	0.160658	0.666773
N118	N	0.116022	-1.056617	-0.246554
N119	N	0.449356	-0.723284	0.086779
N120	N	0.782689	-0.389950	0.420112
C121	C	0.058984	-1.117406	0.296585
C122	C	0.392317	-0.784073	0.629919
C123	C	0.725650	-0.450740	0.963252
C124	C	0.058983	-1.117412	0.396243
C125	C	0.392317	-0.784079	0.729576
C126	C	0.725650	-0.450746	1.062910
C127	C	0.116008	-1.056587	0.446076
C128	C	0.449341	-0.723254	0.779409
C129	C	0.782675	-0.389920	1.112742
C130	C	0.173031	-0.995746	0.396246
C131	C	0.506364	-0.662412	0.729579
C132	C	0.839698	-0.329079	1.062912
C133	C	0.173027	-0.995736	0.296590
C134	C	0.506360	-0.662403	0.629923
C135	C	0.839693	-0.329069	0.963256
C136	C	0.173037	-0.995771	0.603960
C137	C	0.506370	-0.662438	0.937293
C138	C	0.839704	-0.329105	1.270626
C139	C	0.173042	-0.995782	0.703623
C140	C	0.506376	-0.662449	1.036956
C141	C	0.839709	-0.329115	1.370289
C142	C	0.058994	-1.117448	0.703613
C143	C	0.392327	-0.784114	1.036947
C144	C	0.725660	-0.450781	1.370280
C145	C	0.058989	-1.117438	0.603957
C146	C	0.392323	-0.784105	0.937291
C147	C	0.725656	-0.450772	1.270624
C148	C	0.116014	-1.056598	0.554134
C149	C	0.449347	-0.723264	0.887467
C150	C	0.782680	-0.389931	1.220801
H151	H	-0.455522	-1.212685	0.000188
H152	H	-0.122188	-0.879352	0.333521
H153	H	0.211145	-0.546019	0.666854
H154	H	0.012551	-1.166941	0.256018
H155	H	0.345885	-0.833608	0.589352
H156	H	0.679218	-0.500274	0.922685
Br157	Br	0.300874	-0.785253	0.000063
Br158	Br	0.634207	-0.451920	0.333396
Br159	Br	0.967540	-0.118586	0.666730
Br160	Br	0.295766	-0.497507	0.000086
Br161	Br	0.629099	-0.164174	0.333419
Br162	Br	0.962432	0.169159	0.666752
Br163	Br	-0.327730	-1.160424	0.188164
Br164	Br	0.005603	-0.827091	0.521498
Br165	Br	0.338937	-0.493757	0.854831
H166	H	0.012553	-1.166948	0.436809
H167	H	0.345886	-0.833615	0.770142
H168	H	0.679219	-0.500281	1.103475
H169	H	-0.426708	-0.977097	0.144291
H170	H	-0.093375	-0.643764	0.477624
H171	H	0.239959	-0.310430	0.810958
H172	H	-0.312615	-0.900408	0.000184
H173	H	0.020718	-0.567074	0.333517
H174	H	0.354052	-0.233741	0.666850
H175	H	0.012560	-1.166971	0.563384
H176	H	0.345893	-0.833638	0.896717
H177	H	0.679227	-0.500304	1.230051
H178	H	0.250777	-0.308713	0.000120
H179	H	0.584110	0.024620	0.333453
H180	H	0.917444	0.357953	0.666786
Br181	Br	0.250417	-0.913188	0.463872
Br182	Br	0.583751	-0.579855	0.797205
Br183	Br	0.917084	-0.246521	1.130538
Br184	Br	-0.440272	-0.952842	-0.187943
Br185	Br	-0.106939	-0.619508	0.145390
Br186	Br	0.226395	-0.286175	0.478724
H187	H	0.012563	-1.166986	0.744185
H188	H	0.345896	-0.833653	1.077519
H189	H	0.679229	-0.500319	1.410852
H190	H	0.219477	-0.946251	0.744191
H191	H	0.552810	-0.612917	1.077525
H192	H	0.886144	-0.279584	1.410858
Br193	Br	0.250425	-0.913196	0.536345
Br194	Br	0.583758	-0.579863	0.869679
Br195	Br	0.917092	-0.246529	1.203012
Br196	Br	-0.059830	-0.835591	0.000099
Br197	Br	0.273504	-0.502258	0.333433
Br198	Br	0.606837	-0.168925	0.666766
H199	H	-0.341158	-1.136153	-0.143914
H200	H	-0.007825	-0.802820	0.189420
H201	H	0.325508	-0.469486	0.522753
H202	H	0.219457	-0.946197	0.256025
H203	H	0.552791	-0.612864	0.589358
H204	H	0.886124	-0.279530	0.922691
H205	H	0.255881	-0.596476	0.000095
H206	H	0.589214	-0.263142	0.333428
H207	H	0.922548	0.070191	0.666761
Br208	Br	-0.068836	-0.327918	0.000159
Br209	Br	0.264497	0.005415	0.333492
Br210	Br	0.597831	0.338748	0.666826
Br211	Br	-0.064939	-0.547837	0.000118
Br212	Br	0.268394	-0.214503	0.333451
Br213	Br	0.601728	0.118830	0.666784
H214	H	-0.021742	-0.635203	0.000119
H215	H	0.311592	-0.301869	0.333452
H216	H	0.644925	0.031464	0.666786
