data_functionalizedCrystal
_audit_creation_method	'MofGen! by Chris Wilmer'
_symmetry_space_group_name_H-M	'P1'
_symmetry_Int_Tables_number	1
_symmetry_cell_setting	triclinic
loop_
_symmetry_equiv_pos_as_xyz
  x,y,z
_cell_length_a	17.077404
_cell_length_b	21.295417
_cell_length_c	17.077396
_cell_angle_alpha	89.966808
_cell_angle_beta	89.980499
_cell_angle_gamma	90.030732
loop_
_atom_site_label
_atom_site_type_symbol
_atom_site_fract_x
_atom_site_fract_y
_atom_site_fract_z
Zn1	Zn	1.200013	-0.250605	-0.443817
Zn2	Zn	1.700013	0.249395	0.056183
Zn3	Zn	1.199903	-0.355878	-0.312540
Zn4	Zn	1.699903	0.144122	0.187460
Zn5	Zn	1.068745	-0.250628	-0.312565
Zn6	Zn	1.568745	0.249372	0.187435
Zn7	Zn	1.068695	-0.355841	-0.443764
Zn8	Zn	1.568695	0.144159	0.056236
O9	O	1.134339	-0.303238	-0.378171
O10	O	1.634339	0.196762	0.121829
O11	O	1.309845	-0.264577	-0.426415
O12	O	1.809845	0.235423	0.073585
O13	O	1.182479	-0.341942	-0.202697
O14	O	1.682479	0.158058	0.297303
O15	O	1.086225	-0.162535	-0.330008
O16	O	1.586225	0.337465	0.169992
O17	O	1.309764	-0.341920	-0.329966
O18	O	1.809764	0.158080	0.170034
O19	O	1.182667	-0.162519	-0.426439
O20	O	1.682667	0.337481	0.073561
O21	O	1.086118	-0.264614	-0.202715
O22	O	1.586118	0.235386	0.297285
O23	O	0.958891	-0.264578	-0.329957
O24	O	1.458891	0.235422	0.170043
O25	O	1.086140	-0.341857	-0.553618
O26	O	1.586140	0.158143	-0.053618
O27	O	0.958855	-0.341878	-0.426348
O28	O	1.458855	0.158122	0.073652
O29	O	1.182619	-0.264540	-0.553657
O30	O	1.682619	0.235460	-0.053657
O31	O	1.182431	-0.443963	-0.329915
O32	O	1.682431	0.056037	0.170085
O33	O	1.086033	-0.443935	-0.426324
O34	O	1.586033	0.056065	0.073676
C35	C	0.930391	-0.303227	-0.378150
C36	C	1.430391	0.196773	0.121850
C37	C	0.843141	-0.303237	-0.378159
C38	C	1.343141	0.196763	0.121841
C39	C	0.802153	-0.343548	-0.428270
C40	C	1.302153	0.156452	0.071730
C41	C	0.720172	-0.343549	-0.428282
C42	C	1.220172	0.156451	0.071718
C43	C	0.679182	-0.303242	-0.378180
C44	C	1.179182	0.196758	0.121820
C45	C	0.720176	-0.262927	-0.328067
C46	C	1.220176	0.237073	0.171933
C47	C	0.802155	-0.262923	-0.328059
C48	C	1.302155	0.237077	0.171941
C49	C	0.549306	-0.262940	-0.328086
C50	C	1.049306	0.237060	0.171914
C51	C	0.467322	-0.262944	-0.328093
C52	C	0.967322	0.237056	0.171907
C53	C	0.467323	-0.343566	-0.428309
C54	C	0.967323	0.156434	0.071691
C55	C	0.549302	-0.343562	-0.428301
C56	C	1.049302	0.156438	0.071699
C57	C	0.590291	-0.303247	-0.378187
C58	C	1.090291	0.196753	0.121813
C59	C	1.134236	-0.466790	-0.378128
C60	C	1.634236	0.033210	0.121872
C61	C	1.134264	-0.536758	-0.378136
C62	C	1.634264	-0.036758	0.121864
C63	C	1.184503	-0.569618	-0.327987
C64	C	1.684503	-0.069618	0.172013
C65	C	1.184539	-0.635360	-0.328004
C66	C	1.684539	-0.135360	0.171996
C67	C	1.134323	-0.668240	-0.378163
C68	C	1.634323	-0.168240	0.121837
C69	C	1.084081	-0.635372	-0.428321
C70	C	1.584081	-0.135372	0.071679
C71	C	1.084051	-0.569631	-0.428308
C72	C	1.584051	-0.069631	0.071692
N73	N	1.065655	-0.771506	-0.384140
N74	N	1.565655	-0.271506	0.115860
N75	N	1.065685	-0.833958	-0.384148
N76	N	1.565685	-0.333958	0.115852
C77	C	1.134411	-0.866315	-0.378208
C78	C	1.634411	-0.366315	0.121792
N79	N	1.203107	-0.833862	-0.372244
N80	N	1.703107	-0.333862	0.127756
N81	N	1.203076	-0.771405	-0.372231
N82	N	1.703076	-0.271405	0.127769
C83	C	1.134351	-0.739526	-0.378183
C84	C	1.634351	-0.239526	0.121817
C85	C	1.184694	-0.970461	-0.328075
C86	C	1.684694	-0.470461	0.171925
C87	C	1.184732	-1.036204	-0.328098
C88	C	1.684732	-0.536204	0.171902
C89	C	1.084267	-1.036215	-0.428411
C90	C	1.584267	-0.536215	0.071589
C91	C	1.084236	-0.970473	-0.428392
C92	C	1.584236	-0.470473	0.071608
C93	C	1.134449	-0.937599	-0.378220
C94	C	1.634449	-0.437599	0.121780
C95	C	1.339083	-0.303250	-0.378194
C96	C	1.839083	0.196750	0.121806
C97	C	1.426333	-0.303255	-0.378203
C98	C	1.926333	0.196745	0.121797
C99	C	1.134386	-0.303192	-0.582916
C100	C	1.634386	0.196808	-0.082916
C101	C	1.134407	-0.303172	-0.670166
C102	C	1.634407	0.196828	-0.170166
C103	C	1.134464	-0.139048	-0.378232
C104	C	1.634464	0.360952	0.121768
C105	C	1.134517	-0.069080	-0.378258
C106	C	1.634517	0.430920	0.121742
C107	C	1.184645	-0.262910	-0.711177
C108	C	1.684645	0.237090	-0.211177
C109	C	1.184654	-0.262889	-0.793158
C110	C	1.684654	0.237111	-0.293158
C111	C	1.134429	-0.303134	-0.834125
C112	C	1.634429	0.196866	-0.334125
C113	C	1.084185	-0.343397	-0.793108
C114	C	1.584185	0.156603	-0.293108
C115	C	1.084172	-0.343415	-0.711129
C116	C	1.584172	0.156585	-0.211129
C117	C	1.084217	-0.343360	-0.963978
C118	C	1.584217	0.156640	-0.463978
C119	C	1.084231	-0.343343	-1.045963
C120	C	1.584231	0.156657	-0.545963
C121	C	1.184699	-0.262834	-1.046007
C122	C	1.684699	0.237166	-0.546007
C123	C	1.184686	-0.262851	-0.964028
C124	C	1.684686	0.237149	-0.464028
C125	C	1.134443	-0.303116	-0.923016
C126	C	1.634443	0.196884	-0.423016
C127	C	1.134337	-0.303239	-0.174224
C128	C	1.634337	0.196761	0.325776
C129	C	1.134469	-0.303081	-0.086974
C130	C	1.634469	0.196919	0.413026
H131	H	0.686795	-0.230106	-0.287276
H132	H	1.186795	0.269894	0.212724
O133	O	0.842002	-0.382769	-0.476828
O134	O	1.342002	0.117231	0.023172
C135	C	0.889394	-0.423371	-0.432043
C136	C	1.389394	0.076629	0.067957
H137	H	0.864661	-0.427199	-0.370212
H138	H	1.364661	0.072801	0.129788
H139	H	0.951535	-0.403902	-0.429379
H140	H	1.451535	0.096098	0.070621
C141	C	0.921006	-0.484146	-0.546188
C142	C	1.421006	0.015854	-0.046188
C143	C	0.890625	-0.488852	-0.470247
C144	C	1.390625	0.011148	0.029753
H145	H	0.921769	-0.524537	-0.569755
H146	H	1.421769	-0.024537	-0.069755
H147	H	0.889080	-0.456791	-0.576361
H148	H	1.389080	0.043209	-0.076361
H149	H	0.972788	-0.467920	-0.543957
H150	H	1.472788	0.032080	-0.043957
H151	H	0.838841	-0.505070	-0.472480
H152	H	1.338841	-0.005070	0.027520
H153	H	0.922543	-0.516212	-0.440075
H154	H	1.422543	-0.016212	0.059925
O155	O	0.680478	-0.382774	-0.476975
O156	O	1.180478	0.117226	0.023025
C157	C	0.734236	-0.418344	-0.521200
C158	C	1.234236	0.081656	-0.021200
H159	H	0.792659	-0.420479	-0.489038
H160	H	1.292659	0.079521	0.010962
H161	H	0.742991	-0.395363	-0.580877
H162	H	1.242991	0.104637	-0.080877
C163	C	0.630455	-0.482735	-0.571844
C164	C	1.130455	0.017265	-0.071844
C165	C	0.702210	-0.485362	-0.532339
C166	C	1.202210	0.014638	-0.032339
H167	H	0.610699	-0.524074	-0.578719
H168	H	1.110699	-0.024074	-0.078719
H169	H	0.594236	-0.458770	-0.542051
H170	H	1.094236	0.041230	-0.042051
H171	H	0.637761	-0.463582	-0.621571
H172	H	1.137761	0.036418	-0.121571
H173	H	0.694901	-0.504507	-0.482610
H174	H	1.194901	-0.004507	0.017390
H175	H	0.738426	-0.509332	-0.562124
H176	H	1.238426	-0.009332	-0.062124
H177	H	1.043288	-0.376163	-0.826470
H178	H	1.543288	0.123837	-0.326470
H179	H	1.225565	-0.230105	-0.826546
H180	H	1.725565	0.269895	-0.326546
H181	H	0.433949	-0.230115	-0.287304
H182	H	0.933949	0.269885	0.212696
H183	H	0.582677	-0.230106	-0.287285
H184	H	1.082677	0.269894	0.212715
O185	O	0.841853	-0.223749	-0.279303
O186	O	1.341853	0.276251	0.220697
C187	C	0.788097	-0.188164	-0.235094
C188	C	1.288097	0.311836	0.264906
H189	H	0.729642	-0.213947	-0.232324
H190	H	1.229642	0.286053	0.267676
H191	H	0.779420	-0.140384	-0.263948
H192	H	1.279420	0.359616	0.236052
C193	C	0.891855	-0.147340	-0.154969
C194	C	1.391855	0.352660	0.345031
C195	C	0.820061	-0.179010	-0.151561
C196	C	1.320061	0.320990	0.348439
H197	H	0.911572	-0.141691	-0.103443
H198	H	1.411572	0.358309	0.396557
H199	H	0.928072	-0.171312	-0.184755
H200	H	1.428072	0.328688	0.315245
H201	H	0.884614	-0.107527	-0.179017
H202	H	1.384614	0.392473	0.320983
H203	H	0.827304	-0.218826	-0.127522
H204	H	1.327304	0.281174	0.372478
H205	H	0.783846	-0.155045	-0.121769
H206	H	1.283846	0.344955	0.378231
O207	O	1.035597	-1.068215	-0.477177
O208	O	1.535597	-0.568215	0.022823
C209	C	1.080280	-1.106165	-0.527940
C210	C	1.580280	-0.606165	-0.027940
H211	H	1.139787	-1.115988	-0.500310
H212	H	1.639787	-0.615988	-0.000310
H213	H	1.088861	-1.080784	-0.586112
H214	H	1.588861	-0.580784	-0.086112
C215	C	0.964024	-1.156570	-0.576069
C216	C	1.464024	-0.656570	-0.076069
C217	C	1.037109	-1.168639	-0.542130
C218	C	1.537109	-0.668639	-0.042130
H219	H	0.937394	-1.195106	-0.584825
H220	H	1.437394	-0.695106	-0.084825
H221	H	0.933920	-1.131001	-0.541871
H222	H	1.433920	-0.631001	-0.041871
H223	H	0.971185	-1.135418	-0.624542
H224	H	1.471185	-0.635418	-0.124542
H225	H	1.029947	-1.189783	-0.493654
H226	H	1.529947	-0.689783	0.006346
H227	H	1.067212	-1.194213	-0.576320
H228	H	1.567212	-0.694213	-0.076320
O229	O	1.233612	-0.223785	-1.085811
O230	O	1.733612	0.276215	-0.585811
C231	C	1.311834	-0.237542	-1.065780
C232	C	1.811834	0.262458	-0.565780
H233	H	1.315757	-0.287835	-1.043226
H234	H	1.815757	0.212165	-0.543226
H235	H	1.332377	-0.203804	-1.018214
H236	H	1.832377	0.296196	-0.518214
C237	C	1.359415	-0.168432	-1.166324
C238	C	1.859415	0.331568	-0.666324
C239	C	1.364234	-0.230206	-1.138629
C240	C	1.864234	0.269794	-0.638629
H241	H	1.391738	-0.163905	-1.211259
H242	H	1.891738	0.336095	-0.711259
H243	H	1.306715	-0.159162	-1.179817
H244	H	1.806715	0.340838	-0.679817
H245	H	1.376532	-0.140325	-1.126679
H246	H	1.876532	0.359675	-0.626679
H247	H	1.347107	-0.258312	-1.178270
H248	H	1.847107	0.241688	-0.678270
H249	H	1.416932	-0.239481	-1.125144
H250	H	1.916932	0.260519	-0.625144
O251	O	0.427390	-0.382666	-0.476969
O252	O	0.927390	0.117334	0.023031
C253	C	0.346244	-0.374037	-0.466225
C254	C	0.846244	0.125963	0.033775
H255	H	0.335064	-0.325430	-0.440633
H256	H	0.835064	0.174570	0.059367
H257	H	0.322936	-0.411332	-0.424338
H258	H	0.822936	0.088668	0.075662
C259	C	0.317922	-0.439590	-0.577074
C260	C	0.817922	0.060410	-0.077074
C261	C	0.304190	-0.379889	-0.545648
C262	C	0.804190	0.120111	-0.045648
H263	H	0.291980	-0.443203	-0.626064
H264	H	0.791980	0.056797	-0.126064
H265	H	0.372591	-0.445406	-0.584311
H266	H	0.872591	0.054594	-0.084311
H267	H	0.298498	-0.470663	-0.542161
H268	H	0.798498	0.029337	-0.042161
H269	H	0.323622	-0.348818	-0.580556
H270	H	0.823622	0.151182	-0.080556
H271	H	0.249523	-0.374068	-0.538418
H272	H	0.749523	0.125932	-0.038418
H273	H	1.225588	-0.230084	-0.930675
H274	H	1.725588	0.269916	-0.430675
O275	O	1.035546	-0.382493	-1.085800
O276	O	1.535546	0.117507	-0.585800
C277	C	1.080202	-0.423136	-1.133232
C278	C	1.580202	0.076864	-0.633232
H279	H	1.142016	-0.427051	-1.108532
H280	H	1.642016	0.072949	-0.608532
H281	H	1.082944	-0.403650	-1.195366
H282	H	1.582944	0.096350	-0.695366
C283	C	0.965858	-0.483754	-1.164816
C284	C	1.465858	0.016246	-0.664816
C285	C	1.041777	-0.488568	-1.134474
C286	C	1.541777	0.011432	-0.634474
H287	H	0.942155	-0.524115	-1.165585
H288	H	1.442155	-0.024115	-0.665585
H289	H	0.935771	-0.456371	-1.132862
H290	H	1.435771	0.043629	-0.632862
H291	H	0.968153	-0.467514	-1.216591
H292	H	1.468153	0.032486	-0.716591
H293	H	1.039480	-0.504800	-1.082697
H294	H	1.539480	-0.004800	-0.582697
H295	H	1.071863	-0.515955	-1.166420
H296	H	1.571863	-0.015955	-0.666420
O297	O	1.233365	-0.667192	-0.279210
O298	O	1.733365	-0.167192	0.220790
C299	C	1.277692	-0.624080	-0.234941
C300	C	1.777692	-0.124080	0.265059
H301	H	1.245525	-0.577240	-0.232187
H302	H	1.745525	-0.077240	0.267813
H303	H	1.337294	-0.617032	-0.263732
H304	H	1.837294	-0.117032	0.236268
C305	C	1.328561	-0.707311	-0.154793
C306	C	1.828561	-0.207311	0.345207
C307	C	1.289049	-0.649782	-0.151405
C308	C	1.789049	-0.149782	0.348595
H309	H	1.335570	-0.723166	-0.103266
H310	H	1.835570	-0.223166	0.396734
H311	H	1.298700	-0.736357	-0.184620
H312	H	1.798700	-0.236357	0.315380
H313	H	1.378225	-0.701429	-0.178789
H314	H	1.878225	-0.201429	0.321211
H315	H	1.239383	-0.655666	-0.127419
H316	H	1.739383	-0.155666	0.372581
H317	H	1.318903	-0.620738	-0.121573
H318	H	1.818903	-0.120738	0.378427
H319	H	1.043196	-0.662147	-0.469162
H320	H	1.543196	-0.162147	0.030838
O321	O	1.233171	-0.537660	-0.279172
O322	O	1.733171	-0.037660	0.220828
C323	C	1.188497	-0.499681	-0.228435
C324	C	1.688497	0.000319	0.271565
H325	H	1.126682	-0.519537	-0.223535
H326	H	1.626682	-0.019537	0.276465
H327	H	1.185762	-0.449844	-0.252691
H328	H	1.685762	0.050156	0.247309
C329	C	1.302814	-0.474311	-0.152885
C330	C	1.802814	0.025689	0.347115
C331	C	1.226894	-0.498700	-0.146862
C332	C	1.726894	0.001300	0.353138
H333	H	1.326501	-0.473702	-0.102568
H334	H	1.826501	0.026298	0.397432
H335	H	1.332914	-0.499895	-0.187069
H336	H	1.832914	0.000105	0.312931
H337	H	1.300525	-0.432782	-0.173101
H338	H	1.800525	0.067218	0.326899
H339	H	1.229186	-0.540231	-0.126655
H340	H	1.729186	-0.040231	0.373345
H341	H	1.196796	-0.473122	-0.112672
H342	H	1.696796	0.026878	0.387328
O343	O	1.233545	-0.938620	-0.279319
O344	O	1.733545	-0.438620	0.220681
C345	C	1.277887	-0.981725	-0.235048
C346	C	1.777887	-0.481725	0.264952
H347	H	1.280613	-1.028564	-0.267217
H348	H	1.780613	-0.528564	0.232783
H349	H	1.249177	-0.988778	-0.175408
H350	H	1.749177	-0.488778	0.324592
C351	C	1.358075	-0.898480	-0.184290
C352	C	1.858075	-0.398480	0.315710
C353	C	1.361429	-0.956008	-0.223803
C354	C	1.861429	-0.456008	0.276197
H355	H	1.409607	-0.882617	-0.177350
H356	H	1.909607	-0.382617	0.322650
H357	H	1.328199	-0.869439	-0.214114
H358	H	1.828199	-0.369439	0.285886
H359	H	1.334147	-0.904366	-0.134594
H360	H	1.834147	-0.404366	0.365406
H361	H	1.385348	-0.950120	-0.273502
H362	H	1.885348	-0.450120	0.226498
H363	H	1.391311	-0.985047	-0.193988
H364	H	1.891311	-0.485047	0.306012
H365	H	1.043291	-0.376138	-0.930589
H366	H	1.543291	0.123862	-0.430589
H367	H	1.043140	-0.542876	-0.469146
H368	H	1.543140	-0.042876	0.030854
H369	H	1.225547	-0.230140	-0.677828
H370	H	1.725547	0.269860	-0.177828
H371	H	1.225648	-1.062958	-0.287263
H372	H	1.725648	-0.562958	0.212737
O373	O	1.035464	-0.938619	-0.477209
O374	O	1.535464	-0.438619	0.022791
C375	C	1.052591	-0.954611	-0.555466
C376	C	1.552591	-0.454611	-0.055466
H377	H	1.082789	-1.002320	-0.557133
H378	H	1.582789	-0.502320	-0.057133
H379	H	1.092913	-0.917565	-0.581936
H380	H	1.592913	-0.417565	-0.081936
C381	C	0.938947	-0.899080	-0.600894
C382	C	1.438947	-0.399080	-0.100894
C383	C	0.976031	-0.957679	-0.602942
C384	C	1.476031	-0.457679	-0.102942
H385	H	0.891723	-0.900970	-0.630181
H386	H	1.391723	-0.400970	-0.130181
H387	H	0.927410	-0.888303	-0.548171
H388	H	1.427410	-0.388303	-0.048171
H389	H	0.972557	-0.868214	-0.622951
H390	H	1.472557	-0.368214	-0.122951
H391	H	0.942425	-0.988542	-0.580877
H392	H	1.442425	-0.488542	-0.080877
H393	H	0.987561	-0.968461	-0.655662
H394	H	1.487561	-0.468461	-0.155662
H395	H	0.582674	-0.376386	-0.469094
H396	H	1.082674	0.123614	0.030906
H397	H	1.043255	-0.376194	-0.677738
H398	H	1.543255	0.123806	-0.177738
