data_functionalizedCrystal
_audit_creation_method	'MofGen! by Chris Wilmer'
_symmetry_space_group_name_H-M	'P1'
_symmetry_Int_Tables_number	1
_symmetry_cell_setting	triclinic
loop_
_symmetry_equiv_pos_as_xyz
  x,y,z
_cell_length_a	18.215407
_cell_length_b	12.827892
_cell_length_c	18.215399
_cell_angle_alpha	89.976162
_cell_angle_beta	89.980167
_cell_angle_gamma	90.015840
loop_
_atom_site_label
_atom_site_type_symbol
_atom_site_fract_x
_atom_site_fract_y
_atom_site_fract_z
Zn1	Zn	1.125121	-0.416031	-0.416137
Zn2	Zn	1.375121	-0.166031	-0.166137
Zn3	Zn	1.625121	0.083969	0.083863
Zn4	Zn	1.875121	0.333969	0.333863
Zn5	Zn	1.125049	-0.590790	-0.293079
Zn6	Zn	1.375049	-0.340790	-0.043079
Zn7	Zn	1.625049	-0.090790	0.206921
Zn8	Zn	1.875049	0.159210	0.456921
Zn9	Zn	1.002053	-0.416065	-0.293084
Zn10	Zn	1.252053	-0.166065	-0.043084
Zn11	Zn	1.502053	0.083935	0.206916
Zn12	Zn	1.752053	0.333935	0.456916
Zn13	Zn	1.002039	-0.590732	-0.416104
Zn14	Zn	1.252039	-0.340732	-0.166104
Zn15	Zn	1.502039	-0.090732	0.083896
Zn16	Zn	1.752039	0.159268	0.333896
O17	O	1.063566	-0.503405	-0.354601
O18	O	1.313566	-0.253405	-0.104601
O19	O	1.563566	-0.003405	0.145399
O20	O	1.813566	0.246595	0.395399
O21	O	1.228095	-0.439223	-0.399825
O22	O	1.478095	-0.189223	-0.149825
O23	O	1.728095	0.060777	0.100175
O24	O	1.978095	0.310777	0.350175
O25	O	1.108710	-0.567651	-0.190096
O26	O	1.358710	-0.317651	0.059904
O27	O	1.608710	-0.067651	0.309904
O28	O	1.858710	0.182349	0.559904
O29	O	1.018414	-0.269825	-0.309423
O30	O	1.268414	-0.019825	-0.059423
O31	O	1.518414	0.230175	0.190577
O32	O	1.768414	0.480175	0.440577
O33	O	1.228043	-0.567618	-0.309415
O34	O	1.478043	-0.317618	-0.059415
O35	O	1.728043	-0.067618	0.190585
O36	O	1.978043	0.182382	0.440585
O37	O	1.108831	-0.269800	-0.399829
O38	O	1.358831	-0.019800	-0.149829
O39	O	1.608831	0.230200	0.100171
O40	O	1.858831	0.480200	0.350171
O41	O	1.018345	-0.439282	-0.190099
O42	O	1.268345	-0.189282	0.059901
O43	O	1.518345	0.060718	0.309901
O44	O	1.768345	0.310718	0.559901
O45	O	0.899067	-0.439225	-0.309392
O46	O	1.149067	-0.189225	-0.059392
O47	O	1.399067	0.060775	0.190608
O48	O	1.649067	0.310775	0.440608
O49	O	1.018390	-0.567519	-0.519093
O50	O	1.268390	-0.317519	-0.269093
O51	O	1.518390	-0.067519	-0.019093
O52	O	1.768390	0.182481	0.230907
O53	O	0.899057	-0.567552	-0.399774
O54	O	1.149057	-0.317552	-0.149774
O55	O	1.399057	-0.067552	0.100226
O56	O	1.649057	0.182448	0.350226
O57	O	1.108818	-0.439167	-0.519117
O58	O	1.358818	-0.189167	-0.269117
O59	O	1.608818	0.060833	-0.019117
O60	O	1.858818	0.310833	0.230883
O61	O	1.108696	-0.737019	-0.309383
O62	O	1.358696	-0.487019	-0.059383
O63	O	1.608696	-0.237019	0.190617
O64	O	1.858696	0.012981	0.440617
O65	O	1.018321	-0.736976	-0.399769
O66	O	1.268321	-0.486976	-0.149769
O67	O	1.518321	-0.236976	0.100231
O68	O	1.768321	0.013024	0.350231
C69	C	0.872359	-0.503387	-0.354580
C70	C	1.122359	-0.253387	-0.104580
C71	C	1.372359	-0.003387	0.145420
C72	C	1.622359	0.246613	0.395420
C73	C	0.790560	-0.503405	-0.354589
C74	C	1.040560	-0.253405	-0.104589
C75	C	1.290560	-0.003405	0.145411
C76	C	1.540560	0.246595	0.395411
C77	C	0.602380	-0.570329	-0.401592
C78	C	0.852380	-0.320329	-0.151592
C79	C	1.102380	-0.070329	0.098408
C80	C	1.352380	0.179671	0.348408
C81	C	0.525522	-0.570333	-0.401601
C82	C	0.775522	-0.320333	-0.151601
C83	C	1.025522	-0.070333	0.098399
C84	C	1.275522	0.179667	0.348399
C85	C	0.525503	-0.436499	-0.307627
C86	C	0.775503	-0.186499	-0.057627
C87	C	1.025503	0.063501	0.192373
C88	C	1.275503	0.313501	0.442373
C89	C	0.602360	-0.436491	-0.307622
C90	C	0.852360	-0.186491	-0.057622
C91	C	1.102360	0.063509	0.192378
C92	C	1.352360	0.313509	0.442378
C93	C	0.640797	-0.503413	-0.354603
C94	C	0.890797	-0.253413	-0.104603
C95	C	1.140797	-0.003413	0.145397
C96	C	1.390797	0.246587	0.395397
C97	C	0.487081	-0.503424	-0.354617
C98	C	0.737081	-0.253424	-0.104617
C99	C	0.987081	-0.003424	0.145383
C100	C	1.237081	0.246576	0.395383
C101	C	0.403747	-0.503427	-0.354627
C102	C	0.653747	-0.253427	-0.104627
C103	C	0.903747	-0.003427	0.145373
C104	C	1.153747	0.246573	0.395373
C105	C	0.724136	-0.503408	-0.354595
C106	C	0.974136	-0.253408	-0.104595
C107	C	1.224136	-0.003408	0.145405
C108	C	1.474136	0.246592	0.395405
C109	C	1.063520	-0.774915	-0.354588
C110	C	1.313520	-0.524915	-0.104588
C111	C	1.563520	-0.274915	0.145412
C112	C	1.813520	-0.024915	0.395412
C113	C	1.063567	-0.891068	-0.354607
C114	C	1.313567	-0.641068	-0.104607
C115	C	1.563567	-0.391068	0.145393
C116	C	1.813567	-0.141068	0.395393
C117	C	1.108341	-0.942839	-0.309931
C118	C	1.358341	-0.692839	-0.059931
C119	C	1.608341	-0.442839	0.190069
C120	C	1.858341	-0.192839	0.440069
C121	C	1.108391	-1.062889	-0.309950
C122	C	1.358391	-0.812889	-0.059950
C123	C	1.608391	-0.562889	0.190050
C124	C	1.858391	-0.312889	0.440050
C125	C	1.255518	-0.503424	-0.354623
C126	C	1.505518	-0.253424	-0.104623
C127	C	1.755518	-0.003424	0.145377
C128	C	2.005518	0.246576	0.395377
C129	C	1.337317	-0.503432	-0.354632
C130	C	1.587317	-0.253432	-0.104632
C131	C	1.837317	-0.003432	0.145368
C132	C	2.087317	0.246568	0.395368
C133	C	1.063610	-0.503333	-0.546554
C134	C	1.313610	-0.253333	-0.296554
C135	C	1.563610	-0.003333	-0.046554
C136	C	1.813610	0.246667	0.203446
C137	C	1.063629	-0.503302	-0.628353
C138	C	1.313629	-0.253302	-0.378353
C139	C	1.563629	-0.003302	-0.128353
C140	C	1.813629	0.246698	0.121647
C141	C	1.063632	-0.230835	-0.354630
C142	C	1.313632	0.019165	-0.104630
C143	C	1.563632	0.269165	0.145370
C144	C	1.813632	0.519165	0.395370
C145	C	1.063660	-0.114682	-0.354643
C146	C	1.313660	0.135318	-0.104643
C147	C	1.563660	0.385318	0.145357
C148	C	1.813660	0.635318	0.395357
C149	C	1.110732	-0.436407	-0.816561
C150	C	1.360732	-0.186407	-0.566561
C151	C	1.610732	0.063593	-0.316561
C152	C	1.860732	0.313593	-0.066561
C153	C	1.110741	-0.436376	-0.893420
C154	C	1.360741	-0.186376	-0.643420
C155	C	1.610741	0.063624	-0.393420
C156	C	1.860741	0.313624	-0.143420
C157	C	1.016579	-0.570036	-0.893383
C158	C	1.266579	-0.320036	-0.643383
C159	C	1.516579	-0.070036	-0.393383
C160	C	1.766579	0.179964	-0.143383
C161	C	1.016567	-0.570060	-0.816526
C162	C	1.266567	-0.320060	-0.566526
C163	C	1.516567	-0.070060	-0.316526
C164	C	1.766567	0.179940	-0.066526
C165	C	1.063648	-0.503247	-0.778117
C166	C	1.313648	-0.253247	-0.528117
C167	C	1.563648	-0.003247	-0.278117
C168	C	1.813648	0.246753	-0.028117
C169	C	1.063668	-0.503192	-0.931833
C170	C	1.313668	-0.253192	-0.681833
C171	C	1.563668	-0.003192	-0.431833
C172	C	1.813668	0.246808	-0.181833
C173	C	1.063678	-0.503160	-1.015167
C174	C	1.313678	-0.253160	-0.765167
C175	C	1.563678	-0.003160	-0.515167
C176	C	1.813678	0.246840	-0.265167
C177	C	1.063638	-0.503278	-0.694778
C178	C	1.313638	-0.253278	-0.444778
C179	C	1.563638	-0.003278	-0.194778
C180	C	1.813638	0.246722	0.055222
C181	C	1.063563	-0.503401	-0.163395
C182	C	1.313563	-0.253401	0.086605
C183	C	1.563563	-0.003401	0.336605
C184	C	1.813563	0.246599	0.586605
C185	C	1.063687	-0.503138	-0.081597
C186	C	1.313687	-0.253138	0.168403
C187	C	1.563687	-0.003138	0.418403
C188	C	1.813687	0.246862	0.668403
H189	H	0.633639	-0.381993	-0.269358
H190	H	0.883639	-0.131993	-0.019358
H191	H	1.133639	0.118007	0.230642
H192	H	1.383639	0.368007	0.480642
Cl193	Cl	1.004444	-0.959846	-0.413689
Cl194	Cl	1.254444	-0.709846	-0.163689
Cl195	Cl	1.504444	-0.459846	0.086311
Cl196	Cl	1.754444	-0.209846	0.336311
Cl197	Cl	1.169941	-0.352353	-0.941746
Cl198	Cl	1.419941	-0.102353	-0.691746
Cl199	Cl	1.669941	0.147647	-0.441746
Cl200	Cl	1.919941	0.397647	-0.191746
Cl201	Cl	1.167572	-1.131622	-0.250889
Cl202	Cl	1.417572	-0.881622	-0.000889
Cl203	Cl	1.667572	-0.631622	0.249111
Cl204	Cl	1.917572	-0.381622	0.499111
Cl205	Cl	1.004469	-1.045956	-0.413697
Cl206	Cl	1.254469	-0.795956	-0.163697
Cl207	Cl	1.504469	-0.545956	0.086303
Cl208	Cl	1.754469	-0.295956	0.336303
H209	H	1.146639	-0.898288	-0.271671
H210	H	1.396639	-0.648288	-0.021671
H211	H	1.646639	-0.398288	0.228329
H212	H	1.896639	-0.148288	0.478329
H213	H	0.978249	-0.624435	-0.924666
H214	H	1.228249	-0.374435	-0.674666
H215	H	1.478249	-0.124435	-0.424666
H216	H	1.728249	0.125565	-0.174666
Cl217	Cl	0.650699	-0.654454	-0.460657
Cl218	Cl	0.900699	-0.404454	-0.210657
Cl219	Cl	1.150699	-0.154454	0.039343
Cl220	Cl	1.400699	0.095546	0.289343
Cl221	Cl	0.477230	-0.654459	-0.460676
Cl222	Cl	0.727230	-0.404459	-0.210676
Cl223	Cl	0.977230	-0.154459	0.039324
Cl224	Cl	1.227230	0.095541	0.289324
Cl225	Cl	0.477177	-0.352377	-0.248567
Cl226	Cl	0.727177	-0.102377	0.001433
Cl227	Cl	0.977177	0.147623	0.251433
Cl228	Cl	1.227177	0.397623	0.501433
H229	H	1.149066	-0.382000	-0.785290
H230	H	1.399066	-0.132000	-0.535290
H231	H	1.649066	0.118000	-0.285290
H232	H	1.899066	0.368000	-0.035290
Cl233	Cl	0.957367	-0.654090	-0.768193
Cl234	Cl	1.207367	-0.404090	-0.518193
Cl235	Cl	1.457367	-0.154090	-0.268193
Cl236	Cl	1.707367	0.095910	-0.018193
