data_functionalizedCrystal
_audit_creation_method	'MofGen! by Chris Wilmer'
_symmetry_space_group_name_H-M	'P1'
_symmetry_Int_Tables_number	1
_symmetry_cell_setting	triclinic
loop_
_symmetry_equiv_pos_as_xyz
  x,y,z
_cell_length_a	42.784839
_cell_length_b	42.784841
_cell_length_c	42.784893
_cell_angle_alpha	90.002418
_cell_angle_beta	59.997780
_cell_angle_gamma	119.999863
loop_
_atom_site_label
_atom_site_type_symbol
_atom_site_fract_x
_atom_site_fract_y
_atom_site_fract_z
O1	O	0.275695	-0.214412	-0.009300
O2	O	0.211692	-0.168961	0.009253
O3	O	0.275692	-0.168961	-0.054750
O4	O	0.211694	-0.214412	0.054702
O5	O	0.223708	-0.220945	-0.054749
O6	O	0.159708	-0.220945	0.009253
O7	O	0.223710	-0.266397	-0.009300
Zn8	Zn	0.183455	-0.251924	-0.000023
Zn9	Zn	0.251947	-0.183433	-0.000024
O10	O	0.159710	-0.266396	0.054703
C11	C	0.051021	-0.022778	0.028112
C12	C	0.013142	-0.041761	0.028375
C13	C	0.051018	-0.079378	0.028116
C14	C	0.013139	-0.098275	0.028379
C15	C	-0.005578	-0.079377	0.028112
C16	C	0.069652	-0.041762	0.028379
C17	C	0.152948	0.113708	0.017863
C18	C	0.173786	0.152360	0.014965
C19	C	0.155902	0.171750	0.013509
C20	C	0.178499	0.213661	0.010359
C21	C	0.117177	0.152485	0.014953
C22	C	0.096339	0.113835	0.017857
C23	C	0.114226	0.094447	0.019312
C24	C	-0.131813	-0.113936	0.017859
C25	C	-0.167567	-0.131750	0.014961
C26	C	-0.185502	-0.169024	0.013506
C27	C	-0.224264	-0.188340	0.010358
C28	C	-0.167685	-0.188485	0.014954
C29	C	-0.131938	-0.170675	0.017859
C30	C	-0.114002	-0.133396	0.019309
C31	C	0.152939	-0.113943	0.017877
C32	C	0.173778	-0.131757	0.014977
C33	C	0.155892	-0.169032	0.013523
C34	C	0.178486	-0.188349	0.010377
C35	C	0.117170	-0.188491	0.014967
C36	C	0.096334	-0.170675	0.017865
C37	C	0.114220	-0.133401	0.019323
C38	C	0.091629	0.052537	0.022456
C39	C	0.073617	0.019131	0.024964
C40	C	0.073613	-0.098693	0.024971
C41	C	0.091623	-0.114089	0.022466
C42	C	-0.044339	-0.098690	0.024964
C43	C	-0.075237	-0.114084	0.022456
O44	O	-0.327856	-0.266388	-0.009322
O45	O	-0.236954	-0.220935	0.009228
O46	O	-0.236950	-0.220939	-0.054773
O47	O	-0.327860	-0.266385	0.054680
O48	O	-0.236948	-0.168954	-0.054776
O49	O	-0.236952	-0.168950	0.009225
O50	O	-0.327854	-0.214403	-0.009325
Zn51	Zn	-0.282403	-0.183423	-0.000050
Zn52	Zn	-0.282405	-0.251916	-0.000046
O53	O	-0.327858	-0.214400	0.054676
C54	C	0.384390	-0.079141	-0.361606
C55	C	0.422270	-0.041526	-0.380503
C56	C	0.384390	-0.079141	-0.305008
C57	C	0.422270	-0.041526	-0.323990
C58	C	0.440988	-0.022543	-0.361606
C59	C	0.365758	-0.098038	-0.323991
C60	C	0.282465	-0.170819	-0.396168
C61	C	0.261627	-0.188759	-0.413983
C62	C	0.279513	-0.169420	-0.451257
C63	C	0.256917	-0.188867	-0.470572
C64	C	0.318239	-0.132140	-0.470717
C65	C	0.339076	-0.114205	-0.452905
C66	C	0.321187	-0.133546	-0.415628
C67	C	0.567227	0.113942	-0.453282
C68	C	0.602981	0.152594	-0.471222
C69	C	0.620916	0.171985	-0.451883
C70	C	0.659678	0.213894	-0.471328
C71	C	0.603097	0.152719	-0.414603
C72	C	0.567349	0.114068	-0.396667
C73	C	0.549414	0.094682	-0.416011
C74	C	0.282465	-0.170819	-0.168522
C75	C	0.261624	-0.188757	-0.129868
C76	C	0.279510	-0.169418	-0.110479
C77	C	0.256914	-0.188865	-0.068568
C78	C	0.318233	-0.132140	-0.129742
C79	C	0.339070	-0.114203	-0.168394
C80	C	0.321184	-0.133548	-0.187782
C81	C	0.343783	-0.114094	-0.396315
C82	C	0.361794	-0.098590	-0.380920
C83	C	0.361794	-0.098590	-0.263099
C84	C	0.343783	-0.114094	-0.229693
C85	C	0.479750	0.019366	-0.381054
C86	C	0.510649	0.052771	-0.396557
C87	C	0.440758	-0.356212	-0.028193
C88	C	0.422041	-0.393827	-0.028459
C89	C	0.384158	-0.356213	-0.028190
C90	C	0.365526	-0.393828	-0.028456
C91	C	0.384160	-0.412810	-0.028193
C92	C	0.422038	-0.337315	-0.028456
C93	C	0.567000	-0.264532	-0.017949
C94	C	0.602755	-0.246591	-0.015053
C95	C	0.620692	-0.265931	-0.013601
C96	C	0.659455	-0.246483	-0.010453
C97	C	0.602873	-0.303210	-0.015048
C98	C	0.567125	-0.321146	-0.017949
C99	C	0.549188	-0.301805	-0.019399
C100	C	0.339356	-0.549295	-0.017951
C101	C	0.318645	-0.587947	-0.015055
C102	C	0.279915	-0.607338	-0.013597
C103	C	0.257452	-0.649247	-0.010452
C104	C	0.261899	-0.588073	-0.015042
C105	C	0.282613	-0.549422	-0.017945
C106	C	0.321343	-0.530035	-0.019397
C107	C	0.339344	-0.264537	-0.017936
C108	C	0.318628	-0.246599	-0.015032
C109	C	0.279898	-0.265939	-0.013577
C110	C	0.257433	-0.246493	-0.010426
C111	C	0.261884	-0.303217	-0.015022
C112	C	0.282601	-0.321153	-0.017924
C113	C	0.321334	-0.301808	-0.019385
C114	C	0.510421	-0.321258	-0.022542
C115	C	0.479522	-0.336762	-0.025048
C116	C	0.361696	-0.336765	-0.025041
C117	C	0.343793	-0.321261	-0.022532
C118	C	0.361701	-0.454719	-0.025047
C119	C	0.343799	-0.488125	-0.022541
O120	O	0.223728	0.336934	-0.009323
O121	O	0.159726	0.227482	0.009227
O122	O	0.223729	0.291478	-0.054775
O123	O	0.159725	0.272938	0.054678
O124	O	0.275711	0.291477	-0.054771
O125	O	0.211707	0.227481	0.009230
O126	O	0.275710	0.336932	-0.009320
Zn127	Zn	0.251962	0.282206	-0.000045
Zn128	Zn	0.183474	0.282208	-0.000049
O129	O	0.211707	0.272936	0.054681
O130	O	0.763271	0.337164	-0.496871
O131	O	0.672367	0.227713	-0.451422
O132	O	0.672365	0.291711	-0.451418
O133	O	0.763273	0.273165	-0.496876
O134	O	0.672366	0.291712	-0.503402
O135	O	0.672368	0.227714	-0.503407
O136	O	0.763272	0.337165	-0.548856
Zn137	Zn	0.717820	0.282440	-0.534385
Zn138	Zn	0.717819	0.282438	-0.465893
O139	O	0.763275	0.273167	-0.548860
O140	O	0.211690	-0.214417	-0.548617
O141	O	0.275691	-0.168962	-0.503167
O142	O	0.211689	-0.168964	-0.503163
O143	O	0.275692	-0.214415	-0.548621
O144	O	0.159706	-0.220947	-0.451179
O145	O	0.223708	-0.220945	-0.451183
O146	O	0.159707	-0.266400	-0.496633
Zn147	Zn	0.183454	-0.251926	-0.465654
Zn148	Zn	0.251944	-0.183436	-0.534146
O149	O	0.223709	-0.266398	-0.496637
C150	C	-0.005343	-0.412572	0.361558
C151	C	0.013375	-0.393590	0.380456
C152	C	0.051255	-0.355974	0.304961
C153	C	0.069887	-0.337077	0.323944
C154	C	0.051254	-0.355974	0.361560
C155	C	0.013375	-0.393589	0.323943
C156	C	-0.131582	-0.549057	0.396116
C157	C	-0.167336	-0.587709	0.413930
C158	C	-0.185271	-0.607098	0.451205
C159	C	-0.224034	-0.649009	0.470519
C160	C	-0.167452	-0.587833	0.470666
C161	C	-0.131705	-0.549184	0.452854
C162	C	-0.113770	-0.529796	0.415578
C163	C	0.096061	-0.321414	0.453239
C164	C	0.116773	-0.303600	0.471179
C165	C	0.155502	-0.266327	0.451842
C166	C	0.177965	-0.247011	0.471288
C167	C	0.173517	-0.246866	0.414562
C168	C	0.152802	-0.264677	0.396625
C169	C	0.114073	-0.301955	0.415968
C170	C	0.096064	-0.321412	0.168474
C171	C	0.116779	-0.303599	0.129820
C172	C	0.155508	-0.266324	0.110432
C173	C	0.177972	-0.247009	0.068521
C174	C	0.173522	-0.246865	0.129696
C175	C	0.152807	-0.264680	0.168348
C176	C	0.114075	-0.301953	0.187735
C177	C	-0.075004	-0.487887	0.396265
C178	C	-0.044106	-0.454481	0.380871
C179	C	0.073715	-0.336660	0.263052
C180	C	0.091618	-0.321265	0.229646
C181	C	0.073714	-0.336661	0.381009
C182	C	0.091616	-0.321267	0.396513
C183	C	0.051046	-0.022794	-0.361634
C184	C	0.069679	-0.041778	-0.380530
C185	C	-0.005555	-0.079390	-0.305034
C186	C	0.013163	-0.098288	-0.324016
C187	C	0.051045	-0.079393	-0.361631
C188	C	0.013164	-0.041775	-0.324018
C189	C	0.095858	0.113693	-0.396200
C190	C	0.116571	0.152344	-0.414015
C191	C	0.155302	0.171732	-0.451290
C192	C	0.177767	0.213642	-0.470607
C193	C	0.173317	0.152465	-0.470750
C194	C	0.152600	0.113815	-0.452936
C195	C	0.113869	0.094429	-0.415659
C196	C	0.152973	-0.113959	-0.453306
C197	C	0.173810	-0.131775	-0.471245
C198	C	0.155926	-0.169048	-0.451906
C199	C	0.178519	-0.188366	-0.471350
C200	C	0.117198	-0.188507	-0.414626
C201	C	0.096358	-0.170694	-0.396690
C202	C	0.114251	-0.133416	-0.416035
C203	C	-0.131801	-0.113944	-0.168548
C204	C	-0.167554	-0.131755	-0.129895
C205	C	-0.185491	-0.169029	-0.110504
C206	C	-0.224255	-0.188343	-0.068593
C207	C	-0.167671	-0.188490	-0.129767
C208	C	-0.131918	-0.170677	-0.168418
C209	C	-0.113988	-0.133404	-0.187808
C210	C	0.091411	0.052521	-0.396344
C211	C	0.073508	0.019115	-0.380949
C212	C	-0.044320	-0.098701	-0.263125
C213	C	-0.075220	-0.114094	-0.229719
C214	C	0.073641	-0.098707	-0.381079
C215	C	0.091652	-0.114103	-0.396582
C216	C	-0.615853	-0.356193	0.361535
C217	C	-0.634487	-0.393808	0.380433
C218	C	-0.559253	-0.356195	0.304938
C219	C	-0.577972	-0.393810	0.323921
C220	C	-0.615854	-0.412792	0.361537
C221	C	-0.577972	-0.337297	0.323920
C222	C	-0.660661	-0.264512	0.396093
C223	C	-0.681373	-0.246571	0.413906
C224	C	-0.720104	-0.265909	0.451181
C225	C	-0.742568	-0.246461	0.470495
C226	C	-0.738120	-0.303189	0.470643
C227	C	-0.717405	-0.321125	0.452831
C228	C	-0.678674	-0.301785	0.415554
C229	C	-0.717784	-0.549275	0.453218
C230	C	-0.738622	-0.587926	0.471159
C231	C	-0.720740	-0.607319	0.451822
C232	C	-0.743333	-0.649227	0.471268
C233	C	-0.682012	-0.588055	0.414542
C234	C	-0.661170	-0.549403	0.396604
C235	C	-0.679063	-0.530016	0.415946
C236	C	-0.433006	-0.264522	0.168449
C237	C	-0.397253	-0.246585	0.129796
C238	C	-0.379317	-0.265926	0.110407
C239	C	-0.340553	-0.246480	0.068496
C240	C	-0.397138	-0.303204	0.129672
C241	C	-0.432891	-0.321139	0.168324
C242	C	-0.450820	-0.301793	0.187711
C243	C	-0.656216	-0.321238	0.396242
C244	C	-0.638314	-0.336743	0.380848
C245	C	-0.520488	-0.336748	0.263028
C246	C	-0.489588	-0.321245	0.229622
C247	C	-0.638451	-0.454700	0.380987
C248	C	-0.656463	-0.488106	0.396492
C249	C	0.440756	0.310302	-0.361620
C250	C	0.422038	0.310564	-0.380518
C251	C	0.384160	0.310312	-0.305026
C252	C	0.365528	0.310574	-0.324010
C253	C	0.384159	0.310303	-0.361624
C254	C	0.422038	0.310573	-0.324006
C255	C	0.566989	0.300046	-0.396172
C256	C	0.602741	0.297145	-0.413984
C257	C	0.620675	0.295684	-0.451257
C258	C	0.659436	0.292531	-0.470569
C259	C	0.602857	0.297127	-0.470719
C260	C	0.567111	0.300033	-0.452909
C261	C	0.549177	0.301493	-0.415634
C262	C	0.339351	0.300042	-0.453303
C263	C	0.318640	0.297142	-0.471244
C264	C	0.279912	0.295690	-0.451908
C265	C	0.257449	0.292541	-0.471354
C266	C	0.261899	0.297143	-0.414629
C267	C	0.282613	0.300049	-0.396692
C268	C	0.321341	0.301496	-0.416033
C269	C	0.339354	0.300088	-0.168540
C270	C	0.318640	0.297192	-0.129888
C271	C	0.279912	0.295742	-0.110501
C272	C	0.257450	0.292601	-0.068591
C273	C	0.261898	0.297184	-0.129766
C274	C	0.282612	0.300078	-0.168417
C275	C	0.321344	0.301533	-0.187802
C276	C	0.510413	0.304640	-0.396323
C277	C	0.479516	0.307151	-0.380931
C278	C	0.361701	0.307173	-0.263117
C279	C	0.343799	0.304671	-0.229712
C280	C	0.361700	0.307154	-0.381073
C281	C	0.343798	0.304644	-0.396578
O282	O	0.275503	0.336913	-0.548651
O283	O	0.211494	0.227461	-0.503201
O284	O	0.275490	0.291455	-0.503192
O285	O	0.211507	0.272919	-0.548659
O286	O	0.223502	0.291457	-0.451211
O287	O	0.159506	0.227463	-0.451219
O288	O	0.223515	0.336915	-0.496669
Zn289	Zn	0.183256	0.282189	-0.465691
Zn290	Zn	0.251753	0.282187	-0.534179
O291	O	0.159519	0.272921	-0.496677
C292	C	0.051032	0.254111	0.361530
C293	C	0.013154	0.253851	0.380425
C294	C	0.051031	0.254102	0.304932
C295	C	0.013153	0.253842	0.323913
C296	C	-0.005564	0.254113	0.361527
C297	C	0.069663	0.253840	0.323916
C298	C	0.152954	0.264360	0.396096
C299	C	0.173791	0.267260	0.413911
C300	C	0.155906	0.268721	0.451185
C301	C	0.178502	0.271871	0.470501
C302	C	0.117182	0.267279	0.470643
C303	C	0.096345	0.264374	0.452830
C304	C	0.114233	0.262915	0.415555
C305	C	-0.131796	0.264379	0.453195
C306	C	-0.167548	0.267281	0.471133
C307	C	-0.185483	0.268734	0.451793
C308	C	-0.224243	0.271886	0.471236
C309	C	-0.167664	0.267282	0.414515
C310	C	-0.131919	0.264374	0.396581
C311	C	-0.113984	0.262925	0.415925
C312	C	0.152952	0.264325	0.168451
C313	C	0.173792	0.267221	0.129798
C314	C	0.155907	0.268673	0.110407
C315	C	0.178502	0.271814	0.068498
C316	C	0.117186	0.267232	0.129669
C317	C	0.096350	0.264339	0.168320
C318	C	0.114234	0.262881	0.187709
C319	C	0.091638	0.259769	0.396240
C320	C	0.073627	0.257260	0.380845
C321	C	0.073626	0.257242	0.263024
C322	C	0.091636	0.259743	0.229619
C323	C	-0.044324	0.257264	0.380973
C324	C	-0.075221	0.259775	0.396474
H325	H	0.102618	0.168275	0.013770
H326	H	0.267897	-0.186572	-0.184305
H327	H	0.167516	0.097925	0.019049
H328	H	0.437935	-0.026287	-0.411409
H329	H	0.437709	-0.409066	-0.028885
H330	H	0.167543	-0.083608	-0.469060
H331	H	0.617258	-0.216240	-0.013873
C332	C	-0.007539	-0.413847	0.421694
C333	C	-0.020098	-0.393470	0.444751
C334	C	-0.039365	-0.412113	0.482742
H335	H	0.013210	-0.415151	0.423206
H336	H	-0.032845	-0.439015	0.430314
H337	H	0.005206	-0.368309	0.436133
H338	H	-0.040851	-0.392165	0.443251
H339	H	-0.064671	-0.437281	0.491362
H340	H	-0.018614	-0.413416	0.484250
H341	H	-0.047892	-0.398292	0.498391
H342	H	0.100368	-0.306171	0.308703
H343	H	0.102110	-0.319446	0.114137
H344	H	-0.117201	-0.533500	0.468702
C345	C	0.215562	-0.206389	0.108587
C346	C	0.229843	-0.194946	0.070617
C347	C	0.268564	-0.157662	0.051162
H348	H	0.237874	-0.205745	0.108985
H349	H	0.209825	-0.189501	0.120745
H350	H	0.235583	-0.211830	0.058461
H351	H	0.207543	-0.195581	0.070207
H352	H	0.262826	-0.140774	0.063321
H353	H	0.290872	-0.157022	0.051563
H354	H	0.278256	-0.149892	0.025399
H355	H	-0.002509	-0.129196	-0.308775
H356	H	0.370607	-0.083853	-0.468752
H357	H	0.370892	0.301275	-0.184323
H358	H	0.064808	0.098152	0.019035
C359	C	0.325056	-0.139220	-0.303608
C360	C	0.290448	-0.141242	-0.270858
C361	C	0.252945	-0.179168	-0.252068
H362	H	0.331601	-0.154968	-0.296406
H363	H	0.316544	-0.147825	-0.320278
H364	H	0.298959	-0.132642	-0.254191
H365	H	0.283890	-0.125502	-0.278049
H366	H	0.244432	-0.187773	-0.268739
H367	H	0.259493	-0.194914	-0.244869
H368	H	0.229457	-0.180545	-0.229847
C369	C	0.263130	-0.528438	-0.019528
C370	C	0.289563	-0.490439	-0.022383
C371	C	0.271628	-0.471097	-0.023842
H372	H	0.234078	-0.540622	0.003088
H373	H	0.262093	-0.528905	-0.041202
H374	H	0.290595	-0.489974	-0.000710
H375	H	0.318615	-0.478244	-0.044998
H376	H	0.270591	-0.471563	-0.045517
H377	H	0.242577	-0.483284	-0.001226
H378	H	0.289562	-0.445311	-0.025783
H379	H	0.064321	0.097912	-0.365848
H380	H	0.230362	0.296001	-0.113978
C381	C	0.338195	-0.206148	-0.013406
C382	C	0.339702	-0.205435	0.018548
C383	C	0.357731	-0.168176	0.020055
H384	H	0.320338	-0.198197	-0.011447
H385	H	0.367266	-0.189308	-0.036017
H386	H	0.310636	-0.222269	0.041155
H387	H	0.357561	-0.213378	0.016597
H388	H	0.386801	-0.151337	-0.002557
H389	H	0.339872	-0.160229	0.022012
H390	H	0.358759	-0.167687	0.041733
C391	C	0.263088	0.301725	-0.189335
C392	C	0.261612	0.333696	-0.188564
C393	C	0.243634	0.335229	-0.207835
H394	H	0.234017	0.279134	-0.177131
H395	H	0.280973	0.303677	-0.215139
H396	H	0.243728	0.331740	-0.162765
H397	H	0.290678	0.356292	-0.200771
H398	H	0.261519	0.337181	-0.233639
H399	H	0.214564	0.312636	-0.195629
H400	H	0.242634	0.356922	-0.207318
C401	C	0.097661	-0.228986	0.013453
C402	C	0.054849	-0.253769	0.046821
C403	C	0.036863	-0.291073	0.045438
H404	H	0.115561	-0.236864	0.011540
H405	H	0.096594	-0.229602	-0.008206
H406	H	0.055918	-0.253154	0.068474
H407	H	0.036938	-0.245902	0.048741
H408	H	0.035796	-0.291689	0.023779
H409	H	0.054766	-0.298947	0.043524
H410	H	0.007811	-0.307892	0.068076
C411	C	-0.007667	-0.139465	0.028887
C412	C	0.023043	-0.141513	-0.003690
C413	C	0.003893	-0.179450	-0.003234
H414	H	-0.032947	-0.148088	0.028987
H415	H	-0.016203	-0.155189	0.051193
H416	H	0.031572	-0.125794	-0.025991
H417	H	0.048324	-0.132898	-0.003798
H418	H	-0.004642	-0.195174	0.019073
H419	H	-0.021387	-0.188069	-0.003132
H420	H	0.024728	-0.180845	-0.025335
C421	C	-0.007491	-0.413840	0.303584
C422	C	-0.020041	-0.393472	0.293058
C423	C	-0.039251	-0.412110	0.274294
H424	H	-0.032793	-0.439010	0.320242
H425	H	0.013300	-0.415122	0.281330
H426	H	-0.040831	-0.392194	0.315309
H427	H	0.005253	-0.368302	0.276395
H428	H	-0.018461	-0.413392	0.252040
H429	H	-0.064552	-0.437280	0.290955
H430	H	-0.047766	-0.398291	0.267147
H431	H	-0.382532	-0.318952	0.113884
H432	H	-0.181841	-0.603391	0.398082
H433	H	0.101900	0.168027	-0.398169
C434	C	-0.675118	-0.414188	0.421649
C435	C	-0.687492	-0.451257	0.434210
C436	C	-0.724913	-0.470040	0.472176
H437	H	-0.698701	-0.415537	0.423156
H438	H	-0.668522	-0.400436	0.437379
H439	H	-0.694090	-0.465005	0.418484
H440	H	-0.663919	-0.449919	0.432713
H441	H	-0.718317	-0.456289	0.487906
H442	H	-0.748493	-0.471387	0.473679
H443	H	-0.733311	-0.495192	0.480704
C444	C	0.547839	0.092954	-0.474356
C445	C	0.571106	0.118092	-0.510846
C446	C	0.553262	0.098768	-0.530271
H447	H	0.517615	0.083734	-0.460446
H448	H	0.550186	0.072014	-0.476698
H449	H	0.568755	0.139025	-0.508503
H450	H	0.601329	0.127313	-0.524766
H451	H	0.555608	0.077828	-0.532612
H452	H	0.523038	0.089549	-0.516357
H453	H	0.569048	0.115820	-0.555032
C454	C	0.172287	-0.243541	0.356183
C455	C	0.141392	-0.240098	0.356243
C456	C	0.159329	-0.220626	0.318995
H457	H	0.179389	-0.257425	0.339835
H458	H	0.198309	-0.218779	0.347225
H459	H	0.115378	-0.264855	0.365196
H460	H	0.134287	-0.226211	0.372583
H461	H	0.185351	-0.195864	0.310037
H462	H	0.166430	-0.234512	0.302651
H463	H	0.138371	-0.218284	0.319032
H464	H	0.205316	0.168042	0.013788
C465	C	0.547598	0.301709	-0.355732
C466	C	0.580272	0.333683	-0.354964
C467	C	0.562422	0.335229	-0.317719
H468	H	0.537160	0.279121	-0.338821
H469	H	0.523766	0.303664	-0.347902
H470	H	0.604096	0.331724	-0.362789
H471	H	0.590713	0.356277	-0.371867
H472	H	0.538590	0.337184	-0.309889
H473	H	0.551984	0.312639	-0.300810
H474	H	0.584587	0.356924	-0.317193
C475	C	0.219629	-0.229256	-0.392902
C476	C	0.226670	-0.253222	-0.413471
C477	C	0.187991	-0.290530	-0.394060
H478	H	0.196293	-0.229338	-0.390529
H479	H	0.211955	-0.238228	-0.368154
H480	H	0.234338	-0.244253	-0.438212
H481	H	0.249999	-0.253152	-0.415845
H482	H	0.180317	-0.299503	-0.369312
H483	H	0.164658	-0.290608	-0.391688
H484	H	0.192764	-0.306797	-0.408011
H485	H	0.100165	-0.026535	-0.411435
C486	C	0.442999	-0.296102	-0.029036
C487	C	0.480249	-0.283539	-0.029213
C488	C	0.499569	-0.245576	-0.029750
H489	H	0.422264	-0.294600	-0.006960
H490	H	0.451579	-0.280370	-0.051363
H491	H	0.471668	-0.299267	-0.006888
H492	H	0.500994	-0.285031	-0.051288
H493	H	0.508149	-0.229845	-0.052077
H494	H	0.478830	-0.244079	-0.007673
H495	H	0.524847	-0.237047	-0.029873
H496	H	-0.002524	-0.026519	0.028802
C497	C	-0.186836	-0.608852	0.511113
C498	C	-0.154155	-0.608133	0.511886
C499	C	-0.171992	-0.627486	0.549141
H500	H	-0.210670	-0.634641	0.518975
H501	H	-0.197264	-0.596673	0.527998
H502	H	-0.143734	-0.620313	0.495007
H503	H	-0.130320	-0.582349	0.504031
H504	H	-0.182420	-0.615307	0.566026
H505	H	-0.195826	-0.653274	0.557000
H506	H	-0.149820	-0.626997	0.549671
C507	C	0.215816	0.268762	0.108958
C508	C	0.227011	0.266858	0.134214
C509	C	0.265717	0.268270	0.115032
H510	H	0.239170	0.292029	0.088015
H511	H	0.211120	0.247737	0.099762
H512	H	0.231710	0.287881	0.143404
H513	H	0.203668	0.243592	0.155158
H514	H	0.261021	0.247245	0.105836
H515	H	0.289068	0.291537	0.094089
H516	H	0.273316	0.266975	0.132166
C517	C	0.443094	-0.021268	-0.303605
C518	C	0.418577	-0.045953	-0.266529
C519	C	0.437744	-0.027303	-0.247739
H520	H	0.443246	0.000964	-0.302267
H521	H	0.472577	-0.014109	-0.317346
H522	H	0.389102	-0.053106	-0.252791
H523	H	0.418424	-0.068185	-0.267856
H524	H	0.467227	-0.020144	-0.261480
H525	H	0.437895	-0.005072	-0.246404
H526	H	0.421115	-0.044050	-0.222582
H527	H	0.230091	-0.219108	-0.114185
C528	C	0.622386	-0.324195	-0.013552
C529	C	0.637751	-0.333620	-0.046930
C530	C	0.655734	-0.352949	-0.045567
H531	H	0.600308	-0.346926	0.008093
H532	H	0.646248	-0.308179	-0.011637
H533	H	0.613892	-0.349636	-0.048840
H534	H	0.659835	-0.310896	-0.068580
H535	H	0.679596	-0.336932	-0.043653
H536	H	0.633653	-0.375678	-0.023921
H537	H	0.666165	-0.359343	-0.068215
C538	C	0.381359	-0.243604	-0.019460
C539	C	0.374248	-0.264264	0.011536
C540	C	0.412941	-0.244999	0.010144
H541	H	0.389157	-0.218836	-0.018164
H542	H	0.404632	-0.241297	-0.042728
H543	H	0.350982	-0.266567	0.034798
H544	H	0.366456	-0.289031	0.010247
H545	H	0.436214	-0.242691	-0.013123
H546	H	0.420736	-0.220232	0.011439
H547	H	0.408123	-0.259015	0.031172
C548	C	0.215314	0.173473	-0.511247
C549	C	0.206729	0.155460	-0.536037
C550	C	0.245407	0.174805	-0.573348
H551	H	0.237611	0.173039	-0.511897
H552	H	0.225075	0.199249	-0.519092
H553	H	0.196975	0.129691	-0.528194
H554	H	0.184440	0.155894	-0.535399
H555	H	0.255168	0.200581	-0.581193
H556	H	0.267701	0.174370	-0.573994
H557	H	0.239586	0.162588	-0.590173
H558	H	0.437707	0.310988	-0.411425
H559	H	0.617485	0.168277	-0.501573
H560	H	0.267896	-0.186572	-0.365817
H561	H	0.230368	0.295965	-0.398887
C562	C	0.547618	-0.243455	-0.019557
C563	C	0.570887	-0.206964	-0.017689
C564	C	0.553051	-0.187535	-0.019181
H565	H	0.517392	-0.257360	0.001445
H566	H	0.549968	-0.241118	-0.042845
H567	H	0.568532	-0.209302	0.005596
H568	H	0.601111	-0.193049	-0.038689
H569	H	0.555402	-0.185198	-0.042469
H570	H	0.522826	-0.201443	0.001822
H571	H	0.568839	-0.162773	-0.017917
H572	H	-0.002500	-0.026531	-0.308780
C573	C	-0.186853	-0.110561	0.013400
C574	C	-0.163496	-0.074106	0.015295
C575	C	-0.181255	-0.054578	0.013866
H576	H	-0.217069	-0.124435	0.034415
H577	H	-0.184519	-0.108164	-0.009877
H578	H	-0.165834	-0.076505	0.038569
H579	H	-0.133281	-0.060222	-0.005718
H580	H	-0.178921	-0.052181	-0.009411
H581	H	-0.211471	-0.068455	0.034882
H582	H	-0.165408	-0.029840	0.015148
C583	C	0.054023	-0.361886	0.189453
C584	C	0.042686	-0.375118	0.164309
C585	C	0.003962	-0.412401	0.183623
H586	H	0.030721	-0.361914	0.210397
H587	H	0.058752	-0.378175	0.198662
H588	H	0.037954	-0.358833	0.155106
H589	H	0.065977	-0.375099	0.143365
H590	H	0.008691	-0.428690	0.192831
H591	H	-0.019337	-0.412425	0.204566
H592	H	-0.003733	-0.421385	0.166564
C593	C	-0.112190	-0.528070	0.355653
C594	C	-0.135454	-0.553209	0.342428
C595	C	-0.117605	-0.533886	0.305157
H596	H	-0.081966	-0.518853	0.339341
H597	H	-0.114533	-0.507129	0.355655
H598	H	-0.133107	-0.574143	0.342423
H599	H	-0.165677	-0.562427	0.358729
H600	H	-0.119948	-0.512945	0.305160
H601	H	-0.087382	-0.524670	0.288849
H602	H	-0.133389	-0.550939	0.296181
H603	H	0.617241	0.295963	-0.398133
C604	C	0.337575	-0.111200	-0.511176
C605	C	0.311033	-0.134882	-0.522608
C606	C	0.328830	-0.115602	-0.559875
H607	H	0.366620	-0.104764	-0.528093
H608	H	0.338600	-0.088495	-0.511781
H609	H	0.310013	-0.157581	-0.522006
H610	H	0.281987	-0.141320	-0.505701
H611	H	0.329855	-0.092896	-0.560480
H612	H	0.357875	-0.109166	-0.576789
H613	H	0.310822	-0.131666	-0.567636
C614	C	0.381441	0.301684	-0.474281
C615	C	0.415650	0.336016	-0.477638
C616	C	0.454428	0.337540	-0.496954
H617	H	0.389263	0.300429	-0.499064
H618	H	0.376717	0.280686	-0.460317
H619	H	0.420374	0.357008	-0.491601
H620	H	0.407842	0.337278	-0.452861
H621	H	0.449704	0.316542	-0.482991
H622	H	0.462246	0.336283	-0.521736
H623	H	0.477642	0.360831	-0.499231
C624	C	0.622616	0.173840	-0.393662
C625	C	0.657730	0.211814	-0.417343
C626	C	0.675717	0.231284	-0.398062
H627	H	0.633097	0.161712	-0.387227
H628	H	0.600516	0.173420	-0.370955
H629	H	0.679826	0.212231	-0.440043
H630	H	0.647261	0.223953	-0.423779
H631	H	0.653616	0.230865	-0.375355
H632	H	0.686195	0.219153	-0.391628
H633	H	0.699541	0.257052	-0.414126
H634	H	0.167269	0.098131	-0.468782
H635	H	0.552621	-0.351498	-0.019128
H636	H	0.552845	0.098385	-0.366316
H637	H	-0.182279	-0.218843	-0.113977
C638	C	-0.186852	-0.110570	-0.109053
C639	C	-0.163503	-0.074120	-0.134310
C640	C	-0.181272	-0.054596	-0.115126
H641	H	-0.184525	-0.108158	-0.088112
H642	H	-0.217073	-0.124463	-0.099855
H643	H	-0.133289	-0.060231	-0.143502
H644	H	-0.165828	-0.076521	-0.155252
H645	H	-0.211492	-0.068489	-0.105928
H646	H	-0.178944	-0.052187	-0.094185
H647	H	-0.165434	-0.029864	-0.132261
H648	H	0.370892	-0.533512	-0.019136
C649	C	0.337726	-0.111124	-0.108743
C650	C	0.380538	-0.101676	-0.126758
C651	C	0.398503	-0.082316	-0.107423
H652	H	0.319816	-0.127117	-0.082966
H653	H	0.338788	-0.088400	-0.109192
H654	H	0.379473	-0.124397	-0.126305
H655	H	0.398458	-0.085679	-0.152533
H656	H	0.399565	-0.059592	-0.107871
H657	H	0.380590	-0.098311	-0.081647
H658	H	0.427554	-0.075900	-0.119645
H659	H	0.205048	-0.216515	0.398819
C660	C	-0.112651	-0.191877	-0.189271
C661	C	-0.136018	-0.228336	-0.164021
C662	C	-0.118285	-0.247878	-0.183218
H663	H	-0.082432	-0.178016	-0.198482
H664	H	-0.114997	-0.194269	-0.210207
H665	H	-0.133667	-0.225942	-0.143092
H666	H	-0.166236	-0.242207	-0.154808
H667	H	-0.120632	-0.250270	-0.204154
H668	H	-0.088067	-0.234014	-0.192428
H669	H	-0.134140	-0.272618	-0.166090
H670	H	-0.182293	-0.218837	0.013775
H671	H	0.370598	-0.083850	-0.184076
C672	C	0.262990	-0.361618	-0.019513
C673	C	0.224646	-0.374713	-0.017629
C674	C	0.206573	-0.411985	-0.019097
H675	H	0.255846	-0.377975	0.001492
H676	H	0.283884	-0.361661	-0.042798
H677	H	0.203757	-0.374673	0.005654
H678	H	0.231778	-0.358367	-0.038632
H679	H	0.227466	-0.412028	-0.042382
H680	H	0.199432	-0.428339	0.001909
H681	H	0.180557	-0.420874	-0.017822
H682	H	-0.447397	-0.351491	0.184007
H683	H	0.552607	0.301210	-0.468757
H684	H	0.167518	0.263140	0.184235
C685	C	0.324903	0.311169	-0.303636
C686	C	0.312521	0.311355	-0.266564
C687	C	0.275106	0.311910	-0.247788
H688	H	0.301320	0.289096	-0.302290
H689	H	0.331510	0.333499	-0.317391
H690	H	0.305912	0.289028	-0.252812
H691	H	0.336093	0.333426	-0.267898
H692	H	0.281713	0.334240	-0.261543
H693	H	0.251526	0.289837	-0.246446
H694	H	0.266702	0.312040	-0.222634
H695	H	-0.002510	0.253416	0.308669
C696	C	0.054002	-0.361878	0.474310
C697	C	0.042652	-0.375102	0.510799
C698	C	0.003908	-0.412373	0.530220
H699	H	0.058699	-0.378188	0.460397
H700	H	0.030719	-0.361877	0.476652
H701	H	0.065930	-0.375106	0.508455
H702	H	0.037947	-0.358802	0.524723
H703	H	-0.019375	-0.412372	0.532562
H704	H	0.008608	-0.428680	0.516304
H705	H	-0.003800	-0.421349	0.554981
H706	H	-0.562326	-0.306401	0.308670
H707	H	0.205307	-0.115910	0.013801
C708	C	-0.737044	-0.361605	0.474014
C709	C	-0.775402	-0.374706	0.510466
C710	C	-0.793509	-0.411998	0.529989
H711	H	-0.716185	-0.361688	0.476425
H712	H	-0.744174	-0.377933	0.460122
H713	H	-0.768271	-0.358382	0.524356
H714	H	-0.796270	-0.374633	0.508067
H715	H	-0.800639	-0.428326	0.516096
H716	H	-0.772648	-0.412077	0.532397
H717	H	-0.819539	-0.420893	0.554722
H718	H	0.100131	-0.026521	0.028807
H719	H	0.333315	-0.603629	-0.013877
C720	C	0.219846	-0.324146	-0.013462
C721	C	0.205565	-0.300457	-0.010624
C722	C	0.166848	-0.319720	-0.009193
H723	H	0.197533	-0.346857	0.008204
H724	H	0.225587	-0.330565	-0.036089
H725	H	0.199822	-0.294044	0.012001
H726	H	0.227867	-0.277746	-0.032287
H727	H	0.172589	-0.326139	-0.031820
H728	H	0.144538	-0.342431	0.012473
H729	H	0.157156	-0.303649	-0.007271
H730	H	0.167477	-0.248833	0.184031
H731	H	0.335043	-0.409068	-0.028878
C732	C	-0.112505	-0.191735	0.019373
C733	C	-0.067966	-0.171153	-0.011628
C734	C	-0.050048	-0.190540	-0.010246
H735	H	-0.128252	-0.216485	0.018075
H736	H	-0.114810	-0.194091	0.042638
H737	H	-0.065665	-0.168802	-0.034887
H738	H	-0.052208	-0.146405	-0.010336
H739	H	-0.052353	-0.192896	0.013019
H740	H	-0.065798	-0.215288	-0.011543
H741	H	-0.019826	-0.176576	-0.031277
H742	H	0.205343	-0.115928	-0.501596
H743	H	-0.182272	0.268459	0.398770
H744	H	0.230365	-0.603862	-0.013858
C745	C	-0.186964	0.268848	0.511607
C746	C	-0.222115	0.271694	0.523176
C747	C	-0.240014	0.273135	0.560460
H748	H	-0.164845	0.290515	0.512200
H749	H	-0.197387	0.246223	0.528459
H750	H	-0.211691	0.294317	0.506328
H751	H	-0.244243	0.250031	0.522591
H752	H	-0.250438	0.250510	0.577312
H753	H	-0.217893	0.294802	0.561049
H754	H	-0.263869	0.275063	0.568315
C755	C	-0.557149	-0.414174	0.303592
C756	C	-0.587851	-0.446925	0.301713
C757	C	-0.568681	-0.465689	0.282984
H758	H	-0.548596	-0.421371	0.317335
H759	H	-0.531873	-0.397490	0.278413
H760	H	-0.613118	-0.463606	0.326888
H761	H	-0.596406	-0.439740	0.287967
H762	H	-0.543405	-0.449004	0.257805
H763	H	-0.560129	-0.472882	0.296729
H764	H	-0.589508	-0.487910	0.281704
C765	C	0.622374	0.295518	-0.511176
C766	C	0.657487	0.292655	-0.522606
C767	C	0.675473	0.291165	-0.559872
H768	H	0.632856	0.318124	-0.528096
H769	H	0.600273	0.273836	-0.511781
H770	H	0.679584	0.314334	-0.522005
H771	H	0.647016	0.270049	-0.505697
H772	H	0.653372	0.269484	-0.560476
H773	H	0.685952	0.313773	-0.576788
H774	H	0.699296	0.289219	-0.567631
C775	C	-0.780681	-0.608780	0.511622
C776	C	-0.791895	-0.583532	0.524714
C777	C	-0.830642	-0.602731	0.561983
H778	H	-0.776040	-0.617996	0.527984
H779	H	-0.804004	-0.629714	0.511658
H780	H	-0.768578	-0.562606	0.524680
H781	H	-0.796544	-0.574315	0.508362
H782	H	-0.853965	-0.623664	0.562019
H783	H	-0.825997	-0.611946	0.578342
H784	H	-0.838258	-0.585604	0.570870
C785	C	0.097856	-0.228967	-0.393683
C786	C	0.124398	-0.240401	-0.417364
C787	C	0.106598	-0.277668	-0.398083
H788	H	0.068812	-0.245882	-0.387248
H789	H	0.096828	-0.229573	-0.370976
H790	H	0.125421	-0.239797	-0.440065
H791	H	0.153443	-0.223496	-0.423801
H792	H	0.105571	-0.278275	-0.375376
H793	H	0.077554	-0.294580	-0.391649
H794	H	0.124607	-0.285430	-0.414146
C795	C	0.054330	-0.191875	-0.356209
C796	C	0.043130	-0.228327	-0.343105
C797	C	0.004421	-0.247847	-0.305813
H798	H	0.030979	-0.194284	-0.356127
H799	H	0.059024	-0.177982	-0.339881
H800	H	0.038433	-0.242217	-0.359429
H801	H	0.066470	-0.225929	-0.343178
H802	H	0.009115	-0.233954	-0.289485
H803	H	-0.018926	-0.250253	-0.305735
H804	H	-0.003181	-0.272580	-0.296916
C805	C	0.172459	0.262835	0.355606
C806	C	0.215273	0.296198	0.330816
C807	C	0.233255	0.294804	0.293515
H808	H	0.154559	0.260920	0.347727
H809	H	0.173522	0.241174	0.354996
H810	H	0.214207	0.317853	0.331424
H811	H	0.233184	0.298120	0.338683
H812	H	0.234319	0.273143	0.292906
H813	H	0.215352	0.292889	0.285640
H814	H	0.262308	0.317439	0.276692
C815	C	0.097306	-0.324705	0.511626
C816	C	0.128214	-0.328130	0.511563
C817	C	0.110300	-0.347566	0.548815
H818	H	0.071285	-0.349470	0.520614
H819	H	0.090217	-0.310796	0.527950
H820	H	0.135297	-0.342040	0.495244
H821	H	0.154237	-0.303371	0.502582
H822	H	0.103211	-0.333656	0.565140
H823	H	0.084279	-0.372330	0.557800
H824	H	0.131269	-0.349889	0.548778
H825	H	-0.667447	-0.603843	0.398798
C826	C	0.442992	0.311221	-0.303725
C827	C	0.486432	0.344146	-0.324088
C828	C	0.505743	0.344758	-0.305412
H829	H	0.443186	0.289162	-0.302404
H830	H	0.426432	0.311367	-0.278563
H831	H	0.502988	0.343996	-0.349243
H832	H	0.486250	0.366210	-0.325409
H833	H	0.489183	0.344904	-0.280250
H834	H	0.505934	0.322698	-0.304092
H835	H	0.535217	0.367099	-0.319224
C836	C	0.338249	0.295547	-0.511707
C837	C	0.376590	0.297427	-0.524799
C838	C	0.394664	0.295953	-0.562070
H839	H	0.345396	0.316551	-0.528068
H840	H	0.317354	0.272262	-0.511746
H841	H	0.397481	0.320709	-0.524762
H842	H	0.369456	0.276424	-0.508449
H843	H	0.373768	0.272668	-0.562109
H844	H	0.401807	0.316957	-0.578427
H845	H	0.420677	0.297224	-0.570956
C846	C	-0.619142	-0.528562	0.356123
C847	C	-0.607943	-0.553816	0.343021
C848	C	-0.569234	-0.534632	0.305730
H849	H	-0.595791	-0.507620	0.356041
H850	H	-0.623836	-0.519365	0.339794
H851	H	-0.603247	-0.563007	0.359346
H852	H	-0.631284	-0.574759	0.343095
H853	H	-0.573928	-0.525435	0.289401
H854	H	-0.545886	-0.513690	0.305651
H855	H	-0.561633	-0.551765	0.296834
H856	H	-0.447603	-0.248768	0.184232
C857	C	-0.112241	-0.073454	-0.189631
C858	C	-0.067695	-0.049569	-0.203179
C859	C	-0.049658	-0.012268	-0.222608
H860	H	-0.127917	-0.064360	-0.172662
H861	H	-0.114541	-0.073449	-0.210597
H862	H	-0.065398	-0.049573	-0.182216
H863	H	-0.052009	-0.058651	-0.220153
H864	H	-0.051958	-0.012263	-0.243573
H865	H	-0.065336	-0.003178	-0.205636
H866	H	-0.019430	0.003942	-0.231805
H867	H	0.267945	0.301232	-0.366341
C868	C	-0.377952	-0.206104	0.108953
C869	C	-0.401300	-0.192999	0.134208
C870	C	-0.383527	-0.155707	0.115024
H871	H	-0.380277	-0.206019	0.088011
H872	H	-0.347731	-0.189778	0.099756
H873	H	-0.431513	-0.209321	0.143399
H874	H	-0.398976	-0.193075	0.155151
H875	H	-0.353306	-0.139381	0.105827
H876	H	-0.385853	-0.155626	0.094082
H877	H	-0.399363	-0.146809	0.132157
C878	C	0.338278	0.295652	-0.109045
C879	C	0.376635	0.297555	-0.134298
C880	C	0.394743	0.296144	-0.115113
H881	H	0.317420	0.272385	-0.088101
H882	H	0.345409	0.316677	-0.099850
H883	H	0.369503	0.276531	-0.143487
H884	H	0.397504	0.320820	-0.155242
H885	H	0.401874	0.317169	-0.105918
H886	H	0.373881	0.272877	-0.094169
H887	H	0.420772	0.297438	-0.132245
H888	H	-0.002512	0.253428	0.411332
H889	H	-0.629125	-0.248761	0.365741
C890	C	-0.661761	-0.206107	0.392706
C891	C	-0.623417	-0.193014	0.356246
C892	C	-0.605342	-0.155743	0.336703
H893	H	-0.654618	-0.189749	0.406567
H894	H	-0.682654	-0.206065	0.390314
H895	H	-0.602529	-0.193053	0.358639
H896	H	-0.630549	-0.209362	0.342375
H897	H	-0.626235	-0.155701	0.334311
H898	H	-0.598201	-0.139388	0.350567
H899	H	-0.579326	-0.146856	0.311962
C900	C	0.110357	0.253347	0.303548
C901	C	0.144980	0.285925	0.270795
C902	C	0.182474	0.285486	0.252024
H903	H	0.103809	0.231050	0.296353
H904	H	0.118858	0.253255	0.320228
H905	H	0.136481	0.286013	0.254118
H906	H	0.151542	0.308227	0.277979
H907	H	0.190975	0.285394	0.268704
H908	H	0.175921	0.263188	0.244831
H909	H	0.205972	0.307591	0.229801
H910	H	-0.769653	-0.318930	0.500992
H911	H	0.064821	0.263164	0.184001
H912	H	0.205320	0.268435	0.398066
C913	C	0.172280	-0.073482	0.019479
C914	C	0.145738	-0.062050	0.022338
C915	C	0.163536	-0.024781	0.023818
H916	H	0.201325	-0.056567	-0.003130
H917	H	0.173306	-0.072873	0.041159
H918	H	0.144717	-0.062656	0.000660
H919	H	0.116692	-0.078954	0.044946
H920	H	0.164562	-0.024172	0.045499
H921	H	0.192581	-0.007870	0.001209
H922	H	0.145528	-0.017021	0.025762
H923	H	-0.732353	-0.533492	0.468971
C924	C	0.097850	0.268894	0.511098
C925	C	0.124393	0.271758	0.522531
C926	C	0.106601	0.273255	0.559794
H927	H	0.068803	0.246290	0.528020
H928	H	0.096830	0.290578	0.511697
H929	H	0.125408	0.250076	0.521936
H930	H	0.153440	0.294361	0.505620
H931	H	0.105582	0.294938	0.560393
H932	H	0.077555	0.250650	0.576713
H933	H	0.124610	0.275201	0.567555
C934	C	0.054322	0.262835	0.474010
C935	C	0.043124	0.264746	0.510461
C936	C	0.004420	0.263335	0.529980
H937	H	0.030968	0.239566	0.476422
H938	H	0.059020	0.283857	0.460114
H939	H	0.038424	0.243725	0.524353
H940	H	0.066467	0.288013	0.508060
H941	H	0.009118	0.284358	0.516084
H942	H	-0.018931	0.240066	0.532389
H943	H	-0.003181	0.264635	0.554712
C944	C	-0.112406	0.262785	0.474269
C945	C	-0.135669	0.264665	0.510757
C946	C	-0.117823	0.263192	0.530180
H947	H	-0.082182	0.283789	0.460356
H948	H	-0.114752	0.239500	0.476614
H949	H	-0.133319	0.287948	0.508410
H950	H	-0.165893	0.243663	0.524680
H951	H	-0.120168	0.239907	0.532525
H952	H	-0.087599	0.284197	0.516264
H953	H	-0.133607	0.264465	0.554940
C954	C	-0.112622	0.262822	0.356101
C955	C	-0.135969	0.264725	0.342997
C956	C	-0.118201	0.263304	0.305706
H957	H	-0.114950	0.239552	0.356022
H958	H	-0.082400	0.283843	0.339772
H959	H	-0.166183	0.243706	0.359322
H960	H	-0.133643	0.287994	0.343067
H961	H	-0.087979	0.284325	0.289377
H962	H	-0.120530	0.240034	0.305630
H963	H	-0.134037	0.264599	0.296809
H964	H	0.102624	0.268416	0.113879
H965	H	0.064802	-0.186523	0.019045
C966	C	-0.112348	-0.073491	0.019505
C967	C	-0.115828	-0.073613	0.053837
C968	C	-0.097895	-0.036362	0.055365
H969	H	-0.128056	-0.064416	0.018252
H970	H	-0.082109	-0.057214	-0.001494
H971	H	-0.146061	-0.089884	0.074830
H972	H	-0.100118	-0.082681	0.055097
H973	H	-0.067657	-0.020085	0.034366
H974	H	-0.113606	-0.027290	0.054111
H975	H	-0.100250	-0.036440	0.078657
