data_functionalizedCrystal
_audit_creation_method	'MofGen! by Chris Wilmer'
_symmetry_space_group_name_H-M	'P1'
_symmetry_Int_Tables_number	1
_symmetry_cell_setting	triclinic
loop_
_symmetry_equiv_pos_as_xyz
  x,y,z
_cell_length_a	10.540539
_cell_length_b	15.538191
_cell_length_c	14.750779
_cell_angle_alpha	97.569385
_cell_angle_beta	77.226612
_cell_angle_gamma	65.898793
loop_
_atom_site_label
_atom_site_type_symbol
_atom_site_fract_x
_atom_site_fract_y
_atom_site_fract_z
O1	O	-1.586458	-0.152519	-0.079772
O2	O	-1.211142	-0.164991	-0.079783
O3	O	-1.471856	-0.022118	-0.079780
O4	O	-1.325743	-0.295392	-0.079775
O5	O	-1.545555	0.018266	0.079872
O6	O	-1.284840	-0.124607	0.079869
O7	O	-1.660156	-0.112135	0.079880
Zn8	Zn	-1.484199	-0.111959	0.105222
Zn9	Zn	-1.387098	-0.165167	-0.105125
O10	O	-1.399442	-0.255008	0.079876
C11	C	-1.523991	0.033066	0.000043
C12	C	-1.569524	0.137332	0.000035
C13	C	-1.201129	-0.143864	0.000041
C14	C	-1.061503	-0.141068	0.000037
C15	C	-1.670167	-0.133262	0.000053
C16	C	-1.809791	-0.136060	0.000052
C17	C	-0.928954	-0.033770	0.000408
C18	C	-1.074060	-0.036700	0.000038
C19	C	-0.933990	-0.214354	-0.091127
C20	C	-0.789099	-0.210809	-0.091194
C21	C	-0.871416	-0.167008	0.090359
C22	C	-1.018495	-0.167667	0.091554
C23	C	-1.347305	-0.310193	0.000051
C24	C	-1.301770	-0.414460	0.000053
N25	N	-1.550478	-0.075646	0.248779
C26	C	-1.117136	0.428167	0.000042
C27	C	-1.159958	0.526146	0.000046
C28	C	-1.400814	0.546970	0.000052
C29	C	-1.358011	0.448990	0.000044
C30	C	-1.216170	0.389596	0.000040
C31	C	-1.457045	0.410419	0.000042
C32	C	-1.414246	0.312449	0.000039
C33	C	-1.272414	0.253050	0.000038
C34	C	-1.173372	0.291626	0.000037
C35	C	-1.598888	0.469817	0.000053
C36	C	-1.697922	0.431246	0.000051
C37	C	-1.655121	0.333272	0.000041
C38	C	-1.513288	0.273873	0.000040
C39	C	-1.754163	0.294696	0.000042
C40	C	-1.711364	0.196726	0.000039
C41	C	-1.470490	0.175903	0.000037
N42	N	-1.320833	-0.201473	-0.248682
C43	C	-1.135746	-0.302850	0.600592
C44	C	-1.182196	-0.277410	0.701091
C45	C	-1.413072	-0.150943	0.701057
C46	C	-1.366639	-0.176369	0.600555
C47	C	-1.227975	-0.252324	0.550331
C48	C	-1.458868	-0.125843	0.550294
C49	C	-1.412440	-0.151271	0.449801
C50	C	-1.273784	-0.227224	0.399569
C51	C	-1.181547	-0.277752	0.449838
C52	C	-1.597535	-0.049893	0.600520
C53	C	-1.689764	0.000633	0.550259
C54	C	-1.643333	-0.024790	0.449764
C55	C	-1.504676	-0.100744	0.399533
C56	C	-1.735569	0.025737	0.399496
C57	C	-1.689142	0.000309	0.299003
C58	C	-1.458249	-0.126171	0.299040
H59	H	-0.950051	0.023998	0.065787
H60	H	-1.057868	0.243262	0.000027
C61	C	-0.873842	-0.000515	-0.087416
H62	H	-0.778529	-0.048699	-0.124301
H63	H	-0.871335	0.059095	-0.066449
H64	H	-0.937654	0.008559	-0.125692
C65	C	-1.051004	0.568567	0.000034
H66	H	-0.960399	0.519158	0.000022
H67	H	-1.088384	0.620436	0.055705
H68	H	-1.036993	0.592264	-0.055650
H69	H	-1.633726	0.549587	0.000047
C70	C	-1.115060	-0.005319	-0.088404
H71	H	-1.042987	0.009262	-0.124252
H72	H	-1.207020	0.050816	-0.068081
H73	H	-1.120437	-0.056692	-0.127458
H74	H	-0.918525	-0.291856	-0.094518
H75	H	-1.009272	-0.242365	0.097060
C76	C	-1.556826	0.612306	0.000052
H77	H	-1.568131	0.676177	0.000048
H78	H	-1.625004	0.614608	0.055722
H79	H	-1.573580	0.586444	-0.055633
H80	H	-0.746989	-0.190925	-0.159341
H81	H	-0.703718	-0.286915	-0.095330
H82	H	-1.001632	0.379803	0.000032
H83	H	-1.345329	-0.188015	0.258145
C84	C	-1.888091	0.109279	0.454751
H85	H	-1.902530	0.117187	0.521799
H86	H	-1.960210	0.094308	0.438265
H87	H	-1.895618	0.167891	0.438284
C88	C	-1.139308	-0.095046	0.182669
H89	H	-1.112649	-0.111517	0.237786
H90	H	-1.228206	-0.097736	0.184352
H91	H	-1.151587	-0.031075	0.182087
H92	H	-1.165534	0.019350	0.065389
C93	C	-0.971489	-0.190405	-0.182786
H94	H	-1.064744	-0.135800	-0.165693
H95	H	-0.972689	-0.244848	-0.219674
H96	H	-0.900175	-0.175767	-0.219532
C97	C	-1.853934	0.496581	0.000051
H98	H	-1.865239	0.560452	0.000047
H99	H	-1.922112	0.498883	0.055720
H100	H	-1.870688	0.470720	-0.055634
C101	C	-1.790578	0.055889	0.243708
H102	H	-1.743069	0.029861	0.176665
H103	H	-1.813322	0.122828	0.260174
H104	H	-1.877921	0.049249	0.260161
C105	C	-0.759842	-0.268633	0.091195
H106	H	-0.676101	-0.292117	0.036809
H107	H	-0.802348	-0.311981	0.089189
H108	H	-0.732220	-0.264489	0.148095
H109	H	-0.887745	-0.115752	0.159461
C110	C	-1.820296	0.154293	0.000036
H111	H	-1.910896	0.203695	0.000029
H112	H	-1.834306	0.130588	0.055709
H113	H	-1.782899	0.102426	-0.055646
H114	H	-1.354986	0.127538	0.000027
H115	H	-1.237572	0.173278	0.000041
H116	H	-1.869654	0.343071	0.000055
C117	C	-1.222703	-0.255202	0.289029
H118	H	-1.126918	-0.307678	0.266318
H119	H	-1.222542	-0.200811	0.266289
H120	H	-1.287132	-0.274396	0.266285
H121	H	-1.525976	-0.089102	0.741961
H122	H	-1.068627	-0.339595	0.408943
H123	H	-1.022826	-0.364693	0.559697
H124	H	-1.107080	-0.318562	0.742009
H125	H	-1.635333	-0.029196	0.682348
C126	C	-1.842281	0.084181	0.605511
H127	H	-1.856721	0.092094	0.672560
H128	H	-1.914407	0.069216	0.589029
H129	H	-1.849795	0.142789	0.589040
