data_functionalizedCrystal
_audit_creation_method	'MofGen! by Chris Wilmer'
_symmetry_space_group_name_H-M	'P1'
_symmetry_Int_Tables_number	1
_symmetry_cell_setting	triclinic
loop_
_symmetry_equiv_pos_as_xyz
  x,y,z
_cell_length_a	11.792241
_cell_length_b	10.540539
_cell_length_c	10.268362
_cell_angle_alpha	89.996859
_cell_angle_beta	89.999626
_cell_angle_gamma	84.359454
loop_
_atom_site_label
_atom_site_type_symbol
_atom_site_fract_x
_atom_site_fract_y
_atom_site_fract_z
O1	O	1.507362	0.173992	-0.108167
O2	O	2.007362	0.673992	0.391833
O3	O	1.177067	0.191924	-0.108197
O4	O	1.677067	0.691924	0.391803
O5	O	1.349750	-0.001773	-0.108180
O6	O	1.849750	0.498227	0.391820
O7	O	1.334679	0.367689	-0.108184
O8	O	1.834679	0.867689	0.391816
O9	O	1.349735	-0.001781	0.108421
O10	O	1.849735	0.498219	0.608421
O11	O	1.177052	0.191916	0.108404
O12	O	1.677052	0.691916	0.608404
O13	O	1.507347	0.173984	0.108433
O14	O	2.007347	0.673984	0.608433
Cu15	Cu	1.342198	0.182949	0.128196
Cu16	Cu	1.842198	0.682949	0.628196
Cu17	Cu	1.342216	0.182959	-0.127959
Cu18	Cu	1.842216	0.682959	0.372041
O19	O	1.334664	0.367681	0.108416
O20	O	1.834664	0.867681	0.608416
C21	C	1.134766	0.190793	0.000100
C22	C	1.634766	0.690793	0.500100
C23	C	1.008743	0.187422	0.000088
C24	C	1.508743	0.687422	0.500088
C25	C	1.348612	-0.049076	0.000118
C26	C	1.848612	0.450924	0.500118
C27	C	1.345231	-0.190014	0.000111
C28	C	1.845231	0.309986	0.500111
C29	C	0.778015	0.181223	0.000126
C30	C	1.278015	0.681223	0.500126
C31	C	0.906409	0.184667	0.000105
C32	C	1.406409	0.684667	0.500105
C33	C	1.215660	-0.373018	-0.000387
C34	C	1.715660	0.126982	0.499613
C35	C	1.219087	-0.226411	0.000101
C36	C	1.719087	0.273589	0.500101
C37	C	1.405928	-0.251874	0.123806
C38	C	1.905928	0.248126	0.623806
C39	C	1.401623	-0.398404	0.123910
C40	C	1.901623	0.101596	0.623910
C41	C	1.404206	-0.398921	-0.122405
C42	C	1.904206	0.101079	0.377595
C43	C	1.405368	-0.251943	-0.124041
C44	C	1.905368	0.248057	0.375959
C45	C	1.549648	0.175114	0.000134
C46	C	2.049648	0.675114	0.500134
C47	C	1.675671	0.178486	0.000137
C48	C	2.175671	0.678486	0.500137
C49	C	1.335802	0.414984	0.000116
C50	C	1.835802	0.914984	0.500116
C51	C	1.339183	0.555921	0.000114
C52	C	1.839183	1.055921	0.500114
N53	N	1.342194	0.182942	0.308362
N54	N	1.842194	0.682942	0.808362
N55	N	1.342229	0.182956	-0.308125
N56	N	1.842229	0.682956	0.191875
C57	C	1.342210	0.182956	0.574032
C58	C	1.842210	0.682956	1.074032
C59	C	1.342197	0.182952	0.426195
C60	C	1.842197	0.682952	0.926195
H61	H	1.171327	-0.183649	-0.088569
H62	H	1.671327	0.316351	0.411431
C63	C	1.154100	-0.169789	0.120082
C64	C	1.654100	0.330211	0.620082
N65	N	1.105150	-0.127142	0.210458
N66	N	1.605150	0.372858	0.710458
C67	C	1.349056	-0.441357	-0.249062
C68	C	1.849056	0.058643	0.250938
N69	N	1.307504	-0.473317	-0.344453
N70	N	1.807504	0.026683	0.155547
C71	C	1.148340	-0.411445	-0.120213
C72	C	1.648340	0.088555	0.379787
N73	N	1.097633	-0.440401	-0.210468
N74	N	1.597633	0.059599	0.289532
H75	H	1.356752	-0.426461	0.216366
H76	H	1.856752	0.073539	0.716366
C77	C	1.524179	-0.463610	0.131522
C78	C	2.024179	0.036390	0.631522
N79	N	1.616487	-0.512717	0.137264
N80	N	2.116487	-0.012717	0.637264
C81	C	1.531068	-0.222058	0.130051
C82	C	2.031068	0.277942	0.630051
N83	N	1.625322	-0.199589	0.134759
N84	N	2.125322	0.300411	0.634759
H85	H	1.497336	-0.228021	-0.131502
H86	H	1.997336	0.271979	0.368498
C87	C	1.527292	-0.463130	-0.123524
C88	C	2.027292	0.036870	0.376476
N89	N	1.619996	-0.511499	-0.124359
N90	N	2.119996	-0.011499	0.375641
C91	C	1.345427	-0.196472	-0.247667
C92	C	1.845427	0.303528	0.252333
N93	N	1.300269	-0.154695	-0.340780
N94	N	1.800269	0.345305	0.159220
H95	H	1.166026	-0.403067	0.087812
H96	H	1.666026	0.096933	0.587812
H97	H	1.363752	-0.209140	0.215848
H98	H	1.863752	0.290860	0.715848
