data_functionalizedCrystal
_audit_creation_method	'MofGen! by Chris Wilmer'
_symmetry_space_group_name_H-M	'P1'
_symmetry_Int_Tables_number	1
_symmetry_cell_setting	triclinic
loop_
_symmetry_equiv_pos_as_xyz
  x,y,z
_cell_length_a	12.759401
_cell_length_b	11.169416
_cell_length_c	12.759393
_cell_angle_alpha	90.029135
_cell_angle_beta	90.021162
_cell_angle_gamma	90.011882
loop_
_atom_site_label
_atom_site_type_symbol
_atom_site_fract_x
_atom_site_fract_y
_atom_site_fract_z
Zn1	Zn	1.606289	-0.477681	0.594074
Zn2	Zn	1.606197	-0.678414	0.418401
Zn3	Zn	1.430591	-0.477749	0.418405
Zn4	Zn	1.430593	-0.678327	0.594035
O5	O	1.518417	-0.578043	0.506229
O6	O	1.753297	-0.504316	0.570785
O7	O	1.582863	-0.651860	0.271381
O8	O	1.453935	-0.309790	0.441726
O9	O	1.753230	-0.651794	0.441720
O10	O	1.583019	-0.309740	0.570789
O11	O	1.453846	-0.504433	0.271383
O12	O	1.283570	-0.504348	0.441688
O13	O	1.453939	-0.651646	0.741061
O14	O	1.283572	-0.651712	0.570722
O15	O	1.583022	-0.504232	0.741090
O16	O	1.582865	-0.846352	0.441682
O17	O	1.453850	-0.846288	0.570719
C18	C	1.245450	-0.578029	0.506202
C19	C	1.128673	-0.578052	0.506215
C20	C	0.964115	-0.654900	0.573333
C21	C	1.073839	-0.654898	0.573305
C22	C	1.073778	-0.501212	0.439143
C23	C	0.964056	-0.501221	0.439167
C24	C	0.964151	-0.743626	0.650794
C25	C	1.073875	-0.743624	0.650765
C26	C	1.518377	-0.889867	0.506218
C27	C	1.518455	-1.023267	0.506249
C28	C	1.792451	-0.578057	0.506256
C29	C	1.909227	-0.578063	0.506268
C30	C	1.518491	-0.577921	0.780262
C31	C	1.518522	-0.577870	0.897039
C32	C	1.518487	-0.265000	0.506262
C33	C	1.518516	-0.131600	0.506276
C34	C	1.518405	-0.578077	0.233261
C35	C	1.518577	-0.577790	0.116485
C36	C	1.585745	-0.501104	0.951918
C37	C	1.585770	-0.501061	1.061642
C38	C	1.451347	-0.654559	1.061599
C39	C	1.451317	-0.654595	0.951877
C40	C	1.663356	-0.412487	0.951943
C41	C	1.663381	-0.412443	1.061668
H42	H	1.103706	-0.718828	0.732164
Br43	Br	1.614676	-0.265330	1.118420
Br44	Br	1.360062	-0.758757	0.877400
Br45	Br	0.907500	-0.688304	0.779710
H46	H	1.396628	-0.717024	1.106261
Br47	Br	1.792149	-0.468016	0.895211
Br48	Br	1.130559	-0.890791	0.602117
Br49	Br	0.889567	-0.396954	0.348132
Br50	Br	1.148195	-0.396933	0.348079
Br51	Br	0.914472	-0.898507	0.614269
H52	H	1.641581	-0.319541	0.922183
Br53	Br	1.799006	-0.453908	1.111318
