data_functionalizedCrystal
_audit_creation_method	'MofGen! by Chris Wilmer'
_symmetry_space_group_name_H-M	'P1'
_symmetry_Int_Tables_number	1
_symmetry_cell_setting	triclinic
loop_
_symmetry_equiv_pos_as_xyz
  x,y,z
_cell_length_a	14.560438
_cell_length_b	14.628931
_cell_length_c	14.628931
_cell_angle_alpha	60.000000
_cell_angle_beta	90.001341
_cell_angle_gamma	60.000249
loop_
_atom_site_label
_atom_site_type_symbol
_atom_site_fract_x
_atom_site_fract_y
_atom_site_fract_z
Zr1	Zr	0.884770	1.000562	-0.119933
O2	O	0.738122	1.191270	-0.265899
O3	O	0.929725	0.809855	-0.075187
O4	O	0.929726	1.000560	-0.265892
O5	O	0.738121	1.000565	0.075238
O6	O	1.080867	1.000557	-0.265887
O7	O	0.738121	1.000564	-0.075193
O8	O	1.080866	0.659421	0.075250
O9	O	0.738122	1.341701	-0.265899
O10	O	1.061693	0.888293	-0.056099
O11	O	0.948898	0.888295	0.056162
O12	O	0.948899	1.112826	-0.168369
O13	O	0.836104	1.112828	-0.056107
Zr14	Zr	1.125822	1.000558	0.119996
Zr15	Zr	1.125822	1.000557	-0.119925
Zr16	Zr	0.884770	1.000562	0.119988
Zr17	Zr	0.884770	1.240483	-0.119933
Zr18	Zr	1.125822	0.760636	0.119996
O19	O	1.080867	1.191264	0.075249
O20	O	1.080867	1.191263	-0.265888
O21	O	0.738121	1.191270	0.075238
O22	O	1.272470	0.809850	0.265962
O23	O	1.272471	0.809849	-0.075175
O24	O	0.929725	0.809856	0.265950
O25	O	1.272471	1.000554	-0.075176
O26	O	1.080866	1.000559	0.265955
O27	O	0.929725	1.000562	0.265950
O28	O	1.272471	1.000555	0.075256
O29	O	0.929727	1.341698	-0.265893
O30	O	1.080866	0.659422	0.265956
O31	O	1.272470	0.659418	0.265962
O32	O	1.272470	0.659417	0.075256
O33	O	0.738122	1.341702	-0.075194
O34	O	0.929726	1.341698	-0.075187
O35	O	1.061693	0.888293	0.168432
O36	O	1.174488	0.888291	0.056170
O37	O	1.061694	1.112824	-0.056100
O38	O	0.948899	1.112827	0.056162
C39	C	1.005296	0.700454	0.000032
C40	C	1.005296	0.598601	0.000032
C41	C	1.061249	0.553191	-0.055657
C42	C	1.061251	0.447921	-0.055659
C43	C	0.703776	1.000565	0.000022
C44	C	0.601443	1.000567	0.000018
C45	C	0.553360	1.000569	-0.082854
C46	C	0.457214	1.000557	-0.082839
C47	C	0.457241	1.000546	0.082925
C48	C	0.553389	1.000549	0.082914
C49	C	0.601414	1.000587	-0.165749
C50	C	0.553330	1.000590	-0.248629
C51	C	0.457184	1.000578	-0.248614
C52	C	0.409122	1.000563	-0.165719
C53	C	1.306816	1.000554	0.000041
C54	C	1.409149	1.000552	0.000045
C55	C	1.005297	1.000559	-0.300073
C56	C	1.005297	1.000559	-0.401926
C57	C	1.005297	1.300665	0.000031
C58	C	1.005297	1.402518	0.000031
C59	C	0.949343	1.111942	-0.503029
C60	C	0.949342	1.111944	-0.608300
C61	C	1.005296	1.000561	0.300136
C62	C	1.005296	1.000561	0.401989
C63	C	1.306815	0.700449	0.000042
C64	C	1.409148	0.598594	0.000045
C65	C	1.005295	0.700455	0.300137
C66	C	1.005295	0.598603	0.401990
C67	C	1.306815	0.700450	0.300146
C68	C	1.409148	0.598595	0.402003
C69	C	0.703777	1.300670	-0.300084
C70	C	0.601444	1.402524	-0.401940
C71	C	0.703777	1.300671	0.000021
C72	C	0.601444	1.402525	0.000018
C73	C	1.005297	1.300664	-0.300074
C74	C	1.005297	1.402517	-0.401927
C75	C	1.398818	0.553185	-0.055646
C76	C	1.504583	0.447912	-0.055644
C77	C	1.061249	0.553193	0.503092
C78	C	1.061250	0.447923	0.608364
C79	C	1.510725	0.553184	0.391724
C80	C	1.616492	0.447912	0.496997
H81	H	0.957395	0.559542	0.047711
F82	F	0.604566	1.000543	0.171119
F83	F	1.617500	0.453533	0.062382
F84	F	0.703737	1.000606	-0.165774
H85	H	1.519021	0.441548	0.606725
H86	H	0.901432	1.207304	-0.695032
F87	F	1.397820	0.547555	0.515371
H88	H	1.109147	0.592255	0.511714
F89	F	0.942684	0.453547	0.484714
H90	H	0.592472	1.000592	-0.316114
F91	F	1.123873	0.396876	0.721727
F92	F	1.522053	0.604236	0.278356
H93	H	0.957385	0.441569	0.047706
H94	H	0.418041	1.000568	-0.316091
F95	F	0.886734	1.236586	-0.514305
H96	H	1.496294	0.559539	0.047722
H97	H	1.109150	0.408875	-0.103342
F98	F	1.123868	0.604233	-0.117973
F99	F	0.306802	1.000534	-0.165702
H100	H	1.053196	0.905196	-0.511283
H101	H	0.418102	1.000536	0.150414
F102	F	1.067918	0.875914	-0.390649
H103	H	1.311673	0.592249	-0.103333
F104	F	1.493246	0.396867	-0.117961
F105	F	0.942673	0.547563	0.390713
H106	H	1.703631	0.408855	0.488370
