data_functionalizedCrystal
_audit_creation_method	'MofGen! by Chris Wilmer'
_symmetry_space_group_name_H-M	'P1'
_symmetry_Int_Tables_number	1
_symmetry_cell_setting	triclinic
loop_
_symmetry_equiv_pos_as_xyz
  x,y,z
_cell_length_a	9.065218
_cell_length_b	16.098524
_cell_length_c	9.065218
_cell_angle_alpha	86.973909
_cell_angle_beta	94.984115
_cell_angle_gamma	93.028078
loop_
_atom_site_label
_atom_site_type_symbol
_atom_site_fract_x
_atom_site_fract_y
_atom_site_fract_z
O1	O	1.966370	0.069255	-0.222325
O2	O	1.537085	0.069256	-0.240071
O3	O	1.760601	0.069254	-0.016555
O4	O	1.742855	0.069257	-0.445840
O5	O	1.748644	-0.069260	-0.004612
O6	O	1.525128	-0.069257	-0.228128
O7	O	1.954413	-0.069258	-0.210381
Zn8	Zn	1.737872	-0.091250	-0.217359
Zn9	Zn	1.753626	0.091248	-0.233094
O10	O	1.730898	-0.069256	-0.433897
C11	C	1.476120	-0.000001	-0.232394
C12	C	1.312277	-0.000000	-0.227294
N13	N	1.727131	-0.215800	-0.206619
C14	C	1.814058	-0.259381	-0.293606
C15	C	1.806564	-0.346570	-0.286084
C16	C	1.712135	-0.390177	-0.191580
C17	C	1.625205	-0.346589	-0.104583
C18	C	1.632708	-0.259402	-0.112098
C19	C	1.684952	-0.653428	-0.164341
C20	C	1.677452	-0.740622	-0.156835
C21	C	1.858814	-0.740596	-0.338335
C22	C	1.866302	-0.653407	-0.345849
C23	C	1.779378	-0.609827	-0.258845
C24	C	1.704469	-0.479298	-0.183892
C25	C	1.787053	-0.520707	-0.266527
C26	C	2.015378	0.000000	-0.218059
C27	C	2.179222	0.000005	-0.223159
C28	C	1.752917	-0.000002	0.044403
C29	C	1.747818	0.000002	0.208245
N30	N	1.764379	0.215797	-0.243823
C31	C	1.738582	0.000001	-0.494856
C32	C	1.743681	0.000002	-0.658699
H33	H	1.890943	-0.223882	-0.370570
C34	C	1.890927	-0.472737	-0.370472
N35	N	1.969163	-0.436599	-0.448768
H36	H	1.614172	-0.617956	-0.093496
H37	H	1.548326	-0.382101	-0.027629
H38	H	1.561922	-0.223919	-0.041264
H39	H	1.627583	-0.514812	-0.106948
H40	H	1.943200	-0.617908	-0.422799
C41	C	1.954436	-0.788541	-0.434020
N42	N	2.026468	-0.824653	-0.506088
C43	C	1.573581	-0.788587	-0.052856
N44	N	1.495352	-0.824715	0.025459
H45	H	1.877352	-0.382050	-0.356916
