data_functionalizedCrystal
_audit_creation_method	'MofGen! by Chris Wilmer'
_symmetry_space_group_name_H-M	'P1'
_symmetry_Int_Tables_number	1
_symmetry_cell_setting	triclinic
loop_
_symmetry_equiv_pos_as_xyz
  x,y,z
_cell_length_a	12.759401
_cell_length_b	12.827893
_cell_length_c	12.827885
_cell_angle_alpha	90.025051
_cell_angle_beta	90.018136
_cell_angle_gamma	90.002553
loop_
_atom_site_label
_atom_site_type_symbol
_atom_site_fract_x
_atom_site_fract_y
_atom_site_fract_z
Zn1	Zn	1.606333	-0.416009	0.590851
Zn2	Zn	1.606263	-0.590786	0.416126
Zn3	Zn	1.430636	-0.416057	0.416128
Zn4	Zn	1.430658	-0.590706	0.590830
O5	O	1.518472	-0.503390	0.503484
O6	O	1.753344	-0.439207	0.567682
O7	O	1.582927	-0.567662	0.269890
O8	O	1.453963	-0.269815	0.439316
O9	O	1.753293	-0.567615	0.439312
O10	O	1.583046	-0.269779	0.567684
O11	O	1.453895	-0.439289	0.269892
O12	O	1.283618	-0.439211	0.439295
O13	O	1.454000	-0.567478	0.737069
O14	O	1.283634	-0.567525	0.567647
O15	O	1.583067	-0.439129	0.737085
O16	O	1.582948	-0.737012	0.439291
O17	O	1.453932	-0.736953	0.567645
C18	C	1.245505	-0.503365	0.503469
C19	C	1.128728	-0.503380	0.503488
C20	C	1.073886	-0.436644	0.570434
C21	C	0.964162	-0.436664	0.570440
C22	C	0.964132	-0.570165	0.436552
C23	C	1.073854	-0.570139	0.436541
C24	C	1.128760	-0.369885	0.637380
C25	C	1.073918	-0.303144	0.704332
C26	C	0.964194	-0.303164	0.704339
C27	C	0.909312	-0.369925	0.637393
C28	C	1.518463	-0.774899	0.503488
C29	C	1.518555	-0.891053	0.503525
C30	C	1.518544	-0.503289	0.776054
C31	C	1.518574	-0.503246	0.892207
C32	C	1.792505	-0.503415	0.503499
C33	C	1.909282	-0.503426	0.503506
C34	C	1.518510	-0.230819	0.503503
C35	C	1.518526	-0.114666	0.503511
C36	C	1.454665	-0.062899	0.440000
C37	C	1.454680	0.057151	0.440007
C38	C	1.518461	-0.503414	0.231974
C39	C	1.518634	-0.503163	0.115821
C40	C	1.582448	-0.439723	0.944000
C41	C	1.582481	-0.439677	1.064051
H42	H	1.118610	-0.248784	0.758830
H43	H	1.573207	-0.070111	0.557894
Br44	Br	1.148290	-0.660718	0.345693
H45	H	1.218103	-0.369861	0.637382
H46	H	1.637104	-0.385368	0.899465
H47	H	1.637169	-0.385296	1.108591
H48	H	0.919544	-0.248813	0.758847
H49	H	0.819967	-0.369913	0.637382
H50	H	1.463907	-0.557591	0.936743
H51	H	1.399977	-0.107456	0.385625
Br52	Br	0.889650	-0.660764	0.345705
Br53	Br	1.363557	0.131344	0.349366
H54	H	1.573236	0.064435	0.557897
Br55	Br	1.427490	-0.593825	1.041599
