data_functionalizedCrystal
_audit_creation_method	'MofGen! by Chris Wilmer'
_symmetry_space_group_name_H-M	'P1'
_symmetry_Int_Tables_number	1
_symmetry_cell_setting	triclinic
loop_
_symmetry_equiv_pos_as_xyz
  x,y,z
_cell_length_a	17.077404
_cell_length_b	12.759394
_cell_length_c	17.077396
_cell_angle_alpha	89.975378
_cell_angle_beta	89.980499
_cell_angle_gamma	90.014081
loop_
_atom_site_label
_atom_site_type_symbol
_atom_site_fract_x
_atom_site_fract_y
_atom_site_fract_z
Zn1	Zn	1.200104	-0.418260	-0.443864
Zn2	Zn	1.700104	0.081740	0.056136
Zn3	Zn	1.200032	-0.593961	-0.312607
Zn4	Zn	1.700032	-0.093961	0.187393
Zn5	Zn	1.068836	-0.418297	-0.312612
Zn6	Zn	1.568836	0.081703	0.187388
Zn7	Zn	1.068824	-0.593898	-0.443830
Zn8	Zn	1.568824	-0.093898	0.056170
O9	O	1.134449	-0.506104	-0.378228
O10	O	1.634449	-0.006104	0.121772
O11	O	1.309941	-0.441578	-0.426464
O12	O	1.809941	0.058422	0.073536
O13	O	1.182603	-0.570700	-0.202760
O14	O	1.682603	-0.070700	0.297240
O15	O	1.086284	-0.271271	-0.330039
O16	O	1.586284	0.228729	0.169961
O17	O	1.309888	-0.570664	-0.330030
O18	O	1.809888	-0.070664	0.169970
O19	O	1.182726	-0.271244	-0.426469
O20	O	1.682726	0.228756	0.073531
O21	O	1.086214	-0.441641	-0.202764
O22	O	1.586214	0.058359	0.297236
O23	O	0.958987	-0.441580	-0.330006
O24	O	1.458987	0.058420	0.169994
O25	O	1.086264	-0.570558	-0.553682
O26	O	1.586264	-0.070558	-0.053682
O27	O	0.958979	-0.570594	-0.426412
O28	O	1.458979	-0.070594	0.073588
O29	O	1.182715	-0.441517	-0.553706
O30	O	1.682715	0.058483	-0.053706
O31	O	1.182592	-0.740974	-0.329998
O32	O	1.682592	-0.240974	0.170002
O33	O	1.086194	-0.740928	-0.426407
O34	O	1.586194	-0.240928	0.073593
C35	C	0.930501	-0.506085	-0.378206
C36	C	1.430501	-0.006085	0.121794
C37	C	0.843251	-0.506102	-0.378216
C38	C	1.343251	-0.006102	0.121784
C39	C	0.802277	-0.573381	-0.428334
C40	C	1.302277	-0.073381	0.071666
C41	C	0.720297	-0.573383	-0.428346
C42	C	1.220297	-0.073383	0.071654
C43	C	0.679292	-0.506111	-0.378236
C44	C	1.179292	-0.006111	0.121764
C45	C	0.720272	-0.438825	-0.328116
C46	C	1.220272	0.061175	0.171884
C47	C	0.802250	-0.438818	-0.328108
C48	C	1.302250	0.061182	0.171892
C49	C	0.549401	-0.438846	-0.328135
C50	C	1.049401	0.061154	0.171865
C51	C	0.467417	-0.438854	-0.328142
C52	C	0.967417	0.061146	0.171858
C53	C	0.467448	-0.573411	-0.428373
C54	C	0.967448	-0.073411	0.071627
C55	C	0.549427	-0.573404	-0.428365
C56	C	1.049427	-0.073404	0.071635
C57	C	0.590401	-0.506119	-0.378244
C58	C	1.090401	-0.006119	0.121756
C59	C	1.134405	-0.779072	-0.378215
C60	C	1.634405	-0.279072	0.121785
C61	C	1.134458	-0.895848	-0.378236
C62	C	1.634458	-0.395848	0.121764
C63	C	1.234809	-0.895662	-0.478724
C64	C	1.734809	-0.395662	0.021276
C65	C	1.285008	-0.950429	-0.528974
C66	C	1.785008	-0.450429	-0.028974
C67	C	1.285055	-1.060151	-0.528991
C68	C	1.785055	-0.560151	-0.028991
C69	C	1.234895	-1.115108	-0.478754
C70	C	1.734895	-0.615108	0.021246
C71	C	1.184695	-1.060340	-0.428504
C72	C	1.684695	-0.560340	0.071496
C73	C	1.184655	-0.950616	-0.428491
C74	C	1.684655	-0.450616	0.071509
C75	C	1.084342	-1.060526	-0.328021
C76	C	1.584342	-0.560526	0.171979
C77	C	1.084298	-0.950805	-0.327999
C78	C	1.584298	-0.450805	0.172001
C79	C	1.034182	-1.115483	-0.277784
C80	C	1.534182	-0.615483	0.222216
C81	C	0.983985	-1.060715	-0.227529
C82	C	1.483985	-0.560715	0.272471
C83	C	0.983941	-0.950987	-0.227514
C84	C	1.483941	-0.450987	0.272486
C85	C	1.034098	-0.896037	-0.277749
C86	C	1.534098	-0.396037	0.222251
C87	C	1.339193	-0.506124	-0.378250
C88	C	1.839193	-0.006124	0.121750
C89	C	1.426443	-0.506132	-0.378260
C90	C	1.926443	-0.006132	0.121740
C91	C	1.134496	-0.506027	-0.582972
C92	C	1.634496	-0.006027	-0.082972
C93	C	1.134517	-0.505994	-0.670222
C94	C	1.634517	-0.005994	-0.170222
C95	C	1.134514	-0.232071	-0.378258
C96	C	1.634514	0.267929	0.121742
C97	C	1.134542	-0.115294	-0.378271
C98	C	1.634542	0.384706	0.121729
C99	C	1.184740	-0.438797	-0.711227
C100	C	1.684740	0.061203	-0.211227
C101	C	1.184750	-0.438762	-0.793207
C102	C	1.684750	0.061238	-0.293207
C103	C	1.134539	-0.505930	-0.834182
C104	C	1.634539	-0.005930	-0.334182
C105	C	1.084310	-0.573130	-0.793172
C106	C	1.584310	-0.073130	-0.293172
C107	C	1.084297	-0.573159	-0.711193
C108	C	1.584297	-0.073159	-0.211193
C109	C	1.084341	-0.573067	-0.964042
C110	C	1.584341	-0.073067	-0.464042
C111	C	1.084355	-0.573039	-1.046027
C112	C	1.584355	-0.073039	-0.546027
C113	C	1.184794	-0.438670	-1.046056
C114	C	1.684794	0.061330	-0.546056
C115	C	1.184781	-0.438698	-0.964077
C116	C	1.684781	0.061302	-0.464077
C117	C	1.134553	-0.505900	-0.923073
C118	C	1.634553	-0.005900	-0.423073
C119	C	1.134447	-0.506105	-0.174280
C120	C	1.634447	-0.006105	0.325720
C121	C	1.134579	-0.505842	-0.087031
C122	C	1.634579	-0.005842	0.412969
H123	H	0.835658	-0.628165	-0.469136
H124	H	1.335658	-0.128165	0.030864
Cl125	Cl	1.021184	-0.657567	-0.844683
Cl126	Cl	1.521184	-0.157567	-0.344683
H127	H	0.686939	-0.628169	-0.469157
H128	H	1.186939	-0.128169	0.030843
Cl129	Cl	1.247909	-0.354264	-0.912567
Cl130	Cl	1.747909	0.145736	-0.412567
Cl131	Cl	1.247926	-0.354328	-0.844752
Cl132	Cl	1.747926	0.145672	-0.344752
Cl133	Cl	0.920927	-1.129808	-0.164389
Cl134	Cl	1.420927	-0.629808	0.335611
H135	H	0.943059	-0.906401	-0.186597
H136	H	1.443059	-0.406401	0.313403
H137	H	1.325847	-0.905674	-0.569878
H138	H	1.825847	-0.405674	-0.069878
Cl139	Cl	0.600975	-0.657983	-0.491356
Cl140	Cl	1.100975	-0.157983	0.008644
H141	H	1.034220	-1.204824	-0.277805
H142	H	1.534220	-0.704824	0.222195
Cl143	Cl	1.234743	-0.757725	-0.478717
Cl144	Cl	1.734743	-0.257725	0.021283
H145	H	0.434033	-0.384062	-0.287347
H146	H	0.934033	0.115938	0.212653
Cl147	Cl	0.415938	-0.657983	-0.491394
Cl148	Cl	0.915938	-0.157983	0.008606
H149	H	1.034071	-0.806696	-0.277738
H150	H	1.534071	-0.306696	0.222262
H151	H	1.043467	-0.627731	-1.079386
H152	H	1.543467	-0.127731	-0.579386
H153	H	1.325924	-1.104743	-0.569917
H154	H	1.825924	-0.604743	-0.069917
H155	H	1.234930	-1.204449	-0.478779
H156	H	1.734930	-0.704449	0.021221
Cl157	Cl	1.247870	-0.354357	-0.659724
Cl158	Cl	1.747870	0.145643	-0.159724
H159	H	1.043392	-0.627867	-0.677808
H160	H	1.543392	-0.127867	-0.177808
Cl161	Cl	1.247939	-0.354189	-1.097604
Cl162	Cl	1.747939	0.145811	-0.597604
Cl163	Cl	1.021195	-0.657549	-0.912495
Cl164	Cl	1.521195	-0.157549	-0.412495
H165	H	0.686879	-0.384047	-0.287319
H166	H	1.186879	0.115953	0.212681
Cl167	Cl	0.853761	-0.354233	-0.265102
Cl168	Cl	1.353761	0.145767	0.234898
Cl169	Cl	0.600910	-0.354257	-0.265124
Cl170	Cl	1.100910	0.145743	0.234876
