data_functionalizedCrystal
_audit_creation_method	'MofGen! by Chris Wilmer'
_symmetry_space_group_name_H-M	'P1'
_symmetry_Int_Tables_number	1
_symmetry_cell_setting	triclinic
loop_
_symmetry_equiv_pos_as_xyz
  x,y,z
_cell_length_a	11.169416
_cell_length_b	13.032951
_cell_length_c	11.169409
_cell_angle_alpha	82.803040
_cell_angle_beta	90.031365
_cell_angle_gamma	97.187149
loop_
_atom_site_label
_atom_site_type_symbol
_atom_site_fract_x
_atom_site_fract_y
_atom_site_fract_z
Zn1	Zn	-0.711164	-1.597819	0.911362
Zn2	Zn	-0.211164	-1.097819	1.411362
Zn3	Zn	-0.911891	-1.597723	0.710668
Zn4	Zn	-0.411891	-1.097723	1.210668
Zn5	Zn	-0.685698	-1.423044	0.685231
Zn6	Zn	-0.185698	-0.923044	1.185231
Zn7	Zn	-0.886269	-1.423051	0.885862
Zn8	Zn	-0.386269	-0.923051	1.385862
O9	O	-0.798756	-1.510409	0.798281
O10	O	-0.298756	-1.010409	1.298281
O11	O	-0.759171	-1.744050	0.906057
O12	O	-0.259171	-1.244050	1.406057
O13	O	-0.881951	-1.574508	0.539338
O14	O	-0.381951	-1.074508	1.039338
O15	O	-0.521132	-1.446265	0.715253
O16	O	-0.021132	-0.946265	1.215253
O17	O	-0.906644	-1.743980	0.758608
O18	O	-0.406644	-1.243980	1.258608
O19	O	-0.539842	-1.574672	0.881391
O20	O	-0.039842	-1.074672	1.381391
O21	O	-0.715769	-1.446173	0.520649
O22	O	-0.215769	-0.946173	1.020649
O23	O	-0.690924	-1.276801	0.690528
O24	O	-0.190924	-0.776801	1.190528
O25	O	-0.862976	-1.446278	1.057201
O26	O	-0.362976	-0.946278	1.557201
O27	O	-0.838283	-1.276806	0.837931
O28	O	-0.338283	-0.776806	1.337931
O29	O	-0.734327	-1.574678	1.075935
O30	O	-0.234327	-1.074678	1.575935
O31	O	-1.076436	-1.574515	0.733882
O32	O	-0.576436	-1.074515	1.233882
O33	O	-1.057612	-1.446185	0.862597
O34	O	-0.557612	-0.946185	1.362597
C35	C	-0.759061	-1.238884	0.758703
C36	C	-0.259061	-0.738884	1.258703
C37	C	-0.742108	-1.122724	0.741799
C38	C	-0.242108	-0.622724	1.241799
C39	C	-0.807577	-1.070967	0.807086
C40	C	-0.307577	-0.570967	1.307086
C41	C	-0.790057	-0.950909	0.789618
C42	C	-0.290057	-0.450909	1.289618
C43	C	-1.110574	-1.510369	0.798263
C44	C	-0.610574	-1.010369	1.298263
C45	C	-1.243986	-1.510447	0.798310
C46	C	-0.743986	-1.010447	1.298310
C47	C	-0.485723	-1.510478	0.798329
C48	C	0.014277	-1.010478	1.298329
C49	C	-0.352328	-1.510508	0.798349
C50	C	0.147672	-1.010508	1.298349
C51	C	-0.798634	-1.510489	1.111335
C52	C	-0.298634	-1.010489	1.611335
C53	C	-0.798582	-1.510524	1.244740
C54	C	-0.298582	-1.010524	1.744740
C55	C	-0.838593	-0.782995	0.838006
C56	C	-0.338593	-0.282995	1.338006
C57	C	-0.855535	-0.899155	0.854914
C58	C	-0.355535	-0.399155	1.354914
C59	C	-0.798799	-1.510389	0.486453
C60	C	-0.298799	-1.010389	0.986453
C61	C	-0.798542	-1.510558	0.353078
C62	C	-0.298542	-1.010558	0.853078
H63	H	-0.924554	-0.943720	0.923753
H64	H	-0.424554	-0.443720	1.423753
Br65	Br	-0.674997	-0.876638	0.674901
Br66	Br	-0.174997	-0.376638	1.174901
Br67	Br	-0.922625	-1.145242	0.921805
Br68	Br	-0.422625	-0.645242	1.421805
Br69	Br	-0.627053	-1.048448	0.627088
Br70	Br	-0.127053	-0.548448	1.127088
