data_functionalizedCrystal
_audit_creation_method	'MofGen! by Chris Wilmer'
_symmetry_space_group_name_H-M	'P1'
_symmetry_Int_Tables_number	1
_symmetry_cell_setting	triclinic
loop_
_symmetry_equiv_pos_as_xyz
  x,y,z
_cell_length_a	21.295419
_cell_length_b	21.295411
_cell_length_c	21.395362
_cell_angle_alpha	89.982470
_cell_angle_beta	90.043182
_cell_angle_gamma	89.975461
loop_
_atom_site_label
_atom_site_type_symbol
_atom_site_fract_x
_atom_site_fract_y
_atom_site_fract_z
Zn1	Zn	0.962365	-0.355929	-0.249262
Zn2	Zn	1.462365	0.144071	0.250738
Zn3	Zn	0.962271	-0.250662	-0.354023
Zn4	Zn	1.462271	0.249338	0.145977
Zn5	Zn	0.857088	-0.250674	-0.249290
Zn6	Zn	1.357088	0.249326	0.250710
Zn7	Zn	0.857061	-0.355894	-0.354033
Zn8	Zn	1.357061	0.144106	0.145967
O9	O	0.909696	-0.303290	-0.301652
O10	O	1.409696	0.196710	0.198348
O11	O	1.050442	-0.341975	-0.263143
O12	O	1.550442	0.158025	0.236857
O13	O	0.948290	-0.162574	-0.340137
O14	O	1.448290	0.337426	0.159863
O15	O	0.871104	-0.264656	-0.161608
O16	O	1.371104	0.235344	0.338392
O17	O	1.050373	-0.264636	-0.340110
O18	O	1.550373	0.235364	0.159890
O19	O	0.948450	-0.341987	-0.161588
O20	O	1.448450	0.158013	0.338412
O21	O	0.871013	-0.162583	-0.263190
O22	O	1.371013	0.337417	0.236810
O23	O	0.768995	-0.264622	-0.263200
O24	O	1.268995	0.235378	0.236800
O25	O	0.871058	-0.443988	-0.340128
O26	O	1.371058	0.056012	0.159872
O27	O	0.768975	-0.341927	-0.340155
O28	O	1.268975	0.158073	0.159845
O29	O	0.948424	-0.444014	-0.263153
O30	O	1.448424	0.055986	0.236847
O31	O	0.948264	-0.264601	-0.441702
O32	O	1.448264	0.235399	0.058298
O33	O	0.870967	-0.341915	-0.441710
O34	O	1.370967	0.158085	0.058290
C35	C	0.746145	-0.303272	-0.301682
C36	C	1.246145	0.196728	0.198318
C37	C	0.676177	-0.303280	-0.301710
C38	C	1.176177	0.196720	0.198290
C39	C	0.643368	-0.343612	-0.261699
C40	C	1.143368	0.156388	0.238301
C41	C	0.577626	-0.343615	-0.261682
C42	C	1.077626	0.156385	0.238318
C43	C	0.544694	-0.303291	-0.301688
C44	C	1.044694	0.196709	0.198312
C45	C	0.577510	-0.262950	-0.341702
C46	C	1.077510	0.237050	0.158298
C47	C	0.643252	-0.262945	-0.341713
C48	C	1.143252	0.237055	0.158287
N49	N	0.441421	-0.298375	-0.356508
N50	N	0.941421	0.201625	0.143492
N51	N	0.378969	-0.298384	-0.356495
N52	N	0.878969	0.201616	0.143505
C53	C	0.346619	-0.303305	-0.301655
C54	C	0.846619	0.196695	0.198345
N55	N	0.379080	-0.308228	-0.246827
N56	N	0.879080	0.191772	0.253173
N57	N	0.441537	-0.308222	-0.246840
N58	N	0.941537	0.191778	0.253160
C59	C	0.473409	-0.303292	-0.301680
C60	C	0.973409	0.196708	0.198320
C61	C	0.242526	-0.343642	-0.261622
C62	C	0.742526	0.156358	0.238378
C63	C	0.176782	-0.343641	-0.261605
C64	C	0.676782	0.156359	0.238395
C65	C	0.176668	-0.262979	-0.341630
C66	C	0.676668	0.237021	0.158370
C67	C	0.242410	-0.262978	-0.341642
C68	C	0.742410	0.237022	0.158358
C69	C	0.275335	-0.303313	-0.301639
C70	C	0.775335	0.196687	0.198361
C71	C	0.909749	-0.467480	-0.301639
C72	C	1.409749	0.032520	0.198361
C73	C	0.909771	-0.537448	-0.301633
C74	C	1.409771	-0.037448	0.198367
C75	C	0.950054	-0.570329	-0.261551
C76	C	1.450054	-0.070329	0.238449
C77	C	0.950053	-0.636072	-0.261524
C78	C	1.450053	-0.136072	0.238476
C79	C	0.909776	-0.668931	-0.301590
C80	C	1.409776	-0.168931	0.198410
C81	C	0.869485	-0.636042	-0.341675
C82	C	1.369485	-0.136042	0.158325
C83	C	0.869483	-0.570300	-0.341697
C84	C	1.369483	-0.070300	0.158303
N85	N	0.904921	-0.772150	-0.356402
N86	N	1.404921	-0.272150	0.143598
N87	N	0.904927	-0.834602	-0.356380
N88	N	1.404927	-0.334602	0.143620
C89	C	0.909780	-0.867006	-0.301527
C90	C	1.409780	-0.367006	0.198473
N91	N	0.914638	-0.834599	-0.246695
N92	N	1.414638	-0.334599	0.253305
N93	N	0.914636	-0.772142	-0.246718
N94	N	1.414636	-0.272142	0.253282
C95	C	0.909774	-0.740216	-0.301571
C96	C	1.409774	-0.240216	0.198429
C97	C	0.950064	-0.971172	-0.261411
C98	C	1.450064	-0.471172	0.238589
C99	C	0.950058	-1.036916	-0.261383
C100	C	1.450058	-0.536916	0.238617
C101	C	0.869494	-1.036885	-0.341540
C102	C	1.369494	-0.536885	0.158460
C103	C	0.869496	-0.971142	-0.341563
C104	C	1.369496	-0.471142	0.158437
C105	C	0.909784	-0.938290	-0.301499
C106	C	1.409784	-0.438290	0.198501
C107	C	1.073887	-0.303308	-0.301622
C108	C	1.573887	0.196692	0.198378
C109	C	1.143855	-0.303316	-0.301610
C110	C	1.643855	0.196684	0.198390
C111	C	0.909620	-0.303267	-0.464440
C112	C	1.409620	0.196733	0.035560
C113	C	0.909645	-0.303278	-0.534081
C114	C	1.409645	0.196722	-0.034081
C115	C	0.909681	-0.139738	-0.301620
C116	C	1.409681	0.360262	0.198380
C117	C	0.909780	-0.069770	-0.301449
C118	C	1.409780	0.430230	0.198551
C119	C	0.950049	-0.343637	-1.035814
C120	C	1.450049	0.156363	-0.535814
C121	C	0.950031	-0.343627	-0.970378
C122	C	1.450031	0.156373	-0.470378
C123	C	0.909782	-0.303329	-0.937719
C124	C	1.409782	0.196671	-0.437719
C125	C	0.869561	-0.263027	-0.970501
C126	C	1.369561	0.236973	-0.470501
C127	C	0.869585	-0.263034	-1.035935
C128	C	1.369585	0.236966	-0.535935
C129	C	0.853032	-0.298296	-0.834117
C130	C	1.353032	0.201704	-0.334117
C131	C	0.853007	-0.298293	-0.768684
C132	C	1.353007	0.201707	-0.268684
C133	C	0.909708	-0.303305	-0.735898
C134	C	1.409708	0.196695	-0.235898
C135	C	0.966436	-0.308333	-0.768554
C136	C	1.466436	0.191667	-0.268554
C137	C	0.966460	-0.308339	-0.833988
C138	C	1.466460	0.191661	-0.333988
C139	C	0.909752	-0.303317	-0.866767
C140	C	1.409752	0.196683	-0.366767
C141	C	0.949910	-0.343591	-0.632172
C142	C	1.449910	0.156409	-0.132172
C143	C	0.949893	-0.343576	-0.566735
C144	C	1.449893	0.156424	-0.066735
C145	C	0.869417	-0.262980	-0.566860
C146	C	1.369417	0.237020	-0.066860
C147	C	0.869440	-0.262991	-0.632295
C148	C	1.369440	0.237009	-0.132295
C149	C	0.909686	-0.303300	-0.664947
C150	C	1.409686	0.196700	-0.164947
C151	C	0.909790	-0.303327	-0.138229
C152	C	1.409790	0.196673	0.361771
C153	C	0.909830	-0.303343	-0.068587
C154	C	1.409830	0.196657	0.431413
H155	H	0.269123	-0.230137	-0.374226
H156	H	0.769123	0.269863	0.125774
H157	H	0.982859	-0.543585	-0.228927
H158	H	1.482859	-0.043585	0.271073
C159	C	0.994371	-0.672252	-0.217436
C160	C	1.494371	-0.172252	0.282564
C161	C	1.038687	-0.636116	-0.173370
C162	C	1.538687	-0.136116	0.326630
C163	C	1.083008	-0.672294	-0.129284
C164	C	1.583008	-0.172294	0.370716
C165	C	1.083012	-0.744606	-0.129264
C166	C	1.583012	-0.244606	0.370736
C167	C	1.038695	-0.780746	-0.173332
C168	C	1.538695	-0.280746	0.326668
C169	C	0.994374	-0.744569	-0.217418
C170	C	1.494374	-0.244569	0.282582
H171	H	1.038685	-0.582582	-0.173383
H172	H	1.538685	-0.082582	0.326617
H173	H	1.115814	-0.645540	-0.096662
H174	H	1.615814	-0.145540	0.403338
H175	H	1.115821	-0.771387	-0.096629
H176	H	1.615821	-0.271387	0.403371
H177	H	1.038696	-0.834280	-0.173319
H178	H	1.538696	-0.334280	0.326681
H179	H	0.961568	-0.771322	-0.250039
H180	H	1.461568	-0.271322	0.249961
H181	H	0.836689	-0.662800	-0.374296
H182	H	1.336689	-0.162800	0.125704
C183	C	0.994326	-0.387964	-1.071733
C184	C	1.494326	0.112036	-0.571733
C185	C	0.967045	-0.437363	-1.116733
C186	C	1.467045	0.062637	-0.616733
C187	C	1.011325	-0.481688	-1.152655
C188	C	1.511325	0.018312	-0.652655
C189	C	1.082885	-0.476613	-1.143579
C190	C	1.582885	0.023387	-0.643579
C191	C	1.110170	-0.427212	-1.098577
C192	C	1.610170	0.072788	-0.598577
C193	C	1.065890	-0.382888	-1.062655
C194	C	1.565890	0.117112	-0.562655
H195	H	0.914069	-0.441122	-1.123453
H196	H	1.414069	0.058878	-0.623453
H197	H	0.991127	-0.518257	-1.185968
H198	H	1.491127	-0.018257	-0.685968
H199	H	1.115664	-0.509424	-1.170171
H200	H	1.615664	-0.009424	-0.670171
H201	H	1.163146	-0.423453	-1.091857
H202	H	1.663146	0.076547	-0.591857
H203	H	1.086088	-0.346318	-1.029342
H204	H	1.586088	0.153682	-0.529342
H205	H	0.836677	-0.543529	-0.374336
H206	H	1.336677	-0.043529	0.125664
H207	H	1.012607	-0.312415	-0.741860
H208	H	1.512607	0.187585	-0.241860
H209	H	0.982865	-0.944423	-0.228785
H210	H	1.482865	-0.444423	0.271215
H211	H	0.150070	-0.376483	-0.229019
H212	H	0.650070	0.123517	0.270981
C213	C	0.790654	-0.292785	-0.870176
C214	C	1.290654	0.207215	-0.370176
C215	C	0.770318	-0.345434	-0.915160
C216	C	1.270318	0.154566	-0.415160
C217	C	0.707942	-0.339922	-0.951217
C218	C	1.207942	0.160078	-0.451217
C219	C	0.665902	-0.281762	-0.942289
C220	C	1.165902	0.218238	-0.442289
C221	C	0.686238	-0.229109	-0.897302
C222	C	1.186238	0.270891	-0.397302
C223	C	0.748614	-0.234620	-0.861245
C224	C	1.248614	0.265380	-0.361245
H225	H	0.801438	-0.388491	-0.921772
H226	H	1.301438	0.111509	-0.421772
H227	H	0.692888	-0.378900	-0.984519
H228	H	1.192888	0.121100	-0.484519
H229	H	0.619728	-0.277683	-0.968980
H230	H	1.119728	0.222317	-0.468980
H231	H	0.655117	-0.186052	-0.890691
H232	H	1.155117	0.313948	-0.390691
H233	H	0.763668	-0.195643	-0.827943
H234	H	1.263668	0.304357	-0.327943
C235	C	0.825144	-0.218651	-0.530941
C236	C	1.325144	0.281349	-0.030941
C237	C	0.753583	-0.223717	-0.540013
C238	C	1.253583	0.276283	-0.040013
C239	C	0.709311	-0.179384	-0.504091
C240	C	1.209311	0.320616	-0.004091
C241	C	0.736602	-0.129986	-0.459097
C242	C	1.236602	0.370014	0.040903
C243	C	0.808167	-0.124918	-0.450023
C244	C	1.308167	0.375082	0.049977
C245	C	0.852438	-0.169251	-0.485945
C246	C	1.352438	0.330749	0.014055
H247	H	0.733378	-0.260287	-0.573322
H248	H	1.233378	0.239713	-0.073322
H249	H	0.656334	-0.183136	-0.510808
H250	H	1.156334	0.316864	-0.010808
H251	H	0.703829	-0.097168	-0.432505
H252	H	1.203829	0.402832	0.067495
H253	H	0.828372	-0.088348	-0.416714
H254	H	1.328372	0.411652	0.083286
H255	H	0.905416	-0.165499	-0.479228
H256	H	1.405416	0.334501	0.020772
H257	H	0.149855	-0.230147	-0.374203
H258	H	0.649855	0.269853	0.125797
H259	H	0.836697	-0.944370	-0.374206
H260	H	1.336697	-0.444370	0.125794
C261	C	0.994136	-0.387906	-0.530683
C262	C	1.494136	0.112094	-0.030683
C263	C	1.065704	-0.382851	-0.539607
C264	C	1.565704	0.117149	-0.039607
C265	C	1.109946	-0.427183	-0.503554
C266	C	1.609946	0.072817	-0.003554
C267	C	1.082621	-0.476569	-0.458578
C268	C	1.582621	0.023431	0.041422
C269	C	1.011049	-0.481625	-0.449653
C270	C	1.511049	0.018375	0.050347
C271	C	0.966807	-0.437293	-0.485705
C272	C	1.466807	0.062707	0.014295
H273	H	1.085935	-0.346291	-0.572902
H274	H	1.585935	0.153709	-0.072902
H275	H	1.162928	-0.423439	-0.510162
H276	H	1.662928	0.076561	-0.010162
H277	H	1.115372	-0.509385	-0.431890
H278	H	1.615372	-0.009385	0.068110
H279	H	0.990818	-0.518185	-0.416357
H280	H	1.490818	-0.018185	0.083643
H281	H	0.913825	-0.441037	-0.479098
H282	H	1.413825	0.058963	0.020902
H283	H	0.982860	-1.063687	-0.228739
H284	H	1.482860	-0.563687	0.271261
H285	H	0.982783	-0.376440	-0.943689
H286	H	1.482783	0.123560	-0.443689
C287	C	1.028857	-0.313860	-0.869908
C288	C	1.528857	0.186140	-0.369908
C289	C	1.049222	-0.261219	-0.914891
C290	C	1.549222	0.238781	-0.414891
C291	C	1.111620	-0.266737	-0.950812
C292	C	1.611620	0.233263	-0.450812
C293	C	1.153654	-0.324895	-0.941749
C294	C	1.653654	0.175105	-0.441749
C295	C	1.133290	-0.377540	-0.896764
C296	C	1.633290	0.122460	-0.396764
C297	C	1.070892	-0.372023	-0.860844
C298	C	1.570892	0.127977	-0.360844
H299	H	1.018105	-0.218163	-0.921602
H300	H	1.518105	0.281837	-0.421602
H301	H	1.126694	-0.227765	-0.984113
H302	H	1.626694	0.272235	-0.484113
H303	H	1.199844	-0.328980	-0.968340
H304	H	1.699844	0.171020	-0.468340
H305	H	1.164406	-0.420597	-0.890054
H306	H	1.664406	0.079403	-0.390054
H307	H	1.055817	-0.410995	-0.827543
H308	H	1.555817	0.089005	-0.327543
H309	H	0.836693	-1.063638	-0.374157
H310	H	1.336693	-0.563638	0.125843
H311	H	0.982676	-0.376417	-0.658759
H312	H	1.482676	0.123583	-0.158759
H313	H	0.836687	-0.230182	-0.658980
H314	H	1.336687	0.269818	-0.158980
H315	H	0.806817	-0.294204	-0.742099
H316	H	1.306817	0.205796	-0.242099
H317	H	0.670172	-0.376456	-0.229125
H318	H	1.170172	0.123544	0.270875
H319	H	0.836791	-0.230216	-0.943907
H320	H	1.336791	0.269784	-0.443907
C321	C	0.825337	-0.218712	-1.071990
C322	C	1.325337	0.281288	-0.571990
C323	C	0.830507	-0.147154	-1.063020
C324	C	1.330507	0.352846	-0.563020
C325	C	0.786257	-0.102833	-1.099076
C326	C	1.286257	0.397167	-0.599076
C327	C	0.736837	-0.130069	-1.144102
C328	C	1.236837	0.369931	-0.644102
C329	C	0.731665	-0.201631	-1.153074
C330	C	1.231665	0.298369	-0.653074
C331	C	0.775914	-0.245952	-1.117018
C332	C	1.275914	0.254048	-0.617018
H333	H	0.867093	-0.126988	-1.029688
H334	H	1.367093	0.373012	-0.529688
H335	H	0.790086	-0.049858	-1.092435
H336	H	1.290086	0.450142	-0.592435
H337	H	0.704081	-0.097260	-1.170793
H338	H	1.204081	0.402740	-0.670793
H339	H	0.695079	-0.221797	-1.186406
H340	H	1.195079	0.278203	-0.686406
H341	H	0.772085	-0.298927	-1.123660
H342	H	1.272085	0.201073	-0.623660
H343	H	0.550908	-0.376458	-0.229097
H344	H	1.050908	0.123542	0.270903
H345	H	0.669964	-0.230100	-0.374296
H346	H	1.169964	0.269900	0.125704
C347	C	0.541289	-0.218595	-0.385710
C348	C	1.041289	0.281405	0.114290
C349	C	0.468976	-0.218602	-0.385703
C350	C	0.968976	0.281398	0.114297
C351	C	0.432755	-0.174243	-0.429710
C352	C	0.932755	0.325757	0.070290
C353	C	0.468847	-0.129875	-0.473725
C354	C	0.968847	0.370125	0.026275
C355	C	0.541164	-0.129866	-0.473733
C356	C	1.041164	0.370134	0.026267
C357	C	0.577385	-0.174226	-0.429726
C358	C	1.077385	0.325774	0.070274
H359	H	0.442255	-0.251447	-0.353119
H360	H	0.942255	0.248553	0.146881
H361	H	0.379221	-0.174249	-0.429704
H362	H	0.879221	0.325751	0.070296
H363	H	0.442035	-0.097038	-0.506302
H364	H	0.942035	0.402962	-0.006302
H365	H	0.567885	-0.097022	-0.506317
H366	H	1.067885	0.402978	-0.006317
H367	H	0.630919	-0.174219	-0.429732
H368	H	1.130919	0.325781	0.070268
C369	C	0.278748	-0.388003	-0.217616
C370	C	0.778748	0.111997	0.282384
C371	C	0.242656	-0.432363	-0.173595
C372	C	0.742656	0.067637	0.326405
C373	C	0.278877	-0.476723	-0.129588
C374	C	0.778877	0.023277	0.370412
C375	C	0.351189	-0.476724	-0.129602
C376	C	0.851189	0.023276	0.370398
C377	C	0.387286	-0.432362	-0.173625
C378	C	0.887286	0.067638	0.326375
C379	C	0.351065	-0.388001	-0.217632
C380	C	0.851065	0.111999	0.282368
H381	H	0.189122	-0.432365	-0.173583
H382	H	0.689122	0.067635	0.326417
H383	H	0.252155	-0.509563	-0.096999
H384	H	0.752155	-0.009563	0.403001
H385	H	0.378002	-0.509562	-0.097025
H386	H	0.878002	-0.009562	0.402975
H387	H	0.440820	-0.432360	-0.173637
H388	H	0.940820	0.067640	0.326363
H389	H	0.377786	-0.355162	-0.250220
H390	H	0.877786	0.144838	0.249780
