data_functionalizedCrystal
_audit_creation_method	'MofGen! by Chris Wilmer'
_symmetry_space_group_name_H-M	'P1'
_symmetry_Int_Tables_number	1
_symmetry_cell_setting	triclinic
loop_
_symmetry_equiv_pos_as_xyz
  x,y,z
_cell_length_a	19.288862
_cell_length_b	12.996460
_cell_length_c	19.288857
_cell_angle_alpha	90.008298
_cell_angle_beta	96.865805
_cell_angle_gamma	89.977761
loop_
_atom_site_label
_atom_site_type_symbol
_atom_site_fract_x
_atom_site_fract_y
_atom_site_fract_z
O1	O	-0.921348	0.085969	0.086641
O2	O	-0.719087	0.085884	0.098332
O3	O	-0.826064	0.085916	-0.008644
O4	O	-0.814370	0.085936	0.193617
O5	O	-0.826053	-0.085217	-0.008650
O6	O	-0.719076	-0.085250	0.098326
O7	O	-0.921337	-0.085165	0.086636
Cu8	Cu	-0.820205	-0.100833	0.092480
Cu9	Cu	-0.820218	0.101552	0.092487
O10	O	-0.814359	-0.085198	0.193612
C11	C	-0.693205	0.000306	0.097953
C12	C	-0.616101	0.000274	0.096825
N13	N	-0.820201	-0.243180	0.092475
C14	C	-0.571403	0.000293	0.159593
C15	C	-0.498956	0.000299	0.158533
C16	C	-0.471210	0.000306	0.094701
C17	C	-0.515918	0.000281	0.031924
C18	C	-0.588363	0.000265	0.032986
C19	C	-0.362953	0.060284	0.044525
C20	C	-0.290509	0.060306	0.043465
C21	C	-0.247764	0.000352	0.091423
C22	C	-0.277472	-0.059612	0.140452
C23	C	-0.349917	-0.059628	0.141514
C24	C	-0.392656	0.000323	0.093543
C25	C	-0.124510	0.000376	0.153047
C26	C	-0.052062	0.000376	0.151984
C27	C	-0.069026	0.000369	0.025373
C28	C	-0.141472	0.000359	0.026438
C29	C	-0.169210	0.000367	0.090276
C30	C	-0.820217	-0.662995	0.092488
C31	C	-0.820211	-0.546190	0.092487
C32	C	-0.820210	-0.453091	0.092482
C33	C	-0.820202	-0.336279	0.092480
C34	C	0.052781	0.000397	0.087017
C35	C	-0.024321	0.000382	0.088151
C36	C	-0.825684	0.000348	-0.034523
C37	C	-0.824557	0.000345	-0.111627
N38	N	-0.820228	0.243899	0.092487
C39	C	-0.824037	0.093630	-0.147835
C40	C	-0.822968	0.093637	-0.220281
C41	C	-0.822433	0.000354	-0.256518
C42	C	-0.822949	-0.092943	-0.220302
C43	C	-0.824011	-0.092948	-0.147856
C44	C	-0.861430	-0.071090	-0.376753
C45	C	-0.860373	-0.071081	-0.449197
C46	C	-0.819156	0.000364	-0.479964
C47	C	-0.779005	0.071819	-0.438279
C48	C	-0.780066	0.071815	-0.365833
C49	C	-0.821282	0.000349	-0.335073
C50	C	-0.817476	0.093664	-0.594726
C51	C	-0.816403	0.093667	-0.667173
C52	C	-0.816391	-0.092916	-0.667193
C53	C	-0.817457	-0.092917	-0.594747
C54	C	-0.818003	0.000376	-0.558518
C55	C	-0.814740	0.000373	0.219491
C56	C	-0.815867	0.000383	0.296595
H57	H	-0.593982	0.000302	0.211576
F58	F	-0.189045	0.000343	-0.040370
H59	H	-0.046436	0.000438	-0.026600
H60	H	-0.624757	0.000250	-0.018129
F61	F	-0.824614	0.192921	-0.109281
F62	F	-0.818010	-0.192205	-0.556211
F63	F	-0.818052	0.192952	-0.556165
H64	H	-0.824431	-0.168914	-0.118376
F65	F	-0.815845	0.192959	-0.705706
F66	F	-0.451376	0.000317	0.225343
F67	F	-0.258898	0.124134	-0.008709
H68	H	-0.374102	-0.108456	0.181433
H69	H	-0.397751	0.109112	0.005470
H70	H	-0.493323	0.000301	-0.020048
F71	F	-0.154033	0.000378	0.220988
F72	F	-0.004490	0.000391	0.218795
F73	F	-0.822414	0.192928	-0.258823
H74	H	-0.815950	-0.168869	-0.696696
H75	H	-0.747373	0.129993	-0.331895
H76	H	-0.745442	0.129997	-0.463327
H77	H	-0.893069	-0.129261	-0.483133
F78	F	-0.822376	-0.192222	-0.258869
F79	F	-0.231986	-0.123424	0.191497
H80	H	-0.894994	-0.129278	-0.351709
