data_functionalizedCrystal
_audit_creation_method	'MofGen! by Chris Wilmer'
_symmetry_space_group_name_H-M	'P1'
_symmetry_Int_Tables_number	1
_symmetry_cell_setting	triclinic
loop_
_symmetry_equiv_pos_as_xyz
  x,y,z
_cell_length_a	8.497374
_cell_length_b	8.497365
_cell_length_c	10.685661
_cell_angle_alpha	85.600397
_cell_angle_beta	94.376440
_cell_angle_gamma	90.037770
loop_
_atom_site_label
_atom_site_type_symbol
_atom_site_fract_x
_atom_site_fract_y
_atom_site_fract_z
Zn1	Zn	0.812747	-1.076756	1.929574
Zn2	Zn	1.312747	-0.576756	2.429574
Zn3	Zn	1.076679	-0.813009	1.929451
Zn4	Zn	1.576679	-0.313009	2.429451
Zn5	Zn	0.792672	-0.792784	1.718494
Zn6	Zn	1.292672	-0.292784	2.218494
Zn7	Zn	1.056240	-1.056562	1.718577
Zn8	Zn	1.556240	-0.556562	2.218577
O9	O	0.934584	-0.934778	1.824024
O10	O	1.434584	-0.434778	2.324024
O11	O	0.864714	-1.058685	2.106147
O12	O	1.364714	-0.558685	2.606147
O13	O	1.039157	-0.589556	1.901380
O14	O	1.539157	-0.089556	2.401380
O15	O	0.574574	-0.830440	1.746511
O16	O	1.074574	-0.330440	2.246511
O17	O	1.058623	-0.864912	2.106056
O18	O	1.558623	-0.364912	2.606056
O19	O	0.589323	-1.039073	1.901591
O20	O	1.089323	-0.539073	2.401591
O21	O	0.830498	-0.574696	1.746391
O22	O	1.330498	-0.074696	2.246391
O23	O	0.810679	-0.810859	1.541916
O24	O	1.310679	-0.310859	2.041916
O25	O	1.023788	-1.280012	1.746653
O26	O	1.523788	-0.780012	2.246653
O27	O	1.004322	-1.004656	1.541977
O28	O	1.504322	-0.504656	2.041977
O29	O	0.844895	-1.294848	1.901672
O30	O	1.344895	-0.794848	2.401672
O31	O	1.294728	-0.845330	1.901461
O32	O	1.794728	-0.345330	2.401461
O33	O	1.279712	-1.024267	1.746533
O34	O	1.779712	-0.524267	2.246533
C35	C	0.903105	-0.903372	1.496159
C36	C	1.403105	-0.403372	1.996159
C37	C	0.889676	-0.889974	1.355897
C38	C	1.389676	-0.389974	1.855897
C39	C	1.344463	-0.934799	1.824008
C40	C	1.844463	-0.434799	2.324008
C41	C	1.523110	-0.934776	1.824042
C42	C	2.023110	-0.434776	2.324042
C43	C	0.934748	-0.524889	1.823933
C44	C	1.434748	-0.024889	2.323933
C45	C	0.934441	-0.346263	1.824113
C46	C	1.434441	0.153737	2.324113
C47	C	0.966188	-0.966307	2.153170
C48	C	1.466188	-0.466307	2.653170
C49	C	0.979655	-0.979743	2.293432
C50	C	1.479655	-0.479743	2.793432
H51	H	0.802357	-0.802867	1.302065
H52	H	1.302357	-0.302867	1.802065
H53	H	1.066955	-1.066858	1.347257
H54	H	1.566955	-0.566858	1.847257
