data_functionalizedCrystal
_audit_creation_method	'MofGen! by Chris Wilmer'
_symmetry_space_group_name_H-M	'P1'
_symmetry_Int_Tables_number	1
_symmetry_cell_setting	triclinic
loop_
_symmetry_equiv_pos_as_xyz
  x,y,z
_cell_length_a	16.625548
_cell_length_b	25.639239
_cell_length_c	16.625539
_cell_angle_alpha	90.031255
_cell_angle_beta	90.020568
_cell_angle_gamma	90.039754
loop_
_atom_site_label
_atom_site_type_symbol
_atom_site_fract_x
_atom_site_fract_y
_atom_site_fract_z
Zn1	Zn	1.232590	-0.208135	0.455893
Zn2	Zn	1.232455	-0.295573	0.321053
Zn3	Zn	1.097751	-0.208155	0.321073
Zn4	Zn	1.097684	-0.295543	0.455843
O5	O	1.165120	-0.251851	0.388466
O6	O	1.345404	-0.219738	0.438018
O7	O	1.214558	-0.283998	0.208223
O8	O	1.115723	-0.134987	0.338987
O9	O	1.345305	-0.283978	0.338952
O10	O	1.214788	-0.134972	0.438038
O11	O	1.115592	-0.219772	0.208238
O12	O	0.984910	-0.219743	0.338938
O13	O	1.115607	-0.283927	0.568682
O14	O	0.984860	-0.283946	0.437953
O15	O	1.214722	-0.219709	0.568719
O16	O	1.214492	-0.368734	0.338904
O17	O	1.115477	-0.368712	0.437933
C18	C	0.955629	-0.251844	0.388443
C19	C	0.866008	-0.251853	0.388452
C20	C	0.537832	-0.251857	0.388487
C21	C	0.629141	-0.251854	0.388475
C22	C	0.701917	-0.251855	0.388469
C23	C	0.793231	-0.251852	0.388458
C24	C	1.164984	-0.387694	0.388429
C25	C	1.165000	-0.445808	0.388440
C26	C	1.216812	-0.806170	0.336989
C27	C	1.216843	-0.860774	0.337000
O28	O	1.260755	-0.889010	0.293213
N29	N	1.165262	-0.888090	0.388519
C30	C	1.113651	-0.860799	0.440037
O31	O	1.069780	-0.889048	0.483860
C32	C	1.113625	-0.806196	0.440029
C33	C	1.165204	-0.778883	0.388501
C34	C	1.268387	-0.778857	0.285465
C35	C	1.268355	-0.724256	0.285453
C36	C	1.216747	-0.696969	0.336965
C37	C	1.165171	-0.724282	0.388489
C38	C	1.062019	-0.778906	0.491551
C39	C	1.061997	-0.724299	0.491539
C40	C	1.113576	-0.696986	0.440011
C41	C	1.113531	-0.642395	0.439990
N42	N	1.165112	-0.615078	0.388470
C43	C	1.216720	-0.642366	0.336958
C44	C	1.113712	-0.975470	0.440049
C45	C	1.113734	-1.030072	0.440053
C46	C	1.216927	-1.030043	0.337017
C47	C	1.216900	-0.975440	0.337009
C48	C	1.165293	-0.948154	0.388530
C49	C	1.216648	-0.527700	0.336937
C50	C	1.216608	-0.473095	0.336928
C51	C	1.113418	-0.473129	0.439967
C52	C	1.113454	-0.527729	0.439973
C53	C	1.165076	-0.555014	0.388456
O54	O	1.069644	-0.614124	0.483756
O55	O	1.260591	-0.614110	0.293150
C56	C	1.375429	-0.251859	0.388489
C57	C	1.465050	-0.251863	0.388498
C58	C	1.165172	-0.251812	0.598775
C59	C	1.165195	-0.251796	0.688396
C60	C	1.165278	-0.115478	0.388520
C61	C	1.165345	-0.057364	0.388544
C62	C	1.165114	-0.251852	0.178975
C63	C	1.165248	-0.251722	0.089354
C64	C	1.165232	-0.251737	1.016572
C65	C	1.165219	-0.251755	0.925263
C66	C	1.165214	-0.251767	0.852487
C67	C	1.165200	-0.251784	0.761172
H68	H	1.258684	-0.549909	0.294988
O69	O	1.318544	-0.697808	0.235381
C70	C	1.364083	-0.733611	0.189912
H71	H	1.366862	-0.772517	0.222952
H72	H	1.334601	-0.739463	0.128645
C73	C	1.446489	-0.664473	0.137796
C74	C	1.449907	-0.712257	0.178379
H75	H	1.499428	-0.651301	0.130678
H76	H	1.415806	-0.640352	0.168426
H77	H	1.421916	-0.669357	0.086744
H78	H	1.474470	-0.707372	0.229434
H79	H	1.480596	-0.736377	0.147757
O80	O	1.063529	-0.948909	0.489980
C81	C	1.011444	-0.917389	0.444023
H82	H	1.039914	-0.909209	0.382946
H83	H	0.951712	-0.938480	0.435105
C84	C	0.961815	-0.875564	0.563388
C85	C	0.996785	-0.865513	0.488375
H86	H	0.952768	-0.843565	0.590747
H87	H	0.996903	-0.896801	0.594351
H88	H	0.912041	-0.893141	0.555946
H89	H	1.046561	-0.847942	0.495818
H90	H	0.961704	-0.844272	0.457414
H91	H	1.258610	-0.450858	0.294964
H92	H	1.310417	-0.801068	0.243517
H93	H	1.071457	-0.549969	0.481935
O94	O	1.267083	-0.948991	0.286932
C95	C	1.312617	-0.984791	0.241454
H96	H	1.315405	-1.023698	0.274492
H97	H	1.283124	-0.990643	0.180192
C98	C	1.395008	-0.915649	0.189326
C99	C	1.398437	-0.963434	0.229907
H100	H	1.447944	-0.902475	0.182199
H101	H	1.364329	-0.891530	0.219963
H102	H	1.370427	-0.920533	0.138279
H103	H	1.423008	-0.958549	0.280957
H104	H	1.429122	-0.987553	0.199278
H105	H	1.258952	-1.052270	0.295075
H106	H	1.020014	-0.801135	0.533507
O107	O	1.011790	-0.697875	0.541616
C108	C	0.966294	-0.733696	0.587109
H109	H	0.963540	-0.772634	0.554084
H110	H	0.995798	-0.739459	0.648371
C111	C	0.883844	-0.664618	0.639224
C112	C	0.880455	-0.712441	0.598658
H113	H	0.830895	-0.651506	0.646352
H114	H	0.914497	-0.640484	0.608577
H115	H	0.908434	-0.669427	0.690271
H116	H	0.855875	-0.707630	0.547609
H117	H	0.849796	-0.736573	0.629297
O118	O	1.063408	-0.446591	0.490091
C119	C	1.109283	-0.414945	0.542180
H120	H	1.172790	-0.431362	0.547215
H121	H	1.112060	-0.373573	0.517237
C122	C	0.991856	-0.393922	0.619785
C123	C	1.069855	-0.414088	0.625975
H124	H	0.967534	-0.393391	0.671473
H125	H	0.960948	-0.415241	0.584690
H126	H	0.994181	-0.359447	0.598996
H127	H	1.067528	-0.448564	0.646754
H128	H	1.100762	-0.392775	0.661075
O129	O	1.063598	-1.056520	0.490178
C130	C	1.018029	-1.020720	0.535621
H131	H	1.051036	-0.981775	0.538430
H132	H	0.956806	-1.014967	0.506035
C133	C	0.965828	-1.089829	0.617983
C134	C	1.006371	-1.041996	0.621439
H135	H	0.958634	-1.102953	0.670918
H136	H	0.996526	-1.113949	0.587365
H137	H	0.914813	-1.085028	0.593325
H138	H	1.057389	-1.046799	0.646088
H139	H	0.975682	-1.017878	0.652063
