data_functionalizedCrystal
_audit_creation_method	'MofGen! by Chris Wilmer'
_symmetry_space_group_name_H-M	'P1'
_symmetry_Int_Tables_number	1
_symmetry_cell_setting	triclinic
loop_
_symmetry_equiv_pos_as_xyz
  x,y,z
_cell_length_a	10.654550
_cell_length_b	9.730223
_cell_length_c	10.489711
_cell_angle_alpha	90.002341
_cell_angle_beta	95.494044
_cell_angle_gamma	90.003749
loop_
_atom_site_label
_atom_site_type_symbol
_atom_site_fract_x
_atom_site_fract_y
_atom_site_fract_z
O1	O	-1.667899	-0.114391	0.179159
O2	O	-1.302427	-0.114367	0.196228
O3	O	-1.493499	-0.114383	0.002089
O4	O	-1.476827	-0.114375	0.373298
O5	O	-1.493496	0.114197	0.002094
O6	O	-1.302425	0.114212	0.196233
O7	O	-1.667897	0.114189	0.179164
Zn8	Zn	-1.485160	0.150493	0.187699
Zn9	Zn	-1.485163	-0.150671	0.187693
O10	O	-1.476825	0.114205	0.373303
C11	C	-1.255627	-0.000075	0.194978
C12	C	-1.116183	-0.000066	0.191228
C13	C	-1.492246	-0.000097	-0.045440
C14	C	-1.488503	-0.000109	-0.187069
C15	C	-1.714696	-0.000107	0.180414
C16	C	-1.854141	-0.000124	0.184164
C17	C	-1.036738	-0.000084	0.305534
C18	C	-0.905716	-0.000108	0.302003
C19	C	-0.933595	-0.000102	0.069850
C20	C	-1.064615	-0.000069	0.073382
C21	C	-1.088306	-0.000081	0.423379
C22	C	-1.008861	-0.000100	0.537695
C23	C	-0.877839	-0.000124	0.534164
C24	C	-0.826262	-0.000129	0.416317
N25	N	-1.485168	0.356029	0.187703
N26	N	-1.485166	-0.356207	0.187679
C27	C	-1.569796	0.427948	0.101767
C28	C	-1.569793	0.571831	0.101752
C29	C	-1.400528	0.571863	0.273619
C30	C	-1.400527	0.427983	0.273627
C31	C	-1.654437	0.355994	0.015844
C32	C	-1.739073	0.427914	-0.070098
C33	C	-1.739070	0.571797	-0.070113
C34	C	-1.654430	0.643760	0.015812
C35	C	-1.603408	-0.000102	-0.369512
C36	C	-1.546010	0.112602	-0.277337
C37	C	-1.545981	-0.112760	-0.277366
C38	C	-1.424373	0.112716	-0.347230
C39	C	-1.424361	-0.112747	-0.347268
C40	C	-1.366875	-0.000016	-0.255121
C41	C	-1.478077	-0.000084	0.420832
C42	C	-1.481821	-0.000082	0.562461
H43	H	-1.194989	-0.000068	0.426268
Cl44	Cl	-1.073698	-0.000079	0.685836
Cl45	Cl	-1.345012	0.259996	-0.394748
Cl46	Cl	-0.777968	-0.000135	0.677871
Cl47	Cl	-0.868754	-0.000116	-0.078289
H48	H	-1.331613	0.369426	0.343602
Cl49	Cl	-1.212442	0.000076	-0.178683
Cl50	Cl	-0.661546	-0.000139	0.411883
H51	H	-1.129301	-0.000058	-0.019696
Cl52	Cl	-1.654450	0.175114	0.015863
Cl53	Cl	-1.845461	0.337449	-0.178124
Cl54	Cl	-1.654422	0.824644	0.015776
Cl55	Cl	-1.344998	-0.259856	-0.395133
H56	H	-1.597450	-0.208041	-0.246433
Cl57	Cl	-1.845457	0.662208	-0.178161
Cl58	Cl	-1.757696	0.000055	-0.446311
Cl59	Cl	-1.625440	0.259694	-0.229515
H60	H	-1.331619	0.630466	0.343577
