data_functionalizedCrystal
_audit_creation_method	'MofGen! by Chris Wilmer'
_symmetry_space_group_name_H-M	'P1'
_symmetry_Int_Tables_number	1
_symmetry_cell_setting	triclinic
loop_
_symmetry_equiv_pos_as_xyz
  x,y,z
_cell_length_a	16.959454
_cell_length_b	13.033304
_cell_length_c	13.032268
_cell_angle_alpha	90.922231
_cell_angle_beta	97.150351
_cell_angle_gamma	82.811145
loop_
_atom_site_label
_atom_site_type_symbol
_atom_site_fract_x
_atom_site_fract_y
_atom_site_fract_z
Zn1	Zn	-0.245947	-1.498442	-0.781535
Zn2	Zn	0.254053	-0.998442	-0.281535
Zn3	Zn	-0.359538	-1.520177	-0.609567
Zn4	Zn	0.140462	-1.020177	-0.109567
Zn5	Zn	-0.241770	-1.348303	-0.587706
Zn6	Zn	0.258230	-0.848303	-0.087706
Zn7	Zn	-0.392486	-1.326427	-0.759603
Zn8	Zn	0.107514	-0.826427	-0.259603
O9	O	-0.309935	-1.423337	-0.684603
O10	O	0.190065	-0.923337	-0.184603
O11	O	-0.248974	-1.645244	-0.777050
O12	O	0.251026	-1.145244	-0.277050
O13	O	-0.328379	-1.515629	-0.462759
O14	O	0.171621	-1.015629	0.037241
O15	O	-0.131710	-1.368278	-0.613447
O16	O	0.368290	-0.868278	-0.113447
O17	O	-0.332430	-1.661213	-0.650707
O18	O	0.167570	-1.161213	-0.150707
O19	O	-0.134779	-1.478584	-0.755852
O20	O	0.365221	-0.978584	-0.255852
O21	O	-0.241855	-1.389354	-0.446697
O22	O	0.258145	-0.889354	0.053303
O23	O	-0.273803	-1.201482	-0.592181
O24	O	0.226197	-0.701482	-0.092181
O25	O	-0.388583	-1.330993	-0.906421
O26	O	0.111417	-0.830993	-0.406421
O27	O	-0.384533	-1.185410	-0.718474
O28	O	0.115467	-0.685410	-0.218474
O29	O	-0.280922	-1.457372	-0.922534
O30	O	0.219078	-0.957372	-0.422534
O31	O	-0.474523	-1.494417	-0.629441
O32	O	0.025477	-0.994417	-0.129441
O33	O	-0.498729	-1.352069	-0.739672
O34	O	0.001271	-0.852069	-0.239672
C35	C	-0.332291	-1.156129	-0.650576
C36	C	0.167709	-0.656129	-0.150576
C37	C	-0.341876	-1.041813	-0.636043
C38	C	0.158124	-0.541813	-0.136043
C39	C	-0.304943	-0.982934	-0.692174
C40	C	0.195057	-0.482934	-0.192174
C41	C	-0.314849	-0.864782	-0.677155
C42	C	0.185151	-0.364782	-0.177155
C43	C	-0.515307	-1.423253	-0.684574
C44	C	-0.015307	-0.923253	-0.184574
C45	C	-0.603161	-1.423307	-0.684609
C46	C	-0.103161	-0.923307	-0.184609
C47	C	-0.987259	-1.349313	-0.742005
C48	C	-0.487259	-0.849313	-0.242005
C49	C	-0.961995	-1.497634	-0.627342
C50	C	-0.461995	-0.997634	-0.127342
C51	C	-0.879451	-1.497600	-0.627328
C52	C	-0.379451	-0.997600	-0.127328
C53	C	-0.850808	-1.423419	-0.684652
C54	C	-0.350808	-0.923419	-0.184652
C55	C	-0.904708	-1.349274	-0.741990
C56	C	-0.404708	-0.849274	-0.241990
C57	C	-0.825545	-1.571737	-0.569982
C58	C	-0.325545	-1.071737	-0.069982
C59	C	-0.742996	-1.571705	-0.569965
C60	C	-0.242996	-1.071705	-0.069965
C61	C	-0.714351	-1.497528	-0.627296
C62	C	-0.214351	-0.997528	-0.127296
C63	C	-0.768256	-1.423381	-0.684637
C64	C	-0.268256	-0.923381	-0.184637
C65	C	-0.739612	-1.349200	-0.741962
C66	C	-0.239612	-0.849200	-0.241962
C67	C	-0.793517	-1.275056	-0.799310
C68	C	-0.293517	-0.775056	-0.299310
C69	C	-0.876062	-1.275097	-0.799321
C70	C	-0.376062	-0.775097	-0.299321
C71	C	-0.631805	-1.497487	-0.627284
C72	C	-0.131805	-0.997487	-0.127284
C73	C	-0.657061	-1.349161	-0.741947
C74	C	-0.157061	-0.849161	-0.241947
C75	C	-0.103762	-1.423446	-0.684658
C76	C	0.396238	-0.923446	-0.184658
C77	C	-0.015903	-1.423493	-0.684681
C78	C	0.484097	-0.923493	-0.184681
C79	C	-0.338894	-1.389318	-0.952835
C80	C	0.161106	-0.889318	-0.452835
C81	C	-0.351234	-1.374821	-1.067139
C82	C	0.148766	-0.874821	-0.567139
C83	C	-0.287488	-0.691589	-0.718756
C84	C	0.212512	-0.191589	-0.218756
C85	C	-0.277910	-0.805905	-0.733293
C86	C	0.222090	-0.305905	-0.233293
C87	C	-0.303467	-1.430887	-1.126072
C88	C	0.196533	-0.930887	-0.626072
C89	C	-0.316221	-1.415905	-1.244212
C90	C	0.183779	-0.915905	-0.744212
C91	C	-0.281027	-1.457283	-0.417422
C92	C	0.218973	-0.957283	0.082578
C93	C	-0.268447	-1.471979	-0.303143
C94	C	0.231553	-0.971979	0.196857
H95	H	-0.353804	-0.827725	-0.617975
H96	H	0.146196	-0.327725	-0.117975
H97	H	-0.380828	-1.004751	-0.576868
H98	H	0.119172	-0.504751	-0.076868
C99	C	-0.384229	-1.336076	-1.294192
C100	C	0.115771	-0.836076	-0.794192
H101	H	-0.383884	-1.336485	-1.367039
H102	H	0.116116	-0.836485	-0.867039
H103	H	-0.376567	-1.269189	-1.267843
H104	H	0.123433	-0.769189	-0.767843
H105	H	-0.434199	-1.353322	-1.278542
H106	H	0.065801	-0.853322	-0.778542
C107	C	-0.625559	-1.267563	-0.805007
C108	C	-0.125559	-0.767563	-0.305007
H109	H	-0.669486	-1.223412	-0.839155
H110	H	-0.169486	-0.723412	-0.339155
H111	H	-0.594875	-1.301166	-0.854842
H112	H	-0.094875	-0.801166	-0.354842
H113	H	-0.592892	-1.227755	-0.759917
H114	H	-0.092892	-0.727755	-0.259917
C115	C	-0.252319	-1.032991	-0.772115
C116	C	0.247681	-0.532991	-0.272115
H117	H	-0.252569	-1.105835	-0.771727
H118	H	0.247431	-0.605835	-0.271727
H119	H	-0.199041	-1.017340	-0.754972
H120	H	0.300959	-0.517340	-0.254972
H121	H	-0.272894	-1.006688	-0.838975
H122	H	0.227106	-0.506688	-0.338975
C123	C	-0.200441	-1.551814	-1.253166
C124	C	0.299559	-1.051814	-0.753166
H125	H	-0.200792	-1.551417	-1.180320
H126	H	0.299208	-1.051417	-0.680320
H127	H	-0.150472	-1.534583	-1.268820
H128	H	0.349528	-1.034583	-0.768820
H129	H	-0.208115	-1.618702	-1.279517
H130	H	0.291885	-1.118702	-0.779517
C131	C	-0.225287	-0.855955	-0.813243
C132	C	0.274713	-0.355955	-0.313243
H133	H	-0.225537	-0.928799	-0.812858
H134	H	0.274463	-0.428799	-0.312858
H135	H	-0.172008	-0.840304	-0.796104
H136	H	0.327992	-0.340304	-0.296104
H137	H	-0.245866	-0.829648	-0.880101
H138	H	0.254134	-0.329648	-0.380101
H139	H	-0.770186	-1.214654	-0.845979
H140	H	-0.270186	-0.714654	-0.345979
H141	H	-0.919958	-1.214732	-0.846010
H142	H	-0.419958	-0.714732	-0.346010
C143	C	-0.419237	-1.294989	-1.117118
C144	C	0.080763	-0.794989	-0.617118
H145	H	-0.447548	-1.261751	-1.064824
H146	H	0.052452	-0.761751	-0.564824
H147	H	-0.454877	-1.329033	-1.164028
H148	H	0.045123	-0.829033	-0.664028
H149	H	-0.397233	-1.244913	-1.153322
H150	H	0.102767	-0.744913	-0.653322
C151	C	-1.046547	-1.267758	-0.805080
C152	C	-0.546547	-0.767758	-0.305080
H153	H	-1.099812	-1.278398	-0.796878
H154	H	-0.599812	-0.778398	-0.296878
H155	H	-1.039200	-1.273979	-0.876094
H156	H	-0.539200	-0.773979	-0.376094
H157	H	-1.037213	-1.200577	-0.781162
H158	H	-0.537213	-0.700577	-0.281162
H159	H	-0.587920	-1.557850	-0.580587
H160	H	-0.087920	-1.057850	-0.080587
H161	H	-0.848874	-1.632124	-0.523303
H162	H	-0.348874	-1.132124	-0.023303
C163	C	-0.993502	-1.579230	-0.564297
C164	C	-0.493502	-1.079230	-0.064297
H165	H	-1.050384	-1.568638	-0.572524
H166	H	-0.550384	-1.068638	-0.072524
H167	H	-0.973790	-1.573006	-0.493275
H168	H	-0.473790	-1.073006	0.006725
H169	H	-0.975782	-1.646397	-0.588216
H170	H	-0.475782	-1.146397	-0.088216
C171	C	-0.683709	-1.653266	-0.506897
C172	C	-0.183709	-1.153266	-0.006897
H173	H	-0.712592	-1.697454	-0.472766
H174	H	-0.212592	-1.197454	0.027234
H175	H	-0.649981	-1.619641	-0.457047
H176	H	-0.149981	-1.119641	0.042953
H177	H	-0.651985	-1.693040	-0.551981
H178	H	-0.151985	-1.193040	-0.051981
H179	H	-0.253128	-1.489976	-1.089064
H180	H	0.246872	-0.989976	-0.589064
