data_functionalizedCrystal
_audit_creation_method	'MofGen! by Chris Wilmer'
_symmetry_space_group_name_H-M	'P1'
_symmetry_Int_Tables_number	1
_symmetry_cell_setting	triclinic
loop_
_symmetry_equiv_pos_as_xyz
  x,y,z
_cell_length_a	14.519709
_cell_length_b	17.038272
_cell_length_c	12.996460
_cell_angle_alpha	89.993697
_cell_angle_beta	90.000034
_cell_angle_gamma	87.395851
loop_
_atom_site_label
_atom_site_type_symbol
_atom_site_fract_x
_atom_site_fract_y
_atom_site_fract_z
O1	O	1.231711	0.102503	-0.085433
O2	O	1.731711	0.602503	0.414567
O3	O	0.964158	0.114573	-0.085465
O4	O	1.464158	0.614573	0.414535
O5	O	1.096345	-0.005280	-0.085441
O6	O	1.596345	0.494720	0.414559
O7	O	1.099525	0.222356	-0.085457
O8	O	1.599525	0.722356	0.414543
O9	O	1.096329	-0.005287	0.085693
O10	O	1.596329	0.494713	0.585693
O11	O	0.964143	0.114567	0.085669
O12	O	1.464143	0.614567	0.585669
O13	O	1.231696	0.102496	0.085701
O14	O	1.731696	0.602496	0.585701
Cu15	Cu	1.097918	0.108531	0.101311
Cu16	Cu	1.597918	0.608531	0.601311
Cu17	Cu	1.097936	0.108539	-0.101075
Cu18	Cu	1.597936	0.608539	0.398925
O19	O	1.099510	0.222349	0.085677
O20	O	1.599510	0.722349	0.585677
C21	C	0.929748	0.114008	0.000098
C22	C	1.429748	0.614008	0.500098
C23	C	0.827237	0.112322	0.000086
C24	C	1.327237	0.612322	0.500086
C25	C	1.093444	-0.034416	0.000125
C26	C	1.593444	0.465584	0.500125
C27	C	1.084814	-0.121223	0.000124
C28	C	1.584814	0.378777	0.500124
C29	C	0.451867	0.106116	0.000134
C30	C	0.951867	0.606116	0.500134
C31	C	0.556307	0.107839	0.000120
C32	C	1.056307	0.607839	0.500120
C33	C	0.639549	0.109219	0.000109
C34	C	1.139549	0.609219	0.500109
C35	C	0.743995	0.110942	0.000098
C36	C	1.243995	0.610942	0.500098
C37	C	1.164047	-0.171209	0.000135
C38	C	1.664047	0.328791	0.500135
C39	C	1.155933	-0.252773	0.000124
C40	C	1.655933	0.247227	0.500124
C41	C	1.068585	-0.284349	0.000110
C42	C	1.568585	0.215651	0.500110
C43	C	0.989347	-0.234357	0.000097
C44	C	1.489347	0.265643	0.500097
C45	C	0.997462	-0.152795	0.000100
C46	C	1.497462	0.347205	0.500100
C47	C	1.039916	-0.530153	0.000093
C48	C	1.539916	-0.030153	0.500093
C49	C	1.031807	-0.611722	0.000092
C50	C	1.531807	-0.111722	0.500092
C51	C	1.198394	-0.630132	0.000118
C52	C	1.698394	-0.130132	0.500118
C53	C	1.206502	-0.548568	0.000127
C54	C	1.706502	-0.048568	0.500127
C55	C	1.127263	-0.498583	0.000108
C56	C	1.627263	0.001417	0.500108
C57	C	1.060289	-0.367720	0.000102
C58	C	1.560289	0.132280	0.500102
C59	C	1.135560	-0.415213	0.000109
C60	C	1.635560	0.084787	0.500109
C61	C	1.266107	0.103062	0.000135
C62	C	1.766107	0.603062	0.500135
C63	C	1.368617	0.104748	0.000141
C64	C	1.868617	0.604748	0.500141
C65	C	1.102410	0.251486	0.000108
C66	C	1.602410	0.751486	0.500108
C67	C	1.111040	0.338292	0.000103
C68	C	1.611040	0.838292	0.500103
N69	N	1.097912	0.108525	0.243658
N70	N	1.597912	0.608525	0.743658
N71	N	1.097949	0.108538	-0.243422
N72	N	1.597949	0.608538	0.256578
C73	C	1.097935	0.108539	0.663472
C74	C	1.597935	0.608539	1.163472
C75	C	1.097926	0.108538	0.546667
C76	C	1.597926	0.608538	1.046667
C77	C	1.097924	0.108533	0.453569
C78	C	1.597924	0.608533	0.953569
C79	C	1.097914	0.108530	0.336756
C80	C	1.597914	0.608530	0.836756
H81	H	1.220453	-0.293468	0.000135
H82	H	1.720453	0.206532	0.500135
H83	H	1.206678	-0.389500	0.000097
H84	H	1.706678	0.110500	0.500097
C85	C	0.825499	-0.207961	0.000058
C86	C	1.325499	0.292039	0.500058
C87	C	0.893331	-0.269062	0.000074
C88	C	1.393331	0.230938	0.500074
H89	H	0.766223	-0.229387	0.000039
H90	H	1.266223	0.270613	0.500039
H91	H	0.832119	-0.176539	0.059735
H92	H	1.332119	0.323461	0.559735
H93	H	0.832146	-0.176525	-0.059622
H94	H	1.332146	0.323475	0.440378
H95	H	0.886688	-0.300495	0.059758
H96	H	1.386688	0.199505	0.559758
H97	H	0.886708	-0.300497	-0.059609
H98	H	1.386708	0.199503	0.440391
H99	H	0.960675	-0.637427	0.000098
H100	H	1.460675	-0.137427	0.500098
H101	H	1.235175	-0.145506	0.000152
H102	H	1.735175	0.354494	0.500152
C103	C	0.909957	-0.050385	-0.087888
C104	C	1.409957	0.449615	0.412112
C105	C	0.910367	-0.097847	0.000088
C106	C	1.410367	0.402153	0.500088
H107	H	0.856183	-0.016467	-0.087900
H108	H	1.356183	0.483533	0.412100
H109	H	0.963133	-0.019911	-0.087872
H110	H	1.463133	0.480089	0.412128
H111	H	0.910261	-0.082591	-0.147558
H112	H	1.410261	0.417409	0.352442
H113	H	0.910069	-0.065641	0.059758
H114	H	1.410069	0.434359	0.559758
H115	H	0.857177	-0.128323	0.000081
H116	H	1.357177	0.371677	0.500081
C117	C	0.954540	-0.448764	-0.087876
C118	C	1.454540	0.051236	0.412124
C119	C	0.964279	-0.402436	0.000098
C120	C	1.464279	0.097564	0.500098
H121	H	0.895270	-0.470202	-0.087875
H122	H	1.395270	0.029798	0.412125
H123	H	0.961159	-0.417319	-0.147541
H124	H	1.461159	0.082681	0.352459
H125	H	1.000580	-0.490199	-0.087866
H126	H	1.500580	0.009801	0.412134
H127	H	0.918243	-0.360998	0.000083
H128	H	1.418243	0.139002	0.500083
H129	H	0.957651	-0.433883	0.059778
H130	H	1.457651	0.066117	0.559778
C131	C	1.370351	-0.574961	0.000151
C132	C	1.870351	-0.074961	0.500151
C133	C	1.302517	-0.513862	0.000144
C134	C	1.802517	-0.013862	0.500144
H135	H	1.429627	-0.553533	0.000160
H136	H	1.929627	-0.053533	0.500160
H137	H	1.363712	-0.606397	0.059821
H138	H	1.863712	-0.106397	0.559821
H139	H	1.363726	-0.606384	-0.059536
H140	H	1.863726	-0.106384	0.440464
H141	H	1.309138	-0.482442	0.059835
H142	H	1.809138	0.017558	0.559835
H143	H	1.309160	-0.482413	-0.059532
H144	H	1.809160	0.017587	0.440468
C145	C	1.259927	-0.763336	0.000113
C146	C	1.759927	-0.263336	0.500113
C147	C	1.285489	-0.685077	0.000124
C148	C	1.785489	-0.185077	0.500124
H149	H	1.313700	-0.797255	0.000107
H150	H	1.813700	-0.297255	0.500107
H151	H	1.224379	-0.772924	0.059785
H152	H	1.724379	-0.272924	0.559785
H153	H	1.224377	-0.772905	-0.059572
H154	H	1.724377	-0.272905	0.440428
H155	H	1.321034	-0.675507	0.059813
H156	H	1.821034	-0.175507	0.559813
H157	H	1.321052	-0.675485	-0.059554
H158	H	1.821052	-0.175485	0.440446
H159	H	0.975394	-0.489465	0.000078
H160	H	1.475394	0.010535	0.500078
