data_functionalizedCrystal
_audit_creation_method	'MofGen! by Chris Wilmer'
_symmetry_space_group_name_H-M	'P1'
_symmetry_Int_Tables_number	1
_symmetry_cell_setting	triclinic
loop_
_symmetry_equiv_pos_as_xyz
  x,y,z
_cell_length_a	14.519731
_cell_length_b	17.038272
_cell_length_c	13.596369
_cell_angle_alpha	90.006163
_cell_angle_beta	90.005416
_cell_angle_gamma	87.400204
loop_
_atom_site_label
_atom_site_type_symbol
_atom_site_fract_x
_atom_site_fract_y
_atom_site_fract_z
O1	O	1.231705	0.102582	0.081795
O2	O	1.731705	0.602582	0.581795
O3	O	0.964153	0.114636	0.081796
O4	O	1.464153	0.614636	0.581796
O5	O	1.096339	-0.005209	0.081788
O6	O	1.596339	0.494791	0.581788
O7	O	1.099519	0.222427	0.081803
O8	O	1.599519	0.722427	0.581803
O9	O	1.096324	-0.005215	-0.081795
O10	O	1.596324	0.494785	0.418205
O11	O	0.964138	0.114629	-0.081787
O12	O	1.464138	0.614629	0.418213
O13	O	1.231690	0.102576	-0.081788
O14	O	1.731690	0.602576	0.418212
Zn15	Zn	1.097912	0.108602	-0.107760
Zn16	Zn	1.597912	0.608602	0.392240
Zn17	Zn	1.097931	0.108610	0.107768
Zn18	Zn	1.597931	0.608610	0.607768
O19	O	1.099505	0.222421	-0.081780
O20	O	1.599505	0.722421	0.418220
C21	C	0.929743	0.114068	0.000005
C22	C	1.429743	0.614068	0.500005
C23	C	0.827233	0.112375	0.000005
C24	C	1.327233	0.612375	0.500005
C25	C	0.743984	0.111000	0.000009
C26	C	1.243984	0.611000	0.500009
C27	C	0.639544	0.109282	0.000010
C28	C	1.139544	0.609282	0.500010
C29	C	0.556300	0.107918	0.000009
C30	C	1.056300	0.607918	0.500009
C31	C	0.451854	0.106200	0.000011
C32	C	0.951854	0.606200	0.500011
C33	C	1.093439	-0.034345	-0.000004
C34	C	1.593439	0.465655	0.499996
C35	C	1.084809	-0.121153	-0.000003
C36	C	1.584809	0.378847	0.499997
C37	C	1.164041	-0.171133	-0.000005
C38	C	1.664041	0.328867	0.499995
C39	C	1.155927	-0.252698	0.000005
C40	C	1.655927	0.247302	0.500005
C41	C	1.068580	-0.284280	0.000008
C42	C	1.568580	0.215720	0.500008
C43	C	0.989342	-0.234293	0.000013
C44	C	1.489342	0.265707	0.500013
C45	C	0.997457	-0.152730	0.000011
C46	C	1.497457	0.347270	0.500011
C47	C	1.039911	-0.530086	0.000022
C48	C	1.539911	-0.030086	0.500022
C49	C	1.031802	-0.611655	0.000021
C50	C	1.531802	-0.111655	0.500021
C51	C	1.198388	-0.630054	0.000015
C52	C	1.698388	-0.130054	0.500015
C53	C	1.206496	-0.548489	0.000007
C54	C	1.706496	-0.048489	0.500007
C55	C	1.127257	-0.498509	0.000016
C56	C	1.627257	0.001491	0.500016
C57	C	1.060284	-0.367651	0.000015
C58	C	1.560284	0.132349	0.500015
C59	C	1.135554	-0.415140	0.000017
C60	C	1.635554	0.084860	0.500017
C61	C	1.266100	0.103144	0.000005
C62	C	1.766100	0.603144	0.500005
C63	C	1.368610	0.104836	0.000011
C64	C	1.868610	0.604836	0.500011
C65	C	1.102404	0.251557	0.000014
C66	C	1.602404	0.751557	0.500014
C67	C	1.111034	0.338364	0.000020
C68	C	1.611034	0.838364	0.500020
N69	N	1.097906	0.108595	-0.254852
N70	N	1.597906	0.608595	0.245148
C71	C	1.097930	0.108611	-0.656143
C72	C	1.597930	0.608611	-0.156143
C73	C	1.097921	0.108609	-0.544491
C74	C	1.597921	0.608609	-0.044491
C75	C	1.097918	0.108604	-0.455501
C76	C	1.597918	0.608604	0.044499
C77	C	1.097908	0.108601	-0.343842
C78	C	1.597908	0.608601	0.156158
N79	N	1.097945	0.108610	0.254860
N80	N	1.597945	0.608610	0.754860
H81	H	1.220447	-0.293389	0.000001
H82	H	1.720447	0.206611	0.500001
O83	O	1.220451	-0.384558	-0.000116
O84	O	1.720451	0.115442	0.499884
C85	C	1.269121	-0.410073	-0.084853
C86	C	1.769121	0.089927	0.415147
H87	H	1.239549	-0.466681	-0.113098
H88	H	1.739549	0.033319	0.386902
H89	H	1.345044	-0.421274	-0.065804
H90	H	1.845044	0.078726	0.434196
H91	H	1.262128	-0.362897	-0.144177
H92	H	1.762128	0.137103	0.355823
O93	O	0.946877	-0.642205	0.000080
O94	O	1.446877	-0.142205	0.500080
C95	C	0.878679	-0.580602	0.000067
C96	C	1.378679	-0.080602	0.500067
H97	H	0.908883	-0.525154	0.031032
H98	H	1.408883	-0.025154	0.531032
H99	H	0.818094	-0.597733	0.047571
H100	H	1.318094	-0.097733	0.547571
H101	H	0.853911	-0.569106	-0.078407
H102	H	1.353911	-0.069106	0.421593
H103	H	0.989165	-0.393374	0.000016
H104	H	1.489165	0.106626	0.500016
H105	H	0.932937	-0.112036	0.000012
H106	H	1.432937	0.387964	0.500012
H107	H	1.235169	-0.145426	-0.000014
H108	H	1.735169	0.354574	0.499986
H109	H	1.277623	-0.522782	0.000003
H110	H	1.777623	-0.022782	0.500003
H111	H	0.975389	-0.489401	0.000030
H112	H	1.475389	0.010599	0.500030
O113	O	0.904543	-0.265062	0.000148
O114	O	1.404543	0.234938	0.500148
C115	C	0.894865	-0.311669	0.084881
C116	C	1.394865	0.188331	0.584881
H117	H	0.965969	-0.331874	0.113125
H118	H	1.465969	0.168126	0.613125
H119	H	0.853907	-0.365132	0.065826
H120	H	1.353907	0.134868	0.565826
H121	H	0.856894	-0.275691	0.144207
H122	H	1.356894	0.224309	0.644207
H123	H	1.262899	-0.670756	0.000009
H124	H	1.762899	-0.170756	0.500009
