data_functionalizedCrystal
_audit_creation_method	'MofGen! by Chris Wilmer'
_symmetry_space_group_name_H-M	'P1'
_symmetry_Int_Tables_number	1
_symmetry_cell_setting	triclinic
loop_
_symmetry_equiv_pos_as_xyz
  x,y,z
_cell_length_a	16.625546
_cell_length_b	12.759386
_cell_length_c	16.625548
_cell_angle_alpha	89.965257
_cell_angle_beta	90.027358
_cell_angle_gamma	89.932977
loop_
_atom_site_label
_atom_site_type_symbol
_atom_site_fract_x
_atom_site_fract_y
_atom_site_fract_z
Zn1	Zn	-0.320604	-0.593770	1.232869
Zn2	Zn	0.179396	-0.093770	1.732869
Zn3	Zn	-0.455533	-0.418076	1.232716
Zn4	Zn	0.044467	0.081924	1.732716
Zn5	Zn	-0.320730	-0.418129	1.097975
Zn6	Zn	0.179270	0.081871	1.597975
Zn7	Zn	-0.455410	-0.593737	1.098001
Zn8	Zn	0.044590	-0.093737	1.598001
O9	O	-0.388069	-0.505928	1.165390
O10	O	0.111931	-0.005928	1.665390
O11	O	-0.338501	-0.570456	1.345681
O12	O	0.161499	-0.070456	1.845681
O13	O	-0.437755	-0.271062	1.214768
O14	O	0.062245	0.228938	1.714768
O15	O	-0.207880	-0.441464	1.115922
O16	O	0.292120	0.058536	1.615922
O17	O	-0.437633	-0.441374	1.345569
O18	O	0.062367	0.058626	1.845569
O19	O	-0.207788	-0.570507	1.215028
O20	O	0.292212	-0.070507	1.715028
O21	O	-0.338716	-0.271101	1.115774
O22	O	0.161284	0.228899	1.615774
O23	O	-0.338596	-0.441432	0.985146
O24	O	0.161404	0.058568	1.485146
O25	O	-0.437423	-0.740763	1.115967
O26	O	0.062577	-0.240763	1.615967
O27	O	-0.437545	-0.570451	0.985165
O28	O	0.062455	-0.070451	1.485165
O29	O	-0.338382	-0.740787	1.215053
O30	O	0.161618	-0.240787	1.715053
O31	O	-0.568349	-0.441342	1.214793
O32	O	-0.068349	0.058658	1.714793
O33	O	-0.568258	-0.570399	1.115819
O34	O	-0.068258	-0.070399	1.615819
C35	C	-0.388071	-0.505944	0.955900
C36	C	0.111929	-0.005944	1.455900
C37	C	-0.388092	-0.505976	0.866278
C38	C	0.111908	-0.005976	1.366278
C39	C	-0.597560	-0.505884	1.165314
C40	C	-0.097560	-0.005884	1.665314
C41	C	-0.687181	-0.505901	1.165355
C42	C	-0.187181	-0.005901	1.665355
C43	C	-0.388205	-0.232961	1.165298
C44	C	0.111795	0.267039	1.665298
C45	C	-0.388060	-0.116184	1.165395
C46	C	0.111940	0.383816	1.665395
C47	C	-1.015356	-0.506010	1.165496
C48	C	-0.515356	-0.006010	1.665496
C49	C	-0.924048	-0.505982	1.165454
C50	C	-0.424048	-0.005982	1.665454
C51	C	-0.851272	-0.505955	1.165425
C52	C	-0.351272	-0.005955	1.665425
C53	C	-0.759957	-0.505928	1.165384
C54	C	-0.259957	-0.005928	1.665384
C55	C	-0.177760	-0.505995	1.165489
C56	C	0.322240	-0.005995	1.665489
C57	C	-0.088139	-0.506024	1.165531
C58	C	0.411861	-0.006024	1.665531
C59	C	-0.387874	-0.779962	1.165530
C60	C	0.112126	-0.279962	1.665530
C61	C	-0.387791	-0.896739	1.165589
C62	C	0.112209	-0.396739	1.665589
C63	C	-0.336808	-0.061392	1.113527
C64	C	0.163192	0.438608	1.613527
C65	C	-0.336671	0.048332	1.113626
C66	C	0.163329	0.548332	1.613626
C67	C	-0.439047	0.048461	1.217462
C68	C	0.060953	0.548461	1.717462
C69	C	-0.439179	-0.061261	1.217367
C70	C	0.060821	0.438739	1.717367
C71	C	-0.277704	-0.061466	1.053576
C72	C	0.222296	0.438534	1.553576
C73	C	-0.277567	0.048258	1.053675
C74	C	0.222433	0.548258	1.553675
C75	C	-0.388067	-0.505913	1.375699
C76	C	0.111933	-0.005913	1.875699
C77	C	-0.388066	-0.505906	1.465320
C78	C	0.111934	-0.005906	1.965320
C79	C	-0.388074	-0.505911	1.538103
C80	C	0.111926	-0.005911	2.038103
C81	C	-0.388082	-0.505926	1.629411
C82	C	0.111918	-0.005926	2.129411
C83	C	-0.388084	-0.505944	1.702188
C84	C	0.111916	-0.005944	2.202188
C85	C	-0.388090	-0.505958	1.793502
C86	C	0.111910	-0.005958	2.293502
H87	H	-0.480906	-0.105868	1.259609
H88	H	0.019094	0.394132	1.759609
H89	H	-0.480665	0.093193	1.259777
H90	H	0.019335	0.593193	1.759777
C91	C	-0.141963	-0.016878	1.088975
C92	C	0.358037	0.483122	1.588975
C93	C	-0.193293	-0.102024	1.075548
C94	C	0.306707	0.397976	1.575548
H95	H	-0.089855	-0.041920	1.102545
H96	H	0.410145	0.458080	1.602545
H97	H	-0.138863	0.024571	1.041606
H98	H	0.361137	0.524571	1.541606
H99	H	-0.162356	0.024450	1.131892
H100	H	0.337644	0.524450	1.631892
H101	H	-0.172902	-0.143349	1.032627
H102	H	0.327098	0.356651	1.532627
H103	H	-0.196390	-0.143490	1.122922
H104	H	0.303610	0.356510	1.622922
C105	C	-0.328646	-0.025207	0.921283
C106	C	0.171354	0.474793	1.421283
C107	C	-0.308533	-0.107129	0.973666
C108	C	0.191467	0.392871	1.473666
H109	H	-0.347674	-0.053401	0.871949
H110	H	0.152326	0.446599	1.371949
H111	H	-0.369480	0.016777	0.944935
H112	H	0.130520	0.516777	1.444935
H113	H	-0.282417	0.016550	0.911429
H114	H	0.217583	0.516550	1.411429
H115	H	-0.354763	-0.148881	0.983525
H116	H	0.145237	0.351119	1.483525
H117	H	-0.267695	-0.149131	0.950009
H118	H	0.232305	0.350869	1.450009
H119	H	-0.218041	0.082025	1.075667
H120	H	0.281959	0.582025	1.575667
H121	H	-0.294706	0.078240	0.991366
H122	H	0.205294	0.578240	1.491366
