data_functionalizedCrystal
_audit_creation_method	'MofGen! by Chris Wilmer'
_symmetry_space_group_name_H-M	'P1'
_symmetry_Int_Tables_number	1
_symmetry_cell_setting	triclinic
loop_
_symmetry_equiv_pos_as_xyz
  x,y,z
_cell_length_a	21.395362
_cell_length_b	21.395361
_cell_length_c	21.395356
_cell_angle_alpha	90.031183
_cell_angle_beta	90.035878
_cell_angle_gamma	90.046585
loop_
_atom_site_label
_atom_site_type_symbol
_atom_site_fract_x
_atom_site_fract_y
_atom_site_fract_z
Zn1	Zn	0.957810	-0.249186	0.354573
Zn2	Zn	1.207810	0.000814	0.604573
Zn3	Zn	1.457810	0.250814	0.854573
Zn4	Zn	1.707810	0.500814	1.104573
Zn5	Zn	0.957727	-0.353963	0.249790
Zn6	Zn	1.207727	-0.103963	0.499790
Zn7	Zn	1.457727	0.146037	0.749790
Zn8	Zn	1.707727	0.396037	0.999790
Zn9	Zn	0.853039	-0.249233	0.249774
Zn10	Zn	1.103039	0.000767	0.499774
Zn11	Zn	1.353039	0.250767	0.749774
Zn12	Zn	1.603039	0.500767	0.999774
Zn13	Zn	0.852994	-0.353959	0.354494
Zn14	Zn	1.102994	-0.103959	0.604494
Zn15	Zn	1.352994	0.146041	0.854494
Zn16	Zn	1.602994	0.396041	1.104494
O17	O	0.905392	-0.301585	0.302158
O18	O	1.155392	-0.051585	0.552158
O19	O	1.405392	0.198415	0.802158
O20	O	1.655392	0.448415	1.052158
O21	O	1.045477	-0.263067	0.340712
O22	O	1.295477	-0.013067	0.590712
O23	O	1.545477	0.236933	0.840712
O24	O	1.795477	0.486933	1.090712
O25	O	0.943824	-0.340092	0.162110
O26	O	1.193824	-0.090092	0.412110
O27	O	1.443824	0.159908	0.662110
O28	O	1.693824	0.409908	0.912110
O29	O	0.866991	-0.161548	0.263702
O30	O	1.116991	0.088452	0.513702
O31	O	1.366991	0.338452	0.763702
O32	O	1.616991	0.588452	1.013702
O33	O	1.045416	-0.340047	0.263729
O34	O	1.295416	-0.090047	0.513729
O35	O	1.545416	0.159953	0.763729
O36	O	1.795416	0.409953	1.013729
O37	O	0.943965	-0.161514	0.340697
O38	O	1.193965	0.088486	0.590697
O39	O	1.443965	0.338486	0.840697
O40	O	1.693965	0.588486	1.090697
O41	O	0.866911	-0.263147	0.162098
O42	O	1.116911	-0.013147	0.412098
O43	O	1.366911	0.236853	0.662098
O44	O	1.616911	0.486853	0.912098
O45	O	0.765355	-0.263142	0.263626
O46	O	1.015355	-0.013142	0.513626
O47	O	1.265355	0.236858	0.763626
O48	O	1.515355	0.486858	1.013626
O49	O	0.866913	-0.340039	0.442183
O50	O	1.116913	-0.090039	0.692183
O51	O	1.366913	0.159961	0.942183
O52	O	1.616913	0.409961	1.192183
O53	O	0.765322	-0.340084	0.340564
O54	O	1.015322	-0.090084	0.590564
O55	O	1.265322	0.159916	0.840564
O56	O	1.515322	0.409916	1.090564
O57	O	0.943921	-0.263062	0.442240
O58	O	1.193921	-0.013062	0.692240
O59	O	1.443921	0.236938	0.942240
O60	O	1.693921	0.486938	1.192240
O61	O	0.943780	-0.441641	0.263653
O62	O	1.193780	-0.191641	0.513653
O63	O	1.443780	0.058359	0.763653
O64	O	1.693780	0.308359	1.013653
O65	O	0.866833	-0.441637	0.340579
O66	O	1.116833	-0.191637	0.590579
O67	O	1.366833	0.058363	0.840579
O68	O	1.616833	0.308363	1.090579
C69	C	0.742605	-0.301618	0.302085
C70	C	0.992605	-0.051618	0.552085
C71	C	1.242605	0.198382	0.802085
C72	C	1.492605	0.448382	1.052085
C73	C	0.672963	-0.301647	0.302069
C74	C	0.922963	-0.051647	0.552069
C75	C	1.172963	0.198353	0.802069
C76	C	1.422963	0.448353	1.052069
C77	C	0.640249	-0.341764	0.342070
C78	C	0.890249	-0.091764	0.592070
C79	C	1.140249	0.158236	0.842070
C80	C	1.390249	0.408236	1.092070
C81	C	0.574814	-0.341749	0.342098
C82	C	0.824814	-0.091749	0.592098
C83	C	1.074814	0.158251	0.842098
C84	C	1.324814	0.408251	1.092098
C85	C	0.542095	-0.301623	0.302113
C86	C	0.792095	-0.051623	0.552113
C87	C	1.042095	0.198377	0.802113
C88	C	1.292095	0.448377	1.052113
C89	C	0.574817	-0.261499	0.262109
C90	C	0.824817	-0.011499	0.512109
C91	C	1.074817	0.238501	0.762109
C92	C	1.324817	0.488501	1.012109
C93	C	0.640251	-0.261511	0.262087
C94	C	0.890251	-0.011511	0.512087
C95	C	1.140251	0.238489	0.762087
C96	C	1.390251	0.488489	1.012087
C97	C	0.438378	-0.296585	0.245708
C98	C	0.688378	-0.046585	0.495708
C99	C	0.938378	0.203415	0.745708
C100	C	1.188378	0.453415	0.995708
C101	C	0.372945	-0.296578	0.245730
C102	C	0.622945	-0.046578	0.495730
C103	C	0.872945	0.203422	0.745730
C104	C	1.122945	0.453422	0.995730
C105	C	0.340274	-0.301582	0.302182
C106	C	0.590274	-0.051582	0.552182
C107	C	0.840274	0.198418	0.802182
C108	C	1.090274	0.448418	1.052182
C109	C	0.373045	-0.306608	0.358616
C110	C	0.623045	-0.056608	0.608616
C111	C	0.873045	0.193392	0.858616
C112	C	1.123045	0.443392	1.108616
C113	C	0.438479	-0.306620	0.358594
C114	C	0.688479	-0.056620	0.608594
C115	C	0.938479	0.193380	0.858594
C116	C	1.188479	0.443380	1.108594
C117	C	0.471143	-0.301605	0.302133
C118	C	0.721143	-0.051605	0.552133
C119	C	0.971143	0.198395	0.802133
C120	C	1.221143	0.448395	1.052133
C121	C	0.236608	-0.341685	0.342218
C122	C	0.486608	-0.091685	0.592218
C123	C	0.736608	0.158315	0.842218
C124	C	0.986608	0.408315	1.092218
C125	C	0.171171	-0.341665	0.342247
C126	C	0.421171	-0.091665	0.592247
C127	C	0.671171	0.158335	0.842247
C128	C	0.921171	0.408335	1.092247
C129	C	0.171176	-0.261418	0.262252
C130	C	0.421176	-0.011418	0.512252
C131	C	0.671176	0.238582	0.762252
C132	C	0.921176	0.488582	1.012252
C133	C	0.236611	-0.261435	0.262229
C134	C	0.486611	-0.011435	0.512229
C135	C	0.736611	0.238565	0.762229
C136	C	0.986611	0.488565	1.012229
C137	C	0.269323	-0.301571	0.302211
C138	C	0.519323	-0.051571	0.552211
C139	C	0.769323	0.198429	0.802211
C140	C	1.019323	0.448429	1.052211
C141	C	0.905310	-0.464373	0.302123
C142	C	1.155310	-0.214373	0.552123
C143	C	1.405310	0.035627	0.802123
C144	C	1.655310	0.285627	1.052123
C145	C	0.905332	-0.534014	0.302129
C146	C	1.155332	-0.284014	0.552129
C147	C	1.405332	-0.034014	0.802129
C148	C	1.655332	0.215986	1.052129
C149	C	0.945433	-0.566708	0.262114
C150	C	1.195433	-0.316708	0.512114
C151	C	1.445433	-0.066708	0.762114
C152	C	1.695433	0.183292	1.012114
C153	C	0.945463	-0.632143	0.262128
C154	C	1.195463	-0.382143	0.512128
C155	C	1.445463	-0.132143	0.762128
C156	C	1.695463	0.117857	1.012128
C157	C	0.905379	-0.664882	0.302150
C158	C	1.155379	-0.414882	0.552150
C159	C	1.405379	-0.164882	0.802150
C160	C	1.655379	0.085118	1.052150
C161	C	0.865274	-0.632180	0.342172
C162	C	1.115274	-0.382180	0.592172
C163	C	1.365274	-0.132180	0.842172
C164	C	1.615274	0.117820	1.092172
C165	C	0.865251	-0.566746	0.342162
C166	C	1.115251	-0.316746	0.592162
C167	C	1.365251	-0.066746	0.842162
C168	C	1.615251	0.183254	1.092162
C169	C	0.848963	-0.768612	0.307041
C170	C	1.098963	-0.518612	0.557041
C171	C	1.348963	-0.268612	0.807041
C172	C	1.598963	-0.018612	1.057041
C173	C	0.848986	-0.834045	0.307047
C174	C	1.098986	-0.584045	0.557047
C175	C	1.348986	-0.334045	0.807047
C176	C	1.598986	-0.084045	1.057047
C177	C	0.905452	-0.866703	0.302187
C178	C	1.155452	-0.616703	0.552187
C179	C	1.405452	-0.366703	0.802187
C180	C	1.655452	-0.116703	1.052187
C181	C	0.961897	-0.833920	0.297307
C182	C	1.211897	-0.583920	0.547307
C183	C	1.461897	-0.333920	0.797307
C184	C	1.711897	-0.083920	1.047307
C185	C	0.961873	-0.768486	0.297296
C186	C	1.211873	-0.518486	0.547296
C187	C	1.461873	-0.268486	0.797296
C188	C	1.711873	-0.018486	1.047296
C189	C	0.905400	-0.735835	0.302167
C190	C	1.155400	-0.485835	0.552167
C191	C	1.405400	-0.235835	0.802167
C192	C	1.655400	0.014165	1.052167
C193	C	0.945588	-0.970350	0.262186
C194	C	1.195588	-0.720350	0.512186
C195	C	1.445588	-0.470350	0.762186
C196	C	1.695588	-0.220350	1.012186
C197	C	0.945619	-1.035786	0.262204
C198	C	1.195619	-0.785786	0.512204
C199	C	1.445619	-0.535786	0.762204
C200	C	1.695619	-0.285786	1.012204
C201	C	0.865425	-1.035822	0.342245
C202	C	1.115425	-0.785822	0.592245
C203	C	1.365425	-0.535822	0.842245
C204	C	1.615425	-0.285822	1.092245
C205	C	0.865400	-0.970386	0.342230
C206	C	1.115400	-0.720386	0.592230
C207	C	1.365400	-0.470386	0.842230
C208	C	1.615400	-0.220386	1.092230
C209	C	0.905481	-0.937654	0.302197
C210	C	1.155481	-0.687654	0.552197
C211	C	1.405481	-0.437654	0.802197
C212	C	1.655481	-0.187654	1.052197
C213	C	1.068816	-0.301552	0.302231
C214	C	1.318816	-0.051552	0.552231
C215	C	1.568816	0.198448	0.802231
C216	C	1.818816	0.448448	1.052231
C217	C	1.138457	-0.301538	0.302262
C218	C	1.388457	-0.051538	0.552262
C219	C	1.638457	0.198462	0.802262
C220	C	1.888457	0.448462	1.052262
C221	C	0.905421	-0.301545	0.465581
C222	C	1.155421	-0.051545	0.715581
C223	C	1.405421	0.198455	0.965581
C224	C	1.655421	0.448455	1.215581
C225	C	0.905434	-0.301528	0.535222
C226	C	1.155434	-0.051528	0.785222
C227	C	1.405434	0.198472	1.035222
C228	C	1.655434	0.448472	1.285222
C229	C	0.905493	-0.138162	0.302206
C230	C	1.155493	0.111838	0.552206
C231	C	1.405493	0.361838	0.802206
C232	C	1.655493	0.611838	1.052206
C233	C	0.905535	-0.068520	0.302227
C234	C	1.155535	0.181480	0.552227
C235	C	1.405535	0.431480	0.802227
C236	C	1.655535	0.681480	1.052227
C237	C	0.905400	-0.301580	0.139370
C238	C	1.155400	-0.051580	0.389370
C239	C	1.405400	0.198420	0.639370
C240	C	1.655400	0.448420	0.889370
C241	C	0.905509	-0.301421	0.069729
C242	C	1.155509	-0.051421	0.319729
C243	C	1.405509	0.198579	0.569729
C244	C	1.655509	0.448579	0.819729
C245	C	0.945591	-0.261346	1.037050
C246	C	1.195591	-0.011346	1.287050
C247	C	1.445591	0.238654	1.537050
C248	C	1.695591	0.488654	1.787050
C249	C	0.945586	-0.261361	0.971614
C250	C	1.195586	-0.011361	1.221614
C251	C	1.445586	0.238639	1.471614
C252	C	1.695586	0.488639	1.721614
C253	C	0.905488	-0.301444	0.938861
C254	C	1.155488	-0.051444	1.188861
C255	C	1.405488	0.198556	1.438861
C256	C	1.655488	0.448556	1.688861
C257	C	0.865403	-0.341526	0.971548
C258	C	1.115403	-0.091526	1.221548
C259	C	1.365403	0.158474	1.471548
C260	C	1.615403	0.408474	1.721548
C261	C	0.865413	-0.341514	1.036982
C262	C	1.115413	-0.091514	1.286982
C263	C	1.365413	0.158486	1.536982
C264	C	1.615413	0.408486	1.786982
C265	C	0.849019	-0.306422	0.835165
C266	C	1.099019	-0.056422	1.085165
C267	C	1.349019	0.193578	1.335165
C268	C	1.599019	0.443578	1.585165
C269	C	0.849007	-0.306429	0.769732
C270	C	1.099007	-0.056429	1.019732
C271	C	1.349007	0.193571	1.269732
C272	C	1.599007	0.443571	1.519732
C273	C	0.905455	-0.301484	0.737040
C274	C	1.155455	-0.051484	0.987040
C275	C	1.405455	0.198516	1.237040
C276	C	1.655455	0.448516	1.487040
C277	C	0.961917	-0.296519	0.769788
C278	C	1.211917	-0.046519	1.019788
C279	C	1.461917	0.203481	1.269788
C280	C	1.711917	0.453481	1.519788
C281	C	0.961928	-0.296507	0.835223
C282	C	1.211928	-0.046507	1.085223
C283	C	1.461928	0.203493	1.335223
C284	C	1.711928	0.453493	1.585223
C285	C	0.905472	-0.301462	0.867908
C286	C	1.155472	-0.051462	1.117908
C287	C	1.405472	0.198538	1.367908
C288	C	1.655472	0.448538	1.617908
C289	C	0.945536	-0.261424	0.633408
C290	C	1.195536	-0.011424	0.883408
C291	C	1.445536	0.238576	1.133408
C292	C	1.695536	0.488576	1.383408
C293	C	0.945532	-0.261444	0.567971
C294	C	1.195532	-0.011444	0.817971
C295	C	1.445532	0.238556	1.067971
C296	C	1.695532	0.488556	1.317971
C297	C	0.865343	-0.341605	0.567906
C298	C	1.115343	-0.091605	0.817906
C299	C	1.365343	0.158395	1.067906
C300	C	1.615343	0.408395	1.317906
C301	C	0.865352	-0.341589	0.633342
C302	C	1.115352	-0.091589	0.883342
C303	C	1.365352	0.158411	1.133342
C304	C	1.615352	0.408411	1.383342
C305	C	0.905448	-0.301495	0.666089
C306	C	1.155448	-0.051495	0.916089
C307	C	1.405448	0.198505	1.166089
C308	C	1.655448	0.448505	1.416089
H309	H	0.144536	-0.374331	0.374824
H310	H	0.394536	-0.124331	0.624824
H311	H	0.644536	0.125669	0.874824
H312	H	0.894536	0.375669	1.124824
H313	H	0.832697	-0.374244	0.541239
H314	H	1.082697	-0.124244	0.791239
H315	H	1.332697	0.125756	1.041239
H316	H	1.582697	0.375756	1.291239
Br317	Br	0.772383	-0.878530	0.313666
Br318	Br	1.022383	-0.628530	0.563666
Br319	Br	1.272383	-0.378530	0.813666
Br320	Br	1.522383	-0.128530	1.063666
Br321	Br	0.281012	-0.206988	0.207938
Br322	Br	0.531012	0.043012	0.457938
Br323	Br	0.781012	0.293012	0.707938
Br324	Br	1.031012	0.543012	0.957938
H325	H	1.007877	-0.860508	0.293349
H326	H	1.257877	-0.610508	0.543349
H327	H	1.507877	-0.360508	0.793349
H328	H	1.757877	-0.110508	1.043349
Br329	Br	0.530415	-0.207037	0.207849
Br330	Br	0.780415	0.042963	0.457849
Br331	Br	1.030415	0.292963	0.707849
Br332	Br	1.280415	0.542963	0.957849
H333	H	0.978183	-0.228777	0.660072
H334	H	1.228183	0.021223	0.910072
H335	H	1.478183	0.271223	1.160072
H336	H	1.728183	0.521223	1.410072
Br337	Br	1.038551	-0.289777	0.879666
Br338	Br	1.288551	-0.039777	1.129666
Br339	Br	1.538551	0.210223	1.379666
Br340	Br	1.788551	0.460223	1.629666
Br341	Br	1.038473	-0.723995	0.290678
Br342	Br	1.288473	-0.473995	0.540678
Br343	Br	1.538473	-0.223995	0.790678
Br344	Br	1.788473	0.026005	1.040678
H345	H	0.978071	-0.540059	0.229519
H346	H	1.228071	-0.290059	0.479519
H347	H	1.478071	-0.040059	0.729519
H348	H	1.728071	0.209941	0.979519
Br349	Br	0.482711	-0.289793	0.169087
Br350	Br	0.732711	-0.039793	0.419087
Br351	Br	0.982711	0.210207	0.669087
Br352	Br	1.232711	0.460207	0.919087
Br353	Br	0.126779	-0.206955	0.207992
Br354	Br	0.376779	0.043045	0.457992
Br355	Br	0.626779	0.293045	0.707992
Br356	Br	0.876779	0.543045	0.957992
H357	H	0.978227	-0.943698	0.229590
H358	H	1.228227	-0.693698	0.479590
H359	H	1.478227	-0.443698	0.729590
H360	H	1.728227	-0.193698	0.979590
Br361	Br	0.810987	-0.395929	0.927099
Br362	Br	1.060987	-0.145929	1.177099
Br363	Br	1.310987	0.104071	1.427099
Br364	Br	1.560987	0.354071	1.677099
H365	H	0.978278	-1.062405	0.229621
H366	H	1.228278	-0.812405	0.479621
H367	H	1.478278	-0.562405	0.729621
H368	H	1.728278	-0.312405	0.979621
H369	H	0.346269	-0.292489	0.199778
H370	H	0.596269	-0.042489	0.449778
H371	H	0.846269	0.207511	0.699778
H372	H	1.096269	0.457511	0.949778
Br373	Br	0.530406	-0.396195	0.396391
Br374	Br	0.780406	-0.146195	0.646391
Br375	Br	1.030406	0.103805	0.896391
Br376	Br	1.280406	0.353805	1.146391
H377	H	0.465157	-0.310710	0.404543
H378	H	0.715157	-0.060710	0.654543
H379	H	0.965157	0.189290	0.904543
H380	H	1.215157	0.439290	1.154543
H381	H	0.666887	-0.228841	0.229513
H382	H	0.916887	0.021159	0.479513
H383	H	1.166887	0.271159	0.729513
H384	H	1.416887	0.521159	0.979513
Br385	Br	0.999890	-0.676524	0.207819
Br386	Br	1.249890	-0.426524	0.457819
Br387	Br	1.499890	-0.176524	0.707819
Br388	Br	1.749890	0.073476	0.957819
H389	H	0.832790	-1.062477	0.374834
H390	H	1.082790	-0.812477	0.624834
H391	H	1.332790	-0.562477	0.874834
H392	H	1.582790	-0.312477	1.124834
Br393	Br	0.810972	-0.926012	0.396537
Br394	Br	1.060972	-0.676012	0.646537
Br395	Br	1.310972	-0.426012	0.896537
Br396	Br	1.560972	-0.176012	1.146537
Br397	Br	0.810952	-0.395979	0.677696
Br398	Br	1.060952	-0.145979	0.927696
Br399	Br	1.310952	0.104021	1.177696
Br400	Br	1.560952	0.354021	1.427696
Br401	Br	0.772381	-0.313159	0.725294
Br402	Br	1.022381	-0.063159	0.975294
Br403	Br	1.272381	0.186841	1.225294
Br404	Br	1.522381	0.436841	1.475294
Br405	Br	0.772324	-0.724298	0.313640
Br406	Br	1.022324	-0.474298	0.563640
Br407	Br	1.272324	-0.224298	0.813640
Br408	Br	1.522324	0.025702	1.063640
H409	H	0.978225	-0.228726	0.945001
H410	H	1.228225	0.021274	1.195001
H411	H	1.478225	0.271274	1.445001
H412	H	1.728225	0.521274	1.695001
H413	H	1.007883	-0.292490	0.743172
H414	H	1.257883	-0.042490	0.993172
H415	H	1.507883	0.207510	1.243172
H416	H	1.757883	0.457510	1.493172
Br417	Br	0.810879	-0.676609	0.396493
Br418	Br	1.060879	-0.426609	0.646493
Br419	Br	1.310879	-0.176609	0.896493
Br420	Br	1.560879	0.073391	1.146493
H421	H	0.803048	-0.310449	0.861778
H422	H	1.053048	-0.060449	1.111778
H423	H	1.303048	0.189551	1.361778
H424	H	1.553048	0.439551	1.611778
Br425	Br	0.328714	-0.313399	0.435237
Br426	Br	0.578714	-0.063399	0.685237
Br427	Br	0.828714	0.186601	0.935237
Br428	Br	1.078714	0.436601	1.185237
Br429	Br	0.999939	-0.207058	0.523619
Br430	Br	1.249939	0.042942	0.773619
Br431	Br	1.499939	0.292942	1.023619
Br432	Br	1.749939	0.542942	1.273619
Br433	Br	0.281007	-0.396151	0.396480
Br434	Br	0.531007	-0.146151	0.646480
Br435	Br	0.781007	0.103849	0.896480
Br436	Br	1.031007	0.353849	1.146480
H437	H	0.832594	-0.540126	0.374747
H438	H	1.082594	-0.290126	0.624747
H439	H	1.332594	-0.040126	0.874747
H440	H	1.582594	0.209874	1.124747
Br441	Br	1.000032	-0.206960	1.081489
Br442	Br	1.250032	0.043040	1.331489
Br443	Br	1.500032	0.293040	1.581489
Br444	Br	1.750032	0.543040	1.831489
H445	H	0.666879	-0.374445	0.374627
H446	H	0.916879	-0.124445	0.624627
H447	H	1.166879	0.125555	0.874627
H448	H	1.416879	0.375555	1.124627
Br449	Br	0.811013	-0.395907	1.081337
Br450	Br	1.061013	-0.145907	1.331337
Br451	Br	1.311013	0.104093	1.581337
Br452	Br	1.561013	0.354093	1.831337
