data_functionalizedCrystal
_audit_creation_method	'MofGen! by Chris Wilmer'
_symmetry_space_group_name_H-M	'P1'
_symmetry_Int_Tables_number	1
_symmetry_cell_setting	triclinic
loop_
_symmetry_equiv_pos_as_xyz
  x,y,z
_cell_length_a	14.971486
_cell_length_b	15.944551
_cell_length_c	13.448316
_cell_angle_alpha	89.992444
_cell_angle_beta	89.998199
_cell_angle_gamma	83.556434
loop_
_atom_site_label
_atom_site_type_symbol
_atom_site_fract_x
_atom_site_fract_y
_atom_site_fract_z
O1	O	1.186829	0.109463	-0.082580
O2	O	1.686829	0.609463	0.417420
O3	O	0.926415	0.122572	-0.082607
O4	O	1.426415	0.622572	0.417393
O5	O	1.063733	-0.006250	-0.082584
O6	O	1.563733	0.493750	0.417416
O7	O	1.049511	0.238286	-0.082603
O8	O	1.549511	0.738286	0.417397
O9	O	1.063716	-0.006258	0.082800
O10	O	1.563716	0.493742	0.582800
O11	O	0.926398	0.122564	0.082777
O12	O	1.426398	0.622564	0.582777
O13	O	1.186812	0.109456	0.082804
O14	O	1.686812	0.609456	0.582804
Cu15	Cu	1.056603	0.116009	0.097891
Cu16	Cu	1.556603	0.616009	0.597891
Cu17	Cu	1.056624	0.116018	-0.097694
Cu18	Cu	1.556624	0.616018	0.402306
O19	O	1.049494	0.238278	0.082781
O20	O	1.549494	0.738278	0.582781
C21	C	0.893082	0.121982	0.000081
C22	C	1.393082	0.621982	0.500081
C23	C	0.793787	0.120225	0.000071
C24	C	1.293787	0.620225	0.500071
C25	C	1.063134	-0.037549	0.000108
C26	C	1.563134	0.462451	0.500108
C27	C	1.061364	-0.130797	0.000109
C28	C	1.561364	0.369203	0.500109
C29	C	0.736480	0.195904	0.000067
C30	C	1.236480	0.695904	0.500067
C31	C	0.643182	0.194249	0.000082
C32	C	1.143182	0.694249	0.500082
C33	C	0.607194	0.116913	0.000094
C34	C	1.107194	0.616913	0.500094
C35	C	0.664508	0.041227	0.000102
C36	C	1.164508	0.541227	0.500102
C37	C	0.757804	0.042884	0.000094
C38	C	1.257804	0.542884	0.500094
C39	C	0.470049	0.037780	0.000116
C40	C	0.970049	0.537780	0.500116
C41	C	0.376747	0.036123	0.000122
C42	C	0.876747	0.536123	0.500122
C43	C	0.355428	0.189145	0.000104
C44	C	0.855428	0.689145	0.500104
C45	C	0.448724	0.190801	0.000096
C46	C	0.948724	0.690801	0.500096
C47	C	0.506032	0.115116	0.000101
C48	C	1.006032	0.615116	0.500101
C49	C	0.972017	-0.345738	0.000086
C50	C	1.472017	0.154262	0.500086
C51	C	1.013498	-0.406720	0.081634
C52	C	1.513498	0.093280	0.581634
C53	C	1.058162	-0.301526	0.000101
C54	C	1.558162	0.198474	0.500101
C55	C	1.013536	-0.406696	-0.081421
C56	C	1.513536	0.093304	0.418579
C57	C	1.055062	-0.466441	0.000089
C58	C	1.555062	0.033559	0.500089
C59	C	1.099667	-0.361279	0.081717
C60	C	1.599667	0.138721	0.581717
C61	C	1.099692	-0.361248	-0.081412
C62	C	1.599692	0.138752	0.418588
C63	C	1.141236	-0.422212	0.000156
C64	C	1.641236	0.077788	0.500156
C65	C	1.059945	-0.206522	0.000109
C66	C	1.559945	0.293478	0.500109
C67	C	1.053286	-0.561444	0.000088
C68	C	1.553286	-0.061444	0.500088
C69	C	1.220145	0.110046	0.000113
C70	C	1.720145	0.610046	0.500113
C71	C	1.319440	0.111802	0.000117
C72	C	1.819440	0.611802	0.500117
C73	C	1.050093	0.269576	0.000087
C74	C	1.550093	0.769576	0.500087
C75	C	1.051863	0.362824	0.000080
C76	C	1.551863	0.862824	0.500080
N77	N	1.056595	0.116002	0.235456
N78	N	1.556595	0.616002	0.735456
N79	N	1.056639	0.116019	-0.235258
N80	N	1.556639	0.616019	0.264742
C81	C	1.117419	0.058983	0.287506
C82	C	1.617419	0.558983	0.787506
C83	C	1.117425	0.058982	0.391610
C84	C	1.617425	0.558982	0.891610
C85	C	1.056610	0.116005	0.443660
C86	C	1.556610	0.616005	0.943660
C87	C	0.995780	0.173027	0.391602
C88	C	1.495780	0.673027	0.891602
C89	C	0.995771	0.173023	0.287501
C90	C	1.495771	0.673023	0.787501
C91	C	0.995805	0.173033	0.608582
C92	C	1.495805	0.673033	1.108582
C93	C	0.995815	0.173038	0.712691
C94	C	1.495815	0.673038	1.212691
C95	C	1.117459	0.058992	0.712691
C96	C	1.617459	0.558992	1.212691
C97	C	1.117449	0.058988	0.608590
C98	C	1.617449	0.558988	1.108590
C99	C	1.056620	0.116011	0.556539
C100	C	1.556620	0.616011	1.056539
H101	H	0.765774	0.258881	0.000056
H102	H	1.265774	0.758881	0.500056
C103	C	0.820069	-0.039258	0.000300
C104	C	1.320069	0.460742	0.500300
C105	C	0.874239	-0.042791	0.085396
C106	C	1.374239	0.457209	0.585396
C107	C	0.931599	-0.118454	0.085630
C108	C	1.431599	0.381546	0.585630
H109	H	0.856990	-0.041872	-0.057308
H110	H	1.356990	0.458128	0.442692
H111	H	0.785306	-0.085578	0.000360
H112	H	1.285306	0.414422	0.500360
H113	H	0.908999	0.003516	0.085326
H114	H	1.408999	0.503516	0.585326
H115	H	0.837342	-0.040191	0.143017
H116	H	1.337342	0.459809	0.643017
H117	H	0.896835	-0.164774	0.085690
H118	H	1.396835	0.335226	0.585690
H119	H	0.968514	-0.121061	0.028019
H120	H	1.468514	0.378939	0.528019
H121	H	0.968354	-0.120865	0.143371
H122	H	1.468354	0.379135	0.643371
C123	C	0.876659	-0.301454	0.000383
C124	C	1.376659	0.198546	0.500383
C125	C	0.831959	-0.324355	0.085959
C126	C	1.331959	0.175645	0.585959
C127	C	0.744121	-0.283568	0.086279
C128	C	1.244121	0.216432	0.586279
H129	H	0.845645	-0.317621	-0.056893
H130	H	1.345645	0.182379	0.443107
H131	H	0.878412	-0.242078	-0.000156
H132	H	1.378412	0.257922	0.499844
H133	H	0.830201	-0.383718	0.086489
H134	H	1.330201	0.116282	0.586489
H135	H	0.862945	-0.308187	0.143250
H136	H	1.362945	0.191813	0.643250
H137	H	0.745874	-0.224192	0.085740
H138	H	1.245874	0.275808	0.585740
H139	H	0.713116	-0.299738	0.028999
H140	H	1.213116	0.200262	0.528999
H141	H	0.713784	-0.299094	0.144345
H142	H	1.213784	0.200906	0.644345
C143	C	0.964978	-0.433764	0.173513
C144	C	1.464978	0.066236	0.673513
C145	C	0.964702	-0.521544	0.172745
C146	C	1.464702	-0.021544	0.672745
C147	C	0.920017	-0.546484	0.257369
C148	C	1.420017	-0.046484	0.757369
H149	H	0.904841	-0.407408	0.173507
H150	H	1.404841	0.092592	0.673507
H151	H	0.995005	-0.417505	0.231450
H152	H	1.495005	0.082495	0.731450
H153	H	0.934673	-0.537795	0.114824
H154	H	1.434673	-0.037795	0.614824
H155	H	1.024826	-0.547921	0.172766
H156	H	1.524826	-0.047921	0.672766
H157	H	0.950044	-0.530225	0.315306
H158	H	1.450044	-0.030225	0.815306
H159	H	0.859883	-0.520123	0.257356
H160	H	1.359883	-0.020123	0.757356
H161	H	0.919831	-0.606046	0.256864
H162	H	1.419831	-0.106046	0.756864
H163	H	1.166945	0.012552	0.245134
H164	H	1.666945	0.512552	0.745134
H165	H	0.635199	-0.021741	0.000126
H166	H	1.135199	0.478259	0.500126
H167	H	0.946293	0.219471	0.755065
H168	H	1.446293	0.719471	1.255065
C169	C	1.148130	-0.334418	0.173713
C170	C	1.648130	0.165582	0.673713
C171	C	1.149165	-0.246724	0.172679
C172	C	1.649165	0.253276	0.672679
C173	C	1.193786	-0.221946	0.257416
C174	C	1.693786	0.278054	0.757416
H175	H	1.208092	-0.361205	0.174044
H176	H	1.708092	0.138795	0.674044
H177	H	1.117719	-0.350297	0.231571
H178	H	1.617719	0.149703	0.731571
H179	H	1.179577	-0.230854	0.114837
H180	H	1.679577	0.269146	0.614837
H181	H	1.089216	-0.219915	0.172364
H182	H	1.589216	0.280085	0.672364
H183	H	1.163376	-0.237825	0.315274
H184	H	1.663376	0.262175	0.815274
H185	H	1.253746	-0.248739	0.257739
H186	H	1.753746	0.251261	0.757739
H187	H	1.194488	-0.162444	0.256731
H188	H	1.694488	0.337556	0.756731
H189	H	1.166951	0.012552	0.433989
H190	H	1.666951	0.512552	0.933989
H191	H	1.166973	0.012560	0.566210
H192	H	1.666973	0.512560	1.066210
C193	C	1.183461	-0.003056	0.769067
C194	C	1.683461	0.496944	1.269067
C195	C	1.168980	-0.085623	0.743741
C196	C	1.668980	0.414377	1.243741
C197	C	1.229774	-0.142796	0.795647
C198	C	1.729774	0.357204	1.295647
H199	H	1.174824	0.004989	0.838537
H200	H	1.674824	0.504989	1.338537
H201	H	1.243167	0.006116	0.751971
H202	H	1.743167	0.506116	1.251971
H203	H	1.109288	-0.094791	0.760843
H204	H	1.609288	0.405209	1.260843
H205	H	1.177624	-0.093695	0.674280
H206	H	1.677624	0.406305	1.174280
H207	H	1.289481	-0.133624	0.778551
H208	H	1.789481	0.366376	1.278551
H209	H	1.221132	-0.134744	0.865114
H210	H	1.721132	0.365256	1.365114
H211	H	1.219963	-0.198824	0.778463
H212	H	1.719963	0.301176	1.278463
C213	C	1.236678	-0.466300	0.000428
C214	C	1.736678	0.033700	0.500428
C215	C	1.281343	-0.443276	0.085962
C216	C	1.781343	0.056724	0.585962
C217	C	1.369258	-0.483883	0.086258
C218	C	1.869258	0.016117	0.586258
H219	H	1.267621	-0.450076	-0.056878
H220	H	1.767621	0.049924	0.443122
H221	H	1.235071	-0.525695	-0.000067
H222	H	1.735071	-0.025695	0.499933
H223	H	1.282954	-0.383893	0.086448
H224	H	1.782954	0.116107	0.586448
H225	H	1.250427	-0.459501	0.143282
H226	H	1.750427	0.040499	0.643282
H227	H	1.367651	-0.543278	0.085762
H228	H	1.867651	-0.043278	0.585762
H229	H	1.400193	-0.467656	0.028948
H230	H	1.900193	0.032344	0.528948
H231	H	1.399572	-0.468273	0.144295
H232	H	1.899572	0.031727	0.644295
C233	C	1.148092	-0.334374	-0.173451
C234	C	1.648092	0.165626	0.326549
C235	C	1.102691	-0.357103	-0.258609
C236	C	1.602691	0.142897	0.241391
C237	C	1.147236	-0.332347	-0.343421
C238	C	1.647236	0.167653	0.156579
H239	H	1.207872	-0.361594	-0.174170
H240	H	1.707872	0.138406	0.325830
H241	H	1.149309	-0.274933	-0.172505
H242	H	1.649309	0.225067	0.327495
H243	H	1.101483	-0.416533	-0.259555
H244	H	1.601483	0.083467	0.240445
H245	H	1.042914	-0.329886	-0.257923
H246	H	1.542914	0.170114	0.242077
H247	H	1.148453	-0.272907	-0.342474
H248	H	1.648453	0.227093	0.157526
H249	H	1.207014	-0.359569	-0.344130
H250	H	1.707014	0.140431	0.155870
H251	H	1.116434	-0.347759	-0.401210
H252	H	1.616434	0.152241	0.098790
C253	C	0.929907	0.234985	0.551939
C254	C	1.429907	0.734985	1.051939
C255	C	0.977549	0.286460	0.492137
C256	C	1.477549	0.786460	0.992137
C257	C	0.916879	0.343533	0.439933
C258	C	1.416879	0.843533	0.939933
H259	H	0.893664	0.269031	0.597731
H260	H	1.393664	0.769031	1.097731
H261	H	0.892684	0.204732	0.511283
H262	H	1.392684	0.704732	1.011283
H263	H	1.014756	0.316710	0.532790
H264	H	1.514756	0.816710	1.032790
H265	H	1.013788	0.252437	0.446327
H266	H	1.513788	0.752437	0.946327
H267	H	0.879656	0.313280	0.399277
H268	H	1.379656	0.813280	0.899277
H269	H	0.880640	0.377573	0.485732
H270	H	1.380640	0.877573	0.985732
H271	H	0.949195	0.378460	0.399345
H272	H	1.449195	0.878460	0.899345
C273	C	0.964807	-0.433388	-0.173315
C274	C	1.464807	0.066612	0.326685
C275	C	0.876271	-0.394280	-0.172940
C276	C	1.376271	0.105720	0.327060
C277	C	0.831353	-0.418835	-0.257578
C278	C	1.331353	0.081165	0.242422
H279	H	0.964411	-0.492919	-0.173062
H280	H	1.464411	0.007081	0.326938
H281	H	0.994786	-0.417026	-0.231243
H282	H	1.494786	0.082974	0.268757
H283	H	0.846299	-0.410647	-0.115027
H284	H	1.346299	0.089353	0.384973
H285	H	0.876640	-0.334749	-0.173208
H286	H	1.376640	0.165251	0.326792
H287	H	0.861332	-0.402473	-0.315506
H288	H	1.361332	0.097527	0.184494
H289	H	0.830964	-0.478367	-0.257317
H290	H	1.330964	0.021633	0.242683
H291	H	0.771279	-0.392298	-0.257339
H292	H	1.271279	0.107702	0.242661
H293	H	0.946260	0.219453	0.433988
H294	H	1.446260	0.719453	0.933988
H295	H	0.478022	0.253775	0.000076
H296	H	0.978022	0.753775	0.500076
C297	C	0.581112	0.276508	0.000025
C298	C	1.081112	0.776508	0.500025
C299	C	0.632598	0.344589	-0.000020
C300	C	1.132598	0.844589	0.499980
C301	C	0.575450	0.420382	-0.000083
C302	C	1.075450	0.920382	0.499917
H303	H	0.544259	0.279163	0.057687
H304	H	1.044259	0.779163	0.557687
H305	H	0.544282	0.279089	-0.057667
H306	H	1.044282	0.779089	0.442333
H307	H	0.669413	0.342009	0.057666
H308	H	1.169413	0.842009	0.557666
H309	H	0.669449	0.341962	-0.057678
H310	H	1.169449	0.841962	0.442322
H311	H	0.538620	0.422963	-0.057775
H312	H	1.038620	0.922963	0.442225
H313	H	0.538600	0.423028	0.057580
H314	H	1.038600	0.923028	0.557580
H315	H	0.610375	0.466584	-0.000123
H316	H	1.110375	0.966584	0.499877
C317	C	0.293109	0.271257	-0.000056
C318	C	0.793109	0.771257	0.499944
C319	C	0.238905	0.274767	-0.085124
C320	C	0.738905	0.774767	0.414876
C321	C	0.181476	0.350388	-0.085306
C322	C	0.681476	0.850388	0.414694
H323	H	0.327795	0.317620	-0.000122
H324	H	0.827795	0.817620	0.499878
H325	H	0.256222	0.273803	0.057591
H326	H	0.756222	0.773803	0.557591
H327	H	0.275788	0.272229	-0.142756
H328	H	0.775788	0.772229	0.357244
H329	H	0.204200	0.228422	-0.085076
H330	H	0.704200	0.728422	0.414924
H331	H	0.144588	0.352934	-0.027659
H332	H	0.644588	0.852934	0.472341
H333	H	0.216169	0.396745	-0.085370
H334	H	0.716169	0.896745	0.414630
H335	H	0.144686	0.352776	-0.143019
H336	H	0.644686	0.852776	0.356981
C337	C	0.532313	-0.044368	0.000323
C338	C	1.032313	0.455632	0.500323
C339	C	0.586487	-0.047907	0.085416
C340	C	1.086487	0.452093	0.585416
C341	C	0.643846	-0.123571	0.085641
C342	C	1.143846	0.376429	0.585641
H343	H	0.569231	-0.046978	-0.057286
H344	H	1.069231	0.453022	0.442714
H345	H	0.497549	-0.090687	0.000381
H346	H	0.997549	0.409313	0.500381
H347	H	0.621248	-0.001600	0.085349
H348	H	1.121248	0.498400	0.585349
H349	H	0.549593	-0.045310	0.143039
H350	H	1.049593	0.454690	0.643039
H351	H	0.609081	-0.169890	0.085700
H352	H	1.109081	0.330110	0.585700
H353	H	0.680758	-0.126175	0.028029
H354	H	1.180758	0.373825	0.528029
H355	H	0.680604	-0.125985	0.143380
H356	H	1.180604	0.374015	0.643380
H357	H	0.347448	-0.026851	0.000133
H358	H	0.847448	0.473149	0.500133
H359	H	0.946241	0.219452	0.245122
H360	H	1.446241	0.719452	0.745122
