data_functionalizedCrystal
_audit_creation_method	'MofGen! by Chris Wilmer'
_symmetry_space_group_name_H-M	'P1'
_symmetry_Int_Tables_number	1
_symmetry_cell_setting	triclinic
loop_
_symmetry_equiv_pos_as_xyz
  x,y,z
_cell_length_a	19.805405
_cell_length_b	19.805407
_cell_length_c	19.805398
_cell_angle_alpha	90.012745
_cell_angle_beta	89.969674
_cell_angle_gamma	89.977440
loop_
_atom_site_label
_atom_site_type_symbol
_atom_site_fract_x
_atom_site_fract_y
_atom_site_fract_z
Zn1	Zn	-0.269542	-1.034693	-0.382705
Zn2	Zn	0.230458	-0.534693	0.117295
Zn3	Zn	-0.382732	-1.034620	-0.269513
Zn4	Zn	0.117268	-0.534620	0.230487
Zn5	Zn	-0.269555	-0.921520	-0.269530
Zn6	Zn	0.230445	-0.421520	0.230470
Zn7	Zn	-0.382686	-0.921471	-0.382661
Zn8	Zn	0.117314	-0.421471	0.117339
O9	O	-0.326129	-0.978076	-0.326102
O10	O	0.173871	-0.478076	0.173898
O11	O	-0.284570	-1.129399	-0.367701
O12	O	0.215430	-0.629399	0.132299
O13	O	-0.367743	-1.019607	-0.174799
O14	O	0.132257	-0.519607	0.325201
O15	O	-0.174836	-0.936583	-0.284569
O16	O	0.325164	-0.436583	0.215431
O17	O	-0.367731	-1.129346	-0.284540
O18	O	0.132269	-0.629346	0.215460
O19	O	-0.174827	-1.019731	-0.367717
O20	O	0.325173	-0.519731	0.132283
O21	O	-0.284592	-0.936513	-0.174811
O22	O	0.215408	-0.436513	0.325189
O23	O	-0.284548	-0.826797	-0.284526
O24	O	0.215452	-0.326797	0.215474
O25	O	-0.367653	-0.936500	-0.477383
O26	O	0.132347	-0.436500	0.022617
O27	O	-0.367666	-0.826761	-0.367642
O28	O	0.132334	-0.326761	0.132358
O29	O	-0.284526	-1.019683	-0.477415
O30	O	0.215474	-0.519683	0.022585
O31	O	-0.477442	-1.019560	-0.284497
O32	O	0.022558	-0.519560	0.215503
O33	O	-0.477409	-0.936429	-0.367626
O34	O	0.022591	-0.436429	0.132374
C35	C	-0.326104	-0.802220	-0.326081
C36	C	0.173896	-0.302220	0.173919
C37	C	-0.326110	-0.726988	-0.326089
C38	C	0.173890	-0.226988	0.173911
C39	C	-0.501985	-0.978000	-0.326069
C40	C	-0.001985	-0.478000	0.173931
C41	C	-0.577217	-0.978029	-0.326078
C42	C	-0.077217	-0.478029	0.173922
C43	C	-0.282884	-0.691672	-0.369456
C44	C	0.217116	-0.191672	0.130544
C45	C	-0.282886	-0.620984	-0.369457
C46	C	0.217114	-0.120984	0.130543
C47	C	-0.326118	-0.585612	-0.326093
C48	C	0.173882	-0.085612	0.173907
C49	C	-0.369345	-0.620933	-0.282721
C50	C	0.130655	-0.120933	0.217279
C51	C	-0.369339	-0.691620	-0.282718
C52	C	0.130661	-0.191620	0.217282
C53	C	-0.369370	-0.335860	-0.282735
C54	C	0.130630	0.164140	0.217265
C55	C	-0.369374	-0.265168	-0.282744
C56	C	0.130626	0.234832	0.217256
C57	C	-0.282917	-0.265223	-0.369474
C58	C	0.217083	0.234777	0.130526
C59	C	-0.282911	-0.335910	-0.369470
C60	C	0.217089	0.164090	0.130530
C61	C	-0.326135	-0.371225	-0.326096
C62	C	0.173865	0.128775	0.173904
C63	C	-0.326132	-0.447873	-0.326095
C64	C	0.173868	0.052127	0.173905
C65	C	-0.326125	-0.508965	-0.326098
C66	C	0.173875	-0.008965	0.173902
C67	C	-0.612556	-1.021357	-0.282838
C68	C	-0.112556	-0.521357	0.217162
C69	C	-0.683244	-1.021386	-0.282853
C70	C	-0.183244	-0.521386	0.217147
C71	C	-0.718592	-0.978083	-0.326105
C72	C	-0.218592	-0.478083	0.173895
C73	C	-0.683248	-0.934753	-0.369350
C74	C	-0.183248	-0.434753	0.130650
C75	C	-0.612561	-0.934728	-0.369338
C76	C	-0.112561	-0.434728	0.130662
C77	C	-0.968321	-0.934852	-0.369400
C78	C	-0.468321	-0.434852	0.130600
C79	C	-1.039013	-0.934879	-0.369407
C80	C	-0.539013	-0.434879	0.130593
C81	C	-1.039005	-1.021510	-0.282915
C82	C	-0.539005	-0.521510	0.217085
C83	C	-0.968317	-1.021486	-0.282903
C84	C	-0.468317	-0.521486	0.217097
C85	C	-0.932980	-0.978159	-0.326150
C86	C	-0.432980	-0.478159	0.173850
C87	C	-0.856331	-0.978129	-0.326134
C88	C	-0.356331	-0.478129	0.173866
C89	C	-0.795239	-0.978108	-0.326118
C90	C	-0.295239	-0.478108	0.173882
C91	C	-0.149586	-0.978171	-0.326150
C92	C	0.350414	-0.478171	0.173850
C93	C	-0.074354	-0.978211	-0.326170
C94	C	0.425646	-0.478211	0.173830
C95	C	-0.326083	-0.978094	-0.502645
C96	C	0.173917	-0.478094	-0.002645
C97	C	-0.326063	-0.978102	-0.577877
C98	C	0.173937	-0.478102	-0.077877
C99	C	-0.326149	-0.154619	-0.326117
C100	C	0.173851	0.345381	0.173883
C101	C	-0.326144	-0.229851	-0.326108
C102	C	0.173856	0.270149	0.173892
C103	C	-0.369252	-1.021476	-1.039659
C104	C	0.130748	-0.521476	-0.539659
C105	C	-0.369271	-1.021457	-0.968971
C106	C	0.130729	-0.521457	-0.468971
C107	C	-0.325987	-0.978186	-0.933639
C108	C	0.174013	-0.478186	-0.433639
C109	C	-0.282687	-0.934926	-0.968999
C110	C	0.217313	-0.434926	-0.468999
C111	C	-0.282673	-0.934941	-1.039686
C112	C	0.217327	-0.434941	-0.539686
C113	C	-0.282745	-0.934860	-0.683926
C114	C	0.217255	-0.434860	-0.183926
C115	C	-0.282761	-0.934849	-0.613234
C116	C	0.217239	-0.434849	-0.113234
C117	C	-0.369343	-1.021376	-0.613210
C118	C	0.130657	-0.521376	-0.113210
C119	C	-0.369329	-1.021391	-0.683897
C120	C	0.130671	-0.521391	-0.183897
C121	C	-0.326031	-0.978129	-0.719251
C122	C	0.173969	-0.478129	-0.219251
C123	C	-0.326013	-0.978149	-0.795900
C124	C	0.173987	-0.478149	-0.295900
C125	C	-0.326002	-0.978169	-0.856992
C126	C	0.173998	-0.478169	-0.356992
C127	C	-0.326125	-0.978097	-0.150246
C128	C	0.173875	-0.478097	0.349754
C129	C	-0.325954	-0.978220	-0.075015
C130	C	0.174046	-0.478220	0.424985
H131	H	-0.247681	-0.720466	-0.404769
H132	H	0.252319	-0.220466	0.095231
F133	F	-0.236910	-0.227633	-0.415636
F134	F	0.263090	0.272367	0.084364
F135	F	-0.236880	-0.583401	-0.415615
F136	F	0.263120	-0.083401	0.084385
F137	F	-0.236614	-0.888880	-0.931394
F138	F	0.263386	-0.388880	-0.431394
H139	H	-0.404567	-0.364604	-0.247418
H140	H	0.095433	0.135396	0.252582
H141	H	-0.404537	-1.056671	-0.940188
H142	H	0.095463	-0.556671	-0.440188
F143	F	-0.930701	-1.067574	-0.236868
F144	F	-0.430701	-0.567574	0.263132
F145	F	-0.236688	-0.888793	-0.721543
F146	F	0.263312	-0.388793	-0.221543
F147	F	-0.415353	-0.583286	-0.236567
F148	F	0.084647	-0.083286	0.263433
H149	H	-0.404496	-1.056715	-1.068421
H150	H	0.095504	-0.556715	-0.568421
H151	H	-0.404538	-0.720373	-0.247403
H152	H	0.095462	-0.220373	0.252597
H153	H	-0.247709	-0.364706	-0.404784
H154	H	0.252291	0.135294	0.095216
F155	F	-0.415396	-1.067448	-0.721496
F156	F	0.084604	-0.567448	-0.221496
H157	H	-0.247512	-0.899610	-0.584468
H158	H	0.252488	-0.399610	-0.084468
H159	H	-0.404580	-0.236370	-0.247430
H160	H	0.095420	0.263630	0.252570
F161	F	-1.076619	-1.067627	-0.236891
F162	F	-0.576619	-0.567627	0.263109
H163	H	-0.939555	-0.899573	-0.404612
H164	H	-0.439555	-0.399573	0.095388
H165	H	-0.583780	-1.056616	-0.247614
H166	H	-0.083780	-0.556616	0.252386
H167	H	-0.247414	-0.899719	-1.068472
H168	H	0.252586	-0.399719	-0.568472
H169	H	-0.712014	-1.056667	-0.247642
H170	H	-0.212014	-0.556667	0.252358
H171	H	-0.404600	-1.056600	-0.584416
H172	H	0.095400	-0.556600	-0.084416
F173	F	-0.720870	-0.888670	-0.415386
F174	F	-0.220870	-0.388670	0.084614
F175	F	-1.076632	-0.888789	-0.415445
F176	F	-0.576632	-0.388789	0.084555
H177	H	-0.583789	-0.899447	-0.404549
H178	H	-0.083789	-0.399447	0.095451
