data_functionalizedCrystal
_audit_creation_method	'MofGen! by Chris Wilmer'
_symmetry_space_group_name_H-M	'P1'
_symmetry_Int_Tables_number	1
_symmetry_cell_setting	triclinic
loop_
_symmetry_equiv_pos_as_xyz
  x,y,z
_cell_length_a	16.109301
_cell_length_b	16.992695
_cell_length_c	14.586319
_cell_angle_alpha	89.995905
_cell_angle_beta	89.999213
_cell_angle_gamma	87.064852
loop_
_atom_site_label
_atom_site_type_symbol
_atom_site_fract_x
_atom_site_fract_y
_atom_site_fract_z
O1	O	1.109856	0.100784	-0.076183
O2	O	0.868631	0.113326	-0.076198
O3	O	0.988277	-0.007087	-0.076183
O4	O	0.990211	0.221197	-0.076198
O5	O	0.988268	-0.007089	0.076298
O6	O	0.868622	0.113324	0.076283
O7	O	1.109847	0.100782	0.076298
Cu8	Cu	0.989234	0.107053	0.090213
Cu9	Cu	0.989244	0.107055	-0.090113
O10	O	0.990202	0.221196	0.076283
C11	C	0.837618	0.112817	0.000041
C12	C	0.745221	0.111294	0.000035
C13	C	0.527480	0.179203	0.000042
C14	C	0.440664	0.177766	0.000048
C15	C	0.451005	0.034899	0.000053
C16	C	0.537819	0.036337	0.000054
C17	C	0.576055	0.108492	0.000043
C18	C	0.402424	0.105616	0.000049
C19	C	0.308294	0.104057	0.000055
C20	C	0.670191	0.110051	0.000039
C21	C	0.985784	-0.036300	0.000057
C22	C	0.978361	-0.123343	0.000056
C23	C	1.049987	-0.173601	0.000062
C24	C	1.043007	-0.255386	0.000052
C25	C	0.964400	-0.286911	0.000045
C26	C	0.892768	-0.236645	0.000037
C27	C	0.899749	-0.154862	0.000039
C28	C	0.935467	-0.530501	0.000030
C29	C	0.928491	-0.612291	0.000030
C30	C	1.078731	-0.631026	0.000045
C31	C	1.085704	-0.549240	0.000053
C32	C	1.014073	-0.498982	0.000040
N33	N	0.957263	-0.370508	0.000038
N34	N	1.021210	-0.415387	0.000040
C35	C	1.140860	0.101291	0.000057
C36	C	1.233257	0.102814	0.000057
C37	C	0.992694	0.250408	0.000041
C38	C	1.000118	0.337451	0.000036
N39	N	0.989232	0.107051	0.217045
N40	N	0.989252	0.107051	-0.216945
C41	C	1.042231	0.053750	0.452058
C42	C	1.042233	0.053748	0.548039
C43	C	0.936247	0.160355	0.548036
C44	C	0.936241	0.160352	0.452056
C45	C	0.989238	0.107051	0.404070
C46	C	0.989246	0.107051	0.596030
C47	C	0.989248	0.107050	0.700098
C48	C	0.989235	0.107051	0.299996
H49	H	0.419863	-0.023846	0.000067
H50	H	1.085384	0.010345	0.587108
C51	C	1.172170	-0.514565	0.000068
H52	H	1.166068	-0.458660	0.000080
H53	H	1.201903	-0.531810	-0.053100
H54	H	1.201878	-0.531824	0.053254
C55	C	0.877964	0.218989	0.600823
H56	H	0.885563	0.211363	0.664859
H57	H	0.821910	0.210462	0.585103
H58	H	0.890476	0.271322	0.585083
H59	H	1.137048	-0.671954	0.000053
C60	C	0.591255	-0.041449	0.000051
H61	H	0.556051	-0.084627	0.000043
H62	H	0.625337	-0.043860	0.053224
H63	H	0.625335	-0.043851	-0.053130
C64	C	0.387235	0.255549	0.000040
H65	H	0.422443	0.298724	0.000027
H66	H	0.353153	0.257960	0.053212
H67	H	0.353156	0.257956	-0.053141
C68	C	0.856678	-0.475224	0.000015
H69	H	0.872088	-0.422001	0.000005
H70	H	0.824661	-0.484779	0.053184
H71	H	0.824680	-0.484781	-0.053170
C72	C	1.136455	-0.138932	0.000070
H73	H	1.178112	-0.180580	0.000063
H74	H	1.142300	-0.107421	0.053244
H75	H	1.142303	-0.107415	-0.053110
H76	H	0.828765	-0.262319	0.000024
C77	C	1.121795	-0.310668	0.000068
H78	H	1.169610	-0.280180	0.000086
H79	H	1.122207	-0.342958	-0.053105
H80	H	1.122185	-0.342963	0.053248
C81	C	0.842020	-0.646966	0.000006
H82	H	0.800358	-0.605321	-0.000013
H83	H	0.836163	-0.678485	0.053176
H84	H	0.836192	-0.678475	-0.053177
H85	H	1.085383	0.010347	0.412989
C86	C	0.877948	0.218988	0.399265
H87	H	0.846395	0.250740	0.441589
H88	H	0.841466	0.190772	0.361830
H89	H	0.910028	0.251636	0.361818
H90	H	0.841423	-0.113942	0.000035
H91	H	0.558608	0.237956	0.000040
