data_functionalizedCrystal
_audit_creation_method	'MofGen! by Chris Wilmer'
_symmetry_space_group_name_H-M	'P1'
_symmetry_Int_Tables_number	1
_symmetry_cell_setting	triclinic
loop_
_symmetry_equiv_pos_as_xyz
  x,y,z
_cell_length_a	10.654550
_cell_length_b	26.210047
_cell_length_c	10.654551
_cell_angle_alpha	89.992614
_cell_angle_beta	84.485132
_cell_angle_gamma	90.012641
loop_
_atom_site_label
_atom_site_type_symbol
_atom_site_fract_x
_atom_site_fract_y
_atom_site_fract_z
O1	O	1.667852	0.042468	0.176381
O2	O	1.302374	0.042459	0.193187
O3	O	1.493515	0.042464	0.002045
O4	O	1.476711	0.042463	0.367523
O5	O	1.493478	-0.042394	0.002074
O6	O	1.302337	-0.042399	0.193217
O7	O	1.667815	-0.042391	0.176410
Cu8	Cu	1.485073	-0.050143	0.184816
Cu9	Cu	1.485116	0.050211	0.184781
O10	O	1.476674	-0.042395	0.367553
C11	C	1.255557	0.000029	0.191968
C12	C	1.116114	0.000026	0.188276
N13	N	1.485051	-0.120727	0.184840
C14	C	1.036629	0.000033	0.300817
C15	C	0.905608	0.000042	0.297341
C16	C	0.933570	0.000038	0.068771
C17	C	1.064589	0.000026	0.072249
C18	C	1.088154	0.000033	0.416844
C19	C	1.008667	0.000041	0.529395
C20	C	0.877647	0.000049	0.525918
C21	C	0.826112	0.000050	0.409891
C22	C	1.569745	-0.473239	0.100162
C23	C	1.569773	-0.686898	0.100145
O24	O	1.641734	-0.714518	0.028154
N25	N	1.485123	-0.713621	0.184753
C26	C	1.400454	-0.686926	0.269366
O27	O	1.328446	-0.714559	0.341322
C28	C	1.400422	-0.473269	0.269377
C29	C	1.485086	-0.446548	0.184771
C30	C	1.654401	-0.446518	0.015563
C31	C	1.654398	-0.393107	0.015573
C32	C	1.569739	-0.366416	0.100182
C33	C	1.485083	-0.393137	0.184781
C34	C	1.315748	-0.446575	0.353983
C35	C	1.315745	-0.393157	0.353975
C36	C	1.400409	-0.366437	0.269370
C37	C	1.400420	-0.313034	0.269400
N38	N	1.485070	-0.286311	0.184792
C39	C	1.569730	-0.313002	0.100183
C40	C	1.400479	-0.799100	0.269357
C41	C	1.400488	-0.852514	0.269356
C42	C	1.569806	-0.852481	0.100133
C43	C	1.569801	-0.799066	0.100141
C44	C	1.485129	-0.772376	0.184749
C45	C	1.569717	-0.200834	0.100210
C46	C	1.569710	-0.147418	0.100231
C47	C	1.400389	-0.147455	0.269449
C48	C	1.400400	-0.200866	0.269434
C49	C	1.485069	-0.227555	0.184804
O50	O	1.328487	-0.285381	0.341344
O51	O	1.641708	-0.285360	0.028219
C52	C	1.569748	-0.526650	0.100153
C53	C	1.485092	-0.553371	0.184752
C54	C	1.400433	-0.526680	0.269361
C55	C	1.485101	-0.606785	0.184751
C56	C	1.569761	-0.633476	0.100142
C57	C	1.654411	-0.606753	0.015534
C58	C	1.654408	-0.553341	0.015544
C59	C	1.315783	-0.553404	0.353969
C60	C	1.315794	-0.606815	0.353953
C61	C	1.400453	-0.633506	0.269344
C62	C	1.714632	0.000041	0.177629
C63	C	1.854075	0.000047	0.181321
C64	C	1.492263	0.000036	-0.044739
C65	C	1.488570	0.000039	-0.184182
N66	N	1.485148	0.120795	0.184747
C67	C	1.486858	0.046294	-0.249710
C68	C	1.483378	0.046292	-0.380730
C69	C	1.483327	-0.046225	-0.380683
C70	C	1.486798	-0.046222	-0.249664
C71	C	1.488630	0.092556	-0.184227
C72	C	1.486919	0.138814	-0.249756
C73	C	1.483439	0.138812	-0.380776
C74	C	1.481669	0.092551	-0.446268
C75	C	1.477926	0.000034	0.414336
C76	C	1.481619	0.000034	0.553779
H77	H	1.194836	0.000028	0.419687
H78	H	1.638661	-0.222557	0.031296
Br79	Br	1.476929	0.092549	-0.624081
Br80	Br	1.285501	-0.111223	0.384276
Br81	Br	0.769775	0.000053	0.678661
H82	H	1.723349	-0.628493	-0.053354
Br83	Br	1.489313	0.201594	-0.160878
H84	H	0.719425	0.000050	0.407069
Br85	Br	1.493365	0.092561	-0.006416
H86	H	1.481887	-0.083889	-0.434017
Br87	Br	0.863630	0.000041	-0.088684
Br88	Br	1.078603	0.000031	0.686852
H89	H	1.638741	-0.777313	0.031247
H90	H	1.129308	0.000021	-0.019392
Br91	Br	1.489126	-0.108998	-0.160725
H92	H	1.638658	-0.125663	0.031335
H93	H	1.723336	-0.371354	-0.053323
H94	H	1.723341	-0.468245	-0.053341
Br95	Br	1.481099	0.201590	-0.469703
H96	H	1.246806	-0.468324	0.422875
H97	H	1.638741	-0.874222	0.031243
H98	H	1.331560	-0.874266	0.338263
H99	H	1.331527	-0.777372	0.338258
H100	H	1.246791	-0.371429	0.422872
Br101	Br	1.285512	-0.237129	0.384275
H102	H	1.723349	-0.531589	-0.053350
H103	H	1.246852	-0.628567	0.422860
H104	H	1.246841	-0.531676	0.422867
