data_functionalizedCrystal
_audit_creation_method	'MofGen! by Chris Wilmer'
_symmetry_space_group_name_H-M	'P1'
_symmetry_Int_Tables_number	1
_symmetry_cell_setting	triclinic
loop_
_symmetry_equiv_pos_as_xyz
  x,y,z
_cell_length_a	19.288864
_cell_length_b	14.472311
_cell_length_c	19.288857
_cell_angle_alpha	90.011806
_cell_angle_beta	83.134677
_cell_angle_gamma	90.017990
loop_
_atom_site_label
_atom_site_type_symbol
_atom_site_fract_x
_atom_site_fract_y
_atom_site_fract_z
O1	O	0.921345	0.077142	0.086653
O2	O	0.719084	0.077079	0.098342
O3	O	0.826062	0.077101	-0.008633
O4	O	0.814367	0.077120	0.193628
O5	O	0.826054	-0.076581	-0.008647
O6	O	0.719077	-0.076603	0.098328
O7	O	0.921338	-0.076540	0.086640
Cu8	Cu	0.820207	-0.090604	0.092483
Cu9	Cu	0.820215	0.091143	0.092499
O10	O	0.814360	-0.076562	0.193615
C11	C	0.693204	0.000230	0.097959
C12	C	0.616100	0.000206	0.096830
N13	N	0.820206	-0.218435	0.092471
C14	C	0.571402	0.000226	0.159598
C15	C	0.498955	0.000236	0.158537
C16	C	0.471209	0.000244	0.094705
C17	C	0.515917	0.000219	0.031929
C18	C	0.588363	0.000199	0.032991
C19	C	0.362951	0.054112	0.044530
C20	C	0.290507	0.054137	0.043471
C21	C	0.247764	0.000300	0.091425
C22	C	0.277473	-0.053551	0.140452
C23	C	0.349918	-0.053570	0.141514
C24	C	0.392656	0.000265	0.093546
C25	C	0.124510	0.000330	0.153048
C26	C	0.052062	0.000334	0.151984
C27	C	0.069026	0.000326	0.025374
C28	C	0.141472	0.000313	0.026439
C29	C	0.169210	0.000319	0.090278
C30	C	0.820216	-0.592526	0.092494
C31	C	0.877642	-0.553320	0.035443
C32	C	0.877493	-0.446232	0.035234
C33	C	0.820211	-0.406935	0.092482
C34	C	0.747793	-0.445851	0.076880
C35	C	0.748133	-0.552972	0.076477
C36	C	0.834554	-0.553019	0.165316
C37	C	0.836201	-0.445890	0.164822
C38	C	0.820204	-0.302047	0.092478
C39	C	0.820218	-0.697414	0.092497
C40	C	0.947218	0.000311	0.087022
C41	C	1.024321	0.000341	0.088151
C42	C	0.825683	0.000259	-0.034516
C43	C	0.824556	0.000256	-0.111620
N44	N	0.820222	0.218974	0.092505
C45	C	0.824034	0.084028	-0.147824
C46	C	0.822965	0.084035	-0.220270
C47	C	0.822432	0.000264	-0.256511
C48	C	0.822950	-0.083519	-0.220299
C49	C	0.824012	-0.083523	-0.147853
C50	C	0.861431	-0.063897	-0.376748
C51	C	0.860374	-0.063889	-0.449193
C52	C	0.819155	0.000274	-0.479957
C53	C	0.779002	0.064444	-0.438269
C54	C	0.780064	0.064440	-0.365823
C55	C	0.821281	0.000260	-0.335066
C56	C	0.817473	0.084059	-0.594715
C57	C	0.816400	0.084062	-0.667161
C58	C	0.816392	-0.083494	-0.667190
C59	C	0.817458	-0.083495	-0.594744
C60	C	0.818002	0.000284	-0.558511
C61	C	0.814739	0.000282	0.219498
C62	C	0.815866	0.000291	0.296602
H63	H	0.593981	0.000233	0.211581
H64	H	0.397748	0.097959	0.005478
N65	N	0.948809	-0.411371	0.047489
H66	H	0.948849	-0.341583	0.047373
H67	H	0.960484	-0.434517	0.094105
H68	H	0.735461	-0.577977	0.023376
N69	N	0.815810	-0.173849	-0.706268
H70	H	0.815056	-0.161136	-0.757656
H71	H	0.859043	-0.210422	-0.699380
H72	H	0.817889	-0.151711	-0.565268
H73	H	0.797067	-0.419137	0.209247
H74	H	0.374104	-0.097420	0.181431
N75	N	0.824586	-0.173879	-0.108800
H76	H	0.781981	-0.177629	-0.072973
H77	H	0.824112	-0.226897	-0.142794
H78	H	0.462555	0.000250	0.209652
N79	N	0.779082	-0.586600	0.221552
H80	H	0.744824	-0.627206	0.200003
H81	H	0.801711	-0.623194	0.257346
H82	H	0.493322	0.000238	-0.020044
H83	H	0.822536	0.152254	-0.249752
H84	H	0.242673	-0.097391	0.179501
H85	H	0.147095	0.000321	0.205029
N86	N	0.815854	0.174407	-0.706233
H87	H	0.858466	0.178113	-0.742055
H88	H	0.772341	0.178078	-0.730486
N89	N	0.949202	-0.587403	0.047497
H90	H	0.945093	-0.628593	0.090054
H91	H	0.970285	-0.623504	0.005355
H92	H	0.893071	-0.116137	-0.483131
H93	H	0.624757	0.000183	-0.018124
H94	H	0.894996	-0.116153	-0.351707
H95	H	0.015669	0.000345	0.203100
N96	N	0.906761	-0.412181	0.180514
H97	H	0.901082	-0.375229	0.225258
H98	H	0.938158	-0.466920	0.185827
H99	H	0.745438	0.116692	-0.463315
N100	N	0.039111	0.000325	-0.043476
H101	H	-0.013566	0.000337	-0.034626
H102	H	0.055497	0.057291	-0.070930
N103	N	0.865725	-0.588999	-0.035745
H104	H	0.823289	-0.630448	-0.031200
H105	H	0.857988	-0.535174	-0.067238
H106	H	0.868356	-0.420624	-0.018812
H107	H	0.747369	0.116688	-0.331883
N108	N	0.189682	0.000294	-0.041265
H109	H	0.180803	0.057265	-0.069121
H110	H	0.239766	0.000244	-0.030853
N111	N	0.258466	0.112218	-0.009403
H112	H	0.296535	0.146311	-0.039627
H113	H	0.232381	0.070920	-0.039626
H114	H	0.704129	-0.578910	0.116462
H115	H	0.704040	-0.420399	0.117336
H116	H	0.734804	-0.419041	0.024385
N117	N	0.902990	-0.588768	0.185256
H118	H	0.942305	-0.569261	0.148869
H119	H	0.911092	-0.562550	0.232146
N120	N	0.824617	0.174385	-0.108744
H121	H	0.824124	0.227456	-0.142676
H122	H	0.782008	0.178023	-0.072919
H123	H	0.817911	0.152276	-0.565212
H124	H	0.822515	-0.151725	-0.249811
