data_functionalizedCrystal
_audit_creation_method	'MofGen! by Chris Wilmer'
_symmetry_space_group_name_H-M	'P1'
_symmetry_Int_Tables_number	1
_symmetry_cell_setting	triclinic
loop_
_symmetry_equiv_pos_as_xyz
  x,y,z
_cell_length_a	16.956995
_cell_length_b	16.992695
_cell_length_c	9.730223
_cell_angle_alpha	89.998169
_cell_angle_beta	89.996771
_cell_angle_gamma	83.361347
loop_
_atom_site_label
_atom_site_type_symbol
_atom_site_fract_x
_atom_site_fract_y
_atom_site_fract_z
O1	O	1.060095	0.032360	-0.114385
O2	O	0.829684	0.059774	-0.114368
O3	O	0.943966	-0.068016	-0.114365
O4	O	0.945813	0.160150	-0.114387
O5	O	0.943965	-0.068013	0.114215
O6	O	0.829683	0.059777	0.114212
O7	O	1.060093	0.032363	0.114195
Zn8	Zn	0.944888	0.046071	0.150496
Zn9	Zn	0.944890	0.046067	-0.150668
O10	O	0.945812	0.160153	0.114193
C11	C	0.800065	0.061179	-0.000075
C12	C	0.711811	0.065352	-0.000068
C13	C	0.214500	0.096570	-0.000123
C14	C	0.297425	0.092643	-0.000121
C15	C	0.343815	0.018931	-0.000104
C16	C	0.307278	-0.050860	-0.000102
C17	C	0.224354	-0.046932	-0.000113
C18	C	0.592349	-0.000510	-0.000078
C19	C	0.675278	-0.004433	-0.000062
C20	C	0.665419	0.139071	-0.000084
C21	C	0.582495	0.142992	-0.000087
C22	C	0.545964	0.073202	-0.000092
N23	N	0.428578	0.014915	-0.000098
N24	N	0.461203	0.077218	-0.000108
C25	C	0.941589	-0.097073	-0.000075
C26	C	0.934498	-0.183657	-0.000075
C27	C	1.002913	-0.238332	-0.000079
C28	C	0.996246	-0.319686	-0.000091
C29	C	0.921163	-0.346365	-0.000090
C30	C	0.852743	-0.291683	-0.000091
C31	C	0.859411	-0.210331	-0.000088
C32	C	0.893527	-0.588171	-0.000107
C33	C	0.886865	-0.669531	-0.000106
C34	C	1.030368	-0.697528	-0.000109
C35	C	1.037029	-0.616172	-0.000098
C36	C	0.968609	-0.561498	-0.000106
N37	N	0.914346	-0.429522	-0.000099
N38	N	0.975427	-0.478343	-0.000107
C39	C	1.089712	0.030958	-0.000100
C40	C	1.177967	0.026785	-0.000116
C41	C	0.948189	0.189210	-0.000100
C42	C	0.955280	0.275795	-0.000110
N43	N	0.944893	0.046073	0.356032
N44	N	0.944891	0.046058	-0.356205
C45	C	0.995511	-0.010496	0.427959
C46	C	0.995509	-0.010505	0.571842
C47	C	0.894267	0.102629	0.571858
C48	C	0.894266	0.102634	0.427978
C49	C	1.053965	-0.075811	0.427951
C50	C	1.053963	-0.075820	0.571834
H51	H	0.194611	-0.103758	-0.000110
H52	H	0.853041	0.148690	0.369416
O53	O	1.104162	-0.756495	-0.000110
H54	H	1.086916	-0.817548	-0.000121
H55	H	0.713048	-0.064462	-0.000055
H56	H	1.037120	-0.134874	0.388904
H57	H	1.064053	-0.216618	-0.000071
H58	H	1.112637	-0.061011	0.383318
O59	O	1.118014	-0.587404	-0.000097
H60	H	1.111157	-0.521649	-0.000078
H61	H	0.327165	0.149470	-0.000139
O62	O	0.532458	0.222496	-0.000104
H63	H	0.571793	0.270364	-0.000115
O64	O	0.552963	-0.075787	-0.000065
H65	H	0.515434	-0.077447	-0.093243
H66	H	0.837815	-0.543665	-0.000113
O67	O	0.704818	0.214342	-0.000094
H68	H	0.770273	0.199231	-0.000095
H69	H	0.345056	-0.110878	-0.000095
O70	O	0.805879	-0.698310	-0.000120
H71	H	0.759422	-0.646625	-0.000141
H72	H	1.051957	-0.364200	-0.000091
O73	O	0.839673	0.163646	0.649449
H74	H	0.798984	0.133257	0.715012
O75	O	0.164464	0.176075	-0.000143
H76	H	0.203803	0.223941	-0.000161
O77	O	0.771758	-0.320451	-0.000075
H78	H	0.778613	-0.386207	-0.000058
O79	O	1.024334	-0.149136	0.630963
H80	H	1.008626	-0.187999	0.545954
O81	O	0.785622	-0.151354	-0.000069
H82	H	0.732292	-0.183571	-0.000053
O83	O	1.135724	-0.064012	0.623574
H84	H	1.175752	-0.058216	0.534797
