data_functionalizedCrystal
_audit_creation_method	'MofGen! by Chris Wilmer'
_symmetry_space_group_name_H-M	'P1'
_symmetry_Int_Tables_number	1
_symmetry_cell_setting	triclinic
loop_
_symmetry_equiv_pos_as_xyz
  x,y,z
_cell_length_a	11.026607
_cell_length_b	16.109301
_cell_length_c	15.186229
_cell_angle_alpha	90.005167
_cell_angle_beta	89.998048
_cell_angle_gamma	83.976251
loop_
_atom_site_label
_atom_site_type_symbol
_atom_site_fract_x
_atom_site_fract_y
_atom_site_fract_z
O1	O	1.610024	-0.348130	-0.073226
O2	O	1.256733	-0.308488	-0.073229
O3	O	1.443084	-0.208732	-0.073218
O4	O	1.423673	-0.447886	-0.073236
O5	O	1.443071	-0.208729	0.073239
O6	O	1.256721	-0.308484	0.073228
O7	O	1.610011	-0.348126	0.073232
Zn8	Zn	1.433364	-0.328305	0.096483
Zn9	Zn	1.433380	-0.328309	-0.096481
O10	O	1.423661	-0.447882	0.073221
C11	C	1.211519	-0.301173	-0.000001
C12	C	1.076814	-0.279372	-0.000002
C13	C	1.442291	-0.177638	0.000011
C14	C	1.439934	-0.084989	0.000012
C15	C	1.655225	-0.355441	0.000001
C16	C	1.789931	-0.377242	-0.000003
C17	C	1.863760	-0.317046	-0.000000
C18	C	2.002986	-0.339577	-0.000005
C19	C	1.424453	-0.478976	-0.000010
C20	C	1.426811	-0.571625	-0.000017
N21	N	1.433362	-0.328302	0.228176
C22	C	1.545029	0.121535	-0.000001
C23	C	1.542805	0.208588	-0.000008
C24	C	1.321707	0.221846	-0.000007
C25	C	1.323932	0.134794	-0.000006
C26	C	1.435597	0.084640	0.000002
C27	C	1.431147	0.258746	-0.000007
C28	C	1.428735	0.353134	-0.000014
C29	C	1.438011	-0.009754	0.000008
N30	N	1.433392	-0.328307	-0.228173
C31	C	1.515906	-0.284153	0.453904
C32	C	1.515910	-0.284152	0.546093
C33	C	1.350840	-0.372457	0.546093
C34	C	1.350831	-0.372453	0.453905
C35	C	1.433371	-0.328303	0.407813
C36	C	1.433383	-0.328306	0.592190
C37	C	1.433387	-0.328305	0.692146
C38	C	1.433366	-0.328303	0.307850
H39	H	2.042845	-0.407797	-0.000006
H40	H	1.230793	0.262691	-0.000011
H41	H	1.635954	0.080702	0.000003
H42	H	1.234814	0.104754	-0.000006
O43	O	1.604912	-0.236526	0.404185
H44	H	1.662294	-0.205819	0.451727
O45	O	2.024022	-0.189006	0.000009
H46	H	2.055194	-0.157631	0.059710
O47	O	1.660834	0.248385	0.000000
H48	H	1.738850	0.198883	0.000014
O49	O	1.604944	-0.236547	0.595809
H50	H	1.662343	-0.205856	0.548267
H51	H	1.283639	-0.408404	0.583630
H52	H	1.283615	-0.408404	0.416375
H53	H	1.829795	-0.445458	-0.000005
H54	H	1.823896	-0.248830	0.000020
