data_functionalizedCrystal
_audit_creation_method	'MofGen! by Chris Wilmer'
_symmetry_space_group_name_H-M	'P1'
_symmetry_Int_Tables_number	1
_symmetry_cell_setting	triclinic
loop_
_symmetry_equiv_pos_as_xyz
  x,y,z
_cell_length_a	26.809956
_cell_length_b	17.699083
_cell_length_c	17.699105
_cell_angle_alpha	83.287442
_cell_angle_beta	89.998339
_cell_angle_gamma	89.997218
loop_
_atom_site_label
_atom_site_type_symbol
_atom_site_fract_x
_atom_site_fract_y
_atom_site_fract_z
O1	O	0.041416	-1.004089	-0.095700
O2	O	0.541416	-0.504089	0.404300
O3	O	0.041433	-0.783712	-0.108152
O4	O	0.541433	-0.283712	0.391848
O5	O	0.041414	-0.900118	0.008262
O6	O	0.541414	-0.400118	0.508262
O7	O	0.041436	-0.887683	-0.212114
O8	O	0.541436	-0.387683	0.287886
O9	O	-0.041546	-0.900096	0.008245
O10	O	0.458454	-0.400096	0.508245
O11	O	-0.041526	-0.783690	-0.108170
O12	O	0.458474	-0.283690	0.391830
O13	O	-0.041543	-1.004067	-0.095717
O14	O	0.458457	-0.504067	0.404283
Zn15	Zn	-0.054706	-0.893875	-0.101946
Zn16	Zn	0.445294	-0.393875	0.398054
Zn17	Zn	0.054596	-0.893904	-0.101923
Zn18	Zn	0.554596	-0.393904	0.398077
O19	O	-0.041523	-0.887661	-0.212132
O20	O	0.458477	-0.387661	0.287868
C21	C	-0.000044	-0.755504	-0.107715
C22	C	0.499956	-0.255504	0.392285
C23	C	-0.000038	-0.671486	-0.106376
C24	C	0.499962	-0.171486	0.393624
N25	N	-0.129302	-0.893861	-0.101962
N26	N	0.370698	-0.393861	0.398038
C27	C	-0.000068	-0.899659	0.036450
C28	C	0.499932	-0.399659	0.536450
C29	C	-0.000073	-0.898314	0.120467
C30	C	0.499927	-0.398314	0.620467
C31	C	-0.473937	-0.945442	-0.050387
C32	C	0.026063	-0.445442	0.449613
C33	C	-0.682814	-0.945460	-0.050376
C34	C	-0.182814	-0.445460	0.449624
O35	O	-0.709826	-0.989286	-0.006530
O36	O	-0.209826	-0.489286	0.493470
N37	N	-0.708929	-0.893908	-0.101906
N38	N	-0.208929	-0.393908	0.398094
C39	C	-0.682821	-0.842345	-0.153440
C40	C	-0.182821	-0.342345	0.346560
O41	O	-0.709826	-0.798492	-0.197264
O42	O	-0.209826	-0.298492	0.302736
C43	C	-0.473944	-0.842324	-0.153447
C44	C	0.026056	-0.342324	0.346553
C45	C	-0.447832	-0.893884	-0.101919
C46	C	0.052168	-0.393884	0.398081
C47	C	-0.447825	-0.996998	0.001138
C48	C	0.052175	-0.496998	0.501138
C49	C	-0.395609	-0.996996	0.001131
C50	C	0.104391	-0.496996	0.501131
C51	C	-0.369504	-0.945438	-0.050400
C52	C	0.130496	-0.445438	0.449600
C53	C	-0.395616	-0.893882	-0.101925
C54	C	0.104384	-0.393882	0.398075
C55	C	-0.447837	-0.790757	-0.204977
C56	C	0.052163	-0.290757	0.295023
C57	C	-0.395615	-0.790755	-0.204973
C58	C	0.104385	-0.290755	0.295027
C59	C	-0.369503	-0.842316	-0.153444
C60	C	0.130497	-0.342316	0.346556
C61	C	-0.317295	-0.842322	-0.153462
C62	C	0.182705	-0.342322	0.346538
N63	N	-0.291181	-0.893874	-0.101932
N64	N	0.208819	-0.393874	0.398068
C65	C	-0.317285	-0.945432	-0.050401
C66	C	0.182715	-0.445432	0.449599
C67	C	-0.792484	-0.842360	-0.153433
C68	C	-0.292484	-0.342360	0.346567
C69	C	-0.844703	-0.842366	-0.153433
C70	C	-0.344703	-0.342366	0.346567
C71	C	-0.844693	-0.945481	-0.050367
C72	C	-0.344693	-0.445481	0.449633
C73	C	-0.792473	-0.945478	-0.050372
C74	C	-0.292473	-0.445478	0.449628
C75	C	-0.766370	-0.893912	-0.101903
C76	C	-0.266370	-0.393912	0.398097
C77	C	-0.207627	-0.945423	-0.050418
C78	C	0.292373	-0.445423	0.449582
C79	C	-0.155406	-0.945419	-0.050431
C80	C	0.344594	-0.445419	0.449569
C81	C	-0.155421	-0.842302	-0.153493
C82	C	0.344579	-0.342302	0.346507
C83	C	-0.207637	-0.842309	-0.153483
C84	C	0.292363	-0.342309	0.346517
C85	C	-0.233739	-0.893873	-0.101939
C86	C	0.266261	-0.393873	0.398061
O87	O	-0.290252	-0.798514	-0.197279
O88	O	0.209748	-0.298514	0.302721
O89	O	-0.290271	-0.989267	-0.006572
O90	O	0.209729	-0.489267	0.493428
C91	C	-0.526153	-0.945444	-0.050381
C92	C	-0.026153	-0.445444	0.449619
C93	C	-0.552265	-0.893889	-0.101906
C94	C	-0.052265	-0.393889	0.398094
C95	C	-0.526161	-0.842331	-0.153437
C96	C	-0.026161	-0.342331	0.346563
C97	C	-0.604484	-0.893895	-0.101905
C98	C	-0.104484	-0.393895	0.398095
C99	C	-0.630588	-0.945453	-0.050374
C100	C	-0.130588	-0.445453	0.449626
C101	C	-0.604474	-0.997005	0.001156
C102	C	-0.104474	-0.497005	0.501156
C103	C	-0.552258	-0.997002	0.001150
C104	C	-0.052258	-0.497002	0.501150
C105	C	-0.552275	-0.790779	-0.204968
C106	C	-0.052275	-0.290779	0.295032
C107	C	-0.604491	-0.790786	-0.204958
C108	C	-0.104491	-0.290786	0.295042
C109	C	-0.630596	-0.842344	-0.153427
C110	C	-0.130596	-0.342344	0.346573
N111	N	0.129192	-0.893924	-0.101901
N112	N	0.629192	-0.393924	0.398099
C113	C	-0.000064	-1.032275	-0.096155
C114	C	0.499936	-0.532275	0.403845
C115	C	-0.000067	-1.116293	-0.097493
C116	C	0.499933	-0.616293	0.402507
C117	C	-0.000031	-0.622870	-0.174709
C118	C	0.499969	-0.122870	0.325291
C119	C	-0.000038	-0.543927	-0.173446
C120	C	0.499962	-0.043927	0.326554
C121	C	-0.000048	-0.513600	-0.103851
C122	C	0.499952	-0.013600	0.396149
C123	C	-0.000056	-0.562222	-0.035513
C124	C	0.499944	-0.062222	0.464487
C125	C	-0.000053	-0.641164	-0.036776
C126	C	0.499947	-0.141164	0.463224
C127	C	-0.000069	-0.243859	-0.030418
C128	C	0.499931	0.256141	0.469582
C129	C	-0.000070	-0.164911	-0.029160
C130	C	0.499930	0.335089	0.470840
C131	C	-0.000054	-0.146621	-0.167088
C132	C	0.499946	0.353379	0.332912
C133	C	-0.000051	-0.225563	-0.168351
C134	C	0.499949	0.274437	0.331649
C135	C	-0.000062	-0.274178	-0.100014
C136	C	0.499938	0.225822	0.399986
C137	C	-0.000055	-0.359777	-0.101383
C138	C	0.499945	0.140223	0.398617
C139	C	-0.000050	-0.428003	-0.102480
C140	C	0.499950	0.071997	0.397520
C141	C	0.045175	-0.890098	0.636188
C142	C	0.545175	-0.390098	1.136188
C143	C	0.045172	-0.891361	0.557245
C144	C	0.545172	-0.391361	1.057245
C145	C	-0.000052	-0.891979	0.517777
C146	C	0.499948	-0.391979	1.017777
C147	C	-0.045275	-0.891341	0.557257
C148	C	0.454725	-0.391341	1.057257
C149	C	-0.045271	-0.890084	0.636200
C150	C	0.454729	-0.390084	1.136200
C151	C	-0.045292	-0.896413	0.238891
C152	C	0.454708	-0.396413	0.738891
C153	C	-0.045293	-0.897669	0.159943
C154	C	0.454707	-0.397669	0.659943
C155	C	0.045150	-0.897690	0.159936
C156	C	0.545150	-0.397690	0.659936
C157	C	0.045154	-0.896433	0.238879
C158	C	0.545154	-0.396433	0.738879
C159	C	-0.000068	-0.895800	0.278353
C160	C	0.499932	-0.395800	0.778353
C161	C	-0.000064	-0.894432	0.363952
C162	C	0.499936	-0.394432	0.863952
C163	C	-0.000057	-0.893341	0.432178
C164	C	0.499943	-0.393341	0.932178
C165	C	-0.000044	-0.888118	0.759680
C166	C	0.499956	-0.388118	1.259680
C167	C	-0.000044	-0.889458	0.675662
C168	C	0.499956	-0.389458	1.175662
H169	H	-0.134148	-0.987408	-0.008470
H170	H	0.365852	-0.487408	0.491530
H171	H	-0.082093	-0.889563	0.668339
H172	H	0.417907	-0.389563	1.168339
Br173	Br	-0.880135	-0.772401	-0.223379
Br174	Br	-0.380135	-0.272401	0.276621
Br175	Br	-0.639923	-0.720809	-0.274901
Br176	Br	-0.139923	-0.220809	0.225099
Br177	Br	-0.483264	-0.720779	-0.274911
Br178	Br	0.016736	-0.220779	0.225089
Br179	Br	-0.360177	-1.066969	0.071069
Br180	Br	0.139823	-0.566969	0.571069
H181	H	0.081994	-0.891883	0.525108
H182	H	0.581994	-0.391883	1.025108
H183	H	-0.771234	-0.800368	-0.195398
H184	H	-0.271234	-0.300368	0.304602
Br185	Br	-0.000085	-0.309826	0.062327
Br186	Br	0.499915	0.190174	0.562327
H187	H	-0.531025	-0.748793	-0.246930
H188	H	-0.031025	-0.248793	0.253070
Br189	Br	0.106525	-0.898559	0.106362
Br190	Br	0.606525	-0.398559	0.606362
Br191	Br	-0.000082	-0.123754	0.065298
Br192	Br	0.499918	0.376246	0.565298
H193	H	-0.865956	-0.987463	-0.008410
H194	H	-0.365956	-0.487463	0.491590
Br195	Br	-0.106672	-0.898505	0.106378
Br196	Br	0.393328	-0.398505	0.606378
Br197	Br	-0.000013	-0.664019	-0.269165
Br198	Br	0.499987	-0.164019	0.230835
Br199	Br	0.106554	-0.889251	0.689743
Br200	Br	0.606554	-0.389251	1.189743
H201	H	0.081980	-0.895926	0.271009
H202	H	0.581980	-0.395926	0.771009
Br203	Br	-0.106666	-0.895548	0.292452
Br204	Br	0.393334	-0.395548	0.792452
Br205	Br	-0.106651	-0.892187	0.503695
Br206	Br	0.393349	-0.392187	1.003695
Br207	Br	-0.000027	-0.477950	-0.266188
Br208	Br	0.499973	0.022050	0.233812
Br209	Br	-0.639911	-1.066979	0.071087
Br210	Br	-0.139911	-0.566979	0.571087
H211	H	-0.228874	-0.987410	-0.008445
H212	H	0.271126	-0.487410	0.491555
H213	H	-0.469075	-1.038982	0.043104
H214	H	0.030925	-0.538982	0.543104
Br215	Br	-0.516827	-1.066981	0.071084
Br216	Br	-0.016827	-0.566981	0.571084
Br217	Br	-0.119985	-0.772335	-0.223428
Br218	Br	0.380015	-0.272335	0.276572
Br219	Br	-0.000039	-0.080640	-0.259834
Br220	Br	0.499961	0.419360	0.240166
Br221	Br	-0.757042	-1.015455	0.019562
Br222	Br	-0.257042	-0.515455	0.519562
Br223	Br	-0.360192	-0.720766	-0.274908
Br224	Br	0.139808	-0.220766	0.225092
H225	H	-0.228898	-0.800331	-0.195449
H226	H	0.271102	-0.300331	0.304551
H227	H	-0.000071	-0.537524	0.021153
H228	H	0.499929	-0.037524	0.521153
H229	H	-0.000040	-0.250250	-0.225023
H230	H	0.499960	0.249750	0.274977
H231	H	-0.000058	-0.680747	0.018868
H232	H	0.499942	-0.180747	0.518868
