data_functionalizedCrystal
_audit_creation_method	'MofGen! by Chris Wilmer'
_symmetry_space_group_name_H-M	'P1'
_symmetry_Int_Tables_number	1
_symmetry_cell_setting	triclinic
loop_
_symmetry_equiv_pos_as_xyz
  x,y,z
_cell_length_a	12.759401
_cell_length_b	12.759399
_cell_length_c	16.959447
_cell_angle_alpha	89.971998
_cell_angle_beta	90.015200
_cell_angle_gamma	89.984062
loop_
_atom_site_label
_atom_site_type_symbol
_atom_site_fract_x
_atom_site_fract_y
_atom_site_fract_z
Zn1	Zn	-1.606188	-0.418223	-0.446940
Zn2	Zn	-1.606100	-0.593929	-0.314767
Zn3	Zn	-1.430509	-0.418267	-0.314775
Zn4	Zn	-1.430477	-0.593863	-0.446903
O5	O	-1.518318	-0.506070	-0.380846
O6	O	-1.753197	-0.441540	-0.429419
O7	O	-1.582784	-0.570674	-0.204157
O8	O	-1.453863	-0.271240	-0.332326
O9	O	-1.753133	-0.570630	-0.332312
O10	O	-1.582934	-0.271207	-0.429427
O11	O	-1.453778	-0.441616	-0.204163
O12	O	-1.283484	-0.441551	-0.332291
O13	O	-1.453809	-0.570517	-0.557519
O14	O	-1.283460	-0.570560	-0.429365
O15	O	-1.582903	-0.441475	-0.557546
O16	O	-1.582753	-0.740941	-0.332276
O17	O	-1.453724	-0.740892	-0.429356
C18	C	-1.245351	-0.506054	-0.380825
C19	C	-1.128574	-0.506073	-0.380835
C20	C	-1.518254	-0.779038	-0.380828
C21	C	-1.518323	-0.895814	-0.380847
C22	C	-1.073728	-0.573349	-0.431300
C23	C	-0.964004	-0.573352	-0.431314
C24	C	-0.963982	-0.438798	-0.330389
C25	C	-1.073705	-0.438791	-0.330380
C26	C	-0.792352	-0.506084	-0.380863
C27	C	-0.909128	-0.506082	-0.380857
C28	C	-1.585585	-0.950667	-0.330355
C29	C	-1.585652	-1.060391	-0.330381
C30	C	-1.451186	-1.060400	-0.431395
C31	C	-1.451125	-0.950678	-0.431371
C32	C	-1.518412	-0.232037	-0.380882
C33	C	-1.518451	-0.115260	-0.380897
C34	C	-1.518362	-0.505983	-0.587015
C35	C	-1.518381	-0.505946	-0.674871
C36	C	-1.451293	-0.573022	-1.046336
C37	C	-1.585720	-0.438649	-1.046359
C38	C	-1.585692	-0.438672	-0.963813
C39	C	-1.518464	-0.505871	-0.922524
C40	C	-1.451265	-0.573048	-0.963782
C41	C	-1.652897	-0.371503	-0.922549
C42	C	-1.652873	-0.371524	-0.839998
C43	C	-1.585639	-0.438719	-0.798708
C44	C	-1.518436	-0.505898	-0.839971
C45	C	-1.451209	-0.573097	-0.798683
C46	C	-1.384000	-0.640272	-0.839944
C47	C	-1.384032	-0.640243	-0.922492
C48	C	-1.585608	-0.438747	-0.716160
C49	C	-1.451181	-0.573124	-0.716129
C50	C	-1.518335	-0.506081	-0.175480
C51	C	-1.518520	-0.505822	-0.087624
H52	H	-0.919352	-0.628134	-0.472409
H53	H	-1.707598	-0.316825	-0.806410
H54	H	-0.919294	-0.384022	-0.289310
H55	H	-1.396570	-0.627711	-1.079934
O56	O	-1.127105	-0.373582	-0.281314
C57	C	-1.190517	-0.433310	-0.230168
H58	H	-1.206946	-0.512976	-0.257939
H59	H	-1.267679	-0.390496	-0.219628
H60	H	-1.148203	-0.444756	-0.171578
O61	O	-1.650961	-0.897534	-0.281256
C62	C	-1.710324	-0.969483	-0.236683
H63	H	-1.713978	-1.047659	-0.269080
H64	H	-1.793091	-0.937720	-0.228299
H65	H	-1.671907	-0.981248	-0.176628
H66	H	-1.396352	-0.906014	-0.472492
O67	O	-1.127076	-0.638807	-0.480203
C68	C	-1.190527	-0.706573	-0.435112
H69	H	-1.157432	-0.712965	-0.372852
H70	H	-1.191767	-0.787471	-0.463598
H71	H	-1.273690	-0.674080	-0.432426
O72	O	-1.651158	-1.113689	-0.281468
C73	C	-1.718998	-1.177024	-0.326566
H74	H	-1.725328	-1.143888	-0.388822
H75	H	-1.799907	-1.178166	-0.298079
H76	H	-1.686620	-1.260229	-0.329263
H77	H	-1.640331	-0.384057	-0.682569
H78	H	-1.329317	-0.694936	-0.956094
O79	O	-1.385940	-1.113860	-0.480391
C80	C	-1.400432	-1.222466	-0.469598
H81	H	-1.434902	-1.237485	-0.408625
H82	H	-1.321753	-1.264225	-0.474913
H83	H	-1.456355	-1.253511	-0.516528
O84	O	-1.385993	-0.638557	-0.676057
C85	C	-1.408910	-0.743260	-0.696230
H86	H	-1.492845	-0.748557	-0.718929
H87	H	-1.399834	-0.795186	-0.641933
H88	H	-1.352584	-0.770704	-0.744137
O89	O	-1.318821	-0.705705	-0.799863
C90	C	-1.341741	-0.810409	-0.820032
H91	H	-1.425670	-0.815703	-0.842743
H92	H	-1.332682	-0.862329	-0.765731
H93	H	-1.285405	-0.837862	-0.867930
O94	O	-1.650926	-0.373415	-1.086585
C95	C	-1.636566	-0.387821	-1.168292
H96	H	-1.555477	-0.422219	-1.179560
H97	H	-1.643734	-0.309119	-1.199685
H98	H	-1.698872	-0.443771	-1.191702
O99	O	-1.718052	-0.306128	-0.962694
C100	C	-1.658280	-0.238267	-1.010472
H101	H	-1.575531	-0.231765	-0.985589
H102	H	-1.696318	-0.157421	-1.011434
H103	H	-1.654657	-0.270740	-1.073025
