data_functionalizedCrystal
_audit_creation_method	'MofGen! by Chris Wilmer'
_symmetry_space_group_name_H-M	'P1'
_symmetry_Int_Tables_number	1
_symmetry_cell_setting	triclinic
loop_
_symmetry_equiv_pos_as_xyz
  x,y,z
_cell_length_a	27.731994
_cell_length_b	26.210047
_cell_length_c	23.532407
_cell_angle_alpha	89.983939
_cell_angle_beta	82.734606
_cell_angle_gamma	90.013772
loop_
_atom_site_label
_atom_site_type_symbol
_atom_site_fract_x
_atom_site_fract_y
_atom_site_fract_z
O1	O	0.641039	-0.042361	0.067626
O2	O	1.141039	0.457639	0.567626
O3	O	0.500258	-0.042379	0.077962
O4	O	1.000258	0.457621	0.577962
O5	O	0.574894	-0.042360	-0.010148
O6	O	1.074894	0.457640	0.489852
O7	O	0.566403	-0.042380	0.155736
O8	O	1.066403	0.457620	0.655736
O9	O	0.574906	0.042498	-0.010164
O10	O	1.074906	0.542498	0.489836
O11	O	0.500270	0.042479	0.077946
O12	O	1.000270	0.542479	0.577946
O13	O	0.641051	0.042497	0.067609
O14	O	1.141051	0.542497	0.567609
Cu15	Cu	0.570662	0.050236	0.072776
Cu16	Cu	1.070662	0.550236	0.572776
Cu17	Cu	0.570647	-0.050118	0.072795
Cu18	Cu	1.070647	0.449882	0.572795
O19	O	0.566415	0.042478	0.155719
O20	O	1.066415	0.542478	0.655719
C21	C	0.482256	0.000048	0.077742
C22	C	0.982256	0.500048	0.577742
C23	C	0.428599	0.000041	0.077103
C24	C	0.928599	0.500041	0.577103
C25	C	0.095881	0.046318	0.073069
C26	C	0.595881	0.546318	0.573069
C27	C	-0.105781	0.046324	0.070640
C28	C	0.394219	0.546324	0.570640
O29	O	-0.131849	0.085663	0.070294
O30	O	0.368151	0.585663	0.570294
N31	N	-0.131003	0.000068	0.070348
N32	N	0.368997	0.500068	0.570348
C33	C	-0.105806	-0.046193	0.070658
C34	C	0.394194	0.453807	0.570658
O35	O	-0.131885	-0.085537	0.070348
O36	O	0.368115	0.414463	0.570348
C37	C	0.095856	-0.046199	0.073083
C38	C	0.595856	0.453801	0.573083
C39	C	0.121074	0.000060	0.073382
C40	C	0.621074	0.500060	0.573382
C41	C	0.121100	0.092573	0.073367
C42	C	0.621100	0.592573	0.573367
C43	C	0.171512	0.092571	0.073977
C44	C	0.671512	0.592571	0.573977
C45	C	0.196705	0.046314	0.074290
C46	C	0.696705	0.546314	0.574290
C47	C	0.171486	0.000058	0.073992
C48	C	0.671486	0.500058	0.573992
C49	C	0.121052	-0.092459	0.073390
C50	C	0.621052	0.407541	0.573390
C51	C	0.171471	-0.092456	0.073995
C52	C	0.671471	0.407544	0.573995
C53	C	0.196690	-0.046197	0.074293
C54	C	0.696690	0.453803	0.574293
C55	C	0.247092	-0.046201	0.074915
C56	C	0.747092	0.453799	0.574915
N57	N	0.272314	0.000055	0.075208
N58	N	0.772314	0.500055	0.575208
C59	C	0.247120	0.046313	0.074895
C60	C	0.747120	0.546313	0.574895
C61	C	-0.211681	-0.046187	0.069386
C62	C	0.288319	0.453813	0.569386
C63	C	-0.262096	-0.046186	0.068781
C64	C	0.237904	0.453814	0.568781
C65	C	-0.262068	0.046331	0.068762
C66	C	0.237932	0.546331	0.568762
C67	C	-0.211652	0.046330	0.069371
C68	C	0.288348	0.546330	0.569371
C69	C	-0.186459	0.000069	0.069679
C70	C	0.313541	0.500069	0.569679
C71	C	0.352989	0.046305	0.076177
C72	C	0.852989	0.546305	0.576177
C73	C	0.403405	0.046299	0.076790
C74	C	0.903405	0.546299	0.576790
C75	C	0.403373	-0.046218	0.076806
C76	C	0.903373	0.453782	0.576806
C77	C	0.352961	-0.046212	0.076196
C78	C	0.852961	0.453788	0.576196
C79	C	0.327770	0.000053	0.075880
C80	C	0.827770	0.500053	0.575880
O81	O	0.273191	-0.085519	0.075255
O82	O	0.773191	0.414481	0.575255
O83	O	0.273210	0.085650	0.075193
O84	O	0.773210	0.585650	0.575193
C85	C	0.045469	0.046320	0.072459
C86	C	0.545469	0.546320	0.572459
C87	C	0.020250	0.000064	0.072161
C88	C	0.520250	0.500064	0.572161
C89	C	0.045443	-0.046193	0.072474
C90	C	0.545443	0.453807	0.572474
C91	C	-0.030165	0.000066	0.071556
C92	C	0.469835	0.500066	0.571556
C93	C	-0.055359	0.046323	0.071243
C94	C	0.444641	0.546323	0.571243
C95	C	-0.030137	0.092579	0.071536
C96	C	0.469863	0.592579	0.571536
C97	C	0.020275	0.092577	0.072146
C98	C	0.520275	0.592577	0.572146
C99	C	0.020221	-0.092449	0.072181
C100	C	0.520221	0.407551	0.572181
C101	C	-0.030191	-0.092443	0.071571
C102	C	0.469809	0.407557	0.571571
C103	C	-0.055384	-0.046186	0.071259
C104	C	0.444616	0.453814	0.571259
N105	N	0.570638	-0.120702	0.072805
N106	N	1.070638	0.379298	0.572805
C107	C	0.603776	-0.473208	0.033851
C108	C	1.103776	0.026792	0.533851
C109	C	0.603783	-0.686867	0.033839
C110	C	1.103783	-0.186867	0.533839
O111	O	0.631956	-0.714482	0.000741
O112	O	1.131956	-0.214482	0.500741
N113	N	0.570672	-0.713596	0.072773
N114	N	1.070672	-0.213596	0.572773
C115	C	0.537559	-0.686908	0.111715
C116	C	1.037559	-0.186908	0.611715
O117	O	0.509400	-0.714546	0.144835
O118	O	1.009400	-0.214546	0.644835
C119	C	0.537555	-0.473250	0.111730
C120	C	1.037555	0.026750	0.611730
C121	C	0.570665	-0.446523	0.072789
C122	C	1.070665	0.053477	0.572789
C123	C	0.636884	-0.446481	-0.005086
C124	C	1.136884	0.053519	0.494914
C125	C	0.636880	-0.393070	-0.005084
C126	C	1.136880	0.106930	0.494916
C127	C	0.603768	-0.366385	0.033854
C128	C	1.103768	0.133615	0.533854
C129	C	0.570661	-0.393112	0.072791
C130	C	1.070661	0.106888	0.572791
C131	C	0.504445	-0.446563	0.150674
C132	C	1.004445	0.053437	0.650674
C133	C	0.504447	-0.393145	0.150675
C134	C	1.004447	0.106855	0.650675
C135	C	0.537557	-0.366418	0.111735
C136	C	1.037557	0.133582	0.611735
C137	C	0.537546	-0.313016	0.111730
C138	C	1.037546	0.186984	0.611730
N139	N	0.570657	-0.286286	0.072796
N140	N	1.070657	0.213714	0.572796
C141	C	0.603768	-0.312971	0.033858
C142	C	1.103768	0.187029	0.533858
C143	C	0.537564	-0.799081	0.111704
C144	C	1.037564	-0.299081	0.611704
C145	C	0.537564	-0.852495	0.111700
C146	C	1.037564	-0.352495	0.611700
C147	C	0.603789	-0.852450	0.033824
C148	C	1.103789	-0.352450	0.533824
C149	C	0.603785	-0.799035	0.033826
C150	C	1.103785	-0.299035	0.533826
C151	C	0.570674	-0.772352	0.072770
C152	C	1.070674	-0.272352	0.572770
C153	C	0.603757	-0.200803	0.033863
C154	C	1.103757	0.299197	0.533863
C155	C	0.603749	-0.147387	0.033867
C156	C	1.103749	0.352613	0.533867
C157	C	0.537526	-0.147437	0.111744
C158	C	1.037526	0.352563	0.611744
C159	C	0.537532	-0.200848	0.111739
C160	C	1.037532	0.299152	0.611739
C161	C	0.570652	-0.227530	0.072797
C162	C	1.070652	0.272470	0.572797
O163	O	0.509391	-0.285368	0.144815
O164	O	1.009391	0.214632	0.644815
O165	O	0.631930	-0.285324	0.000752
O166	O	1.131930	0.214676	0.500752
C167	C	0.603780	-0.526620	0.033850
C168	C	1.103780	-0.026620	0.533850
C169	C	0.570673	-0.553346	0.072787
C170	C	1.070673	-0.053346	0.572787
C171	C	0.537561	-0.526662	0.111725
C172	C	1.037561	-0.026662	0.611725
C173	C	0.570673	-0.606761	0.072782
C174	C	1.070673	-0.106761	0.572782
C175	C	0.603784	-0.633445	0.033844
C176	C	1.103784	-0.133445	0.533844
C177	C	0.636895	-0.606716	-0.005090
C178	C	1.136895	-0.106716	0.494910
C179	C	0.636891	-0.553304	-0.005088
C180	C	1.136891	-0.053304	0.494912
C181	C	0.504450	-0.553391	0.150659
C182	C	1.004450	-0.053391	0.650659
C183	C	0.504457	-0.606803	0.150654
C184	C	1.004457	-0.106803	0.650654
C185	C	0.537568	-0.633487	0.111716
C186	C	1.037568	-0.133487	0.611716
C187	C	0.659053	0.000069	0.067830
C188	C	1.159053	0.500069	0.567830
C189	C	0.712710	0.000072	0.068469
C190	C	1.212710	0.500072	0.568469
C191	C	0.574684	0.000070	-0.031372
C192	C	1.074684	0.500070	0.468628
C193	C	0.574034	0.000074	-0.094587
C194	C	1.074034	0.500074	0.405413
N195	N	0.570675	0.120820	0.072762
N196	N	1.070675	0.620820	0.572762
C197	C	0.614124	0.000051	-0.493785
C198	C	1.114124	0.500051	0.006215
C199	C	0.613520	0.000047	-0.553184
C200	C	1.113520	0.500047	-0.053184
O201	O	0.650685	0.000033	-0.590016
O202	O	1.150685	0.500033	-0.090016
N203	N	0.569149	0.000042	-0.575705
N204	N	1.069149	0.500042	-0.075705
C205	C	0.525379	0.000035	-0.538824
C206	C	1.025379	0.500035	-0.038824
O207	O	0.487583	0.000030	-0.563434
O208	O	0.987583	0.500030	-0.063434
C209	C	0.525984	0.000036	-0.479426
C210	C	1.025984	0.500036	0.020574
C211	C	0.570358	0.000046	-0.456909
C212	C	1.070358	0.500046	0.043091
C213	C	0.658495	0.000061	-0.471267
C214	C	1.158495	0.500061	0.028733
C215	C	0.659098	0.000066	-0.411872
C216	C	1.159098	0.500066	0.088128
C217	C	0.615332	0.000061	-0.374996
C218	C	1.115332	0.500061	0.125004
C219	C	0.570961	0.000051	-0.397514
C220	C	1.070961	0.500051	0.102486
C221	C	0.482214	0.000025	-0.442546
C222	C	0.982214	0.500025	0.057454
C223	C	0.482822	0.000025	-0.383145
C224	C	0.982822	0.500025	0.116855
C225	C	0.527196	0.000036	-0.360628
C226	C	1.027196	0.500036	0.139372
C227	C	0.527798	0.000051	-0.301243
C228	C	1.027798	0.500051	0.198757
N229	N	0.572169	0.000056	-0.278721
N230	N	1.072169	0.500056	0.221279
C231	C	0.615936	0.000061	-0.315598
C232	C	1.115936	0.500061	0.184402
C233	C	0.524113	0.000034	-0.663563
C234	C	1.024113	0.500034	-0.163563
C235	C	0.523509	0.000037	-0.722960
C236	C	1.023509	0.500037	-0.222960
C237	C	0.611650	0.000048	-0.737316
C238	C	1.111650	0.500048	-0.237316
C239	C	0.612254	0.000048	-0.677918
C240	C	1.112254	0.500048	-0.177918
C241	C	0.568485	0.000039	-0.641042
C242	C	1.068485	0.500039	-0.141042
C243	C	0.617200	0.000072	-0.190864
C244	C	1.117200	0.500072	0.309136
C245	C	0.617800	0.000079	-0.131463
C246	C	1.117800	0.500079	0.368537
C247	C	0.529659	0.000065	-0.117113
C248	C	1.029659	0.500065	0.382887
C249	C	0.529059	0.000061	-0.176508
C250	C	1.029059	0.500061	0.323492
C251	C	0.572834	0.000062	-0.213383
C252	C	1.072834	0.500062	0.286617
O253	O	0.490653	0.000063	-0.264376
O254	O	0.990653	0.500063	0.235624
O255	O	0.653726	0.000060	-0.290979
O256	O	1.153726	0.500060	0.209021
C257	C	0.566625	0.000047	0.176943
C258	C	1.066625	0.500047	0.676943
C259	C	0.567276	0.000039	0.240158
C260	C	1.067276	0.500039	0.740158
H261	H	0.191980	-0.130128	0.074246
H262	H	0.691980	0.369872	0.574246
C263	C	0.640186	-0.230148	-0.008976
C264	C	1.140186	0.269852	0.491024
C265	C	0.677010	-0.266861	0.013045
C266	C	1.177010	0.233139	0.513045
C267	C	0.713436	-0.296205	-0.029797
C268	C	1.213436	0.203795	0.470203
C269	C	0.713037	-0.288836	-0.094660
C270	C	1.213037	0.211164	0.405340
C271	C	0.676212	-0.252121	-0.116685
C272	C	1.176212	0.247879	0.383315
C273	C	0.639786	-0.222777	-0.073843
C274	C	1.139786	0.277223	0.426157
H275	H	0.677306	-0.272318	0.061064
H276	H	1.177306	0.227682	0.561064
H277	H	0.740697	-0.323384	-0.013493
H278	H	1.240697	0.176616	0.486507
H279	H	0.740002	-0.310558	-0.126375
H280	H	1.240002	0.189442	0.373625
H281	H	0.675916	-0.246665	-0.164703
H282	H	1.175916	0.253335	0.335297
H283	H	0.612525	-0.195598	-0.090147
H284	H	1.112525	0.304402	0.409853
C285	C	0.047931	-0.143335	0.072526
C286	C	0.547931	0.356665	0.572526
C287	C	0.076852	-0.156067	0.122421
C288	C	0.576852	0.343933	0.622421
C289	C	0.104560	-0.206956	0.122768
C290	C	0.604560	0.293044	0.622768
C291	C	0.103346	-0.245113	0.073221
C292	C	0.603346	0.254887	0.573221
C293	C	0.074423	-0.232382	0.023322
C294	C	0.574423	0.267618	0.523322
C295	C	0.046716	-0.181493	0.022974
C296	C	0.546716	0.318507	0.522974
H297	H	0.077752	-0.127820	0.159102
H298	H	0.577752	0.372180	0.659102
H299	H	0.125970	-0.216381	0.159707
H300	H	0.625970	0.283619	0.659707
H301	H	0.123856	-0.282784	0.073478
H302	H	0.623856	0.217216	0.573478
H303	H	0.073523	-0.260629	-0.013360
H304	H	0.573523	0.239371	0.486640
H305	H	0.025305	-0.172068	-0.013964
H306	H	0.525305	0.327932	0.486036
H307	H	0.100593	0.130243	0.073111
H308	H	0.600593	0.630243	0.573111
C309	C	0.659796	0.000048	-0.777887
C310	C	1.159796	0.500048	-0.277887
C311	C	0.696246	0.044115	-0.775668
C312	C	1.196246	0.544115	-0.275668
C313	C	0.744388	0.044115	-0.816240
C314	C	1.244388	0.544115	-0.316240
C315	C	0.756081	0.000048	-0.859030
C316	C	1.256081	0.500048	-0.359030
C317	C	0.719629	-0.044023	-0.861250
C318	C	1.219629	0.455977	-0.361250
C319	C	0.671487	-0.044023	-0.820678
C320	C	1.171487	0.455977	-0.320678
H321	H	0.687591	0.076740	-0.743991
H322	H	1.187591	0.576740	-0.243991
H323	H	0.771372	0.076740	-0.814596
H324	H	1.271372	0.576740	-0.314596
H325	H	0.791719	0.000048	-0.889063
H326	H	1.291719	0.500048	-0.389063
H327	H	0.728284	-0.076647	-0.892927
H328	H	1.228284	0.423353	-0.392927
H329	H	0.644503	-0.076647	-0.822322
H330	H	1.144503	0.423353	-0.322322
C331	C	-0.057927	-0.143333	0.071243
C332	C	0.442073	0.356667	0.571243
C333	C	-0.086853	-0.156048	0.021349
C334	C	0.413147	0.343952	0.521349
C335	C	-0.114586	-0.206936	0.021014
C336	C	0.385414	0.293064	0.521014
C337	C	-0.113394	-0.245110	0.070573
C338	C	0.386606	0.254890	0.570573
C339	C	-0.084467	-0.232396	0.120471
C340	C	0.415533	0.267604	0.620471
C341	C	-0.056734	-0.181507	0.120806
C342	C	0.443266	0.318493	0.620806
H343	H	-0.087736	-0.127789	-0.015341
H344	H	0.412264	0.372211	0.484659
H345	H	-0.135999	-0.216348	-0.015923
H346	H	0.364001	0.283652	0.484077
H347	H	-0.133924	-0.282780	0.070326
H348	H	0.366076	0.217220	0.570326
H349	H	-0.083584	-0.260655	0.157161
H350	H	0.416416	0.239345	0.657161
H351	H	-0.035321	-0.172096	0.157743
H352	H	0.464679	0.327904	0.657743
C353	C	0.474696	0.000032	-0.747724
C354	C	0.974696	0.500032	-0.247724
C355	C	0.438429	0.044092	-0.733646
C356	C	0.938429	0.544092	-0.233646
C357	C	0.389615	0.044084	-0.758407
C358	C	0.889615	0.544084	-0.258407
C359	C	0.377067	0.000015	-0.797246
C360	C	0.877067	0.500015	-0.297246
C361	C	0.413335	-0.044048	-0.811327
C362	C	0.913335	0.455952	-0.311327
C363	C	0.462149	-0.044040	-0.786566
C364	C	0.962149	0.455960	-0.286566
H365	H	0.447717	0.076717	-0.704893
H366	H	0.947717	0.576717	-0.204893
H367	H	0.362767	0.076702	-0.747984
H368	H	0.862767	0.576702	-0.247984
H369	H	0.340932	0.000009	-0.815576
H370	H	0.840932	0.500009	-0.315576
H371	H	0.404047	-0.076673	-0.840080
H372	H	0.904047	0.423327	-0.340080
H373	H	0.488997	-0.076658	-0.796989
H374	H	0.988997	0.423342	-0.296989
C375	C	0.666614	0.000087	-0.106696
C376	C	1.166614	0.500087	0.393304
C377	C	0.702896	0.044154	-0.120809
C378	C	1.202896	0.544154	0.379191
C379	C	0.751709	0.044161	-0.096043
C380	C	1.251709	0.544161	0.403957
C381	C	0.764240	0.000102	-0.057165
C382	C	1.264240	0.500102	0.442835
C383	C	0.727957	-0.043969	-0.043050
C384	C	1.227957	0.456031	0.456950
C385	C	0.679144	-0.043976	-0.067816
C386	C	1.179144	0.456024	0.432184
H387	H	0.693621	0.076773	-0.149590
H388	H	1.193621	0.576773	0.350410
H389	H	0.778568	0.076785	-0.106492
H390	H	1.278568	0.576785	0.393508
H391	H	0.800374	0.000107	-0.038832
H392	H	1.300374	0.500107	0.461168
H393	H	0.737232	-0.076587	-0.014269
H394	H	1.237232	0.423413	0.485731
H395	H	0.652286	-0.076600	-0.057367
H396	H	1.152286	0.423400	0.442633
H397	H	0.494026	0.000063	-0.087078
H398	H	0.994026	0.500063	0.412922
C399	C	0.325215	-0.097095	0.075870
C400	C	0.825215	0.402905	0.575870
C401	C	0.337873	-0.135248	0.026485
C402	C	0.837873	0.364752	0.526485
C403	C	0.310131	-0.186131	0.026151
C404	C	0.810131	0.313869	0.526151
C405	C	0.269732	-0.198862	0.075201
C406	C	0.769732	0.301138	0.575201
C407	C	0.257072	-0.160708	0.124590
C408	C	0.757072	0.339292	0.624590
C409	C	0.284814	-0.109825	0.124924
C410	C	0.784814	0.390175	0.624924
H411	H	0.367781	-0.125825	-0.009828
H412	H	0.867781	0.374175	0.490172
H413	H	0.319503	-0.214375	-0.010410
H414	H	0.819503	0.285625	0.489590
H415	H	0.249196	-0.236529	0.074954
H416	H	0.749196	0.263471	0.574954
H417	H	0.227165	-0.170131	0.160903
H418	H	0.727165	0.329869	0.660903
H419	H	0.275442	-0.081581	0.161485
H420	H	0.775442	0.418419	0.661485
H421	H	0.630746	-0.777278	0.002118
H422	H	1.130746	-0.277278	0.502118
C423	C	0.431144	0.097188	0.077112
C424	C	0.931144	0.597188	0.577112
C425	C	0.418488	0.135348	0.126489
C426	C	0.918488	0.635348	0.626489
C427	C	0.446224	0.186236	0.126807
C428	C	0.946224	0.686236	0.626807
C429	C	0.486617	0.198963	0.077749
C430	C	0.986617	0.698963	0.577749
C431	C	0.499276	0.160802	0.028368
C432	C	0.999276	0.660802	0.528368
C433	C	0.471539	0.109914	0.028049
C434	C	0.971539	0.609914	0.528049
H435	H	0.388585	0.125927	0.162809
H436	H	0.888585	0.625927	0.662809
H437	H	0.436853	0.214485	0.163363
H438	H	0.936853	0.714485	0.663363
H439	H	0.507149	0.236633	0.077984
H440	H	1.007149	0.736633	0.577984
H441	H	0.529179	0.170222	-0.007952
H442	H	1.029179	0.670222	0.492048
H443	H	0.480910	0.081665	-0.008506
H444	H	0.980910	0.581665	0.491494
H445	H	0.332485	0.083979	0.075925
H446	H	0.832485	0.583979	0.575925
H447	H	0.477484	-0.468316	0.182383
H448	H	0.977484	0.031684	0.682383
H449	H	0.477488	-0.531669	0.182367
H450	H	0.977488	-0.031669	0.682367
H451	H	0.663854	-0.628451	-0.036797
H452	H	1.163854	-0.128451	0.463203
C453	C	0.467996	-0.363763	0.193452
C454	C	0.967996	0.136237	0.693452
C455	C	0.412981	-0.371126	0.192756
C456	C	0.912981	0.128874	0.692756
C457	C	0.376517	-0.341730	0.235501
C458	C	0.876517	0.158270	0.735501
C459	C	0.395067	-0.304971	0.278944
C460	C	0.895067	0.195029	0.778944
C461	C	0.450085	-0.297605	0.279643
C462	C	0.950085	0.202395	0.779643
C463	C	0.486549	-0.327001	0.236897
C464	C	0.986549	0.172999	0.736897
H465	H	0.399246	-0.398340	0.160595
H466	H	0.899246	0.101660	0.660595
H467	H	0.335789	-0.347183	0.234984
H468	H	0.835789	0.152817	0.734984
H469	H	0.368074	-0.283210	0.310587
H470	H	0.868074	0.216790	0.810587
H471	H	0.463820	-0.270392	0.311803
H472	H	0.963820	0.229608	0.811803
H473	H	0.527277	-0.321549	0.237414
H474	H	1.027277	0.178451	0.737414
C475	C	0.048010	0.143465	0.072464
C476	C	0.548010	0.643465	0.572464
C477	C	0.035352	0.181626	0.121840
C478	C	0.535352	0.681626	0.621840
C479	C	0.063082	0.232518	0.122153
C480	C	0.563082	0.732518	0.622153
C481	C	0.103471	0.245248	0.073090
C482	C	0.603471	0.745248	0.573090
C483	C	0.116131	0.207086	0.023711
C484	C	0.616131	0.707086	0.523711
C485	C	0.088401	0.156194	0.023397
C486	C	0.588401	0.656194	0.523397
H487	H	0.005452	0.172203	0.158162
H488	H	0.505452	0.672203	0.658162
H489	H	0.053710	0.260768	0.158707
H490	H	0.553710	0.760768	0.658707
H491	H	0.123999	0.282921	0.073322
H492	H	0.623999	0.782921	0.573322
H493	H	0.146031	0.216509	-0.012612
H494	H	0.646031	0.716509	0.487388
H495	H	0.097773	0.127944	-0.013157
H496	H	0.597773	0.627944	0.486843
C497	C	0.665352	0.000077	-0.231421
C498	C	1.165352	0.500077	0.268579
C499	C	0.701793	0.044151	-0.229187
C500	C	1.201793	0.544151	0.270813
C501	C	0.749944	0.044161	-0.269743
C502	C	1.249944	0.544161	0.230257
C503	C	0.761654	0.000097	-0.312534
C504	C	1.261654	0.500097	0.187466
C505	C	0.725212	-0.043980	-0.314769
C506	C	1.225212	0.456020	0.185231
C507	C	0.677061	-0.043990	-0.274213
C508	C	1.177061	0.456010	0.225787
H509	H	0.693126	0.076773	-0.197509
H510	H	1.193126	0.576773	0.302491
H511	H	0.776921	0.076790	-0.268088
H512	H	1.276921	0.576790	0.231912
H513	H	0.797298	0.000105	-0.342556
H514	H	1.297298	0.500105	0.157444
H515	H	0.733879	-0.076601	-0.346447
H516	H	1.233879	0.423399	0.153553
H517	H	0.650084	-0.076619	-0.275868
H518	H	1.150084	0.423381	0.224132
C519	C	0.475963	0.000033	-0.623002
C520	C	0.975963	0.500033	-0.123002
C521	C	0.439513	-0.044033	-0.625236
C522	C	0.939513	0.455967	-0.125236
C523	C	0.391363	-0.044034	-0.584679
C524	C	0.891363	0.455966	-0.084679
C525	C	0.379662	0.000031	-0.541888
C526	C	0.879662	0.500031	-0.041888
C527	C	0.416112	0.044100	-0.539652
C528	C	0.916112	0.544100	-0.039652
C529	C	0.464262	0.044101	-0.580209
C530	C	0.964262	0.544101	-0.080209
H531	H	0.448174	-0.076656	-0.656914
H532	H	0.948174	0.423344	-0.156914
H533	H	0.364380	-0.076658	-0.586334
H534	H	0.864380	0.423342	-0.086334
H535	H	0.344018	0.000030	-0.511865
H536	H	0.844018	0.500030	-0.011865
H537	H	0.407451	0.076723	-0.507974
H538	H	0.907451	0.576723	-0.007974
H539	H	0.491245	0.076725	-0.578554
H540	H	0.991245	0.576725	-0.078554
C541	C	0.501136	-0.769817	0.154624
C542	C	1.001136	-0.269817	0.654624
C543	C	0.464242	-0.733101	0.132745
C544	C	0.964242	-0.233101	0.632745
C545	C	0.427812	-0.703879	0.175701
C546	C	0.927812	-0.203879	0.675701
C547	C	0.428276	-0.711373	0.240536
C548	C	0.928276	-0.211373	0.740536
C549	C	0.465171	-0.748090	0.262418
C550	C	0.965171	-0.248090	0.762418
C551	C	0.501601	-0.777312	0.219462
C552	C	1.001601	-0.277312	0.719462
H553	H	0.463897	-0.727552	0.084747
H554	H	0.963897	-0.227552	0.584747
H555	H	0.400500	-0.676698	0.159502
H556	H	0.900500	-0.176698	0.659502
H557	H	0.401309	-0.689741	0.272335
H558	H	0.901309	-0.189741	0.772335
H559	H	0.465516	-0.753639	0.310416
H560	H	0.965516	-0.253639	0.810416
H561	H	0.528913	-0.804493	0.235661
H562	H	1.028913	-0.304493	0.735661
H563	H	0.446080	0.000014	-0.460869
H564	H	0.946080	0.500014	0.039131
C565	C	0.673308	-0.475829	-0.047924
C566	C	1.173308	0.024171	0.452076
C567	C	0.672909	-0.468455	-0.112787
C568	C	1.172909	0.031545	0.387213
C569	C	0.709332	-0.497799	-0.155632
C570	C	1.209332	0.002201	0.344368
C571	C	0.746155	-0.534516	-0.133615
C572	C	1.246155	-0.034516	0.366385
C573	C	0.746556	-0.541892	-0.068749
C574	C	1.246556	-0.041892	0.431251
C575	C	0.710132	-0.512548	-0.025904
C576	C	1.210132	-0.012548	0.474096
H577	H	0.645649	-0.441274	-0.129088
H578	H	1.145649	0.058726	0.370912
H579	H	0.709036	-0.492339	-0.203650
H580	H	1.209036	0.007661	0.296350
H581	H	0.773118	-0.556238	-0.165331
H582	H	1.273118	-0.056238	0.334669
H583	H	0.773815	-0.569074	-0.052447
H584	H	1.273815	-0.069074	0.447553
H585	H	0.710429	-0.518008	0.022114
H586	H	1.210429	-0.018008	0.522114
C587	C	0.706644	0.000069	-0.511824
C588	C	1.206644	0.500069	-0.011824
C589	C	0.743084	0.044142	-0.509583
C590	C	1.243084	0.544142	-0.009583
C591	C	0.791237	0.044155	-0.550136
C592	C	1.291237	0.544155	-0.050136
C593	C	0.802949	0.000095	-0.592930
C594	C	1.302949	0.500095	-0.092930
C595	C	0.766508	-0.043982	-0.595173
C596	C	1.266508	0.456018	-0.095173
C597	C	0.718355	-0.043995	-0.554620
C598	C	1.218355	0.456005	-0.054620
H599	H	0.734415	0.076761	-0.477902
H600	H	1.234415	0.576761	0.022098
H601	H	0.818213	0.076784	-0.548475
H602	H	1.318213	0.576784	-0.048475
H603	H	0.838595	0.000104	-0.622950
H604	H	1.338595	0.500104	-0.122950
H605	H	0.775177	-0.076601	-0.626854
H606	H	1.275177	0.423399	-0.126854
H607	H	0.691379	-0.076624	-0.556281
H608	H	1.191379	0.423376	-0.056281
H609	H	0.648387	0.000056	-0.659589
H610	H	1.148387	0.500056	-0.159589
H611	H	0.663842	-0.371312	-0.036791
H612	H	1.163842	0.128688	0.463209
H613	H	0.447179	0.000017	-0.353123
H614	H	0.947179	0.500017	0.146877
C615	C	0.431093	-0.097098	0.077151
C616	C	0.931093	0.402902	0.577151
C617	C	0.471482	-0.109807	0.028096
C618	C	0.971482	0.390193	0.528096
C619	C	0.499205	-0.160687	0.028437
C620	C	0.999205	0.339313	0.528437
C621	C	0.486539	-0.198859	0.077832
C622	C	0.986539	0.301141	0.577832
C623	C	0.446149	-0.186151	0.126890
C624	C	0.946149	0.313849	0.626890
C625	C	0.418426	-0.135271	0.126549
C626	C	0.918426	0.364729	0.626549
H627	H	0.480860	-0.081549	-0.008472
H628	H	0.980860	0.418451	0.491528
H629	H	0.529105	-0.170093	-0.007879
H630	H	1.029105	0.329907	0.492121
H631	H	0.507062	-0.236523	0.078084
H632	H	1.007062	0.263477	0.578084
H633	H	0.436771	-0.214409	0.163458
H634	H	0.936771	0.285591	0.663458
H635	H	0.388526	-0.125865	0.162865
H636	H	0.888526	0.374135	0.662865
C637	C	0.480250	0.000047	-0.201286
C638	C	0.980250	0.500047	0.298714
C639	C	0.467716	0.044099	-0.240172
C640	C	0.967716	0.544099	0.259828
C641	C	0.418907	0.044077	-0.264947
C642	C	0.918907	0.544077	0.235053
C643	C	0.382633	0.000003	-0.250835
C644	C	0.882633	0.500003	0.249165
C645	C	0.395167	-0.044052	-0.211946
C646	C	0.895167	0.455948	0.288054
C647	C	0.443976	-0.044030	-0.187172
C648	C	0.943976	0.455970	0.312828
H649	H	0.494569	0.076729	-0.250621
H650	H	0.994569	0.576729	0.249379
H651	H	0.409629	0.076690	-0.293735
H652	H	0.909629	0.576690	0.206265
H653	H	0.346503	-0.000013	-0.269174
H654	H	0.846503	0.499987	0.230826
H655	H	0.368314	-0.076681	-0.201498
H656	H	0.868314	0.423319	0.298502
H657	H	0.453254	-0.076643	-0.158384
H658	H	0.953254	0.423357	0.341616
C659	C	0.199242	0.143462	0.074291
C660	C	0.699242	0.643462	0.574291
C661	C	0.228174	0.156202	0.124172
C662	C	0.728174	0.656202	0.624172
C663	C	0.255897	0.207098	0.124480
C664	C	0.755897	0.707098	0.624480
C665	C	0.254689	0.245254	0.074908
C666	C	0.754689	0.745254	0.574908
C667	C	0.225756	0.232515	0.025023
C668	C	0.725756	0.732515	0.525023
C669	C	0.198033	0.181619	0.024715
C670	C	0.698033	0.681619	0.524715
H671	H	0.229069	0.127956	0.160873
H672	H	0.729069	0.627956	0.660873
H673	H	0.277315	0.216529	0.161409
H674	H	0.777315	0.716529	0.661409
H675	H	0.275212	0.282931	0.075136
H676	H	0.775212	0.782931	0.575136
H677	H	0.224861	0.260761	-0.011677
H678	H	0.724861	0.760761	0.488323
H679	H	0.176615	0.172189	-0.012213
H680	H	0.676615	0.672189	0.487787
C681	C	-0.183913	0.097214	0.069695
C682	C	0.316087	0.597214	0.569695
C683	C	-0.154980	0.109933	0.119581
C684	C	0.345020	0.609933	0.619581
C685	C	-0.127243	0.160820	0.119903
C686	C	0.372757	0.660820	0.619903
C687	C	-0.128439	0.198988	0.070340
C688	C	0.371561	0.698988	0.570340
C689	C	-0.157373	0.186270	0.020450
C690	C	0.342627	0.686270	0.520450
C691	C	-0.185110	0.135383	0.020128
C692	C	0.314890	0.635383	0.520128
H693	H	-0.154093	0.081678	0.156274
H694	H	0.345907	0.581678	0.656274
H695	H	-0.105824	0.170235	0.156835
H696	H	0.394176	0.670235	0.656835
H697	H	-0.107907	0.236658	0.070578
H698	H	0.392093	0.736658	0.570578
H699	H	-0.158260	0.214525	-0.016243
H700	H	0.341740	0.714525	0.483757
H701	H	-0.206529	0.125969	-0.016804
H702	H	0.293471	0.625969	0.483196
C703	C	-0.289785	0.097216	0.068414
C704	C	0.210215	0.597216	0.568414
C705	C	-0.330175	0.109935	0.117463
C706	C	0.169825	0.609935	0.617463
C707	C	-0.357893	0.160817	0.117110
C708	C	0.142107	0.660817	0.617110
C709	C	-0.345223	0.198980	0.067707
C710	C	0.154777	0.698980	0.567707
C711	C	-0.304832	0.186262	0.018653
C712	C	0.195168	0.686262	0.518653
C713	C	-0.277113	0.135380	0.019007
C714	C	0.222887	0.635380	0.519007
H715	H	-0.339556	0.081684	0.154038
H716	H	0.160444	0.581684	0.654038
H717	H	-0.387794	0.170231	0.153422
H718	H	0.112206	0.670231	0.653422
H719	H	-0.365742	0.236645	0.067445
H720	H	0.134258	0.736645	0.567445
H721	H	-0.295451	0.214513	-0.017921
H722	H	0.204549	0.714513	0.482079
H723	H	-0.247213	0.125965	-0.017306
H724	H	0.252787	0.625965	0.482694
H725	H	0.630749	-0.874186	0.002119
H726	H	1.130749	-0.374186	0.502119
H727	H	0.695232	0.000072	-0.393544
H728	H	1.195232	0.500072	0.106456
H729	H	0.510567	-0.222609	0.143442
H730	H	1.010567	0.277391	0.643442
H731	H	0.510566	-0.125702	0.143446
H732	H	1.010566	0.374298	0.643446
C733	C	-0.289834	-0.097072	0.068460
C734	C	0.210166	0.402928	0.568460
C735	C	-0.318765	-0.109790	0.018572
C736	C	0.181235	0.390210	0.518572
C737	C	-0.346500	-0.160678	0.018246
C738	C	0.153500	0.339322	0.518246
C739	C	-0.345303	-0.198848	0.067808
C740	C	0.154697	0.301152	0.567808
C741	C	-0.316371	-0.186130	0.117700
C742	C	0.183629	0.313870	0.617700
C743	C	-0.288636	-0.135242	0.118025
C744	C	0.211364	0.364758	0.618025
H745	H	-0.319652	-0.081534	-0.018120
H746	H	0.180348	0.418466	0.481880
H747	H	-0.367918	-0.170092	-0.018687
H748	H	0.132082	0.329908	0.481313
H749	H	-0.365834	-0.236518	0.067567
H750	H	0.134166	0.263482	0.567567
H751	H	-0.315484	-0.214387	0.154392
H752	H	0.184516	0.285613	0.654392
H753	H	-0.267218	-0.125828	0.154958
H754	H	0.232782	0.374172	0.654958
H755	H	-0.191174	-0.083860	0.069637
H756	H	0.308826	0.416140	0.569637
H757	H	-0.050658	0.130243	0.071285
H758	H	0.449342	0.630243	0.571285
H759	H	0.100528	-0.130128	0.073146
H760	H	0.600528	0.369872	0.573146
H761	H	0.630711	-0.125628	0.002155
H762	H	1.130711	0.374372	0.502155
H763	H	0.663853	-0.531547	-0.036797
H764	H	1.163853	-0.031547	0.463203
H765	H	0.510598	-0.874253	0.143403
H766	H	1.010598	-0.374253	0.643403
H767	H	0.477490	-0.628560	0.182363
H768	H	0.977490	-0.128560	0.682363
