data_functionalizedCrystal
_audit_creation_method	'MofGen! by Chris Wilmer'
_symmetry_space_group_name_H-M	'P1'
_symmetry_Int_Tables_number	1
_symmetry_cell_setting	triclinic
loop_
_symmetry_equiv_pos_as_xyz
  x,y,z
_cell_length_a	16.120484
_cell_length_b	19.805407
_cell_length_c	19.805399
_cell_angle_alpha	89.982197
_cell_angle_beta	92.871043
_cell_angle_gamma	92.922838
loop_
_atom_site_label
_atom_site_type_symbol
_atom_site_fract_x
_atom_site_fract_y
_atom_site_fract_z
Zn1	Zn	-0.331986	1.021073	-0.396348
Zn2	Zn	-0.471404	1.015250	-0.288896
Zn3	Zn	-0.332003	0.907887	-0.283177
Zn4	Zn	-0.471354	0.902115	-0.402044
O5	O	-0.401687	0.961581	-0.342616
O6	O	-0.350495	1.115016	-0.382104
O7	O	-0.452941	1.000986	-0.193422
O8	O	-0.215335	0.927753	-0.293411
O9	O	-0.452925	1.110738	-0.303160
O10	O	-0.215323	1.010911	-0.376558
O11	O	-0.350523	0.922107	-0.189220
O12	O	-0.350474	0.812405	-0.298935
O13	O	-0.452838	0.917917	-0.496004
O14	O	-0.452854	0.808165	-0.386267
O15	O	-0.350446	1.005314	-0.491819
O16	O	-0.588064	0.995390	-0.308683
O17	O	-0.588026	0.912271	-0.391813
C18	C	-0.401661	0.785726	-0.342599
C19	C	-0.401670	0.710494	-0.342608
C20	C	-0.348429	0.677374	-0.383784
C21	C	-0.348433	0.606685	-0.383787
C22	C	-0.401683	0.569118	-0.342617
C23	C	-0.454926	0.602242	-0.301436
C24	C	-0.454917	0.672930	-0.301430
C25	C	-0.454964	0.317168	-0.301459
C26	C	-0.454971	0.246475	-0.301469
C27	C	-0.348480	0.250923	-0.383815
C28	C	-0.348471	0.321611	-0.383809
C29	C	-0.401710	0.354729	-0.342626
C30	C	-0.401704	0.431378	-0.342623
C31	C	-0.401695	0.492470	-0.342624
C32	C	-0.618295	0.952591	-0.351502
C33	C	-0.710961	0.948806	-0.355325
C34	C	-0.880622	0.941901	-0.362321
C35	C	-0.921911	0.981383	-0.322923
C36	C	-1.016316	0.977541	-0.326815
C37	C	-0.786208	0.945742	-0.358429
C38	C	-0.184233	0.970625	-0.333711
C39	C	-0.091567	0.974479	-0.329916
C40	C	-0.401634	0.961621	-0.519157
C41	C	-0.401612	0.961638	-0.594388
C42	C	-0.401714	1.138123	-0.342634
C43	C	-0.401725	1.213354	-0.342642
C44	C	-0.348294	1.007147	-0.627554
C45	C	-0.348269	1.007155	-0.698241
C46	C	-0.401568	0.961657	-0.735762
C47	C	-0.454889	0.916143	-0.702591
C48	C	-0.454909	0.916133	-0.631905
C49	C	-0.454811	0.916185	-0.987661
C50	C	-0.454790	0.916200	-1.058353
C51	C	-0.348172	1.007207	-1.053998
C52	C	-0.348192	1.007197	-0.983312
C53	C	-0.401509	0.961681	-0.950147
C54	C	-0.401533	0.961672	-0.873500
C55	C	-0.401549	0.961669	-0.812408
C56	C	-0.401679	0.961583	-0.166760
C57	C	-0.401467	0.961706	-0.091520
H58	H	-0.498316	0.344124	-0.267925
H59	H	-0.498280	0.571649	-0.267911
H60	H	-0.498271	0.699895	-0.267900
H61	H	-0.304793	1.044248	-0.952766
O62	O	-0.879375	1.025088	-0.279207
C63	C	-0.793219	1.019248	-0.285008
H64	H	-0.781467	0.967472	-0.306660
H65	H	-0.760093	1.025182	-0.232972
H66	H	-0.768428	1.060367	-0.320079
O67	O	-0.922936	0.898042	-0.406005
C68	C	-0.901834	0.831433	-0.390282
H69	H	-0.838605	0.832569	-0.361709
H70	H	-0.898960	0.801164	-0.438984
H71	H	-0.950872	0.806705	-0.357440
H72	H	-0.304894	1.044199	-0.597010
O73	O	-0.296452	1.051430	-0.730353
C74	C	-0.249404	1.091578	-0.682079
H75	H	-0.283569	1.092491	-0.633090
H76	H	-0.240518	1.145279	-0.702147
H77	H	-0.186082	1.069429	-0.671962
O78	O	-0.296632	0.574484	-0.423689
C79	C	-0.242737	0.535800	-0.383023
H80	H	-0.237488	0.557300	-0.329505
H81	H	-0.178621	0.537660	-0.404965
H82	H	-0.268518	0.481159	-0.381714
H83	H	-0.304756	1.044266	-1.081009
H84	H	-0.498194	0.879147	-1.088900
O85	O	-0.506719	0.872032	-0.955493
C86	C	-0.589810	0.883350	-0.976183
H87	H	-0.594036	0.937254	-0.995780
H88	H	-0.631012	0.875777	-0.931386
H89	H	-0.611572	0.846170	-1.018111
O90	O	-0.506636	0.872009	-0.739140
C91	C	-0.495174	0.881765	-0.808641
H92	H	-0.467877	0.935137	-0.817187
H93	H	-0.557613	0.874579	-0.838061
H94	H	-0.450763	0.843469	-0.826877
H95	H	-0.498318	0.879068	-0.604902
H96	H	-0.305112	0.352195	-0.417337
O97	O	-0.296744	0.713789	-0.423874
C98	C	-0.315089	0.695794	-0.492064
H99	H	-0.347146	0.643143	-0.494742
H100	H	-0.254970	0.695877	-0.520028
H101	H	-0.357984	0.733810	-0.516561
O102	O	-0.296871	0.218671	-0.423854
C103	C	-0.344413	0.175843	-0.469471
H104	H	-0.407554	0.162626	-0.448103
H105	H	-0.310473	0.127546	-0.477200
H106	H	-0.353656	0.202722	-0.519994
H107	H	-0.498336	0.215889	-0.267941
