data_functionalizedCrystal
_audit_creation_method	'MofGen! by Chris Wilmer'
_symmetry_space_group_name_H-M	'P1'
_symmetry_Int_Tables_number	1
_symmetry_cell_setting	triclinic
loop_
_symmetry_equiv_pos_as_xyz
  x,y,z
_cell_length_a	8.597187
_cell_length_b	15.538191
_cell_length_c	7.681481
_cell_angle_alpha	93.455755
_cell_angle_beta	91.833072
_cell_angle_gamma	66.484793
loop_
_atom_site_label
_atom_site_type_symbol
_atom_site_fract_x
_atom_site_fract_y
_atom_site_fract_z
O1	O	1.943086	0.166199	0.441194
O2	O	1.489348	0.172819	0.372359
O3	O	1.804539	0.034010	0.420184
O4	O	1.627894	0.305008	0.393369
O5	O	1.843357	0.016885	0.133216
O6	O	1.528165	0.155694	0.085391
O7	O	1.981903	0.149074	0.154226
Zn8	Zn	1.761197	0.149665	0.074246
Zn9	Zn	1.710054	0.172228	0.452339
O10	O	1.666711	0.287883	0.106401
C11	C	1.452103	0.162591	0.220281
C12	C	1.283301	0.157618	0.194674
C13	C	1.842429	-0.009307	0.279509
C14	C	1.897479	-0.112863	0.287878
C15	C	1.350558	-0.410749	0.204870
C16	C	1.402327	-0.508060	0.212719
C17	C	1.693511	-0.525129	0.256894
C18	C	1.641765	-0.427818	0.249057
C19	C	1.470287	-0.370635	0.223042
C20	C	1.761494	-0.387703	0.267229
C21	C	1.709753	-0.290401	0.259383
C22	C	1.538284	-0.233212	0.233365
C23	C	1.418547	-0.273332	0.215196
C24	C	1.932973	-0.444888	0.293231
C25	C	2.052702	-0.404774	0.311404
C26	C	2.000960	-0.307469	0.303570
C27	C	1.829491	-0.250280	0.277552
C28	C	2.120698	-0.267349	0.321739
C29	C	2.068957	-0.170046	0.313893
C30	C	1.777750	-0.152978	0.269706
C31	C	2.019147	0.159302	0.306308
C32	C	2.187947	0.164276	0.331927
C33	C	1.628821	0.331200	0.247079
C34	C	1.573770	0.434757	0.238722
N35	N	1.796113	0.134266	-0.183790
N36	N	1.675154	0.187620	0.710378
H37	H	1.638114	-0.106415	0.248535
Cl38	Cl	1.473236	-0.110888	0.223484
Cl39	Cl	1.251791	-0.558486	0.189860
Cl40	Cl	1.484519	0.271701	-0.202452
H41	H	1.975092	-0.524117	0.299634
H42	H	2.260317	-0.313922	0.342903
Cl43	Cl	1.209955	0.142959	-0.016990
H44	H	1.833129	-0.571701	0.278068
Cl45	Cl	2.219479	-0.119614	0.336706
Cl46	Cl	1.134979	-0.338854	0.172183
H47	H	1.235456	0.173781	0.469024
Cl48	Cl	2.268268	-0.476669	0.344093
Cl49	Cl	1.202967	-0.201437	0.182509
Cl50	Cl	1.986768	0.050191	-0.270964
