data_functionalizedCrystal
_audit_creation_method	'MofGen! by Chris Wilmer'
_symmetry_space_group_name_H-M	'P1'
_symmetry_Int_Tables_number	1
_symmetry_cell_setting	triclinic
loop_
_symmetry_equiv_pos_as_xyz
  x,y,z
_cell_length_a	16.109301
_cell_length_b	17.699083
_cell_length_c	15.186229
_cell_angle_alpha	89.995368
_cell_angle_beta	89.999362
_cell_angle_gamma	83.372248
loop_
_atom_site_label
_atom_site_type_symbol
_atom_site_fract_x
_atom_site_fract_y
_atom_site_fract_z
O1	O	1.102963	0.097285	-0.073175
O2	O	1.436296	0.430618	0.260159
O3	O	1.769630	0.763951	0.593492
O4	O	0.860880	0.109391	-0.073189
O5	O	1.194214	0.442725	0.260144
O6	O	1.527547	0.776058	0.593478
O7	O	0.988761	-0.006841	-0.073174
O8	O	1.322094	0.326492	0.260160
O9	O	1.655428	0.659825	0.593493
O10	O	0.975082	0.213517	-0.073190
O11	O	1.308416	0.546851	0.260143
O12	O	1.641749	0.880184	0.593477
O13	O	0.988753	-0.006843	0.073284
O14	O	1.322086	0.326490	0.406617
O15	O	1.655419	0.659824	0.739950
O16	O	0.860872	0.109390	0.073268
O17	O	1.194205	0.442723	0.406602
O18	O	1.527538	0.776056	0.739935
O19	O	1.102955	0.097283	0.073283
O20	O	1.436288	0.430616	0.406616
O21	O	1.769621	0.763950	0.739949
Zn22	Zn	0.981912	0.103336	0.096529
Zn23	Zn	1.315245	0.436669	0.429862
Zn24	Zn	1.648578	0.770003	0.763195
Zn25	Zn	0.981923	0.103338	-0.096435
Zn26	Zn	1.315256	0.436672	0.236898
Zn27	Zn	1.648590	0.770005	0.570232
O28	O	0.975074	0.213516	0.073267
O29	O	1.308407	0.546849	0.406601
O30	O	1.641740	0.880182	0.739934
C31	C	0.829902	0.108900	0.000038
C32	C	1.163235	0.442234	0.333371
C33	C	1.496569	0.775567	0.666705
C34	C	0.737609	0.107430	0.000033
C35	C	1.070943	0.440763	0.333366
C36	C	1.404276	0.774097	0.666700
C37	C	0.515224	0.172981	0.000038
C38	C	0.848557	0.506315	0.333372
C39	C	1.181891	0.839648	0.666705
C40	C	0.428506	0.171594	0.000044
C41	C	0.761839	0.504927	0.333377
C42	C	1.095173	0.838261	0.666711
C43	C	0.448618	0.033688	0.000050
C44	C	0.781951	0.367021	0.333384
C45	C	1.115284	0.700354	0.666717
C46	C	0.535334	0.035076	0.000051
C47	C	0.868667	0.368409	0.333384
C48	C	1.202001	0.701743	0.666718
C49	C	0.568635	0.104725	0.000040
C50	C	0.901968	0.438058	0.333374
C51	C	1.235301	0.771392	0.666707
C52	C	0.395200	0.101949	0.000046
C53	C	0.728534	0.435283	0.333379
C54	C	1.061867	0.768616	0.666712
C55	C	0.301177	0.100445	0.000052
C56	C	0.634510	0.433778	0.333385
C57	C	0.967843	0.767111	0.666719
C58	C	0.662664	0.106230	0.000036
C59	C	0.995997	0.439564	0.333369
C60	C	1.329331	0.772897	0.666702
C61	C	0.988267	-0.035040	0.000055
C62	C	1.321600	0.298293	0.333388
C63	C	1.654933	0.631627	0.666722
C64	C	0.986796	-0.119060	0.000055
C65	C	1.320130	0.214273	0.333389
C66	C	1.653463	0.547607	0.666722
C67	C	1.061860	-0.167574	0.000061
C68	C	1.395193	0.165759	0.333394
C69	C	1.728526	0.499093	0.666728
C70	C	1.060473	-0.246519	0.000053
C71	C	1.393806	0.086814	0.333387
C72	C	1.727140	0.420147	0.666720
C73	C	0.984022	-0.276949	0.000046
C74	C	1.317356	0.056384	0.333379
C75	C	1.650689	0.389717	0.666713
C76	C	0.908953	-0.228429	0.000038
C77	C	1.242286	0.104904	0.333371
C78	C	1.575620	0.438238	0.666704
C79	C	0.910341	-0.149485	0.000039
C80	C	1.243674	0.183848	0.333373
C81	C	1.577007	0.517181	0.666706
C82	C	0.903356	-0.546800	0.000030
C83	C	1.236689	-0.213467	0.333364
C84	C	1.570023	0.119866	0.666697
C85	C	0.901974	-0.625750	0.000031
C86	C	1.235308	-0.292417	0.333365
C87	C	1.568641	0.040917	0.666698
C88	C	1.053488	-0.643834	0.000044
C89	C	1.386822	-0.310501	0.333377
C90	C	1.720155	0.022833	0.666711
C91	C	1.054876	-0.564890	0.000046
C92	C	1.388209	-0.231557	0.333379
C93	C	1.721543	0.101776	0.666712
C94	C	0.979807	-0.516377	0.000033
C95	C	1.313141	-0.183044	0.333366
C96	C	1.646474	0.150289	0.666699
C97	C	0.981312	-0.430776	0.000040
C98	C	1.314645	-0.097443	0.333373
C99	C	1.647978	0.235891	0.666706
C100	C	0.982517	-0.362549	0.000045
C101	C	1.315850	-0.029216	0.333379
C102	C	1.649184	0.304118	0.666712
C103	C	1.133933	0.097774	0.000054
C104	C	1.467266	0.431107	0.333387
C105	C	1.800600	0.764441	0.666720
C106	C	1.226226	0.099244	0.000053
C107	C	1.559559	0.432578	0.333387
C108	C	1.892892	0.765911	0.666720
C109	C	0.975568	0.241714	0.000037
C110	C	1.308901	0.575048	0.333370
C111	C	1.642235	0.908381	0.666703
C112	C	0.977039	0.325734	0.000031
C113	C	1.310372	0.659068	0.333364
C114	C	1.643705	0.992401	0.666697
N115	N	0.981910	0.103334	0.228221
N116	N	1.315244	0.436667	0.561555
N117	N	1.648577	0.770001	0.894888
N118	N	0.981931	0.103334	-0.228128
N119	N	1.315265	0.436668	0.105206
N120	N	1.648598	0.770001	0.438539
C121	C	1.038555	0.051884	0.453951
C122	C	1.371888	0.385217	0.787284
C123	C	1.705222	0.718550	1.120618
C124	C	1.038558	0.051882	0.546141
C125	C	1.371891	0.385215	0.879474
C126	C	1.705224	0.718548	1.212807
C127	C	0.925280	0.154787	0.546136
C128	C	1.258614	0.488121	0.879470
C129	C	1.591947	0.821454	1.212803
C130	C	0.925274	0.154785	0.453948
C131	C	1.258608	0.488118	0.787282
C132	C	1.591941	0.821451	1.120615
C133	C	0.981916	0.103334	0.407858
C134	C	1.315250	0.436667	0.741191
C135	C	1.648583	0.770001	1.074525
C136	C	0.981925	0.103334	0.592236
C137	C	1.315258	0.436668	0.925569
C138	C	1.648592	0.770001	1.258902
C139	C	0.981927	0.103333	0.692192
C140	C	1.315261	0.436666	1.025525
C141	C	1.648594	0.770000	1.358858
C142	C	0.981913	0.103334	0.307896
C143	C	1.315247	0.436668	0.641229
C144	C	1.648580	0.770001	0.974562
H145	H	0.542334	0.229694	0.000036
H146	H	0.875667	0.563028	0.333369
H147	H	1.209001	0.896361	0.666703
H148	H	0.839715	-0.650523	0.000027
H149	H	1.173049	-0.317189	0.333360
H150	H	1.506382	0.016144	0.666694
Cl151	Cl	0.808983	-0.485823	0.000012
Cl152	Cl	1.142317	-0.152489	0.333345
Cl153	Cl	1.475650	0.180844	0.666678
H154	H	1.084677	0.009985	0.583667
H155	H	1.418010	0.343319	0.917000
H156	H	1.751344	0.676652	1.250334
Cl157	Cl	0.854080	0.219468	0.604082
Cl158	Cl	1.187413	0.552802	0.937416
Cl159	Cl	1.520746	0.886135	1.270749
Cl160	Cl	1.154843	-0.307505	0.000063
Cl161	Cl	1.488176	0.025828	0.333396
Cl162	Cl	1.821510	0.359161	0.666730
H163	H	0.385022	0.227175	0.000044
H164	H	0.718355	0.560509	0.333377
H165	H	1.051688	0.893842	0.666711
Cl166	Cl	0.854062	0.219467	0.395997
Cl167	Cl	1.187395	0.552800	0.729330
Cl168	Cl	1.520729	0.886133	1.062664
Cl169	Cl	0.406748	-0.053866	0.000058
Cl170	Cl	0.740081	0.279467	0.333391
Cl171	Cl	1.073414	0.612800	0.666725
Cl172	Cl	0.602484	-0.050740	0.000061
Cl173	Cl	0.935818	0.282594	0.333394
Cl174	Cl	1.269151	0.615927	0.666728
Cl175	Cl	1.157975	-0.129328	0.000079
Cl176	Cl	1.491308	0.204006	0.333412
Cl177	Cl	1.824642	0.537339	0.666746
H178	H	1.117130	-0.540119	0.000056
H179	H	1.450463	-0.206786	0.333389
H180	H	1.783797	0.126548	0.666723
H181	H	0.846705	-0.253211	0.000026
H182	H	1.180039	0.080122	0.333360
H183	H	1.513372	0.413455	0.666693
H184	H	1.114613	-0.683343	0.000050
H185	H	1.447946	-0.350010	0.333383
H186	H	1.781280	-0.016677	0.666717
Cl187	Cl	0.815971	-0.088496	0.000029
Cl188	Cl	1.149304	0.244837	0.333362
Cl189	Cl	1.482638	0.578171	0.666695
H190	H	1.084675	0.009988	0.416427
H191	H	1.418009	0.343321	0.749760
H192	H	1.751342	0.676655	1.083093
