data_functionalizedCrystal
_audit_creation_method	'MofGen! by Chris Wilmer'
_symmetry_space_group_name_H-M	'P1'
_symmetry_Int_Tables_number	1
_symmetry_cell_setting	triclinic
loop_
_symmetry_equiv_pos_as_xyz
  x,y,z
_cell_length_a	13.339070
_cell_length_b	12.837942
_cell_length_c	11.804610
_cell_angle_alpha	77.958828
_cell_angle_beta	80.565951
_cell_angle_gamma	105.229117
loop_
_atom_site_label
_atom_site_type_symbol
_atom_site_fract_x
_atom_site_fract_y
_atom_site_fract_z
O1	O	-1.373204	-0.509874	-0.099065
O2	O	-1.071915	-0.439718	-0.099057
O3	O	-1.215880	-0.321974	-0.099054
O4	O	-1.229238	-0.627619	-0.099068
O5	O	-1.257056	-0.371209	0.098990
O6	O	-1.113091	-0.488954	0.098986
O7	O	-1.414380	-0.559109	0.098979
Cu8	Cu	-1.267495	-0.528527	0.117066
Cu9	Cu	-1.218800	-0.470301	-0.117144
O10	O	-1.270415	-0.676854	0.098975
C11	C	-1.053672	-0.452485	-0.000035
C12	C	-0.937965	-0.417161	-0.000032
C13	C	-1.231954	-0.306672	-0.000032
C14	C	-1.218492	-0.187723	-0.000034
C15	C	-1.432623	-0.546341	-0.000046
C16	C	-1.548327	-0.581664	-0.000057
C17	C	-0.599643	-0.691820	-0.000064
C18	C	-0.708354	-0.725011	-0.000071
C19	C	-0.765762	-0.648052	-0.000060
C20	C	-0.714449	-0.537895	-0.000045
C21	C	-0.605725	-0.504698	-0.000048
C22	C	-0.771844	-0.460930	-0.000044
C23	C	-0.720531	-0.350773	-0.000028
C24	C	-0.611818	-0.317582	-0.000030
C25	C	-0.554409	-0.394542	-0.000040
C26	C	-0.880568	-0.494127	-0.000041
C27	C	-0.886650	-0.307005	-0.000025
C28	C	-0.777939	-0.273814	-0.000018
C29	C	-1.254340	-0.692154	-0.000049
C30	C	-1.267801	-0.811102	-0.000055
N31	N	-1.301753	-0.569481	0.281796
C32	C	-1.380325	0.006694	-0.000063
C33	C	-1.367681	0.118457	-0.000064
C34	C	-1.180558	0.147570	-0.000047
C35	C	-1.193202	0.035807	-0.000046
C36	C	-1.293089	-0.034628	-0.000052
C37	C	-1.305735	-0.146395	-0.000041
C38	C	-1.118611	-0.117278	-0.000033
C39	C	-1.105967	-0.005515	-0.000035
N40	N	-1.184549	-0.429340	-0.281874
C41	C	-1.384056	-0.667824	0.344117
C42	C	-1.410001	-0.698797	0.468771
C43	C	-1.353640	-0.631435	0.531116
C44	C	-1.271330	-0.533095	0.468795
C45	C	-1.245388	-0.502114	0.344128
C46	C	-1.214972	-0.465726	0.531127
C47	C	-1.132662	-0.367386	0.468806
C48	C	-1.106724	-0.336411	0.344152
C49	C	-1.163085	-0.403772	0.281807
C50	C	-1.240914	-0.496707	0.655793
C51	C	-1.102246	-0.330998	0.655804
C52	C	-1.076301	-0.300025	0.531150
H53	H	-0.854279	-0.675082	-0.000069
O54	O	-0.722591	-0.155004	-0.000001
H55	H	-0.656428	-0.115331	-0.080723
O56	O	-1.444840	-0.740462	0.276870
H57	H	-1.506437	-0.814046	0.341144
O58	O	-1.329683	-0.602766	0.723012
H59	H	-1.310272	-0.675517	0.699110
O60	O	-0.763706	-0.843820	-0.000061
H61	H	-0.705530	-0.891763	-0.000049
H62	H	-1.056352	-0.276146	0.706565
O63	O	-1.381630	-0.664850	0.665565
H64	H	-1.406222	-0.598291	0.698417
H65	H	-1.099232	0.204939	-0.000056
O66	O	-0.998235	0.070455	-0.000029
H67	H	-0.972589	0.035912	0.080694
H68	H	-0.552889	-0.754466	-0.000083
H69	H	-1.477020	-0.778863	0.519505
O70	O	-1.134920	-0.370503	0.147354
H71	H	-1.187877	-0.433920	0.114479
H72	H	-0.922338	-0.583818	-0.000049
H73	H	-1.047579	-0.150936	-0.000015
O74	O	-1.017951	-0.230344	0.276926
H75	H	-0.983109	-0.188712	0.341216
H76	H	-1.387069	-0.203743	-0.000042
O77	O	-0.987575	-0.193930	0.463894
H78	H	-0.924762	-0.214783	0.407084
O79	O	-0.948559	-0.223992	0.000001
H80	H	-0.981469	-0.214577	-0.080708
O81	O	-0.437154	-0.358738	-0.000028
H82	H	-0.405861	-0.430762	-0.000036
H83	H	-0.570039	-0.227883	-0.000031
H84	H	-1.438717	0.152097	-0.000077
O85	O	-1.488052	-0.069285	-0.000070
H86	H	-1.546589	-0.021772	-0.000084
