data_functionalizedCrystal
_audit_creation_method	'MofGen! by Chris Wilmer'
_symmetry_space_group_name_H-M	'P1'
_symmetry_Int_Tables_number	1
_symmetry_cell_setting	triclinic
loop_
_symmetry_equiv_pos_as_xyz
  x,y,z
_cell_length_a	14.971486
_cell_length_b	15.995350
_cell_length_c	14.048226
_cell_angle_alpha	89.995798
_cell_angle_beta	89.998499
_cell_angle_gamma	83.553252
loop_
_atom_site_label
_atom_site_type_symbol
_atom_site_fract_x
_atom_site_fract_y
_atom_site_fract_z
O1	O	1.186822	0.109116	-0.079046
O2	O	1.686822	0.609116	0.420954
O3	O	0.926407	0.122183	-0.079072
O4	O	1.426407	0.622183	0.420928
O5	O	1.063733	-0.006231	-0.079057
O6	O	1.563733	0.493769	0.420943
O7	O	1.049496	0.237530	-0.079061
O8	O	1.549496	0.737530	0.420939
O9	O	1.063717	-0.006238	0.079264
O10	O	1.563717	0.493762	0.579264
O11	O	0.926391	0.122176	0.079250
O12	O	1.426391	0.622176	0.579250
O13	O	1.186806	0.109109	0.079275
O14	O	1.686806	0.609109	0.579275
Zn15	Zn	1.056596	0.115641	0.104399
Zn16	Zn	1.556596	0.615641	0.604399
Zn17	Zn	1.056617	0.115651	-0.104196
Zn18	Zn	1.556617	0.615651	0.395804
O19	O	1.049480	0.237523	0.079261
O20	O	1.549480	0.737523	0.579261
C21	C	0.893075	0.121595	0.000086
C22	C	1.393075	0.621595	0.500086
C23	C	0.793780	0.119844	0.000076
C24	C	1.293780	0.619844	0.500076
C25	C	0.736468	0.195284	0.000076
C26	C	1.236468	0.695284	0.500076
C27	C	0.643171	0.193633	0.000090
C28	C	1.143171	0.693633	0.500090
C29	C	0.607187	0.116542	0.000098
C30	C	1.107187	0.616542	0.500098
C31	C	0.664505	0.041097	0.000100
C32	C	1.164505	0.541097	0.500100
C33	C	0.757801	0.042748	0.000093
C34	C	1.257801	0.542748	0.500093
C35	C	0.470047	0.037660	0.000113
C36	C	0.970047	0.537660	0.500113
C37	C	0.376745	0.036008	0.000119
C38	C	0.876745	0.536008	0.500119
C39	C	0.355417	0.188545	0.000111
C40	C	0.855417	0.688545	0.500111
C41	C	0.448712	0.190197	0.000104
C42	C	0.948712	0.690197	0.500104
C43	C	0.506025	0.114751	0.000104
C44	C	1.006025	0.614751	0.500104
C45	C	1.063137	-0.037430	0.000101
C46	C	1.563137	0.462570	0.500101
C47	C	1.061372	-0.130382	0.000096
C48	C	1.561372	0.369618	0.500096
C49	C	1.055035	-0.468136	0.000098
C50	C	1.555035	0.031864	0.500098
C51	C	0.957234	-0.420800	-0.000266
C52	C	1.457234	0.079200	0.499734
C53	C	0.958999	-0.324108	0.000091
C54	C	1.458999	0.175892	0.500091
C55	C	1.058178	-0.300572	0.000097
C56	C	1.558178	0.199428	0.500097
C57	C	1.106408	-0.341606	0.090509
C58	C	1.606408	0.158394	0.590509
C59	C	1.103951	-0.438244	0.090584
C60	C	1.603951	0.061756	0.590584
C61	C	1.105990	-0.438591	-0.089456
C62	C	1.605990	0.061409	0.410544
C63	C	1.105967	-0.341646	-0.090651
C64	C	1.605967	0.158354	0.409349
C65	C	1.059960	-0.205873	0.000099
C66	C	1.559960	0.294127	0.500099
C67	C	1.053256	-0.562835	0.000103
C68	C	1.553256	-0.062835	0.500103
C69	C	1.220138	0.109697	0.000116
C70	C	1.720138	0.609697	0.500116
C71	C	1.319433	0.111448	0.000119
C72	C	1.819433	0.611448	0.500119
C73	C	1.050077	0.268722	0.000100
C74	C	1.550077	0.768722	0.500100
C75	C	1.051841	0.361674	0.000099
C76	C	1.551841	0.861674	0.500099
N77	N	1.056587	0.115634	0.246760
N78	N	1.556587	0.615634	0.746760
N79	N	1.056633	0.115652	-0.246557
N80	N	1.556633	0.615652	0.253443
C81	C	1.117414	0.058795	0.296584
C82	C	1.617414	0.558795	0.796584
C83	C	1.117421	0.058795	0.396242
C84	C	1.617421	0.558795	0.896242
C85	C	1.056603	0.115637	0.446073
C86	C	1.556603	0.615637	0.946073
C87	C	0.995769	0.172478	0.396242
C88	C	1.495769	0.672478	0.896242
C89	C	0.995760	0.172474	0.296586
C90	C	1.495760	0.672474	0.796586
C91	C	0.995795	0.172484	0.603956
C92	C	1.495795	0.672484	1.103956
C93	C	0.995806	0.172490	0.703619
C94	C	1.495806	0.672490	1.203619
C95	C	1.117456	0.058805	0.703612
C96	C	1.617456	0.558805	1.203612
C97	C	1.117446	0.058801	0.603956
C98	C	1.617446	0.558801	1.103956
C99	C	1.056614	0.115643	0.554132
C100	C	1.556614	0.615643	1.054132
H101	H	0.347450	-0.026766	0.000126
H102	H	0.847450	0.473234	0.500126
F103	F	0.931038	0.232971	0.449277
F104	F	1.431038	0.732971	0.949277
F105	F	0.931046	0.232981	0.550934
F106	F	1.431046	0.732981	1.050934
H107	H	1.072896	-0.313261	0.157786
H108	H	1.572896	0.186739	0.657786
F109	F	0.487007	0.272245	0.000086
F110	F	0.987007	0.772245	0.500086
F111	F	0.931016	0.232967	0.243561
F112	F	1.431016	0.732967	0.743561
F113	F	0.906226	-0.446747	0.083767
F114	F	1.406226	0.053253	0.583767
F115	F	1.182150	-0.001701	0.243559
F116	F	1.682150	0.498299	0.743559
H117	H	0.635200	-0.021672	0.000119
H118	H	1.135200	0.478328	0.500119
F119	F	1.064199	-0.465466	-0.179027
F120	F	1.564199	0.034534	0.320973
F121	F	0.294420	0.268841	0.000112
F122	F	0.794420	0.768841	0.500112
H123	H	0.516709	-0.023776	0.000115
H124	H	1.016709	0.476224	0.500115
H125	H	1.178293	-0.326211	-0.096106
H126	H	1.678293	0.173789	0.403894
H127	H	0.921086	-0.295721	-0.064720
H128	H	1.421086	0.204279	0.435280
H129	H	0.946281	0.218776	0.744187
H130	H	1.446281	0.718776	1.244187
F131	F	0.818797	-0.037545	0.000096
F132	F	1.318797	0.462455	0.500096
F133	F	1.060232	-0.305683	-0.178087
F134	F	1.560232	0.194317	0.321913
H135	H	0.918150	-0.439368	-0.065103
H136	H	1.418150	0.060632	0.434897
H137	H	1.178098	-0.470280	-0.090060
H138	H	1.678098	0.029720	0.409940
F139	F	1.182158	-0.001699	0.449269
F140	F	1.682158	0.498301	0.949269
F141	F	0.909091	-0.287736	0.084937
F142	F	1.409091	0.212264	0.584937
H143	H	0.765759	0.258060	0.000070
H144	H	1.265759	0.758060	0.500070
H145	H	1.068768	-0.456584	0.158165
H146	H	1.568768	0.043416	0.658165
F147	F	1.201647	-0.323049	0.094913
F148	F	1.701647	0.176951	0.594913
H149	H	1.175755	-0.470420	0.094691
H150	H	1.675755	0.029580	0.594691
F151	F	1.182179	-0.001691	0.550921
F152	F	1.682179	0.498309	1.050921
F153	F	1.182199	-0.001689	0.756643
F154	F	1.682199	0.498311	1.256643
H155	H	0.596511	0.255064	0.000090
H156	H	1.096511	0.755064	0.500090
