data_functionalizedCrystal
_audit_creation_method	'MofGen! by Chris Wilmer'
_symmetry_space_group_name_H-M	'P1'
_symmetry_Int_Tables_number	1
_symmetry_cell_setting	triclinic
loop_
_symmetry_equiv_pos_as_xyz
  x,y,z
_cell_length_a	33.510554
_cell_length_b	33.509711
_cell_length_c	33.506470
_cell_angle_alpha	60.004186
_cell_angle_beta	60.008358
_cell_angle_gamma	59.994760
loop_
_atom_site_label
_atom_site_type_symbol
_atom_site_fract_x
_atom_site_fract_y
_atom_site_fract_z
O1	O	0.055430	-0.583081	0.487524
O2	O	0.555430	-0.083081	0.987524
O3	O	0.020931	-0.453975	0.392819
O4	O	0.520931	0.046025	0.892819
O5	O	0.102693	-0.535652	0.392731
O6	O	0.602693	-0.035652	0.892731
O7	O	-0.026332	-0.501404	0.487613
O8	O	0.473668	-0.001404	0.987613
O9	O	0.129823	-0.508526	0.419767
O10	O	0.629823	-0.008526	0.919767
O11	O	0.048062	-0.426850	0.419856
O12	O	0.548062	0.073150	0.919856
O13	O	0.082561	-0.555956	0.514561
O14	O	0.582561	-0.055956	1.014561
Cu15	Cu	0.067789	-0.488926	0.469677
Cu16	Cu	0.567789	0.011074	0.969677
Cu17	Cu	0.035703	-0.521005	0.437703
Cu18	Cu	0.535703	-0.021005	0.937703
O19	O	0.000799	-0.474279	0.514649
O20	O	0.500799	0.025721	1.014649
N21	N	0.090357	-0.466366	0.492168
N22	N	0.590357	0.033634	0.992168
N23	N	0.013139	-0.543569	0.415212
N24	N	0.513139	-0.043569	0.915212
C25	C	0.143028	-0.279707	0.544737
C26	C	0.643028	0.220293	1.044737
C27	C	0.143165	-0.413746	0.678712
C28	C	0.643165	0.086254	1.178712
C29	C	0.143043	-0.413725	0.544739
C30	C	0.643043	0.086275	1.044739
C31	C	0.277090	-0.413694	0.544637
C32	C	0.777090	0.086306	1.044637
C33	C	0.157791	-0.323929	0.559462
C34	C	0.657791	0.176071	1.059462
C35	C	0.157869	-0.398994	0.634489
C36	C	0.657869	0.101006	1.134489
C37	C	0.232865	-0.398963	0.559407
C38	C	0.732865	0.101037	1.059407
C39	C	0.157801	-0.398982	0.559463
C40	C	0.657801	0.101018	1.059463
C41	C	0.124237	-0.223419	0.525994
C42	C	0.624237	0.276581	1.025994
C43	C	0.124262	-0.432490	0.525997
C44	C	0.624262	0.067510	1.025997
C45	C	0.176583	-0.380217	0.578205
C46	C	0.676583	0.119783	1.078205
C47	C	0.358938	-0.399566	0.501510
C48	C	0.858938	0.100434	1.001510
C49	C	0.410104	-0.416609	0.484423
C50	C	0.910104	0.083391	0.984423
C51	C	0.410135	-0.499402	0.515995
C52	C	0.910135	0.000598	1.015995
C53	C	0.358969	-0.482358	0.533084
C54	C	0.858969	0.017642	1.033084
C55	C	0.136554	-0.197822	0.475693
C56	C	0.636554	0.302178	0.975693
C57	C	0.119469	-0.146653	0.458657
C58	C	0.619469	0.353347	0.958657
C59	C	0.077755	-0.146680	0.542223
C60	C	0.577755	0.353320	1.042223
C61	C	0.094840	-0.197850	0.559260
C62	C	0.594840	0.302150	1.059260
C63	C	0.073954	-0.420144	0.538396
C64	C	0.573954	0.079856	1.038396
C65	C	0.056884	-0.437203	0.521352
C66	C	0.556884	0.062797	1.021352
C67	C	0.140427	-0.478952	0.479524
C68	C	0.640427	0.021048	0.979524
C69	C	0.157498	-0.461894	0.496561
C70	C	0.657498	0.038106	0.996561
C71	C	0.074158	-0.420182	0.760618
C72	C	0.574158	0.079818	1.260618
C73	C	0.057149	-0.437256	0.811786
C74	C	0.557149	0.062744	1.311786
C75	C	0.140732	-0.479014	0.811717
C76	C	0.640732	0.020986	1.311717
C77	C	0.157740	-0.461942	0.760547
C78	C	0.657740	0.038058	1.260547
C79	C	0.124452	-0.432525	0.734999
C80	C	0.624452	0.067475	1.234999
C81	C	0.333372	-0.432439	0.525839
C82	C	0.833372	0.067561	1.025839
C83	C	-0.020612	-0.577650	0.170305
C84	C	0.479388	-0.077650	0.670305
C85	C	-0.020943	-0.788098	0.380897
C86	C	0.479057	-0.288098	0.880897
C87	C	-0.020912	-0.577638	0.380991
C88	C	0.479088	-0.077638	0.880991
C89	C	-0.231336	-0.577418	0.380585
C90	C	0.268664	-0.077418	0.880585
C91	C	-0.129735	-0.611383	0.346870
C92	C	0.370265	-0.111383	0.846870
C93	C	-0.054722	-0.611464	0.347017
C94	C	0.445278	-0.111464	0.847017
C95	C	-0.073450	-0.630202	0.328195
C96	C	0.426550	-0.130202	0.828195
C97	C	-0.087616	-0.712029	0.371239
C98	C	0.412384	-0.212029	0.871239
C99	C	-0.070599	-0.763199	0.388315
C100	C	0.429401	-0.263199	0.888315
C101	C	0.012191	-0.763282	0.356872
C102	C	0.512191	-0.263282	0.856872
C103	C	-0.004828	-0.712113	0.339795
C104	C	0.495172	-0.212113	0.839795
C105	C	-0.155381	-0.623711	0.397158
C106	C	0.344619	-0.123711	0.897158
C107	C	-0.206547	-0.606601	0.414133
C108	C	0.293453	-0.106601	0.914133
C109	C	-0.206417	-0.564839	0.330529
C110	C	0.293583	-0.064839	0.830529
C111	C	-0.155251	-0.581949	0.313554
C112	C	0.344749	-0.081949	0.813554
C113	C	-0.067051	-0.561160	0.334643
C114	C	0.432949	-0.061160	0.834643
C115	C	-0.050026	-0.544131	0.351759
C116	C	0.449974	-0.044131	0.851759
C117	C	-0.008343	-0.627704	0.393612
C118	C	0.491657	-0.127704	0.893612
C119	C	-0.025368	-0.644736	0.376502
C120	C	0.474632	-0.144736	0.876502
C121	C	-0.066922	-0.561168	0.246303
C122	C	0.433078	-0.061168	0.746303
C123	C	-0.049794	-0.544141	0.195134
C124	C	0.450206	-0.044141	0.695134
C125	C	-0.008048	-0.627719	0.195183
C126	C	0.491952	-0.127719	0.695183
C127	C	-0.025175	-0.644745	0.246352
C128	C	0.474825	-0.144745	0.746352
C129	C	-0.054614	-0.611468	0.271911
C130	C	0.445386	-0.111468	0.771911
C131	C	-0.054732	-0.686488	0.346980
C132	C	0.445268	-0.186488	0.846980
C133	C	-0.002117	-0.558258	0.114025
C134	C	0.497883	-0.058258	0.614025
C135	C	-0.002879	-0.844379	0.399940
C136	C	0.497121	-0.344379	0.899940
C137	C	-0.002504	-0.558243	0.399473
C138	C	0.497496	-0.058243	0.899473
C139	C	-0.287615	-0.558285	0.398601
C140	C	0.212385	-0.058285	0.898601
N141	N	0.434975	-0.466279	0.491900
N142	N	0.934975	0.033721	0.991900
O143	O	0.591199	-0.470749	0.375150
O144	O	1.091199	0.029251	0.875150
O145	O	0.591395	-0.565767	0.504116
O146	O	1.091395	-0.065767	1.004116
O147	O	0.591311	-0.565550	0.422329
O148	O	1.091311	-0.065550	0.922329
O149	O	0.591283	-0.470966	0.456937
O150	O	1.091283	0.029034	0.956937
O151	O	0.510024	-0.538522	0.449509
O152	O	1.010024	-0.038522	0.949509
O153	O	0.510108	-0.538739	0.531297
O154	O	1.010108	-0.038739	1.031297
O155	O	0.509913	-0.443721	0.402330
O156	O	1.009913	0.056279	0.902330
Cu157	Cu	0.502588	-0.488762	0.469295
Cu158	Cu	1.002588	0.011238	0.969295
Cu159	Cu	0.598719	-0.520726	0.437151
Cu160	Cu	1.098719	-0.020726	0.937151
O161	O	0.509997	-0.443938	0.484117
O162	O	1.009997	0.056062	0.984117
N163	N	0.666332	-0.543209	0.414541
N164	N	1.166332	-0.043209	0.914541
N165	N	0.090323	-0.121809	0.492157
N166	N	0.590323	0.378191	0.992157
O167	O	-0.026342	0.034503	0.487582
O168	O	0.473658	0.534503	0.987582
O169	O	0.102626	0.034543	0.392540
O170	O	0.602626	0.534543	0.892540
O171	O	0.020797	0.034507	0.392812
O172	O	0.520797	0.534507	0.892812
O173	O	0.055487	0.034539	0.487310
O174	O	0.555487	0.534539	0.987310
O175	O	0.047933	-0.046785	0.419900
O176	O	0.547933	0.453215	0.919900
O177	O	0.129763	-0.046749	0.419628
O178	O	0.629763	0.453251	0.919628
O179	O	0.000794	-0.046789	0.514670
O180	O	0.500794	0.453211	1.014670
Cu181	Cu	0.067756	-0.054192	0.469623
Cu182	Cu	0.567756	0.445808	0.969623
Cu183	Cu	0.035664	0.041946	0.437588
Cu184	Cu	0.535664	0.541946	0.937588
O185	O	0.082623	-0.046753	0.514399
O186	O	0.582623	0.453247	1.014399
N187	N	0.013091	0.109564	0.415054
N188	N	0.513091	0.609564	0.915054
N189	N	0.090671	-0.466416	0.836606
N190	N	0.590671	0.033584	1.336606
O191	O	0.086120	-0.583065	0.992910
O192	O	0.586120	-0.083065	1.492910
O193	O	-0.008880	-0.454051	0.992954
O194	O	0.491120	0.045949	1.492954
O195	O	-0.008658	-0.535864	0.992931
O196	O	0.491342	-0.035864	1.492931
O197	O	0.085897	-0.501252	0.992933
O198	O	0.585897	-0.001252	1.492933
O199	O	0.018407	-0.508749	0.911642
O200	O	0.518407	-0.008749	1.411642
O201	O	0.018185	-0.426936	0.911665
O202	O	0.518185	0.073064	1.411665
O203	O	0.113185	-0.555949	0.911621
O204	O	0.613185	-0.055949	1.411621
Cu205	Cu	0.068156	-0.488967	0.904221
Cu206	Cu	0.568156	0.011033	1.404221
Cu207	Cu	0.036148	-0.521034	1.000355
Cu208	Cu	0.536148	-0.021034	1.500355
O209	O	0.112963	-0.474136	0.911644
O210	O	0.612963	0.025864	1.411644
N211	N	0.013633	-0.543590	1.067970
N212	N	0.513633	-0.043590	1.567970
C213	C	0.031262	-0.424144	0.393290
C214	C	0.531262	0.075856	0.893290
C215	C	0.132513	-0.525291	0.393180
C216	C	0.632513	-0.025291	0.893180
C217	C	0.072229	-0.585787	0.514090
C218	C	0.572229	-0.085787	1.014090
C219	C	-0.029022	-0.484640	0.514200
C220	C	0.470978	0.015360	1.014200
C221	C	0.550775	-0.565338	0.533954
C222	C	1.050775	-0.065338	1.033954
C223	C	0.550672	-0.565070	0.432670
C224	C	1.050672	-0.065070	0.932670
C225	C	0.550530	-0.444149	0.372492
C226	C	1.050530	0.055851	0.872492
C227	C	0.550635	-0.444418	0.473776
C228	C	1.050635	0.055582	0.973776
C229	C	0.132408	-0.005998	0.392963
C230	C	0.632408	0.494002	0.892963
C231	C	0.031106	-0.006142	0.393333
C232	C	0.531106	0.493858	0.893333
C233	C	-0.029021	-0.006147	0.514213
C234	C	0.470979	0.493853	1.014213
C235	C	0.072314	-0.006104	0.513878
C236	C	0.572314	0.493896	1.013878
C237	C	-0.008430	-0.424240	0.952316
C238	C	0.491570	0.075760	1.452316
C239	C	-0.008150	-0.525550	0.952271
C240	C	0.491850	-0.025550	1.452271
C241	C	0.112735	-0.585760	0.952260
C242	C	0.612735	-0.085760	1.452260
C243	C	0.112461	-0.484444	0.952286
C244	C	0.612461	0.015556	1.452286
H245	H	0.047048	-0.396226	0.739820
H246	H	0.547048	0.103774	1.239820
C247	C	0.550725	-0.404814	0.483585
C248	C	1.050725	0.095186	0.983585
C249	C	0.592515	-0.391756	0.450268
C250	C	1.092515	0.108244	0.950268
C251	C	0.592618	-0.355279	0.459293
C252	C	1.092618	0.144721	0.959293
H253	H	0.522387	-0.376992	0.479964
H254	H	1.022387	0.123008	0.979964
H255	H	0.550794	-0.416755	0.515929
H256	H	1.050794	0.083245	1.015929
H257	H	0.592441	-0.379813	0.417932
H258	H	1.092441	0.120187	0.917932
H259	H	0.620860	-0.419566	0.453883
H260	H	1.120860	0.080434	0.953883
H261	H	0.592688	-0.367220	0.491638
H262	H	1.092688	0.132780	0.991638
H263	H	0.564279	-0.327461	0.455672
H264	H	1.064279	0.172539	0.955672
H265	H	0.620974	-0.346418	0.436693
H266	H	1.120974	0.153582	0.936693
H267	H	-0.066059	-0.006159	0.544050
H268	H	0.433941	0.493841	1.044050
H269	H	0.023891	-0.387055	0.363546
H270	H	0.523891	0.112945	0.863546
H271	H	0.142166	-0.477036	0.952281
H272	H	0.642166	0.022964	1.452281
H273	H	-0.066081	-0.477343	0.543993
H274	H	0.433919	0.022657	1.043993
C275	C	0.021305	-0.006233	0.353720
C276	C	0.521305	0.493767	0.853720
C277	C	0.054610	-0.048048	0.340683
C278	C	0.554610	0.451952	0.840683
C279	C	0.045604	-0.048147	0.304188
C280	C	0.545604	0.451853	0.804188
H281	H	-0.011035	-0.006271	0.365623
H282	H	0.488965	0.493729	0.865623
H283	H	0.024952	0.022101	0.325900
H284	H	0.524952	0.522101	0.825900
H285	H	0.050958	-0.076376	0.368498
H286	H	0.550958	0.423624	0.868498
H287	H	0.086953	-0.048019	0.328772
H288	H	0.586953	0.451981	0.828772
H289	H	0.049251	-0.019813	0.276367
H290	H	0.549251	0.480187	0.776367
H291	H	0.013263	-0.048184	0.316094
H292	H	0.513263	0.451816	0.816094
H293	H	0.068202	-0.076516	0.295334
H294	H	0.568202	0.423484	0.795334
H295	H	0.016194	-0.427197	0.832639
H296	H	0.516194	0.072803	1.332639
C297	C	0.550826	-0.605171	0.583317
C298	C	1.050826	-0.105171	1.083317
C299	C	0.550842	-0.646933	0.583259
C300	C	1.050842	-0.146933	1.083259
C301	C	0.550884	-0.683635	0.628724
C302	C	1.050884	-0.183635	1.128724
H303	H	0.579179	-0.612900	0.589297
H304	H	1.079179	-0.112900	1.089297
H305	H	0.522483	-0.594012	0.608219
H306	H	1.022483	-0.094012	1.108219
H307	H	0.579183	-0.658091	0.558364
H308	H	1.079183	-0.158091	1.058364
H309	H	0.522491	-0.639220	0.577287
H310	H	1.022491	-0.139220	1.077287
H311	H	0.522541	-0.672475	0.653626
H312	H	1.022541	-0.172475	1.153626
H313	H	0.579238	-0.691359	0.634700
H314	H	1.079238	-0.191359	1.134700
H315	H	0.550891	-0.711973	0.628692
H316	H	1.050891	-0.211973	1.128692
C317	C	0.082047	-0.635282	0.553702
C318	C	0.582047	-0.135282	1.053702
C319	C	0.093427	-0.671799	0.537005
C320	C	0.593427	-0.171799	1.037005
C321	C	0.102467	-0.717399	0.573485
C322	C	0.602467	-0.217399	1.073485
H323	H	0.108718	-0.641278	0.561340
H324	H	0.608718	-0.141278	1.061340
H325	H	0.053783	-0.635448	0.582135
H326	H	0.553783	-0.135448	1.082135
H327	H	0.121688	-0.671635	0.508581
H328	H	0.621688	-0.171635	1.008581
H329	H	0.066762	-0.665819	0.529371
H330	H	0.566762	-0.165819	1.029371
H331	H	0.074203	-0.717565	0.601918
H332	H	0.574203	-0.217565	1.101918
H333	H	0.129137	-0.723390	0.581121
H334	H	0.629137	-0.223390	1.081121
H335	H	0.110185	-0.742181	0.562163
H336	H	0.610185	-0.242181	1.062163
H337	H	0.550685	-0.594783	0.425263
H338	H	1.050685	-0.094783	0.925263
C339	C	0.181963	-0.535104	0.353520
C340	C	0.681963	-0.035104	0.853520
C341	C	0.212101	-0.582797	0.371103
C342	C	0.712101	-0.082797	0.871103
C343	C	0.257659	-0.591852	0.334585
C344	C	0.757659	-0.091852	0.834585
H345	H	0.177754	-0.531468	0.325733
H346	H	0.677754	-0.031468	0.825733
H347	H	0.196639	-0.512532	0.344613
H348	H	0.696639	-0.012532	0.844613
H349	H	0.197428	-0.605362	0.380003
H350	H	0.697428	-0.105362	0.880003
H351	H	0.216325	-0.586445	0.398886
H352	H	0.716325	-0.086445	0.898886
H353	H	0.272335	-0.569281	0.325678
H354	H	0.772335	-0.069281	0.825678
H355	H	0.253444	-0.588214	0.306800
H356	H	0.753444	-0.088214	0.806800
H357	H	0.278114	-0.624211	0.346511
H358	H	0.778114	-0.124211	0.846511
H359	H	-0.038255	-0.387188	0.952329
H360	H	0.461745	0.112812	1.452329
C361	C	0.082160	-0.005997	0.553452
C362	C	0.582160	0.494003	1.053452
C363	C	0.048878	0.035826	0.566482
C364	C	0.548878	0.535826	1.066482
C365	C	0.057939	0.035943	0.602931
C366	C	0.557939	0.535943	1.102931
H367	H	0.078530	-0.034317	0.581287
H368	H	0.578530	0.465683	1.081287
H369	H	0.114514	-0.005960	0.541496
H370	H	0.614514	0.494040	1.041496
H371	H	0.016532	0.035784	0.578440
H372	H	0.516532	0.535784	1.078440
H373	H	0.052503	0.064152	0.538658
H374	H	0.552503	0.564152	1.038658
H375	H	0.090293	0.035981	0.590975
H376	H	0.590293	0.535981	1.090975
H377	H	0.054309	0.007622	0.630763
H378	H	0.554309	0.507622	1.130763
H379	H	0.035362	0.064322	0.611773
H380	H	0.535362	0.564322	1.111773
C381	C	0.550372	-0.404387	0.323111
C382	C	1.050372	0.095613	0.823111
C383	C	0.508535	-0.393190	0.314488
C384	C	1.008535	0.106810	0.814488
C385	C	0.508376	-0.356568	0.269001
C386	C	1.008376	0.143432	0.769001
H387	H	0.550327	-0.375968	0.323012
H388	H	1.050327	0.124032	0.823012
H389	H	0.578688	-0.415563	0.298201
H390	H	1.078688	0.084437	0.798201
H391	H	0.480226	-0.382013	0.339391
H392	H	0.980226	0.117987	0.839391
H393	H	0.508571	-0.421598	0.314577
H394	H	1.008571	0.078402	0.814577
H395	H	0.536691	-0.367744	0.244091
H396	H	1.036691	0.132256	0.744091
H397	H	0.508332	-0.328153	0.268906
H398	H	1.008332	0.171847	0.768906
H399	H	0.479992	-0.348970	0.263142
H400	H	0.979992	0.151030	0.763142
C401	C	0.176951	-0.510966	0.839367
C402	C	0.676951	-0.010966	1.339367
C403	C	0.224638	-0.518131	0.805980
C404	C	0.724638	-0.018131	1.305980
C405	C	0.258014	-0.547573	0.831433
C406	C	0.758014	-0.047573	1.331433
H407	H	0.172117	-0.495391	0.859332
H408	H	0.672117	0.004609	1.359332
H409	H	0.172082	-0.541658	0.859312
H410	H	0.672082	-0.041658	1.359312
H411	H	0.229504	-0.487444	0.786044
H412	H	0.729504	0.012556	1.286044
H413	H	0.229487	-0.533711	0.786015
H414	H	0.729487	-0.033711	1.286015
H415	H	0.253146	-0.578265	0.851378
H416	H	0.753146	-0.078265	1.351378
H417	H	0.253176	-0.531995	0.851397
H418	H	0.753176	-0.031995	1.351397
H419	H	0.290373	-0.552442	0.808784
H420	H	0.790373	-0.052442	1.308784
C421	C	0.181713	-0.005655	0.353131
C422	C	0.681713	0.494345	0.853131
C423	C	0.211867	-0.005534	0.370585
C424	C	0.711867	0.494466	0.870585
C425	C	0.257288	-0.005211	0.333903
C426	C	0.757288	0.494789	0.833903
H427	H	0.196514	-0.033932	0.344092
H428	H	0.696514	0.466068	0.844092
H429	H	0.177269	0.022768	0.325447
H430	H	0.677269	0.522768	0.825447
H431	H	0.216313	-0.033953	0.398260
H432	H	0.716313	0.466047	0.898260
H433	H	0.197082	0.022741	0.379620
H434	H	0.697082	0.522741	0.879620
H435	H	0.252844	0.023212	0.306219
H436	H	0.752844	0.523212	0.806219
H437	H	0.272084	-0.033488	0.324867
H438	H	0.772084	0.466512	0.824867
H439	H	0.277751	-0.005124	0.345739
H440	H	0.777751	0.494876	0.845739
C441	C	-0.047725	-0.535498	0.952300
C442	C	0.452275	-0.035498	1.452300
C443	C	-0.058835	-0.574821	0.994094
C444	C	0.441165	-0.074821	1.494094
C445	C	-0.095284	-0.584003	0.994134
C446	C	0.404716	-0.084003	1.494134
H447	H	-0.076209	-0.507286	0.952326
H448	H	0.423791	-0.007286	1.452326
H449	H	-0.036425	-0.543273	0.923953
H450	H	0.463575	-0.043273	1.423953
H451	H	-0.070136	-0.567043	1.022434
H452	H	0.429864	-0.067043	1.522434
H453	H	-0.030362	-0.603040	0.994078
H454	H	0.469638	-0.103040	1.494078
H455	H	-0.083984	-0.591778	0.965787
H456	H	0.416016	-0.091778	1.465787
H457	H	-0.123765	-0.555788	0.994158
H458	H	0.376235	-0.055788	1.494158
H459	H	-0.102823	-0.610687	1.022488
H460	H	0.397177	-0.110687	1.522488
C461	C	0.212343	-0.475411	0.732709
C462	C	0.712343	0.024589	1.232709
C463	C	0.224558	-0.500992	0.703342
C464	C	0.724558	-0.000992	1.203342
C465	C	0.274854	-0.513412	0.677698
C466	C	0.774854	-0.013412	1.177698
H467	H	0.220772	-0.446508	0.712707
H468	H	0.720772	0.053492	1.212707
H469	H	0.229748	-0.495396	0.755240
H470	H	0.729748	0.004604	1.255240
H471	H	0.207160	-0.481007	0.680814
H472	H	0.707160	0.018993	1.180814
H473	H	0.216142	-0.529900	0.723332
H474	H	0.716142	-0.029900	1.223332
H475	H	0.292259	-0.533398	0.700228
H476	H	0.792259	-0.033398	1.200228
H477	H	0.283278	-0.484508	0.657698
H478	H	0.783278	0.015492	1.157698
H479	H	0.283149	-0.530774	0.657772
H480	H	0.783149	-0.030774	1.157772
C481	C	0.037790	-0.388202	0.570324
C482	C	0.537790	0.111798	1.070324
C483	C	-0.009920	-0.381029	0.577518
C484	C	0.490080	0.118971	1.077518
C485	C	-0.043247	-0.351600	0.606924
C486	C	0.456753	0.148400	1.106924
H487	H	0.042669	-0.403790	0.601009
H488	H	0.542669	0.096210	1.101009
H489	H	0.042664	-0.357511	0.554700
H490	H	0.542664	0.142489	1.054700
H491	H	-0.014792	-0.411714	0.593143
H492	H	0.485208	0.088286	1.093143
H493	H	-0.014815	-0.365435	0.546843
H494	H	0.485185	0.134565	1.046843
H495	H	-0.038374	-0.320909	0.591300
H496	H	0.461626	0.179091	1.091300
H497	H	-0.038364	-0.367192	0.637606
H498	H	0.461636	0.132808	1.137606
H499	H	-0.075622	-0.346726	0.611805
H500	H	0.424378	0.153274	1.111805
C501	C	0.152437	-0.635203	0.952264
C502	C	0.652437	-0.135203	1.452264
C503	C	0.134919	-0.665377	0.952268
C504	C	0.634919	-0.165377	1.452268
C505	C	0.171477	-0.710928	0.952277
C506	C	0.671477	-0.210928	1.452277
H507	H	0.180224	-0.630984	0.923922
H508	H	0.680224	-0.130984	1.423922
H509	H	0.161324	-0.649859	0.980620
H510	H	0.661324	-0.149859	1.480620
H511	H	0.126039	-0.650724	0.923915
H512	H	0.626039	-0.150724	1.423915
H513	H	0.107137	-0.669610	0.980609
H514	H	0.607137	-0.169610	1.480609
H515	H	0.180364	-0.725584	0.980632
H516	H	0.680364	-0.225584	1.480632
H517	H	0.199262	-0.706704	0.923934
H518	H	0.699262	-0.206704	1.423934
H519	H	0.159595	-0.731408	0.952284
H520	H	0.659595	-0.231408	1.452284
H521	H	0.167497	-0.502899	0.455559
H522	H	0.667497	-0.002899	0.955559
C523	C	0.002269	-0.423734	0.534715
C524	C	0.502269	0.076266	1.034715
C525	C	-0.010013	-0.398137	0.492019
C526	C	0.489987	0.101863	0.992019
C527	C	-0.060320	-0.385715	0.504309
C528	C	0.439680	0.114285	1.004309
H529	H	-0.006160	-0.452637	0.552055
H530	H	0.493840	0.047363	1.052055
H531	H	-0.015098	-0.403760	0.554670
H532	H	0.484902	0.096240	1.054670
H533	H	0.007348	-0.418111	0.472072
H534	H	0.507348	0.081889	0.972072
H535	H	-0.001596	-0.369228	0.474672
H536	H	0.498404	0.130772	0.974672
H537	H	-0.077687	-0.365741	0.524264
H538	H	0.422313	0.134259	1.024264
H539	H	-0.068745	-0.414620	0.521651
H540	H	0.431255	0.085380	1.021651
H541	H	-0.068660	-0.368342	0.475343
H542	H	0.431340	0.131658	0.975343
H543	H	0.338156	-0.509129	0.552896
H544	H	0.838156	-0.009129	1.052896
C545	C	0.212132	-0.475263	0.482999
C546	C	0.712132	0.024737	0.982999
C547	C	0.233142	-0.457855	0.432097
C548	C	0.733142	0.042145	0.932097
C549	C	0.283468	-0.470165	0.419584
C550	C	0.783468	0.029835	0.919584
H551	H	0.217602	-0.460898	0.497312
H552	H	0.717602	0.039102	0.997312
H553	H	0.226550	-0.509790	0.494720
H554	H	0.726550	-0.009790	0.994720
H555	H	0.218728	-0.423335	0.420381
H556	H	0.718728	0.076665	0.920381
H557	H	0.227685	-0.472217	0.417772
H558	H	0.727685	0.027783	0.917772
H559	H	0.297887	-0.504692	0.431305
H560	H	0.797887	-0.004692	0.931305
H561	H	0.288934	-0.455800	0.433900
H562	H	0.788934	0.044200	0.933900
H563	H	0.297731	-0.458360	0.385046
H564	H	0.797731	0.041640	0.885046
C565	C	0.437838	-0.553621	0.523926
C566	C	0.937838	-0.053621	1.023926
C567	C	0.404498	-0.578765	0.548901
C568	C	0.904498	-0.078765	1.048901
C569	C	0.430002	-0.628713	0.556220
C570	C	0.930002	-0.128713	1.056220
H571	H	0.457779	-0.558426	0.493209
H572	H	0.957779	-0.058426	0.993209
H573	H	0.457810	-0.565642	0.542677
H574	H	0.957810	-0.065642	1.042677
H575	H	0.384534	-0.566748	0.530150
H576	H	0.884534	-0.066748	1.030150
H577	H	0.384556	-0.573974	0.579623
H578	H	0.884556	-0.073974	1.079623
H579	H	0.449975	-0.640735	0.574971
H580	H	0.949975	-0.140735	1.074971
H581	H	0.449942	-0.633513	0.525501
H582	H	0.949942	-0.133513	1.025501
H583	H	0.407385	-0.645780	0.573170
H584	H	0.907385	-0.145780	1.073170
C585	C	0.437839	-0.380881	0.457920
C586	C	0.937839	0.119119	0.957920
C587	C	0.425359	-0.346417	0.416049
C588	C	0.925359	0.153583	0.916049
C589	C	0.450904	-0.313502	0.391616
C590	C	0.950904	0.186498	0.891616
H591	H	0.429493	-0.364654	0.478911
H592	H	0.929493	0.135346	0.978911
H593	H	0.471982	-0.398162	0.448748
H594	H	0.971982	0.101838	0.948748
H595	H	0.391224	-0.329138	0.425222
H596	H	0.891224	0.170862	0.925222
H597	H	0.433706	-0.362630	0.395046
H598	H	0.933706	0.137370	0.895046
H599	H	0.485047	-0.330782	0.382444
H600	H	0.985047	0.169218	0.882444
H601	H	0.442556	-0.297278	0.412611
H602	H	0.942556	0.202722	0.912611
H603	H	0.442444	-0.290117	0.363202
H604	H	0.942444	0.209883	0.863202
C605	C	0.331119	-0.345359	0.493573
C606	C	0.831119	0.154641	0.993573
C607	C	0.301723	-0.327797	0.465952
C608	C	0.801723	0.172203	0.965952
C609	C	0.276097	-0.277864	0.458623
C610	C	0.776097	0.222136	0.958623
H611	H	0.311139	-0.340555	0.524288
H612	H	0.811139	0.159445	1.024288
H613	H	0.353660	-0.328201	0.476614
H614	H	0.853660	0.171799	0.976614
H615	H	0.279185	-0.344950	0.482911
H616	H	0.779185	0.155050	0.982911
H617	H	0.321691	-0.332588	0.435232
H618	H	0.821691	0.167412	0.935232
H619	H	0.298637	-0.260706	0.441664
H620	H	0.798637	0.239294	0.941664
H621	H	0.256119	-0.273065	0.489340
H622	H	0.756119	0.226935	0.989340
H623	H	0.256152	-0.265941	0.439878
H624	H	0.756152	0.234059	0.939878
H625	H	0.160490	-0.218637	0.448603
H626	H	0.660490	0.281363	0.948603
H627	H	0.053825	-0.125861	0.569312
H628	H	0.553825	0.374139	1.069312
C629	C	0.132910	-0.118946	0.404024
C630	C	0.632910	0.381054	0.904024
C631	C	0.162322	-0.152291	0.378538
C632	C	0.662322	0.347709	0.878538
C633	C	0.174717	-0.126788	0.328210
C634	C	0.674717	0.373212	0.828210
H635	H	0.103999	-0.098991	0.395595
H636	H	0.603999	0.401009	0.895595
H637	H	0.150287	-0.098985	0.395599
H638	H	0.650287	0.401015	0.895599
H639	H	0.144945	-0.172244	0.386959
H640	H	0.644945	0.327756	0.886959
H641	H	0.191239	-0.172247	0.386952
H642	H	0.691239	0.327753	0.886952
H643	H	0.192094	-0.106828	0.319785
H644	H	0.692094	0.393172	0.819785
H645	H	0.145804	-0.106834	0.319786
H646	H	0.645804	0.393166	0.819786
H647	H	0.194678	-0.149409	0.310912
H648	H	0.694678	0.350591	0.810912
H649	H	-0.090949	-0.534065	0.310634
H650	H	0.409051	-0.034065	0.810634
H651	H	-0.059824	-0.503179	0.174290
H652	H	0.440176	-0.003179	0.674290
C653	C	0.081435	-0.225551	0.613891
C654	C	0.581435	0.274449	1.113891
C655	C	0.052042	-0.192203	0.639375
C656	C	0.552042	0.307797	1.139375
C657	C	0.039688	-0.217705	0.689703
C658	C	0.539688	0.282295	1.189703
H659	H	0.064056	-0.245522	0.622358
H660	H	0.564056	0.254478	1.122358
H661	H	0.110375	-0.245495	0.622280
H662	H	0.610375	0.254505	1.122280
H663	H	0.023107	-0.172268	0.630990
H664	H	0.523107	0.327732	1.130990
H665	H	0.069411	-0.172231	0.630923
H666	H	0.569411	0.327769	1.130923
H667	H	0.068628	-0.237649	0.698092
H668	H	0.568628	0.262351	1.198092
H669	H	0.022311	-0.237675	0.698165
H670	H	0.522311	0.262325	1.198165
H671	H	0.019748	-0.195083	0.707000
H672	H	0.519748	0.304917	1.207000
H673	H	0.015913	-0.654818	0.174378
H674	H	0.515913	-0.154818	0.674378
C675	C	-0.011878	-0.699366	0.274130
C676	C	0.488122	-0.199366	0.774130
C677	C	-0.029264	-0.720396	0.261640
C678	C	0.470736	-0.220396	0.761640
C679	C	-0.017030	-0.770709	0.287223
C680	C	0.482970	-0.270709	0.787223
H681	H	0.022632	-0.713834	0.265821
H682	H	0.522632	-0.213834	0.765821
H683	H	-0.026307	-0.704762	0.308268
H684	H	0.473693	-0.204762	0.808268
H685	H	-0.014833	-0.715003	0.227509
H686	H	0.485167	-0.215003	0.727509
H687	H	-0.063773	-0.705942	0.269950
H688	H	0.436227	-0.205942	0.769950
H689	H	-0.031459	-0.776105	0.321361
H690	H	0.468541	-0.276105	0.821361
H691	H	0.017480	-0.785172	0.278912
H692	H	0.517480	-0.285172	0.778912
H693	H	-0.028828	-0.784983	0.278756
H694	H	0.471172	-0.284983	0.778756
C695	C	-0.063327	-0.489511	0.338223
C696	C	0.436673	0.010489	0.838223
C697	C	-0.045839	-0.468494	0.287328
C698	C	0.454161	0.031506	0.787328
C699	C	-0.058070	-0.418183	0.274838
C700	C	0.441930	0.081817	0.774838
H701	H	-0.097842	-0.475030	0.349883
H702	H	0.402158	0.024970	0.849883
H703	H	-0.048964	-0.484121	0.352609
H704	H	0.451036	0.015879	0.852609
H705	H	-0.060203	-0.473881	0.272947
H706	H	0.439797	0.026119	0.772947
H707	H	-0.011325	-0.482961	0.275655
H708	H	0.488675	0.017039	0.775655
H709	H	-0.043708	-0.412792	0.289224
H710	H	0.456292	0.087208	0.789224
H711	H	-0.092585	-0.403706	0.286502
H712	H	0.407415	0.096294	0.786502
H713	H	-0.046202	-0.403917	0.240306
H714	H	0.453798	0.096083	0.740306
C715	C	0.023503	-0.663907	0.425634
C716	C	0.523503	-0.163907	0.925634
C717	C	0.030645	-0.711604	0.432812
C718	C	0.530645	-0.211604	0.932812
C719	C	0.059973	-0.744968	0.462315
C720	C	0.559973	-0.244968	0.962315
H721	H	0.054207	-0.659091	0.410102
H722	H	0.554207	-0.159091	0.910102
H723	H	0.007843	-0.659005	0.456318
H724	H	0.507843	-0.159005	0.956318
H725	H	0.046306	-0.716504	0.402134
H726	H	0.546306	-0.216504	0.902134
H727	H	-0.000050	-0.716436	0.448350
H728	H	0.499950	-0.216436	0.948350
H729	H	0.044313	-0.740066	0.492999
H730	H	0.544313	-0.240066	0.992999
H731	H	0.090675	-0.740148	0.446780
H732	H	0.590675	-0.240148	0.946780
H733	H	0.064819	-0.777334	0.467193
H734	H	0.564819	-0.277334	0.967193
H735	H	-0.015331	-0.685697	0.386578
H736	H	0.484669	-0.185697	0.886578
C737	C	0.030942	-0.684443	0.313399
C738	C	0.530942	-0.184443	0.813399
C739	C	0.065462	-0.696933	0.271551
C740	C	0.565462	-0.196933	0.771551
C741	C	0.098424	-0.671459	0.247225
C742	C	0.598424	-0.171459	0.747225
H743	H	0.013725	-0.650291	0.304206
H744	H	0.513725	-0.150291	0.804206
H745	H	0.047109	-0.692851	0.334477
H746	H	0.547109	-0.192851	0.834477
H747	H	0.049296	-0.688521	0.250477
H748	H	0.549296	-0.188521	0.750477
H749	H	0.082691	-0.731081	0.280730
H750	H	0.582691	-0.231081	0.780730
H751	H	0.114592	-0.679867	0.268303
H752	H	0.614592	-0.179867	0.768303
H753	H	0.081203	-0.637308	0.238036
H754	H	0.581203	-0.137308	0.738036
H755	H	0.121852	-0.679933	0.218831
H756	H	0.621852	-0.179933	0.718831
C757	C	0.066353	-0.791195	0.349145
C758	C	0.566353	-0.291195	0.849145
C759	C	0.074216	-0.841474	0.369304
C760	C	0.574216	-0.341474	0.869304
C761	C	0.124101	-0.867202	0.362200
C762	C	0.624101	-0.367202	0.862200
H763	H	0.084285	-0.782891	0.315144
H764	H	0.584285	-0.282891	0.815144
H765	H	0.076924	-0.782851	0.364663
H766	H	0.576924	-0.282851	0.864663
H767	H	0.063650	-0.849815	0.353785
H768	H	0.563650	-0.349815	0.853785
H769	H	0.056296	-0.849793	0.403306
H770	H	0.556296	-0.349793	0.903306
H771	H	0.134673	-0.858858	0.377717
H772	H	0.634673	-0.358858	0.877717
H773	H	0.142029	-0.858894	0.328198
H774	H	0.642029	-0.358894	0.828198
H775	H	0.129442	-0.901319	0.375880
H776	H	0.629442	-0.401319	0.875880
C777	C	-0.106391	-0.790843	0.414732
C778	C	0.393609	-0.290843	0.914732
C779	C	-0.153745	-0.757449	0.417412
C780	C	0.346255	-0.257449	0.917412
C781	C	-0.186736	-0.782897	0.441780
C782	C	0.313264	-0.282897	0.941780
H783	H	-0.097921	-0.810837	0.397370
H784	H	0.402079	-0.310837	0.897370
H785	H	-0.105125	-0.810759	0.446812
H786	H	0.394875	-0.310759	0.946812
H787	H	-0.155009	-0.737541	0.385337
H788	H	0.344991	-0.237541	0.885337
H789	H	-0.162231	-0.737454	0.434777
H790	H	0.337769	-0.237454	0.934777
H791	H	-0.185469	-0.802814	0.473860
H792	H	0.314531	-0.302814	0.973860
H793	H	-0.178260	-0.802891	0.424415
H794	H	0.321740	-0.302891	0.924415
H795	H	-0.218869	-0.760244	0.443605
H796	H	0.281131	-0.260244	0.943605
H797	H	-0.090896	-0.534066	0.267110
H798	H	0.409104	-0.034066	0.767110
H799	H	-0.134607	-0.647683	0.424287
H800	H	0.365393	-0.147683	0.924287
C801	C	-0.234308	-0.620063	0.468754
C802	C	0.265692	-0.120063	0.968754
C803	C	-0.201010	-0.649514	0.494297
C804	C	0.298990	-0.149514	0.994297
C805	C	-0.226564	-0.661933	0.544613
C806	C	0.273436	-0.161933	1.044613
H807	H	-0.254271	-0.591160	0.477196
H808	H	0.245729	-0.091160	0.977196
H809	H	-0.254261	-0.637421	0.477118
H810	H	0.245739	-0.137421	0.977118
H811	H	-0.181065	-0.632156	0.485936
H812	H	0.318935	-0.132156	0.985936
H813	H	-0.181045	-0.678423	0.485870
H814	H	0.318955	-0.178423	0.985870
H815	H	-0.246517	-0.679292	0.552978
H816	H	0.253483	-0.179292	1.052978
H817	H	-0.246527	-0.633028	0.553050
H818	H	0.253473	-0.133028	1.053050
H819	H	-0.203975	-0.681921	0.561951
H820	H	0.296025	-0.181921	1.061951
C821	C	-0.234036	-0.532874	0.294282
C822	C	0.265964	-0.032874	0.794282
C823	C	-0.200624	-0.525738	0.246606
C824	C	0.299376	-0.025738	0.746606
C825	C	-0.226048	-0.496288	0.213203
C826	C	0.273952	0.003712	0.713203
H827	H	-0.254002	-0.548431	0.299098
H828	H	0.245998	-0.048431	0.799098
H829	H	-0.253976	-0.502173	0.299143
H830	H	0.246024	-0.002173	0.799143
H831	H	-0.180693	-0.556433	0.241747
H832	H	0.319307	-0.056433	0.741747
H833	H	-0.180658	-0.510174	0.241775
H834	H	0.319342	-0.010174	0.741775
H835	H	-0.245988	-0.465587	0.218064
H836	H	0.254012	0.034413	0.718064
H837	H	-0.246013	-0.511849	0.218023
H838	H	0.253987	-0.011849	0.718023
H839	H	-0.203382	-0.491439	0.180851
H840	H	0.296618	0.008561	0.680851
C841	C	-0.141773	-0.684140	0.378930
C842	C	0.358227	-0.184140	0.878930
C843	C	-0.148552	-0.654760	0.333516
C844	C	0.351448	-0.154760	0.833516
C845	C	-0.198434	-0.629053	0.340578
C846	C	0.301566	-0.129053	0.840578
H847	H	-0.158980	-0.706619	0.395796
H848	H	0.341020	-0.206619	0.895796
H849	H	-0.153803	-0.664141	0.397656
H850	H	0.346197	-0.164141	0.897656
H851	H	-0.136528	-0.674757	0.314798
H852	H	0.363472	-0.174757	0.814798
H853	H	-0.131357	-0.632272	0.316642
H854	H	0.368643	-0.132272	0.816642
H855	H	-0.210464	-0.609054	0.359304
H856	H	0.289536	-0.109054	0.859304
H857	H	-0.215636	-0.651536	0.357445
H858	H	0.284364	-0.151536	0.857445
H859	H	-0.203039	-0.609113	0.309766
H860	H	0.296961	-0.109113	0.809766
H861	H	-0.134369	-0.571905	0.272603
H862	H	0.365631	-0.071905	0.772603
