data_functionalizedCrystal
_audit_creation_method	'MofGen! by Chris Wilmer'
_symmetry_space_group_name_H-M	'P1'
_symmetry_Int_Tables_number	1
_symmetry_cell_setting	triclinic
loop_
_symmetry_equiv_pos_as_xyz
  x,y,z
_cell_length_a	18.050591
_cell_length_b	18.050589
_cell_length_c	14.908694
_cell_angle_alpha	93.272134
_cell_angle_beta	86.677417
_cell_angle_gamma	90.024227
loop_
_atom_site_label
_atom_site_type_symbol
_atom_site_fract_x
_atom_site_fract_y
_atom_site_fract_z
Zn1	Zn	1.159555	-0.319965	-0.510267
Zn2	Zn	1.152293	-0.437000	-0.359417
Zn3	Zn	1.028201	-0.312819	-0.359407
Zn4	Zn	1.035320	-0.444106	-0.510212
O5	O	1.093842	-0.378472	-0.434826
O6	O	1.262518	-0.335506	-0.490284
O7	O	1.129814	-0.414563	-0.233171
O8	O	1.045686	-0.209843	-0.379437
O9	O	1.257182	-0.421491	-0.379455
O10	O	1.142191	-0.215093	-0.490274
O11	O	1.038644	-0.323328	-0.233164
O12	O	0.925220	-0.330218	-0.379384
O13	O	1.057818	-0.433603	-0.636464
O14	O	0.930450	-0.426674	-0.490181
O15	O	1.149093	-0.342397	-0.636504
O16	O	1.136716	-0.541866	-0.379402
O17	O	1.050776	-0.547087	-0.490190
C18	C	0.900888	-0.378442	-0.434776
C19	C	0.818342	-0.378448	-0.434776
C20	C	0.616032	-0.325945	-0.374664
C21	C	0.565557	-0.392629	-0.352469
C22	C	0.667214	-0.378473	-0.434817
C23	C	0.570607	-0.311812	-0.457009
C24	C	0.521230	-0.378491	-0.434854
C25	C	0.617824	-0.445191	-0.412579
C26	C	0.622879	-0.364330	-0.517158
C27	C	0.572428	-0.431062	-0.494994
C28	C	0.751311	-0.378462	-0.434793
C29	C	0.437135	-0.378509	-0.434879
C30	C	1.093752	-0.571424	-0.434811
C31	C	1.093783	-0.653971	-0.434835
C32	C	1.047096	-0.856287	-0.495061
C33	C	1.025084	-0.901818	-0.412737
C34	C	1.093856	-0.805102	-0.434846
C35	C	1.115905	-0.906652	-0.517180
C36	C	1.093926	-0.951088	-0.434865
C37	C	1.071806	-0.849544	-0.352479
C38	C	1.162662	-0.854376	-0.456977
C39	C	1.140672	-0.899883	-0.374597
C40	C	1.093814	-0.721003	-0.434837
C41	C	1.093968	-1.035184	-0.434865
C42	C	1.287550	-0.378503	-0.434876
C43	C	1.370097	-0.378516	-0.434898
C44	C	1.105060	-0.389590	-0.670133
C45	C	1.109840	-0.394327	-0.770407
C46	C	1.093954	-0.184768	-0.434861
C47	C	1.094002	-0.102223	-0.434875
C48	C	1.023870	-0.308228	-0.958826
C49	C	1.028359	-0.312677	-1.053042
C50	C	1.123303	-0.407677	-1.053057
C51	C	1.118814	-0.403228	-0.958841
C52	C	1.069097	-0.353501	-0.911728
C53	C	1.064612	-0.349049	-0.817511
C54	C	1.159551	-0.444052	-0.817527
C55	C	1.164040	-0.448501	-0.911744
C56	C	1.082711	-0.367345	-0.200434
C57	C	1.078075	-0.362398	-0.100161
H58	H	0.638507	-0.501585	-0.393747
Br59	Br	0.928152	-0.936604	-0.381537
Br60	Br	0.997144	-0.281560	-0.753572
Br61	Br	0.535968	-0.217842	-0.488266
Br62	Br	0.956410	-0.240734	-0.894883
H63	H	0.540509	-0.404604	-0.282851
H64	H	0.991531	-0.275810	-1.091385
H65	H	0.553326	-0.475540	-0.545880
Br66	Br	1.190757	-0.475171	-1.117011
H67	H	1.220804	-0.833490	-0.475718
Br68	Br	1.220937	-0.505495	-0.753605
Br69	Br	0.664654	-0.344338	-0.633163
Br70	Br	0.981085	-0.824216	-0.579816
Br71	Br	1.040661	-0.808103	-0.236405
H72	H	1.204516	-0.488989	-0.950115
Br73	Br	1.206630	-0.931714	-0.289646
Br74	Br	1.146940	-0.948253	-0.633216
H75	H	0.635269	-0.281566	-0.323739
