data_functionalizedCrystal
_audit_creation_method	'MofGen! by Chris Wilmer'
_symmetry_space_group_name_H-M	'P1'
_symmetry_Int_Tables_number	1
_symmetry_cell_setting	triclinic
loop_
_symmetry_equiv_pos_as_xyz
  x,y,z
_cell_length_a	21.395362
_cell_length_b	18.215405
_cell_length_c	21.395356
_cell_angle_alpha	89.973989
_cell_angle_beta	89.957023
_cell_angle_gamma	90.038610
loop_
_atom_site_label
_atom_site_type_symbol
_atom_site_fract_x
_atom_site_fract_y
_atom_site_fract_z
Zn1	Zn	0.957888	-0.292691	-0.354593
Zn2	Zn	1.457888	0.207309	0.145407
Zn3	Zn	0.957807	-0.415759	-0.249818
Zn4	Zn	1.457807	0.084241	0.250182
Zn5	Zn	0.853105	-0.292745	-0.249794
Zn6	Zn	1.353105	0.207255	0.250206
Zn7	Zn	0.853087	-0.415754	-0.354523
Zn8	Zn	1.353087	0.084246	0.145477
O9	O	0.905472	-0.354237	-0.302182
O10	O	1.405472	0.145763	0.197818
O11	O	1.045555	-0.308995	-0.340734
O12	O	1.545555	0.191005	0.159266
O13	O	0.943892	-0.399465	-0.162137
O14	O	1.443892	0.100535	0.337863
O15	O	0.867046	-0.189753	-0.263715
O16	O	1.367046	0.310247	0.236285
O17	O	1.045496	-0.399413	-0.263756
O18	O	1.545496	0.100587	0.236244
O19	O	0.944030	-0.189714	-0.340710
O20	O	1.444030	0.310286	0.159290
O21	O	0.866967	-0.309087	-0.162119
O22	O	1.366967	0.190913	0.337881
O23	O	0.765425	-0.309083	-0.263647
O24	O	1.265425	0.190917	0.236353
O25	O	0.867016	-0.399405	-0.442210
O26	O	1.367016	0.100595	0.057790
O27	O	0.765411	-0.399458	-0.340591
O28	O	1.265411	0.100542	0.159409
O29	O	0.944013	-0.308991	-0.442262
O30	O	1.444013	0.191009	0.057738
O31	O	0.943874	-0.518743	-0.263689
O32	O	1.443874	-0.018743	0.236311
O33	O	0.866937	-0.518739	-0.340615
O34	O	1.366937	-0.018739	0.159385
C35	C	0.742684	-0.354276	-0.302110
C36	C	1.242684	0.145724	0.197890
C37	C	0.673043	-0.354311	-0.302093
C38	C	1.173043	0.145689	0.197907
C39	C	0.640339	-0.401431	-0.342098
C40	C	1.140339	0.098569	0.157902
C41	C	0.574904	-0.401413	-0.342126
C42	C	1.074904	0.098587	0.157874
C43	C	0.542175	-0.354282	-0.302138
C44	C	1.042175	0.145718	0.197862
C45	C	0.574886	-0.307153	-0.262130
C46	C	1.074886	0.192847	0.237870
C47	C	0.640320	-0.307167	-0.262108
C48	C	1.140320	0.192833	0.237892
C49	C	0.438450	-0.348364	-0.245733
C50	C	0.938450	0.151636	0.254267
C51	C	0.373017	-0.348355	-0.245754
C52	C	0.873017	0.151645	0.254246
C53	C	0.340354	-0.354234	-0.302207
C54	C	0.840354	0.145766	0.197793
C55	C	0.373132	-0.360138	-0.358641
C56	C	0.873132	0.139862	0.141359
C57	C	0.438566	-0.360152	-0.358619
C58	C	0.938566	0.139848	0.141381
C59	C	0.471222	-0.354261	-0.302158
C60	C	0.971222	0.145739	0.197842
C61	C	0.236698	-0.401338	-0.342245
C62	C	0.736698	0.098662	0.157755
C63	C	0.171261	-0.401314	-0.342274
C64	C	0.671261	0.098686	0.157726
C65	C	0.171245	-0.307058	-0.262273
C66	C	0.671245	0.192942	0.237727
C67	C	0.236680	-0.307077	-0.262250
C68	C	0.736680	0.192923	0.237750
C69	C	0.269403	-0.354221	-0.302235
C70	C	0.769403	0.145779	0.197765
C71	C	0.905412	-0.545444	-0.302161
C72	C	1.405412	-0.045444	0.197839
C73	C	0.905443	-0.627242	-0.302172
C74	C	1.405443	-0.127242	0.197828
C75	C	0.945548	-0.815355	-0.342318
C76	C	1.445548	-0.315355	0.157682
C77	C	0.945571	-0.892213	-0.342330
C78	C	1.445571	-0.392213	0.157670
C79	C	0.865473	-0.892368	-0.262085
C80	C	1.365473	-0.392368	0.237915
C81	C	0.865448	-0.815510	-0.262077
C82	C	1.365448	-0.315510	0.237923
C83	C	0.905489	-0.777006	-0.302193
C84	C	1.405489	-0.277006	0.197807
C85	C	0.905537	-0.930722	-0.302212
C86	C	1.405537	-0.430722	0.197788
C87	C	0.905561	-1.014056	-0.302225
C88	C	1.405561	-0.514056	0.197775
C89	C	0.905464	-0.693667	-0.302181
C90	C	1.405464	-0.193667	0.197819
C91	C	1.068895	-0.354199	-0.302256
C92	C	1.568895	0.145801	0.197744
C93	C	1.138536	-0.354182	-0.302287
C94	C	1.638536	0.145818	0.197713
C95	C	0.905521	-0.354192	-0.465606
C96	C	1.405521	0.145808	0.034394
C97	C	0.905542	-0.354172	-0.535247
C98	C	1.405542	0.145828	-0.035247
C99	C	0.905549	-0.162284	-0.302218
C100	C	1.405549	0.337716	0.197782
C101	C	0.905582	-0.080485	-0.302233
C102	C	1.405582	0.419515	0.197767
C103	C	0.865498	-0.307107	-0.567941
C104	C	1.365498	0.192893	-0.067941
C105	C	0.865496	-0.307094	-0.633376
C106	C	1.365496	0.192906	-0.133376
C107	C	0.905549	-0.354137	-0.666115
C108	C	1.405549	0.145863	-0.166115
C109	C	0.945596	-0.401211	-0.633413
C110	C	1.445596	0.098789	-0.133413
C111	C	0.945592	-0.401229	-0.567979
C112	C	1.445592	0.098771	-0.067979
C113	C	0.962002	-0.359905	-0.769821
C114	C	1.462002	0.140095	-0.269821
C115	C	0.962006	-0.359882	-0.835254
C116	C	1.462006	0.140118	-0.335254
C117	C	0.905559	-0.354088	-0.867936
C118	C	1.405559	0.145912	-0.367936
C119	C	0.849106	-0.348300	-0.835177
C120	C	1.349106	0.151700	-0.335177
C121	C	0.849103	-0.348318	-0.769743
C122	C	1.349103	0.151682	-0.269743
C123	C	0.905557	-0.354124	-0.737068
C124	C	1.405557	0.145876	-0.237068
C125	C	0.865510	-0.307005	-0.971583
C126	C	1.365510	0.192995	-0.471583
C127	C	0.865507	-0.306997	-1.037019
C128	C	1.365507	0.193003	-0.537019
C129	C	0.945612	-0.401111	-1.037055
C130	C	1.445612	0.098889	-0.537055
C131	C	0.945609	-0.401123	-0.971620
C132	C	1.445609	0.098877	-0.471620
C133	C	0.905559	-0.354066	-0.938887
C134	C	1.405559	0.145934	-0.438887
C135	C	0.905459	-0.354230	-0.139395
C136	C	1.405459	0.145770	0.360605
C137	C	0.905559	-0.354042	-0.069754
C138	C	1.405559	0.145958	0.430246
H139	H	0.548271	-0.439784	-0.374705
H140	H	1.048271	0.060216	0.125295
H141	H	0.263308	-0.268710	-0.229671
H142	H	0.763308	0.231290	0.270329
H143	H	0.144597	-0.268680	-0.229717
H144	H	0.644597	0.231320	0.270283
H145	H	0.978225	-0.439413	-1.063711
H146	H	1.478225	0.060587	-0.563711
C147	C	0.989568	-0.453060	-0.669427
C148	C	1.489568	0.046940	-0.169427
N149	N	1.022658	-0.492151	-0.696553
N150	N	1.522658	0.007849	-0.196553
H151	H	0.832874	-0.923728	-0.229424
H152	H	1.332874	-0.423728	0.270576
C153	C	0.336968	-0.341856	-0.183676
C154	C	0.836968	0.158144	0.316324
N155	N	0.309817	-0.336957	-0.136918
N156	N	0.809817	0.163043	0.363082
C157	C	0.821371	-0.773324	-0.217940
C158	C	1.321371	-0.273324	0.282060
N159	N	0.788170	-0.741550	-0.184701
N160	N	1.288170	-0.241550	0.315299
H161	H	0.465039	-0.343574	-0.199758
H162	H	0.965039	0.156426	0.300242
C163	C	0.538883	-0.255309	-0.218143
C164	C	1.038883	0.244691	0.281857
N165	N	0.511765	-0.216257	-0.185012
N166	N	1.011765	0.283743	0.314988
C167	C	0.989658	-0.452991	-0.532015
C168	C	1.489658	0.047009	-0.032015
N169	N	1.022855	-0.491974	-0.504925
N170	N	1.522855	0.008026	-0.004925
C171	C	0.821446	-0.255313	-0.669347
C172	C	1.321446	0.244687	-0.169347
N173	N	0.788269	-0.216310	-0.696438
N174	N	1.288269	0.283690	-0.196438
H175	H	1.007971	-0.364617	-0.743216
H176	H	1.507971	0.135383	-0.243216
C177	C	0.989683	-0.452874	-0.935655
C178	C	1.489683	0.047126	-0.435655
N179	N	1.022886	-0.491848	-0.908567
N180	N	1.522886	0.008152	-0.408567
H181	H	0.832884	-0.268793	-0.541294
H182	H	1.332884	0.231207	-0.041294
C183	C	0.989590	-0.773002	-0.386450
C184	C	1.489590	-0.273002	0.113550
N185	N	1.022763	-0.741105	-0.419693
N186	N	1.522763	-0.241105	0.080307
C187	C	0.821455	-0.255216	-1.072983
C188	C	1.321455	0.244784	-0.572983
N189	N	0.788276	-0.216212	-1.100071
N190	N	1.288276	0.283788	-0.600071
C191	C	0.474619	-0.366645	-0.420694
C192	C	0.974619	0.133355	0.079306
N193	N	0.501774	-0.371534	-0.467451
N194	N	1.001774	0.128466	0.032549
H195	H	0.978190	-0.923434	-0.375005
H196	H	1.478190	-0.423434	0.124995
C197	C	0.787005	-0.341959	-0.733711
C198	C	1.287005	0.158041	-0.233711
N199	N	0.740232	-0.337174	-0.706572
N200	N	1.240232	0.162826	-0.206572
H201	H	0.346539	-0.364924	-0.404611
H202	H	0.846539	0.135076	0.095389
H203	H	0.803142	-0.343577	-0.861786
H204	H	1.303142	0.156423	-0.361786
C205	C	0.821448	-0.255250	-0.935575
C206	C	1.321448	0.244750	-0.435575
N207	N	0.788259	-0.216269	-0.908456
N208	N	1.288259	0.283731	-0.408456
H209	H	1.007974	-0.364591	-0.861921
H210	H	1.507974	0.135409	-0.361921
C211	C	0.135287	-0.453160	-0.386280
C212	C	0.635287	0.046840	0.113720
N213	N	0.108191	-0.492214	-0.419423
N214	N	0.608191	0.007786	0.080577
H215	H	0.666978	-0.439818	-0.374658
H216	H	1.166978	0.060182	0.125342
H217	H	0.666947	-0.268794	-0.229531
H218	H	1.166947	0.231206	0.270469
C219	C	0.272695	-0.453188	-0.386237
C220	C	0.772695	0.046812	0.113763
N221	N	0.299806	-0.492240	-0.419373
N222	N	0.799806	0.007760	0.080627
