data_functionalizedCrystal
_audit_creation_method	'MofGen! by Chris Wilmer'
_symmetry_space_group_name_H-M	'P1'
_symmetry_Int_Tables_number	1
_symmetry_cell_setting	triclinic
loop_
_symmetry_equiv_pos_as_xyz
  x,y,z
_cell_length_a	14.908571
_cell_length_b	10.686285
_cell_length_c	10.686551
_cell_angle_alpha	80.915481
_cell_angle_beta	82.072855
_cell_angle_gamma	82.092200
loop_
_atom_site_label
_atom_site_type_symbol
_atom_site_fract_x
_atom_site_fract_y
_atom_site_fract_z
Zn1	Zn	1.453247	-0.559280	-0.787786
Zn2	Zn	1.953247	-0.059280	-0.287786
Zn3	Zn	1.453174	-0.787854	-0.559278
Zn4	Zn	1.953174	-0.287854	-0.059278
Zn5	Zn	1.290285	-0.563398	-0.563349
Zn6	Zn	1.790285	-0.063398	-0.063349
Zn7	Zn	1.311967	-0.760869	-0.760912
Zn8	Zn	1.811967	-0.260869	-0.260912
O9	O	1.377168	-0.667850	-0.667831
O10	O	1.877168	-0.167850	-0.167831
O11	O	1.580533	-0.599171	-0.767016
O12	O	2.080533	-0.099171	-0.267016
O13	O	1.422461	-0.771096	-0.381506
O14	O	1.922461	-0.271096	0.118494
O15	O	1.302859	-0.384550	-0.606072
O16	O	1.802859	0.115450	-0.106072
O17	O	1.580479	-0.767103	-0.599133
O18	O	2.080479	-0.267103	-0.099133
O19	O	1.422587	-0.381524	-0.770964
O20	O	1.922587	0.118476	-0.270964
O21	O	1.302787	-0.606189	-0.384497
O22	O	1.802787	-0.106189	0.115503
O23	O	1.165865	-0.580023	-0.580014
O24	O	1.665865	-0.080023	-0.080014
O25	O	1.339813	-0.721111	-0.942788
O26	O	1.839813	-0.221111	-0.442788
O27	O	1.181795	-0.725104	-0.725162
O28	O	1.681795	-0.225104	-0.225162
O29	O	1.443611	-0.573004	-0.962533
O30	O	1.943611	-0.073004	-0.462533
O31	O	1.443486	-0.962576	-0.573074
O32	O	1.943486	-0.462576	-0.073074
O33	O	1.339742	-0.942750	-0.721214
O34	O	1.839742	-0.442750	-0.221214
C35	C	1.393985	-0.998895	-0.643815
C36	C	1.893985	-0.498895	-0.143815
C37	C	1.401264	-1.140520	-0.633590
C38	C	1.901264	-0.640520	-0.133590
C39	C	1.140824	-0.650083	-0.650114
C40	C	1.640824	-0.150083	-0.150114
C41	C	1.039718	-0.642510	-0.642563
C42	C	1.539718	-0.142510	-0.142563
C43	C	0.866367	-0.779623	-0.779278
C44	C	1.366367	-0.279623	-0.279278
C45	C	0.771370	-0.772511	-0.772187
C46	C	1.271370	-0.272511	-0.272187
C47	C	0.754723	-0.621170	-0.621297
C48	C	1.254723	-0.121170	-0.121297
C49	C	0.849721	-0.628281	-0.628388
C50	C	1.349721	-0.128281	-0.128388
C51	C	0.905540	-0.707512	-0.707380
C52	C	1.405540	-0.207512	-0.207380
C53	C	1.000539	-0.714629	-0.714463
C54	C	1.500539	-0.214629	-0.214463
C55	C	0.983891	-0.563282	-0.563581
C56	C	1.483891	-0.063282	-0.063581
C57	C	0.888894	-0.556170	-0.556490
C58	C	1.388894	-0.056170	-0.056490
C59	C	1.614435	-0.685688	-0.685618
C60	C	2.114435	-0.185688	-0.185618
C61	C	1.715545	-0.693289	-0.693198
C62	C	2.215545	-0.193289	-0.193198
C63	C	1.394139	-0.643588	-1.000187
C64	C	1.894139	-0.143588	-0.500187
C65	C	1.401371	-0.633249	-1.141818
C66	C	1.901371	-0.133249	-0.641818
C67	C	1.360312	-0.335513	-0.691970
C68	C	1.860312	0.164487	-0.191970
C69	C	1.353129	-0.193890	-0.702257
C70	C	1.853129	0.306110	-0.202257
C71	C	1.360311	-0.691930	-0.336778
C72	C	1.860311	-0.191930	0.163222
C73	C	1.353237	-0.701923	-0.195188
C74	C	1.853237	-0.201923	0.304812
H75	H	1.448040	-1.203182	-0.566965
H76	H	1.948040	-0.703182	-0.066965
C77	C	1.026978	-0.483960	-0.484481
C78	C	1.526978	0.016040	0.015519
H79	H	0.980126	-0.435767	-0.436415
H80	H	1.480126	0.064233	0.063585
H81	H	1.063723	-0.427726	-0.540089
H82	H	1.563723	0.072274	-0.040089
H83	H	1.063658	-0.539467	-0.428114
H84	H	1.563658	-0.039467	0.071886
C85	C	1.289941	-1.109256	-0.792256
C86	C	1.789941	-0.609256	-0.292256
H87	H	1.293182	-1.021978	-0.787567
H88	H	1.793182	-0.521978	-0.287567
H89	H	1.228984	-1.127854	-0.767405
H90	H	1.728984	-0.627854	-0.267405
H91	H	1.308687	-1.125704	-0.877335
H92	H	1.808687	-0.625704	-0.377335
C93	C	1.061939	-0.801773	-0.801354
C94	C	1.561939	-0.301773	-0.301354
H95	H	1.024999	-0.843689	-0.843168
H96	H	1.524999	-0.343689	-0.343168
H97	H	1.099319	-0.863558	-0.751275
H98	H	1.599319	-0.363558	-0.251275
H99	H	1.099366	-0.751818	-0.863251
H100	H	1.599366	-0.251818	-0.363251
H101	H	0.911816	-0.844143	-0.843589
H102	H	1.411816	-0.344143	-0.343589
C103	C	0.728282	-0.851805	-0.851303
C104	C	1.228282	-0.351805	-0.351303
H105	H	0.775134	-0.900004	-0.899363
H106	H	1.275134	-0.400004	-0.399363
H107	H	0.691603	-0.796291	-0.907655
H108	H	1.191603	-0.296291	-0.407655
H109	H	0.691537	-0.908053	-0.795701
H110	H	1.191537	-0.408053	-0.295701
C111	C	0.693314	-0.534041	-0.534402
C112	C	1.193314	-0.034041	-0.034402
H113	H	0.631127	-0.540146	-0.540472
H114	H	1.131127	-0.040146	-0.040472
H115	H	0.705481	-0.448248	-0.560535
H116	H	1.205481	0.051752	-0.060535
H117	H	0.705437	-0.560001	-0.448573
H118	H	1.205437	-0.060001	0.051427
H119	H	0.843433	-0.491660	-0.492181
H120	H	1.343433	0.008340	0.007819
H121	H	1.306498	-0.768631	-1.132528
H122	H	1.806498	-0.268631	-0.632528
C123	C	1.464525	-0.543133	-1.226458
C124	C	1.964525	-0.043133	-0.726458
H125	H	1.493756	-0.501444	-1.173985
H126	H	1.993756	-0.001444	-0.673985
H127	H	1.429536	-0.481255	-1.279800
H128	H	1.929536	0.018745	-0.779800
H129	H	1.509258	-0.591118	-1.277795
H130	H	2.009258	-0.091118	-0.777795
