data_functionalizedCrystal
_audit_creation_method	'MofGen! by Chris Wilmer'
_symmetry_space_group_name_H-M	'P1'
_symmetry_Int_Tables_number	1
_symmetry_cell_setting	triclinic
loop_
_symmetry_equiv_pos_as_xyz
  x,y,z
_cell_length_a	19.805407
_cell_length_b	19.805405
_cell_length_c	19.805398
_cell_angle_alpha	89.972363
_cell_angle_beta	89.984135
_cell_angle_gamma	90.026410
loop_
_atom_site_label
_atom_site_type_symbol
_atom_site_fract_x
_atom_site_fract_y
_atom_site_fract_z
Zn1	Zn	1.034711	-0.269490	-0.382712
Zn2	Zn	1.368044	0.063843	-0.049378
Zn3	Zn	1.701378	0.397177	0.283955
Zn4	Zn	1.034633	-0.382675	-0.269520
Zn5	Zn	1.367966	-0.049342	0.063813
Zn6	Zn	1.701300	0.283992	0.397147
Zn7	Zn	0.921533	-0.269505	-0.269536
Zn8	Zn	1.254866	0.063828	0.063797
Zn9	Zn	1.588200	0.397161	0.397131
Zn10	Zn	0.921489	-0.382642	-0.382667
Zn11	Zn	1.254822	-0.049309	-0.049333
Zn12	Zn	1.588156	0.284024	0.284000
O13	O	0.978091	-0.326078	-0.326109
O14	O	1.311425	0.007255	0.007225
O15	O	1.644758	0.340588	0.340558
O16	O	1.129417	-0.284511	-0.367708
O17	O	1.462750	0.048822	-0.034375
O18	O	1.796084	0.382155	0.298958
O19	O	1.019616	-0.367683	-0.174805
O20	O	1.352949	-0.034350	0.158528
O21	O	1.686283	0.298984	0.491861
O22	O	0.936597	-0.174787	-0.284575
O23	O	1.269930	0.158547	0.048759
O24	O	1.603264	0.491880	0.382092
O25	O	1.129360	-0.367668	-0.284547
O26	O	1.462693	-0.034335	0.048786
O27	O	1.796027	0.298999	0.382120
O28	O	1.019748	-0.174775	-0.367724
O29	O	1.353082	0.158558	-0.034391
O30	O	1.686415	0.491891	0.298942
O31	O	0.936522	-0.284538	-0.174817
O32	O	1.269855	0.048796	0.158516
O33	O	1.603188	0.382129	0.491849
O34	O	0.826810	-0.284506	-0.284531
O35	O	1.160144	0.048827	0.048802
O36	O	1.493477	0.382161	0.382136
O37	O	0.936522	-0.367612	-0.477389
O38	O	1.269856	-0.034279	-0.144056
O39	O	1.603189	0.299054	0.189277
O40	O	0.826778	-0.367627	-0.367648
O41	O	1.160112	-0.034294	-0.034314
O42	O	1.493445	0.299039	0.299019
O43	O	1.019706	-0.284480	-0.477422
O44	O	1.353039	0.048854	-0.144089
O45	O	1.686373	0.382187	0.189244
O46	O	1.019573	-0.477387	-0.284503
O47	O	1.352907	-0.144054	0.048830
O48	O	1.686240	0.189279	0.382163
O49	O	0.936447	-0.477363	-0.367632
O50	O	1.269780	-0.144030	-0.034299
O51	O	1.603114	0.189303	0.299035
C52	C	0.802235	-0.326065	-0.326087
C53	C	1.135569	0.007268	0.007247
C54	C	1.468902	0.340601	0.340580
C55	C	0.727003	-0.326076	-0.326093
C56	C	1.060337	0.007257	0.007240
C57	C	1.393670	0.340591	0.340573
C58	C	0.691660	-0.369422	-0.369302
C59	C	1.024994	-0.036089	-0.035969
C60	C	1.358327	0.297244	0.297365
C61	C	0.620972	-0.369424	-0.369312
C62	C	0.954305	-0.036090	-0.035978
C63	C	1.287638	0.297243	0.297355
C64	C	0.585628	-0.326081	-0.326109
C65	C	0.918961	0.007252	0.007225
C66	C	1.252295	0.340585	0.340558
C67	C	0.620976	-0.282730	-0.282898
C68	C	0.954309	0.050603	0.050435
C69	C	1.287643	0.383937	0.383769
C70	C	0.691663	-0.282726	-0.282892
C71	C	1.024997	0.050607	0.050441
C72	C	1.358330	0.383941	0.383774
C73	C	0.335903	-0.282745	-0.282920
C74	C	0.669236	0.050588	0.050413
C75	C	1.002569	0.383922	0.383746
C76	C	0.265211	-0.282754	-0.282928
C77	C	0.598544	0.050579	0.050406
C78	C	0.931877	0.383913	0.383739
C79	C	0.265211	-0.369443	-0.369340
C80	C	0.598545	-0.036109	-0.036006
C81	C	0.931878	0.297224	0.297327
C82	C	0.335899	-0.369439	-0.369334
C83	C	0.669232	-0.036105	-0.036001
C84	C	1.002565	0.297228	0.297333
C85	C	0.371241	-0.326085	-0.326126
C86	C	0.704574	0.007248	0.007207
C87	C	1.037907	0.340581	0.340540
C88	C	0.447889	-0.326084	-0.326117
C89	C	0.781222	0.007250	0.007216
C90	C	1.114556	0.340583	0.340549
C91	C	0.508981	-0.326086	-0.326114
C92	C	0.842314	0.007247	0.007220
C93	C	1.175647	0.340581	0.340553
C94	C	0.978015	-0.501934	-0.326076
C95	C	1.311349	-0.168601	0.007258
C96	C	1.644682	0.164732	0.340591
C97	C	0.978045	-0.577166	-0.326084
C98	C	1.311378	-0.243833	0.007249
C99	C	1.644711	0.089500	0.340582
C100	C	1.021371	-0.612500	-0.282845
C101	C	1.354704	-0.279167	0.050489
C102	C	1.688037	0.054166	0.383822
C103	C	1.021399	-0.683189	-0.282860
C104	C	1.354733	-0.349855	0.050474
C105	C	1.688066	-0.016522	0.383807
C106	C	0.978098	-0.718542	-0.326111
C107	C	1.311432	-0.385208	0.007222
C108	C	1.644765	-0.051875	0.340555
C109	C	0.934770	-0.683203	-0.369356
C110	C	1.268104	-0.349869	-0.036023
C111	C	1.601437	-0.016536	0.297311
C112	C	0.934746	-0.612516	-0.369344
C113	C	1.268079	-0.279182	-0.036010
C114	C	1.601412	0.054151	0.297323
C115	C	0.934870	-0.968276	-0.369406
C116	C	1.268204	-0.634943	-0.036073
C117	C	1.601537	-0.301609	0.297261
C118	C	0.934897	-1.038968	-0.369413
C119	C	1.268230	-0.705635	-0.036080
C120	C	1.601564	-0.372301	0.297253
C121	C	1.021524	-1.038949	-0.282922
C122	C	1.354857	-0.705616	0.050411
C123	C	1.688191	-0.372283	0.383745
C124	C	1.021499	-0.968262	-0.282910
C125	C	1.354833	-0.634929	0.050423
C126	C	1.688166	-0.301595	0.383757
C127	C	0.978174	-0.932929	-0.326157
C128	C	1.311507	-0.599596	0.007177
C129	C	1.644841	-0.266262	0.340510
C130	C	0.978144	-0.856281	-0.326141
C131	C	1.311478	-0.522947	0.007193
C132	C	1.644811	-0.189614	0.340526
C133	C	0.978124	-0.795189	-0.326124
C134	C	1.311457	-0.461856	0.007209
C135	C	1.644791	-0.128522	0.340542
C136	C	1.154634	-0.326092	-0.326131
C137	C	1.487968	0.007242	0.007202
C138	C	1.821301	0.340575	0.340536
C139	C	1.229866	-0.326097	-0.326140
C140	C	1.563199	0.007236	0.007193
C141	C	1.896533	0.340569	0.340526
C142	C	0.978118	-0.326041	-0.502651
C143	C	1.311451	0.007293	-0.169318
C144	C	1.644785	0.340626	0.164015
C145	C	0.978129	-0.326025	-0.577883
C146	C	1.311463	0.007309	-0.244550
C147	C	1.644796	0.340642	0.088783
C148	C	0.978186	-0.149535	-0.326156
C149	C	1.311520	0.183798	0.007177
C150	C	1.644853	0.517131	0.340510
C151	C	0.978227	-0.074303	-0.326177
C152	C	1.311560	0.259030	0.007157
C153	C	1.644893	0.592363	0.340490
C154	C	1.021525	-0.282618	-1.039693
C155	C	1.354858	0.050716	-0.706360
C156	C	1.688191	0.384049	-0.373026
C157	C	1.021514	-0.282638	-0.969004
C158	C	1.354847	0.050695	-0.635671
C159	C	1.688181	0.384028	-0.302338
C160	C	0.978199	-0.325931	-0.933645
C161	C	1.311532	0.007403	-0.600312
C162	C	1.644865	0.340736	-0.266979
C163	C	0.934896	-0.369210	-0.968978
C164	C	1.268229	-0.035876	-0.635645
C165	C	1.601563	0.297457	-0.302312
C166	C	0.934911	-0.369192	-1.039666
C167	C	1.268244	-0.035858	-0.706332
C168	C	1.601577	0.297475	-0.372999
C169	C	0.934837	-0.369283	-0.683905
C170	C	1.268171	-0.035950	-0.350572
C171	C	1.601504	0.297384	-0.017238
C172	C	0.934825	-0.369296	-0.613213
C173	C	1.268158	-0.035963	-0.279879
C174	C	1.601491	0.297371	0.053454
C175	C	1.021441	-0.282730	-0.613244
C176	C	1.354774	0.050604	-0.279910
C177	C	1.688107	0.383937	0.053423
C178	C	1.021455	-0.282712	-0.683931
C179	C	1.354788	0.050621	-0.350598
C180	C	1.688122	0.383955	-0.017264
C181	C	0.978155	-0.325993	-0.719258
C182	C	1.311489	0.007340	-0.385924
C183	C	1.644822	0.340674	-0.052591
C184	C	0.978168	-0.325971	-0.795906
C185	C	1.311502	0.007362	-0.462573
C186	C	1.644835	0.340696	-0.129240
C187	C	0.978182	-0.325950	-0.856998
C188	C	1.311515	0.007384	-0.523665
C189	C	1.644849	0.340717	-0.190331
C190	C	0.978104	-0.326067	-0.150253
C191	C	1.311437	0.007267	0.183081
C192	C	1.644771	0.340600	0.516414
C193	C	0.978224	-0.325892	-0.075021
C194	C	1.311557	0.007441	0.258312
C195	C	1.644891	0.340775	0.591646
H196	H	0.364670	-0.247449	-0.247733
H197	H	0.698003	0.085884	0.085601
H198	H	1.031336	0.419217	0.418934
H199	H	1.056679	-0.711955	-0.247649
H200	H	1.390013	-0.378621	0.085684
H201	H	1.723346	-0.045288	0.419017
O202	O	1.068155	-0.236054	-0.575143
O203	O	1.401489	0.097279	-0.241809
O204	O	1.734822	0.430612	0.091524
H205	H	1.060878	-0.243344	-0.520049
H206	H	1.394212	0.089989	-0.186716
H207	H	1.727545	0.423323	0.146618
H208	H	0.899466	-0.583747	-0.404555
H209	H	1.232799	-0.250414	-0.071221
H210	H	1.566133	0.082920	0.262112
O211	O	0.888129	-0.415961	-0.721995
O212	O	1.221462	-0.082627	-0.388662
O213	O	1.554795	0.250706	-0.055329
H214	H	0.918408	-0.450400	-0.754188
H215	H	1.251741	-0.117067	-0.420854
H216	H	1.585075	0.216266	-0.087521
O217	O	1.068218	-0.235962	-0.930903
O218	O	1.401551	0.097372	-0.597570
O219	O	1.734885	0.430705	-0.264237
H220	H	1.060939	-0.243252	-0.875810
H221	H	1.394273	0.090082	-0.542477
H222	H	1.727606	0.423415	-0.209143
H223	H	0.899548	-0.404549	-0.584425
H224	H	1.232881	-0.071216	-0.251092
H225	H	1.566214	0.262117	0.082241
H226	H	1.056628	-0.583721	-0.247621
H227	H	1.389962	-0.250387	0.085712
H228	H	1.723295	0.082946	0.419045
O229	O	1.068246	-0.235926	-1.077830
O230	O	1.401579	0.097407	-0.744496
O231	O	1.734912	0.430741	-0.411163
H232	H	1.098358	-0.205844	-1.041385
H233	H	1.431692	0.127489	-0.708052
H234	H	1.765025	0.460823	-0.374718
O235	O	0.227080	-0.236006	-0.236331
O236	O	0.560413	0.097327	0.097002
O237	O	0.893746	0.430661	0.430335
H238	H	0.240658	-0.182897	-0.248042
H239	H	0.573991	0.150437	0.085292
H240	H	0.907325	0.483770	0.418625
H241	H	0.899631	-0.404462	-0.940183
H242	H	1.232964	-0.071128	-0.606850
H243	H	1.566298	0.262205	-0.273517
O244	O	1.068176	-0.236022	-0.722070
O245	O	1.401509	0.097311	-0.388737
O246	O	1.734843	0.430645	-0.055404
H247	H	1.098290	-0.205938	-0.685628
H248	H	1.431623	0.127395	-0.352295
H249	H	1.764957	0.460728	-0.018961
O250	O	0.888204	-0.415861	-1.077775
O251	O	1.221537	-0.082528	-0.744442
O252	O	1.554870	0.250806	-0.411108
H253	H	0.858076	-0.445963	-1.041313
H254	H	1.191409	-0.112630	-0.707980
H255	H	1.524742	0.220704	-0.374647
H256	H	1.056804	-1.067726	-0.247711
H257	H	1.390137	-0.734392	0.085622
H258	H	1.723471	-0.401059	0.418956
O259	O	0.729784	-0.416162	-0.415906
O260	O	1.063118	-0.082829	-0.082572
O261	O	1.396451	0.250505	0.250761
H262	H	0.716193	-0.469272	-0.404213
H263	H	1.049527	-0.135939	-0.070880
H264	H	1.382860	0.197395	0.262454
O265	O	0.582849	-0.416305	-0.415785
O266	O	0.916182	-0.082971	-0.082451
O267	O	1.249516	0.250362	0.250882
H268	H	0.619301	-0.446495	-0.445772
H269	H	0.952635	-0.113162	-0.112439
H270	H	1.285968	0.220171	0.220895
O271	O	1.068206	-0.930129	-0.236265
O272	O	1.401539	-0.596796	0.097069
O273	O	1.734872	-0.263463	0.430402
H274	H	1.098345	-0.966576	-0.206205
H275	H	1.431678	-0.633242	0.127129
H276	H	1.765011	-0.299909	0.460462
H277	H	0.364672	-0.404735	-0.404512
H278	H	0.698005	-0.071401	-0.071179
H279	H	1.031339	0.261932	0.262155
H280	H	0.899592	-0.939513	-0.404618
H281	H	1.232926	-0.606180	-0.071284
H282	H	1.566259	-0.272847	0.262049
O283	O	0.227094	-0.416197	-0.415953
O284	O	0.560427	-0.082864	-0.082620
O285	O	0.893761	0.250469	0.250713
H286	H	0.172003	-0.408915	-0.408709
H287	H	0.505336	-0.075582	-0.075375
H288	H	0.838669	0.257751	0.257958
H289	H	0.899517	-0.711993	-0.404575
H290	H	1.232850	-0.378659	-0.071242
H291	H	1.566183	-0.045326	0.262092
H292	H	0.899637	-1.067750	-0.404639
H293	H	1.232970	-0.734417	-0.071306
H294	H	1.566303	-0.401084	0.262028
O295	O	0.729783	-0.235980	-0.236279
O296	O	1.063117	0.097353	0.097054
O297	O	1.396450	0.430687	0.430388
H298	H	0.716237	-0.182874	-0.247979
H299	H	1.049570	0.150459	0.085355
H300	H	1.382904	0.483793	0.418688
O301	O	0.582860	-0.235997	-0.236281
O302	O	0.916194	0.097336	0.097052
O303	O	1.249527	0.430669	0.430386
H304	H	0.527769	-0.243293	-0.243532
H305	H	0.861102	0.090041	0.089802
H306	H	1.194435	0.423374	0.423135
