data_functionalizedCrystal
_audit_creation_method	'MofGen! by Chris Wilmer'
_symmetry_space_group_name_H-M	'P1'
_symmetry_Int_Tables_number	1
_symmetry_cell_setting	triclinic
loop_
_symmetry_equiv_pos_as_xyz
  x,y,z
_cell_length_a	12.827893
_cell_length_b	13.897447
_cell_length_c	12.827885
_cell_angle_alpha	89.968996
_cell_angle_beta	89.980728
_cell_angle_gamma	90.019691
loop_
_atom_site_label
_atom_site_type_symbol
_atom_site_fract_x
_atom_site_fract_y
_atom_site_fract_z
Zn1	Zn	1.597640	-0.383964	-0.590840
Zn2	Zn	1.930973	-0.050631	-0.257506
Zn3	Zn	2.264306	0.282703	0.075827
Zn4	Zn	1.597521	-0.545290	-0.416096
Zn5	Zn	1.930854	-0.211957	-0.082763
Zn6	Zn	2.264188	0.121376	0.250570
Zn7	Zn	1.422881	-0.384012	-0.416113
Zn8	Zn	1.756214	-0.050678	-0.082780
Zn9	Zn	2.089548	0.282655	0.250553
Zn10	Zn	1.422854	-0.545219	-0.590796
Zn11	Zn	1.756187	-0.211886	-0.257463
Zn12	Zn	2.089520	0.121447	0.075870
O13	O	1.510224	-0.464621	-0.503462
O14	O	1.843557	-0.131288	-0.170128
O15	O	2.176890	0.202045	0.163205
O16	O	1.743860	-0.405374	-0.567671
O17	O	2.077193	-0.072041	-0.234337
O18	O	2.410527	0.261292	0.098996
O19	O	1.574316	-0.523946	-0.269863
O20	O	1.907650	-0.190613	0.063471
O21	O	2.240983	0.142721	0.396804
O22	O	1.446124	-0.249024	-0.439317
O23	O	1.779457	0.084310	-0.105983
O24	O	2.112791	0.417643	0.227350
O25	O	1.743773	-0.523900	-0.439288
O26	O	2.077106	-0.190567	-0.105954
O27	O	2.410439	0.142767	0.227379
O28	O	1.574518	-0.248989	-0.567687
O29	O	1.907852	0.084345	-0.234354
O30	O	2.241185	0.417678	0.098979
O31	O	1.446009	-0.405455	-0.269875
O32	O	1.779343	-0.072122	0.063458
O33	O	2.112676	0.261211	0.396792
O34	O	1.276641	-0.405386	-0.439274
O35	O	1.609975	-0.072053	-0.105941
O36	O	1.943308	0.261281	0.227392
O37	O	1.446077	-0.523779	-0.737038
O38	O	1.779411	-0.190445	-0.403705
O39	O	2.112744	0.142888	-0.070372
O40	O	1.276621	-0.523825	-0.567613
O41	O	1.609955	-0.190491	-0.234280
O42	O	1.943288	0.142842	0.099053
O43	O	1.574492	-0.405305	-0.737070
O44	O	1.907825	-0.071972	-0.403737
O45	O	2.241159	0.261361	-0.070404
O46	O	1.574290	-0.680263	-0.439245
O47	O	1.907623	-0.346929	-0.105912
O48	O	2.240957	-0.013596	0.227421
O49	O	1.445963	-0.680210	-0.567597
O50	O	1.779296	-0.346877	-0.234263
O51	O	2.112629	-0.013544	0.099070
C52	C	1.238714	-0.464604	-0.503442
C53	C	1.572047	-0.131270	-0.170108
C54	C	1.905381	0.202063	0.163225
C55	C	1.122561	-0.464619	-0.503458
C56	C	1.455894	-0.131286	-0.170125
C57	C	1.789227	0.202047	0.163209
C58	C	1.510139	-0.715236	-0.503437
C59	C	1.843472	-0.381902	-0.170104
C60	C	2.176805	-0.048569	0.163229
C61	C	1.510198	-0.822450	-0.503462
C62	C	1.843531	-0.489116	-0.170129
C63	C	2.176865	-0.155783	0.163205
C64	C	0.950689	-0.523194	-0.439864
C65	C	1.284022	-0.189861	-0.106530
C66	C	1.617356	0.143473	0.226803
C67	C	1.070739	-0.523179	-0.439846
C68	C	1.404073	-0.189846	-0.106512
C69	C	1.737406	0.143487	0.226821
C70	C	1.510249	-0.909519	-0.503486
C71	C	1.843582	-0.576186	-0.170152
C72	C	2.176915	-0.242853	0.163181
C73	C	1.510322	-1.018752	-0.503513
C74	C	1.843655	-0.685418	-0.170179
C75	C	2.176989	-0.352085	0.163154
C76	C	1.782794	-0.464640	-0.503482
C77	C	2.116127	-0.131307	-0.170149
C78	C	2.449461	0.202027	0.163185
C79	C	1.898947	-0.464648	-0.503491
C80	C	2.232280	-0.131314	-0.170158
C81	C	2.565614	0.202019	0.163176
C82	C	1.510295	-0.464529	-0.776032
C83	C	1.843628	-0.131195	-0.442698
C84	C	2.176962	0.202138	-0.109365
C85	C	1.510325	-0.464489	-0.892185
C86	C	1.843659	-0.131156	-0.558852
C87	C	2.176992	0.202177	-0.225518
C88	C	1.510338	-0.213028	-0.503509
C89	C	1.843671	0.120305	-0.170175
C90	C	2.177004	0.453638	0.163158
C91	C	1.510386	-0.105814	-0.503529
C92	C	1.843719	0.227519	-0.170195
C93	C	2.177053	0.560852	0.163138
C94	C	1.573876	-0.405853	-0.943986
C95	C	1.907209	-0.072520	-0.610652
C96	C	2.240542	0.260813	-0.277319
C97	C	1.573908	-0.405811	-1.064036
C98	C	1.907242	-0.072478	-0.730703
C99	C	2.240575	0.260855	-0.397369
C100	C	1.510213	-0.464644	-0.231952
C101	C	1.843546	-0.131311	0.101382
C102	C	2.176880	0.202023	0.434715
C103	C	1.510385	-0.464412	-0.115799
C104	C	1.843719	-0.131078	0.217534
C105	C	2.177052	0.202255	0.550868
H106	H	1.115236	-0.573308	-0.385378
H107	H	1.448569	-0.239975	-0.052044
H108	H	1.781903	0.093358	0.281289
H109	H	1.078071	-0.414496	-0.557938
H110	H	1.411404	-0.081163	-0.224604
H111	H	1.744737	0.252171	0.108729
H112	H	0.906110	-0.573324	-0.385399
H113	H	1.239444	-0.239991	-0.052066
H114	H	1.572777	0.093342	0.281267
H115	H	1.628255	-0.355681	-0.899457
H116	H	1.961589	-0.022347	-0.566124
H117	H	2.294922	0.310986	-0.232790
H118	H	1.455935	-0.514652	-0.936713
H119	H	1.789268	-0.181319	-0.603380
H120	H	2.122602	0.152015	-0.270047
O121	O	1.638719	-0.345947	-1.117333
O122	O	1.972053	-0.012614	-0.783999
O123	O	2.305386	0.320719	-0.450666
C124	C	1.624335	-0.359242	-1.225331
C125	C	1.957668	-0.025909	-0.891998
C126	C	2.291001	0.307424	-0.558664
H127	H	1.543666	-0.390840	-1.240122
H128	H	1.877000	-0.057506	-0.906789
H129	H	2.210333	0.275827	-0.573456
H130	H	1.631424	-0.287011	-1.266899
H131	H	1.964758	0.046323	-0.933565
H132	H	2.298091	0.379656	-0.600232
H133	H	1.686280	-0.410625	-1.256303
H134	H	2.019614	-0.077292	-0.922970
H135	H	2.352947	0.256042	-0.589636
O136	O	1.445618	-0.524354	-1.062552
O137	O	1.778952	-0.191021	-0.729219
O138	O	2.112285	0.142312	-0.395886
C139	C	1.505133	-0.586643	-0.999432
C140	C	1.838466	-0.253309	-0.666098
C141	C	2.171799	0.080024	-0.332765
H142	H	1.584353	-0.552619	-0.983204
H143	H	1.917687	-0.219286	-0.649870
H144	H	2.251020	0.114048	-0.316537
H145	H	1.462615	-0.599529	-0.922628
H146	H	1.795948	-0.266196	-0.589294
H147	H	2.129281	0.067138	-0.255961
H148	H	1.516554	-0.658147	-1.041420
H149	H	1.849887	-0.324813	-0.708087
H150	H	2.183220	0.008520	-0.374754
H151	H	0.943526	-0.414509	-0.557946
H152	H	1.276859	-0.081176	-0.224613
H153	H	1.610192	0.252158	0.108720
