data_functionalizedCrystal
_audit_creation_method	'MofGen! by Chris Wilmer'
_symmetry_space_group_name_H-M	'P1'
_symmetry_Int_Tables_number	1
_symmetry_cell_setting	triclinic
loop_
_symmetry_equiv_pos_as_xyz
  x,y,z
_cell_length_a	16.109301
_cell_length_b	16.109301
_cell_length_c	8.140239
_cell_angle_alpha	90.004566
_cell_angle_beta	89.998749
_cell_angle_gamma	83.461481
loop_
_atom_site_label
_atom_site_type_symbol
_atom_site_fract_x
_atom_site_fract_y
_atom_site_fract_z
O1	O	1.103128	0.106866	0.136515
O2	O	1.436462	0.440199	0.469848
O3	O	1.769795	0.773532	0.803181
O4	O	0.861066	0.120165	0.136542
O5	O	1.194400	0.453498	0.469875
O6	O	1.527733	0.786832	0.803208
O7	O	0.988747	-0.007516	0.136511
O8	O	1.322080	0.325818	0.469844
O9	O	1.655414	0.659151	0.803177
O10	O	0.975448	0.234546	0.136546
O11	O	1.308781	0.567880	0.469879
O12	O	1.642114	0.901213	0.803212
O13	O	0.988743	-0.007517	-0.136716
O14	O	1.322076	0.325817	0.196617
O15	O	1.655410	0.659150	0.529950
O16	O	0.861062	0.120164	-0.136686
O17	O	1.194396	0.453497	0.196648
O18	O	1.527729	0.786831	0.529981
O19	O	1.103124	0.106865	-0.136712
O20	O	1.436458	0.440198	0.196621
O21	O	1.769791	0.773531	0.529954
Zn22	Zn	0.982093	0.113514	-0.180080
Zn23	Zn	1.315426	0.446848	0.153254
Zn24	Zn	1.648759	0.780181	0.486587
Zn25	Zn	0.982098	0.113515	0.179909
Zn26	Zn	1.315431	0.446849	0.513242
Zn27	Zn	1.648765	0.780182	0.846576
O28	O	0.975444	0.234545	-0.136681
O29	O	1.308777	0.567879	0.196652
O30	O	1.642110	0.901212	0.529985
C31	C	0.830090	0.119626	-0.000069
C32	C	1.163423	0.452959	0.333265
C33	C	1.496756	0.786292	0.666598
C34	C	0.737794	0.118011	-0.000059
C35	C	1.071128	0.451344	0.333274
C36	C	1.404461	0.784677	0.666608
C37	C	0.515522	0.190018	-0.000068
C38	C	0.848855	0.523352	0.333266
C39	C	1.182188	0.856685	0.666599
C40	C	0.428801	0.188494	-0.000078
C41	C	0.762135	0.521828	0.333255
C42	C	1.095468	0.855161	0.666588
C43	C	0.448676	0.037006	-0.000094
C44	C	0.782009	0.370339	0.333240
C45	C	1.115342	0.703672	0.666573
C46	C	0.535394	0.038530	-0.000094
C47	C	0.868728	0.371864	0.333239
C48	C	1.202061	0.705197	0.666572
C49	C	0.568815	0.115039	-0.000073
C50	C	0.902148	0.448373	0.333260
C51	C	1.235482	0.781706	0.666593
C52	C	0.395376	0.111990	-0.000083
C53	C	0.728709	0.445324	0.333250
C54	C	1.062042	0.778657	0.666584
C55	C	0.301350	0.110337	-0.000095
C56	C	0.634683	0.443671	0.333239
C57	C	0.968016	0.777004	0.666572
C58	C	0.662847	0.116693	-0.000065
C59	C	0.996180	0.450026	0.333269
C60	C	1.329514	0.783359	0.666602
C61	C	0.988206	-0.038491	-0.000104
C62	C	1.321540	0.294842	0.333230
C63	C	1.654873	0.628176	0.666563
C64	C	0.986591	-0.130786	-0.000106
C65	C	1.319925	0.202547	0.333228
C66	C	1.653258	0.535880	0.666561
C67	C	1.058599	-0.353059	-0.000088
C68	C	1.391932	-0.019725	0.333246
C69	C	1.725266	0.313608	0.666579
C70	C	1.057075	-0.439779	-0.000074
C71	C	1.390408	-0.106446	0.333259
C72	C	1.723742	0.226888	0.666593
C73	C	0.905586	-0.419905	-0.000064
C74	C	1.238919	-0.086571	0.333270
C75	C	1.572253	0.246762	0.666603
C76	C	0.907111	-0.333186	-0.000066
C77	C	1.240444	0.000147	0.333268
C78	C	1.573778	0.333481	0.666601
C79	C	0.983620	-0.299766	-0.000086
C80	C	1.316953	0.033568	0.333247
C81	C	1.650287	0.366901	0.666581
C82	C	0.980571	-0.473205	-0.000070
C83	C	1.313904	-0.139871	0.333263
C84	C	1.647238	0.193462	0.666596
C85	C	0.978918	-0.567231	-0.000056
C86	C	1.312251	-0.233897	0.333278
C87	C	1.645585	0.099436	0.666611
C88	C	0.985273	-0.205734	-0.000098
C89	C	1.318607	0.127600	0.333236
C90	C	1.651940	0.460933	0.666569
C91	C	1.134101	0.107404	-0.000098
C92	C	1.467435	0.440737	0.333235
C93	C	1.800768	0.774071	0.666568
C94	C	1.226397	0.109019	-0.000097
C95	C	1.559730	0.442352	0.333236
C96	C	1.893063	0.775686	0.666569
C97	C	0.975984	0.265521	-0.000064
C98	C	1.309318	0.598854	0.333270
C99	C	1.642651	0.932187	0.666603
C100	C	0.977600	0.357816	-0.000051
C101	C	1.310933	0.691149	0.333283
C102	C	1.644266	1.024483	0.666616
N103	N	0.982095	0.113513	-0.425762
N104	N	1.315428	0.446846	-0.092429
N105	N	1.648762	0.780180	0.240905
N106	N	0.982102	0.113510	0.425591
N107	N	1.315436	0.446843	0.758925
N108	N	1.648769	0.780177	1.092258
H109	H	0.542730	0.252317	-0.000063
H110	H	0.876063	0.585650	0.333271
H111	H	1.209396	0.918983	0.666604
F112	F	0.372086	0.268298	-0.000075
F113	F	0.705419	0.601631	0.333258
F114	F	1.038753	0.934964	0.666592
H115	H	0.421454	-0.025285	-0.000121
H116	H	0.754787	0.308048	0.333213
H117	H	1.088121	0.641381	0.666546
F118	F	0.827304	-0.276464	-0.000052
F119	F	1.160637	0.056870	0.333281
F120	F	1.493970	0.390203	0.666615
H121	H	0.578788	-0.022530	-0.000104
H122	H	0.912122	0.310803	0.333230
H123	H	1.245455	0.644136	0.666563
H124	H	1.120897	-0.325851	-0.000101
H125	H	1.454231	0.007482	0.333233
H126	H	1.787564	0.340816	0.666566
H127	H	0.843295	-0.447127	-0.000050
H128	H	1.176628	-0.113793	0.333283
H129	H	1.509962	0.219540	0.666616
H130	H	1.118130	-0.483168	-0.000072
H131	H	1.451464	-0.149834	0.333261
H132	H	1.784797	0.183499	0.666595
