data_functionalizedCrystal
_audit_creation_method	'MofGen! by Chris Wilmer'
_symmetry_space_group_name_H-M	'P1'
_symmetry_Int_Tables_number	1
_symmetry_cell_setting	triclinic
loop_
_symmetry_equiv_pos_as_xyz
  x,y,z
_cell_length_a	11.169416
_cell_length_b	11.169417
_cell_length_c	11.169409
_cell_angle_alpha	89.978317
_cell_angle_beta	90.031365
_cell_angle_gamma	89.990913
loop_
_atom_site_label
_atom_site_type_symbol
_atom_site_fract_x
_atom_site_fract_y
_atom_site_fract_z
Zn1	Zn	-0.477744	-1.834964	0.678610
Zn2	Zn	-0.144411	-1.501631	1.011944
Zn3	Zn	0.188923	-1.168297	1.345277
Zn4	Zn	-0.678484	-1.834854	0.477931
Zn5	Zn	-0.345151	-1.501521	0.811264
Zn6	Zn	-0.011818	-1.168187	1.144597
Zn7	Zn	-0.477810	-1.634250	0.477938
Zn8	Zn	-0.144477	-1.300916	0.811272
Zn9	Zn	0.188856	-0.967583	1.144605
Zn10	Zn	-0.678380	-1.634258	0.678569
Zn11	Zn	-0.345047	-1.300925	1.011902
Zn12	Zn	-0.011713	-0.967591	1.345236
O13	O	-0.578105	-1.734581	0.578262
O14	O	-0.244771	-1.401248	0.911595
O15	O	0.088562	-1.067915	1.244929
O16	O	-0.504389	-2.002899	0.652004
O17	O	-0.171055	-1.669566	0.985337
O18	O	0.162278	-1.336232	1.318671
O19	O	-0.651936	-1.808194	0.309982
O20	O	-0.318603	-1.474861	0.643315
O21	O	0.014731	-1.141527	0.976649
O22	O	-0.309852	-1.660918	0.504578
O23	O	0.023482	-1.327584	0.837912
O24	O	0.356815	-0.994251	1.171245
O25	O	-0.651872	-2.002818	0.504565
O26	O	-0.318538	-1.669485	0.837899
O27	O	0.014795	-1.336152	1.171232
O28	O	-0.309803	-1.808381	0.652011
O29	O	0.023530	-1.475048	0.985345
O30	O	0.356864	-1.141715	1.318678
O31	O	-0.504502	-1.660811	0.309987
O32	O	-0.171168	-1.327478	0.643321
O33	O	0.162165	-0.994144	0.976654
O34	O	-0.504400	-1.466301	0.504538
O35	O	-0.171067	-1.132968	0.837872
O36	O	0.162266	-0.799635	1.171205
O37	O	-0.651694	-1.660931	0.846524
O38	O	-0.318360	-1.327598	1.179858
O39	O	0.014973	-0.994265	1.513191
O40	O	-0.651758	-1.466307	0.651941
O41	O	-0.318425	-1.132974	0.985274
O42	O	0.014909	-0.799641	1.318607
O43	O	-0.504287	-1.808389	0.846555
O44	O	-0.170954	-1.475056	1.179888
O45	O	0.162379	-1.141723	1.513221
O46	O	-0.846420	-1.808202	0.504525
O47	O	-0.513087	-1.474869	0.837859
O48	O	-0.179754	-1.141535	1.171192
O49	O	-0.846344	-1.660825	0.651933
O50	O	-0.513010	-1.327492	0.985267
O51	O	-0.179677	-0.994158	1.318600
C52	C	-0.578076	-1.422757	0.578237
C53	C	-0.244743	-1.089423	0.911570
C54	C	0.088591	-0.756090	1.244903
C55	C	-0.578093	-1.289357	0.578254
C56	C	-0.244759	-0.956023	0.911587
C57	C	0.088574	-0.622690	1.244921
C58	C	-0.889929	-1.734535	0.578250
C59	C	-0.556596	-1.401202	0.911584
C60	C	-0.223263	-1.067868	1.244917
C61	C	-1.023329	-1.734625	0.578285
C62	C	-0.689996	-1.401291	0.911619
C63	C	-0.356663	-1.067958	1.244952
C64	C	-0.265062	-1.734661	0.578300
C65	C	0.068271	-1.401327	0.911634
C66	C	0.401604	-1.067994	1.244967
C67	C	-0.131662	-1.734695	0.578316
C68	C	0.201671	-1.401361	0.911650
C69	C	0.535004	-1.068028	1.244983
C70	C	-0.577971	-1.734674	0.891305
C71	C	-0.244638	-1.401340	1.224638
C72	C	0.088695	-1.068007	1.557971
C73	C	-0.577915	-1.734713	1.024705
C74	C	-0.244581	-1.401379	1.358038
C75	C	0.088752	-1.068046	1.691371
C76	C	-0.578124	-1.047624	0.578279
C77	C	-0.244791	-0.714290	0.911612
C78	C	0.088542	-0.380957	1.244946
C79	C	-0.578107	-1.181024	0.578262
C80	C	-0.244773	-0.847690	0.911595
C81	C	0.088560	-0.514357	1.244928
C82	C	-0.578151	-1.734559	0.266437
C83	C	-0.244817	-1.401225	0.599771
C84	C	0.088516	-1.067892	0.933104
C85	C	-0.577870	-1.734752	0.133038
C86	C	-0.244536	-1.401419	0.466371
C87	C	0.088797	-1.068085	0.799705
