data_functionalizedCrystal
_audit_creation_method	'MofGen! by Chris Wilmer'
_symmetry_space_group_name_H-M	'P1'
_symmetry_Int_Tables_number	1
_symmetry_cell_setting	triclinic
loop_
_symmetry_equiv_pos_as_xyz
  x,y,z
_cell_length_a	12.759401
_cell_length_b	10.686285
_cell_length_c	12.759393
_cell_angle_alpha	85.602987
_cell_angle_beta	89.979062
_cell_angle_gamma	85.633237
loop_
_atom_site_label
_atom_site_type_symbol
_atom_site_fract_x
_atom_site_fract_y
_atom_site_fract_z
Zn1	Zn	1.638400	-0.502237	-0.562006
Zn2	Zn	1.651794	-0.713276	-0.372873
Zn3	Zn	1.462703	-0.502304	-0.386337
Zn4	Zn	1.476188	-0.713187	-0.548516
O5	O	1.557272	-0.607751	-0.467433
O6	O	1.787199	-0.530240	-0.536928
O7	O	1.626673	-0.685355	-0.227634
O8	O	1.474761	-0.325719	-0.420919
O9	O	1.797039	-0.685290	-0.397973
O10	O	1.603845	-0.325669	-0.549983
O11	O	1.487749	-0.530355	-0.237525
O12	O	1.317471	-0.530269	-0.407839
O13	O	1.497744	-0.685139	-0.697331
O14	O	1.327378	-0.685204	-0.526992
O15	O	1.616921	-0.530155	-0.707241
O16	O	1.639748	-0.889840	-0.384893
O17	O	1.510731	-0.889775	-0.513937
C18	C	1.284303	-0.607735	-0.467413
C19	C	1.167528	-0.607759	-0.467427
C20	C	1.117860	-0.688557	-0.529357
C21	C	1.008136	-0.688562	-0.529377
C22	C	0.997758	-0.526968	-0.405531
C23	C	1.107479	-0.526957	-0.405516
C24	C	1.578185	-0.935592	-0.446513
C25	C	1.587228	-1.075844	-0.437599
C26	C	1.831306	-0.607767	-0.467453
C27	C	1.948083	-0.607774	-0.467462
C28	C	1.557342	-0.607630	-0.741474
C29	C	1.557373	-0.607578	-0.858254
C30	C	1.536305	-0.278630	-0.488457
C31	C	1.527370	-0.138378	-0.497417
C32	C	1.619432	-0.526865	-0.918279
C33	C	1.619446	-0.526810	-1.028007
C34	C	1.495340	-0.688194	-1.017674
C35	C	1.495320	-0.688241	-0.907949
C36	C	1.557256	-0.607780	-0.194464
C37	C	1.557406	-0.607477	-0.077707
H38	H	1.166749	-0.754348	-0.579772
H39	H	0.948853	-0.461184	-0.355123
H40	H	1.444821	-0.753869	-1.058149
O41	O	1.435184	-0.766714	-0.849513
C42	C	1.431886	-0.937169	-0.714780
C43	C	1.500111	-0.848368	-0.780870
H44	H	1.484353	-1.003226	-0.659282
H45	H	1.373275	-0.879319	-0.667028
H46	H	1.387518	-0.994762	-0.769167
H47	H	1.544546	-0.790756	-0.726561
H48	H	1.558657	-0.906291	-0.828633
H49	H	1.147919	-0.461154	-0.355087
O50	O	1.457838	-1.074312	-0.566546
C51	C	1.276534	-1.033939	-0.619977
C52	C	1.355161	-1.106558	-0.541601
H53	H	1.193504	-1.060004	-0.599850
H54	H	1.281269	-0.928443	-0.615077
H55	H	1.296637	-1.059677	-0.703083
H56	H	1.335110	-1.080926	-0.458459
H57	H	1.350411	-1.212037	-0.546593
O58	O	1.656629	-1.140168	-0.368471
C59	C	1.729184	-1.343296	-0.296220
C60	C	1.650544	-1.270607	-0.374544
H61	H	1.724275	-1.448769	-0.301088
H62	H	1.812250	-1.317424	-0.316418
H63	H	1.709192	-1.317496	-0.213106
H64	H	1.670439	-1.296369	-0.457685
H65	H	1.567500	-1.296486	-0.354255
O66	O	1.679576	-0.448321	-0.870066
C67	C	1.716933	-0.233700	-0.850273
C68	C	1.648732	-0.322513	-0.904924
H69	H	1.692036	-0.131966	-0.878451
H70	H	1.706254	-0.247483	-0.761532
H71	H	1.803062	-0.255917	-0.870431
H72	H	1.562578	-0.300350	-0.884850
H73	H	1.659501	-0.308713	-0.993651
O74	O	0.960060	-0.767170	-0.589559
C75	C	0.981937	-0.927398	-0.712441
C76	C	1.036518	-0.838457	-0.644311
H77	H	1.043728	-0.985038	-0.756743
H78	H	0.934780	-0.993394	-0.659962
H79	H	0.926878	-0.869530	-0.771115
H80	H	1.091628	-0.896223	-0.585629
H81	H	1.083609	-0.772458	-0.696856
H82	H	1.669980	-0.461083	-1.076875
