data_functionalizedCrystal
_audit_creation_method	'MofGen! by Chris Wilmer'
_symmetry_space_group_name_H-M	'P1'
_symmetry_Int_Tables_number	1
_symmetry_cell_setting	triclinic
loop_
_symmetry_equiv_pos_as_xyz
  x,y,z
_cell_length_a	31.640171
_cell_length_b	31.640172
_cell_length_c	31.640172
_cell_angle_alpha	90.008445
_cell_angle_beta	60.000817
_cell_angle_gamma	59.979319
loop_
_atom_site_label
_atom_site_type_symbol
_atom_site_fract_x
_atom_site_fract_y
_atom_site_fract_z
Zr1	Zr	0.462735	0.406963	-0.055534
O2	O	0.550942	0.339431	-0.123049
O3	O	0.374529	0.427694	-0.034821
O4	O	0.462724	0.427651	-0.123013
O5	O	0.462755	0.339474	0.034692
O6	O	0.462715	0.497208	-0.123003
O7	O	0.462746	0.339473	-0.034857
O8	O	0.304950	0.497285	0.034756
O9	O	0.620520	0.339398	-0.123068
O10	O	0.410803	0.488410	-0.026000
O11	O	0.410816	0.436501	0.025896
O12	O	0.514655	0.436451	-0.077939
O13	O	0.514668	0.384542	-0.026043
Zr14	Zr	0.462735	0.517900	0.055402
Zr15	Zr	0.462721	0.517898	-0.055520
Zr16	Zr	0.462749	0.406964	0.055387
Zr17	Zr	0.573705	0.406911	-0.055565
Zr18	Zr	0.351765	0.517952	0.055433
O19	O	0.550942	0.497169	0.034688
O20	O	0.550922	0.497167	-0.123028
O21	O	0.550962	0.339433	0.034667
O22	O	0.374529	0.585432	0.122916
O23	O	0.374509	0.585430	-0.034800
O24	O	0.374549	0.427696	0.122895
O25	O	0.462715	0.585388	-0.034824
O26	O	0.462746	0.497212	0.122880
O27	O	0.462755	0.427655	0.122871
O28	O	0.462724	0.585389	0.034724
O29	O	0.620509	0.427577	-0.123056
O30	O	0.304961	0.497286	0.122924
O31	O	0.304950	0.585465	0.122936
O32	O	0.304939	0.585464	0.034768
O33	O	0.620531	0.339399	-0.034900
O34	O	0.620520	0.427578	-0.034889
O35	O	0.410816	0.488412	0.077806
O36	O	0.410803	0.540321	0.025910
O37	O	0.514655	0.488361	-0.026029
O38	O	0.514668	0.436452	0.025868
C39	C	0.323929	0.462497	-0.000028
C40	C	0.276819	0.462519	-0.000015
C41	C	-0.097747	0.500774	0.038261
C42	C	0.079206	0.500820	0.038290
O43	O	0.069473	0.533442	0.070880
N44	N	0.139681	0.462486	-0.000038
C45	C	0.155918	0.424140	-0.038378
O46	O	0.211416	0.391540	-0.070980
C47	C	-0.021035	0.424097	-0.038408
C48	C	-0.081510	0.462430	-0.000075
C49	C	-0.158219	0.539104	0.076591
C50	C	-0.202454	0.539091	0.076585
C51	C	-0.186217	0.500747	0.038249
C52	C	-0.125745	0.462417	-0.000081
C53	C	-0.004797	0.385754	-0.076749
C54	C	-0.049042	0.385747	-0.076754
C55	C	-0.109517	0.424080	-0.038421
C56	C	-0.153743	0.424060	-0.038422
N57	N	-0.214218	0.462393	-0.000095
C58	C	-0.230456	0.500737	0.038241
C59	C	0.248818	0.424165	-0.038359
C60	C	0.293056	0.424175	-0.038351
C61	C	0.216341	0.500855	0.038316
C62	C	0.172103	0.500843	0.038310
C63	C	0.188343	0.462499	-0.000031
C64	C	-0.323350	0.500705	0.038226
C65	C	-0.367586	0.500687	0.038218
C66	C	-0.290867	0.424009	-0.038450
C67	C	-0.246635	0.424025	-0.038441
C68	C	-0.262881	0.462378	-0.000100
O69	O	-0.144055	0.391457	-0.070999
O70	O	-0.285956	0.533340	0.070832
C71	C	-0.053512	0.500787	0.038267
C72	C	0.006961	0.462457	-0.000063
C73	C	0.023198	0.424114	-0.038399
C74	C	0.051199	0.462467	-0.000055
C75	C	0.034962	0.500811	0.038281
C76	C	-0.025514	0.539145	0.076609
C77	C	-0.069749	0.539131	0.076603
C78	C	0.083673	0.385780	-0.076727
C79	C	0.127905	0.385796	-0.076717
C80	C	0.111668	0.424140	-0.038381
C81	C	0.462753	0.323668	-0.000085
C82	C	0.462759	0.276573	-0.000091
C83	C	0.408520	0.011689	0.027056
C84	C	0.408510	-0.165296	0.027066
O85	O	0.362406	-0.165115	0.050142
N86	N	0.462719	-0.214548	-0.000046
C87	C	0.516934	-0.219553	-0.027160
O88	O	0.563042	-0.265506	-0.050216
C89	C	0.516944	-0.042568	-0.027167
C90	C	0.462732	0.006683	-0.000057
C91	C	0.354312	0.060939	0.054164
C92	C	0.354315	0.105182	0.054158
C93	C	0.408527	0.100176	0.027045
C94	C	0.462735	0.050927	-0.000062
C95	C	0.571159	-0.047574	-0.054278
C96	C	0.571157	-0.003322	-0.054276
C97	C	0.516944	0.045929	-0.027166
C98	C	0.516949	0.090164	-0.027181
N99	N	0.462740	0.139416	-0.000069
C100	C	0.408529	0.144422	0.027045
C101	C	0.516926	-0.312470	-0.027155
C102	C	0.516923	-0.356716	-0.027155
C103	C	0.408498	-0.302456	0.027072
C104	C	0.408501	-0.258210	0.027068
C105	C	0.462716	-0.263218	-0.000043
C106	C	0.408540	0.237334	0.027031
C107	C	0.408547	0.281579	0.027022
C108	C	0.516972	0.227315	-0.027202
C109	C	0.516964	0.183074	-0.027196
C110	C	0.462743	0.188087	-0.000075
O111	O	0.563029	0.090023	-0.050240
O112	O	0.362428	0.190379	0.050106
C113	C	0.408517	-0.032554	0.027061
C114	C	0.462725	-0.081803	-0.000047
C115	C	0.516937	-0.086809	-0.027160
C116	C	0.462723	-0.126049	-0.000046
C117	C	0.408512	-0.121043	0.027067
C118	C	0.354303	-0.071791	0.054179
C119	C	0.354306	-0.027548	0.054174
C120	C	0.571146	-0.136061	-0.054272
C121	C	0.571138	-0.180302	-0.054265
C122	C	0.516927	-0.175296	-0.027152
C123	C	0.601542	0.462366	-0.000105
C124	C	0.648652	0.462344	-0.000118
C125	C	0.462718	0.462429	-0.138812
C126	C	0.462712	0.462429	-0.185901
C127	C	0.462718	0.601195	-0.000048
C128	C	0.462712	0.648290	-0.000041
C129	C	0.516950	0.435314	-0.505048
C130	C	0.516961	0.435314	-0.682043
O131	O	0.563064	0.412267	-0.727987
N132	N	0.462752	0.462436	-0.677062
C133	C	0.408536	0.489562	-0.627827
O134	O	0.362428	0.512634	-0.627651
C135	C	0.408527	0.489564	-0.450833
C136	C	0.462739	0.462436	-0.455818
C137	C	0.571159	0.408189	-0.510031
C138	C	0.571155	0.408187	-0.465784
C139	C	0.516944	0.435310	-0.416555
C140	C	0.462736	0.462434	-0.411572
C141	C	0.354312	0.516692	-0.401599
C142	C	0.354314	0.516691	-0.357350
C143	C	0.408527	0.489564	-0.362335
C144	C	0.408522	0.489554	-0.318095
N145	N	0.462731	0.462433	-0.323077
C146	C	0.516942	0.435311	-0.372306
C147	C	0.408545	0.489558	-0.720753
C148	C	0.408547	0.489556	-0.765002
C149	C	0.516972	0.435310	-0.819215
C150	C	0.516969	0.435309	-0.774966
C151	C	0.462754	0.462436	-0.725735
C152	C	0.516931	0.435308	-0.279384
C153	C	0.516923	0.435306	-0.235131
C154	C	0.408499	0.489555	-0.180922
C155	C	0.408506	0.489554	-0.225170
C156	C	0.462727	0.462430	-0.274403
O157	O	0.362442	0.512595	-0.272137
O158	O	0.563043	0.412251	-0.372471
C159	C	0.516954	0.435316	-0.549294
C160	C	0.462745	0.462441	-0.544311
C161	C	0.408534	0.489563	-0.495081
C162	C	0.462748	0.462439	-0.588559
C163	C	0.516959	0.435317	-0.637789
C164	C	0.571168	0.408196	-0.642770
C165	C	0.571165	0.408194	-0.598524
C166	C	0.354325	0.516684	-0.490100
C167	C	0.354333	0.516684	-0.534349
C168	C	0.408544	0.489561	-0.583578
C169	C	0.462753	0.462433	0.138680
C170	C	0.462759	0.462434	0.185769
C171	C	0.323911	0.601260	-0.000009
C172	C	0.276796	0.648377	0.000010
C173	C	0.323946	0.462499	0.138718
C174	C	0.276843	0.462522	0.185820
C175	C	0.323929	0.601262	0.138736
C176	C	0.276819	0.648380	0.185845
C177	C	0.601542	0.323601	-0.138869
C178	C	0.648652	0.276483	-0.185977
C179	C	0.601559	0.323603	-0.000123
C180	C	0.648675	0.276485	-0.000142
C181	C	0.601524	0.462364	-0.138850
C182	C	0.648628	0.462341	-0.185953
C183	C	0.254670	0.643408	-0.027082
C184	C	0.210406	0.687675	-0.027074
C185	C	0.188266	0.736912	0.000029
C186	C	0.210396	0.741881	0.027122
C187	C	0.254662	0.697614	0.027111
C188	C	0.254722	0.489629	0.235041
C189	C	0.210469	0.489649	0.279302
C190	C	0.188335	0.462564	0.274342
C191	C	0.210460	0.435453	0.225116
C192	C	0.254715	0.435430	0.180856
C193	C	0.254689	0.697608	0.180878
C194	C	0.210431	0.741884	0.225137
C195	C	0.188300	0.736932	0.274362
C196	C	0.210435	0.687699	0.279328
C197	C	0.254695	0.643424	0.235070
C198	C	0.670787	0.227255	-0.181011
C199	C	0.715059	0.182979	-0.225270
C200	C	0.737192	0.187931	-0.274495
C201	C	0.715055	0.237164	-0.279461
C202	C	0.670786	0.281439	-0.235202
C203	C	0.670806	0.281455	0.026945
C204	C	0.715082	0.237188	0.026925
C205	C	0.737224	0.187951	-0.000180
C206	C	0.715091	0.182982	-0.027270
C207	C	0.670819	0.227249	-0.027253
C208	C	0.670749	0.489432	-0.180976
C209	C	0.715002	0.489420	-0.225229
C210	C	0.737136	0.462315	-0.274458
C211	C	0.715012	0.435224	-0.279434
C212	C	0.670756	0.435238	-0.235182
H213	H	0.122863	0.532057	0.069524
O214	O	0.188877	0.516026	0.327144
C215	C	0.126853	0.554093	0.354380
H216	H	0.108075	0.542708	0.337498
H217	H	0.103929	0.557389	0.396968
H218	H	0.118402	0.592963	0.350700
O219	O	0.649148	0.515803	-0.133130
C220	C	0.587125	0.553869	-0.105900
H221	H	0.568353	0.542484	-0.122790
H222	H	0.564194	0.557163	-0.063312
H223	H	0.578673	0.592739	-0.109577
H224	H	0.615292	-0.140145	-0.076352
H225	H	0.561113	0.413224	-0.859306
H226	H	0.192393	0.683619	-0.049137
H227	H	0.152300	0.462586	0.310386
O228	O	0.649365	0.222325	-0.053570
C229	C	0.678415	0.169374	-0.077504
H230	H	0.696664	0.145775	-0.056260
H231	H	0.645216	0.163212	-0.076033
H232	H	0.716853	0.156317	-0.119570
H233	H	0.733011	0.511480	-0.221167
O234	O	0.649386	0.329242	0.053285
C235	C	0.678411	0.324125	0.077196
H236	H	0.723279	0.284617	0.055924
H237	H	0.686033	0.355859	0.075740
H238	H	0.649391	0.327762	0.119257
H239	H	0.733095	0.241244	0.048988
H240	H	0.272701	0.701650	0.140800
H241	H	0.364362	0.511636	-0.221110
H242	H	0.615310	0.386104	-0.602590
O243	O	0.780146	0.462336	-0.317390
C244	C	0.794910	0.492072	-0.302434
H245	H	0.782713	0.494109	-0.261590
H246	H	0.844936	0.473291	-0.330398
H247	H	0.769018	0.532859	-0.303221
H248	H	0.272739	0.511685	0.239089
O249	O	0.736604	0.408900	-0.327296
C250	C	0.780399	0.414709	-0.365281
H251	H	0.799743	0.424686	-0.348030
H252	H	0.817649	0.376977	-0.399416
H253	H	0.759220	0.447158	-0.379113
O254	O	0.301593	0.065900	0.080510
C255	C	0.253756	0.118861	0.104443
H256	H	0.269661	0.142440	0.083184
H257	H	0.215837	0.125057	0.102996
H258	H	0.237089	0.131913	0.146502
O259	O	0.780175	0.144913	-0.000178
C260	C	0.758553	0.115277	0.021379
H261	H	0.720904	0.124964	0.017707
H262	H	0.796365	0.072335	-0.000143
H263	H	0.740908	0.124568	0.064004
O264	O	0.276064	0.702538	0.053480
C265	C	0.247035	0.755489	0.077392
H266	H	0.202173	0.779101	0.082759
H267	H	0.239397	0.761671	0.116757
H268	H	0.276060	0.768513	0.051998
H269	H	0.192431	0.413401	0.221085
H270	H	0.733126	0.142888	-0.049338
O271	O	0.623877	-0.008281	-0.080659
C272	C	0.671719	-0.061241	-0.104572
H273	H	0.655821	-0.084828	-0.109928
H274	H	0.709636	-0.067437	-0.143942
H275	H	0.688388	-0.074282	-0.079183
H276	H	0.652769	0.223213	-0.140933
O277	O	0.145244	0.779857	0.000005
C278	C	0.130476	0.764906	-0.029730
H279	H	0.142684	0.724053	-0.031771
H280	H	0.080446	0.792879	-0.010956
H281	H	0.156355	0.765694	-0.070506
O282	O	0.276110	0.409094	0.133082
C283	C	0.247089	0.385187	0.138202
H284	H	0.202232	0.406463	0.177706
H285	H	0.239443	0.386652	0.106481
H286	H	0.276124	0.343114	0.134560
H287	H	0.342295	0.392955	-0.069560
H288	H	0.652751	0.413176	-0.239241
H289	H	0.192413	0.781968	0.221085
O290	O	0.301597	0.543092	-0.396659
C291	C	0.253753	0.567021	-0.343716
H292	H	0.269651	0.572371	-0.320122
H293	H	0.215838	0.606405	-0.337533
H294	H	0.237081	0.541640	-0.330680
H295	H	0.152260	0.772988	0.310396
H296	H	0.192409	0.683675	0.319413
O297	O	0.736563	0.135186	-0.220373
C298	C	0.762169	0.129506	-0.193086
H299	H	0.742170	0.169353	-0.168661
H300	H	0.752456	0.106246	-0.166779
H301	H	0.812585	0.108329	-0.221751
H302	H	0.310183	0.538772	-0.530281
H303	H	0.192363	0.781975	0.049188
O304	O	0.276101	0.595644	0.239990
C305	C	0.247082	0.600774	0.292930
H306	H	0.202220	0.640288	0.316535
H307	H	0.239444	0.569050	0.299104
H308	H	0.276113	0.597132	0.305958
H309	H	0.733081	0.241190	-0.319545
O310	O	0.355879	0.515828	-0.133068
C311	C	0.352628	0.481044	-0.105861
H312	H	0.399696	0.445351	-0.122775
H313	H	0.329692	0.500711	-0.063273
H314	H	0.325869	0.468942	-0.109532
O315	O	0.780173	0.144866	-0.317432
C316	C	0.794969	0.100356	-0.302486
H317	H	0.756146	0.110542	-0.261633
H318	H	0.804165	0.069097	-0.330440
H319	H	0.836559	0.085439	-0.303300
H320	H	0.652764	0.321521	-0.239252
H321	H	-0.416829	0.531903	0.069436
H322	H	0.310162	-0.067722	0.076252
H323	H	-0.336586	0.531936	0.069447
H324	H	0.615301	0.386100	-0.469850
H325	H	0.364402	0.511639	-0.760936
H326	H	-0.251694	0.570307	0.107799
O327	O	0.186643	0.348598	-0.114022
C328	C	0.199132	0.351017	-0.163076
H329	H	0.164514	0.391443	-0.158629
H330	H	0.245617	0.342276	-0.189106
H331	H	0.197367	0.321287	-0.181160
H332	H	-0.171450	0.570331	0.107809
H333	H	0.203127	0.532075	0.069532
H334	H	0.262052	0.392939	-0.069582
H335	H	-0.035811	0.354524	-0.107978
O336	O	0.053914	0.348494	-0.114040
C337	C	0.058745	0.314649	-0.147867
H338	H	0.015954	0.335298	-0.146031
H339	H	0.098337	0.302274	-0.189105
H340	H	0.065851	0.279008	-0.135819
H341	H	-0.197391	0.392799	-0.069642
H342	H	-0.277655	0.392789	-0.069661
H343	H	-0.118988	0.570346	0.107818
H344	H	-0.038727	0.570364	0.107825
H345	H	0.272696	0.603320	-0.049159
H346	H	0.364399	0.321682	0.049100
H347	H	0.096903	0.354556	-0.107945
O348	O	0.355832	0.242273	0.053449
C349	C	0.322863	0.269586	0.106347
H350	H	0.338288	0.293994	0.110770
H351	H	0.273270	0.295922	0.122960
H352	H	0.330371	0.240930	0.128087
H353	H	0.310170	0.145281	0.076232
H354	H	0.364357	-0.218110	0.049148
H355	H	0.364357	-0.298387	0.049146
O356	O	0.301685	0.542967	-0.309500
C357	C	0.298433	0.508180	-0.282296
H358	H	0.345501	0.472492	-0.299202
H359	H	0.275482	0.527849	-0.239705
H360	H	0.271686	0.496071	-0.285982
H361	H	0.561069	-0.396816	-0.049237
H362	H	0.561076	-0.316557	-0.049236
H363	H	0.561109	0.142970	-0.049277
O364	O	0.623783	-0.095438	-0.080533
C365	C	0.627033	-0.122642	-0.045744
H366	H	0.579965	-0.105719	-0.010071
H367	H	0.649983	-0.165241	-0.065404
H368	H	0.653780	-0.118965	-0.033626
O369	O	0.355859	0.515840	-0.672945
C370	C	0.322890	0.495932	-0.667295
H371	H	0.354624	0.454612	-0.695325
H372	H	0.298288	0.496016	-0.625903
H373	H	0.289098	0.521067	-0.676088
H374	H	0.310160	0.012551	0.076250
O375	O	0.623843	-0.228117	-0.080678
C376	C	0.656816	-0.233821	-0.133579
H377	H	0.641398	-0.193984	-0.138012
H378	H	0.706409	-0.257118	-0.150190
H379	H	0.649305	-0.254973	-0.155312
O380	O	0.569577	0.222550	-0.053493
C381	C	0.557948	0.272166	-0.047689
H382	H	0.511357	0.301522	-0.011083
H383	H	0.592567	0.271665	-0.044593
H384	H	0.560516	0.283432	-0.082698
O385	O	0.623814	0.381932	-0.690608
C386	C	0.627039	0.416722	-0.717814
H387	H	0.596272	0.457559	-0.689086
H388	H	0.674983	0.404958	-0.742293
H389	H	0.612471	0.415782	-0.744064
H390	H	0.561083	0.413221	-0.319466
O391	O	0.569642	0.408947	-0.240068
C392	C	0.617488	0.385000	-0.293010
H393	H	0.601593	0.406264	-0.316599
H394	H	0.655401	0.386439	-0.299180
H395	H	0.634162	0.342935	-0.306062
H396	H	0.561114	0.413219	-0.779030
O397	O	0.623878	0.381793	-0.557812
C398	C	0.671714	0.357868	-0.552709
H399	H	0.655810	0.352520	-0.513219
H400	H	0.709634	0.318484	-0.584450
H401	H	0.688382	0.383252	-0.556332
O402	O	0.301608	0.543039	-0.442319
C403	C	0.253769	0.566985	-0.447419
H404	H	0.269674	0.545724	-0.486915
H405	H	0.215855	0.565542	-0.415686
H406	H	0.237093	0.609051	-0.443779
