data_functionalizedCrystal
_audit_creation_method	'MofGen! by Chris Wilmer'
_symmetry_space_group_name_H-M	'P1'
_symmetry_Int_Tables_number	1
_symmetry_cell_setting	triclinic
loop_
_symmetry_equiv_pos_as_xyz
  x,y,z
_cell_length_a	27.731994
_cell_length_b	27.732048
_cell_length_c	26.210047
_cell_angle_alpha	90.024710
_cell_angle_beta	89.985111
_cell_angle_gamma	97.368405
loop_
_atom_site_label
_atom_site_type_symbol
_atom_site_fract_x
_atom_site_fract_y
_atom_site_fract_z
O1	O	0.640955	-0.057401	-0.042362
O2	O	0.500157	-0.066174	-0.042379
O3	O	0.574929	0.008610	-0.042360
O4	O	0.566183	-0.132185	-0.042381
O5	O	0.574902	0.008630	0.042498
O6	O	0.500130	-0.066154	0.042479
O7	O	0.640928	-0.057381	0.042496
Cu8	Cu	0.570527	-0.061765	0.050236
Cu9	Cu	0.570559	-0.061790	-0.050119
O10	O	0.566156	-0.132165	0.042477
C11	C	0.482137	-0.065984	0.000047
C12	C	0.428480	-0.065442	0.000041
C13	C	0.095747	-0.062015	0.046317
C14	C	-0.105911	-0.059953	0.046324
O15	O	-0.131996	-0.059656	0.085663
N16	N	-0.131111	-0.059708	0.000067
C17	C	-0.105893	-0.059976	-0.046193
O18	O	-0.131954	-0.059715	-0.085537
C19	C	0.095764	-0.062034	-0.046199
C20	C	0.120961	-0.062283	0.000060
C21	C	0.120944	-0.062264	0.092573
C22	C	0.171355	-0.062782	0.092571
C23	C	0.196569	-0.063051	0.046313
C24	C	0.171372	-0.062801	0.000058
C25	C	0.120982	-0.062298	-0.092459
C26	C	0.171400	-0.062811	-0.092457
C27	C	0.196597	-0.063061	-0.046197
C28	C	0.246998	-0.063588	-0.046201
N29	N	0.272198	-0.063833	0.000055
C30	C	0.246984	-0.063564	0.046312
C31	C	-0.211767	-0.058896	-0.046187
C32	C	-0.262181	-0.058382	-0.046186
C33	C	-0.262195	-0.058359	0.046331
C34	C	-0.211780	-0.058876	0.046329
C35	C	-0.186566	-0.059141	0.000069
C36	C	0.352851	-0.064653	0.046305
C37	C	0.403266	-0.065173	0.046298
C38	C	0.403276	-0.065194	-0.046218
C39	C	0.352865	-0.064676	-0.046213
C40	C	0.327654	-0.064404	0.000053
O41	O	0.273115	-0.063880	-0.085520
O42	O	0.273054	-0.063814	0.085650
C43	C	0.045336	-0.061497	0.046319
C44	C	0.020139	-0.061247	0.000064
C45	C	0.045353	-0.061516	-0.046193
C46	C	-0.030275	-0.060734	0.000065
C47	C	-0.055490	-0.060465	0.046323
C48	C	-0.030290	-0.060710	0.092579
C49	C	0.020122	-0.061228	0.092577
C50	C	0.020153	-0.061271	-0.092449
C51	C	-0.030258	-0.060754	-0.092443
C52	C	-0.055472	-0.060485	-0.046186
C53	C	0.574732	0.026627	0.000070
C54	C	0.574179	0.080282	0.000074
C55	C	0.658949	-0.057571	0.000068
C56	C	0.712605	-0.058113	0.000071
C57	C	0.566353	-0.150182	0.000046
C58	C	0.566906	-0.203837	0.000038
N59	N	0.570507	-0.061748	0.120820
C60	C	0.614884	0.419105	0.000053
C61	C	0.612833	0.620764	0.000046
O62	O	0.650055	0.652027	0.000028
N63	N	0.568496	0.639879	0.000041
C64	C	0.524670	0.608576	0.000034
O65	O	0.486912	0.629462	0.000024
C66	C	0.526721	0.406918	0.000038
C67	C	0.571060	0.387806	0.000048
C68	C	0.659220	0.399992	0.000063
C69	C	0.659732	0.349580	0.000068
C70	C	0.615908	0.318281	0.000062
C71	C	0.571573	0.337394	0.000053
C72	C	0.482895	0.375615	0.000028
C73	C	0.483412	0.325198	0.000027
C74	C	0.527751	0.306086	0.000037
C75	C	0.528262	0.255683	0.000052
N76	N	0.572598	0.236568	0.000057
C77	C	0.616421	0.267867	0.000062
C78	C	0.523596	0.714450	0.000033
C79	C	0.523083	0.764864	0.000033
C80	C	0.611246	0.777049	0.000044
C81	C	0.611759	0.726633	0.000048
C82	C	0.567932	0.695335	0.000038
C83	C	0.617494	0.161998	0.000073
C84	C	0.618002	0.111581	0.000079
C85	C	0.529839	0.099401	0.000066
C86	C	0.529331	0.149813	0.000062
C87	C	0.573162	0.181111	0.000063
O88	O	0.491060	0.224391	0.000064
O89	O	0.654174	0.246971	0.000061
C90	C	0.614372	0.469517	0.000049
C91	C	0.570036	0.488629	0.000039
C92	C	0.526213	0.457330	0.000034
C93	C	0.569523	0.539044	0.000039
C94	C	0.613346	0.570343	0.000044
C95	C	0.657683	0.551228	0.000049
C96	C	0.658195	0.500816	0.000054
C97	C	0.481876	0.476445	0.000029
C98	C	0.481367	0.526858	0.000025
C99	C	0.525191	0.558157	0.000030
N100	N	0.570581	-0.061803	-0.120703
C101	C	0.541454	-0.032657	0.526798
C102	C	0.541432	-0.032645	0.313139
O103	O	0.516700	-0.007872	0.285530
N104	N	0.570526	-0.061754	0.286403
C105	C	0.599629	-0.090867	0.313086
O106	O	0.624378	-0.115622	0.285443
C107	C	0.599652	-0.090876	0.526743
C108	C	0.570554	-0.061768	0.553476
C109	C	0.512358	-0.003551	0.553531
C110	C	0.512361	-0.003557	0.606942
C111	C	0.541461	-0.032668	0.633621
C112	C	0.570557	-0.061773	0.606888
C113	C	0.628758	-0.119985	0.553424
C114	C	0.628762	-0.119984	0.606842
C115	C	0.599663	-0.090876	0.633575
C116	C	0.599661	-0.090890	0.686978
N117	N	0.570567	-0.061780	0.713713
C118	C	0.541468	-0.032669	0.687035
C119	C	0.599614	-0.090860	0.200912
C120	C	0.599607	-0.090859	0.147498
C121	C	0.541411	-0.032636	0.147555
C122	C	0.541416	-0.032641	0.200970
C123	C	0.570520	-0.061751	0.227648
C124	C	0.541477	-0.032683	0.799203
C125	C	0.541482	-0.032692	0.852619
C126	C	0.599679	-0.090913	0.852557
C127	C	0.599673	-0.090905	0.799145
C128	C	0.570570	-0.061787	0.772470
O129	O	0.624384	-0.115646	0.714620
O130	O	0.516730	-0.007909	0.714687
C131	C	0.541450	-0.032652	0.473386
C132	C	0.570546	-0.061757	0.446653
C133	C	0.599646	-0.090868	0.473332
C134	C	0.570540	-0.061756	0.393239
C135	C	0.541440	-0.032645	0.366561
C136	C	0.512347	-0.003535	0.393296
C137	C	0.512350	-0.003541	0.446708
C138	C	0.628739	-0.119978	0.446596
C139	C	0.628733	-0.119971	0.393184
C140	C	0.599633	-0.090860	0.366506
H141	H	-0.050828	-0.060493	0.130243
H142	H	0.040678	-0.061489	-0.130118
Br143	Br	0.718703	0.442461	0.000069
Br144	Br	0.437506	-0.065556	-0.108993
H145	H	0.517779	-0.008972	0.777490
H146	H	0.494160	0.073908	0.000064
H147	H	0.654110	0.096023	0.000089
Br148	Br	-0.064448	-0.060419	-0.155230
Br149	Br	0.671935	0.700701	0.000063
Br150	Br	0.676980	0.204466	0.000074
Br151	Br	0.421187	0.552788	0.000015
H152	H	0.695837	0.334024	0.000074
Br153	Br	0.670720	0.819536	0.000050
Br154	Br	0.462906	0.790795	0.000031
Br155	Br	-0.177555	-0.059256	-0.108976
H156	H	0.493226	0.165375	0.000068
H157	H	0.652454	-0.143687	0.531668
H158	H	0.488655	0.020162	0.468469
Br159	Br	0.472852	0.035969	0.357079
H160	H	0.040632	-0.061431	0.130246
H161	H	0.488661	0.020157	0.531815
Br162	Br	0.472869	0.035950	0.643214
H163	H	0.517721	-0.008939	0.222733
H164	H	0.694301	0.485260	0.000062
Br165	Br	0.717157	0.593715	0.000060
H166	H	0.487905	0.688970	0.000026
Br167	Br	0.423929	0.282724	0.000012
Br168	Br	0.639088	-0.130376	0.111224
H169	H	0.446789	0.391167	0.000016
Br170	Br	0.422395	0.433975	0.000019
Br171	Br	0.668220	-0.159486	0.356911
H172	H	0.100476	-0.062094	-0.130128
Br173	Br	0.205543	-0.063118	0.155354
Br174	Br	0.668236	-0.159490	0.482794
H175	H	0.517784	-0.008989	0.874382
H176	H	0.517716	-0.008934	0.125825
H177	H	0.623316	-0.114567	0.222628
Br178	Br	0.668266	-0.159490	0.643044
Br179	Br	0.205616	-0.063168	-0.155242
H180	H	0.623360	-0.114614	0.777378
H181	H	0.423779	-0.065378	0.083970
Br182	Br	0.318643	-0.064282	0.109094
H183	H	0.100420	-0.062044	0.130243
H184	H	-0.191269	-0.059080	0.083998
H185	H	0.623370	-0.114615	0.874288
H186	H	-0.282693	-0.058187	-0.083855
Br187	Br	-0.296424	-0.057994	0.109109
H188	H	0.332348	-0.064481	-0.083880
