data_functionalizedCrystal
_audit_creation_method	'MofGen! by Chris Wilmer'
_symmetry_space_group_name_H-M	'P1'
_symmetry_Int_Tables_number	1
_symmetry_cell_setting	triclinic
loop_
_symmetry_equiv_pos_as_xyz
  x,y,z
_cell_length_a	16.120297
_cell_length_b	13.897449
_cell_length_c	13.897448
_cell_angle_alpha	90.018972
_cell_angle_beta	87.126532
_cell_angle_gamma	87.120648
loop_
_atom_site_label
_atom_site_type_symbol
_atom_site_fract_x
_atom_site_fract_y
_atom_site_fract_z
Zn1	Zn	-0.471366	-1.447031	0.411661
Zn2	Zn	0.028634	-0.947031	0.911661
Zn3	Zn	-0.331958	-1.455109	0.564787
Zn4	Zn	0.168042	-0.955109	1.064787
Zn5	Zn	-0.331973	-1.293903	0.403512
Zn6	Zn	0.168027	-0.793903	0.903512
Zn7	Zn	-0.471327	-1.285704	0.572917
Zn8	Zn	0.028673	-0.785704	1.072917
O9	O	-0.401656	-1.370437	0.488219
O10	O	0.098344	-0.870437	0.988219
O11	O	-0.452884	-1.583083	0.431981
O12	O	0.047116	-1.083083	0.931981
O13	O	-0.215297	-1.440537	0.536581
O14	O	0.284703	-0.940537	1.036581
O15	O	-0.350486	-1.314266	0.269613
O16	O	0.149514	-0.814266	0.769613
O17	O	-0.350461	-1.589018	0.544483
O18	O	0.149539	-1.089018	1.044483
O19	O	-0.452898	-1.426769	0.275600
O20	O	0.047102	-0.926769	0.775600
O21	O	-0.215308	-1.322099	0.418094
O22	O	0.284692	-0.822099	0.918094
O23	O	-0.350448	-1.157834	0.425976
O24	O	0.149552	-0.657834	0.925976
O25	O	-0.587995	-1.300292	0.558338
O26	O	-0.087995	-0.800292	1.058338
O27	O	-0.452831	-1.151811	0.550437
O28	O	0.047169	-0.651811	1.050437
O29	O	-0.588024	-1.418818	0.439864
O30	O	-0.088024	-0.918818	0.939864
O31	O	-0.350423	-1.432586	0.700846
O32	O	0.149577	-0.932586	1.200846
O33	O	-0.452816	-1.308125	0.706819
O34	O	0.047184	-0.808125	1.206819
C35	C	-0.401632	-1.370368	0.738832
C36	C	0.098368	-0.870368	1.238832
C37	C	-0.401649	-1.370425	0.846047
C38	C	0.098351	-0.870425	1.346047
C39	C	-0.401637	-1.119823	0.488205
C40	C	0.098363	-0.619823	0.988205
C41	C	-0.401649	-1.012609	0.488224
C42	C	0.098351	-0.512609	0.988224
C43	C	-0.619105	-1.357740	0.500917
C44	C	-0.119105	-0.857740	1.000917
C45	C	-0.711769	-1.352329	0.506328
C46	C	-0.211769	-0.852329	1.006328
C47	C	-0.881426	-1.342415	0.516186
C48	C	-0.381426	-0.842415	1.016186
C49	C	-0.922737	-1.398648	0.459964
C50	C	-0.422737	-0.898648	0.959964
C51	C	-1.017141	-1.393132	0.465449
C52	C	-0.517141	-0.893132	0.965449
C53	C	-0.787014	-1.347930	0.510702
C54	C	-0.287014	-0.847930	1.010702
C55	C	-0.185053	-1.383140	0.475502
C56	C	0.314947	-0.883140	0.975502
C57	C	-0.092390	-1.388737	0.469819
C58	C	0.407610	-0.888737	0.969819
C59	C	-0.401675	-1.622028	0.488234
C60	C	0.098325	-1.122028	0.988234
C61	C	-0.401684	-1.729242	0.488240
C62	C	0.098316	-1.229242	0.988240
C63	C	-0.401670	-0.816312	0.488229
C64	C	0.098330	-0.316312	0.988229
C65	C	-0.401656	-0.925546	0.488223
C66	C	0.098344	-0.425546	0.988223
C67	C	-0.401698	-1.370531	0.236629
C68	C	0.098302	-0.870531	0.736629
C69	C	-0.401716	-1.370571	0.129416
C70	C	0.098284	-0.870571	0.629416
C71	C	-0.401702	-1.370523	1.042345
C72	C	0.098298	-0.870523	1.542345
C73	C	-0.401675	-1.370465	0.933111
C74	C	0.098325	-0.870465	1.433111
H75	H	-0.887205	-1.450934	0.407711
H76	H	-0.387205	-0.950934	0.907711
H77	H	-0.916956	-1.290134	0.568435
H78	H	-0.416956	-0.790134	1.068435
