data_functionalizedCrystal
_audit_creation_method	'MofGen! by Chris Wilmer'
_symmetry_space_group_name_H-M	'P1'
_symmetry_Int_Tables_number	1
_symmetry_cell_setting	triclinic
loop_
_symmetry_equiv_pos_as_xyz
  x,y,z
_cell_length_a	13.032831
_cell_length_b	13.032721
_cell_length_c	13.033109
_cell_angle_alpha	105.143326
_cell_angle_beta	76.665514
_cell_angle_gamma	90.902885
loop_
_atom_site_label
_atom_site_type_symbol
_atom_site_fract_x
_atom_site_fract_y
_atom_site_fract_z
Zn1	Zn	1.617278	-0.734630	-0.889163
Zn2	Zn	2.117278	-0.234630	-0.389163
Zn3	Zn	1.577772	-0.883958	-0.728367
Zn4	Zn	2.077772	-0.383958	-0.228367
Zn5	Zn	1.422834	-0.683803	-0.683331
Zn6	Zn	1.922834	-0.183803	-0.183331
Zn7	Zn	1.422798	-0.883866	-0.883401
Zn8	Zn	1.922798	-0.383866	-0.383401
O9	O	1.510171	-0.796564	-0.796066
O10	O	2.010171	-0.296564	-0.296066
O11	O	1.758271	-0.775749	-0.889093
O12	O	2.258271	-0.275749	-0.389093
O13	O	1.540701	-0.836174	-0.571370
O14	O	2.040701	-0.336174	-0.071370
O15	O	1.465176	-0.544325	-0.694198
O16	O	1.965176	-0.044325	-0.194198
O17	O	1.729246	-0.885459	-0.770957
O18	O	2.229246	-0.385459	-0.270957
O19	O	1.608033	-0.581667	-0.845422
O20	O	2.108033	-0.081667	-0.345422
O21	O	1.426868	-0.689121	-0.538281
O22	O	1.926868	-0.189121	-0.038281
O23	O	1.276596	-0.689032	-0.688611
O24	O	1.776596	-0.189032	-0.188611
O25	O	1.465114	-0.885302	-1.035189
O26	O	1.965114	-0.385302	-0.535189
O27	O	1.276569	-0.836017	-0.835602
O28	O	1.776569	-0.336017	-0.335602
O29	O	1.607998	-0.775660	-1.039422
O30	O	2.107998	-0.275660	-0.539422
O31	O	1.540666	-1.030166	-0.765370
O32	O	2.040666	-0.530166	-0.265370
O33	O	1.426807	-1.030099	-0.879272
O34	O	1.926807	-0.530099	-0.379272
C35	C	1.238666	-0.757000	-0.756595
C36	C	1.738666	-0.257000	-0.256595
C37	C	1.122515	-0.740103	-0.739737
C38	C	1.622515	-0.240103	-0.239737
C39	C	1.070723	-0.805383	-0.804863
C40	C	1.570723	-0.305383	-0.304863
C41	C	0.950675	-0.787921	-0.787442
C42	C	1.450675	-0.287921	-0.287442
C43	C	1.479477	-1.068053	-0.826610
C44	C	1.979477	-0.568053	-0.326610
C45	C	1.466445	-1.184217	-0.839728
C46	C	1.966445	-0.684217	-0.339728
C47	C	1.517033	-1.236020	-0.789276
C48	C	2.017033	-0.736020	-0.289276
C49	C	1.503565	-1.356081	-0.802832
C50	C	2.003565	-0.856081	-0.302832
C51	C	1.782736	-0.836284	-0.835691
C52	C	2.282736	-0.336284	-0.335691
C53	C	1.898886	-0.853210	-0.852577
C54	C	2.398886	-0.353210	-0.352577
C55	C	1.540959	-0.836140	-1.077559
C56	C	2.040959	-0.336140	-0.577559
C57	C	1.554079	-0.853005	-1.197515
C58	C	2.054079	-0.353005	-0.697515
C59	C	1.541015	-0.524022	-0.765429
C60	C	2.041015	-0.024022	-0.265429
C61	C	1.554159	-0.407881	-0.752374
C62	C	2.054159	0.092119	-0.252374
C63	C	1.503607	-0.787765	-1.234624
C64	C	2.003607	-0.287765	-0.734624
C65	C	1.517166	-0.805195	-1.358604
C66	C	2.017166	-0.305195	-0.858604
C67	C	1.479570	-0.757075	-0.515667
C68	C	1.979570	-0.257075	-0.015667
C69	C	1.466686	-0.739946	-0.395708
C70	C	1.966686	-0.239946	0.104292
H71	H	0.906146	-0.719096	-0.718787
H72	H	1.406146	-0.219096	-0.218787
H73	H	1.450286	-1.400612	-0.856070
H74	H	1.950286	-0.900612	-0.356070
H75	H	1.570317	-1.191490	-0.736051
H76	H	2.070317	-0.691490	-0.236051
Cl77	Cl	1.053767	-0.633847	-0.633742
Cl78	Cl	1.553767	-0.133847	-0.133742
Cl79	Cl	0.967632	-0.959453	-0.958599
Cl80	Cl	1.467632	-0.459453	-0.458599
Cl81	Cl	1.384436	-0.633802	-1.303060
Cl82	Cl	1.884436	-0.133802	-0.803060
Cl83	Cl	1.421406	-0.681593	-1.141972
Cl84	Cl	1.921406	-0.181593	-0.641972
Cl85	Cl	1.636290	-0.959170	-1.290167
Cl86	Cl	2.136290	-0.459170	-0.790167
H87	H	1.607447	-1.363354	-0.699145
H88	H	2.107447	-0.863354	-0.199145
H89	H	1.115259	-0.874196	-0.873521
H90	H	1.615259	-0.374196	-0.373521
Cl91	Cl	1.384189	-1.252966	-0.921919
Cl92	Cl	1.884189	-0.752966	-0.421919
Cl93	Cl	1.599380	-0.911365	-1.451253
Cl94	Cl	2.099380	-0.411365	-0.951253
