data_functionalizedCrystal
_audit_creation_method	'MofGen! by Chris Wilmer'
_symmetry_space_group_name_H-M	'P1'
_symmetry_Int_Tables_number	1
_symmetry_cell_setting	triclinic
loop_
_symmetry_equiv_pos_as_xyz
  x,y,z
_cell_length_a	15.538191
_cell_length_b	10.654558
_cell_length_c	9.130313
_cell_angle_alpha	89.999661
_cell_angle_beta	89.998968
_cell_angle_gamma	65.880160
loop_
_atom_site_label
_atom_site_type_symbol
_atom_site_fract_x
_atom_site_fract_y
_atom_site_fract_z
O1	O	1.247241	-0.406662	-0.121822
O2	O	0.973930	-0.262089	-0.121819
O3	O	1.116865	-0.520050	-0.121815
O4	O	1.104305	-0.148701	-0.121827
O5	O	1.116864	-0.520044	0.121784
O6	O	0.973928	-0.262083	0.121780
O7	O	1.247239	-0.406656	0.121776
Cu8	Cu	1.110583	-0.334369	0.144020
Cu9	Cu	1.110586	-0.334376	-0.144063
O10	O	1.104304	-0.148695	0.121772
C11	C	0.938932	-0.246960	-0.000019
C12	C	0.834654	-0.201905	-0.000018
C13	C	1.115941	-0.566413	-0.000017
C14	C	1.113177	-0.704563	-0.000021
C15	C	1.111875	-0.769466	0.132762
C16	C	1.109286	-0.899278	0.132756
C17	C	1.109297	-0.899272	-0.132828
C18	C	1.111892	-0.769466	-0.132821
C19	C	1.113160	-0.704563	0.265562
C20	C	1.111857	-0.769465	0.398356
C21	C	1.109268	-0.899277	0.398351
C22	C	1.107982	-0.964188	0.265550
C23	C	0.543930	-0.649520	-0.000026
C24	C	0.445941	-0.607152	-0.000029
C25	C	0.425061	-0.368841	-0.000036
C26	C	0.523049	-0.411189	-0.000027
C27	C	0.582476	-0.551530	-0.000023
C28	C	0.561595	-0.313199	-0.000024
C29	C	0.659575	-0.355545	-0.000022
C30	C	0.719008	-0.495880	-0.000023
C31	C	0.680456	-0.593876	-0.000021
C32	C	0.502167	-0.172859	-0.000037
C33	C	0.540713	-0.074869	-0.000035
C34	C	0.638695	-0.117214	-0.000022
C35	C	0.698128	-0.257549	-0.000023
C36	C	0.677247	-0.019218	-0.000024
C37	C	0.775227	-0.061564	-0.000022
C38	C	0.796108	-0.299894	-0.000021
C39	C	1.282237	-0.421785	-0.000027
C40	C	1.386515	-0.466840	-0.000038
C41	C	1.105228	-0.102332	-0.000029
C42	C	1.107992	0.035819	-0.000035
N43	N	1.110589	-0.334368	0.346643
N44	N	1.110588	-0.334390	-0.346686
C45	C	1.173897	-0.448571	0.423297
C46	C	1.173895	-0.448585	0.576634
C47	C	1.047272	-0.220180	0.576649
C48	C	1.047271	-0.220171	0.423315
C49	C	1.237215	-0.562768	0.346625
C50	C	1.300529	-0.676980	0.423279
C51	C	1.300526	-0.676994	0.576616
C52	C	1.237210	-0.562796	0.653299
H53	H	1.115264	-0.598861	0.265582
Br54	Br	0.369192	-0.115389	-0.000045
Br55	Br	0.827546	0.071422	-0.000027
Br56	Br	1.113619	-0.681387	0.578576
Br57	Br	1.386440	-0.832000	0.680647
H58	H	0.798789	-0.530355	-0.000041
H59	H	0.414562	-0.686957	-0.000033
Br60	Br	1.107515	-0.987365	0.578566
H61	H	1.105882	-1.069895	0.265556
H62	H	1.237207	-0.562822	0.778156
H63	H	1.237224	-0.562766	0.221771
H64	H	1.352074	-0.769962	0.360836
Br65	Br	0.460055	0.115587	-0.000053
H66	H	1.108248	-0.952131	-0.240948
H67	H	1.112952	-0.716621	-0.240945
Br68	Br	0.876768	-0.490360	0.000008
Br69	Br	0.961349	-0.065205	0.680716
H70	H	0.592319	-0.763800	-0.000015
Br71	Br	0.761116	-0.784341	0.000008
Br72	Br	0.961345	-0.065180	0.319280
H73	H	0.376662	-0.254575	-0.000045
H74	H	0.628847	0.095047	-0.000041
