data_functionalizedCrystal
_audit_creation_method	'MofGen! by Chris Wilmer'
_symmetry_space_group_name_H-M	'P1'
_symmetry_Int_Tables_number	1
_symmetry_cell_setting	triclinic
loop_
_symmetry_equiv_pos_as_xyz
  x,y,z
_cell_length_a	12.811445
_cell_length_b	19.188930
_cell_length_c	11.295483
_cell_angle_alpha	94.076039
_cell_angle_beta	80.460739
_cell_angle_gamma	83.596747
loop_
_atom_site_label
_atom_site_type_symbol
_atom_site_fract_x
_atom_site_fract_y
_atom_site_fract_z
O1	O	1.410240	0.082182	-0.251318
O2	O	1.102227	0.093974	-0.218063
O3	O	1.265120	-0.013578	-0.235627
O4	O	1.247347	0.189734	-0.233754
O5	O	1.250813	-0.004146	-0.036033
O6	O	1.087920	0.103407	-0.018469
O7	O	1.395933	0.091614	-0.051725
Cu8	Cu	1.240620	0.098371	-0.016873
Cu9	Cu	1.257540	0.087217	-0.252915
O10	O	1.233039	0.199166	-0.034161
C11	C	1.055667	0.098318	-0.114011
C12	C	0.938250	0.097200	-0.101333
C13	C	1.257391	-0.034873	-0.135765
C14	C	1.255662	-0.112377	-0.135568
C15	C	0.733203	0.084828	-0.295127
C16	C	0.622879	0.083777	-0.283220
C17	C	0.607274	0.094053	-0.065611
C18	C	0.717598	0.095103	-0.077519
C19	C	0.780559	0.090489	-0.192280
C20	C	0.890887	0.091535	-0.204187
C21	C	0.875279	0.101816	0.013421
C22	C	0.764954	0.100765	0.025328
C23	C	1.351243	-0.157318	-0.145882
C24	C	1.349621	-0.230143	-0.145726
C25	C	1.252410	-0.258021	-0.135231
C26	C	1.156817	-0.213070	-0.124922
C27	C	1.158443	-0.140247	-0.125091
N28	N	1.173236	-0.362802	-0.059283
N29	N	1.171698	-0.431980	-0.059121
C30	C	1.247506	-0.477430	-0.134725
N31	N	1.324927	-0.451088	-0.210485
N32	N	1.326467	-0.381903	-0.210641
C33	C	1.250637	-0.336983	-0.135048
C34	C	1.341335	-0.601337	-0.144873
C35	C	1.339710	-0.674163	-0.144724
C36	C	1.146903	-0.657087	-0.123908
C37	C	1.148532	-0.584264	-0.124069
C38	C	1.245751	-0.556393	-0.134546
C39	C	1.442493	0.087270	-0.155779
C40	C	1.559911	0.088388	-0.168466
C41	C	1.240769	0.220461	-0.134026
C42	C	1.242499	0.297964	-0.134231
N43	N	1.228727	0.106216	0.149146
N44	N	1.269441	0.079366	-0.418935
C45	C	1.355053	0.022854	0.384814
C46	C	1.346073	0.028788	0.510446
C47	C	1.201783	0.124013	0.526045
C48	C	1.210763	0.118080	0.400413
C49	C	1.287401	0.067499	0.329801
C50	C	1.296386	0.061570	0.204167
C51	C	1.152091	0.156791	0.219768
C52	C	1.143111	0.162725	0.345400
H53	H	0.942149	0.087778	-0.297632
H54	H	0.584326	0.079168	-0.366969
H55	H	0.713676	0.104524	0.118764
H56	H	0.555991	0.097815	0.027822
H57	H	1.097008	0.193146	0.174962
O58	O	1.065490	-0.096684	-0.115001
C59	C	0.979340	-0.136903	-0.105741
H60	H	1.003730	-0.189536	-0.070889
H61	H	0.908234	-0.107160	-0.040564
H62	H	0.956392	-0.146533	-0.198280
H63	H	1.070699	-0.547670	-0.115664
O64	O	1.411904	-0.014616	0.563689
C65	C	1.481447	-0.060543	0.474423
H66	H	1.488915	-0.036148	0.384748
H67	H	1.563372	-0.069642	0.501577
H68	H	1.448292	-0.112975	0.464761
H69	H	1.080711	0.203905	0.402906
O70	O	0.921419	0.107219	0.113245
C71	C	0.997000	0.047664	0.111565
H72	H	1.024389	0.023208	0.014875
H73	H	1.068521	0.064169	0.149542
H74	H	0.959207	0.007460	0.168918
H75	H	1.420497	-0.578644	-0.153409
O76	O	1.429375	-0.026295	0.316084
C77	C	1.378148	-0.072712	0.249530
H78	H	1.296581	-0.045655	0.239694
H79	H	1.428663	-0.087985	0.156397
H80	H	1.367775	-0.122028	0.298680
O81	O	1.432656	-0.717720	-0.154702
C82	C	1.518808	-0.677502	-0.164012
H83	H	1.488994	-0.621308	-0.123292
H84	H	1.581600	-0.701782	-0.113289
H85	H	1.555494	-0.676894	-0.262982
O86	O	1.445775	-0.130365	-0.156130
C87	C	1.529788	-0.185653	-0.165168
H88	H	1.503077	-0.236841	-0.199786
H89	H	1.601837	-0.173316	-0.230439
H90	H	1.552386	-0.191507	-0.072592
H91	H	0.784468	0.081068	-0.388571
H92	H	1.427457	-0.266742	-0.154130
O93	O	1.062465	-0.240238	-0.114893
C94	C	1.063159	-0.286712	-0.217555
H95	H	1.149084	-0.306658	-0.261026
H96	H	1.019550	-0.333212	-0.189782
H97	H	1.021403	-0.257849	-0.284872
O98	O	1.052561	-0.684273	-0.113676
C99	C	1.071621	-0.758187	-0.115777
H100	H	1.151536	-0.773690	-0.086906
H101	H	1.005281	-0.777682	-0.051126
H102	H	1.073460	-0.782960	-0.210994
H103	H	1.358791	0.020386	0.146676
H104	H	1.139378	0.165190	0.583553
