data_functionalizedCrystal
_audit_creation_method	'MofGen! by Chris Wilmer'
_symmetry_space_group_name_H-M	'P1'
_symmetry_Int_Tables_number	1
_symmetry_cell_setting	triclinic
loop_
_symmetry_equiv_pos_as_xyz
  x,y,z
_cell_length_a	23.532361
_cell_length_b	23.532407
_cell_length_c	16.776229
_cell_angle_alpha	89.988688
_cell_angle_beta	89.997131
_cell_angle_gamma	82.839173
loop_
_atom_site_label
_atom_site_type_symbol
_atom_site_fract_x
_atom_site_fract_y
_atom_site_fract_z
O1	O	0.755279	0.069010	-0.066216
O2	O	1.255279	0.569010	0.433784
O3	O	0.589412	0.079041	-0.066237
O4	O	1.089412	0.579041	0.433763
O5	O	0.677347	-0.008907	-0.066211
O6	O	1.177347	0.491093	0.433789
O7	O	0.667343	0.156958	-0.066242
O8	O	1.167343	0.656958	0.433758
O9	O	0.677335	-0.008913	0.066365
O10	O	1.177335	0.491087	0.566365
O11	O	0.589400	0.079035	0.066340
O12	O	1.089400	0.579035	0.566340
O13	O	0.755267	0.069005	0.066360
O14	O	1.255267	0.569005	0.566360
Zn15	Zn	0.672332	0.074019	0.087399
Zn16	Zn	1.172332	0.574019	0.587399
Zn17	Zn	0.672347	0.074026	-0.087276
Zn18	Zn	1.172347	0.574026	0.412724
O19	O	0.667332	0.156953	0.066335
O20	O	1.167332	0.656953	0.566335
C21	C	0.568189	0.078787	0.000049
C22	C	1.068189	0.578787	0.500049
C23	C	0.504971	0.078032	0.000042
C24	C	1.004971	0.578032	0.500042
C25	C	0.231733	0.074731	-0.072220
C26	C	0.731733	0.574731	0.427780
C27	C	0.291133	0.075446	-0.072222
C28	C	0.791133	0.575446	0.427778
O29	O	0.321864	0.075799	-0.133681
O30	O	0.821864	0.575799	0.366319
N31	N	0.320832	0.075804	0.000046
N32	N	0.820832	0.575804	0.500046
C33	C	0.291130	0.075442	0.072320
C34	C	0.791130	0.575442	0.572320
O35	O	0.321846	0.075812	0.133789
O36	O	0.821846	0.575812	0.633789
C37	C	0.231732	0.074723	0.072322
C38	C	0.731732	0.574723	0.572322
C39	C	0.202035	0.074370	0.000049
C40	C	0.702035	0.574370	0.500049
C41	C	0.202036	0.074378	-0.144486
C42	C	0.702036	0.574378	0.355514
C43	C	0.142641	0.073664	-0.144484
C44	C	0.642641	0.573664	0.355516
C45	C	0.112942	0.073303	-0.072215
C46	C	0.612942	0.573303	0.427785
C47	C	0.142639	0.073657	0.000051
C48	C	0.642639	0.573657	0.500051
C49	C	0.202031	0.074356	0.144595
C50	C	0.702031	0.574356	0.644595
C51	C	0.142629	0.073637	0.144590
C52	C	0.642629	0.573637	0.644590
C53	C	0.112931	0.073284	0.072318
C54	C	0.612931	0.573284	0.572318
C55	C	0.053544	0.072582	0.072323
C56	C	0.553544	0.572582	0.572323
N57	N	0.023845	0.072224	0.000055
N58	N	0.523845	0.572224	0.500055
C59	C	0.053544	0.072584	-0.072214
C60	C	0.553544	0.572584	0.427786
C61	C	0.415870	0.076951	0.072312
C62	C	0.915870	0.576951	0.572312
C63	C	0.475266	0.077674	0.072312
C64	C	0.975266	0.577674	0.572312
C65	C	0.475266	0.077677	-0.072231
C66	C	0.975266	0.577677	0.427769
C67	C	0.415868	0.076958	-0.072230
C68	C	0.915868	0.576958	0.427770
C69	C	0.386171	0.076593	0.000044
C70	C	0.886171	0.576593	0.500044
C71	C	-0.071192	0.071086	-0.072203
C72	C	0.428808	0.571086	0.427797
C73	C	-0.130593	0.070374	-0.072195
C74	C	0.369407	0.570374	0.427805
C75	C	-0.130587	0.070368	0.072347
C76	C	0.369413	0.570368	0.572347
C77	C	-0.071191	0.071083	0.072339
C78	C	0.428809	0.571083	0.572339
C79	C	-0.041495	0.071440	0.000057
C80	C	0.458505	0.571440	0.500057
O81	O	0.022776	0.072227	0.133751
O82	O	0.522776	0.572227	0.633751
O83	O	0.022821	0.072207	-0.133673
O84	O	0.522821	0.572207	0.366327
C85	C	0.677086	-0.030126	0.000079
C86	C	1.177086	0.469874	0.500079
C87	C	0.676320	-0.093343	0.000085
C88	C	1.176320	0.406657	0.500085
C89	C	0.723555	-0.492454	0.000047
C90	C	1.223555	0.007546	0.500047
C91	C	0.722844	-0.551854	0.000041
C92	C	1.222844	-0.051854	0.500041
O93	O	0.766630	-0.588606	0.000017
O94	O	1.266630	-0.088606	0.500017
N95	N	0.670566	-0.574471	0.000035
N96	N	1.170566	-0.074471	0.500035
C97	C	0.618997	-0.537685	0.000027
C98	C	1.118997	-0.037685	0.500027
O99	O	0.574465	-0.562377	0.000021
O100	O	1.074465	-0.062377	0.500021
C101	C	0.619709	-0.478286	0.000028
C102	C	1.119709	0.021714	0.500028
C103	C	0.671990	-0.455672	0.000042
C104	C	1.171990	0.044328	0.500042
C105	C	0.775832	-0.469839	0.000060
C106	C	1.275832	0.030161	0.500060
C107	C	0.776543	-0.410443	0.000068
C108	C	1.276543	0.089557	0.500068
C109	C	0.724977	-0.373662	0.000062
C110	C	1.224977	0.126338	0.500062
C111	C	0.672701	-0.396276	0.000049
C112	C	1.172701	0.103724	0.500049
C113	C	0.568140	-0.441501	0.000014
C114	C	1.068140	0.058499	0.500014
C115	C	0.568857	-0.382099	0.000014
C116	C	1.068857	0.117901	0.500014
C117	C	0.621137	-0.359485	0.000028
C118	C	1.121137	0.140515	0.500028
C119	C	0.621847	-0.300099	0.000052
C120	C	1.121847	0.199901	0.500052
N121	N	0.674124	-0.277481	0.000057
N122	N	1.174124	0.222519	0.500057
C123	C	0.725690	-0.314263	0.000063
C124	C	1.225690	0.185737	0.500063
C125	C	0.617505	-0.662427	0.000025
C126	C	1.117505	-0.162427	0.500025
C127	C	0.616793	-0.721825	0.000030
C128	C	1.116793	-0.221825	0.500030
C129	C	0.720640	-0.735990	0.000042
C130	C	1.220640	-0.235990	0.500042
C131	C	0.721352	-0.676591	0.000043
C132	C	1.221352	-0.176591	0.500043
C133	C	0.669783	-0.639810	0.000031
C134	C	1.169783	-0.139810	0.500031
C135	C	0.727179	-0.189526	0.000080
C136	C	1.227179	0.310474	0.500080
C137	C	0.727886	-0.130124	0.000090
C138	C	1.227886	0.369876	0.500090
C139	C	0.624039	-0.115965	0.000074
C140	C	1.124039	0.384035	0.500074
C141	C	0.623332	-0.175361	0.000067
C142	C	1.123332	0.324639	0.500067
C143	C	0.674907	-0.212141	0.000067
C144	C	1.174907	0.287859	0.500067
O145	O	0.578083	-0.263312	0.000072
O146	O	1.078083	0.236688	0.500072
O147	O	0.770214	-0.289562	0.000059
O148	O	1.270214	0.210438	0.500059
C149	C	0.776489	0.069258	0.000073
C150	C	1.276489	0.569258	0.500073
C151	C	0.839708	0.070014	0.000074
C152	C	1.339708	0.570014	0.500074
C153	C	0.667592	0.178171	0.000043
C154	C	1.167592	0.678171	0.500043
C155	C	0.668358	0.241388	0.000032
C156	C	1.168358	0.741388	0.500032
N157	N	0.672325	0.074014	0.206611
N158	N	1.172325	0.574014	0.706611
N159	N	0.672358	0.074027	-0.206487
N160	N	1.172358	0.574027	0.293513
C161	C	0.711275	0.035086	0.248339
C162	C	1.211275	0.535086	0.748339
C163	C	0.711278	0.035086	0.331791
C164	C	1.211278	0.535086	0.831791
C165	C	0.672334	0.074016	0.373514
C166	C	1.172334	0.574016	0.873514
C167	C	0.633380	0.112946	0.331779
C168	C	1.133380	0.612946	0.831779
C169	C	0.633375	0.112943	0.248329
C170	C	1.133375	0.612943	0.748329
C171	C	0.633401	0.112957	0.668327
C172	C	1.133401	0.612957	1.168327
C173	C	0.633411	0.112957	0.751783
C174	C	1.133411	0.612957	1.251783
C175	C	0.711304	0.035100	0.751789
C176	C	1.211304	0.535100	1.251789
C177	C	0.711299	0.035097	0.668338
C178	C	1.211299	0.535097	1.168338
C179	C	0.672343	0.074024	0.626612
C180	C	1.172343	0.574024	1.126612
C181	C	0.672340	0.074024	0.536123
C182	C	1.172340	0.574024	1.036123
C183	C	0.672340	0.074020	0.464000
C184	C	1.172340	0.574020	0.964000
H185	H	-0.154779	0.070077	0.131187
H186	H	0.345221	0.570077	0.631187
O187	O	0.591410	0.154959	0.796780
O188	O	1.091410	0.654959	1.296780
H189	H	0.547051	0.147936	0.780789
H190	H	1.047051	0.647936	1.280789
H191	H	0.601683	0.144653	0.634359
H192	H	1.101683	0.644653	1.134359
H193	H	0.770461	-0.111716	0.000104
H194	H	1.270461	0.388284	0.500104
H195	H	0.817825	-0.499782	0.000062
H196	H	1.317825	0.000218	0.500062
O197	O	0.110563	0.073528	0.222547
O198	O	0.610563	0.573528	0.722547
H199	H	0.064256	0.073071	0.210413
H200	H	0.564256	0.573071	0.710413
H201	H	0.819115	-0.392037	0.000076
H202	H	1.319115	0.107963	0.500076
O203	O	0.560402	-0.746209	0.000026
O204	O	1.060402	-0.246209	0.500026
H205	H	0.557585	-0.772937	0.054063
H206	H	1.057585	-0.272937	0.554063
O207	O	0.591377	0.154939	0.376774
O208	O	1.091377	0.654939	0.876774
H209	H	0.597928	0.148407	0.441813
H210	H	1.097928	0.648407	0.941813
O211	O	0.561878	-0.622761	0.000031
O212	O	1.061878	-0.122761	0.500031
H213	H	0.559711	-0.595354	-0.054006
H214	H	1.059711	-0.095354	0.445994
H215	H	0.525567	-0.459902	-0.000002
H216	H	1.025567	0.040098	0.499998
O217	O	0.777742	-0.652207	0.000046
O218	O	1.277742	-0.152207	0.500046
H219	H	0.780555	-0.625494	0.054083
H220	H	1.280555	-0.125494	0.554083
O221	O	0.507304	0.078062	-0.150182
O222	O	1.007304	0.578062	0.349818
H223	H	0.501201	0.039104	-0.184828
H224	H	1.001201	0.539104	0.315172
O225	O	0.753296	-0.006896	0.623335
O226	O	1.253296	0.493104	1.123335
H227	H	0.797655	0.000119	0.639338
H228	H	1.297655	0.500119	1.139338
O229	O	0.110618	0.073279	-0.222439
O230	O	0.610618	0.573279	0.277561
H231	H	0.064323	0.072724	-0.210309
H232	H	0.564323	0.572724	0.289691
O233	O	0.513232	-0.342431	0.000005
O234	O	1.013232	0.157569	0.500005
H235	H	0.522505	-0.297326	0.000006
H236	H	1.022505	0.202674	0.500006
O237	O	0.566946	-0.199758	0.000055
O238	O	1.066946	0.300242	0.500055
H239	H	0.531209	-0.164200	0.000049
H240	H	1.031209	0.335800	0.500049
H241	H	0.762627	-0.765949	0.000044
H242	H	1.262627	-0.265949	0.500044
H243	H	0.743022	0.003401	0.785772
H244	H	1.243022	0.503401	1.285772
H245	H	0.391693	0.076661	0.131170
H246	H	0.891693	0.576661	0.631170
O247	O	0.753289	-0.006902	0.376795
O248	O	1.253289	0.493098	0.876795
H249	H	0.746747	-0.000367	0.441833
H250	H	1.246747	0.499633	0.941833
H251	H	0.226200	0.074641	0.203447
H252	H	0.726200	0.574641	0.703447
H253	H	-0.047012	0.071381	0.131189
H254	H	0.452988	0.571381	0.631189
H255	H	0.391692	0.076671	-0.131080
H256	H	0.891692	0.576671	0.368920
H257	H	0.769176	-0.219466	0.000076
H258	H	1.269176	0.280534	0.500076
O259	O	0.591368	0.154931	0.203315
O260	O	1.091368	0.654931	0.703315
H261	H	0.564293	0.182007	0.246346
H262	H	1.064293	0.682007	0.746346
H263	H	-0.154770	0.070089	-0.131050
H264	H	0.345230	0.570089	0.368950
O265	O	0.568423	-0.076289	0.000067
O266	O	1.068423	0.423711	0.500067
H267	H	0.577706	-0.031187	0.000066
H268	H	1.077706	0.468813	0.500066
H269	H	-0.047020	0.071377	-0.131062
H270	H	0.452980	0.571377	0.368938
O271	O	0.753277	-0.006905	0.203339
O272	O	1.253277	0.493095	0.703339
H273	H	0.780357	-0.033978	0.246379
H274	H	1.280357	0.466022	0.746379
O275	O	0.234060	0.074765	-0.222444
O276	O	0.734060	0.574765	0.277556
H277	H	0.280355	0.075319	-0.210320
H278	H	0.780355	0.575319	0.289680
O279	O	0.507293	0.078073	0.150262
O280	O	1.007293	0.578073	0.650262
H281	H	0.476656	0.077703	0.200510
H282	H	0.976656	0.577703	0.700510
