data_functionalizedCrystal
_audit_creation_method	'MofGen! by Chris Wilmer'
_symmetry_space_group_name_H-M	'P1'
_symmetry_Int_Tables_number	1
_symmetry_cell_setting	triclinic
loop_
_symmetry_equiv_pos_as_xyz
  x,y,z
_cell_length_a	13.033855
_cell_length_b	25.639242
_cell_length_c	13.032268
_cell_angle_alpha	82.839156
_cell_angle_beta	90.869374
_cell_angle_gamma	97.182895
loop_
_atom_site_label
_atom_site_type_symbol
_atom_site_fract_x
_atom_site_fract_y
_atom_site_fract_z
Zn1	Zn	-0.483495	-0.796427	-0.529595
Zn2	Zn	-0.633662	-0.818244	-0.335806
Zn3	Zn	-0.461679	-0.718537	-0.357631
Zn4	Zn	-0.655391	-0.721305	-0.507727
O5	O	-0.558557	-0.763628	-0.432690
O6	O	-0.503452	-0.872487	-0.503907
O7	O	-0.592625	-0.812989	-0.194784
O8	O	-0.320659	-0.718580	-0.398728
O9	O	-0.613779	-0.888516	-0.361531
O10	O	-0.336687	-0.775805	-0.525069
O11	O	-0.466269	-0.739735	-0.210818
O12	O	-0.487339	-0.645737	-0.377523
O13	O	-0.650812	-0.723298	-0.654546
O14	O	-0.629658	-0.647771	-0.487799
O15	O	-0.524521	-0.778490	-0.670612
O16	O	-0.780459	-0.815674	-0.340327
O17	O	-0.796423	-0.744453	-0.466636
C18	C	-0.558490	-0.627783	-0.432657
C19	C	-0.558489	-0.569669	-0.432664
C20	C	-0.501217	-0.310141	-0.506907
C21	C	-0.501209	-0.364745	-0.506906
O22	O	-0.452482	-0.385893	-0.570041
N23	N	-0.558527	-0.400396	-0.432684
C24	C	-0.615864	-0.381440	-0.358467
O25	O	-0.664617	-0.416778	-0.295336
C26	C	-0.615877	-0.326837	-0.358474
C27	C	-0.558548	-0.291189	-0.432693
C28	C	-0.443894	-0.274494	-0.581122
C29	C	-0.443900	-0.219893	-0.581122
C30	C	-0.501230	-0.200941	-0.506908
C31	C	-0.558554	-0.236589	-0.432694
C32	C	-0.673219	-0.307883	-0.284262
C33	C	-0.673228	-0.253276	-0.284276
C34	C	-0.615899	-0.217627	-0.358495
C35	C	-0.615891	-0.163036	-0.358480
N36	N	-0.558574	-0.127386	-0.432701
C37	C	-0.501244	-0.146338	-0.506915
C38	C	-0.615833	-0.496110	-0.358459
C39	C	-0.615815	-0.550712	-0.358446
C40	C	-0.501162	-0.534013	-0.506886
C41	C	-0.501175	-0.479410	-0.506893
C42	C	-0.558516	-0.460459	-0.432680
C43	C	-0.501261	-0.031675	-0.506909
C44	C	-0.501269	0.022930	-0.506901
C45	C	-0.615926	0.006226	-0.358464
C46	C	-0.615914	-0.048373	-0.358469
C47	C	-0.558579	-0.067322	-0.432701
O48	O	-0.664596	-0.141850	-0.295380
O49	O	-0.452510	-0.110995	-0.570043
C50	C	-0.825759	-0.782744	-0.398763
C51	C	-0.940074	-0.790968	-0.384283
C52	C	-0.998965	-0.759376	-0.440268
C53	C	-1.117115	-0.767875	-0.425303
C54	C	-0.290314	-0.744450	-0.466772
C55	C	-0.176005	-0.736278	-0.481296
C56	C	-0.592524	-0.748769	-0.700938
C57	C	-0.606998	-0.742437	-0.815250
C58	C	-0.558611	0.099997	-0.432711
C59	C	-0.558600	0.041882	-0.432687
C60	C	-0.550965	-0.766922	-0.874162
C61	C	-0.565924	-0.760378	-0.992309
C62	C	-0.524648	-0.778454	-0.165495
C63	C	-0.509883	-0.784866	-0.051221
H64	H	-0.454481	-0.549453	-0.567316
C65	C	-0.422297	-0.823148	-0.901250
C66	C	-0.471249	-0.801760	-0.824186
H67	H	-0.373078	-0.844653	-0.870397
H68	H	-0.472381	-0.844047	-0.937459
H69	H	-0.388218	-0.795246	-0.948148
H70	H	-0.505334	-0.829663	-0.777292
H71	H	-0.421157	-0.780860	-0.787960
H72	H	-0.961916	-0.726034	-0.499273
C73	C	-0.643707	0.009846	-0.177910
C74	C	-0.678946	0.027066	-0.276893
H75	H	-0.682615	0.022715	-0.127557
H76	H	-0.651914	-0.027771	-0.167285
H77	H	-0.572694	0.022924	-0.171755
H78	H	-0.749958	0.013984	-0.283050
H79	H	-0.670749	0.064690	-0.287522
H80	H	-1.154162	-0.801215	-0.366288
C81	C	-1.018640	-0.691559	-0.560376
C82	C	-1.126005	-0.691267	-0.560967
H83	H	-0.987776	-0.663774	-0.609566
H84	H	-0.992377	-0.686510	-0.493472
H85	H	-1.002956	-0.724590	-0.577706
H86	H	-1.141690	-0.658237	-0.543629
H87	H	-1.152278	-0.696312	-0.627886
H88	H	-0.977125	-0.824306	-0.325271
C89	C	-0.645042	-0.725804	-1.149649
C90	C	-0.645649	-0.725540	-1.042282
H91	H	-0.694266	-0.704300	-1.180498
H92	H	-0.578155	-0.712243	-1.175976
H93	H	-0.662310	-0.761047	-1.165288
H94	H	-0.628373	-0.690297	-1.026643
H95	H	-0.712551	-0.739099	-1.015947
H96	H	-0.666038	-0.716627	-0.852281
H97	H	-0.450827	-0.810672	-1.014197
H98	H	-0.719903	-0.336899	-0.223824
H99	H	-0.454573	-0.047095	-0.567355
C100	C	-0.473511	0.052944	-0.687463
C101	C	-0.438256	0.062115	-0.588492
H102	H	-0.434615	0.077137	-0.737832
H103	H	-0.465300	0.017716	-0.698073
H104	H	-0.544527	0.057770	-0.693609
H105	H	-0.367241	0.057285	-0.582344
H106	H	-0.446457	0.097352	-0.577879
C107	C	-0.416157	-0.189893	-0.761682
C108	C	-0.380894	-0.180714	-0.662718
H109	H	-0.377263	-0.165705	-0.812059
H110	H	-0.407948	-0.225124	-0.772280
H111	H	-0.487173	-0.185067	-0.767826
H112	H	-0.309880	-0.185543	-0.656571
H113	H	-0.389094	-0.145475	-0.652116
C114	C	-0.447303	-0.327230	-0.721289
C115	C	-0.380866	-0.295318	-0.662707
H116	H	-0.408383	-0.340079	-0.771659
H117	H	-0.481422	-0.356279	-0.677097
H118	H	-0.497150	-0.306971	-0.754853
H119	H	-0.331023	-0.315578	-0.629136
H120	H	-0.346730	-0.266265	-0.706905
H121	H	-0.662486	-0.579733	-0.297999
C122	C	-0.364704	-0.407292	-0.538995
C123	C	-0.438164	-0.440228	-0.588483
H124	H	-0.325800	-0.383108	-0.589371
H125	H	-0.398849	-0.388187	-0.494814
H126	H	-0.319630	-0.428247	-0.499250
H127	H	-0.483243	-0.419274	-0.628222
H128	H	-0.404016	-0.459335	-0.632682
C129	C	-0.729149	-0.518109	-0.211719
C130	C	-0.678853	-0.475282	-0.276862
H131	H	-0.768048	-0.505252	-0.161344
H132	H	-0.774217	-0.539754	-0.251459
H133	H	-0.679286	-0.538361	-0.178162
H134	H	-0.728716	-0.455032	-0.310425
H135	H	-0.633781	-0.453628	-0.237117
C136	C	-0.786566	-0.275271	-0.137553
C137	C	-0.736257	-0.232446	-0.202692
H138	H	-0.825470	-0.262411	-0.087183
H139	H	-0.831632	-0.296915	-0.177297
H140	H	-0.736711	-0.295525	-0.103988
H141	H	-0.786113	-0.212194	-0.236263
H142	H	-0.691188	-0.210794	-0.162942
H143	H	-0.662586	-0.077400	-0.298026
