data_functionalizedCrystal
_audit_creation_method	'MofGen! by Chris Wilmer'
_symmetry_space_group_name_H-M	'P1'
_symmetry_Int_Tables_number	1
_symmetry_cell_setting	triclinic
loop_
_symmetry_equiv_pos_as_xyz
  x,y,z
_cell_length_a	12.759401
_cell_length_b	25.639239
_cell_length_c	12.759393
_cell_angle_alpha	90.037052
_cell_angle_beta	90.018496
_cell_angle_gamma	90.038847
loop_
_atom_site_label
_atom_site_type_symbol
_atom_site_fract_x
_atom_site_fract_y
_atom_site_fract_z
Zn1	Zn	1.606080	-0.208118	0.593941
Zn2	Zn	1.605901	-0.295564	0.418245
Zn3	Zn	1.430382	-0.208145	0.418281
Zn4	Zn	1.430297	-0.295524	0.593886
O5	O	1.518165	-0.251838	0.506088
O6	O	1.753078	-0.219723	0.570643
O7	O	1.582579	-0.283996	0.271228
O8	O	1.453799	-0.134976	0.441621
O9	O	1.752946	-0.283970	0.441559
O10	O	1.582884	-0.134956	0.570678
O11	O	1.453626	-0.219770	0.271255
O12	O	1.283350	-0.219731	0.441567
O13	O	1.453655	-0.283901	0.740914
O14	O	1.283288	-0.283928	0.570584
O15	O	1.582802	-0.219684	0.740955
O16	O	1.582496	-0.368724	0.441505
O17	O	1.453481	-0.368695	0.570549
C18	C	1.245198	-0.251828	0.506074
C19	C	1.128421	-0.251837	0.506093
C20	C	1.517989	-0.387680	0.506040
C21	C	1.518009	-0.445795	0.506055
C22	C	1.073554	-0.285318	0.573160
C23	C	0.963830	-0.285324	0.573172
C24	C	0.963850	-0.218368	0.439039
C25	C	1.073572	-0.218359	0.439033
C26	C	1.073542	-0.323976	0.650598
C27	C	0.963818	-0.323983	0.650609
C28	C	1.585519	-0.806160	0.439010
C29	C	1.585560	-0.860765	0.439024
O30	O	1.642775	-0.889004	0.381967
N31	N	1.518350	-0.888077	0.506158
C32	C	1.451103	-0.860782	0.573289
O33	O	1.393940	-0.889027	0.630394
C34	C	1.451068	-0.806179	0.573280
C35	C	1.518275	-0.778869	0.506134
C36	C	1.652721	-0.778851	0.371870
C37	C	1.652678	-0.724250	0.371855
C38	C	1.585434	-0.696959	0.438980
C39	C	1.518232	-0.724269	0.506119
C40	C	1.383827	-0.778885	0.640416
C41	C	1.383799	-0.724278	0.640401
C42	C	1.451005	-0.696968	0.573256
C43	C	1.450946	-0.642377	0.573228
N44	N	1.518155	-0.615065	0.506094
C45	C	1.585399	-0.642356	0.438970
C46	C	1.451182	-0.975453	0.573306
C47	C	1.451210	-1.030055	0.573311
C48	C	1.585669	-1.030034	0.439046
C49	C	1.585634	-0.975430	0.439037
C50	C	1.518391	-0.948140	0.506172
C51	C	1.585305	-0.527691	0.438943
C52	C	1.585253	-0.473086	0.438930
C53	C	1.450799	-0.473111	0.573198
C54	C	1.450846	-0.527712	0.573207
C55	C	1.518108	-0.555000	0.506076
O56	O	1.393762	-0.614103	0.630258
O57	O	1.642562	-0.614104	0.381885
C58	C	1.792198	-0.251848	0.506103
C59	C	1.908975	-0.251852	0.506109
C60	C	1.518239	-0.251785	0.780122
C61	C	1.518270	-0.251763	0.896898
C62	C	1.518371	-0.115465	0.506159
C63	C	1.518459	-0.057351	0.506190
C64	C	1.518152	-0.251853	0.233121
C65	C	1.518325	-0.251728	0.116345
C66	C	1.585526	-0.218322	0.951783
C67	C	1.585551	-0.218303	1.061507
C68	C	1.451061	-0.285170	1.061452
C69	C	1.451032	-0.285186	0.951730
C70	C	1.663176	-0.179718	0.951816
C71	C	1.663201	-0.179699	1.061540
H72	H	1.118241	-0.191092	0.384427
O73	O	1.114040	-0.369882	0.615826
C74	C	1.079775	-0.410806	0.681167
H75	H	1.057280	-0.394416	0.761123
H76	H	1.145568	-0.440467	0.690966
H77	H	1.008773	-0.430628	0.644251
H78	H	1.641442	-0.139227	0.922068
O79	O	1.109301	-0.311125	0.747665
C80	C	1.219802	-0.311132	0.747470
H81	H	1.249399	-0.336938	0.680997
H82	H	1.249725	-0.326844	0.825493
H83	H	1.249637	-0.269620	0.735762
O84	O	1.385854	-0.317622	1.114880
C85	C	1.400278	-0.310428	1.223494
H86	H	1.481388	-0.293305	1.238498
H87	H	1.393102	-0.349584	1.265167
H88	H	1.338010	-0.282578	1.254644
O89	O	1.318626	-0.697744	0.705728
C90	C	1.378383	-0.666093	0.773610
H91	H	1.461139	-0.682501	0.780170
H92	H	1.340344	-0.665463	0.854433
H93	H	1.381984	-0.624720	0.741120
O94	O	0.928168	-0.372291	0.624610
C95	C	0.866800	-0.392227	0.707288
H96	H	0.889518	-0.372012	0.783595
H97	H	0.880880	-0.435962	0.714949
H98	H	0.780380	-0.384828	0.690177
H99	H	0.929832	-0.309529	0.727964
H100	H	1.740436	-0.194233	0.917777
O101	O	0.910685	-0.185877	0.373748
C102	C	0.937425	-0.197249	0.268992
H103	H	1.017067	-0.217343	0.266737
H104	H	0.941206	-0.159487	0.222020
H105	H	0.875628	-0.224112	0.233510
H106	H	1.744563	-0.190544	1.091316
O107	O	1.628371	-0.133801	1.102048
C108	C	1.524932	-0.124629	1.067837
H109	H	1.509886	-0.147305	0.992433
H110	H	1.513773	-0.081176	1.052638
H111	H	1.467496	-0.137989	1.130776
O112	O	1.650642	-0.446639	0.373670
C113	C	1.709983	-0.482440	0.314414
H114	H	1.713624	-0.521343	0.357465
H115	H	1.792756	-0.466626	0.303272
H116	H	1.671557	-0.488300	0.234590
H117	H	1.640078	-0.549903	0.384280
O118	O	1.385637	-0.446570	0.638514
C119	C	1.445414	-0.414921	0.706382
H120	H	1.528164	-0.431338	0.712939
H121	H	1.407383	-0.414282	0.787208
H122	H	1.449032	-0.373550	0.673881
H123	H	1.707407	-0.702018	0.317183
H124	H	1.707485	-0.801065	0.317210
H125	H	1.640360	-0.953198	0.384362
O126	O	1.651178	-1.056554	0.374033
C127	C	1.718995	-1.088064	0.433987
H128	H	1.725318	-1.071570	0.516740
H129	H	1.799909	-1.088628	0.396141
H130	H	1.686597	-1.129475	0.437558
O131	O	1.386030	-1.056556	0.638679
C132	C	1.408909	-1.043146	0.743403
H133	H	1.492829	-1.028094	0.748773
H134	H	1.399851	-1.079037	0.795318
H135	H	1.352548	-1.011466	0.770801
O136	O	1.385795	-0.948888	0.638369
C137	C	1.317927	-0.917370	0.578490
H138	H	1.355021	-0.909194	0.498905
H139	H	1.303787	-0.878967	0.621272
H140	H	1.240095	-0.938461	0.566875
O141	O	1.318512	-0.805324	0.705745
C142	C	1.259149	-0.769516	0.764965
H143	H	1.302163	-0.730572	0.768612
H144	H	1.247914	-0.785259	0.847744
H145	H	1.179370	-0.763763	0.726429
O146	O	1.385527	-0.554163	0.638526
C147	C	1.326145	-0.518363	0.697745
H148	H	1.369141	-0.479414	0.701398
H149	H	1.314912	-0.534109	0.780522
H150	H	1.246365	-0.512618	0.659205
H151	H	1.396262	-0.312415	0.907047
