data_functionalizedCrystal
_audit_creation_method	'MofGen! by Chris Wilmer'
_symmetry_space_group_name_H-M	'P1'
_symmetry_Int_Tables_number	1
_symmetry_cell_setting	triclinic
loop_
_symmetry_equiv_pos_as_xyz
  x,y,z
_cell_length_a	12.594517
_cell_length_b	17.077404
_cell_length_c	17.077396
_cell_angle_alpha	90.019501
_cell_angle_beta	89.979999
_cell_angle_gamma	89.993141
loop_
_atom_site_label
_atom_site_type_symbol
_atom_site_fract_x
_atom_site_fract_y
_atom_site_fract_z
Zn1	Zn	0.423736	1.200143	0.443889
Zn2	Zn	0.923736	1.700143	0.943889
Zn3	Zn	0.601736	1.200088	0.312642
Zn4	Zn	1.101736	1.700088	0.812642
Zn5	Zn	0.423773	1.068875	0.312637
Zn6	Zn	0.923773	1.568875	0.812637
Zn7	Zn	0.601673	1.068880	0.443866
Zn8	Zn	1.101673	1.568880	0.943866
O9	O	0.512730	1.134497	0.378259
O10	O	1.012730	1.634497	0.878259
O11	O	0.447359	1.309983	0.426491
O12	O	0.947359	1.809983	0.926491
O13	O	0.578171	1.182657	0.202795
O14	O	1.078171	1.682657	0.702795
O15	O	0.274822	1.086309	0.330055
O16	O	0.774822	1.586309	0.830055
O17	O	0.578135	1.309942	0.330064
O18	O	1.078135	1.809942	0.830064
O19	O	0.274795	1.182751	0.426485
O20	O	0.774795	1.682751	0.926485
O21	O	0.447422	1.086255	0.202791
O22	O	0.947422	1.586255	0.702791
O23	O	0.447361	0.959029	0.330033
O24	O	0.947361	1.459029	0.830033
O25	O	0.578027	1.086318	0.553716
O26	O	1.078027	1.586318	1.053716
O27	O	0.578064	0.959033	0.426446
O28	O	1.078064	1.459033	0.926446
O29	O	0.447297	1.182756	0.553733
O30	O	0.947297	1.682756	1.053733
O31	O	0.750674	1.182662	0.330042
O32	O	1.250674	1.682662	0.830042
O33	O	0.750627	1.086264	0.426452
O34	O	1.250627	1.586264	0.926452
C35	C	0.512710	0.930549	0.378237
C36	C	1.012710	1.430549	0.878237
C37	C	0.512728	0.843299	0.378246
C38	C	1.012728	1.343299	0.878246
C39	C	0.235109	1.134536	0.378272
C40	C	0.735109	1.634536	0.878272
C41	C	0.116803	1.134553	0.378278
C42	C	0.616803	1.634553	0.878278
C43	C	0.580887	0.802331	0.428368
C44	C	1.080887	1.302331	0.928368
C45	C	0.580889	0.720351	0.428381
C46	C	1.080889	1.220351	0.928381
C47	C	0.512737	0.679340	0.378267
C48	C	1.012737	1.179340	0.878267
C49	C	0.444570	0.720313	0.328143
C50	C	0.944570	1.220313	0.828143
C51	C	0.444563	0.802292	0.328135
C52	C	0.944563	1.302292	0.828135
C53	C	0.444591	0.549443	0.328162
C54	C	0.944591	1.049443	0.828162
C55	C	0.444599	0.467458	0.328168
C56	C	0.944599	0.967458	0.828168
C57	C	0.580917	0.467502	0.428408
C58	C	1.080917	0.967502	0.928408
C59	C	0.580910	0.549481	0.428400
C60	C	1.080910	1.049481	0.928400
C61	C	0.512745	0.590449	0.378274
C62	C	1.012745	1.090449	0.878274
C63	C	0.047535	1.187002	0.430730
C64	C	0.547535	1.687002	0.930730
C65	C	-0.023226	1.206183	0.359119
C66	C	0.476774	1.706183	0.859119
C67	C	-0.023234	1.115396	0.449893
C68	C	0.476766	1.615396	0.949893
C69	C	0.047600	1.153772	0.306629
C70	C	0.547600	1.653772	0.806629
C71	C	0.047598	1.062951	0.397452
C72	C	0.547598	1.562951	0.897452
C73	C	-0.023131	1.082105	0.325791
C74	C	0.476869	1.582105	0.825791
C75	C	0.789271	1.134479	0.378262
C76	C	1.289271	1.634479	0.878262
C77	C	0.907576	1.134543	0.378290
C78	C	1.407576	1.634543	0.878290
C79	C	0.512651	1.134544	0.583003
C80	C	1.012651	1.634544	1.083003
C81	C	0.512618	1.134564	0.670253
C82	C	1.012618	1.634564	1.170253
C83	C	0.512750	1.339241	0.378281
C84	C	1.012750	1.839241	0.878281
C85	C	0.512758	1.426491	0.378290
C86	C	1.012758	1.926491	0.878290
C87	C	0.512731	1.134494	0.174311
C88	C	1.012731	1.634494	0.674311
C89	C	0.512464	1.134626	0.087061
C90	C	1.012464	1.634626	0.587061
C91	C	0.444541	1.184782	0.711253
C92	C	0.944541	1.684782	1.211253
C93	C	0.444506	1.184791	0.793234
C94	C	0.944506	1.684791	1.293234
C95	C	0.512553	1.134587	0.834212
C96	C	1.012553	1.634587	1.334212
C97	C	0.580633	1.084364	0.793206
C98	C	1.080633	1.584364	1.293206
C99	C	0.580662	1.084351	0.711227
C100	C	1.080662	1.584351	1.211227
C101	C	0.580569	1.084395	0.964076
C102	C	1.080569	1.584395	1.464076
C103	C	0.580541	1.084409	1.046061
C104	C	1.080541	1.584409	1.546061
C105	C	0.444412	1.184835	1.046083
C106	C	0.944412	1.684835	1.546083
C107	C	0.444442	1.184823	0.964104
C108	C	0.944442	1.684823	1.464104
C109	C	0.512523	1.134601	0.923103
C110	C	1.012523	1.634601	1.423103
H111	H	0.636412	0.582870	0.469203
H112	H	1.136412	1.082870	0.969203
C113	C	0.655855	0.847437	0.483496
C114	C	1.155855	1.347437	0.983496
H115	H	0.696440	0.811293	0.513353
H116	H	1.196440	1.311293	1.013353
H117	H	0.702178	0.879403	0.453413
H118	H	1.202178	1.379403	0.953413
H119	H	0.615187	0.879431	0.517746
H120	H	1.115187	1.379431	1.017746
C121	C	0.655930	0.675290	0.483467
C122	C	1.155930	1.175290	0.983467
H123	H	0.696546	0.711456	0.513290
H124	H	1.196546	1.211456	1.013290
H125	H	0.615339	0.643303	0.517739
H126	H	1.115339	1.143303	1.017739
H127	H	0.702237	0.643318	0.453338
H128	H	1.202237	1.143318	0.953338
C129	C	0.089442	1.175753	0.224796
C130	C	0.589442	1.675753	0.724796
H131	H	0.031221	1.184897	0.190643
H132	H	0.531221	1.684897	0.690643
H133	H	0.131417	1.221823	0.228417
H134	H	0.631417	1.721823	0.728417
H135	H	0.131491	1.134089	0.204837
H136	H	0.631491	1.634089	0.704837
H137	H	-0.054350	1.099198	0.510451
H138	H	0.445650	1.599198	1.010451
H139	H	-0.053964	1.037747	0.281389
H140	H	0.446036	1.537747	0.781389
H141	H	0.635949	1.043526	1.079424
H142	H	1.135949	1.543526	1.579424
C143	C	0.089670	0.981184	0.419389
C144	C	0.589670	1.481184	0.919389
H145	H	0.065461	0.967653	0.470311
H146	H	0.565461	1.467653	0.970311
H147	H	0.064424	0.943789	0.382654
H148	H	0.564424	1.443789	0.882654
H149	H	0.165092	0.981672	0.418755
H150	H	0.665092	1.481672	0.918755
C151	C	0.369683	1.240004	0.666183
C152	C	0.869683	1.740004	1.166183
H153	H	0.329126	1.269906	0.702346
H154	H	0.829126	1.769906	1.202346
H155	H	0.410405	1.274197	0.634204
H156	H	0.910405	1.774197	1.134204
H157	H	0.323312	1.209969	0.634204
H158	H	0.823312	1.709969	1.134204
C159	C	0.369626	1.240034	0.838331
C160	C	0.869626	1.740034	1.338331
H161	H	0.329115	1.269939	0.802184
H162	H	0.829115	1.769939	1.302184
H163	H	0.323231	1.210022	0.870308
H164	H	0.823231	1.710022	1.370308
H165	H	0.410344	1.274236	0.870314
H166	H	0.910344	1.774236	1.370314
C167	C	0.369536	1.240087	1.091179
C168	C	0.869536	1.740087	1.591179
H169	H	0.379258	1.232904	1.145872
H170	H	0.879258	1.732904	1.645872
H171	H	0.385142	1.292820	1.077748
H172	H	0.885142	1.792820	1.577748
H173	H	0.298016	1.228617	1.077750
H174	H	0.798016	1.728617	1.577750
H175	H	0.389037	1.225708	0.930741
H176	H	0.889037	1.725708	1.430741
H177	H	0.636417	0.434142	0.469224
H178	H	1.136417	0.934142	0.969224
C179	C	0.655486	1.029138	0.838277
C180	C	1.155486	1.529138	1.338277
H181	H	0.696027	0.999224	0.802115
H182	H	1.196027	1.499224	1.302115
H183	H	0.701854	1.059164	0.870259
H184	H	1.201854	1.559164	1.370259
H185	H	0.614749	0.994944	0.870253
H186	H	1.114749	1.494944	1.370253
H187	H	0.389090	0.434069	0.287370
H188	H	0.889090	0.934069	0.787370
C189	C	0.655573	1.029131	0.666127
C190	C	1.155573	1.529131	1.166127
H191	H	0.696109	0.999243	0.702272
H192	H	1.196109	1.499243	1.202272
H193	H	0.614887	0.994925	0.634134
H194	H	1.114887	1.494925	1.134134
H195	H	0.701960	1.059168	0.634159
H196	H	1.201960	1.559168	1.134159
C197	C	0.369590	0.847360	0.273002
C198	C	0.869590	1.347360	0.773002
H199	H	0.379338	0.902057	0.280180
H200	H	0.879338	1.402057	0.780180
H201	H	0.385072	0.833903	0.220242
H202	H	0.885072	1.333903	0.720242
H203	H	0.298094	0.833931	0.284585
H204	H	0.798094	1.333931	0.784585
H205	H	0.635991	1.043487	0.930697
H206	H	1.135991	1.543487	1.430697
C207	C	0.369606	0.594506	0.273028
C208	C	0.869606	1.094506	0.773028
H209	H	0.329023	0.558341	0.243178
H210	H	0.829023	1.058341	0.743178
H211	H	0.323280	0.626500	0.303109
H212	H	0.823280	1.126500	0.803109
H213	H	0.410264	0.626469	0.238770
H214	H	0.910264	1.126469	0.738770
H215	H	-0.054335	1.266731	0.342901
H216	H	0.445665	1.766731	0.842901
H217	H	0.389074	0.686915	0.287342
H218	H	0.889074	1.186915	0.787342
H219	H	0.078564	1.231394	0.475026
H220	H	0.578564	1.731394	0.975026
