data_functionalizedCrystal
_audit_creation_method	'MofGen! by Chris Wilmer'
_symmetry_space_group_name_H-M	'P1'
_symmetry_Int_Tables_number	1
_symmetry_cell_setting	triclinic
loop_
_symmetry_equiv_pos_as_xyz
  x,y,z
_cell_length_a	10.654556
_cell_length_b	10.654551
_cell_length_c	17.766277
_cell_angle_alpha	89.996514
_cell_angle_beta	89.990242
_cell_angle_gamma	84.486385
loop_
_atom_site_label
_atom_site_type_symbol
_atom_site_fract_x
_atom_site_fract_y
_atom_site_fract_z
O1	O	1.667846	0.176437	-0.062597
O2	O	1.302369	0.193235	-0.062596
O3	O	1.493510	0.002097	-0.062597
O4	O	1.476705	0.367575	-0.062596
O5	O	1.493476	0.002087	0.062592
O6	O	1.302335	0.193225	0.062592
O7	O	1.667812	0.176427	0.062592
Cu8	Cu	1.485070	0.184825	0.074023
Cu9	Cu	1.485110	0.184837	-0.074027
O10	O	1.476671	0.367565	0.062593
C11	C	1.255554	0.191995	-0.000002
C12	C	1.116111	0.188300	-0.000002
C13	C	1.492259	-0.044706	-0.000004
C14	C	1.488566	-0.184149	-0.000009
C15	C	0.919599	0.183106	-0.068248
C16	C	1.050622	0.186571	-0.068245
C17	C	1.050573	0.186552	0.068243
C18	C	0.919554	0.183079	0.068238
C19	C	0.919628	0.183122	-0.147048
C20	C	1.050650	0.186587	-0.147045
C21	C	1.486852	-0.249655	-0.068248
C22	C	1.483372	-0.380676	-0.068245
C23	C	1.483325	-0.380672	0.068243
C24	C	1.486796	-0.249653	0.068238
C25	C	1.486885	-0.249659	-0.147048
C26	C	1.483405	-0.380680	-0.147045
C27	C	1.714627	0.177667	-0.000004
C28	C	1.854070	0.181362	-0.000009
C29	C	1.477922	0.414368	-0.000002
C30	C	1.481615	0.553811	-0.000002
N31	N	1.485051	0.184816	0.178153
N32	N	1.485139	0.184837	-0.178157
C33	C	1.569716	0.100222	0.217540
C34	C	1.569724	0.100217	0.296342
C35	C	1.485078	0.184826	0.335754
C36	C	1.400396	0.269426	0.296358
C37	C	1.400383	0.269421	0.217557
C38	C	1.469619	0.299064	0.460592
C39	C	1.469641	0.299071	0.539391
C40	C	1.485111	0.184842	0.578800
C41	C	1.500587	0.070601	0.539401
C42	C	1.500573	0.070596	0.460601
C43	C	1.485082	0.184841	0.421199
C44	C	1.569789	0.100235	0.703633
C45	C	1.569788	0.100227	0.782436
C46	C	1.400467	0.269448	0.782450
C47	C	1.400462	0.269445	0.703649
C48	C	1.485130	0.184839	0.664245
H49	H	1.103906	0.187950	0.123807
H50	H	0.894812	0.094451	-0.177307
H51	H	1.481881	-0.434022	0.123807
N52	N	1.452944	0.422281	0.581880
H53	H	1.375234	0.424289	0.614588
H54	H	1.529348	0.430385	0.614517
H55	H	1.570204	-0.426966	-0.177300
N56	N	0.851134	0.301587	-0.179445
H57	H	0.914406	0.361381	-0.195095
H58	H	0.800492	0.279224	-0.224729
N59	N	1.488641	-0.178995	0.141838
H60	H	1.412363	-0.115134	0.144874
H61	H	1.487042	-0.240461	0.185027
H62	H	1.638728	0.031334	0.814505
N63	N	1.119165	0.068112	-0.179427
H64	H	1.055902	0.008320	-0.195079
H65	H	1.169856	0.090457	-0.224705
H66	H	1.331525	0.338334	0.671578
N67	N	1.371943	-0.188339	-0.187128
H68	H	1.318139	-0.255477	-0.205007
H69	H	1.321560	-0.129464	-0.151390
H70	H	1.331541	0.338334	0.814539
H71	H	1.075492	0.275273	-0.177292
N72	N	1.608222	-0.210474	-0.179430
H73	H	1.664295	-0.287907	-0.195074
H74	H	1.588714	-0.154686	-0.224713
N75	N	1.309058	0.360661	0.175070
H76	H	1.255429	0.414258	0.211992
H77	H	1.357609	0.416634	0.142365
N78	N	1.362072	-0.419838	-0.179426
H79	H	1.352532	-0.389414	-0.233150
H80	H	1.364003	-0.514772	-0.178187
H81	H	1.638655	0.031329	0.185459
H82	H	1.638670	0.031327	0.328416
N83	N	1.517259	-0.052608	0.418104
H84	H	1.527063	-0.124976	0.455021
H85	H	1.440895	-0.060650	0.385423
H86	H	1.513184	-0.022415	0.571486
N87	N	1.661100	0.008985	0.661125
H88	H	1.714731	-0.044615	0.698037
H89	H	1.612537	-0.046985	0.628439
N90	N	1.452934	0.422278	0.418092
H91	H	1.523207	0.475283	0.431791
H92	H	1.455238	0.404835	0.362209
N93	N	0.848874	0.181173	0.141838
H94	H	0.910343	0.181921	0.185069
H95	H	0.785602	0.257896	0.145041
N96	N	1.309092	0.360679	0.338861
H97	H	1.321948	0.347848	0.394758
H98	H	1.324362	0.449912	0.325078
