data_functionalizedCrystal
_audit_creation_method	'MofGen! by Chris Wilmer'
_symmetry_space_group_name_H-M	'P1'
_symmetry_Int_Tables_number	1
_symmetry_cell_setting	triclinic
loop_
_symmetry_equiv_pos_as_xyz
  x,y,z
_cell_length_a	15.995300
_cell_length_b	15.995350
_cell_length_c	15.072220
_cell_angle_alpha	89.994173
_cell_angle_beta	90.006478
_cell_angle_gamma	96.517909
loop_
_atom_site_label
_atom_site_type_symbol
_atom_site_fract_x
_atom_site_fract_y
_atom_site_fract_z
O1	O	1.111012	-0.107730	0.073811
O2	O	1.611012	0.392270	0.573811
O3	O	0.867231	-0.121101	0.073805
O4	O	1.367231	0.378899	0.573805
O5	O	0.995785	0.007473	0.073807
O6	O	1.495785	0.507473	0.573807
O7	O	0.982457	-0.236305	0.073808
O8	O	1.482457	0.263695	0.573808
O9	O	0.995774	0.007485	-0.073758
O10	O	1.495774	0.507485	0.426242
O11	O	0.867220	-0.121089	-0.073760
O12	O	1.367220	0.378911	0.426240
O13	O	1.111001	-0.107718	-0.073755
O14	O	1.611001	0.392282	0.426245
Zn15	Zn	0.989108	-0.114402	-0.097187
Zn16	Zn	1.489108	0.385598	0.402813
Zn17	Zn	0.989123	-0.114418	0.097237
Zn18	Zn	1.489123	0.385582	0.597237
O19	O	0.982446	-0.236293	-0.073757
O20	O	1.482446	0.263707	0.426243
C21	C	0.836030	-0.120550	0.000021
C22	C	1.336030	0.379450	0.500021
C23	C	0.743077	-0.118915	0.000019
C24	C	1.243077	0.381085	0.500019
C25	C	0.572894	-0.115896	0.000026
C26	C	1.072894	0.384104	0.500026
C27	C	0.525428	-0.207443	0.000025
C28	C	1.025428	0.292557	0.500025
C29	C	0.428740	-0.205773	0.000362
C30	C	0.928740	0.294227	0.500362
C31	C	0.405337	-0.112924	0.000032
C32	C	0.905337	0.387076	0.500032
C33	C	0.446477	-0.067510	0.084132
C34	C	0.946477	0.432490	0.584132
C35	C	0.543110	-0.069827	0.084201
C36	C	1.043110	0.430173	0.584201
C37	C	0.543376	-0.068458	-0.083614
C38	C	1.043376	0.431542	0.416386
C39	C	0.446432	-0.068466	-0.084717
C40	C	0.946432	0.431534	0.415283
C41	C	0.310642	-0.111239	0.000038
C42	C	0.810642	0.388761	0.500038
C43	C	0.667590	-0.117577	0.000026
C44	C	1.167590	0.382423	0.500026
C45	C	0.995229	0.038674	0.000026
C46	C	1.495229	0.538674	0.500026
C47	C	0.993577	0.131624	0.000031
C48	C	1.493577	0.631624	0.500031
C49	C	1.142202	-0.108269	0.000031
C50	C	1.642202	0.391731	0.500031
C51	C	1.235154	-0.109904	0.000039
C52	C	1.735154	0.390096	0.500039
C53	C	0.983003	-0.267493	0.000026
C54	C	1.483003	0.232507	0.500026
C55	C	0.984655	-0.360443	0.000027
C56	C	1.484655	0.139557	0.500027
N57	N	0.989104	-0.114390	-0.229875
N58	N	1.489104	0.385610	0.270125
C59	C	0.987644	0.469370	0.000028
C60	C	1.487644	0.969370	0.500028
C61	C	0.896090	0.421920	0.000357
C62	C	1.396090	0.921920	0.500357
C63	C	0.897743	0.325230	0.000024
C64	C	1.397743	0.825230	0.500024
C65	C	0.990587	0.301810	0.000030
C66	C	1.490587	0.801810	0.500030
C67	C	1.035738	0.342903	-0.084234
C68	C	1.535738	0.842903	0.415766
C69	C	1.033438	0.439538	-0.084305
C70	C	1.533438	0.939538	0.415695
C71	C	1.035342	0.439883	0.083504
C72	C	1.535342	0.939883	0.583504
C73	C	1.035321	0.342938	0.084618
C74	C	1.535321	0.842938	0.584618
C75	C	0.992255	0.207113	0.000028
C76	C	1.492255	0.707113	0.500028
C77	C	0.985979	0.564068	0.000024
C78	C	1.485979	1.064068	0.500024
C79	C	0.989114	-0.114402	-0.410873
C80	C	1.489114	0.385598	0.089127
C81	C	1.057917	-0.045627	-0.448513
C82	C	1.557917	0.454373	0.051487
C83	C	1.058167	-0.045811	-0.551339
C84	C	1.558167	0.454189	-0.051339
C85	C	0.989124	-0.114411	-0.589077
C86	C	1.489124	0.385589	-0.089077
C87	C	1.007844	-0.201880	-0.551730
C88	C	1.507844	0.298120	-0.051730
C89	C	1.008333	-0.201471	-0.448873
C90	C	1.508333	0.298529	0.051127
C91	C	0.901385	-0.096494	-0.448794
C92	C	1.401385	0.403506	0.051206
C93	C	0.901978	-0.094515	-0.551659
C94	C	1.401978	0.405485	-0.051659
C95	C	0.989128	-0.114422	-0.689790
C96	C	1.489128	0.385578	-0.189790
C97	C	0.989112	-0.114397	-0.310160
C98	C	1.489112	0.385603	0.189840
N99	N	0.989134	-0.114422	0.229926
N100	N	1.489134	0.385578	0.729926
H101	H	0.563872	-0.098593	-0.147378
H102	H	1.063872	0.401407	0.352622
Br103	Br	0.382325	-0.265009	0.101431
Br104	Br	0.882325	0.234991	0.601431
H105	H	1.000505	0.457839	-0.147298
H106	H	1.500505	0.957839	0.352702
Br107	Br	0.838587	0.277834	0.100702
Br108	Br	1.338587	0.777834	0.600702
H109	H	0.859502	0.440440	0.060784
H110	H	1.359502	0.940440	0.560784
H111	H	1.103027	0.327587	0.089710
H112	H	1.603027	0.827587	0.589710
H113	H	0.419087	-0.101630	-0.146936
H114	H	0.919087	0.398370	0.353064
H115	H	0.431093	-0.000772	-0.090045
H116	H	0.931093	0.499228	0.409955
H117	H	1.005414	0.460412	0.147372
H118	H	1.505414	0.960412	0.647372
Br119	Br	1.145467	0.493313	-0.090682
Br120	Br	1.645467	0.993313	0.409318
H121	H	1.103949	0.328790	-0.087364
H122	H	1.603949	0.828790	0.412636
Br123	Br	0.835186	0.454973	-0.099495
Br124	Br	1.335186	0.954973	0.400505
H125	H	1.004369	0.314521	-0.146945
H126	H	1.504369	0.814521	0.353055
Br127	Br	0.980761	0.296964	0.188535
Br128	Br	1.480761	0.796964	0.688535
Br129	Br	1.039666	0.062540	-0.593432
Br130	Br	1.539666	0.562540	-0.093432
Br131	Br	0.928645	-0.289967	-0.407366
Br132	Br	1.428645	0.210033	0.092634
H133	H	1.102845	0.471656	0.084075
H134	H	1.602845	0.971656	0.584075
H135	H	0.575383	-0.002603	0.087794
H136	H	1.075383	0.497397	0.587794
H137	H	1.047020	0.019597	-0.423769
H138	H	1.547020	0.519597	0.076231
H139	H	0.432377	0.000713	0.087023
H140	H	0.932377	0.500713	0.587023
H141	H	0.575157	-0.000961	-0.084424
H142	H	1.075157	0.499039	0.415576
H143	H	1.122659	-0.056931	-0.422646
H144	H	1.622659	0.443069	0.077354
H145	H	1.123278	-0.057287	-0.575938
H146	H	1.623278	0.442713	-0.075938
Br147	Br	1.114951	-0.227694	-0.408868
Br148	Br	1.614951	0.272306	0.091132
Br149	Br	0.926517	-0.289265	-0.592462
Br150	Br	1.426517	0.210735	-0.092462
Br151	Br	1.113244	-0.228737	-0.594650
Br152	Br	1.613244	0.271263	-0.094650
H153	H	0.862002	0.297364	-0.060485
H154	H	1.362002	0.797364	0.439515
Br155	Br	0.871253	0.007576	-0.405578
Br156	Br	1.371253	0.507576	0.094422
H157	H	0.850188	-0.146645	-0.424452
H158	H	1.350188	0.353355	0.075548
H159	H	0.848407	-0.141339	-0.577345
H160	H	1.348407	0.358661	-0.077345
Br161	Br	0.381286	-0.265257	-0.100092
Br162	Br	0.881286	0.234743	0.399908
Br163	Br	0.556821	-0.269012	-0.100046
Br164	Br	1.056821	0.230988	0.399954
Br165	Br	0.399264	-0.119492	0.188846
Br166	Br	0.899264	0.380508	0.688846
H167	H	0.545041	-0.243691	0.060243
H168	H	1.045041	0.256309	0.560243
Br169	Br	0.573656	-0.124392	0.189380
Br170	Br	1.073656	0.375608	0.689380
Br171	Br	0.878270	0.012723	-0.592366
Br172	Br	1.378270	0.512723	-0.092366
