data_functionalizedCrystal
_audit_creation_method	'MofGen! by Chris Wilmer'
_symmetry_space_group_name_H-M	'P1'
_symmetry_Int_Tables_number	1
_symmetry_cell_setting	triclinic
loop_
_symmetry_equiv_pos_as_xyz
  x,y,z
_cell_length_a	14.908783
_cell_length_b	14.909351
_cell_length_c	19.076919
_cell_angle_alpha	84.300768
_cell_angle_beta	91.152445
_cell_angle_gamma	90.205778
loop_
_atom_site_label
_atom_site_type_symbol
_atom_site_fract_x
_atom_site_fract_y
_atom_site_fract_z
Zn1	Zn	1.372406	-0.304454	0.473551
Zn2	Zn	1.872406	0.195546	0.973551
Zn3	Zn	1.386335	-0.448811	0.362994
Zn4	Zn	1.886335	0.051189	0.862994
Zn5	Zn	1.228049	-0.306407	0.349450
Zn6	Zn	1.728049	0.193593	0.849450
Zn7	Zn	1.230645	-0.463464	0.474291
Zn8	Zn	1.730645	0.036536	0.974291
O9	O	1.304359	-0.380784	0.415072
O10	O	1.804359	0.119216	0.915072
O11	O	1.499825	-0.316654	0.464244
O12	O	1.999825	0.183346	0.964244
O13	O	1.370081	-0.424605	0.262683
O14	O	1.870081	0.075395	0.762683
O15	O	1.240282	-0.180005	0.359934
O16	O	1.740282	0.319995	0.859934
O17	O	1.510058	-0.422712	0.383019
O18	O	2.010058	0.077288	0.883019
O19	O	1.346341	-0.178571	0.451111
O20	O	1.846341	0.321429	0.951111
O21	O	1.253789	-0.319982	0.252732
O22	O	1.753789	0.180018	0.752732
O23	O	1.102822	-0.334190	0.360652
O24	O	1.602822	0.165810	0.860652
O25	O	1.244707	-0.447686	0.572708
O26	O	1.744707	0.052314	1.072708
O27	O	1.104729	-0.449579	0.452372
O28	O	1.604729	0.050421	0.952372
O29	O	1.348858	-0.330862	0.572164
O30	O	1.848858	0.169138	1.072164
O31	O	1.372598	-0.576897	0.383737
O32	O	1.872598	-0.076897	0.883737
O33	O	1.258213	-0.587662	0.465506
O34	O	1.758213	-0.087662	0.965506
C35	C	1.071216	-0.393687	0.405123
C36	C	1.571216	0.106313	0.905123
C37	C	0.971478	-0.399230	0.400885
C38	C	1.471478	0.100770	0.900885
C39	C	0.773401	-0.299373	0.477646
C40	C	1.273401	0.200627	0.977646
C41	C	0.679688	-0.304578	0.473666
C42	C	1.179688	0.195422	0.973666
C43	C	0.690334	-0.414840	0.388941
C44	C	1.190334	0.085160	0.888941
C45	C	0.784048	-0.409635	0.392921
C46	C	1.284048	0.090365	0.892921
C47	C	0.825578	-0.351900	0.437276
C48	C	1.325578	0.148100	0.937276
C49	C	0.919294	-0.346701	0.441259
C50	C	1.419294	0.153299	0.941259
C51	C	0.929939	-0.456958	0.356532
C52	C	1.429939	0.043042	0.856532
C53	C	0.836225	-0.462163	0.352551
C54	C	1.336225	0.037837	0.852551
C55	C	1.317222	-0.614986	0.426188
C56	C	1.817222	-0.114986	0.926188
C57	C	1.322807	-0.715176	0.430970
C58	C	1.822807	-0.215176	0.930970
C59	C	1.385835	-0.855574	0.485206
C60	C	1.885835	-0.355574	0.985206
C61	C	1.380594	-0.761437	0.480716
C62	C	1.880594	-0.261437	0.980716
C63	C	1.270258	-0.763059	0.385709
C64	C	1.770258	-0.263059	0.885709
C65	C	1.275499	-0.857196	0.390198
C66	C	1.775499	-0.357196	0.890198
C67	C	1.333288	-0.903450	0.439949
C68	C	1.833288	-0.403450	0.939949
C69	C	1.338524	-0.997590	0.444442
C70	C	1.838524	-0.497590	0.944442
C71	C	1.228193	-0.999210	0.349431
C72	C	1.728193	-0.499210	0.849431
C73	C	1.222952	-0.905073	0.344942
C74	C	1.722952	-0.405073	0.844942
C75	C	1.538411	-0.367830	0.425060
C76	C	2.038411	0.132170	0.925060
C77	C	1.638150	-0.362310	0.429316
C78	C	2.138150	0.137690	0.929316
C79	C	1.295518	-0.390691	0.598694
C80	C	1.795518	0.109309	1.098694
C81	C	1.291751	-0.394912	0.676943
C82	C	1.791751	0.105088	1.176943
C83	C	1.291468	-0.145666	0.403929
C84	C	1.791468	0.354334	0.903929
C85	C	1.285975	-0.045473	0.399180
C86	C	1.785975	0.454527	0.899180
C87	C	1.313213	-0.370847	0.232163
C88	C	1.813213	0.129153	0.732163
C89	C	1.317140	-0.366362	0.153910
C90	C	1.817140	0.133638	0.653910
C91	C	1.344204	-0.336075	0.713423
C92	C	1.844204	0.163925	1.213423
C93	C	1.340654	-0.340039	0.786945
C94	C	1.840654	0.159961	1.286945
C95	C	1.284653	-0.402845	0.823987
C96	C	1.784653	0.097155	1.323987
C97	C	1.232194	-0.461686	0.787503
C98	C	1.732194	0.038314	1.287503
C99	C	1.235741	-0.457717	0.713981
C100	C	1.735741	0.042283	1.213981
C101	C	1.268227	-0.421233	1.043903
C102	C	1.768227	0.078767	1.543903
C103	C	1.264686	-0.425200	1.117430
C104	C	1.764686	0.074800	1.617430
C105	C	1.373145	-0.303551	1.116868
C106	C	1.873145	0.196449	1.616868
C107	C	1.376691	-0.299592	1.043345
C108	C	1.876691	0.200408	1.543345
C109	C	1.324228	-0.358429	1.006866
C110	C	1.824228	0.141571	1.506866
N111	N	1.281025	-0.406901	0.899139
N112	N	1.781025	0.093099	1.399139
N113	N	1.327852	-0.354368	0.931715
N114	N	1.827852	0.145632	1.431715
H115	H	0.972431	-0.499737	0.323665
H116	H	1.472431	0.000263	0.823665
H117	H	0.802398	-0.509165	0.316437
H118	H	1.302398	-0.009165	0.816437
H119	H	1.186594	-0.512821	0.817668
H120	H	1.686594	-0.012821	1.317668
C121	C	0.964981	-0.283198	0.490046
C122	C	1.464981	0.216802	0.990046
H123	H	1.028267	-0.287626	0.486641
H124	H	1.528267	0.212374	0.986641
H125	H	0.946780	-0.222915	0.476289
H126	H	1.446780	0.277085	0.976289
H127	H	0.948090	-0.299890	0.537311
H128	H	1.448090	0.200110	1.037311
H129	H	0.807216	-0.252367	0.513764
H130	H	1.307216	0.247633	1.013764
H131	H	1.385571	-1.035249	0.484957
H132	H	1.885571	-0.535249	0.984957
H133	H	1.432875	-0.893236	0.525725
H134	H	1.932875	-0.393236	1.025725
C135	C	1.438384	-0.708776	0.530506
C136	C	1.938384	-0.208776	1.030506
H137	H	1.473543	-0.749810	0.560782
H138	H	1.973543	-0.249810	1.060782
H139	H	1.476762	-0.668408	0.503526
H140	H	1.976762	-0.168408	1.003526
H141	H	1.400494	-0.675632	0.557942
H142	H	1.900494	-0.175632	1.057942
C143	C	1.210529	-0.485956	1.003783
C144	C	1.710529	0.014044	1.503783
H145	H	1.220650	-0.474595	0.954690
H146	H	1.720650	0.025405	1.454690
H147	H	1.226401	-0.546445	1.019264
H148	H	1.726401	-0.046445	1.519264
H149	H	1.148930	-0.476745	1.012634
H150	H	1.648930	0.023255	1.512634
C151	C	1.206702	-0.712169	0.330985
C152	C	1.706702	-0.212169	0.830985
H153	H	1.211109	-0.649248	0.334797
H154	H	1.711109	-0.149248	0.834797
H155	H	1.223020	-0.724326	0.284993
H156	H	1.723020	-0.224326	0.784993
H157	H	1.146761	-0.731528	0.339416
H158	H	1.646761	-0.231528	0.839416
H159	H	1.175903	-0.867402	0.304434
H160	H	1.675903	-0.367402	0.804434
C161	C	1.170383	-1.051877	0.299651
C162	C	1.670383	-0.551877	0.799651
H163	H	1.181781	-1.114566	0.309448
H164	H	1.681781	-0.614566	0.809448
H165	H	1.108733	-1.040382	0.306612
H166	H	1.608733	-0.540382	0.806612
H167	H	1.184985	-1.033182	0.252181
H168	H	1.684985	-0.533182	0.752181
H169	H	1.389809	-0.284934	0.683268
H170	H	1.889809	0.215066	1.183268
C171	C	0.644640	-0.478333	0.340151
C172	C	1.144640	0.021667	0.840151
H173	H	0.581355	-0.473908	0.343566
H174	H	1.081355	0.026092	0.843566
H175	H	0.661532	-0.461646	0.292889
H176	H	1.161532	0.038354	0.792889
H177	H	0.662833	-0.538624	0.353909
H178	H	1.162833	-0.038624	0.853909
C179	C	1.398357	-0.275321	0.827070
C180	C	1.898357	0.224679	1.327070
H181	H	1.432225	-0.237356	0.794480
H182	H	1.932225	0.262644	1.294480
H183	H	1.360499	-0.239489	0.852423
H184	H	1.860499	0.260511	1.352423
H185	H	1.437963	-0.309197	0.859055
H186	H	1.937963	0.190803	1.359055
C187	C	1.438291	-0.230505	1.002604
C188	C	1.938291	0.269495	1.502604
H189	H	1.469019	-0.196026	1.034860
H190	H	1.969019	0.303974	1.534860
H191	H	1.480661	-0.261279	0.977228
H192	H	1.980661	0.238721	1.477228
H193	H	1.403193	-0.191576	0.970594
H194	H	1.903193	0.308424	1.470594
H195	H	1.415856	-0.255649	1.146576
H196	H	1.915856	0.244351	1.646576
C197	C	1.203081	-0.494288	1.158175
C198	C	1.703081	0.005712	1.658175
H199	H	1.172338	-0.528756	1.125920
H200	H	1.672338	-0.028756	1.625920
H201	H	1.238177	-0.533213	1.190182
H202	H	1.738177	-0.033213	1.690182
H203	H	1.160711	-0.463508	1.183553
H204	H	1.660711	0.036492	1.683553
C205	C	1.178044	-0.522436	0.673850
C206	C	1.678044	-0.022436	1.173850
H207	H	1.188169	-0.511072	0.624758
H208	H	1.688169	-0.011072	1.124758
H209	H	1.193912	-0.582927	0.689328
H210	H	1.693912	-0.082927	1.189328
H211	H	1.116446	-0.513222	0.682699
H212	H	1.616446	-0.013222	1.182699
C213	C	0.622296	-0.246804	0.518077
C214	C	1.122296	0.253196	1.018077
H215	H	0.660455	-0.211681	0.545066
H216	H	1.160455	0.288319	1.045066
H217	H	0.584857	-0.208057	0.487779
H218	H	1.084857	0.291943	0.987779
H219	H	0.586178	-0.285035	0.548799
H220	H	1.086178	0.214965	1.048799
