data_functionalizedCrystal
_audit_creation_method	'MofGen! by Chris Wilmer'
_symmetry_space_group_name_H-M	'P1'
_symmetry_Int_Tables_number	1
_symmetry_cell_setting	triclinic
loop_
_symmetry_equiv_pos_as_xyz
  x,y,z
_cell_length_a	10.967819
_cell_length_b	14.421503
_cell_length_c	11.026607
_cell_angle_alpha	89.992800
_cell_angle_beta	96.381100
_cell_angle_gamma	102.137020
loop_
_atom_site_label
_atom_site_type_symbol
_atom_site_fract_x
_atom_site_fract_y
_atom_site_fract_z
O1	O	1.694052	0.347818	0.170479
O2	O	2.194052	0.847818	0.670479
O3	O	1.334411	0.290349	0.186806
O4	O	1.834411	0.790349	0.686806
O5	O	1.484425	0.314317	0.001742
O6	O	1.984425	0.814317	0.501742
O7	O	1.544038	0.323849	0.355543
O8	O	2.044038	0.823849	0.855543
O9	O	1.484399	0.160089	0.001769
O10	O	1.984399	0.660089	0.501769
O11	O	1.334385	0.136121	0.186834
O12	O	1.834385	0.636121	0.686834
O13	O	1.694026	0.193590	0.170506
O14	O	2.194026	0.693590	0.670506
Cu15	Cu	1.514203	0.150773	0.178672
Cu16	Cu	2.014203	0.650773	0.678672
Cu17	Cu	1.514234	0.333165	0.178640
Cu18	Cu	2.014234	0.833165	0.678640
O19	O	1.544012	0.169622	0.355571
O20	O	2.044012	0.669622	0.855571
C21	C	1.287641	0.205763	0.185633
C22	C	1.787641	0.705763	0.685633
C23	C	1.148315	0.183500	0.182081
C24	C	1.648315	0.683500	0.682081
N25	N	1.514191	0.022490	0.178695
N26	N	2.014191	0.522490	0.678695
C27	C	0.942220	0.230476	0.176825
C28	C	1.442220	0.730476	0.676825
C29	C	1.086220	0.253481	0.180487
C30	C	1.586220	0.753481	0.680487
C31	C	1.444800	-0.238250	0.264229
C32	C	1.944800	0.261750	0.764229
C33	C	1.563069	-0.281154	0.288766
C34	C	2.063069	0.218846	0.788766
C35	C	1.514215	-0.166667	0.178666
C36	C	2.014215	0.333333	0.678666
C37	C	1.395982	-0.307852	0.154158
C38	C	1.895982	0.192148	0.654158
C39	C	1.514229	-0.349387	0.178641
C40	C	2.014229	0.150613	0.678641
C41	C	1.632553	-0.208199	0.203257
C42	C	2.132553	0.291801	0.703257
C43	C	1.465381	-0.234906	0.068602
C44	C	1.965381	0.265094	0.568602
C45	C	1.583721	-0.277770	0.093092
C46	C	2.083721	0.222230	0.593092
C47	C	1.514206	-0.061408	0.178683
C48	C	2.014206	0.438592	0.678683
C49	C	1.514250	-0.454642	0.178622
C50	C	2.014250	0.045358	0.678622
C51	C	1.740797	0.278177	0.171680
C52	C	2.240797	0.778177	0.671680
C53	C	1.880122	0.300447	0.175231
C54	C	2.380122	0.800447	0.675231
C55	C	1.473414	0.235447	-0.043547
C56	C	1.973414	0.735447	0.456453
C57	C	1.440630	0.230211	-0.178533
C58	C	1.940630	0.730211	0.321467
N59	N	1.514254	0.461450	0.178608
N60	N	2.014254	0.961450	0.678608
C61	C	1.531153	0.244678	-0.251587
C62	C	2.031153	0.744678	0.248413
C63	C	1.497271	0.239267	-0.391103
C64	C	1.997271	0.739267	0.108897
C65	C	1.555023	0.248494	0.400859
C66	C	2.055023	0.748494	0.900859
C67	C	1.587807	0.253736	0.535846
C68	C	2.087807	0.753736	1.035846
H69	H	0.888778	0.153540	0.175485
H70	H	1.388778	0.653540	0.675485
F71	F	1.660558	-0.300695	-0.001504
F72	F	2.160558	0.199305	0.498496
H73	H	1.424035	-0.214320	-0.024437
H74	H	1.924035	0.285680	0.475563
F75	F	1.617075	-0.308039	0.410410
F76	F	2.117075	0.191961	0.910410
H77	H	1.633737	0.261064	-0.210843
H78	H	2.133737	0.761064	0.289157
F79	F	1.368190	-0.215067	0.358881
F80	F	1.868190	0.284933	0.858881
F81	F	1.763314	-0.151946	0.230478
F82	F	2.263314	0.348054	0.730478
H83	H	1.295988	-0.351001	0.133442
H84	H	1.795988	0.148999	0.633442
F85	F	1.078476	0.082931	0.180329
F86	F	1.578476	0.582931	0.680329
H87	H	1.394681	0.222880	-0.431841
H88	H	1.894681	0.722880	0.068159
H89	H	1.690398	0.270199	-0.423418
H90	H	2.190398	0.770199	0.076582
F91	F	1.156063	0.354049	0.182256
F92	F	1.656063	0.854049	0.682256
F93	F	0.949970	0.401010	0.177000
F94	F	1.449970	0.901010	0.677000
F95	F	1.306543	0.208793	-0.231782
F96	F	1.806543	0.708793	0.268218
