data_functionalizedCrystal
_audit_creation_method	'MofGen! by Chris Wilmer'
_symmetry_space_group_name_H-M	'P1'
_symmetry_Int_Tables_number	1
_symmetry_cell_setting	triclinic
loop_
_symmetry_equiv_pos_as_xyz
  x,y,z
_cell_length_a	19.288867
_cell_length_b	10.723023
_cell_length_c	17.766277
_cell_angle_alpha	90.005307
_cell_angle_beta	90.007874
_cell_angle_gamma	83.802308
loop_
_atom_site_label
_atom_site_type_symbol
_atom_site_fract_x
_atom_site_fract_y
_atom_site_fract_z
O1	O	0.922365	0.155671	0.062566
O2	O	0.720241	0.176666	0.062573
O3	O	0.825965	-0.015506	0.062567
O4	O	0.816640	0.347843	0.062573
O5	O	0.825947	-0.015515	-0.062622
O6	O	0.720222	0.176657	-0.062615
O7	O	0.922346	0.155661	-0.062622
Cu8	Cu	0.821282	0.166158	-0.074049
Cu9	Cu	0.821305	0.166169	0.074000
O10	O	0.816621	0.347833	-0.062615
C11	C	0.694351	0.175986	-0.000020
C12	C	0.617234	0.173956	-0.000017
C13	C	0.061584	0.159345	0.068214
C14	C	0.134044	0.161244	0.068217
C15	C	0.170268	0.162195	-0.000023
C16	C	0.134029	0.161213	-0.068271
C17	C	0.061571	0.159302	-0.068272
C18	C	0.280083	0.238301	-0.052303
C19	C	0.352539	0.240221	-0.052299
C20	C	0.393752	0.168085	-0.000023
C21	C	0.362500	0.094047	0.052261
C22	C	0.290042	0.092135	0.052260
C23	C	0.248836	0.164267	-0.000030
C24	C	0.508552	0.171117	0.068223
C25	C	0.581014	0.173008	0.068223
C26	C	0.580997	0.172990	-0.068267
C27	C	0.508538	0.171086	-0.068265
C28	C	0.472319	0.170155	-0.000018
C29	C	0.825278	-0.061996	-0.000027
C30	C	0.823247	-0.200507	-0.000024
C31	C	0.822352	-0.262249	0.064828
C32	C	0.820254	-0.405408	0.064832
C33	C	0.948236	0.156342	-0.000027
C34	C	1.025353	0.158371	-0.000025
C35	C	0.817309	0.394323	-0.000020
C36	C	0.819339	0.532835	-0.000018
N37	N	0.821272	0.166149	-0.178180
C38	C	0.868102	0.081097	-0.217570
C39	C	0.868106	0.081091	-0.296371
C40	C	0.821286	0.166159	-0.335780
C41	C	0.774447	0.251218	-0.296381
C42	C	0.774440	0.251213	-0.217581
C43	C	0.812727	0.279851	-0.460616
C44	C	0.812739	0.279858	-0.539415
C45	C	0.821305	0.166174	-0.578827
C46	C	0.829873	0.052479	-0.539430
C47	C	0.829866	0.052474	-0.460630
C48	C	0.821289	0.166173	-0.421226
C49	C	0.868142	0.081109	-0.703663
C50	C	0.868141	0.081101	-0.782466
C51	C	0.774486	0.251238	-0.782474
C52	C	0.774484	0.251235	-0.703672
C53	C	0.821315	0.166171	-0.664271
N54	N	0.821321	0.166168	0.178131
H55	H	0.032099	0.158583	0.123786
H56	H	0.823136	-0.209123	0.120348
H57	H	0.822456	-0.253632	-0.055544
Cl58	Cl	0.391819	0.333308	-0.118021
Cl59	Cl	0.840629	-0.090450	-0.411105
Cl60	Cl	0.626531	0.174164	-0.154055
H61	H	0.246533	0.297037	-0.094880
Cl62	Cl	0.926984	-0.025840	-0.345899
Cl63	Cl	0.626563	0.174220	0.154018
H64	H	0.820113	-0.414077	-0.055543
Cl65	Cl	0.840648	-0.090448	-0.588967
Cl66	Cl	0.926971	-0.025844	-0.168038
H67	H	0.906274	0.011841	-0.671581
Cl68	Cl	0.715612	0.358169	-0.654148
H69	H	0.479038	0.170297	-0.123832
Cl70	Cl	0.801973	0.422787	-0.588934
H71	H	0.906274	0.011835	-0.814538
H72	H	0.396055	0.035311	0.094831
H73	H	0.163548	0.162045	0.123787
H74	H	0.736362	0.320497	-0.814560
Cl75	Cl	0.802023	0.422786	-0.411078
Cl76	Cl	0.715585	0.358156	-0.345922
H77	H	0.032072	0.158513	-0.123842
Cl78	Cl	0.819071	-0.487379	0.150559
H79	H	0.163528	0.161985	-0.123833
H80	H	0.736304	0.320474	-0.185509
H81	H	0.264600	0.031848	0.094831
H82	H	0.479062	0.170355	0.123794
