data_functionalizedCrystal
_audit_creation_method	'MofGen! by Chris Wilmer'
_symmetry_space_group_name_H-M	'P1'
_symmetry_Int_Tables_number	1
_symmetry_cell_setting	triclinic
loop_
_symmetry_equiv_pos_as_xyz
  x,y,z
_cell_length_a	23.532407
_cell_length_b	23.532407
_cell_length_c	12.503572
_cell_angle_alpha	93.496478
_cell_angle_beta	86.509276
_cell_angle_gamma	82.848678
loop_
_atom_site_label
_atom_site_type_symbol
_atom_site_fract_x
_atom_site_fract_y
_atom_site_fract_z
O1	O	0.758558	0.065826	-0.089196
O2	O	1.258558	0.565826	0.410804
O3	O	0.592696	0.075828	-0.089229
O4	O	1.092696	0.575828	0.410771
O5	O	0.680627	-0.012104	-0.089192
O6	O	1.180627	0.487896	0.410808
O7	O	0.670626	0.153758	-0.089233
O8	O	1.170626	0.653758	0.410767
O9	O	0.674014	-0.005480	0.089447
O10	O	1.174014	0.494520	0.589447
O11	O	0.586082	0.082452	0.089410
O12	O	1.086082	0.582452	0.589410
O13	O	0.751945	0.072450	0.089443
O14	O	1.251945	0.572450	0.589443
Cu15	Cu	0.668410	0.078056	0.105738
Cu16	Cu	1.168410	0.578056	0.605738
Cu17	Cu	0.676230	0.070222	-0.105524
Cu18	Cu	1.176230	0.570222	0.394476
O19	O	0.664013	0.160382	0.089406
O20	O	1.164013	0.660382	0.589406
C21	C	0.568173	0.078885	0.000086
C22	C	1.068173	0.578885	0.500086
C23	C	0.504957	0.078119	0.000075
C24	C	1.004957	0.578119	0.500075
C25	C	0.105852	0.125354	0.000111
C26	C	0.605852	0.625354	0.500111
C27	C	0.046452	0.124642	0.000118
C28	C	0.546452	0.624642	0.500118
O29	O	0.009706	0.168429	0.000146
O30	O	0.509706	0.668429	0.500146
N31	N	0.023825	0.072367	0.000129
N32	N	0.523825	0.572367	0.500129
C33	C	0.060602	0.020799	0.000145
C34	C	0.560602	0.520799	0.500145
O35	O	0.035902	-0.023731	0.000156
O36	O	0.535902	0.476269	0.500156
C37	C	0.120001	0.021511	0.000146
C38	C	0.620001	0.521511	0.500146
C39	C	0.142625	0.073790	0.000124
C40	C	0.642625	0.573790	0.500124
C41	C	0.128476	0.177628	0.000090
C42	C	0.628476	0.677628	0.500090
C43	C	0.187873	0.178339	0.000082
C44	C	0.687873	0.678339	0.500082
C45	C	0.224645	0.126775	0.000094
C46	C	0.724645	0.626775	0.500094
C47	C	0.202021	0.074501	0.000115
C48	C	0.702021	0.574501	0.500115
C49	C	0.156777	-0.030056	0.000169
C50	C	0.656777	0.469944	0.500169
C51	C	0.216179	-0.029339	0.000171
C52	C	0.716179	0.470661	0.500171
C53	C	0.238803	0.022940	0.000148
C54	C	0.738803	0.522940	0.500148
C55	C	0.298190	0.023648	0.000118
C56	C	0.798190	0.523648	0.500118
N57	N	0.320817	0.075924	0.000107
N58	N	0.820817	0.575924	0.500107
C59	C	0.284044	0.127488	0.000095
C60	C	0.784044	0.627488	0.500095
C61	C	-0.064140	0.019307	0.000145
C62	C	0.435860	0.519307	0.500145
C63	C	-0.123538	0.018595	0.000136
C64	C	0.376462	0.518595	0.500136
C65	C	-0.137685	0.122438	0.000111
C66	C	0.362315	0.622438	0.500111
C67	C	-0.078286	0.123151	0.000112
C68	C	0.421714	0.623151	0.500112
C69	C	-0.041514	0.071583	0.000133
C70	C	0.458486	0.571583	0.500133
C71	C	0.408782	0.128976	0.000076
C72	C	0.908782	0.628976	0.500076
C73	C	0.468184	0.129683	0.000062
C74	C	0.968184	0.629683	0.500062
C75	C	0.482325	0.025839	0.000093
C76	C	0.982325	0.525839	0.500093
C77	C	0.422928	0.025133	0.000100
C78	C	0.922928	0.525133	0.500100
C79	C	0.386157	0.076706	0.000095
C80	C	0.886157	0.576706	0.500095
O81	O	0.334970	-0.020116	0.000095
O82	O	0.834970	0.479884	0.500095
O83	O	0.308752	0.172011	0.000098
O84	O	0.808752	0.672011	0.500098
C85	C	0.677066	-0.030008	0.000130
C86	C	1.177066	0.469992	0.500130
C87	C	0.676300	-0.093225	0.000138
C88	C	1.176300	0.406775	0.500138
C89	C	0.723535	-0.492329	0.000089
C90	C	1.223535	0.007671	0.500089
C91	C	0.722824	-0.551730	0.000080
C92	C	1.222824	-0.051730	0.500080
O93	O	0.766611	-0.588476	0.000050
O94	O	1.266611	-0.088476	0.500050
N95	N	0.670548	-0.574357	0.000071
N96	N	1.170548	-0.074357	0.500071
C97	C	0.618980	-0.537579	0.000059
C98	C	1.118980	-0.037579	0.500059
O99	O	0.574450	-0.562279	0.000049
O100	O	1.074450	-0.062279	0.500049
C101	C	0.619692	-0.478180	0.000059
C102	C	1.119692	0.021820	0.500059
C103	C	0.671971	-0.455557	0.000080
C104	C	1.171971	0.044443	0.500080
C105	C	0.775810	-0.469706	0.000108
C106	C	1.275810	0.030294	0.500108
C107	C	0.776521	-0.410309	0.000118
C108	C	1.276521	0.089691	0.500118
C109	C	0.724957	-0.373536	0.000109
C110	C	1.224957	0.126464	0.500109
C111	C	0.672682	-0.396160	0.000090
C112	C	1.172682	0.103840	0.500090
C113	C	0.568126	-0.441405	0.000039
C114	C	1.068126	0.058595	0.500039
C115	C	0.568842	-0.382002	0.000039
C116	C	1.068842	0.117998	0.500039
C117	C	0.621121	-0.359379	0.000060
C118	C	1.121121	0.140621	0.500060
C119	C	0.621829	-0.299991	0.000091
C120	C	1.121829	0.200009	0.500091
N121	N	0.674105	-0.277365	0.000101
N122	N	1.174105	0.222635	0.500101
C123	C	0.725669	-0.314137	0.000110
C124	C	1.225669	0.185863	0.500110
C125	C	0.617489	-0.662322	0.000055
C126	C	1.117489	-0.162322	0.500055
C127	C	0.616776	-0.721720	0.000062
C128	C	1.116776	-0.221720	0.500062
C129	C	0.720620	-0.735866	0.000082
C130	C	1.220620	-0.235866	0.500082
C131	C	0.721332	-0.676467	0.000083
C132	C	1.221332	-0.176467	0.500083
C133	C	0.669765	-0.639696	0.000065
C134	C	1.169765	-0.139696	0.500065
C135	C	0.727158	-0.189400	0.000133
C136	C	1.227158	0.310600	0.500133
C137	C	0.727864	-0.129997	0.000147
C138	C	1.227864	0.370003	0.500147
C139	C	0.624020	-0.115856	0.000122
C140	C	1.124020	0.384144	0.500122
C141	C	0.623314	-0.175253	0.000113
C142	C	1.123314	0.324747	0.500113
C143	C	0.674887	-0.212024	0.000114
C144	C	1.174887	0.287976	0.500114
O145	O	0.578065	-0.263211	0.000118
O146	O	1.078065	0.236789	0.500118
O147	O	0.770192	-0.289430	0.000106
O148	O	1.270192	0.210570	0.500106
C149	C	0.776467	0.069393	0.000125
C150	C	1.276467	0.569393	0.500125
C151	C	0.839684	0.070159	0.000130
C152	C	1.339684	0.570159	0.500130
C153	C	0.667574	0.178286	0.000081
C154	C	1.167574	0.678286	0.500081
C155	C	0.668341	0.241502	0.000066
C156	C	1.168341	0.741502	0.500066
N157	N	0.662913	0.083565	0.254327
N158	N	1.162913	0.583565	0.754327
N159	N	0.681732	0.064708	-0.254114
N160	N	1.181732	0.564708	0.245886
C161	C	0.654828	0.091674	0.473439
C162	C	1.154828	0.591674	0.973439
C163	C	0.689815	0.056601	0.526781
C164	C	1.189815	0.556601	1.026781
C165	C	0.685316	0.061113	0.648702
C166	C	1.185316	0.561113	1.148702
C167	C	0.659326	0.087163	0.351507
C168	C	1.159326	0.587163	0.851507
H169	H	0.486600	0.172256	0.000044
H170	H	0.986600	0.672256	0.500044
H171	H	0.621497	0.125088	0.519333
H172	H	1.121497	0.625088	1.019333
C173	C	0.131903	-0.087563	0.000208
C174	C	0.631903	0.412437	0.500208
H175	H	0.162318	-0.118164	0.000231
H176	H	0.662318	0.381836	0.500231
H177	H	0.111326	-0.092321	-0.062080
H178	H	0.611326	0.407679	0.437920
H179	H	0.106727	-0.087686	0.062519
H180	H	0.606727	0.412314	0.562519
H181	H	0.512276	-0.016143	0.000099
H182	H	1.012276	0.483857	0.500099
H183	H	0.378849	0.170973	0.000075
H184	H	0.878849	0.670973	0.500075
H185	H	0.769154	-0.219333	0.000130
H186	H	1.269154	0.280667	0.500130
C187	C	0.777341	-0.776324	0.000072
C188	C	1.277341	-0.276324	0.500072
H189	H	0.769426	-0.814940	0.000054
H190	H	1.269426	-0.314940	0.500054
H191	H	0.796493	-0.767200	0.062367
H192	H	1.296493	-0.267200	0.562367
H193	H	0.801092	-0.771801	-0.062232
H194	H	1.301092	-0.271801	0.437768
H195	H	0.206287	0.220910	0.000063
H196	H	0.706287	0.720910	0.500063
C197	C	0.510618	-0.466278	0.000007
C198	C	1.010618	0.033722	0.500007
H199	H	0.480016	-0.435863	-0.000012
H200	H	0.980016	0.064137	0.499988
H201	H	0.505865	-0.486852	0.062297
H202	H	1.005865	0.013148	0.562297
H203	H	0.510490	-0.491457	-0.062302
H204	H	1.010490	0.008543	0.437698
C205	C	0.734862	0.011476	0.464784
C206	C	1.234862	0.511476	0.964784
H207	H	0.732027	0.014333	0.389784
H208	H	1.232027	0.514333	0.889784
H209	H	0.728181	-0.025823	0.483141
H210	H	1.228181	0.474177	0.983141
H211	H	0.772180	0.018094	0.483165
H212	H	1.272180	0.518094	0.983165
H213	H	0.574205	-0.740133	0.000064
H214	H	1.074205	-0.240133	0.500064
H215	H	0.098541	0.219620	0.000084
H216	H	0.598541	0.719620	0.500084
C217	C	0.560761	-0.621877	0.000056
C218	C	1.060761	-0.121877	0.500056
H219	H	0.529528	-0.643864	0.000060
H220	H	1.029528	-0.143864	0.500060
H221	H	0.561179	-0.600714	-0.062236
H222	H	1.061179	-0.100714	0.437764
H223	H	0.556573	-0.596108	0.062362
H224	H	1.056573	-0.096108	0.562362
C225	C	0.512116	-0.341556	0.000024
C226	C	1.012116	0.158444	0.500024
H227	H	0.480883	-0.363541	0.000019
H228	H	0.980883	0.136459	0.500019
H229	H	0.512541	-0.320393	-0.062268
H230	H	1.012541	0.179607	0.437732
H231	H	0.507926	-0.315788	0.062331
H232	H	1.007926	0.184212	0.562331
H233	H	0.817802	-0.499641	0.000112
H234	H	1.317802	0.000359	0.500112
C235	C	0.567305	-0.075399	0.000106
C236	C	1.067305	0.424601	0.500106
H237	H	0.575221	-0.036785	0.000101
H238	H	1.075221	0.463215	0.500101
H239	H	0.543542	-0.079918	0.062390
H240	H	1.043542	0.420082	0.562390
H241	H	0.548166	-0.084531	-0.062209
H242	H	1.048166	0.415469	0.437791
C243	C	-0.053405	0.180657	0.000098
C244	C	0.446595	0.680657	0.500098
H245	H	-0.083818	0.211262	0.000095
H246	H	0.416182	0.711262	0.500095
H247	H	-0.028223	0.180786	-0.062195
H248	H	0.471777	0.680786	0.437805
H249	H	-0.032835	0.185405	0.062403
H250	H	0.467165	0.685405	0.562403
H251	H	-0.167636	0.164425	0.000107
H252	H	0.332364	0.664425	0.500107
C253	C	0.256625	-0.086065	0.000182
C254	C	0.756625	0.413935	0.500182
H255	H	0.234640	-0.117299	0.000185
H256	H	0.734640	0.382701	0.500185
H257	H	0.277793	-0.085640	0.062472
H258	H	0.777793	0.414360	0.562472
H259	H	0.282389	-0.090256	-0.062127
H260	H	0.782389	0.409744	0.437873
C261	C	-0.148417	-0.038912	0.000150
C262	C	0.351583	0.461088	0.500150
H263	H	-0.118005	-0.069517	0.000163
H264	H	0.381995	0.430483	0.500163
H265	H	-0.168995	-0.043662	-0.062140
H266	H	0.331005	0.456338	0.437860
H267	H	-0.173594	-0.039040	0.062459
H268	H	0.326406	0.460960	0.562459
H269	H	-0.034203	-0.022688	0.000152
H270	H	0.465797	0.477312	0.500152
C271	C	0.398041	-0.032373	0.000113
C272	C	0.898041	0.467627	0.500113
H273	H	0.428451	-0.062980	0.000122
H274	H	0.928451	0.437020	0.500122
H275	H	0.377461	-0.037119	-0.062174
H276	H	0.877461	0.462881	0.437826
H277	H	0.372866	-0.032498	0.062424
H278	H	0.872866	0.467502	0.562424
H279	H	0.770437	-0.111581	0.000167
H280	H	1.270437	0.388419	0.500167
H281	H	0.763902	-0.658052	0.000099
H282	H	1.263902	-0.158052	0.500099
H283	H	0.819092	-0.391895	0.000131
H284	H	1.319092	0.108105	0.500131
H285	H	0.580743	-0.193673	0.000126
H286	H	1.080743	0.306327	0.500126
