data_functionalizedCrystal
_audit_creation_method	'MofGen! by Chris Wilmer'
_symmetry_space_group_name_H-M	'P1'
_symmetry_Int_Tables_number	1
_symmetry_cell_setting	triclinic
loop_
_symmetry_equiv_pos_as_xyz
  x,y,z
_cell_length_a	23.532355
_cell_length_b	23.532407
_cell_length_c	17.666332
_cell_angle_alpha	89.988854
_cell_angle_beta	89.996463
_cell_angle_gamma	82.838088
loop_
_atom_site_label
_atom_site_type_symbol
_atom_site_fract_x
_atom_site_fract_y
_atom_site_fract_z
O1	O	0.755283	0.068995	-0.062853
O2	O	0.589415	0.079029	-0.062878
O3	O	0.677351	-0.008921	-0.062851
O4	O	0.667347	0.156945	-0.062880
O5	O	0.677335	-0.008925	0.063046
O6	O	0.589400	0.079025	0.063019
O7	O	0.755267	0.068990	0.063044
Cu8	Cu	0.672332	0.074007	0.074527
Cu9	Cu	0.672350	0.074013	-0.074361
O10	O	0.667332	0.156940	0.063017
C11	C	0.568191	0.078776	0.000067
C12	C	0.504972	0.078022	0.000058
C13	C	0.112950	0.073281	0.068717
C14	C	0.053551	0.072564	0.068720
O15	O	0.022825	0.072171	0.127083
N16	N	0.023850	0.072211	0.000094
C17	C	0.053554	0.072569	-0.068539
O18	O	0.022837	0.072202	-0.126911
C19	C	0.112952	0.073282	-0.068542
C20	C	0.142649	0.073641	0.000089
C21	C	0.142646	0.073640	0.137342
C22	C	0.202042	0.074358	0.137339
C23	C	0.231740	0.074718	0.068710
C24	C	0.202044	0.074360	0.000085
C25	C	0.142655	0.073637	-0.137174
C26	C	0.202058	0.074350	-0.137171
C27	C	0.231754	0.074709	-0.068540
C28	C	0.291138	0.075439	-0.068546
N29	N	0.320838	0.075792	0.000080
C30	C	0.291139	0.075432	0.068708
C31	C	-0.071188	0.071070	-0.068529
C32	C	-0.130586	0.070361	-0.068528
C33	C	-0.130585	0.070355	0.068732
C34	C	-0.071186	0.071068	0.068730
C35	C	-0.041488	0.071423	0.000097
C36	C	0.415873	0.076941	0.068696
C37	C	0.475273	0.077662	0.068686
C38	C	0.475267	0.077665	-0.068573
C39	C	0.415872	0.076947	-0.068564
C40	C	0.386177	0.076583	0.000077
O41	O	0.321902	0.075829	-0.126880
O42	O	0.321864	0.075791	0.127070
C43	C	0.677088	-0.030139	0.000099
C44	C	0.676322	-0.093356	0.000105
C45	C	0.723557	-0.492468	0.000071
C46	C	0.722845	-0.551868	0.000065
O47	O	0.766632	-0.588620	0.000044
N48	N	0.670568	-0.574484	0.000057
C49	C	0.618998	-0.537697	0.000048
O50	O	0.574467	-0.562388	0.000041
C51	C	0.619710	-0.478298	0.000049
C52	C	0.671991	-0.455685	0.000064
C53	C	0.775834	-0.469854	0.000085
C54	C	0.776545	-0.410458	0.000092
C55	C	0.724979	-0.373676	0.000085
C56	C	0.672703	-0.396289	0.000071
C57	C	0.568141	-0.441512	0.000034
C58	C	0.568858	-0.382110	0.000034
C59	C	0.621139	-0.359497	0.000049
C60	C	0.621848	-0.300110	0.000071
N61	N	0.674126	-0.277494	0.000079
C62	C	0.725691	-0.314277	0.000086
C63	C	0.617507	-0.662439	0.000046
C64	C	0.616794	-0.721837	0.000051
C65	C	0.720642	-0.736004	0.000066
C66	C	0.721354	-0.676605	0.000067
C67	C	0.669784	-0.639823	0.000053
C68	C	0.727181	-0.189540	0.000102
C69	C	0.727888	-0.130138	0.000112
C70	C	0.624041	-0.115977	0.000093
C71	C	0.623334	-0.175373	0.000086
C72	C	0.674909	-0.212154	0.000088
O73	O	0.578084	-0.263323	0.000090
O74	O	0.770216	-0.289577	0.000083
C75	C	0.776491	0.069244	0.000097
C76	C	0.839710	0.069998	0.000101
C77	C	0.667594	0.178158	0.000065
C78	C	0.668360	0.241375	0.000054
N79	N	0.672323	0.074003	0.179246
N80	N	0.672363	0.074012	-0.179080
C81	C	0.711274	0.035078	0.218868
C82	C	0.711277	0.035075	0.298115
C83	C	0.672336	0.074007	0.337738
C84	C	0.633378	0.112935	0.298107
C85	C	0.633372	0.112933	0.218861
N86	N	0.664801	0.124443	0.462147
N87	N	0.664810	0.124444	0.537428
C88	C	0.672350	0.074015	0.576502
N89	N	0.679893	0.023585	0.537452
N90	N	0.679887	0.023585	0.462165
C91	C	0.672337	0.074014	0.423667
C92	C	0.711307	0.035084	0.702053
C93	C	0.711306	0.035080	0.781302
C94	C	0.633409	0.112946	0.781292
C95	C	0.633407	0.112944	0.702045
C96	C	0.672359	0.074014	0.662430
H97	H	0.226215	0.074647	0.193225
H98	H	0.601653	0.144631	0.186600
C99	C	0.234722	0.074742	-0.212675
N100	N	0.259324	0.075040	-0.269544
H101	H	0.743022	0.003382	0.669798
H102	H	0.762629	-0.765963	0.000069
C103	C	0.567321	-0.075505	0.000080
N104	N	0.524600	-0.045020	0.000063
C105	C	-0.038525	0.071457	0.144228
N106	N	-0.013927	0.071748	0.201096
C107	C	0.559281	-0.746704	0.000044
N108	N	0.515960	-0.765431	0.000034
H109	H	0.601700	0.144643	0.813552
C110	C	0.510627	-0.466372	0.000012
N111	N	0.467304	-0.485095	-0.000007
H112	H	0.391702	0.076650	0.124590
H113	H	0.118472	0.073345	0.193230
H114	H	0.817827	-0.499797	0.000088
H115	H	-0.047012	0.071365	-0.124422
H116	H	0.763925	-0.658198	0.000078
H117	H	-0.154776	0.070060	0.124613
H118	H	0.118487	0.073344	-0.193061
C119	C	0.783916	-0.229991	0.000111
N120	N	0.826649	-0.260458	0.000124
H121	H	-0.154761	0.070078	-0.124414
C122	C	0.754116	-0.007752	0.175296
N123	N	0.786384	-0.040014	0.142477
H124	H	0.819117	-0.392053	0.000101
H125	H	0.580762	-0.193785	0.000095
H126	H	0.391691	0.076664	-0.124448
C127	C	0.754133	-0.007742	0.341708
N128	N	0.786414	-0.039989	0.374540
C129	C	0.507948	0.078057	-0.144060
N130	N	0.532565	0.078348	-0.200918
C131	C	0.590599	0.155807	0.658459
N132	N	0.558367	0.188105	0.625631
C133	C	0.785403	-0.105268	0.000126
N134	N	0.828723	-0.086538	0.000135
C135	C	0.590540	0.155759	0.341693
N136	N	0.558270	0.188012	0.374523
C137	C	0.754147	-0.007753	0.824886
N138	N	0.786413	-0.040018	0.857714
H139	H	0.499449	0.077956	0.124576
H140	H	0.575510	-0.632494	0.000042
H141	H	0.526863	-0.352164	0.000022
