data_functionalizedCrystal
_audit_creation_method	'MofGen! by Chris Wilmer'
_symmetry_space_group_name_H-M	'P1'
_symmetry_Int_Tables_number	1
_symmetry_cell_setting	triclinic
loop_
_symmetry_equiv_pos_as_xyz
  x,y,z
_cell_length_a	23.096457
_cell_length_b	21.606444
_cell_length_c	21.606444
_cell_angle_alpha	60.000398
_cell_angle_beta	89.997352
_cell_angle_gamma	59.998565
loop_
_atom_site_label
_atom_site_type_symbol
_atom_site_fract_x
_atom_site_fract_y
_atom_site_fract_z
Zr1	Zr	0.557758	0.677460	-0.081222
O2	O	0.465309	0.806579	-0.180040
O3	O	0.586100	0.548341	-0.050932
O4	O	0.586099	0.677462	-0.180049
O5	O	0.465309	0.677455	0.050930
O6	O	0.681380	0.677464	-0.180053
O7	O	0.465310	0.677457	-0.050923
O8	O	0.681381	0.446489	0.050914
O9	O	0.465308	0.908429	-0.180037
O10	O	0.669293	0.601450	-0.038013
O11	O	0.598186	0.601447	0.038002
O12	O	0.598185	0.753471	-0.114017
O13	O	0.527078	0.753468	-0.038002
Zr14	Zr	0.709719	0.677458	0.081216
Zr15	Zr	0.709720	0.677462	-0.081228
Zr16	Zr	0.557757	0.677456	0.081222
Zr17	Zr	0.557757	0.839900	-0.081217
Zr18	Zr	0.709720	0.515018	0.081211
O19	O	0.681377	0.806577	0.050926
O20	O	0.681379	0.806582	-0.180048
O21	O	0.465308	0.806573	0.050935
O22	O	0.802168	0.548339	0.180034
O23	O	0.802169	0.548345	-0.050940
O24	O	0.586099	0.548335	0.180043
O25	O	0.802168	0.677463	-0.050936
O26	O	0.681378	0.677456	0.180043
O27	O	0.586097	0.677454	0.180047
O28	O	0.802167	0.677461	0.050917
O29	O	0.586097	0.908432	-0.180041
O30	O	0.681380	0.446486	0.180036
O31	O	0.802169	0.446489	0.180031
O32	O	0.802170	0.446492	0.050910
O33	O	0.465307	0.908426	-0.050915
O34	O	0.586096	0.908428	-0.050920
O35	O	0.669292	0.601447	0.114011
O36	O	0.740399	0.601450	0.037996
O37	O	0.669291	0.753471	-0.038008
O38	O	0.598184	0.753468	0.038007
C39	C	0.633741	0.474271	-0.000009
C40	C	0.633741	0.405311	-0.000012
C41	C	0.670857	0.372915	-0.039692
C42	C	0.670859	0.308115	-0.039686
C43	C	0.633742	0.275716	-0.000005
C44	C	0.596625	0.308115	0.039679
C45	C	0.596627	0.372909	0.039678
C46	C	0.596617	0.046806	0.039686
C47	C	0.596616	-0.017991	0.039682
C48	C	0.670849	-0.017989	-0.039679
C49	C	0.670851	0.046806	-0.039680
C50	C	0.633738	0.079195	0.000008
C51	C	0.633736	0.149458	0.000003
C52	C	0.633738	0.205460	-0.000005
C53	C	0.443658	0.677456	0.000005
C54	C	0.379147	0.677454	0.000007
C55	C	0.385958	0.598104	0.039673
C56	C	0.325343	0.598102	0.039677
C57	C	0.257916	0.677456	-0.000001
C58	C	0.251107	0.756818	-0.039669
C59	C	0.311722	0.756817	-0.039665
N60	N	0.135120	0.736525	-0.064577
N61	N	0.077541	0.736520	-0.064579
C62	C	0.075283	0.677464	-0.000015
N63	N	0.132787	0.618399	0.064552
N64	N	0.190373	0.618401	0.064553
C65	C	0.192185	0.677466	-0.000010
C66	C	0.016372	0.598107	0.039659
C67	C	-0.044246	0.598109	0.039664
C68	C	-0.118483	0.756826	-0.039689
C69	C	-0.057865	0.756822	-0.039687
C70	C	0.009560	0.677460	-0.000015
C71	C	0.823819	0.677462	-0.000010
C72	C	0.888330	0.677464	-0.000013
C73	C	0.633740	0.677464	-0.203195
C74	C	0.633740	0.677465	-0.272157
C75	C	0.633737	0.880647	0.000004
C76	C	0.633736	0.949607	0.000006
C77	C	0.686231	0.677468	-0.304558
C78	C	0.686233	0.677462	-0.369351
C79	C	0.633741	0.677459	-0.401745
C80	C	0.581248	0.677454	-0.369339
C81	C	0.581249	0.677454	-0.304544
C82	C	0.581241	0.677453	-0.630649
C83	C	0.581243	0.677456	-0.695450
C84	C	0.686225	0.677461	-0.695456
C85	C	0.686227	0.677461	-0.630661
C86	C	0.633736	0.677451	-0.598258
C87	C	0.633735	0.677456	-0.528001
C88	C	0.633738	0.677461	-0.472004
C89	C	0.633737	0.677454	0.203190
C90	C	0.633737	0.677452	0.272152
C91	C	0.823821	0.474274	-0.000017
C92	C	0.888333	0.405315	-0.000022
C93	C	0.633739	0.474266	0.203183
C94	C	0.633740	0.405304	0.272143
C95	C	0.823820	0.474270	0.203176
C96	C	0.888332	0.405309	0.272133
C97	C	0.443657	0.880648	-0.203181
C98	C	0.379146	0.949609	-0.272138
C99	C	0.443656	0.880644	0.000011
C100	C	0.379144	0.949603	0.000016
C101	C	0.633738	0.880652	-0.203189
C102	C	0.633737	0.949614	-0.272148
C103	C	0.881512	0.372932	-0.039707
C104	C	0.942122	0.308146	-0.039726
C105	C	1.009553	0.275741	-0.000056
C106	C	1.016373	0.308131	0.039630
C107	C	0.955763	0.372920	0.039645
C108	C	0.670857	0.372919	0.344210
C109	C	0.670854	0.308131	0.409011
C110	C	0.633739	0.275725	0.401743
C111	C	0.596617	0.308117	0.329669
C112	C	0.596616	0.372908	0.264869
C113	C	0.955751	0.372926	0.264837
C114	C	1.016372	0.308139	0.329623
C115	C	1.009573	0.275732	0.401704
C116	C	0.942147	0.308121	0.408999
C117	C	0.881527	0.372911	0.344213
C118	C	0.311727	0.982000	-0.264842
C119	C	0.251105	1.046807	-0.329629
C120	C	0.257904	1.079217	-0.401710
C121	C	0.325330	1.046824	-0.409005
C122	C	0.385950	0.982022	-0.344219
C123	C	0.385965	0.981993	0.039694
C124	C	0.325355	1.046796	0.039696
C125	C	0.257924	1.079203	0.000023
C126	C	0.251104	1.046810	-0.039660
C127	C	0.311714	0.982013	-0.039665
C128	C	0.670860	0.981999	-0.264857
C129	C	0.670874	1.046787	-0.329645
C130	C	0.633760	1.079194	-0.401725
C131	C	0.596636	1.046802	-0.409015
C132	C	0.596627	0.982010	-0.344227
H133	H	0.701071	-0.044370	-0.071992
N134	N	0.710899	0.273192	0.486743
H135	H	0.691436	0.322630	0.492810
H136	H	0.762814	0.246295	0.492754
N137	N	0.556584	-0.052942	0.082487
H138	H	0.533076	-0.022595	0.107632
H139	H	0.590671	-0.117987	0.122368
H140	H	0.566419	1.073197	-0.467711
H141	H	0.196210	1.073171	-0.323675
H142	H	0.728975	0.677463	-0.395730
H143	H	0.538496	0.677453	-0.721824
H144	H	0.330922	1.073160	0.072014
N145	N	-0.191200	0.842418	-0.082478
H146	H	-0.228567	0.830380	-0.076460
H147	H	-0.196813	0.877075	-0.137964
N148	N	0.556596	0.273165	0.082482
H149	H	0.519242	0.284443	0.046094
H150	H	0.533130	0.303533	0.107621
H151	H	0.566402	0.399288	0.071988
N152	N	0.556589	0.407855	0.187129
H153	H	0.519242	0.472898	0.158484
H154	H	0.533114	0.377447	0.192400
H155	H	0.208538	1.131982	-0.454456
N156	N	0.556584	0.947085	-0.352098
H157	H	0.533076	0.977452	-0.407592
H158	H	0.519262	0.958368	-0.326948
H159	H	0.701079	0.399293	-0.072008
H160	H	0.566399	0.281723	0.323762
N161	N	0.963130	0.407841	0.082453
H162	H	0.939641	0.472882	0.046071
H163	H	1.015059	0.377412	0.107574
N164	N	0.808789	0.407871	-0.082495
H165	H	0.803108	0.434762	-0.138001
H166	H	0.771466	0.453794	-0.076407
H167	H	0.936556	0.281782	-0.072043
N168	N	0.556593	0.081732	0.082494
H169	H	0.533079	0.051375	0.107629
H170	H	0.519277	0.146777	0.046070
H171	H	0.306150	0.955642	-0.071974
N172	N	1.074965	0.205840	0.471571
H173	H	1.074999	0.152068	0.502753
H174	H	1.074971	0.228449	0.502709
N175	N	0.524632	0.677436	-0.595702
H176	H	0.491380	0.677436	-0.626058
H177	H	0.497099	0.731398	-0.595794
N178	N	0.458675	0.512504	0.082463
H179	H	0.464349	0.477807	0.137967
H180	H	0.496003	0.524606	0.076391
H181	H	0.538509	0.677447	-0.395716
N182	N	0.332681	0.512514	0.082462
H183	H	0.384592	0.462239	0.107595
H184	H	0.309148	0.509067	0.046022
N185	N	0.178386	0.842408	-0.082459
H186	H	0.141019	0.830369	-0.076444
H187	H	0.172774	0.877067	-0.137944
H188	H	1.058899	0.222986	-0.000074
H189	H	0.701082	0.281738	-0.071996
N190	N	1.089103	0.273177	0.082415
H191	H	1.126458	0.227219	0.076381
H192	H	1.094724	0.246331	0.137904
N193	N	0.710893	0.407860	0.352059
H194	H	0.734400	0.377508	0.407551
H195	H	0.676811	0.472905	0.326903
H196	H	0.633745	0.222968	0.454513
H197	H	0.306170	0.821436	-0.071964
H198	H	0.701083	0.955623	-0.206171
H199	H	0.701103	1.073153	-0.323694
H200	H	0.071272	0.533485	0.071978
N201	N	0.934826	0.273152	0.486749
H202	H	0.908057	0.246259	0.492825
H203	H	0.908071	0.322614	0.492789
N204	N	0.963094	0.407864	0.187097
H205	H	1.015007	0.377511	0.192317
H206	H	0.939558	0.472909	0.158482
N207	N	0.192555	1.149092	0.000033
H208	H	0.207115	1.164687	0.031193
H209	H	0.163407	1.126494	0.022600
N210	N	1.089089	0.273211	0.321746
H211	H	1.084192	0.303569	0.266251
H212	H	1.115861	0.208167	0.346900
N213	N	-0.036905	0.512521	0.082449
H214	H	-0.010126	0.477820	0.137954
H215	H	-0.010151	0.477904	0.061569
N216	N	-0.065210	0.842410	-0.082485
H217	H	-0.016580	0.830369	-0.076463
H218	H	-0.092017	0.877066	-0.061653
N219	N	0.178373	1.081759	-0.082435
H220	H	0.183240	1.051410	-0.107574
H221	H	0.151605	1.146803	-0.122319
N222	N	0.808809	0.407832	0.352082
H223	H	0.803129	0.434711	0.380709
H224	H	0.803191	0.358344	0.380688
N225	N	0.710880	0.081755	-0.082484
H226	H	0.734394	0.051398	-0.107620
H227	H	0.748196	0.070479	-0.046054
H228	H	0.633773	1.131951	-0.454473
H229	H	0.728973	0.677476	-0.278189
H230	H	0.728968	0.677467	-0.604289
H231	H	0.306177	0.955615	-0.206156
H232	H	0.330858	1.073221	-0.467701
N233	N	0.458666	0.947086	-0.352094
H234	H	0.453767	0.977454	-0.407589
H235	H	0.485428	0.882045	-0.326951
H236	H	0.728968	0.677465	-0.721843
N237	N	0.524634	0.677447	-0.269597
H238	H	0.476441	0.731410	-0.307849
H239	H	0.532663	0.677410	-0.223627
N240	N	0.458689	0.947048	0.082486
H241	H	0.453803	0.977411	0.107616
H242	H	0.485454	0.958324	0.046051
