data_functionalizedCrystal
_audit_creation_method	'MofGen! by Chris Wilmer'
_symmetry_space_group_name_H-M	'P1'
_symmetry_Int_Tables_number	1
_symmetry_cell_setting	triclinic
loop_
_symmetry_equiv_pos_as_xyz
  x,y,z
_cell_length_a	16.959454
_cell_length_b	17.077404
_cell_length_c	17.077396
_cell_angle_alpha	89.978543
_cell_angle_beta	90.024735
_cell_angle_gamma	89.980821
loop_
_atom_site_label
_atom_site_type_symbol
_atom_site_fract_x
_atom_site_fract_y
_atom_site_fract_z
Zn1	Zn	-0.314700	-1.200070	0.443904
Zn2	Zn	0.185300	-0.700070	0.943904
Zn3	Zn	-0.446888	-1.199984	0.312647
Zn4	Zn	0.053112	-0.699984	0.812647
Zn5	Zn	-0.314726	-1.068802	0.312648
Zn6	Zn	0.185274	-0.568802	0.812648
Zn7	Zn	-0.446839	-1.068776	0.443866
Zn8	Zn	0.053161	-0.568776	0.943866
O9	O	-0.380788	-1.134408	0.378266
O10	O	0.119212	-0.634408	0.878266
O11	O	-0.332246	-1.309905	0.426508
O12	O	0.167754	-0.809905	0.926508
O13	O	-0.429388	-1.182556	0.202800
O14	O	0.070612	-0.682556	0.702800
O15	O	-0.204111	-1.086262	0.330075
O16	O	0.295889	-0.586262	0.830075
O17	O	-0.429363	-1.309842	0.330074
O18	O	0.070637	-0.809842	0.830074
O19	O	-0.204093	-1.182704	0.426509
O20	O	0.295907	-0.682704	0.926509
O21	O	-0.332288	-1.086178	0.202800
O22	O	0.167712	-0.586178	0.702800
O23	O	-0.332240	-0.958951	0.330038
O24	O	0.167760	-0.458951	0.830038
O25	O	-0.429279	-1.086218	0.553718
O26	O	0.070721	-0.586218	1.053718
O27	O	-0.429303	-0.958933	0.426444
O28	O	0.070697	-0.458933	0.926444
O29	O	-0.332198	-1.182679	0.553746
O30	O	0.167802	-0.682679	1.053746
O31	O	-0.557493	-1.182532	0.330037
O32	O	-0.057493	-0.682532	0.830037
O33	O	-0.557456	-1.086134	0.426443
O34	O	-0.057456	-0.586134	0.926443
C35	C	-0.380770	-0.930460	0.378237
C36	C	0.119230	-0.430460	0.878237
C37	C	-0.380781	-0.843210	0.378244
C38	C	0.119219	-0.343210	0.878244
C39	C	-0.431397	-0.802231	0.428360
C40	C	0.068603	-0.302231	0.928360
C41	C	-0.431397	-0.720250	0.428370
C42	C	0.068603	-0.220250	0.928370
C43	C	-0.380785	-0.679251	0.378259
C44	C	0.119215	-0.179251	0.878259
C45	C	-0.330163	-0.720236	0.328140
C46	C	0.169837	-0.220236	0.828140
C47	C	-0.330159	-0.802215	0.328135
C48	C	0.169841	-0.302215	0.828135
C49	C	-0.330175	-0.549366	0.328153
C50	C	0.169825	-0.049366	0.828153
C51	C	-0.330179	-0.467381	0.328157
C52	C	0.169821	0.032619	0.828157
C53	C	-0.431413	-0.467401	0.428388
C54	C	0.068587	0.032599	0.928388
C55	C	-0.431410	-0.549380	0.428383
C56	C	0.068590	-0.049380	0.928383
C57	C	-0.380789	-0.590360	0.378263
C58	C	0.119211	-0.090360	0.878263
C59	C	-0.586155	-1.134342	0.378253
C60	C	-0.086155	-0.634342	0.878253
C61	C	-0.674011	-1.134386	0.378273
C62	C	-0.174011	-0.634386	0.878273
C63	C	-1.045498	-1.084287	0.428459
C64	C	-0.545498	-0.584287	0.928459
C65	C	-1.045476	-1.184748	0.328153
C66	C	-0.545476	-0.684748	0.828153
C67	C	-0.962930	-1.184720	0.328145
C68	C	-0.462930	-0.684720	0.828145
C69	C	-0.921664	-1.134474	0.378295
C70	C	-0.421664	-0.634474	0.878295
C71	C	-0.962944	-1.084256	0.428452
C72	C	-0.462944	-0.584256	0.928452
C73	C	-0.921643	-1.234932	0.277984
C74	C	-0.421643	-0.734932	0.777984
C75	C	-0.839092	-1.234906	0.277974
C76	C	-0.339092	-0.734906	0.777974
C77	C	-0.797825	-1.184664	0.328128
C78	C	-0.297825	-0.684664	0.828128
C79	C	-0.839110	-1.134444	0.378288
C80	C	-0.339110	-0.634444	0.878288
C81	C	-0.797845	-1.084198	0.428437
C82	C	-0.297845	-0.584198	0.928437
C83	C	-0.839128	-1.033981	0.478601
C84	C	-0.339128	-0.533981	0.978601
C85	C	-0.921677	-1.034013	0.478606
C86	C	-0.421677	-0.534013	0.978606
C87	C	-0.715277	-1.184632	0.328124
C88	C	-0.215277	-0.684632	0.828124
C89	C	-0.715291	-1.084167	0.428430
C90	C	-0.215291	-0.584167	0.928430
C91	C	-0.174620	-1.134495	0.378297
C92	C	0.325380	-0.634495	0.878297
C93	C	-0.086763	-1.134533	0.378310
C94	C	0.413237	-0.634533	0.878310
C95	C	-0.380730	-1.134455	0.583010
C96	C	0.119270	-0.634455	1.083010
C97	C	-0.380705	-1.134476	0.670260
C98	C	0.119295	-0.634476	1.170260
C99	C	-0.380802	-0.339152	0.378287
C100	C	0.119198	0.160848	0.878287
C101	C	-0.380796	-0.426402	0.378274
C102	C	0.119204	0.073598	0.878274
C103	C	-0.380789	-1.134406	0.174318
C104	C	0.119211	-0.634406	0.674318
C105	C	-0.380591	-1.134538	0.087069
C106	C	0.119409	-0.634538	0.587069
C107	C	-0.330151	-1.184705	0.711266
C108	C	0.169849	-0.684705	1.211266
C109	C	-0.330124	-1.184714	0.793247
C110	C	0.169876	-0.684714	1.293247
C111	C	-0.380657	-1.134498	0.834220
C112	C	0.119343	-0.634498	1.334220
C113	C	-0.431214	-1.084263	0.793208
C114	C	0.068786	-0.584263	1.293208
C115	C	-0.431236	-1.084250	0.711229
C116	C	0.068764	-0.584250	1.211229
C117	C	-0.431166	-1.084295	0.964078
C118	C	0.068834	-0.584295	1.464078
C119	C	-0.431146	-1.084309	1.046063
C120	C	0.068854	-0.584309	1.546063
C121	C	-0.330055	-1.184759	1.046096
C122	C	0.169945	-0.684759	1.546096
C123	C	-0.330077	-1.184746	0.964117
C124	C	0.169923	-0.684746	1.464117
C125	C	-0.380635	-1.134512	0.923111
C126	C	0.119365	-0.634512	1.423111
H127	H	-0.472615	-0.686889	0.469179
H128	H	0.027385	-0.186889	0.969179
H129	H	-0.289003	-1.225599	0.677912
H130	H	0.210997	-0.725599	1.177912
H131	H	-0.955248	-1.275834	0.237149
H132	H	-0.455248	-0.775834	0.737149
O133	O	-0.275574	-0.846414	0.274070
O134	O	0.224426	-0.346414	0.774070
H135	H	-0.213555	-0.830698	0.287630
H136	H	0.286445	-0.330698	0.787630
O137	O	-0.670783	-1.029964	0.482512
O138	O	-0.170783	-0.529964	0.982512
H139	H	-0.713360	-0.995047	0.517384
H140	H	-0.213360	-0.495047	1.017384
H141	H	-0.288960	-1.225617	0.826630
H142	H	0.211040	-0.725617	1.326630
H143	H	-0.288933	-1.225641	0.930759
H144	H	0.211067	-0.725641	1.430759
O145	O	-0.485994	-0.593607	0.482432
O146	O	0.014006	-0.093607	0.982432
H147	H	-0.521188	-0.551340	0.517291
H148	H	-0.021188	-0.051340	1.017291
O149	O	-0.485634	-1.030138	1.090262
O150	O	0.014366	-0.530138	1.590262
H151	H	-0.547681	-1.043552	1.074523
H152	H	-0.047681	-0.543552	1.574523
O153	O	-0.275520	-1.238933	1.090325
O154	O	0.224480	-0.738933	1.590325
H155	H	-0.289095	-1.300533	1.074610
H156	H	0.210905	-0.800533	1.574610
O157	O	-0.486008	-0.423210	0.482455
O158	O	0.013992	0.076790	0.982455
H159	H	-0.477502	-0.359317	0.474050
H160	H	0.022498	0.140683	0.974050
H161	H	-0.472324	-1.043377	0.930693
H162	H	0.027676	-0.543377	1.430693
O163	O	-0.794622	-0.979782	0.532689
O164	O	-0.294622	-0.479782	1.032689
H165	H	-0.756967	-1.014877	0.572658
H166	H	-0.256967	-0.514877	1.072658
O167	O	-1.090023	-1.030119	0.482552
O168	O	-0.590023	-0.530119	0.982552
H169	H	-1.127592	-1.065238	0.522525
H170	H	-0.627592	-0.565238	1.022525
H171	H	-0.472615	-0.835607	0.469164
H172	H	0.027385	-0.335607	0.969164
O173	O	-0.485712	-1.030093	0.837397
O174	O	0.014288	-0.530093	1.337397
H175	H	-0.525927	-1.065211	0.874743
H176	H	-0.025927	-0.565211	1.374743
O177	O	-0.966201	-0.979839	0.532693
O178	O	-0.466201	-0.479839	1.032693
H179	H	-1.030535	-0.988292	0.524261
H180	H	-0.530535	-0.488292	1.024261
H181	H	-1.079079	-1.225651	0.287318
H182	H	-0.579079	-0.725651	0.787318
H183	H	-0.288957	-0.434002	0.287362
H184	H	0.211043	0.065998	0.787362
O185	O	-0.275586	-0.593570	0.274090
O186	O	0.224414	-0.093570	0.774090
H187	H	-0.240400	-0.551290	0.239236
H188	H	0.259600	-0.051290	0.739236
H189	H	-0.472394	-1.043341	0.677843
H190	H	0.027606	-0.543341	1.177843
O191	O	-0.794572	-1.289075	0.223878
O192	O	-0.294572	-0.789075	0.723878
H193	H	-0.730238	-1.280614	0.232296
H194	H	-0.230238	-0.780614	0.732296
O195	O	-0.670745	-1.238799	0.274041
O196	O	-0.170745	-0.738799	0.774041
H197	H	-0.633176	-1.203684	0.234064
H198	H	-0.133176	-0.703684	0.734064
O199	O	-0.275593	-0.676007	0.274078
O200	O	0.224407	-0.176007	0.774078
H201	H	-0.235430	-0.638668	0.309270
H202	H	0.264570	-0.138668	0.809270
