data_functionalizedCrystal
_audit_creation_method	'MofGen! by Chris Wilmer'
_symmetry_space_group_name_H-M	'P1'
_symmetry_Int_Tables_number	1
_symmetry_cell_setting	triclinic
loop_
_symmetry_equiv_pos_as_xyz
  x,y,z
_cell_length_a	16.959455
_cell_length_b	25.639239
_cell_length_c	16.959447
_cell_angle_alpha	89.966924
_cell_angle_beta	89.985678
_cell_angle_gamma	90.035633
loop_
_atom_site_label
_atom_site_type_symbol
_atom_site_fract_x
_atom_site_fract_y
_atom_site_fract_z
Zn1	Zn	1.208282	-0.208183	-0.446894
Zn2	Zn	1.208161	-0.295624	-0.314709
Zn3	Zn	1.076110	-0.208199	-0.314731
Zn4	Zn	1.076032	-0.295585	-0.446847
O5	O	1.142146	-0.251898	-0.380795
O6	O	1.318876	-0.219792	-0.429369
O7	O	1.190627	-0.284050	-0.204101
O8	O	1.093726	-0.135032	-0.332291
O9	O	1.318788	-0.284034	-0.332253
O10	O	1.190832	-0.135020	-0.429391
O11	O	1.093609	-0.219820	-0.204117
O12	O	0.965489	-0.219782	-0.332247
O13	O	1.093593	-0.283967	-0.557464
O14	O	0.965431	-0.283983	-0.429312
O15	O	1.190756	-0.219754	-0.557498
O16	O	1.190551	-0.368784	-0.332208
O17	O	1.093476	-0.368755	-0.429290
C18	C	0.936780	-0.251880	-0.380777
C19	C	0.848923	-0.251886	-0.380788
C20	C	1.142013	-0.387740	-0.380759
C21	C	1.142029	-0.445854	-0.380770
C22	C	0.477453	-0.218441	-0.330359
C23	C	0.477442	-0.285398	-0.431277
C24	C	0.559988	-0.285390	-0.431272
C25	C	0.601270	-0.251908	-0.380809
C26	C	0.560007	-0.218433	-0.330351
C27	C	0.601258	-0.318868	-0.481723
C28	C	0.683809	-0.318863	-0.481720
C29	C	0.725092	-0.285377	-0.431260
C30	C	0.683824	-0.251901	-0.380801
C31	C	0.725106	-0.218418	-0.330338
C32	C	0.683839	-0.184939	-0.279882
C33	C	0.601290	-0.184948	-0.279891
C34	C	0.807641	-0.285368	-0.431251
C35	C	0.807660	-0.218411	-0.330330
C36	C	1.192825	-0.806220	-0.330331
C37	C	1.192855	-0.860824	-0.330341
O38	O	1.235906	-0.889063	-0.287417
N39	N	1.142285	-0.888137	-0.380847
C40	C	1.091686	-0.860842	-0.431352
O41	O	1.048675	-0.889088	-0.474313
C42	C	1.091660	-0.806239	-0.431345
C43	C	1.142228	-0.778929	-0.380830
C44	C	1.243389	-0.778910	-0.279820
C45	C	1.243358	-0.724309	-0.279809
C46	C	1.192761	-0.697019	-0.330308
C47	C	1.142196	-0.724329	-0.380818
C48	C	1.041066	-0.778946	-0.481853
C49	C	1.041045	-0.724339	-0.481842
C50	C	1.091613	-0.697029	-0.431326
C51	C	1.091568	-0.642437	-0.431306
N52	N	1.142139	-0.615125	-0.380800
C53	C	1.192735	-0.642415	-0.330301
C54	C	1.091746	-0.975513	-0.431364
C55	C	1.091767	-1.030115	-0.431368
C56	C	1.192938	-1.030093	-0.330358
C57	C	1.192912	-0.975490	-0.330351
C58	C	1.142316	-0.948200	-0.380858
C59	C	1.192664	-0.527750	-0.330280
C60	C	1.192625	-0.473145	-0.330271
C61	C	1.091458	-0.473172	-0.431283
C62	C	1.091493	-0.527772	-0.431290
C63	C	1.142103	-0.555060	-0.380786
O64	O	1.048541	-0.614164	-0.474211
O65	O	1.235746	-0.614163	-0.287355
C66	C	1.348314	-0.251915	-0.380814
C67	C	1.436171	-0.251923	-0.380822
C68	C	1.142179	-0.251854	-0.586963
C69	C	1.142193	-0.251836	-0.674820
C70	C	1.142301	-0.115525	-0.380849
C71	C	1.142367	-0.057411	-0.380872
C72	C	1.091699	-0.285214	-1.046281
C73	C	1.192876	-0.218348	-1.046311
C74	C	1.192855	-0.218359	-0.963765
C75	C	1.142256	-0.251799	-0.922473
C76	C	1.091678	-0.285227	-0.963727
C77	C	1.243438	-0.184935	-0.922505
C78	C	1.243419	-0.184945	-0.839954
C79	C	1.192816	-0.218382	-0.798661
C80	C	1.142235	-0.251812	-0.839920
C81	C	1.091636	-0.285251	-0.798628
C82	C	1.041051	-0.318679	-0.839885
C83	C	1.041074	-0.318665	-0.922433
C84	C	1.192792	-0.218396	-0.716112
C85	C	1.091615	-0.285265	-0.716074
C86	C	1.142159	-0.251903	-0.175429
C87	C	1.142298	-0.251774	-0.087573
H88	H	0.841266	-0.191142	-0.289241
H89	H	0.717462	-0.157680	-0.238791
F90	F	1.246786	-1.059147	-0.276611
F91	F	1.297290	-0.149352	-0.966455
H92	H	1.050260	-0.450943	-0.472397
H93	H	0.567683	-0.157691	-0.238812
H94	H	1.233980	-0.191182	-0.682524
F95	F	0.433534	-0.182808	-0.276666
H96	H	0.443825	-0.312661	-0.472356
H97	H	0.999857	-0.345907	-0.806254
H98	H	1.233804	-0.450911	-0.289133
H99	H	1.284537	-0.702077	-0.238678
F100	F	0.557318	-0.354514	-0.535405
F101	F	1.037755	-0.320854	-0.672134
H102	H	0.717401	-0.346123	-0.522805
F103	F	0.987246	-0.354239	-0.966348
F104	F	1.037886	-0.946474	-0.485119
H105	H	0.841237	-0.312628	-0.472329
H106	H	1.233876	-0.549962	-0.289157
F107	F	1.037863	-0.320786	-1.090189
F108	F	1.246733	-0.946430	-0.276587
F109	F	1.297247	-0.807946	-0.226069
H110	H	1.050582	-1.052346	-0.472495
F111	F	1.246729	-0.182765	-1.090259
H112	H	1.284608	-0.157726	-0.806369
H113	H	0.999884	-0.801172	-0.522984
H114	H	1.050319	-0.550009	-0.472426
F115	F	0.987194	-0.695298	-0.535601
