data_functionalizedCrystal
_audit_creation_method	'MofGen! by Chris Wilmer'
_symmetry_space_group_name_H-M	'P1'
_symmetry_Int_Tables_number	1
_symmetry_cell_setting	triclinic
loop_
_symmetry_equiv_pos_as_xyz
  x,y,z
_cell_length_a	12.827893
_cell_length_b	12.827892
_cell_length_c	12.827885
_cell_angle_alpha	90.032681
_cell_angle_beta	89.980728
_cell_angle_gamma	89.976915
loop_
_atom_site_label
_atom_site_type_symbol
_atom_site_fract_x
_atom_site_fract_y
_atom_site_fract_z
Zn1	Zn	1.597614	0.415983	-0.590828
Zn2	Zn	1.597484	0.590761	-0.416079
Zn3	Zn	1.422855	0.416034	-0.416101
Zn4	Zn	1.422817	0.590683	-0.590779
O5	O	1.510192	0.503365	-0.503447
O6	O	1.743832	0.439179	-0.567658
O7	O	1.574281	0.567637	-0.269846
O8	O	1.446107	0.269791	-0.439309
O9	O	1.743737	0.567587	-0.439271
O10	O	1.574502	0.269754	-0.567679
O11	O	1.445982	0.439266	-0.269862
O12	O	1.276614	0.439190	-0.439262
O13	O	1.446042	0.567455	-0.737022
O14	O	1.276586	0.567504	-0.567597
O15	O	1.574465	0.439104	-0.737057
O16	O	1.574244	0.736986	-0.439224
O17	O	1.445916	0.736929	-0.567575
C18	C	1.238682	0.503345	-0.503427
C19	C	1.122529	0.503362	-0.503443
C20	C	1.510090	0.774875	-0.503415
C21	C	1.510142	0.891028	-0.503436
C22	C	1.070758	0.566955	-0.566849
C23	C	0.950708	0.566973	-0.566868
C24	C	1.446675	1.062864	-0.566919
C25	C	1.446620	0.942813	-0.566899
C26	C	1.782762	0.503386	-0.503467
C27	C	1.898916	0.503395	-0.503476
C28	C	1.510263	0.503265	-0.776017
C29	C	1.510294	0.503222	-0.892170
C30	C	1.510289	1.230795	-0.503489
C31	C	1.510244	1.114642	-0.503475
C32	C	1.573848	0.439698	-0.943973
C33	C	1.573881	0.439652	-1.064023
C34	C	1.510182	0.503390	-0.231937
C35	C	1.510354	0.503138	-0.115784
H36	H	1.115312	0.621381	-0.621124
C37	C	1.436813	0.576648	-0.952319
N38	N	1.381464	0.631955	-0.997622
C39	C	1.373200	1.123040	-0.640319
N40	N	1.317854	1.168364	-0.695604
H41	H	0.906186	0.621420	-0.621149
H42	H	0.943431	0.448952	-0.449185
C43	C	1.373093	0.882661	-0.640282
N44	N	1.317712	0.837351	-0.695558
C45	C	1.647322	0.366264	-0.883824
N46	N	1.702666	0.310953	-0.838521
H47	H	1.564566	0.935550	-0.449113
C48	C	1.583715	1.054466	-0.430071
N49	N	1.639054	1.009142	-0.374780
H50	H	1.628296	0.385270	-1.108572
C51	C	1.062344	0.429825	-0.430124
N52	N	1.017014	0.374436	-0.374896
H53	H	1.455943	0.557531	-1.071242
