data_functionalizedCrystal
_audit_creation_method	'MofGen! by Chris Wilmer'
_symmetry_space_group_name_H-M	'P1'
_symmetry_Int_Tables_number	1
_symmetry_cell_setting	triclinic
loop_
_symmetry_equiv_pos_as_xyz
  x,y,z
_cell_length_a	14.472311
_cell_length_b	11.792241
_cell_length_c	11.792241
_cell_angle_alpha	95.806584
_cell_angle_beta	90.009809
_cell_angle_gamma	90.000108
loop_
_atom_site_label
_atom_site_type_symbol
_atom_site_fract_x
_atom_site_fract_y
_atom_site_fract_z
O1	O	0.076752	-1.506907	0.155576
O2	O	0.576752	-1.006907	0.655576
O3	O	0.076773	-1.176566	0.171609
O4	O	0.576773	-0.676566	0.671609
O5	O	0.076755	-1.349753	-0.001578
O6	O	0.576755	-0.849753	0.498422
O7	O	0.076769	-1.333720	0.328763
O8	O	0.576769	-0.833720	0.828763
O9	O	-0.076927	-1.349741	-0.001600
O10	O	0.423073	-0.849741	0.498400
O11	O	-0.076909	-1.176554	0.171587
O12	O	0.423091	-0.676554	0.671587
O13	O	-0.076930	-1.506895	0.155554
O14	O	0.423070	-1.006895	0.655554
Cu15	Cu	-0.090952	-1.341724	0.163569
Cu16	Cu	0.409048	-0.841724	0.663569
Cu17	Cu	0.090795	-1.341738	0.163595
Cu18	Cu	0.590795	-0.841738	0.663595
O19	O	-0.076913	-1.333708	0.328741
O20	O	0.423087	-0.833708	0.828741
C21	C	-0.000065	-1.134269	0.170591
C22	C	0.499935	-0.634269	0.670591
C23	C	-0.000057	-1.008255	0.167576
C24	C	0.499943	-0.508255	0.667576
C25	C	-0.000085	-1.348740	-0.043880
C26	C	0.499915	-0.848740	0.456120
C27	C	-0.000084	-1.345726	-0.169894
C28	C	0.499916	-0.845726	0.330106
N29	N	-0.218783	-1.341722	0.163550
N30	N	0.281217	-0.841722	0.663550
C31	C	-0.592874	-1.341739	0.163586
C32	C	-0.092874	-0.841739	0.663586
C33	C	-0.553689	-1.434712	0.071231
C34	C	-0.053689	-0.934712	0.571231
C35	C	-0.446601	-1.434466	0.070887
C36	C	0.053399	-0.934466	0.570887
C37	C	-0.407283	-1.341731	0.163568
C38	C	0.092717	-0.841731	0.663568
C39	C	-0.446167	-1.223154	0.136974
C40	C	0.053833	-0.723154	0.636974
C41	C	-0.553289	-1.223704	0.136320
C42	C	-0.053289	-0.723704	0.636320
C43	C	-0.553376	-1.366277	0.282803
C44	C	-0.053376	-0.866277	0.782803
C45	C	-0.446248	-1.368961	0.282022
C46	C	0.053752	-0.868961	0.782022
C47	C	-0.302395	-1.341720	0.163560
C48	C	0.197605	-0.841720	0.663560
C49	C	-0.697762	-1.341743	0.163592
C50	C	-0.197762	-0.841743	0.663592
N51	N	0.218626	-1.341749	0.163604
N52	N	0.718626	-0.841749	0.663604
C53	C	-0.000090	-1.549192	0.156572
C54	C	0.499910	-1.049192	0.656572
C55	C	-0.000092	-1.675206	0.159587
C56	C	0.499908	-1.175206	0.659587
C57	C	-0.000084	-0.777543	0.162034
C58	C	0.499916	-0.277543	0.662034
C59	C	-0.000069	-0.905928	0.165113
C60	C	0.499931	-0.405928	0.665113
C61	C	-0.000068	-1.340183	-0.400606
C62	C	0.499932	-0.840183	0.099394
C63	C	-0.000077	-1.343262	-0.272221
C64	C	0.499923	-0.843262	0.227779
C65	C	-0.000070	-1.334721	0.371043
C66	C	0.499930	-0.834721	0.871043
C67	C	-0.000065	-1.337736	0.497057
C68	C	0.499935	-0.837736	0.997057
H69	H	-0.420311	-1.522586	0.086830
H70	H	0.079689	-1.022586	0.586830
H71	H	-0.420986	-1.418713	-0.017570
H72	H	0.079014	-0.918713	0.482430
C73	C	-0.645558	-1.545579	0.188746
C74	C	-0.145558	-1.045579	0.688746
C75	C	-0.588462	-1.554073	0.092410
C76	C	-0.088462	-1.054073	0.592410
H77	H	-0.667034	-1.619269	0.201816
H78	H	-0.167034	-1.119269	0.701816
H79	H	-0.611560	-1.513761	0.253167
H80	H	-0.111560	-1.013761	0.753167
H81	H	-0.696811	-1.497957	0.176580
H82	H	-0.196811	-0.997957	0.676580
H83	H	-0.537205	-1.601688	0.104579
H84	H	-0.037205	-1.101688	0.604579
H85	H	-0.622461	-1.585907	0.027974
H86	H	-0.122461	-1.085907	0.527974
H87	H	-0.419481	-1.305688	0.354024
H88	H	0.080519	-0.805688	0.854024
H89	H	-0.580622	-1.419184	-0.016724
H90	H	-0.080622	-0.919184	0.483276
H91	H	-0.578286	-1.202188	0.049354
H92	H	-0.078286	-0.702188	0.549354
H93	H	-0.420700	-1.152272	0.202420
H94	H	0.079300	-0.652272	0.702420
C95	C	-0.313314	-1.188650	0.023465
C96	C	0.186686	-0.688650	0.523465
C97	C	-0.409975	-1.193419	0.020900
C98	C	0.090025	-0.693419	0.520900
H99	H	-0.290974	-1.170304	-0.048200
H100	H	0.209026	-0.670304	0.451800
H101	H	-0.294003	-1.131866	0.081508
H102	H	0.205997	-0.631866	0.581508
H103	H	-0.289412	-1.260556	0.038807
H104	H	0.210588	-0.760556	0.538807
H105	H	-0.433878	-1.121510	0.005565
H106	H	0.066122	-0.621510	0.505565
H107	H	-0.429295	-1.250206	-0.037161
H108	H	0.070705	-0.750206	0.462839
C109	C	-0.641921	-1.051282	0.167839
C110	C	-0.141921	-0.551282	0.667839
C111	C	-0.588303	-1.127449	0.223606
C112	C	-0.088303	-0.627449	0.723606
H113	H	-0.663540	-0.991861	0.221721
H114	H	-0.163540	-0.491861	0.721721
H115	H	-0.605452	-1.019732	0.111884
H116	H	-0.105452	-0.519732	0.611884
H117	H	-0.693144	-1.090598	0.132108
H118	H	-0.193144	-0.590598	0.632108
H119	H	-0.537075	-1.088134	0.259330
H120	H	-0.037075	-0.588134	0.759330
H121	H	-0.624773	-1.159000	0.279582
H122	H	-0.124773	-0.659000	0.779582
H123	H	-0.580389	-1.450934	0.308183
H124	H	-0.080389	-0.950934	0.808183
H125	H	-0.578721	-1.298488	0.351541
H126	H	-0.078721	-0.798488	0.851541
H127	H	-0.420834	-1.456194	0.302185
H128	H	0.079166	-0.956194	0.802185
