data_functionalizedCrystal
_audit_creation_method	'MofGen! by Chris Wilmer'
_symmetry_space_group_name_H-M	'P1'
_symmetry_Int_Tables_number	1
_symmetry_cell_setting	triclinic
loop_
_symmetry_equiv_pos_as_xyz
  x,y,z
_cell_length_a	15.995350
_cell_length_b	14.853567
_cell_length_c	13.930277
_cell_angle_alpha	90.000757
_cell_angle_beta	90.003570
_cell_angle_gamma	83.563652
loop_
_atom_site_label
_atom_site_type_symbol
_atom_site_fract_x
_atom_site_fract_y
_atom_site_fract_z
O1	O	-1.111124	-0.116206	-0.079741
O2	O	-0.867365	-0.130556	-0.079760
O3	O	-0.995756	0.007858	-0.079753
O4	O	-0.982734	-0.254619	-0.079748
O5	O	-0.995738	0.007861	0.079909
O6	O	-0.867348	-0.130553	0.079902
O7	O	-1.111106	-0.116203	0.079921
Zn8	Zn	-0.989224	-0.123377	0.105261
Zn9	Zn	-0.989248	-0.123381	-0.105100
O10	O	-0.982716	-0.254616	0.079914
C11	C	-0.836161	-0.129961	0.000068
C12	C	-0.743209	-0.128182	0.000061
C13	C	-0.995157	0.041447	0.000075
C14	C	-0.993389	0.141528	0.000067
C15	C	-1.142311	-0.116798	0.000090
C16	C	-1.235263	-0.118576	0.000091
C17	C	-0.405454	-0.121795	0.000081
C18	C	-0.452773	-0.023220	0.000435
C19	C	-0.549465	-0.024999	0.000069
C20	C	-0.573018	-0.124963	0.000071
C21	C	-0.531998	-0.173586	-0.091099
C22	C	-0.435359	-0.171110	-0.091168
C23	C	-0.435002	-0.173143	0.090397
C24	C	-0.531947	-0.173119	0.091595
C25	C	-0.667717	-0.126759	0.000063
C26	C	-0.310754	-0.120002	0.000083
C27	C	-0.983315	-0.288206	0.000083
C28	C	-0.985083	-0.388287	0.000085
N29	N	-0.989214	-0.123374	0.248827
C30	C	-0.909648	0.553949	0.000078
C31	C	-1.062178	0.575436	0.000090
C32	C	-1.063841	0.481405	0.000084
C33	C	-0.988406	0.423641	0.000077
C34	C	-0.911308	0.459909	0.000076
C35	C	-1.140937	0.445129	0.000096
C36	C	-1.142603	0.351093	0.000091
C37	C	-1.067167	0.293327	0.000077
C38	C	-0.990066	0.329600	0.000075
C39	C	-0.914631	0.271837	0.000068
C40	C	-0.837529	0.308108	0.000058
C41	C	-0.835872	0.402144	0.000062
C42	C	-1.068824	0.199292	0.000074
C43	C	-0.916291	0.177796	0.000065
N44	N	-0.989264	-0.123377	-0.248667
C45	C	-0.932394	-0.184647	0.701093
C46	C	-1.046124	-0.062109	0.701069
C47	C	-1.046114	-0.062106	0.600573
C48	C	-0.989244	-0.123375	0.550333
C49	C	-0.932384	-0.184648	0.600588
C50	C	-1.102979	-0.000841	0.550310
C51	C	-1.102972	-0.000836	0.449808
C52	C	-1.046097	-0.062102	0.399566
C53	C	-0.989234	-0.123376	0.449828
C54	C	-0.932364	-0.184646	0.399587
C55	C	-0.875496	-0.245916	0.449847
C56	C	-0.875509	-0.245913	0.550346
C57	C	-1.046084	-0.062105	0.299067
C58	C	-0.932354	-0.184646	0.299082
H59	H	-0.434198	0.016185	0.065817
N60	N	-0.567564	-0.131262	-0.176233
N61	N	-0.644760	-0.128690	-0.191777
H62	H	-0.669883	-0.098805	-0.251905
H63	H	-0.829210	-0.295798	0.591274
H64	H	-1.205384	0.321569	0.000098
H65	H	-1.131599	0.169764	0.000088
H66	H	-0.886040	-0.234536	0.258183
H67	H	-0.433141	0.016001	-0.064587
N68	N	-1.104113	0.000486	0.247676
N69	N	-1.077413	0.056426	0.191609
H70	H	-1.118382	0.100637	0.155293
N71	N	-1.104201	0.000478	0.752392
N72	N	-1.102959	0.083812	0.741186
H73	H	-1.143977	0.128017	0.777440
N74	N	-0.584360	0.023269	-0.082066
N75	N	-0.537291	0.058370	-0.139301
H76	H	-0.561934	0.092460	-0.197313
N77	N	-0.874308	-0.247218	0.752440
N78	N	-0.874316	-0.247209	0.842171
H79	H	-0.833292	-0.291400	0.878437
H80	H	-0.417017	-0.135654	-0.159322
H81	H	-1.123594	0.622472	0.000104
H82	H	-0.829196	-0.295806	0.408930
H83	H	-1.149285	0.049039	0.591219
H84	H	-0.414421	-0.140915	0.159502
H85	H	-0.403195	-0.243482	-0.095304
H86	H	-0.559215	-0.137625	0.159043
N87	N	-0.585067	0.022945	0.082055
N88	N	-0.563223	-0.002895	0.164630
H89	H	-0.588363	0.030972	0.222534
N90	N	-0.549825	-0.265717	-0.095341
N91	N	-0.593067	-0.296643	-0.031065
H92	H	-0.605659	-0.361712	-0.034057
N93	N	-0.551374	-0.264551	0.098532
N94	N	-0.590164	-0.289206	0.170042
H95	H	-0.603904	-0.353775	0.174938
N96	N	-0.395262	-0.264316	0.091163
N97	N	-0.345384	-0.291465	0.025553
H98	H	-0.317313	-0.355853	0.026086
N99	N	-0.839226	0.118808	0.000044
N100	N	-0.770397	0.151208	0.000031
H101	H	-0.715969	0.109549	0.000014
H102	H	-1.149275	0.049054	0.408893
H103	H	-0.776110	0.261065	0.000059
H104	H	-0.773099	0.431685	0.000055
H105	H	-0.846873	0.583486	0.000067
H106	H	-1.202353	0.492167	0.000111
