data_functionalizedCrystal
_audit_creation_method	'MofGen! by Chris Wilmer'
_symmetry_space_group_name_H-M	'P1'
_symmetry_Int_Tables_number	1
_symmetry_cell_setting	triclinic
loop_
_symmetry_equiv_pos_as_xyz
  x,y,z
_cell_length_a	15.297327
_cell_length_b	15.297621
_cell_length_c	15.298259
_cell_angle_alpha	91.630989
_cell_angle_beta	88.343348
_cell_angle_gamma	88.375711
loop_
_atom_site_label
_atom_site_type_symbol
_atom_site_fract_x
_atom_site_fract_y
_atom_site_fract_z
Zn1	Zn	-0.425847	-1.169538	-0.785846
Zn2	Zn	-0.596524	-1.161128	-0.663051
Zn3	Zn	-0.434136	-1.046757	-0.615218
Zn4	Zn	-0.548517	-0.998838	-0.777520
O5	O	-0.501256	-1.094065	-0.710409
O6	O	-0.465110	-1.287726	-0.793061
O7	O	-0.598543	-1.162491	-0.537392
O8	O	-0.313739	-1.086618	-0.621318
O9	O	-0.590506	-1.281547	-0.702843
O10	O	-0.307649	-1.176825	-0.746679
O11	O	-0.479238	-1.078464	-0.502249
O12	O	-0.432687	-0.921097	-0.613244
O13	O	-0.508685	-1.004947	-0.897938
O14	O	-0.516723	-0.885891	-0.732487
O15	O	-0.418559	-1.130359	-0.904056
O16	O	-0.709454	-1.116026	-0.694769
O17	O	-0.674184	-0.996792	-0.778869
C18	C	-0.470396	-0.872560	-0.666772
C19	C	-0.457210	-0.777792	-0.648127
C20	C	-0.595475	-0.437413	-0.843627
C21	C	-0.607870	-0.526451	-0.861143
C22	C	-0.570206	-0.589290	-0.807891
C23	C	-0.520145	-0.563083	-0.737119
C24	C	-0.507754	-0.474036	-0.719597
C25	C	-0.482485	-0.625914	-0.683861
C26	C	-0.432423	-0.599707	-0.613089
C27	C	-0.420034	-0.510669	-0.595570
C28	C	-0.457698	-0.447829	-0.648822
C29	C	-0.494876	-0.714961	-0.701383
C30	C	-0.407155	-0.751585	-0.577353
C31	C	-0.394759	-0.662547	-0.559836
C32	C	-0.722751	-1.050317	-0.741129
C33	C	-0.817512	-1.031675	-0.754315
C34	C	-1.157955	-1.227611	-0.616525
C35	C	-1.068923	-1.245126	-0.604132
C36	C	-1.006066	-1.191765	-0.641677
C37	C	-1.032250	-1.120886	-0.691617
C38	C	-1.121291	-1.103365	-0.704006
C39	C	-0.969402	-1.067519	-0.729158
C40	C	-0.995586	-0.996640	-0.779098
C41	C	-1.084619	-0.979123	-0.791485
C42	C	-1.147476	-1.032483	-0.753940
C43	C	-0.880361	-1.085040	-0.716769
C44	C	-0.843697	-0.960794	-0.804249
C45	C	-0.932729	-0.943279	-0.816643
C46	C	-0.278896	-1.138005	-0.679592
C47	C	-0.184140	-1.156730	-0.666459
C48	C	-0.457342	-1.063246	-0.932799
C49	C	-0.438629	-1.050112	-1.027568
C50	C	-0.532233	-0.316437	-0.754208
C51	C	-0.545420	-0.411205	-0.772853
C52	C	-0.634352	-1.188089	-1.367890
C53	C	-0.651939	-1.200423	-1.278850
C54	C	-0.598613	-1.162847	-1.216025
C55	C	-0.527697	-1.112934	-1.242250
C56	C	-0.510112	-1.100593	-1.331299
C57	C	-0.474373	-1.075351	-1.179434
C58	C	-0.403457	-1.025438	-1.205658
C59	C	-0.385875	-1.013100	-1.294699
C60	C	-0.439201	-1.050676	-1.357524
C61	C	-0.491958	-1.087691	-1.090385
C62	C	-0.367718	-1.000195	-1.053793
C63	C	-0.350131	-0.987861	-1.142834
C64	C	-0.544945	-1.124826	-0.488885
C65	C	-0.563441	-1.138172	-0.394115
H66	H	-0.353999	-0.641196	-0.502213
H67	H	-0.580301	-0.661788	-0.822157
C68	C	-0.662927	-0.555277	-0.938992
C69	C	-0.704352	-0.486162	-0.997574
C70	C	-0.759409	-0.514989	-1.075430
C71	C	-0.773041	-0.612931	-1.094704
C72	C	-0.731615	-0.682052	-1.036122
C73	C	-0.676558	-0.653225	-0.958266
H74	H	-0.694261	-0.413654	-0.983307
H75	H	-0.790075	-0.463820	-1.118796
H76	H	-0.813798	-0.634270	-1.152338
H77	H	-0.741706	-0.754560	-1.050389
H78	H	-0.645892	-0.704394	-0.914899
H79	H	-1.105935	-0.921399	-0.832138
C80	C	-0.693023	-1.229404	-1.436986
C81	C	-0.702016	-1.329391	-1.442884
C82	C	-0.760701	-1.370703	-1.511977
C83	C	-0.810395	-1.312028	-1.575173
C84	C	-0.801404	-1.212036	-1.569277
C85	C	-0.742718	-1.170724	-1.500184
H86	H	-0.665228	-1.372830	-1.396101
H87	H	-0.767357	-1.444724	-1.516341
H88	H	-0.853838	-1.342610	-1.626320
H89	H	-0.838191	-1.168596	-1.616060
H90	H	-0.736063	-1.096703	-1.495819
C91	C	-0.307870	-0.958192	-1.323545
C92	C	-0.303732	-0.861597	-1.293170
C93	C	-0.225726	-0.806691	-1.322013
C94	C	-0.151857	-0.848380	-1.381231
C95	C	-0.155992	-0.944981	-1.411610
C96	C	-0.233999	-0.999887	-1.382767
H97	H	-0.358417	-0.830732	-1.249330
H98	H	-0.222665	-0.735181	-1.299525
H99	H	-0.094112	-0.807735	-1.402583
H100	H	-0.101308	-0.975846	-1.455449
H101	H	-0.237059	-1.071397	-1.405255
C102	C	-0.549935	-0.743783	-0.779232
C103	C	-0.508390	-0.802996	-0.853173
C104	C	-0.563451	-0.831816	-0.931029
C105	C	-0.660056	-0.801423	-0.934944
C106	C	-0.701606	-0.742208	-0.861000
C107	C	-0.646545	-0.713388	-0.783144
H108	H	-0.436873	-0.825497	-0.850278
H109	H	-0.532693	-0.875651	-0.985767
H110	H	-0.700816	-0.822758	-0.992577
H111	H	-0.773123	-0.719707	-0.863896
H112	H	-0.677303	-0.669552	-0.728406
C113	C	-1.040121	-1.323092	-0.549207
C114	C	-1.109255	-1.381792	-0.507912
C115	C	-1.080454	-1.459765	-0.452986
C116	C	-0.982518	-1.479037	-0.439355
C117	C	-0.913378	-1.420336	-0.480651
C118	C	-0.942180	-1.342363	-0.535577
H119	H	-1.181759	-1.367527	-0.518002
H120	H	-1.131636	-1.503219	-0.422416
H121	H	-0.961198	-1.536757	-0.398695
H122	H	-0.840875	-1.434601	-0.470561
H123	H	-0.890997	-1.298909	-0.566147
C124	C	-0.309052	-0.958858	-0.984695
C125	C	-0.231055	-0.903946	-1.013537
C126	C	-0.172397	-0.862610	-0.944434
C127	C	-0.191735	-0.876185	-0.846488
C128	C	-0.269736	-0.931100	-0.817642
C129	C	-0.328394	-0.972436	-0.886745
H130	H	-0.216737	-0.893895	-1.086046
H131	H	-0.114656	-0.821959	-0.965789
H132	H	-0.148312	-0.845586	-0.795334
H133	H	-0.284054	-0.941151	-0.745132
H134	H	-0.386135	-1.013087	-0.865390
H135	H	-0.292391	-0.947222	-1.164199
H136	H	-0.376487	-0.802750	-0.533989
H137	H	-0.447607	-0.375325	-0.634566
C138	C	-0.636903	-0.368289	-0.902194
C139	C	-0.736917	-0.362383	-0.910920
C140	C	-0.778351	-0.293257	-0.969491
C141	C	-0.719770	-0.230037	-1.019335
C142	C	-0.619750	-0.235942	-1.010610
C143	C	-0.578317	-0.305068	-0.952040
H144	H	-0.780288	-0.409184	-0.874021
H145	H	-0.852393	-0.288886	-0.975949
H146	H	-0.750442	-0.178866	-1.062692
H147	H	-0.576380	-0.189141	-1.047509
H148	H	-0.504275	-0.309438	-0.945581
C149	C	-1.227098	-1.286297	-0.575228
C150	C	-1.296448	-1.246621	-0.509521
C151	C	-1.365594	-1.305310	-0.468219
C152	C	-1.365390	-1.403675	-0.492624
C153	C	-1.296037	-1.443357	-0.558335
C154	C	-1.226891	-1.384668	-0.599637
H155	H	-1.296601	-1.173800	-0.491452
H156	H	-1.416933	-1.275934	-0.419576
H157	H	-1.416576	-1.447120	-0.462050
H158	H	-1.295884	-1.516178	-0.576404
H159	H	-1.175552	-1.414043	-0.648280
C160	C	-0.961540	-0.865311	-0.871572
C161	C	-1.020812	-0.791478	-0.829920
C162	C	-1.049623	-0.713512	-0.884849
C163	C	-1.019162	-0.709377	-0.981430
C164	C	-0.959887	-0.783212	-1.023087
C165	C	-0.931076	-0.861179	-0.968158
H166	H	-1.043364	-0.794537	-0.758420
H167	H	-1.093503	-0.658854	-0.854011
H168	H	-1.040490	-0.651662	-1.022092
H169	H	-0.937335	-0.780154	-1.094587
H170	H	-0.887196	-0.915836	-0.998996
H171	H	-0.379281	-0.489334	-0.537935
C172	C	-0.729938	-1.255327	-1.250004
C173	C	-0.788594	-1.296664	-1.319103
C174	C	-0.866598	-1.351573	-1.290257
C175	C	-0.885945	-1.365145	-1.192313
C176	C	-0.827287	-1.323807	-1.123208
C177	C	-0.749284	-1.268898	-1.152053
H178	H	-0.774274	-1.286618	-1.391613
H179	H	-0.910020	-1.382174	-1.341414
H180	H	-0.943688	-1.405792	-1.170960
H181	H	-0.841608	-1.333853	-1.050698
H182	H	-0.705862	-1.238297	-1.100897
H183	H	-1.219975	-1.018228	-0.764031
H184	H	-0.859050	-1.142750	-0.676107
H185	H	-0.933573	-1.206029	-0.631582
H186	H	-0.792518	-0.917341	-0.834820
H187	H	-0.612937	-1.172891	-1.143525
H188	H	-0.549694	-1.128337	-1.069042
H189	H	-0.424884	-1.040639	-1.430030
