data_functionalizedCrystal
_audit_creation_method	'MofGen! by Chris Wilmer'
_symmetry_space_group_name_H-M	'P1'
_symmetry_Int_Tables_number	1
_symmetry_cell_setting	triclinic
loop_
_symmetry_equiv_pos_as_xyz
  x,y,z
_cell_length_a	31.640172
_cell_length_b	31.640171
_cell_length_c	20.016444
_cell_angle_alpha	59.993474
_cell_angle_beta	90.005684
_cell_angle_gamma	59.979319
loop_
_atom_site_label
_atom_site_type_symbol
_atom_site_fract_x
_atom_site_fract_y
_atom_site_fract_z
Zr1	Zr	0.406961	0.462745	-0.087791
O2	O	0.339426	0.550963	-0.194521
O3	O	0.427693	0.374535	-0.055046
O4	O	0.427646	0.462746	-0.194464
O5	O	0.339476	0.462749	0.054842
O6	O	0.497203	0.462737	-0.194450
O7	O	0.339472	0.462753	-0.055103
O8	O	0.497286	0.304944	0.054944
O9	O	0.339393	0.620542	-0.194552
O10	O	0.488409	0.410808	-0.041102
O11	O	0.436502	0.410812	0.040938
O12	O	0.436448	0.514668	-0.123209
O13	O	0.384541	0.514672	-0.041169
Zr14	Zr	0.517902	0.462726	0.087582
Zr15	Zr	0.517896	0.462731	-0.087768
Zr16	Zr	0.406967	0.462740	0.087558
Zr17	Zr	0.406908	0.573715	-0.087840
Zr18	Zr	0.517954	0.351756	0.087630
O19	O	0.497170	0.550936	0.054837
O20	O	0.497162	0.550943	-0.194488
O21	O	0.339434	0.550956	0.054803
O22	O	0.585437	0.374508	0.194312
O23	O	0.585429	0.374515	-0.055013
O24	O	0.427701	0.374528	0.194279
O25	O	0.585387	0.462722	-0.055051
O26	O	0.497216	0.462725	0.194255
O27	O	0.427659	0.462734	0.194240
O28	O	0.585391	0.462718	0.054894
O29	O	0.427572	0.620531	-0.194533
O30	O	0.497291	0.304940	0.194324
O31	O	0.585470	0.304929	0.194342
O32	O	0.585465	0.304933	0.054963
O33	O	0.339398	0.620538	-0.055172
O34	O	0.427577	0.620526	-0.055154
O35	O	0.488415	0.410803	0.123000
O36	O	0.540322	0.410799	0.040960
O37	O	0.488360	0.514659	-0.041147
O38	O	0.436453	0.514663	0.040893
C39	C	0.462497	0.323929	-0.000044
C40	C	0.462519	0.276819	-0.000023
C41	C	0.500775	-0.097754	0.060485
C42	C	0.500821	0.079199	0.060530
O43	O	0.533445	0.069461	0.112050
N44	N	0.462486	0.139681	-0.000060
C45	C	0.424139	0.155925	-0.060669
O46	O	0.391537	0.211429	-0.112209
C47	C	0.424096	-0.021028	-0.060717
C48	C	0.462430	-0.081510	-0.000118
C49	C	0.539107	-0.158233	0.121079
C50	C	0.539094	-0.202468	0.121069
C51	C	0.500749	-0.186224	0.060466
C52	C	0.462417	-0.125745	-0.000127
C53	C	0.385751	-0.004784	-0.121329
C54	C	0.385744	-0.049028	-0.121337
C55	C	0.424079	-0.109510	-0.060738
C56	C	0.424058	-0.153737	-0.060740
N57	N	0.462393	-0.214218	-0.000149
C58	C	0.500738	-0.230462	0.060454
C59	C	0.424164	0.248825	-0.060639
C60	C	0.424174	0.293063	-0.060626
C61	C	0.500857	0.216334	0.060572
C62	C	0.500844	0.172096	0.060562
C63	C	0.462499	0.188343	-0.000049
C64	C	0.500707	-0.323356	0.060430
C65	C	0.500689	-0.367592	0.060417
C66	C	0.424008	-0.290860	-0.060784
C67	C	0.424024	-0.246628	-0.060769
C68	C	0.462378	-0.262881	-0.000158
O69	O	0.391455	-0.144043	-0.112238
O70	O	0.533342	-0.285969	0.111975
C71	C	0.500789	-0.053518	0.060494
C72	C	0.462457	0.006961	-0.000099
C73	C	0.424112	0.023204	-0.060702
C74	C	0.462467	0.051199	-0.000087
C75	C	0.500813	0.034955	0.060516
C76	C	0.539148	-0.025527	0.121106
C77	C	0.539134	-0.069762	0.121097
C78	C	0.385777	0.083686	-0.121293
C79	C	0.385793	0.127918	-0.121278
C80	C	0.424138	0.111674	-0.060675
C81	C	0.323668	0.462753	-0.000134
C82	C	0.276573	0.462759	-0.000144
C83	C	0.011690	0.408516	0.042771
C84	C	-0.165295	0.408505	0.042787
O85	O	-0.165113	0.362398	0.079267
N86	N	-0.214548	0.462719	-0.000073
C87	C	-0.219554	0.516939	-0.042936
O88	O	-0.265507	0.563051	-0.079384
C89	C	-0.042569	0.516949	-0.042947
C90	C	0.006683	0.462732	-0.000091
C91	C	0.060941	0.354303	0.085624
C92	C	0.105184	0.354306	0.085616
C93	C	0.100177	0.408522	0.042755
C94	C	0.050927	0.462735	-0.000099
C95	C	-0.047576	0.571169	-0.085804
C96	C	-0.003324	0.571166	-0.085802
C97	C	0.045928	0.516949	-0.042945
C98	C	0.090163	0.516954	-0.042968
N99	N	0.139416	0.462740	-0.000108
C100	C	0.144423	0.408524	0.042753
C101	C	-0.312471	0.516930	-0.042929
C102	C	-0.356717	0.516928	-0.042927
C103	C	-0.302455	0.408494	0.042797
C104	C	-0.258209	0.408497	0.042791
C105	C	-0.263218	0.462716	-0.000068
C106	C	0.237335	0.408535	0.042732
C107	C	0.281580	0.408543	0.042718
C108	C	0.227314	0.516977	-0.043003
C109	C	0.183073	0.516969	-0.042992
C110	C	0.188087	0.462743	-0.000118
O111	O	0.090021	0.563037	-0.079422
O112	O	0.190381	0.362419	0.079211
C113	C	-0.032553	0.408512	0.042779
C114	C	-0.081803	0.462725	-0.000074
C115	C	-0.086810	0.516941	-0.042936
C116	C	-0.126049	0.462723	-0.000073
C117	C	-0.121042	0.408507	0.042789
C118	C	-0.071789	0.354293	0.085649
C119	C	-0.027546	0.354296	0.085641
C120	C	-0.136063	0.571155	-0.085796
C121	C	-0.180305	0.571148	-0.085785
C122	C	-0.175298	0.516932	-0.042924
C123	C	0.601195	0.462718	-0.000075
C124	C	0.648290	0.462712	-0.000066
C125	C	0.462424	0.462742	-0.219441
C126	C	0.462422	0.462744	-0.293881
C127	C	0.462366	0.601542	-0.000165
C128	C	0.462344	0.648652	-0.000186
C129	C	0.435307	0.516952	-0.507996
C130	C	0.435311	0.516949	-0.577938
C131	C	0.489559	0.408515	-0.492205
C132	C	0.489557	0.408518	-0.422265
C133	C	0.462429	0.462738	-0.430164
C134	C	0.462434	0.462733	-0.570045
C135	C	0.462439	0.462729	-0.645878
C136	C	0.462424	0.462742	-0.354327
C137	C	0.462439	0.462729	0.219231
C138	C	0.462441	0.462726	0.293672
C139	C	0.601260	0.323911	-0.000015
C140	C	0.648377	0.276796	0.000016
C141	C	0.462504	0.323922	0.219292
C142	C	0.462529	0.276810	0.293753
C143	C	0.601268	0.323905	0.219321
C144	C	0.648387	0.276787	0.293792
C145	C	0.323595	0.601566	-0.219530
C146	C	0.276476	0.648684	-0.294002
C147	C	0.323603	0.601559	-0.000195
C148	C	0.276485	0.648675	-0.000225
C149	C	0.462359	0.601549	-0.219501
C150	C	0.462334	0.648660	-0.293962
C151	C	0.643406	0.254674	-0.042813
C152	C	0.687674	0.210410	-0.042800
C153	C	0.736912	0.188266	0.000045
C154	C	0.741882	0.210391	0.042875
C155	C	0.697615	0.254657	0.042858
C156	C	0.489638	0.254681	0.371563
C157	C	0.489660	0.210421	0.441534
C158	C	0.462574	0.188287	0.433693
C159	C	0.435461	0.210421	0.355874
C160	C	0.435438	0.254683	0.285905
C161	C	0.697615	0.254658	0.285941
C162	C	0.741893	0.210392	0.355907
C163	C	0.736943	0.188253	0.433725
C164	C	0.687710	0.210386	0.441575
C165	C	0.643433	0.254654	0.371609
C166	C	0.227248	0.670818	-0.286150
C167	C	0.182970	0.715098	-0.356117
C168	C	0.187920	0.737240	-0.433934
C169	C	0.237153	0.715103	-0.441784
C170	C	0.281430	0.670827	-0.371818
C171	C	0.281456	0.670801	0.042596
C172	C	0.237189	0.715077	0.042564
C173	C	0.187951	0.737224	-0.000284
C174	C	0.182981	0.715096	-0.043110
C175	C	0.227248	0.670823	-0.043083
C176	C	0.489424	0.670780	-0.286095
C177	C	0.489411	0.715041	-0.356052
C178	C	0.462304	0.737184	-0.433876
C179	C	0.435213	0.715060	-0.441743
C180	C	0.435229	0.670797	-0.371786
H181	H	0.532060	0.122851	0.109907
H182	H	0.701655	0.272677	0.222584
H183	H	0.413143	0.733096	-0.505116
H184	H	0.223207	0.652793	-0.222793
C185	C	0.519391	0.348879	-0.336641
C186	C	0.549226	0.289239	-0.327949
C187	C	0.579060	0.229604	-0.242328
C188	C	0.579059	0.229609	-0.165398
C189	C	0.549223	0.289251	-0.174088
C190	C	0.519389	0.348886	-0.259709
H191	H	0.549228	0.289234	-0.384900
H192	H	0.601146	0.185453	-0.235896
H193	H	0.601144	0.185463	-0.102016
H194	H	0.549222	0.289256	-0.117137
H195	H	0.497303	0.393037	-0.266141
C196	C	0.796044	0.186048	0.347260
C197	C	0.801484	0.210396	0.261660
C198	C	0.855634	0.186054	0.253010
C199	C	0.904343	0.137364	0.329960
C200	C	0.898904	0.113013	0.415566
C201	C	0.844755	0.137355	0.424216
H202	H	0.765426	0.246442	0.204691
H203	H	0.859660	0.204081	0.189638
H204	H	0.944428	0.119344	0.323557
H205	H	0.934963	0.076967	0.472535
H206	H	0.840729	0.119328	0.487588
C207	C	0.581290	-0.176109	0.187751
C208	C	0.566030	-0.156244	0.245226
C209	C	0.608213	-0.174127	0.311907
C210	C	0.665655	-0.211876	0.321114
C211	C	0.680917	-0.231744	0.263638
C212	C	0.638734	-0.213860	0.196956
H213	H	0.523506	-0.128298	0.238412
H214	H	0.596914	-0.159419	0.354455
H215	H	0.696881	-0.225114	0.370476
H216	H	0.723442	-0.259689	0.270452
H217	H	0.650033	-0.228568	0.154408
H218	H	0.603351	0.272666	0.378013
C219	C	0.128817	0.739454	-0.090230
C220	C	0.080130	0.788144	-0.090241
C221	C	0.025964	0.812498	-0.137353
C222	C	0.020486	0.788162	-0.184453
C223	C	0.069175	0.739469	-0.184444
C224	C	0.123341	0.715115	-0.137332
H225	H	0.084183	0.806162	-0.055373
H226	H	-0.010078	0.848544	-0.137359
H227	H	-0.019610	0.806190	-0.219328
H228	H	0.065122	0.721451	-0.219312
H229	H	0.159383	0.679068	-0.137326
C230	C	0.335614	0.646447	0.089731
C231	C	0.384314	0.597749	0.089774
C232	C	0.438470	0.573401	0.136909
C233	C	0.443927	0.597752	0.184001
C234	C	0.395226	0.646453	0.183960
C235	C	0.341070	0.670800	0.136825
H236	H	0.380276	0.579721	0.054912
H237	H	0.474522	0.537350	0.136939
H238	H	0.484017	0.579728	0.218893
H239	H	0.399264	0.664481	0.218822
H240	H	0.305018	0.706852	0.136796
C241	C	0.242664	0.739405	0.089685
C242	C	0.271104	0.769814	0.067329
C243	C	0.276581	0.794139	0.114451
C244	C	0.253619	0.788056	0.183930
C245	C	0.225177	0.757646	0.206290
C246	C	0.219700	0.733321	0.159167
H247	H	0.288104	0.774318	0.015893
H248	H	0.297636	0.816651	0.097898
H249	H	0.257673	0.806063	0.218812
H250	H	0.208178	0.753142	0.257725
H251	H	0.198646	0.710809	0.175720
C252	C	0.519489	0.186077	0.527128
C253	C	0.549289	0.210419	0.535745
C254	C	0.579118	0.186076	0.621335
C255	C	0.579148	0.137391	0.698308
C256	C	0.549348	0.113046	0.689693
C257	C	0.519518	0.137389	0.604103
H258	H	0.549267	0.246460	0.478763
H259	H	0.601178	0.204097	0.627712
H260	H	0.601230	0.119371	0.761667
H261	H	0.549369	0.077004	0.746676
H262	H	0.497458	0.119367	0.597726
C263	C	0.785651	0.139553	0.510684
C264	C	0.824918	0.078693	0.525614
C265	C	0.873628	0.029992	0.602569
C266	C	0.883071	0.042151	0.664595
C267	C	0.843803	0.103014	0.649668
C268	C	0.795093	0.151715	0.572712
H269	H	0.817929	0.069689	0.479697
H270	H	0.902697	-0.015063	0.613619
H271	H	0.919129	0.006100	0.721563
H272	H	0.850792	0.112018	0.695585
H273	H	0.766024	0.196770	0.561662
H274	H	0.151910	0.773273	-0.000300
H275	H	0.145284	0.310156	0.120511
C276	C	0.682198	0.186073	-0.089907
C277	C	0.653720	0.228687	-0.182963
C278	C	0.648243	0.204351	-0.230068
C279	C	0.671244	0.137401	-0.184117
C280	C	0.699724	0.094783	-0.091056
C281	C	0.705201	0.119119	-0.043951
H282	H	0.636692	0.278251	-0.216984
H283	H	0.627160	0.235900	-0.298959
H284	H	0.667189	0.119386	-0.218987
H285	H	0.716752	0.045219	-0.057035
H286	H	0.726284	0.087571	0.024940
C287	C	0.519250	0.646424	-0.200493
C288	C	0.549053	0.670757	-0.191857
C289	C	0.578884	0.646401	-0.106258
C290	C	0.578912	0.597711	-0.029296
C291	C	0.549108	0.573375	-0.037931
C292	C	0.519277	0.597731	-0.123529
H293	H	0.549033	0.706803	-0.248830
H294	H	0.600947	0.664416	-0.099867
H295	H	0.600994	0.579681	0.034069
H296	H	0.549127	0.537329	0.019043
H297	H	0.497214	0.579716	-0.129921
C298	C	0.405674	0.186065	0.347257
C299	C	0.375853	0.210397	0.261672
C300	C	0.346070	0.186036	0.253057
C301	C	0.346106	0.137343	0.330027
C302	C	0.375928	0.113009	0.415619
C303	C	0.405711	0.137369	0.424233
H304	H	0.375825	0.246445	0.204688
H305	H	0.323994	0.204051	0.189696
H306	H	0.324058	0.119310	0.323650
H307	H	0.375956	0.076961	0.472602
H308	H	0.427787	0.119355	0.487594
H309	H	0.462598	0.152246	0.490673
H310	H	0.683687	0.192354	0.504943
C311	C	0.128819	0.739436	-0.347468
C312	C	0.112545	0.769847	-0.302507
C313	C	0.058396	0.794183	-0.293856
C314	C	0.020520	0.788107	-0.330167
C315	C	0.036794	0.757695	-0.375132
C316	C	0.090943	0.733360	-0.383782
H317	H	0.140583	0.774346	-0.275625
H318	H	0.046349	0.816696	-0.260570
H319	H	-0.019564	0.806122	-0.323763
H320	H	0.008755	0.753197	-0.402014
H321	H	0.102989	0.710846	-0.417069
C322	C	0.139212	0.785940	-0.510894
C323	C	0.085064	0.810254	-0.502248
C324	C	0.036354	0.858952	-0.579203
C325	C	0.041792	0.883337	-0.664805
C326	C	0.095942	0.859024	-0.673454
C327	C	0.144652	0.810326	-0.596499
H328	H	0.081037	0.792202	-0.438877
H329	H	-0.003732	0.876950	-0.572800
H330	H	0.005734	0.919387	-0.721772
H331	H	0.099969	0.877076	-0.736825
H332	H	0.184737	0.792327	-0.602902
H333	H	0.781977	0.192354	0.077759
H334	H	0.413364	0.272695	0.222551
C335	C	0.335580	0.646479	-0.380463
C336	C	0.341018	0.670836	-0.466064
C337	C	0.395167	0.646491	-0.474716
C338	C	0.443877	0.597789	-0.397767
C339	C	0.438440	0.573429	-0.312160
C340	C	0.384291	0.597773	-0.303508
H341	H	0.304959	0.706891	-0.523032
H342	H	0.399192	0.664525	-0.538088
H343	H	0.483961	0.579767	-0.404172
H344	H	0.474500	0.537374	-0.255193
H345	H	0.380267	0.579740	-0.240136
C346	C	0.519389	0.348877	-0.483525
C347	C	0.563352	0.333954	-0.519812
C348	C	0.593178	0.274315	-0.511131
C349	C	0.579042	0.229601	-0.466164
C350	C	0.535077	0.244523	-0.429874
C351	C	0.505251	0.304162	-0.438554
H352	H	0.573818	0.367055	-0.553102
H353	H	0.625724	0.263269	-0.537996
H354	H	0.601122	0.185453	-0.459738
H355	H	0.524611	0.211422	-0.396583
H356	H	0.472705	0.315208	-0.411690
C357	C	0.343561	-0.031153	-0.188010
C358	C	0.307191	-0.050998	-0.163897
C359	C	0.265008	-0.033122	-0.230568
C360	C	0.259193	0.004598	-0.321352
C361	C	0.295564	0.024445	-0.345469
C362	C	0.337748	0.006569	-0.278798
H363	H	0.311495	-0.078923	-0.096690
H364	H	0.238084	-0.047815	-0.212715
H365	H	0.227966	0.017831	-0.370706
H366	H	0.291261	0.052370	-0.412676
H367	H	0.364672	0.021262	-0.296652
C368	C	0.519209	0.739375	-0.347386
C369	C	0.578087	0.696758	-0.302379
C370	C	0.607884	0.721092	-0.293710
C371	C	0.578803	0.788042	-0.330048
C372	C	0.519921	0.830663	-0.375059
C373	C	0.490124	0.806330	-0.383728
H374	H	0.599618	0.647194	-0.275476
H375	H	0.651472	0.689541	-0.260390
H376	H	0.600860	0.806055	-0.323631
H377	H	0.498390	0.880227	-0.401961
H378	H	0.446536	0.837881	-0.417047
H379	H	0.701670	0.272663	0.077738
H380	H	0.413167	0.652792	-0.378203
H381	H	0.223193	0.652810	-0.077951
C382	C	0.462285	0.785878	-0.510825
C383	C	0.492084	0.810209	-0.502161
C384	C	0.492065	0.858904	-0.579106
C385	C	0.462248	0.883269	-0.664715
C386	C	0.432448	0.858938	-0.673383
C387	C	0.432466	0.810243	-0.596438
H388	H	0.514158	0.792173	-0.438785
H389	H	0.514125	0.876915	-0.572689
H390	H	0.462235	0.919316	-0.721674
H391	H	0.410374	0.876974	-0.736759
H392	H	0.410406	0.792231	-0.602855
H393	H	0.142969	0.561117	-0.077900
H394	H	0.531906	-0.416841	0.109768
H395	H	0.321684	0.364391	0.077619
C396	C	0.542894	-0.341238	0.127104
C397	C	0.600335	-0.378989	0.136311
C398	C	0.642519	-0.396870	0.202988
C399	C	0.627261	-0.377000	0.260459
C400	C	0.569817	-0.339247	0.251254
C401	C	0.527633	-0.321366	0.184577
H402	H	0.611633	-0.393700	0.093766
H403	H	0.685043	-0.424818	0.209802
H404	H	0.658488	-0.390237	0.309817
H405	H	0.558520	-0.324537	0.293799
H406	H	0.485109	-0.293419	0.177763
H407	H	0.570311	-0.251712	0.170413
C408	C	0.381832	-0.273000	-0.127447
C409	C	0.376022	-0.235287	-0.218230
C410	C	0.333849	-0.217429	-0.284898
C411	C	0.297486	-0.237284	-0.260783
C412	C	0.303295	-0.274999	-0.169995
C413	C	0.345468	-0.292857	-0.103327
H414	H	0.402941	-0.220588	-0.236086
H415	H	0.329549	-0.189510	-0.352105
H416	H	0.266267	-0.224064	-0.310134
H417	H	0.276376	-0.289698	-0.152139
H418	H	0.349768	-0.320776	-0.036120
C419	C	0.543040	0.198470	0.127234
C420	C	0.579398	0.218330	0.103097
C421	C	0.621582	0.200470	0.169750
C422	C	0.627408	0.162749	0.260540
C423	C	0.591049	0.142887	0.284681
C424	C	0.548866	0.160747	0.218028
H425	H	0.575086	0.246255	0.035885
H426	H	0.648497	0.215174	0.151878
H427	H	0.658635	0.149528	0.309880
H428	H	0.595361	0.114961	0.351893
H429	H	0.521951	0.146043	0.235900
C430	C	0.382002	0.359591	-0.127282
C431	C	0.397275	0.400545	-0.184737
C432	C	0.355103	0.467073	-0.251398
C433	C	0.297659	0.492646	-0.260604
C434	C	0.282383	0.451691	-0.203147
C435	C	0.324555	0.385163	-0.136485
H436	H	0.439801	0.381615	-0.177924
H437	H	0.366411	0.497390	-0.293932
H438	H	0.266441	0.541893	-0.309951
H439	H	0.239857	0.470621	-0.209960
H440	H	0.313246	0.354846	-0.093952
C441	C	0.381976	0.266705	-0.127312
C442	C	0.376154	0.304435	-0.218097
C443	C	0.333964	0.322319	-0.284768
C444	C	0.297596	0.302473	-0.260653
C445	C	0.303417	0.264740	-0.169864
C446	C	0.345607	0.246857	-0.103193
H447	H	0.403077	0.319129	-0.235952
H448	H	0.329656	0.350251	-0.351976
H449	H	0.266365	0.315711	-0.310007
H450	H	0.276494	0.250047	-0.152009
H451	H	0.349915	0.218925	-0.035985
C452	C	0.343583	0.061739	-0.187995
C453	C	0.337774	0.087278	-0.278777
C454	C	0.295603	0.153803	-0.345450
C455	C	0.259242	0.194790	-0.321340
C456	C	0.265050	0.169252	-0.230554
C457	C	0.307220	0.102726	-0.163882
H458	H	0.364692	0.056937	-0.296628
H459	H	0.291304	0.172708	-0.412656
H460	H	0.228024	0.244036	-0.370695
H461	H	0.238132	0.199593	-0.212703
H462	H	0.311520	0.083822	-0.096676
H463	H	0.603318	0.272704	-0.077713
H464	H	0.241177	0.733137	-0.505152
H465	H	0.511695	0.272698	0.377964
H466	H	0.392796	-0.197379	-0.110094
H467	H	0.570368	-0.038746	0.170454
C468	C	0.242854	0.348888	0.089885
C469	C	0.271314	0.304170	0.067530
C470	C	0.276831	0.244524	0.114675
C471	C	0.253889	0.229595	0.184176
C472	C	0.225427	0.274314	0.206534
C473	C	0.219910	0.333960	0.159389
H474	H	0.288298	0.315221	0.016079
H475	H	0.297901	0.211421	0.098124
H476	H	0.257974	0.185442	0.219076
H477	H	0.208443	0.263263	0.257986
H478	H	0.198840	0.367063	0.175941
H479	H	0.570350	-0.119007	0.170443
H480	H	0.772952	0.152221	0.000054
H481	H	0.354571	0.177166	-0.170624
H482	H	0.065027	0.310151	0.120532
C483	C	-0.204033	0.348857	0.089939
C484	C	-0.187742	0.304131	0.067598
C485	C	-0.133567	0.244489	0.114751
C486	C	-0.095683	0.229573	0.184243
C487	C	-0.111973	0.274301	0.206587
C488	C	-0.166148	0.333943	0.159435
H489	H	-0.215787	0.315172	0.016153
H490	H	-0.121509	0.211379	0.098210
H491	H	-0.055580	0.185423	0.219148
H492	H	-0.083929	0.263260	0.258032
H493	H	-0.178207	0.367053	0.175975
H494	H	-0.298385	0.364349	0.077692
C495	C	-0.317989	0.576578	-0.090087
C496	C	-0.295042	0.591496	-0.159583
C497	C	-0.300563	0.651144	-0.206747
C498	C	-0.329032	0.695874	-0.184415
C499	C	-0.351982	0.680958	-0.114917
C500	C	-0.346460	0.621310	-0.067752
H501	H	-0.273966	0.558383	-0.176117
H502	H	-0.283574	0.662186	-0.258194
H503	H	-0.333119	0.740030	-0.219329
H504	H	-0.373058	0.714071	-0.098383
H505	H	-0.363449	0.610268	-0.016305
C506	C	-0.101744	0.630813	-0.132940
C507	C	-0.139643	0.645753	-0.202441
C508	C	-0.193811	0.705404	-0.249577
C509	C	-0.210081	0.750115	-0.227213
C510	C	-0.172182	0.735176	-0.157709
C511	C	-0.118013	0.675525	-0.110572
H512	H	-0.127599	0.612655	-0.218999
H513	H	-0.221867	0.716462	-0.301028
H514	H	-0.250180	0.794272	-0.262105
H515	H	-0.184225	0.768274	-0.141150
H516	H	-0.089958	0.664467	-0.059121
C517	C	-0.008836	0.630810	-0.132951
C518	C	0.014111	0.645731	-0.202446
C519	C	0.008598	0.705374	-0.249596
C520	C	-0.019861	0.750097	-0.227250
C521	C	-0.042810	0.735177	-0.157751
C522	C	-0.037298	0.675534	-0.110601
H523	H	0.035180	0.612623	-0.218991
H524	H	0.025587	0.716417	-0.301044
H525	H	-0.023942	0.794248	-0.262153
H526	H	-0.063879	0.768285	-0.141206
H527	H	-0.054286	0.664491	-0.059153
C528	C	0.026629	0.294655	0.132790
C529	C	0.042915	0.249928	0.110452
C530	C	0.097087	0.190284	0.157606
C531	C	0.134974	0.175366	0.227097
C532	C	0.118688	0.220094	0.249438
C533	C	0.064516	0.279739	0.202284
H534	H	0.014868	0.260970	0.059008
H535	H	0.109143	0.157173	0.141067
H536	H	0.175076	0.131213	0.262003
H537	H	0.146735	0.209052	0.300883
H538	H	0.052460	0.312849	0.218823
H539	H	0.354551	0.096922	-0.170645
H540	H	-0.396818	0.561077	-0.077836
H541	H	-0.067719	0.310149	0.120543
H542	H	0.223246	0.561118	-0.077903
H543	H	-0.140148	0.615305	-0.120701
H544	H	-0.220407	0.615301	-0.120692
H545	H	0.413217	0.561101	-0.514433
H546	H	0.413227	0.561095	-0.641310
