data_functionalizedCrystal
_audit_creation_method	'MofGen! by Chris Wilmer'
_symmetry_space_group_name_H-M	'P1'
_symmetry_Int_Tables_number	1
_symmetry_cell_setting	triclinic
loop_
_symmetry_equiv_pos_as_xyz
  x,y,z
_cell_length_a	18.215407
_cell_length_b	16.959453
_cell_length_c	18.215407
_cell_angle_alpha	90.012290
_cell_angle_beta	90.007771
_cell_angle_gamma	90.017431
loop_
_atom_site_label
_atom_site_type_symbol
_atom_site_fract_x
_atom_site_fract_y
_atom_site_fract_z
Zn1	Zn	1.125027	-0.314866	0.416067
Zn2	Zn	1.458361	0.018467	0.749400
Zn3	Zn	1.791694	0.351800	1.082733
Zn4	Zn	1.124967	-0.447015	0.293000
Zn5	Zn	1.458300	-0.113682	0.626334
Zn6	Zn	1.791633	0.219651	0.959667
Zn7	Zn	1.001980	-0.314849	0.293020
Zn8	Zn	1.335314	0.018484	0.626353
Zn9	Zn	1.668647	0.351818	0.959686
Zn10	Zn	1.001936	-0.447001	0.416031
Zn11	Zn	1.335270	-0.113667	0.749364
Zn12	Zn	1.668603	0.219666	1.082697
O13	O	1.063478	-0.380933	0.354529
O14	O	1.396811	-0.047600	0.687863
O15	O	1.730144	0.285734	1.021196
O16	O	1.228003	-0.332410	0.399749
O17	O	1.561337	0.000924	0.733082
O18	O	1.894670	0.334257	1.066416
O19	O	1.108646	-0.429482	0.190019
O20	O	1.441979	-0.096149	0.523352
O21	O	1.775312	0.237185	0.856685
O22	O	1.018347	-0.204240	0.309365
O23	O	1.351680	0.129093	0.642699
O24	O	1.685013	0.462426	0.976032
O25	O	1.227959	-0.429499	0.309333
O26	O	1.561292	-0.096166	0.642666
O27	O	1.894626	0.237168	0.975999
O28	O	1.108749	-0.204253	0.399768
O29	O	1.442082	0.129080	0.733101
O30	O	1.775415	0.462414	1.066434
O31	O	1.018288	-0.332380	0.190033
O32	O	1.351621	0.000953	0.523366
O33	O	1.684955	0.334287	0.856699
O34	O	0.898990	-0.332366	0.309330
O35	O	1.232324	0.000968	0.642663
O36	O	1.565657	0.334301	0.975997
O37	O	1.018271	-0.429474	0.519020
O38	O	1.351605	-0.096141	0.852353
O39	O	1.684938	0.237193	1.185686
O40	O	0.898958	-0.429457	0.399706
O41	O	1.232291	-0.096124	0.733039
O42	O	1.565624	0.237209	1.066372
O43	O	1.108706	-0.332395	0.519046
O44	O	1.442039	0.000938	0.852380
O45	O	1.775372	0.334271	1.185713
O46	O	1.108603	-0.557624	0.309297
O47	O	1.441936	-0.224291	0.642631
O48	O	1.775269	0.109042	0.975964
O49	O	1.018213	-0.557614	0.399687
O50	O	1.351546	-0.224280	0.733021
O51	O	1.684879	0.109053	1.066354
C52	C	0.872271	-0.380909	0.354516
C53	C	1.205605	-0.047575	0.687850
C54	C	1.538938	0.285758	1.021183
C55	C	0.790473	-0.380917	0.354528
C56	C	1.123806	-0.047584	0.687862
C57	C	1.457139	0.285749	1.021195
C58	C	0.602301	-0.330467	0.401683
C59	C	0.935634	0.002866	0.735016
C60	C	1.268967	0.336200	1.068349
C61	C	0.525442	-0.330474	0.401685
C62	C	0.858775	0.002860	0.735018
C63	C	1.192109	0.336193	1.068352
C64	C	0.525407	-0.431421	0.307389
C65	C	0.858740	-0.098088	0.640722
C66	C	1.192073	0.235246	0.974056
C67	C	0.602264	-0.431410	0.307383
C68	C	0.935597	-0.098076	0.640717
C69	C	1.268931	0.235257	0.974050
C70	C	0.640709	-0.380934	0.354534
C71	C	0.974042	-0.047600	0.687868
C72	C	1.307376	0.285733	1.021201
C73	C	0.486993	-0.380952	0.354542
C74	C	0.820326	-0.047619	0.687876
C75	C	1.153660	0.285715	1.021209
C76	C	0.403659	-0.380960	0.354545
C77	C	0.736993	-0.047626	0.687878
C78	C	1.070326	0.285707	1.021211
C79	C	0.724048	-0.380925	0.354531
C80	C	1.057381	-0.047592	0.687865
C81	C	1.390715	0.285742	1.021198
C82	C	1.063416	-0.586299	0.354502
C83	C	1.396750	-0.252966	0.687836
C84	C	1.730083	0.080367	1.021169
C85	C	1.063457	-0.674156	0.354515
C86	C	1.396791	-0.340822	0.687849
C87	C	1.730124	-0.007489	1.021182
C88	C	1.110610	-1.045579	0.401691
C89	C	1.443944	-0.712246	0.735024
C90	C	1.777277	-0.378913	1.068357
C91	C	1.016551	-1.045683	0.307477
C92	C	1.349884	-0.712350	0.640811
C93	C	1.683217	-0.379016	0.974144
C94	C	1.016523	-0.963137	0.307460
C95	C	1.349857	-0.629804	0.640794
C96	C	1.683190	-0.296471	0.974127
C97	C	1.063539	-0.921809	0.354560
C98	C	1.396873	-0.588475	0.687893
C99	C	1.730206	-0.255142	1.021227
C100	C	1.110583	-0.963026	0.401677
C101	C	1.443916	-0.629693	0.735010
C102	C	1.777249	-0.296359	1.068343
C103	C	0.969476	-0.921914	0.260350
C104	C	1.302809	-0.588581	0.593683
C105	C	1.636142	-0.255247	0.927017
C106	C	0.969446	-0.839363	0.260332
C107	C	1.302779	-0.506030	0.593665
C108	C	1.636112	-0.172696	0.926998
C109	C	1.016466	-0.798033	0.307428
C110	C	1.349800	-0.464699	0.640762
C111	C	1.683133	-0.131366	0.974095
C112	C	1.063512	-0.839255	0.354546
C113	C	1.396845	-0.505922	0.687880
C114	C	1.730179	-0.172588	1.021213
C115	C	1.110528	-0.797927	0.401646
C116	C	1.443861	-0.464593	0.734979
C117	C	1.777195	-0.131260	1.068313
C118	C	1.157578	-0.839147	0.448761
C119	C	1.490912	-0.505814	0.782094
C120	C	1.824245	-0.172481	1.115427
C121	C	1.157603	-0.921696	0.448773
C122	C	1.490937	-0.588363	0.782107
C123	C	1.824270	-0.255029	1.115440
C124	C	1.016441	-0.715484	0.307416
C125	C	1.349775	-0.382151	0.640749
C126	C	1.683108	-0.048818	0.974082
C127	C	1.110501	-0.715373	0.401632
C128	C	1.443834	-0.382040	0.734965
C129	C	1.777167	-0.048706	1.068299
C130	C	1.255431	-0.380958	0.354543
C131	C	1.588764	-0.047625	0.687876
C132	C	1.922097	0.285709	1.021209
C133	C	1.337229	-0.380969	0.354548
C134	C	1.670563	-0.047635	0.687882
C135	C	2.003896	0.285698	1.021215
C136	C	1.063490	-0.380935	0.546482
C137	C	1.396824	-0.047602	0.879816
C138	C	1.730157	0.285732	1.213149
C139	C	1.063496	-0.380936	0.628281
C140	C	1.396829	-0.047603	0.961614
C141	C	1.730162	0.285731	1.294948
C142	C	1.063559	-0.174765	0.354573
C143	C	1.396893	0.158569	0.687906
C144	C	1.730226	0.491902	1.021239
C145	C	1.063594	-0.086908	0.354591
C146	C	1.396927	0.246425	0.687924
C147	C	1.730261	0.579759	1.021258
C148	C	1.110570	-0.330395	0.816490
C149	C	1.443904	0.002938	1.149823
C150	C	1.777237	0.336271	1.483157
C151	C	1.110566	-0.330395	0.893349
C152	C	1.443900	0.002938	1.226682
C153	C	1.777233	0.336272	1.560016
C154	C	1.016397	-0.431488	0.893310
C155	C	1.349731	-0.098155	1.226643
C156	C	1.683064	0.235179	1.559977
C157	C	1.016398	-0.431484	0.816453
C158	C	1.349731	-0.098150	1.149786
C159	C	1.683065	0.235183	1.483119
C160	C	1.063489	-0.380939	0.778045
C161	C	1.396822	-0.047605	1.111378
C162	C	1.730156	0.285728	1.444711
C163	C	1.063484	-0.380942	0.931761
C164	C	1.396817	-0.047609	1.265094
C165	C	1.730150	0.285724	1.598427
C166	C	1.063479	-0.380942	1.015094
C167	C	1.396812	-0.047609	1.348428
C168	C	1.730146	0.285724	1.681761
C169	C	1.063493	-0.380937	0.694706
C170	C	1.396826	-0.047604	1.028039
C171	C	1.730160	0.285729	1.361372
C172	C	1.063465	-0.380948	1.163323
C173	C	1.396799	-0.047615	1.496656
C174	C	1.730132	0.285719	1.829990
C175	C	1.063477	-0.380945	1.081524
C176	C	1.396810	-0.047612	1.414858
C177	C	1.730144	0.285721	1.748191
H178	H	1.148790	-0.681728	0.439984
H179	H	1.482123	-0.348395	0.773317
H180	H	1.815457	-0.015062	1.106651
H181	H	1.195856	-0.805488	0.487113
H182	H	1.529189	-0.472155	0.820446
H183	H	1.862523	-0.138821	1.153780
F184	F	0.966281	-0.485278	0.775534
F185	F	1.299615	-0.151945	1.108867
F186	F	1.632948	0.181389	1.442200
F187	F	0.643214	-0.276744	0.451862
F188	F	0.976548	0.056590	0.785196
F189	F	1.309881	0.389923	1.118529
F190	F	0.484568	-0.276759	0.451866
F191	F	0.817902	0.056575	0.785199
F192	F	1.151235	0.389908	1.118532
H193	H	1.148903	-0.289236	0.924648
H194	H	1.482237	0.044097	1.257981
H195	H	1.815570	0.377430	1.591314
F196	F	1.160684	-1.089449	0.451829
F197	F	1.494017	-0.756116	0.785162
F198	F	1.827351	-0.422782	1.118495
H199	H	0.978269	-1.079338	0.269134
H200	H	1.311603	-0.746004	0.602467
H201	H	1.644936	-0.412671	0.935801
F202	F	0.919429	-0.965902	0.210239
F203	F	1.252763	-0.632569	0.543572
F204	F	1.586096	-0.299236	0.876906
F205	F	0.484484	-0.485140	0.257212
F206	F	0.817818	-0.151806	0.590546
F207	F	1.151151	0.181527	0.923879
F208	F	0.919370	-0.795500	0.210190
F209	F	1.252703	-0.462167	0.543524
F210	F	1.586037	-0.128833	0.876857
H211	H	0.978059	-0.472642	0.924591
H212	H	1.311393	-0.139308	1.257924
H213	H	1.644726	0.194025	1.591258
H214	H	0.633537	-0.472507	0.268986
H215	H	0.966870	-0.139173	0.602319
H216	H	1.300204	0.194160	0.935652
F217	F	0.966369	-0.671618	0.257278
F218	F	1.299702	-0.338284	0.590612
F219	F	1.633036	-0.004951	0.923945
F220	F	1.207670	-0.965571	0.498914
F221	F	1.541004	-0.632238	0.832247
F222	F	1.874337	-0.298904	1.165581
F223	F	1.160686	-0.276599	0.775616
F224	F	1.494020	0.056735	1.108949
F225	F	1.827353	0.390068	1.442283
