data_functionalizedCrystal
_audit_creation_method	'MofGen! by Chris Wilmer'
_symmetry_space_group_name_H-M	'P1'
_symmetry_Int_Tables_number	1
_symmetry_cell_setting	triclinic
loop_
_symmetry_equiv_pos_as_xyz
  x,y,z
_cell_length_a	19.288864
_cell_length_b	11.892095
_cell_length_c	19.288865
_cell_angle_alpha	93.870403
_cell_angle_beta	96.863755
_cell_angle_gamma	93.899284
loop_
_atom_site_label
_atom_site_type_symbol
_atom_site_fract_x
_atom_site_fract_y
_atom_site_fract_z
O1	O	0.925821	0.094380	-0.082175
O2	O	0.723557	0.094304	-0.093868
O3	O	0.830532	0.094322	0.013108
O4	O	0.818846	0.094362	-0.189151
O5	O	0.821613	-0.093687	0.004202
O6	O	0.714638	-0.093705	-0.102773
O7	O	0.916902	-0.093629	-0.091081
Zn8	Zn	0.814354	-0.123517	-0.098341
Zn9	Zn	0.826105	0.124192	-0.086608
O10	O	0.809926	-0.093647	-0.198057
C11	C	0.693220	0.000290	-0.097945
C12	C	0.616115	0.000260	-0.096817
N13	N	0.806338	-0.292573	-0.106349
C14	C	0.571421	0.000290	-0.159584
C15	C	0.498974	0.000303	-0.158523
C16	C	0.471227	0.000307	-0.094690
C17	C	0.515931	0.000270	-0.031916
C18	C	0.588375	0.000247	-0.032979
C19	C	0.366091	0.066203	-0.041390
C20	C	0.293648	0.066234	-0.040328
C21	C	0.247784	0.000375	-0.091407
C22	C	0.274372	-0.065500	-0.143559
C23	C	0.346816	-0.065523	-0.144622
C24	C	0.392674	0.000332	-0.093530
C25	C	0.124534	0.000417	-0.153027
C26	C	0.052086	0.000422	-0.151964
C27	C	0.069045	0.000402	-0.025355
C28	C	0.141491	0.000385	-0.026421
C29	C	0.169231	0.000398	-0.090259
C30	C	0.889899	-0.529207	-0.022835
C31	C	0.884301	-0.647550	-0.028437
C32	C	0.789543	-0.647603	-0.123152
C33	C	0.795141	-0.529261	-0.117549
C34	C	0.845321	-0.470067	-0.067390
C35	C	0.850921	-0.351722	-0.061792
C36	C	0.756160	-0.351777	-0.156502
C37	C	0.750563	-0.470120	-0.162105
C38	C	0.947239	0.000388	-0.087004
C39	C	1.024344	0.000425	-0.088131
C40	C	0.825697	0.000314	0.034531
C41	C	0.824567	0.000303	0.111634
N42	N	0.834126	0.293248	-0.078595
C43	C	0.814762	0.000364	-0.219480
C44	C	0.815892	0.000382	-0.296583
C45	C	0.887336	0.000321	0.156331
C46	C	0.886276	0.000339	0.228779
C47	C	0.822443	0.000316	0.256526
C48	C	0.759666	0.000304	0.211819
C49	C	0.760728	0.000298	0.139373
C50	C	0.769138	-0.065559	0.361693
C51	C	0.768078	-0.065559	0.434137
C52	C	0.819164	0.000340	0.479973
C53	C	0.871321	0.066225	0.453355
C54	C	0.872383	0.066219	0.380910
C55	C	0.821284	0.000323	0.335080
C56	C	0.880788	0.000378	0.603227
C57	C	0.879726	0.000403	0.675676
C58	C	0.753114	0.000357	0.658713
C59	C	0.754178	0.000344	0.586266
C60	C	0.818017	0.000349	0.558527
H61	H	0.594001	0.000303	-0.211566
Br62	Br	0.697299	-0.154981	0.470254
H63	H	0.719863	-0.303612	-0.192784
H64	H	0.939318	0.000330	0.133752
Br65	Br	-0.008574	0.000453	-0.237155
H66	H	0.920600	-0.695699	0.007845
H67	H	0.462576	0.000324	-0.209636
Br68	Br	0.031396	0.000389	0.061276
H69	H	0.932770	0.000388	0.580641
H70	H	0.403429	0.119840	0.000207
Br71	Br	0.940658	0.155665	0.515552
Br72	Br	0.212137	-0.154882	-0.212888
H73	H	0.701140	0.000343	0.681304
Br74	Br	0.971468	0.000368	0.289452
H75	H	0.368461	-0.119164	-0.187084
Br76	Br	0.257571	0.155649	0.030439
H77	H	0.177883	0.000366	0.024691
H78	H	0.493335	0.000290	0.020058
Br79	Br	0.721436	-0.727949	-0.191212
H80	H	0.891782	-0.303527	-0.020951
H81	H	0.914850	0.119867	0.359241
Br82	Br	0.668987	0.000318	0.525602
Br83	Br	0.682460	-0.550462	-0.230172
H84	H	0.930842	0.000424	0.712069
H85	H	0.930762	-0.481010	0.018002
H86	H	0.727535	-0.119228	0.324378
Br87	Br	0.673035	0.000287	0.249473
H88	H	0.147120	0.000411	-0.205009
Br89	Br	0.649037	0.000203	0.052210
H90	H	0.709613	0.000283	0.102980
