data_functionalizedCrystal
_audit_creation_method	'MofGen! by Chris Wilmer'
_symmetry_space_group_name_H-M	'P1'
_symmetry_Int_Tables_number	1
_symmetry_cell_setting	triclinic
loop_
_symmetry_equiv_pos_as_xyz
  x,y,z
_cell_length_a	17.038275
_cell_length_b	13.101018
_cell_length_c	14.044190
_cell_angle_alpha	86.339369
_cell_angle_beta	87.848219
_cell_angle_gamma	86.400870
loop_
_atom_site_label
_atom_site_type_symbol
_atom_site_fract_x
_atom_site_fract_y
_atom_site_fract_z
O1	O	-1.055810	0.085084	0.202103
O2	O	-0.722477	0.418417	0.535436
O3	O	-0.389143	0.751751	0.868769
O4	O	-0.827951	0.085118	0.198813
O5	O	-0.494617	0.418452	0.532147
O6	O	-0.161284	0.751785	0.865480
O7	O	-0.938456	0.085081	0.062198
O8	O	-0.605123	0.418415	0.395532
O9	O	-0.271790	0.751748	0.728865
O10	O	-0.945304	0.085121	0.338718
O11	O	-0.611971	0.418454	0.672051
O12	O	-0.278638	0.751787	1.005384
O13	O	-0.930518	-0.085346	0.072009
O14	O	-0.597185	0.247987	0.405342
O15	O	-0.263852	0.581320	0.738675
O16	O	-0.820013	-0.085309	0.208624
O17	O	-0.486679	0.248024	0.541957
O18	O	-0.153346	0.581357	0.875290
O19	O	-1.047872	-0.085344	0.211913
O20	O	-0.714539	0.247990	0.545246
O21	O	-0.381205	0.581323	0.878580
Zn22	Zn	-0.932682	-0.112386	0.211826
Zn23	Zn	-0.599349	0.220948	0.545159
Zn24	Zn	-0.266015	0.554281	0.878493
Zn25	Zn	-0.943141	0.112160	0.198900
Zn26	Zn	-0.609807	0.445494	0.532234
Zn27	Zn	-0.276474	0.778827	0.865567
O28	O	-0.937366	-0.085307	0.348528
O29	O	-0.604033	0.248026	0.681861
O30	O	-0.270700	0.581360	1.015195
C31	C	-0.794645	-0.000092	0.200729
C32	C	-0.461311	0.333242	0.534062
C33	C	-0.127978	0.666575	0.867395
C34	C	-0.707228	-0.000079	0.191809
C35	C	-0.373895	0.333254	0.525142
C36	C	-0.040561	0.666587	0.858475
N37	N	-0.925550	-0.265632	0.220647
N38	N	-0.592217	0.067701	0.553980
N39	N	-0.258883	0.401034	0.887314
C40	C	-0.959977	-0.525553	0.178066
C41	C	-0.626644	-0.192220	0.511400
C42	C	-0.293311	0.141114	0.844733
C43	C	-0.915853	-0.474666	0.232650
C44	C	-0.582520	-0.141332	0.565983
C45	C	-0.249187	0.192001	0.899317
C46	C	-0.921250	-0.358349	0.225970
C47	C	-0.587917	-0.025015	0.559303
C48	C	-0.254583	0.308318	0.892636
C49	C	-0.954582	-0.641881	0.184745
C50	C	-0.621248	-0.308547	0.518079
C51	C	-0.287915	0.024786	0.851412
C52	C	-0.662845	-0.000068	0.273696
C53	C	-0.329512	0.333266	0.607030
C54	C	0.003822	0.666599	0.940363
C55	C	-0.580707	-0.000081	0.265311
C56	C	-0.247373	0.333252	0.598644
C57	C	0.085960	0.666585	0.931977
C58	C	-0.542954	-0.000100	0.175036
C59	C	-0.209621	0.333234	0.508369
C60	C	0.123713	0.666567	0.841703
C61	C	-0.587343	-0.000114	0.093142
C62	C	-0.254010	0.333219	0.426476
C63	C	0.079324	0.666552	0.759809
C64	C	-0.669479	-0.000108	0.101529
C65	C	-0.336146	0.333225	0.434863
C66	C	-0.002812	0.666559	0.768196
C67	C	-0.295121	-0.000126	0.145407
C68	C	0.038212	0.333207	0.478740
C69	C	0.371545	0.666540	0.812074
C70	C	-0.212979	-0.000130	0.137026
C71	C	0.120354	0.333204	0.470359
C72	C	0.453687	0.666537	0.803693
C73	C	-0.206349	-0.000099	0.309195
C74	C	0.126985	0.333235	0.642529
C75	C	0.460318	0.666568	0.975862
C76	C	-0.288487	-0.000086	0.317574
C77	C	0.044846	0.333247	0.650907
C78	C	0.378180	0.666581	0.984241
C79	C	-0.332869	-0.000106	0.235681
C80	C	0.000465	0.333227	0.569014
C81	C	0.333798	0.666560	0.902347
C82	C	-0.458996	-0.000110	0.166462
C83	C	-0.125662	0.333223	0.499796
C84	C	0.207671	0.666556	0.833129
C85	C	-0.416825	-0.000103	0.244256
C86	C	-0.083491	0.333231	0.577589
C87	C	0.249842	0.666564	0.910922
C88	C	-0.081178	-0.000127	0.209997
C89	C	0.252155	0.333206	0.543330
C90	C	0.585488	0.666540	0.876663
C91	C	-0.168596	-0.000118	0.218914
C92	C	0.164737	0.333215	0.552247
C93	C	0.498071	0.666549	0.885580
C94	C	-0.931492	-0.000135	0.031548
C95	C	-0.598159	0.333198	0.364881
C96	C	-0.264826	0.666532	0.698214
C97	C	-0.922558	-0.000143	-0.074398
C98	C	-0.589225	0.333191	0.258935
C99	C	-0.255892	0.666524	0.592268
N100	N	-0.950278	0.265407	0.190072
N101	N	-0.616945	0.598740	0.523405
N102	N	-0.283612	0.932073	0.856739
C103	C	-0.969586	-0.000109	-0.320894
C104	C	-0.636253	0.333224	0.012439
C105	C	-0.302920	0.666557	0.345772
C106	C	-0.906240	-0.000107	-0.268374
C107	C	-0.572907	0.333226	0.064959
C108	C	-0.239573	0.666560	0.398293
C109	C	-0.915322	-0.000127	-0.160436
C110	C	-0.581988	0.333207	0.172897
C111	C	-0.248655	0.666540	0.506231
C112	C	-0.960506	-0.000090	-0.428842
C113	C	-0.627173	0.333244	-0.095509
C114	C	-0.293839	0.666577	0.237824
C115	C	-0.944331	-0.000088	0.379179
C116	C	-0.610997	0.333245	0.712512
C117	C	-0.277664	0.666578	1.045845
C118	C	-0.953265	-0.000074	0.485124
C119	C	-0.619931	0.333259	0.818457
C120	C	-0.286598	0.666593	1.151791
H121	H	-1.001804	-0.481767	0.126323
H122	H	-0.668471	-0.148434	0.459657
H123	H	-0.335137	0.184899	0.792990
N124	N	-1.050453	-0.000153	-0.273083
N125	N	-0.717120	0.333180	0.060250
N126	N	-0.383787	0.666513	0.393584
H127	H	-1.082945	0.063017	-0.296398
H128	H	-0.749612	0.396350	0.036935
H129	H	-0.416279	0.729683	0.370269
H130	H	-1.045487	-0.000209	-0.201645
H131	H	-0.712154	0.333125	0.131688
H132	H	-0.378820	0.666458	0.465021
H133	H	-0.845187	-0.000092	-0.304474
H134	H	-0.511854	0.333241	0.028860
H135	H	-0.178520	0.666575	0.362193
N136	N	-0.457543	-0.000069	0.341619
N137	N	-0.124209	0.333264	0.674952
N138	N	0.209124	0.666597	1.008285
H139	H	-0.416966	-0.000058	0.392228
H140	H	-0.083632	0.333276	0.725561
H141	H	0.249701	0.666609	1.058895
H142	H	-0.488544	-0.063244	0.352490
H143	H	-0.155211	0.270089	0.685823
H144	H	0.178123	0.603423	1.019157
N145	N	-0.860445	-0.532661	0.301198
N146	N	-0.527111	-0.199327	0.634531
N147	N	-0.193778	0.134006	0.967865
H148	H	-0.864394	-0.608737	0.296318
H149	H	-0.531061	-0.275404	0.629651
H150	H	-0.197727	0.057929	0.962984
H151	H	-0.875137	-0.513963	0.368494
H152	H	-0.541803	-0.180630	0.701828
H153	H	-0.208470	0.152703	1.035161
N154	N	-0.342984	-0.000155	0.057084
N155	N	-0.009650	0.333178	0.390417
N156	N	0.323683	0.666512	0.723750
H157	H	-0.306601	-0.000166	-0.001375
H158	H	0.026732	0.333168	0.331958
H159	H	0.360065	0.666501	0.665292
H160	H	-0.380146	0.063022	0.053168
H161	H	-0.046813	0.396356	0.386501
H162	H	0.286520	0.729689	0.719834
H163	H	-0.544573	-0.000071	0.331993
H164	H	-0.211240	0.333263	0.665326
H165	H	0.122093	0.666596	0.998659
N166	N	-0.703562	-0.000036	0.371064
N167	N	-0.370229	0.333297	0.704397
N168	N	-0.036895	0.666631	1.037731
H169	H	-0.662978	-0.000031	0.421666
H170	H	-0.329645	0.333302	0.754999
H171	H	0.003688	0.666635	1.088333
H172	H	-0.734563	-0.063210	0.381935
H173	H	-0.401230	0.270123	0.715268
H174	H	-0.067897	0.603456	1.048602
H175	H	-0.319220	-0.000059	0.391084
H176	H	0.014113	0.333274	0.724418
H177	H	0.347447	0.666607	1.057751
N178	N	-0.158481	-0.000079	0.397519
N179	N	0.174852	0.333255	0.730852
N180	N	0.508186	0.666588	1.064186
H181	H	-0.100719	-0.000086	0.378512
H182	H	0.232614	0.333247	0.711845
H183	H	0.565947	0.666580	1.045179
H184	H	-0.168456	-0.063252	0.440213
H185	H	0.164877	0.270081	0.773546
H186	H	0.498211	0.603415	1.106879
H187	H	-0.182244	-0.000143	0.063510
H188	H	0.151090	0.333190	0.396843
H189	H	0.484423	0.666523	0.730177
H190	H	-0.556597	-0.000144	0.019639
H191	H	-0.223264	0.333190	0.352973
H192	H	0.110069	0.666523	0.686306
N193	N	-0.717348	-0.000126	0.013204
N194	N	-0.384015	0.333207	0.346538
N195	N	-0.050681	0.666541	0.679871
H196	H	-0.707442	0.063043	-0.029530
H197	H	-0.374109	0.396377	0.303803
H198	H	-0.040775	0.729710	0.637137
H199	H	-0.775090	-0.000163	0.032292
H200	H	-0.441757	0.333171	0.365625
H201	H	-0.108424	0.666504	0.698959
N202	N	-0.418266	-0.000119	0.069101
N203	N	-0.084932	0.333215	0.402435
N204	N	0.248401	0.666548	0.735768
H205	H	-0.436938	0.063057	0.029288
H206	H	-0.103605	0.396390	0.362622
H207	H	0.229728	0.729723	0.695955
H208	H	-0.431083	-0.063340	0.036636
H209	H	-0.097749	0.269993	0.369969
H210	H	0.235584	0.603326	0.703302
