data_functionalizedCrystal
_audit_creation_method	'MofGen! by Chris Wilmer'
_symmetry_space_group_name_H-M	'P1'
_symmetry_Int_Tables_number	1
_symmetry_cell_setting	triclinic
loop_
_symmetry_equiv_pos_as_xyz
  x,y,z
_cell_length_a	21.606444
_cell_length_b	27.440280
_cell_length_c	21.606444
_cell_angle_alpha	90.002788
_cell_angle_beta	59.997726
_cell_angle_gamma	60.000286
loop_
_atom_site_label
_atom_site_type_symbol
_atom_site_fract_x
_atom_site_fract_y
_atom_site_fract_z
Zr1	Zr	0.677376	0.469522	-0.081151
O2	O	0.806508	0.391707	-0.179990
O3	O	0.548254	0.493374	-0.050851
O4	O	0.677375	0.493378	-0.179973
O5	O	0.677385	0.391702	0.050985
O6	O	0.677363	0.573581	-0.179960
O7	O	0.677387	0.391703	-0.050868
O8	O	0.446389	0.573573	0.051015
O9	O	0.908358	0.391710	-0.179990
O10	O	0.601351	0.563404	-0.037919
O11	O	0.601358	0.503549	0.038083
O12	O	0.753382	0.503554	-0.113942
O13	O	0.753389	0.443699	-0.037939
Zr14	Zr	0.677353	0.597435	0.081313
Zr15	Zr	0.677357	0.597436	-0.081131
Zr16	Zr	0.677372	0.469521	0.081293
Zr17	Zr	0.839816	0.469527	-0.081152
Zr18	Zr	0.514914	0.597430	0.081314
O19	O	0.806475	0.573584	0.051014
O20	O	0.806481	0.573585	-0.179961
O21	O	0.806502	0.391706	0.050985
O22	O	0.548222	0.675250	0.180152
O23	O	0.548227	0.675251	-0.050822
O24	O	0.548249	0.493373	0.180123
O25	O	0.677345	0.675255	-0.050823
O26	O	0.677354	0.573579	0.180136
O27	O	0.677366	0.493376	0.180123
O28	O	0.677342	0.675254	0.051030
O29	O	0.908343	0.493385	-0.179974
O30	O	0.446386	0.573572	0.180137
O31	O	0.446371	0.675247	0.180153
O32	O	0.446374	0.675248	0.051032
O33	O	0.908355	0.391710	-0.050869
O34	O	0.908340	0.493384	-0.050853
O35	O	0.601348	0.563403	0.114104
O36	O	0.601341	0.623258	0.038102
O37	O	0.753371	0.563408	-0.037920
O38	O	0.753378	0.503553	0.038082
C39	C	0.474178	0.533473	0.000082
C40	C	0.405218	0.533471	0.000083
C41	C	0.677388	0.373477	0.000056
C42	C	0.677397	0.319175	0.000047
C43	C	-0.018095	0.564731	-0.039591
C44	C	0.046706	0.564727	-0.039594
C45	C	0.079107	0.533481	0.000079
C46	C	0.046710	0.502233	0.039751
C47	C	-0.018085	0.502234	0.039749
C48	C	0.308021	0.502227	0.039758
C49	C	0.372818	0.502229	0.039759
C50	C	0.372812	0.564719	-0.039585
C51	C	0.308017	0.564720	-0.039587
C52	C	0.275629	0.533470	0.000082
C53	C	0.205366	0.533474	0.000083
C54	C	0.149364	0.533480	0.000082
C55	C	0.597992	0.013718	0.039785
C56	C	0.597987	-0.037301	0.039792
O57	O	0.530496	-0.037120	0.073563
N58	N	0.677344	-0.094058	0.000108
C59	C	0.756712	-0.099797	-0.039578
O60	O	0.824211	-0.152758	-0.073331
C61	C	0.756716	-0.048779	-0.039580
C62	C	0.677353	0.007978	0.000100
C63	C	0.518636	0.070472	0.079462
C64	C	0.518641	0.121487	0.079454
C65	C	0.598002	0.115747	0.039769
C66	C	0.677358	0.058993	0.000092
C67	C	0.836082	-0.054518	-0.079262
C68	C	0.836079	-0.003494	-0.079260
C69	C	0.756717	0.053263	-0.039580
C70	C	0.756725	0.104268	-0.039602
N71	N	0.677367	0.161026	0.000082
C72	C	0.598006	0.166765	0.039767
C73	C	0.756697	-0.206935	-0.039570
C74	C	0.756695	-0.257953	-0.039574
C75	C	0.597970	-0.195453	0.039798
C76	C	0.597973	-0.144435	0.039796
C77	C	0.677340	-0.150178	0.000113
C78	C	0.598023	0.273898	0.039747
C79	C	0.598035	0.324914	0.039733
C80	C	0.756760	0.262410	-0.039635
C81	C	0.756748	0.211398	-0.039625
C82	C	0.677373	0.217146	0.000072
O83	O	0.824181	0.104133	-0.073354
O84	O	0.530518	0.219728	0.073522
C85	C	0.880552	0.533485	0.000080
C86	C	0.949511	0.533487	0.000080
C87	C	0.677369	0.533480	-0.203111
C88	C	0.677371	0.533480	-0.272073
C89	C	0.677341	0.693480	0.000107
C90	C	0.677333	0.747783	0.000115
C91	C	0.677366	0.577664	-0.304464
C92	C	0.677360	0.577666	-0.369257
C93	C	0.677365	0.533481	-0.401661
C94	C	0.677367	0.489294	-0.369264
C95	C	0.677367	0.489295	-0.304469
C96	C	0.677367	0.489289	-0.630574
C97	C	0.677369	0.489290	-0.695375
C98	C	0.677359	0.577660	-0.695363
C99	C	0.677359	0.577661	-0.630568
C100	C	0.677357	0.533476	-0.598174
C101	C	0.677362	0.533476	-0.527917
C102	C	0.677366	0.533478	-0.471920
C103	C	0.677360	0.533478	0.203274
C104	C	0.677358	0.533477	0.272236
C105	C	0.474154	0.693474	0.000108
C106	C	0.405186	0.747775	0.000117
C107	C	0.474173	0.533472	0.203275
C108	C	0.405211	0.533469	0.272237
C109	C	0.474149	0.693473	0.203300
C110	C	0.405179	0.747773	0.272271
C111	C	0.880580	0.373484	-0.203138
C112	C	0.949550	0.319184	-0.272109
C113	C	0.880575	0.373483	0.000055
C114	C	0.949543	0.319183	0.000046
C115	C	0.880556	0.533486	-0.203112
C116	C	0.949518	0.533488	-0.272075
C117	C	0.372804	0.742032	-0.039568
C118	C	0.308010	0.793048	-0.039575
C119	C	0.275595	0.849807	0.000108
C120	C	0.307984	0.855549	0.039794
C121	C	0.372781	0.804533	0.039796
C122	C	0.372821	0.564711	0.344312
C123	C	0.308033	0.564707	0.409115
C124	C	0.275633	0.533463	0.401842
C125	C	0.308030	0.502217	0.329760
C126	C	0.372821	0.502219	0.264958
C127	C	0.372787	0.804522	0.264988
C128	C	0.307992	0.855548	0.329787
C129	C	0.275586	0.849824	0.401869
C130	C	0.307985	0.793069	0.409150
C131	C	0.372783	0.742044	0.344352
C132	C	0.981950	0.262435	-0.264826
C133	C	1.046765	0.211409	-0.329625
C134	C	1.079175	0.217133	-0.401706
C135	C	1.046772	0.273888	-0.408988
C136	C	0.981962	0.324913	-0.344189
C137	C	0.981933	0.324926	0.039724
C138	C	1.046744	0.273909	0.039713
C139	C	1.079161	0.217150	0.000027
C140	C	1.046769	0.211408	-0.039656
C141	C	0.981963	0.262424	-0.039649
C142	C	0.981898	0.564737	-0.264778
C143	C	1.046686	0.564751	-0.329569
C144	C	1.079097	0.533512	-0.401656
C145	C	1.046711	0.502261	-0.408951
C146	C	0.981920	0.502251	-0.344161
H147	H	-0.044475	0.590178	-0.071893
Br148	Br	0.864459	0.254633	-0.093479
Br149	Br	0.677349	0.637633	-0.413217
H150	H	0.281619	0.901756	0.323845
H151	H	0.677367	0.453311	-0.604205
H152	H	0.677372	0.453308	-0.721756
H153	H	0.533388	0.278586	0.072072
Br154	Br	0.677365	0.429330	-0.413233
H155	H	0.281663	0.590153	0.467801
Br156	Br	1.090726	0.134392	-0.319725
H157	H	0.399162	0.809195	0.206302
H158	H	0.955566	0.257763	-0.206139
H159	H	0.281590	0.788417	0.467848
Br160	Br	0.937991	0.459831	-0.354078
Br161	Br	0.416733	0.665029	0.354250
H162	H	1.131947	0.175581	-0.454463
Br163	Br	1.090715	0.459862	-0.506790
H164	H	0.281583	0.901769	0.072103
H165	H	1.073173	0.165188	-0.071966
Br166	Br	0.090674	0.607126	-0.093443
Br167	Br	0.264049	0.459819	0.319903
H168	H	0.454016	0.167697	0.111762
Br169	Br	1.090763	0.281647	-0.506819
Br170	Br	1.167113	0.147919	0.000025
H171	H	0.821319	-0.304163	-0.071895
H172	H	0.955593	0.257740	-0.071957
H173	H	0.955582	0.371119	-0.350128
H174	H	0.399195	0.695820	-0.071892
H175	H	0.281635	0.590166	-0.071889
Br176	Br	0.937955	0.401949	0.093587
Br177	Br	0.416768	0.459817	0.167145
H178	H	0.677370	0.453317	-0.278096
Br179	Br	0.187644	0.919079	0.489803
H180	H	1.131855	0.533525	-0.454406
H181	H	1.073107	0.278596	0.072030
Br182	Br	1.090628	0.607163	-0.319650
Br183	Br	0.937925	0.607139	-0.166953
Br184	Br	0.943796	-0.131535	-0.133110
Br185	Br	0.416772	0.607130	-0.093425
Br186	Br	0.416789	0.459823	0.093605
Br187	Br	0.943798	-0.011293	-0.133115
H188	H	0.399194	0.590154	0.350248
Br189	Br	0.264066	0.785242	-0.093437
H190	H	0.222833	0.891343	0.000101
H191	H	0.399139	0.809217	0.072117
H192	H	0.281656	0.476783	0.072061
H193	H	0.073099	0.476789	0.072049
H194	H	0.821371	0.165183	-0.071945
H195	H	-0.044458	0.476790	0.072051
H196	H	0.454007	0.075156	0.111783
Br197	Br	0.490322	0.401941	0.093584
Br198	Br	0.677359	0.637625	-0.586597
Br199	Br	0.490264	-0.067412	0.093649
H200	H	0.222876	0.533467	0.454614
H201	H	0.533349	-0.190787	0.072109
H202	H	0.821331	-0.211620	-0.071889
Br203	Br	0.677361	0.637627	-0.739327
Br204	Br	0.677369	0.637630	-0.260499
