data_functionalizedCrystal
_audit_creation_method	'MofGen! by Chris Wilmer'
_symmetry_space_group_name_H-M	'P1'
_symmetry_Int_Tables_number	1
_symmetry_cell_setting	triclinic
loop_
_symmetry_equiv_pos_as_xyz
  x,y,z
_cell_length_a	12.594517
_cell_length_b	12.759400
_cell_length_c	12.759393
_cell_angle_alpha	89.968436
_cell_angle_beta	89.978001
_cell_angle_gamma	90.014484
loop_
_atom_site_label
_atom_site_type_symbol
_atom_site_fract_x
_atom_site_fract_y
_atom_site_fract_z
Zn1	Zn	1.627284	-0.418210	-0.594080
Zn2	Zn	1.627177	-0.593929	-0.418400
Zn3	Zn	1.449286	-0.418264	-0.418408
Zn4	Zn	1.449274	-0.593847	-0.594030
O5	O	1.538255	-0.506062	-0.506229
O6	O	1.776216	-0.441531	-0.570792
O7	O	1.603540	-0.570683	-0.271380
O8	O	1.472947	-0.271236	-0.441736
O9	O	1.776137	-0.570631	-0.441721
O10	O	1.603722	-0.271196	-0.570800
O11	O	1.472844	-0.441623	-0.271386
O12	O	1.300339	-0.441544	-0.441688
O13	O	1.472928	-0.570491	-0.741058
O14	O	1.300330	-0.570544	-0.570717
O15	O	1.603711	-0.441452	-0.741094
O16	O	1.603528	-0.740939	-0.441673
O17	O	1.472824	-0.740879	-0.570708
C18	C	1.538192	-0.779030	-0.506208
C19	C	1.538263	-0.895806	-0.506233
C20	C	1.261714	-0.506041	-0.506199
C21	C	1.143409	-0.506058	-0.506210
C22	C	1.606396	-0.950665	-0.439119
C23	C	1.606461	-1.060389	-0.439151
C24	C	1.470251	-1.060386	-0.573415
C25	C	1.470192	-0.950664	-0.573387
C26	C	1.685033	-0.950667	-0.361599
C27	C	1.685098	-1.060391	-0.361632
C28	C	1.074130	-0.435799	-0.436165
C29	C	1.003321	-0.531634	-0.410323
C30	C	1.003419	-0.410269	-0.532070
C31	C	1.074158	-0.601943	-0.480318
C32	C	1.074263	-0.480514	-0.602110
C33	C	1.003486	-0.576415	-0.576304
C34	C	1.815876	-0.506084	-0.506261
C35	C	1.934182	-0.506094	-0.506275
C36	C	1.538330	-0.505956	-0.780263
C37	C	1.538362	-0.505911	-0.897040
C38	C	1.538348	-0.232029	-0.506274
C39	C	1.538387	-0.115252	-0.506294
C40	C	1.606470	-0.438714	-0.951922
C41	C	1.606495	-0.438676	-1.061646
C42	C	1.470301	-0.573042	-1.061596
C43	C	1.470271	-0.573073	-0.951874
C44	C	1.685104	-0.361142	-0.951952
C45	C	1.685129	-0.361104	-1.061676
C46	C	1.538242	-0.506092	-0.233262
C47	C	1.538417	-0.505841	-0.116486
H48	H	1.414722	-0.905999	-0.628047
C49	C	1.790871	-0.400518	-0.905972
N50	N	1.870538	-0.430170	-0.871340
C51	C	1.395404	-0.646915	-1.121923
N52	N	1.338990	-0.702557	-1.167361
H53	H	1.414808	-0.627788	-0.907192
H54	H	0.972161	-0.553262	-0.329250
H55	H	1.655634	-0.283795	-1.095723
C56	C	1.796359	-0.910326	-0.391129
N57	N	1.880209	-0.879942	-0.413371
H58	H	1.655526	-0.916720	-0.284272
C59	C	1.790899	-1.106255	-0.401097
N60	N	1.870586	-1.140801	-0.430820
H61	H	0.972290	-0.329258	-0.553880
C62	C	1.655302	-0.251227	-0.911747
N63	N	1.632852	-0.168441	-0.881464
H64	H	1.663076	-1.090253	-0.280250
C65	C	1.395370	-1.120740	-0.647274
N66	N	1.338965	-1.166198	-0.702903
C67	C	1.116044	-0.355613	-0.356045
N68	N	1.147615	-0.295222	-0.295696
C69	C	1.115957	-0.711431	-0.450670
N70	N	1.147443	-0.793894	-0.428335
H71	H	0.972662	-0.635915	-0.635566
C72	C	1.116404	-0.451251	-0.711600
N73	N	1.148149	-0.429198	-0.794066
H74	H	1.767565	-0.382897	-1.091460
