data_functionalizedCrystal
_audit_creation_method	'MofGen! by Chris Wilmer'
_symmetry_space_group_name_H-M	'P1'
_symmetry_Int_Tables_number	1
_symmetry_cell_setting	triclinic
loop_
_symmetry_equiv_pos_as_xyz
  x,y,z
_cell_length_a	15.995292
_cell_length_b	11.792241
_cell_length_c	10.868271
_cell_angle_alpha	90.005281
_cell_angle_beta	89.994509
_cell_angle_gamma	96.168984
loop_
_atom_site_label
_atom_site_type_symbol
_atom_site_fract_x
_atom_site_fract_y
_atom_site_fract_z
O1	O	1.111678	-0.145982	-0.102356
O2	O	0.867979	-0.164116	-0.102351
O3	O	0.995742	0.010173	-0.102345
O4	O	0.983915	-0.320271	-0.102362
O5	O	0.995732	0.010179	0.102300
O6	O	0.867968	-0.164110	0.102293
O7	O	1.111668	-0.145975	0.102289
Zn8	Zn	0.989816	-0.155041	0.134783
Zn9	Zn	0.989830	-0.155050	-0.134845
O10	O	0.983904	-0.320264	0.102282
C11	C	0.836774	-0.163375	-0.000028
C12	C	0.743811	-0.161162	-0.000026
C13	C	0.406036	-0.153027	-0.000040
C14	C	0.429920	-0.278824	-0.000503
C15	C	0.526606	-0.281215	-0.000037
C16	C	0.573610	-0.157064	-0.000034
C17	C	0.544217	-0.094168	0.116828
C18	C	0.447420	-0.092653	0.116920
C19	C	0.447564	-0.090092	-0.115799
C20	C	0.544078	-0.094754	-0.117338
C21	C	0.668317	-0.159338	-0.000026
C22	C	0.311330	-0.150749	-0.000039
C23	C	0.994994	0.052460	-0.000023
C24	C	0.992770	0.178455	-0.000024
C25	C	1.142872	-0.146716	-0.000037
C26	C	1.235835	-0.148929	-0.000047
C27	C	0.984652	-0.362552	-0.000042
C28	C	0.986876	-0.488546	-0.000049
N29	N	0.989813	-0.155034	0.318797
C30	C	0.988681	0.409132	-0.000045
C31	C	0.990953	0.280766	-0.000034
N32	N	0.989840	-0.155048	-0.318859
C33	C	0.989826	-0.155048	0.569803
C34	C	0.989816	-0.155044	0.430125
H35	H	0.545230	-0.330765	0.083872
N36	N	0.584904	0.018937	-0.126173
N37	N	0.542246	0.101749	-0.126475
H38	H	0.571079	0.182049	-0.132703
N39	N	0.393793	-0.339335	0.104024
N40	N	0.343289	-0.426767	0.089227
H41	H	0.317773	-0.469502	0.163051
N42	N	0.414027	-0.147290	0.226509
N43	N	0.462236	-0.186274	0.302389
H44	H	0.438657	-0.224864	0.379790
H45	H	0.402148	-0.327315	-0.084310
H46	H	0.433151	0.002503	-0.116587
N47	N	0.428648	0.023056	0.123586
N48	N	0.487015	0.102434	0.128164
H49	H	0.473761	0.184152	0.132880
N50	N	0.583675	0.020441	0.122271
N51	N	0.634021	0.057130	0.039886
H52	H	0.661890	0.138073	0.043726
H53	H	0.564470	-0.137840	0.203793
H54	H	0.545860	-0.330466	-0.083811
H55	H	0.419420	-0.129415	-0.204373
N56	N	0.567630	-0.152221	-0.225786
N57	N	0.606025	-0.238746	-0.216813
H58	H	0.622661	-0.279339	-0.293402
