data_functionalizedCrystal
_audit_creation_method	'MofGen! by Chris Wilmer'
_symmetry_space_group_name_H-M	'P1'
_symmetry_Int_Tables_number	1
_symmetry_cell_setting	triclinic
loop_
_symmetry_equiv_pos_as_xyz
  x,y,z
_cell_length_a	25.639242
_cell_length_b	25.639239
_cell_length_c	25.639234
_cell_angle_alpha	90.024905
_cell_angle_beta	90.029352
_cell_angle_gamma	90.034213
loop_
_atom_site_label
_atom_site_type_symbol
_atom_site_fract_x
_atom_site_fract_y
_atom_site_fract_z
Zn1	Zn	0.799262	-0.208245	0.295742
Zn2	Zn	0.799175	-0.295673	0.208307
Zn3	Zn	0.711827	-0.208247	0.208306
Zn4	Zn	0.711784	-0.295644	0.295696
O5	O	0.755512	-0.251952	0.252013
O6	O	0.872416	-0.219854	0.284163
O7	O	0.787570	-0.284089	0.135141
O8	O	0.723481	-0.135081	0.219924
O9	O	0.872351	-0.284087	0.219924
O10	O	0.787719	-0.135080	0.284163
O11	O	0.723396	-0.219857	0.135141
O12	O	0.638656	-0.219829	0.219880
O13	O	0.723406	-0.284038	0.368868
O14	O	0.638624	-0.284040	0.284085
O15	O	0.787676	-0.219826	0.368901
O16	O	0.787527	-0.368835	0.219880
O17	O	0.723321	-0.368813	0.284085
C18	C	0.619669	-0.251932	0.251977
C19	C	0.561555	-0.251935	0.251975
C20	C	0.201184	-0.285443	0.285413
C21	C	0.146580	-0.285446	0.285421
O22	O	0.118337	-0.313909	0.313821
N23	N	0.119273	-0.251967	0.252047
C24	C	0.146573	-0.218478	0.218666
O25	O	0.118332	-0.190002	0.190280
C26	C	0.201176	-0.218473	0.218661
C27	C	0.228481	-0.251958	0.252034
C28	C	0.228489	-0.318925	0.318783
C29	C	0.283089	-0.318922	0.318774
C30	C	0.310385	-0.285437	0.285395
C31	C	0.283081	-0.251955	0.252024
C32	C	0.228475	-0.184982	0.185283
C33	C	0.283082	-0.184980	0.185281
C34	C	0.310387	-0.218465	0.218654
C35	C	0.364978	-0.218468	0.218636
N36	N	0.392285	-0.251947	0.252010
C37	C	0.364989	-0.285432	0.285389
C38	C	0.031902	-0.218492	0.218680
C39	C	-0.022700	-0.218499	0.218683
C40	C	-0.022689	-0.285466	0.285438
C41	C	0.031914	-0.285461	0.285433
C42	C	0.059209	-0.251971	0.252054
C43	C	0.479654	-0.285424	0.285368
C44	C	0.534259	-0.285420	0.285354
C45	C	0.534243	-0.218451	0.218601
C46	C	0.479643	-0.218457	0.218612
C47	C	0.452349	-0.251945	0.252000
O48	O	0.393256	-0.190018	0.190252
O49	O	0.393236	-0.313899	0.313776
C50	C	0.755424	-0.387795	0.251989
C51	C	0.755434	-0.445909	0.251996
C52	C	0.789031	-0.806270	0.218638
C53	C	0.789051	-0.860875	0.218645
O54	O	0.817526	-0.889110	0.190257
N55	N	0.755604	-0.888191	0.252048
C56	C	0.722138	-0.860901	0.285449
O57	O	0.693690	-0.889150	0.313861
C58	C	0.722120	-0.806298	0.285444
C59	C	0.755566	-0.778984	0.252036
C60	C	0.822475	-0.778957	0.185233
C61	C	0.822454	-0.724356	0.185226
C62	C	0.788989	-0.697069	0.218623
C63	C	0.755545	-0.724383	0.252028
C64	C	0.688657	-0.779008	0.318847
C65	C	0.688643	-0.724401	0.318840
C66	C	0.722089	-0.697087	0.285432
C67	C	0.722059	-0.642496	0.285418
N68	N	0.755507	-0.615179	0.252016
C69	C	0.788972	-0.642466	0.218619
C70	C	0.722177	-0.975571	0.285457
C71	C	0.722191	-1.030174	0.285459
C72	C	0.789106	-1.030144	0.218656
C73	C	0.789089	-0.975541	0.218652
C74	C	0.755625	-0.948255	0.252055
C75	C	0.788925	-0.527801	0.218605
C76	C	0.788899	-0.473196	0.218599
C77	C	0.721987	-0.473230	0.285403
C78	C	0.722010	-0.527831	0.285408
C79	C	0.755483	-0.555115	0.252007
O80	O	0.693601	-0.614226	0.313794
O81	O	0.817419	-0.614210	0.190216
C82	C	0.891885	-0.251973	0.252049
C83	C	0.949999	-0.251982	0.252064
C84	C	0.755546	-0.251928	0.388386
C85	C	0.755560	-0.251918	0.446500
C86	C	0.755614	-0.115579	0.252048
C87	C	0.755658	-0.057465	0.252064
C88	C	0.755508	-0.251938	0.116170
C89	C	0.755595	-0.251801	0.058057
C90	C	0.722160	-0.218411	0.806869
C91	C	0.722163	-0.218401	0.861473
O92	O	0.693738	-0.189969	0.889714
N93	N	0.755578	-0.251836	0.888783
C94	C	0.788988	-0.285287	0.861485
O95	O	0.817411	-0.313726	0.889728
C96	C	0.788983	-0.285299	0.806882
C97	C	0.755569	-0.251857	0.779575
C98	C	0.688749	-0.184972	0.779562
C99	C	0.688747	-0.184981	0.724961
C100	C	0.722156	-0.218428	0.697668
C101	C	0.755567	-0.251866	0.724974
C102	C	0.822390	-0.318752	0.779585
C103	C	0.822381	-0.318761	0.724978
C104	C	0.788968	-0.285319	0.697672
C105	C	0.788974	-0.285322	0.643080
N106	N	0.755559	-0.251887	0.615771
C107	C	0.722150	-0.218440	0.643064
C108	C	0.788998	-0.285260	0.976156
C109	C	0.789006	-0.285246	1.030758
C110	C	0.722180	-0.218361	1.030742
C111	C	0.722174	-0.218373	0.976139
C112	C	0.755583	-0.251825	0.948846
C113	C	0.722149	-0.218461	0.528399
C114	C	0.722151	-0.218471	0.473794
C115	C	0.788976	-0.285358	0.473814
C116	C	0.788975	-0.285346	0.528415
C117	C	0.755558	-0.251896	0.555706
O118	O	0.817383	-0.313741	0.614804
O119	O	0.693728	-0.190011	0.614814
H120	H	0.054142	-0.312727	0.312609
N121	N	0.652709	-0.148894	0.808992
H122	H	0.660861	-0.111543	0.799495
H123	H	0.657793	-0.153998	0.847719
N124	N	-0.052137	-0.321583	0.321441
H125	H	-0.074765	-0.300368	0.345710
H126	H	-0.026524	-0.342787	0.342548
H127	H	0.816324	-0.953305	0.191448
H128	H	0.816209	-0.312498	0.953938
H129	H	0.849729	-0.801168	0.158037
H130	H	0.816357	-1.052371	0.191464
N131	N	0.450219	-0.321548	0.321371
H132	H	0.427591	-0.300341	0.345647
H133	H	0.475840	-0.342750	0.342471
H134	H	0.816189	-0.312571	0.550650
H135	H	0.849590	-0.345999	0.702760
N136	N	0.825010	-0.321430	0.444371
H137	H	0.819876	-0.316419	0.405638
H138	H	0.816898	-0.358764	0.453963
H139	H	0.816221	-0.312472	1.052987
N140	N	0.652542	-0.694974	0.354863
H141	H	0.657601	-0.656237	0.349792
H142	H	0.660662	-0.704489	0.392214
H143	H	0.556488	-0.312690	0.312530
N144	N	0.686115	-1.059629	0.321492
H145	H	0.691202	-1.098361	0.316433
H146	H	0.648776	-1.050123	0.313312
N147	N	0.686077	-0.946143	0.321482
H148	H	0.664892	-0.971738	0.342639
H149	H	0.661885	-0.923523	0.300171
N150	N	0.450184	-0.182361	0.182605
H151	H	0.427551	-0.158160	0.203891
H152	H	0.427536	-0.203629	0.158356
H153	H	0.054123	-0.191221	0.191496
N154	N	0.652580	-0.808459	0.354878
H155	H	0.631382	-0.782880	0.376032
H156	H	0.673854	-0.831081	0.379102
N157	N	0.686110	-0.182406	0.444337
H158	H	0.707375	-0.158183	0.421700
H159	H	0.664950	-0.161252	0.469946
N160	N	0.652704	-0.148921	0.695507
H161	H	0.673966	-0.124698	0.672866
H162	H	0.631546	-0.127768	0.721117
H163	H	0.849599	-0.345983	0.801809
H164	H	0.694937	-0.191222	0.550613
N165	N	0.686132	-0.182311	0.946685
H166	H	0.707394	-0.158089	0.924044
H167	H	0.664977	-0.161156	0.972297
H168	H	0.694777	-0.550071	0.312613
H169	H	-0.044927	-0.191238	0.191502
H170	H	0.694976	-0.191127	1.052975
N171	N	0.312530	-0.355038	0.354773
H172	H	0.303050	-0.346965	0.392144
H173	H	0.351255	-0.349945	0.349667
N174	N	0.199053	-0.355046	0.354785
H175	H	0.224644	-0.376254	0.375919
H176	H	0.176377	-0.379216	0.333457
H177	H	0.305303	-0.157704	0.158103
N178	N	0.199034	-0.148866	0.149288
H179	H	0.224620	-0.127654	0.128147
H180	H	0.176407	-0.124700	0.170617
N181	N	0.858537	-0.694901	0.149201
H182	H	0.837304	-0.672277	0.124940
H183	H	0.879731	-0.720513	0.128086
H184	H	0.556478	-0.191191	0.191422
N185	N	0.685890	-0.443795	0.321420
H186	H	0.690956	-0.405060	0.316344
H187	H	0.694011	-0.453308	0.358772
H188	H	0.816183	-0.550009	0.191408
N189	N	0.824976	-0.443736	0.182566
H190	H	0.846180	-0.469311	0.161413
H191	H	0.849151	-0.421046	0.203873
