data_functionalizedCrystal
_audit_creation_method	'MofGen! by Chris Wilmer'
_symmetry_space_group_name_H-M	'P1'
_symmetry_Int_Tables_number	1
_symmetry_cell_setting	triclinic
loop_
_symmetry_equiv_pos_as_xyz
  x,y,z
_cell_length_a	18.215407
_cell_length_b	18.215405
_cell_length_c	18.215399
_cell_angle_alpha	90.030551
_cell_angle_beta	90.017777
_cell_angle_gamma	90.020505
loop_
_atom_site_label
_atom_site_type_symbol
_atom_site_fract_x
_atom_site_fract_y
_atom_site_fract_z
Zn1	Zn	-1.125072	0.293078	-0.416062
Zn2	Zn	-0.791739	0.626411	-0.082729
Zn3	Zn	-0.458405	0.959745	0.250605
Zn4	Zn	-1.124980	0.416149	-0.292990
Zn5	Zn	-0.791647	0.749482	0.040343
Zn6	Zn	-0.458314	1.082816	0.373676
Zn7	Zn	-1.002004	0.293092	-0.293014
Zn8	Zn	-0.668671	0.626425	0.040319
Zn9	Zn	-0.335338	0.959758	0.373653
Zn10	Zn	-1.001970	0.416098	-0.416020
Zn11	Zn	-0.668637	0.749431	-0.082686
Zn12	Zn	-0.335304	1.082764	0.250647
O13	O	-1.063507	0.354604	-0.354521
O14	O	-0.730173	0.687937	-0.021188
O15	O	-0.396840	1.021271	0.312145
O16	O	-1.228044	0.309419	-0.399744
O17	O	-0.894711	0.642753	-0.066411
O18	O	-0.561377	0.976086	0.266922
O19	O	-1.108643	0.399852	-0.190009
O20	O	-0.775310	0.733186	0.143324
O21	O	-0.441977	1.066519	0.476658
O22	O	-1.018382	0.190105	-0.309364
O23	O	-0.685049	0.523439	0.023969
O24	O	-0.351716	0.856772	0.357302
O25	O	-1.227977	0.399839	-0.309324
O26	O	-0.894643	0.733173	0.024009
O27	O	-0.561310	1.066506	0.357343
O28	O	-1.108799	0.190095	-0.399767
O29	O	-0.775466	0.523429	-0.066434
O30	O	-0.442133	0.856762	0.266899
O31	O	-1.018293	0.309443	-0.190026
O32	O	-0.684960	0.642776	0.143307
O33	O	-0.351627	0.976109	0.476640
O34	O	-0.899016	0.309393	-0.309323
O35	O	-0.565682	0.642726	0.024010
O36	O	-0.232349	0.976060	0.357344
O37	O	-1.018324	0.399752	-0.519010
O38	O	-0.684991	0.733085	-0.185676
O39	O	-0.351657	1.066418	0.147657
O40	O	-0.898991	0.399765	-0.399695
O41	O	-0.565657	0.733098	-0.066361
O42	O	-0.232324	1.066432	0.266972
O43	O	-1.108766	0.309369	-0.519041
O44	O	-0.775433	0.642703	-0.185707
O45	O	-0.442100	0.976036	0.147626
O46	O	-1.108610	0.519127	-0.309283
O47	O	-0.775277	0.852460	0.024051
O48	O	-0.441943	1.185793	0.357384
O49	O	-1.018235	0.519089	-0.399672
O50	O	-0.684902	0.852422	-0.066338
O51	O	-0.351569	1.185756	0.266995
C52	C	-0.872300	0.354575	-0.354507
C53	C	-0.538967	0.687909	-0.021174
C54	C	-0.205634	1.021242	0.312159
C55	C	-0.790502	0.354581	-0.354519
C56	C	-0.457168	0.687914	-0.021185
C57	C	-0.123835	1.021247	0.312148
C58	C	-0.602342	0.307590	-0.401673
C59	C	-0.269008	0.640923	-0.068340
C60	C	0.064325	0.974257	0.264993
C61	C	-0.525483	0.307594	-0.401675
C62	C	-0.192150	0.640927	-0.068342
C63	C	0.141184	0.974261	0.264991
C64	C	-0.525424	0.401607	-0.307375
C65	C	-0.192090	0.734940	0.025958
C66	C	0.141243	1.068274	0.359291
C67	C	-0.602281	0.401599	-0.307370
C68	C	-0.268948	0.734932	0.025963
C69	C	0.064386	1.068265	0.359296
C70	C	-0.640738	0.354591	-0.354523
C71	C	-0.307405	0.687925	-0.021190
C72	C	0.025929	1.021258	0.312143
C73	C	-0.487022	0.354603	-0.354530
C74	C	-0.153689	0.687937	-0.021197
C75	C	0.179645	1.021270	0.312136
C76	C	-0.403688	0.354608	-0.354532
C77	C	-0.070355	0.687941	-0.021199
C78	C	0.262978	1.021275	0.312134
C79	C	-0.724077	0.354586	-0.354521
C80	C	-0.390744	0.687919	-0.021188
C81	C	-0.057410	1.021252	0.312146
C82	C	-1.063429	0.545810	-0.354486
C83	C	-0.730096	0.879144	-0.021153
C84	C	-0.396762	1.212477	0.312181
C85	C	-1.063463	0.627609	-0.354496
C86	C	-0.730130	0.960943	-0.021162
C87	C	-0.396796	1.294276	0.312171
C88	C	-1.063552	0.354553	-0.546474
C89	C	-0.730218	0.687887	-0.213141
C90	C	-0.396885	1.021220	0.120192
C91	C	-1.063571	0.354532	-0.628273
C92	C	-0.730237	0.687865	-0.294940
C93	C	-0.396904	1.021198	0.038393
C94	C	-0.255460	0.354625	-0.354534
C95	C	0.077874	0.687959	-0.021201
C96	C	0.411207	1.021292	0.312132
C97	C	-0.337259	0.354614	-0.354535
C98	C	-0.003925	0.687947	-0.021202
C99	C	0.329408	1.021281	0.312131
C100	C	-1.063605	0.162651	-0.354573
C101	C	-0.730271	0.495984	-0.021240
C102	C	-0.396938	0.829318	0.312094
C103	C	-1.063647	0.080852	-0.354595
C104	C	-0.730313	0.414186	-0.021262
C105	C	-0.396980	0.747519	0.312072
C106	C	-1.110632	0.815798	-0.307517
C107	C	-0.777298	1.149132	0.025817
C108	C	-0.443965	1.482465	0.359150
C109	C	-1.110665	0.892657	-0.307534
C110	C	-0.777331	1.225990	0.025799
C111	C	-0.443998	1.559324	0.359132
C112	C	-1.016476	0.892658	-0.401579
C113	C	-0.683143	1.225991	-0.068246
C114	C	-0.349809	1.559324	0.265087
C115	C	-1.016447	0.815800	-0.401565
C116	C	-0.683114	1.149134	-0.068231
C117	C	-0.349781	1.482467	0.265102
C118	C	-1.063524	0.777373	-0.354529
C119	C	-0.730191	1.110706	-0.021196
C120	C	-0.396857	1.444039	0.312138
C121	C	-1.063586	0.931089	-0.354562
C122	C	-0.730252	1.264422	-0.021228
C123	C	-0.396919	1.597755	0.312105
C124	C	-1.063621	1.014422	-0.354581
C125	C	-0.730288	1.347756	-0.021248
C126	C	-0.396954	1.681089	0.312085
C127	C	-1.063490	0.694034	-0.354510
C128	C	-0.730157	1.027367	-0.021177
C129	C	-0.396823	1.360700	0.312156
C130	C	-1.110681	0.307426	-0.816485
C131	C	-0.777348	0.640759	-0.483152
C132	C	-0.444014	0.974092	-0.149818
C133	C	-1.110690	0.307404	-0.893344
C134	C	-0.777356	0.640738	-0.560010
C135	C	-0.444023	0.974071	-0.226677
C136	C	-1.016513	0.401524	-0.893300
C137	C	-0.683179	0.734857	-0.559967
C138	C	-0.349846	1.068191	-0.226633
C139	C	-1.016501	0.401541	-0.816443
C140	C	-0.683167	0.734874	-0.483109
C141	C	-0.349834	1.068208	-0.149776
C142	C	-1.063589	0.354493	-0.778037
C143	C	-0.730256	0.687826	-0.444704
C144	C	-0.396922	1.021160	-0.111370
C145	C	-1.063610	0.354454	-0.931753
C146	C	-0.730276	0.687788	-0.598420
C147	C	-0.396943	1.021121	-0.265087
C148	C	-1.063619	0.354432	-1.015087
C149	C	-0.730286	0.687765	-0.681754
C150	C	-0.396952	1.021098	-0.348420
C151	C	-1.063579	0.354515	-0.694698
C152	C	-0.730246	0.687848	-0.361365
C153	C	-0.396912	1.021181	-0.028031
C154	C	-1.063504	0.354602	-0.163315
C155	C	-0.730171	0.687935	0.170018
C156	C	-0.396838	1.021268	0.503351
C157	C	-1.063628	0.354416	-0.081517
C158	C	-0.730295	0.687749	0.251817
C159	C	-0.396961	1.021082	0.585150
H160	H	-0.633651	0.269311	-0.440066
H161	H	-0.300318	0.602645	-0.106733
H162	H	0.033016	0.935978	0.226600
H163	H	-0.494224	0.269320	-0.440069
H164	H	-0.160891	0.602653	-0.106735
H165	H	0.172443	0.935986	0.226598
H166	H	-1.149026	0.923940	-0.269253
H167	H	-0.815692	1.257273	0.064080
H168	H	-0.482359	1.590606	0.397414
N169	N	-0.968336	0.776535	-0.449593
N170	N	-0.635003	1.109868	-0.116260
N171	N	-0.301670	1.443201	0.217073
N172	N	-0.994193	0.733597	-0.496502
N173	N	-0.660859	1.066930	-0.163169
N174	N	-0.327526	1.400264	0.170164
H175	H	-0.960220	0.705865	-0.530424
H176	H	-0.626886	1.039198	-0.197091
H177	H	-0.293553	1.372531	0.136242
H178	H	-1.149035	0.269076	-0.924645
H179	H	-0.815702	0.602409	-0.591311
H180	H	-0.482369	0.935743	-0.257978
N181	N	-1.158721	0.776556	-0.259468
N182	N	-0.825388	1.109890	0.073866
N183	N	-0.492055	1.443223	0.407199
N184	N	-1.200778	0.810878	-0.217496
N185	N	-0.867445	1.144211	0.115837
N186	N	-0.534112	1.477545	0.449171
H187	H	-1.234744	0.783166	-0.183560
H188	H	-0.901411	1.116499	0.149773
H189	H	-0.568078	1.449832	0.483107
N190	N	-0.486128	0.449616	-0.259216
N191	N	-0.152795	0.782950	0.074117
N192	N	0.180538	1.116283	0.407450
N193	N	-0.417506	0.449619	-0.259227
N194	N	-0.084173	0.782952	0.074106
N195	N	0.249160	1.116285	0.407440
H196	H	-0.389754	0.483527	-0.225215
H197	H	-0.056420	0.816861	0.108119
H198	H	0.276913	1.150194	0.441452
H199	H	-0.978146	0.923955	-0.439873
H200	H	-0.644813	1.257288	-0.106540
H201	H	-0.311480	1.590622	0.226794
N202	N	-1.158782	0.259364	-0.777265
N203	N	-0.825449	0.592697	-0.443932
N204	N	-0.492116	0.926031	-0.110599
N205	N	-1.200824	0.217342	-0.811607
N206	N	-0.867491	0.550676	-0.478274
N207	N	-0.534157	0.884009	-0.144940
H208	H	-1.234796	0.183395	-0.783911
H209	H	-0.901463	0.516729	-0.450577
H210	H	-0.568130	0.850062	-0.117244
H211	H	-0.633544	0.439874	-0.268971
H212	H	-0.300211	0.773207	0.064362
H213	H	0.033122	1.106540	0.397696
H214	H	-0.978147	0.439868	-0.785137
H215	H	-0.644814	0.773202	-0.451804
H216	H	-0.311481	1.106535	-0.118471
H217	H	-0.978177	0.439830	-0.924579
H218	H	-0.644843	0.773164	-0.591246
H219	H	-0.311510	1.106497	-0.257912
