data_functionalizedCrystal
_audit_creation_method	'MofGen! by Chris Wilmer'
_symmetry_space_group_name_H-M	'P1'
_symmetry_Int_Tables_number	1
_symmetry_cell_setting	triclinic
loop_
_symmetry_equiv_pos_as_xyz
  x,y,z
_cell_length_a	15.995292
_cell_length_b	9.730223
_cell_length_c	10.654550
_cell_angle_alpha	90.002824
_cell_angle_beta	83.976773
_cell_angle_gamma	90.004649
loop_
_atom_site_label
_atom_site_type_symbol
_atom_site_fract_x
_atom_site_fract_y
_atom_site_fract_z
O1	O	1.111953	0.114327	0.161522
O2	O	0.868287	0.114321	0.181587
O3	O	0.995722	0.114316	-0.011259
O4	O	0.984518	0.114333	0.354369
O5	O	0.995713	-0.114264	-0.011259
O6	O	0.868278	-0.114259	0.181588
O7	O	1.111944	-0.114253	0.161522
Zn8	Zn	0.990110	-0.150548	0.171555
Zn9	Zn	0.990122	0.150616	0.171555
O10	O	0.984509	-0.114247	0.354369
C11	C	0.837083	0.000031	0.180771
C12	C	0.744115	0.000028	0.178322
N13	N	0.990108	-0.356084	0.171554
C14	C	0.406325	0.000043	0.169322
C15	C	0.430445	0.000560	0.308513
C16	C	0.527136	0.000039	0.311159
C17	C	0.573907	0.000037	0.173788
C18	C	0.544395	-0.130492	0.104199
C19	C	0.447595	-0.130596	0.102523
C20	C	0.447734	0.129342	0.099681
C21	C	0.544256	0.131062	0.104839
C22	C	0.668617	0.000028	0.176305
C23	C	0.311614	0.000043	0.166801
C24	C	1.041331	-0.428000	0.247751
C25	C	1.041345	-0.571883	0.247744
C26	C	0.938904	-0.571922	0.095340
C27	C	0.938896	-0.428041	0.095341
C28	C	1.143149	0.000041	0.162339
C29	C	1.236116	0.000052	0.164787
N30	N	0.990130	0.356152	0.171545
C31	C	0.994895	0.000026	-0.058046
C32	C	0.992434	0.000028	-0.197457
C33	C	1.067466	0.000030	-0.277946
C34	C	1.065148	0.000047	-0.408936
C35	C	0.912760	0.000054	-0.378934
C36	C	0.915079	0.000047	-0.247947
C37	C	0.985336	0.000045	0.401156
C38	C	0.987797	0.000052	0.540566
H39	H	0.546483	0.093611	0.365651
C40	C	0.588019	0.141735	-0.030610
C41	C	0.651727	0.031164	-0.081208
C42	C	0.695498	0.041835	-0.216657
C43	C	0.675562	0.163077	-0.301508
C44	C	0.611851	0.273657	-0.250911
C45	C	0.568080	0.262986	-0.115462
H46	H	0.666488	-0.058595	-0.018395
H47	H	0.742661	-0.040024	-0.254111
H48	H	0.707964	0.170977	-0.401775
H49	H	0.597090	0.363416	-0.313724
H50	H	0.520917	0.344846	-0.078007
C51	C	1.152554	0.000026	-0.222406
C52	C	1.175109	0.118715	-0.136470
C53	C	1.260200	0.118716	-0.080934
C54	C	1.322736	0.000026	-0.111335
C55	C	1.300183	-0.118673	-0.197276
C56	C	1.215092	-0.118673	-0.252811
H57	H	1.128814	0.206584	-0.113961
H58	H	1.276895	0.206585	-0.017315
H59	H	1.385726	0.000026	-0.070225
H60	H	1.346478	-0.206542	-0.219784
H61	H	1.198397	-0.206542	-0.316430
C62	C	1.147685	0.000045	-0.497473
C63	C	1.210851	-0.118660	-0.491851
C64	C	1.293392	-0.118660	-0.580388
C65	C	1.312767	0.000045	-0.674547
C66	C	1.249599	0.118758	-0.680174
C67	C	1.167058	0.118758	-0.591637
H68	H	1.196510	-0.206540	-0.422145
H69	H	1.340153	-0.206540	-0.576222
H70	H	1.373869	0.000044	-0.740088
H71	H	1.263941	0.206638	-0.749879
H72	H	1.120297	0.206638	-0.595802
H73	H	0.401733	-0.092518	0.361867
H74	H	0.433145	0.130223	-0.002774
H75	H	0.402765	0.094169	0.362164
H76	H	1.083032	-0.369417	0.309808
C77	C	0.827674	0.000061	-0.434482
C78	C	0.765127	-0.118632	-0.404106
C79	C	0.680039	-0.118629	-0.459653
C80	C	0.657500	0.000068	-0.545576
C81	C	0.720049	0.118770	-0.575956
C82	C	0.805136	0.118766	-0.520409
H83	H	0.781810	-0.206506	-0.340497
H84	H	0.633737	-0.206500	-0.437163
H85	H	0.594513	0.000070	-0.586695
H86	H	0.703365	0.206644	-0.639565
H87	H	0.851439	0.206638	-0.542899
H88	H	0.421054	-0.228167	0.150718
H89	H	0.575676	-0.135348	0.003112
H90	H	0.897208	-0.630526	0.033291
H91	H	0.432452	-0.136527	0.000467
C92	C	1.097693	-0.650996	0.331558
C93	C	1.058024	-0.749929	0.433822
C94	C	1.114376	-0.829043	0.517635
C95	C	1.210398	-0.809223	0.499185
C96	C	1.250072	-0.710285	0.396916
C97	C	1.193719	-0.631171	0.313103
H98	H	0.986938	-0.764605	0.447484
H99	H	1.085006	-0.902284	0.593341
H100	H	1.252113	-0.867788	0.561228
H101	H	1.321157	-0.695609	0.383254
H102	H	1.223089	-0.557930	0.237397
H103	H	0.545854	-0.093684	0.365987
H104	H	0.564731	-0.227630	0.152524
H105	H	0.853975	0.000049	-0.182409
H106	H	0.419663	0.228276	0.143187
H107	H	0.563124	0.227626	0.155507
H108	H	0.897182	-0.369486	0.033286
