data_functionalizedCrystal
_audit_creation_method	'MofGen! by Chris Wilmer'
_symmetry_space_group_name_H-M	'P1'
_symmetry_Int_Tables_number	1
_symmetry_cell_setting	triclinic
loop_
_symmetry_equiv_pos_as_xyz
  x,y,z
_cell_length_a	16.109293
_cell_length_b	15.186229
_cell_length_c	16.109298
_cell_angle_alpha	89.994886
_cell_angle_beta	96.540770
_cell_angle_gamma	89.990978
loop_
_atom_site_label
_atom_site_type_symbol
_atom_site_fract_x
_atom_site_fract_y
_atom_site_fract_z
O1	O	-1.103137	0.073287	0.106831
O2	O	-0.603137	0.573287	0.606831
O3	O	-0.861074	0.073273	0.120137
O4	O	-0.361074	0.573273	0.620137
O5	O	-0.988756	0.073287	-0.007548
O6	O	-0.488756	0.573287	0.492452
O7	O	-0.975454	0.073273	0.234515
O8	O	-0.475454	0.573273	0.734515
O9	O	-0.988741	-0.073171	-0.007540
O10	O	-0.488741	0.426829	0.492460
O11	O	-0.861059	-0.073185	0.120144
O12	O	-0.361059	0.426815	0.620144
O13	O	-1.103122	-0.073170	0.106838
O14	O	-0.603122	0.426830	0.606838
Zn15	Zn	-0.982088	-0.096430	0.113492
Zn16	Zn	-0.482088	0.403570	0.613492
Zn17	Zn	-0.982108	0.096533	0.113482
Zn18	Zn	-0.482108	0.596533	0.613482
O19	O	-0.975439	-0.073184	0.234522
O20	O	-0.475439	0.426816	0.734522
C21	C	-0.830091	0.000042	0.119603
C22	C	-0.330091	0.500042	0.619603
C23	C	-0.737796	0.000037	0.117990
C24	C	-0.237796	0.500037	0.617990
C25	C	-0.525446	-0.079794	0.114265
C26	C	-0.025446	0.420206	0.614265
C27	C	-0.438725	-0.079793	0.112741
C28	C	0.061275	0.420207	0.612741
C29	C	-0.438752	0.079883	0.112738
C30	C	0.061248	0.579883	0.612738
C31	C	-0.525472	0.079881	0.114256
C32	C	-0.025472	0.579881	0.614256
C33	C	-0.568816	0.000040	0.115024
C34	C	-0.068816	0.500040	0.615024
C35	C	-0.395376	0.000043	0.111982
C36	C	0.104624	0.500043	0.611982
C37	C	-0.301350	0.000044	0.110329
C38	C	0.198650	0.500044	0.610329
C39	C	-0.662848	0.000039	0.116675
C40	C	-0.162848	0.500039	0.616675
N41	N	-0.982080	-0.228123	0.113498
N42	N	-0.482080	0.271877	0.613498
C43	C	-0.134103	0.000056	0.107380
C44	C	0.365897	0.500056	0.607380
C45	C	-0.226396	0.000046	0.109015
C46	C	0.273604	0.500046	0.609015
C47	C	-1.032504	-0.453846	0.163925
C48	C	-0.532504	0.046154	0.663925
C49	C	-1.032513	-0.546035	0.163919
C50	C	-0.532513	-0.046035	0.663919
C51	C	-0.931696	-0.546045	0.063037
C52	C	-0.431696	-0.046045	0.563037
C53	C	-0.931692	-0.453857	0.063039
C54	C	-0.431692	0.046143	0.563039
C55	C	-0.982094	-0.407760	0.113488
C56	C	-0.482094	0.092240	0.613488
C57	C	-0.982108	-0.592137	0.113480
C58	C	-0.482108	-0.092137	0.613480
C59	C	-0.982117	-0.692094	0.113473
C60	C	-0.482117	-0.192094	0.613473
C61	C	-0.982086	-0.307797	0.113494
C62	C	-0.482086	0.192203	0.613494
C63	C	-0.988210	0.000062	-0.038519
C64	C	-0.488210	0.500062	0.461481
C65	C	-0.986596	0.000072	-0.130814
C66	C	-0.486596	0.500072	0.369186
N67	N	-0.982122	0.228226	0.113470
N68	N	-0.482122	0.728226	0.613470
C69	C	-0.981337	0.079887	-0.429887
C70	C	-0.481337	0.579887	0.070113
C71	C	-0.982865	0.079893	-0.343167
C72	C	-0.482865	0.579893	0.156833
C73	C	-0.982861	-0.079783	-0.343145
C74	C	-0.482861	0.420217	0.156855
C75	C	-0.981339	-0.079788	-0.429864
C76	C	-0.481339	0.420212	0.070136
C77	C	-0.980573	0.000049	-0.473232
C78	C	-0.480573	0.500049	0.026768
C79	C	-0.983623	0.000061	-0.299793
C80	C	-0.483623	0.500061	0.200207
C81	C	-0.985279	0.000067	-0.205768
C82	C	-0.485279	0.500067	0.294232
C83	C	-0.978918	0.000043	-0.567264
C84	C	-0.478918	0.500043	-0.067264
C85	C	-0.975985	0.000043	0.265494
C86	C	-0.475985	0.500043	0.765494
C87	C	-0.977599	0.000039	0.357789
C88	C	-0.477599	0.500039	0.857789
H89	H	-0.403417	-0.144802	0.112124
H90	H	0.096583	0.355198	0.612124
H91	H	-0.980713	0.144896	-0.465195
H92	H	-0.480713	0.644896	0.034805
C93	C	-0.876222	-0.403155	0.007577
C94	C	-0.376222	0.096845	0.507577
H95	H	-0.883440	-0.341650	0.014803
H96	H	-0.383440	0.158350	0.514803
H97	H	-0.819338	-0.418283	0.023023
H98	H	-0.319338	0.081717	0.523023
H99	H	-0.891677	-0.418243	-0.049315
H100	H	-0.391677	0.081757	0.450685
H101	H	-0.560734	-0.144805	0.114891
H102	H	-0.060734	0.355195	0.614891
C103	C	-0.391070	0.167701	0.111904
C104	C	0.108930	0.667701	0.611904
H105	H	-0.333210	0.156269	0.110900
H106	H	0.166790	0.656269	0.610900
H107	H	-0.411640	0.200512	0.063699
H108	H	0.088360	0.700512	0.563699
H109	H	-0.398934	0.200494	0.160615
H110	H	0.101066	0.700494	0.660615
C111	C	-0.980495	-0.167614	-0.477546
C112	C	-0.480495	0.332386	0.022454
H113	H	-0.981157	-0.215161	-0.439298
H114	H	-0.481157	0.284839	0.060702
H115	H	-1.028355	-0.170927	-0.517733
H116	H	-0.528355	0.329073	-0.017733
H117	H	-0.931440	-0.170937	-0.505016
H118	H	-0.431440	0.329063	-0.005016
C119	C	-1.087948	-0.403137	0.219408
C120	C	-0.587948	0.096863	0.719408
H121	H	-1.080722	-0.341632	0.212193
H122	H	-0.580722	0.158368	0.712193
H123	H	-1.144836	-0.418231	0.203974
H124	H	-0.644836	0.081769	0.703974
H125	H	-1.072480	-0.418257	0.276294
H126	H	-0.572480	0.081743	0.776294
C127	C	-0.573182	0.167703	0.115093
C128	C	-0.073182	0.667703	0.615093
H129	H	-0.534947	0.215253	0.114431
H130	H	-0.034947	0.715253	0.614431
H131	H	-0.613367	0.171025	0.067231
H132	H	-0.113367	0.671025	0.567231
H133	H	-0.600654	0.171012	0.164147
H134	H	-0.100654	0.671012	0.664147
H135	H	-1.073562	-0.583554	0.204989
H136	H	-0.573562	-0.083554	0.704989
H137	H	-0.890659	-0.583589	0.021965
H138	H	-0.390659	-0.083589	0.521965
C139	C	-0.983701	0.167714	-0.295490
C140	C	-0.483701	0.667714	0.204510
H141	H	-0.983020	0.215258	-0.333741
H142	H	-0.483020	0.715258	0.166259
H143	H	-1.032749	0.171047	-0.268019
H144	H	-0.532749	0.671047	0.231981
H145	H	-0.935834	0.171026	-0.255304
H146	H	-0.435834	0.671026	0.244696
H147	H	-0.983483	-0.144783	-0.307824
H148	H	-0.483483	0.355217	0.192176
