data_functionalizedCrystal
_audit_creation_method	'MofGen! by Chris Wilmer'
_symmetry_space_group_name_H-M	'P1'
_symmetry_Int_Tables_number	1
_symmetry_cell_setting	triclinic
loop_
_symmetry_equiv_pos_as_xyz
  x,y,z
_cell_length_a	16.109301
_cell_length_b	12.837942
_cell_length_c	14.586319
_cell_angle_alpha	89.996741
_cell_angle_beta	89.999213
_cell_angle_gamma	89.145211
loop_
_atom_site_label
_atom_site_type_symbol
_atom_site_fract_x
_atom_site_fract_y
_atom_site_fract_z
O1	O	1.113716	0.133240	-0.076181
O2	O	0.872971	0.149822	-0.076196
O3	O	0.988005	-0.009370	-0.076183
O4	O	0.998682	0.292432	-0.076194
O5	O	0.987996	-0.009372	0.076298
O6	O	0.872962	0.149819	0.076285
O7	O	1.113707	0.133238	0.076299
Cu8	Cu	0.993333	0.141528	0.090215
Cu9	Cu	0.993344	0.141531	-0.090111
O10	O	0.998673	0.292430	0.076287
C11	C	0.841938	0.149149	0.000043
C12	C	0.749483	0.147135	0.000037
C13	C	0.984394	-0.047991	0.000056
C14	C	0.973637	-0.163064	0.000054
C15	C	0.534343	0.236914	0.000045
C16	C	0.447471	0.235014	0.000051
C17	C	0.452341	0.046138	0.000054
C18	C	0.539211	0.048040	0.000054
C19	C	0.580209	0.143431	0.000045
C20	C	0.406468	0.139629	0.000050
C21	C	0.312278	0.137568	0.000057
C22	C	0.674405	0.145492	0.000040
C23	C	1.102954	-0.404066	0.000043
C24	C	1.092851	-0.512188	0.000041
C25	C	0.943328	-0.487433	0.000041
C26	C	0.953431	-0.379311	0.000043
C27	C	1.033247	-0.337632	0.000046
C28	C	1.043349	-0.229507	0.000054
C29	C	0.893827	-0.204754	0.000048
C30	C	0.883724	-0.312876	0.000046
C31	C	1.144739	0.133911	0.000059
C32	C	1.237195	0.135924	0.000058
C33	C	1.002284	0.331050	0.000045
C34	C	1.013041	0.446124	0.000041
N35	N	0.993332	0.141526	0.217047
N36	N	0.993352	0.141526	-0.216943
C37	C	1.044290	0.071059	0.452059
C38	C	1.044292	0.071057	0.548040
C39	C	0.942388	0.211995	0.548038
C40	C	0.942382	0.211992	0.452059
C41	C	0.993338	0.141525	0.404071
C42	C	0.993346	0.141526	0.596032
C43	C	0.993348	0.141524	0.700099
C44	C	0.993335	0.141526	0.299998
H45	H	0.567721	0.314588	0.000044
H46	H	1.085780	0.013676	0.587108
C47	C	0.429752	-0.115428	-0.078332
C48	C	0.407274	-0.058713	0.000052
H49	H	0.401933	-0.180162	-0.078331
H50	H	0.414513	-0.076933	-0.131494
H51	H	0.488054	-0.127667	-0.078318
H52	H	0.348972	-0.046467	0.000035
H53	H	0.422506	-0.097216	0.053228
C54	C	0.639738	-0.059388	-0.078329
C55	C	0.589636	-0.054724	0.000052
H56	H	0.670871	-0.122825	-0.078323
H57	H	0.605749	-0.056209	-0.131493
H58	H	0.676582	-0.002300	-0.078318
H59	H	0.552788	-0.111809	0.000038
H60	H	0.623628	-0.057913	0.053230
C61	C	0.841651	0.351295	0.538395
C62	C	0.886380	0.289451	0.600788
H63	H	0.807070	0.399109	0.570962
H64	H	0.879207	0.388596	0.500957
H65	H	0.808330	0.308120	0.500963
H66	H	0.919706	0.332626	0.638216
H67	H	0.848819	0.252147	0.638242
C68	C	1.141463	-0.122291	0.078441
C69	C	1.131081	-0.183692	0.000054
H70	H	1.195629	-0.094017	0.078439
H71	H	1.101402	-0.067252	0.078438
H72	H	1.134413	-0.163973	0.131607
H73	H	1.138125	-0.142009	-0.053113
H74	H	1.171154	-0.238739	0.000048
C75	C	0.935510	0.353059	0.344105
C76	C	0.886375	0.289458	0.399303
H77	H	0.900932	0.400874	0.311533
H78	H	0.973064	0.390359	0.381542
H79	H	0.965848	0.311076	0.301794
H80	H	0.856042	0.331441	0.441618
H81	H	0.848806	0.252155	0.361862
C82	C	0.416576	0.395411	-0.078346
C83	C	0.397054	0.337774	0.000043
H84	H	0.385446	0.458850	-0.078351
H85	H	0.474173	0.410190	-0.078342
H86	H	0.403333	0.356286	-0.131510
H87	H	0.410302	0.376896	0.053208
H88	H	0.339444	0.322998	0.000047
C89	C	1.249736	-0.439391	0.000041
C90	C	1.190683	-0.358244	0.000043
H91	H	1.303897	-0.411101	0.000034
H92	H	1.242687	-0.481047	0.053212
H93	H	1.242681	-0.481048	-0.053135
H94	H	1.197735	-0.316592	0.053223
H95	H	1.197736	-0.316571	-0.053134
C96	C	1.168234	-0.648127	-0.078350
C97	C	1.169476	-0.585213	0.000038
H98	H	1.215545	-0.693204	-0.078354
H99	H	1.119264	-0.688425	-0.078342
H100	H	1.169067	-0.605415	-0.131515
H101	H	1.168637	-0.627924	0.053204
H102	H	1.218459	-0.544912	0.000039
H103	H	0.878346	-0.521388	0.000030
C104	C	0.801845	-0.467630	0.000049
C105	C	0.795995	-0.358697	0.000050
H106	H	0.747682	-0.495913	0.000060
H107	H	0.830897	-0.490422	-0.053125
H108	H	0.830912	-0.490430	0.053222
H109	H	0.766932	-0.335896	-0.053127
H110	H	0.766930	-0.335895	0.053229
H111	H	0.837067	-0.150651	0.000058
H112	H	1.085779	0.013680	0.412990
