data_functionalizedCrystal
_audit_creation_method	'MofGen! by Chris Wilmer'
_symmetry_space_group_name_H-M	'P1'
_symmetry_Int_Tables_number	1
_symmetry_cell_setting	triclinic
loop_
_symmetry_equiv_pos_as_xyz
  x,y,z
_cell_length_a	6.394989
_cell_length_b	16.109301
_cell_length_c	14.586319
_cell_angle_alpha	89.999213
_cell_angle_beta	90.000822
_cell_angle_gamma	95.020404
loop_
_atom_site_label
_atom_site_type_symbol
_atom_site_fract_x
_atom_site_fract_y
_atom_site_fract_z
O1	O	-0.268480	1.105973	-0.076176
O2	O	-0.301892	0.864265	-0.076190
O3	O	0.018881	0.988550	-0.076184
O4	O	-0.589253	0.981688	-0.076183
O5	O	0.018885	0.988541	0.076297
O6	O	-0.301887	0.864256	0.076291
O7	O	-0.268475	1.105964	0.076305
Cu8	Cu	-0.285181	0.985109	0.090220
Cu9	Cu	-0.285186	0.985120	-0.090106
O10	O	-0.589248	0.981679	0.076298
C11	C	-0.300536	0.833271	0.000048
C12	C	-0.296479	0.740933	0.000043
N13	N	-0.285176	0.985108	0.217052
C14	C	-0.477384	0.520575	0.000054
C15	C	-0.473555	0.433814	0.000060
C16	C	-0.092969	0.449660	0.000055
C17	C	-0.096800	0.536419	0.000056
C18	C	-0.289014	0.571874	0.000051
C19	C	-0.281354	0.398354	0.000056
C20	C	-0.277201	0.304284	0.000062
C21	C	-0.293168	0.665950	0.000046
C22	C	0.096703	0.987189	0.000053
C23	C	0.332935	0.983042	0.000052
C24	C	-0.269831	1.136958	0.000064
C25	C	-0.273889	1.229296	0.000063
N26	N	-0.285175	0.985127	-0.216938
C27	C	-0.143185	1.040160	0.452061
C28	C	-0.143180	1.040163	0.548043
C29	C	-0.427172	0.930069	0.548046
C30	C	-0.427166	0.930063	0.452067
C31	C	-0.285175	0.985113	0.404077
C32	C	-0.285176	0.985122	0.596038
C33	C	-0.285172	0.985124	0.700105
C34	C	-0.285176	0.985110	0.300003
H35	H	-0.626945	0.392050	0.000064
H36	H	-0.633896	0.549440	0.000056
O37	O	0.093683	0.415176	-0.000110
C38	C	0.318812	0.326380	-0.079088
C39	C	0.107375	0.365391	-0.079022
H40	H	0.329932	0.286106	-0.142871
H41	H	0.452876	0.377916	-0.079148
H42	H	0.330098	0.286190	-0.015248
H43	H	0.095884	0.405573	-0.142851
H44	H	-0.026588	0.313815	-0.078914
O45	O	-0.005177	1.093716	0.594512
C46	C	0.276583	1.202881	0.584373
C47	C	0.120365	1.142288	0.531633
H48	H	0.378155	1.242155	0.533559
H49	H	0.186480	1.245415	0.629280
H50	H	0.380867	1.165883	0.629336
H51	H	0.016043	1.179218	0.486621
H52	H	0.210599	1.099753	0.486784
O53	O	-0.565390	0.876635	0.594562
C54	C	-0.928555	0.831750	0.623961
C55	C	-0.772249	0.892301	0.571213
H56	H	-1.095834	0.844406	0.605118
H57	H	-0.901455	0.764861	0.605076
H58	H	-0.904074	0.841194	0.700799
H59	H	-0.796636	0.882932	0.494363
H60	H	-0.799388	0.959168	0.590174
O61	O	-0.564911	0.876620	0.405307
C62	C	-0.690845	0.827864	0.257442
C63	C	-0.534717	0.888415	0.310284
H64	H	-0.666517	0.837391	0.180607
H65	H	-0.663591	0.760971	0.276248
H66	H	-0.858131	0.840444	0.276362
H67	H	-0.367371	0.875911	0.291392
H68	H	-0.562154	0.955288	0.291474
O69	O	0.086057	0.586342	-0.000072
C70	C	0.302643	0.693462	-0.079097
C71	C	0.095473	0.636987	-0.079060
H72	H	0.310344	0.734410	-0.142962
H73	H	0.310395	0.734532	-0.015327
H74	H	0.440645	0.653202	-0.079057
H75	H	-0.042646	0.677182	-0.079133
H76	H	0.087905	0.595912	-0.142825
O77	O	-0.005078	1.093496	0.405363
C78	C	0.280411	1.108134	0.297115
C79	C	0.124027	1.047652	0.349911
H80	H	0.384863	1.071092	0.252284
H81	H	0.190448	1.150624	0.252092
H82	H	0.381796	1.147468	0.347944
H83	H	0.022603	1.008262	0.299148
H84	H	0.214119	1.005218	0.394948
