data_functionalizedCrystal
_audit_creation_method	'MofGen! by Chris Wilmer'
_symmetry_space_group_name_H-M	'P1'
_symmetry_Int_Tables_number	1
_symmetry_cell_setting	triclinic
loop_
_symmetry_equiv_pos_as_xyz
  x,y,z
_cell_length_a	12.594517
_cell_length_b	18.215405
_cell_length_c	18.215399
_cell_angle_alpha	90.027541
_cell_angle_beta	90.020001
_cell_angle_gamma	90.022532
loop_
_atom_site_label
_atom_site_type_symbol
_atom_site_fract_x
_atom_site_fract_y
_atom_site_fract_z
Zn1	Zn	1.627204	-0.292996	0.416121
Zn2	Zn	1.960537	0.040338	0.749455
Zn3	Zn	2.293870	0.373671	1.082788
Zn4	Zn	1.627078	-0.416067	0.293056
Zn5	Zn	1.960411	-0.082734	0.626389
Zn6	Zn	2.293744	0.250600	0.959723
Zn7	Zn	1.449212	-0.293018	0.293068
Zn8	Zn	1.782545	0.040315	0.626402
Zn9	Zn	2.115878	0.373648	0.959735
Zn10	Zn	1.449169	-0.416025	0.416080
Zn11	Zn	1.782502	-0.082691	0.749414
Zn12	Zn	2.115836	0.250642	1.082747
O13	O	1.538165	-0.354526	0.354581
O14	O	1.871499	-0.021193	0.687915
O15	O	2.204832	0.312140	1.021248
O16	O	1.776133	-0.309330	0.399808
O17	O	2.109466	0.024004	0.733142
O18	O	2.442799	0.357337	1.066475
O19	O	1.603449	-0.399772	0.190073
O20	O	1.936782	-0.066438	0.523407
O21	O	2.270115	0.266895	0.856740
O22	O	1.472893	-0.190031	0.309414
O23	O	1.806226	0.143302	0.642747
O24	O	2.139560	0.476636	0.976080
O25	O	1.776040	-0.399750	0.309393
O26	O	2.109374	-0.066416	0.642726
O27	O	2.442707	0.266917	0.976059
O28	O	1.603663	-0.190014	0.399820
O29	O	1.936996	0.143319	0.733154
O30	O	2.270330	0.476652	1.066487
O31	O	1.472771	-0.309368	0.190082
O32	O	1.806104	0.023965	0.523416
O33	O	2.139438	0.357298	0.856749
O34	O	1.300260	-0.309327	0.309374
O35	O	1.633594	0.024006	0.642708
O36	O	1.966927	0.357339	0.976041
O37	O	1.472820	-0.399677	0.519070
O38	O	1.806154	-0.066344	0.852403
O39	O	2.139487	0.266989	1.185737
O40	O	1.300229	-0.399699	0.399751
O41	O	1.633562	-0.066366	0.733084
O42	O	1.966896	0.266967	1.066417
O43	O	1.603622	-0.309289	0.519100
O44	O	1.936955	0.024045	0.852433
O45	O	2.270288	0.357378	1.185767
O46	O	1.603407	-0.519046	0.309353
O47	O	1.936741	-0.185712	0.642686
O48	O	2.270074	0.147621	0.976020
O49	O	1.472698	-0.519015	0.399739
O50	O	1.806032	-0.185681	0.733072
O51	O	2.139365	0.147652	1.066405
C52	C	1.261625	-0.354512	0.354560
C53	C	1.594958	-0.021178	0.687893
C54	C	1.928291	0.312155	1.021226
C55	C	1.143319	-0.354523	0.354568
C56	C	1.476652	-0.021190	0.687901
C57	C	1.809986	0.312144	1.021235
C58	C	1.538063	-0.545733	0.354556
C59	C	1.871397	-0.212399	0.687889
C60	C	2.204730	0.120934	1.021223
C61	C	1.538117	-0.627532	0.354570
C62	C	1.871451	-0.294198	0.687903
C63	C	2.204784	0.039135	1.021237
C64	C	1.606242	-0.815656	0.401708
C65	C	1.939575	-0.482322	0.735042
C66	C	2.272908	-0.148989	1.068375
C67	C	1.606280	-0.892515	0.401722
C68	C	1.939614	-0.559181	0.735055
C69	C	2.272947	-0.225848	1.068389
C70	C	1.470221	-0.892645	0.307500
C71	C	1.803554	-0.559312	0.640834
C72	C	2.136888	-0.225978	0.974167
C73	C	1.470178	-0.815788	0.307491
C74	C	1.803511	-0.482454	0.640824
C75	C	2.136845	-0.149121	0.974157
C76	C	1.538194	-0.777295	0.354594
C77	C	1.871527	-0.443962	0.687927
C78	C	2.204861	-0.110628	1.021260
C79	C	1.538276	-0.931011	0.354617
C80	C	1.871609	-0.597678	0.687950
C81	C	2.204943	-0.264344	1.021284
C82	C	1.538317	-1.014345	0.354632
C83	C	1.871651	-0.681011	0.687965
C84	C	2.204984	-0.347678	1.021298
C85	C	1.538152	-0.693956	0.354580
C86	C	1.871485	-0.360623	0.687913
C87	C	2.204818	-0.027289	1.021247
C88	C	1.074052	-0.305303	0.305506
C89	C	1.407385	0.028031	0.638839
C90	C	1.740719	0.361364	0.972173
C91	C	1.003230	-0.372431	0.287401
C92	C	1.336564	-0.039097	0.620734
C93	C	1.669897	0.294236	0.954067
C94	C	1.003342	-0.287428	0.372686
C95	C	1.336675	0.045905	0.706019
C96	C	1.670008	0.379239	1.039353
C97	C	1.074056	-0.421686	0.336427
C98	C	1.407389	-0.088353	0.669761
C99	C	1.740722	0.244980	1.003094
C100	C	1.074173	-0.336639	0.421744
C101	C	1.407507	-0.003305	0.755077
C102	C	1.740840	0.330028	1.088411
C103	C	1.003383	-0.403813	0.403664
C104	C	1.336717	-0.070480	0.736997
C105	C	1.670050	0.262854	1.070331
C106	C	1.815786	-0.354542	0.354604
C107	C	2.149120	-0.021208	0.687937
C108	C	2.482453	0.312125	1.021270
C109	C	1.934092	-0.354548	0.354613
C110	C	2.267425	-0.021215	0.687946
C111	C	2.600758	0.312118	1.021280
C112	C	1.538230	-0.354476	0.546534
C113	C	1.871564	-0.021142	0.879868
C114	C	2.204897	0.312191	1.213201
C115	C	1.538258	-0.354454	0.628333
C116	C	1.871591	-0.021121	0.961667
C117	C	2.204925	0.312213	1.295000
C118	C	1.538297	-0.162574	0.354623
C119	C	1.871630	0.170760	0.687956
C120	C	2.204964	0.504093	1.021290
C121	C	1.538353	-0.080775	0.354641
C122	C	1.871686	0.252559	0.687974
C123	C	2.205020	0.585892	1.021307
C124	C	1.538162	-0.354524	0.163375
C125	C	1.871495	-0.021191	0.496709
C126	C	2.204829	0.312143	0.830042
C127	C	1.538341	-0.354338	0.081577
C128	C	1.871674	-0.021005	0.414910
C129	C	2.205007	0.312328	0.748243
C130	C	1.606391	-0.307345	0.816544
C131	C	1.939724	0.025989	1.149878
C132	C	2.273057	0.359322	1.483211
C133	C	1.606403	-0.307323	0.893403
C134	C	1.939737	0.026010	1.226736
C135	C	2.273070	0.359343	1.560070
C136	C	1.470201	-0.401450	0.893360
C137	C	1.803534	-0.068116	1.226694
C138	C	2.136867	0.265217	1.560027
C139	C	1.470183	-0.401467	0.816503
C140	C	1.803517	-0.068134	1.149836
C141	C	2.136850	0.265200	1.483170
C142	C	1.538284	-0.354415	0.778097
C143	C	1.871618	-0.021082	1.111430
C144	C	2.204951	0.312251	1.444764
C145	C	1.538314	-0.354377	0.931813
C146	C	1.871648	-0.021043	1.265146
C147	C	2.204981	0.312290	1.598480
C148	C	1.538328	-0.354354	1.015147
C149	C	1.871661	-0.021021	1.348480
C150	C	2.204994	0.312313	1.681814
C151	C	1.538270	-0.354437	0.694758
C152	C	1.871603	-0.021104	1.028091
C153	C	2.204937	0.312229	1.361425
H154	H	1.661623	-0.784317	0.440063
H155	H	1.994956	-0.450984	0.773397
H156	H	2.328290	-0.117650	1.106730
H157	H	1.661689	-0.923744	0.440089
H158	H	1.995022	-0.590411	0.773422
H159	H	2.328355	-0.257078	1.106756
C160	C	1.395321	-0.773585	0.255666
C161	C	1.728654	-0.440251	0.588999
C162	C	2.061988	-0.106918	0.922332
H163	H	1.405029	-0.722299	0.262414
H164	H	1.738362	-0.388965	0.595747
H165	H	2.071696	-0.055632	0.929080
H166	H	1.410942	-0.786197	0.206229
H167	H	1.744275	-0.452864	0.539562
H168	H	2.077609	-0.119531	0.872896
H169	H	1.323801	-0.786213	0.266397
H170	H	1.657134	-0.452880	0.599731
H171	H	1.990468	-0.119546	0.933064
H172	H	1.414846	-0.923995	0.269150
H173	H	1.748180	-0.590662	0.602483
H174	H	2.081513	-0.257328	0.935816
C175	C	0.961112	-0.392884	0.210690
C176	C	1.294445	-0.059550	0.544023
C177	C	1.627778	0.273783	0.877356
H178	H	0.919606	-0.436320	0.213963
H179	H	1.252939	-0.102986	0.547296
H180	H	1.586272	0.230347	0.880630
H181	H	0.918542	-0.353959	0.192334
H182	H	1.251875	-0.020625	0.525668
H183	H	1.585209	0.312708	0.859001
H184	H	1.019210	-0.400999	0.178447
H185	H	1.352544	-0.067666	0.511781
H186	H	1.685877	0.265667	0.845114
H187	H	1.105081	-0.263719	0.263965
H188	H	1.438415	0.069614	0.597298
H189	H	1.771748	0.402948	0.930631
H190	H	1.661861	-0.268992	0.924703
H191	H	1.995194	0.064341	1.258037
H192	H	2.328527	0.397674	1.591370
C193	C	1.395302	-0.453209	0.935606
C194	C	1.728635	-0.119876	1.268939
C195	C	2.061969	0.213458	1.602273
H196	H	1.354731	-0.481241	0.901698
H197	H	1.688064	-0.147908	1.235032
H198	H	2.021398	0.185426	1.568365
H199	H	1.436005	-0.485269	0.965585
H200	H	1.769338	-0.151935	1.298918
H201	H	2.102671	0.181398	1.632251
H202	H	1.348946	-0.425046	0.965589
H203	H	1.682279	-0.091713	1.298922
H204	H	2.015613	0.241621	1.632256
H205	H	1.104988	-0.478455	0.321059
H206	H	1.438321	-0.145122	0.654392
H207	H	1.771655	0.188212	0.987726
C208	C	0.961716	-0.460119	0.459737
C209	C	1.295049	-0.126785	0.793070
C210	C	1.628383	0.206548	1.126403
H211	H	0.986059	-0.507746	0.446762
H212	H	1.319392	-0.174413	0.780095
H213	H	1.652726	0.158920	1.113428
H214	H	0.987080	-0.447812	0.507296
H215	H	1.320413	-0.114479	0.840630
H216	H	1.653747	0.218854	1.173963
H217	H	0.886291	-0.459544	0.459730
H218	H	1.219624	-0.126210	0.793064
H219	H	1.552958	0.207123	1.126397
C220	C	0.961381	-0.210765	0.393371
C221	C	1.294714	0.122568	0.726705
C222	C	1.628047	0.455902	1.060038
H223	H	0.919918	-0.214155	0.436798
H224	H	1.253251	0.119178	0.770132
H225	H	1.586584	0.452511	1.103465
H226	H	1.019540	-0.178564	0.401568
H227	H	1.352873	0.154769	0.734901
H228	H	1.686206	0.488102	1.068235
H229	H	0.918780	-0.192284	0.354505
H230	H	1.252114	0.141049	0.687839
H231	H	1.585447	0.474382	1.021172
C232	C	1.395270	-0.453252	0.774208
C233	C	1.728603	-0.119919	1.107541
C234	C	2.061936	0.213414	1.440875
H235	H	1.354726	-0.481280	0.808088
H236	H	1.688059	-0.147947	1.141421
H237	H	2.021393	0.185386	1.474755
H238	H	1.348905	-0.425108	0.744225
H239	H	1.682238	-0.091775	1.077558
H240	H	2.015572	0.241558	1.410891
H241	H	1.435972	-0.485326	0.744226
H242	H	1.769305	-0.151993	1.077559
H243	H	2.102638	0.181341	1.410893
C244	C	1.116311	-0.316155	0.498437
C245	C	1.449645	0.017178	0.831770
C246	C	1.782978	0.350511	1.165104
H247	H	1.092145	-0.268434	0.511222
H248	H	1.425478	0.064900	0.844556
H249	H	1.758811	0.398233	1.177889
H250	H	1.091064	-0.350641	0.533430
H251	H	1.424398	-0.017307	0.866764
H252	H	1.757731	0.316026	1.200097
H253	H	1.191733	-0.316736	0.497966
H254	H	1.525066	0.016598	0.831300
H255	H	1.858400	0.349931	1.164633
H256	H	1.661840	-0.269030	0.785276
H257	H	1.995173	0.064303	1.118610
H258	H	2.328507	0.397636	1.451943
