data_functionalizedCrystal
_audit_creation_method	'MofGen! by Chris Wilmer'
_symmetry_space_group_name_H-M	'P1'
_symmetry_Int_Tables_number	1
_symmetry_cell_setting	triclinic
loop_
_symmetry_equiv_pos_as_xyz
  x,y,z
_cell_length_a	9.065218
_cell_length_b	9.065218
_cell_length_c	12.996460
_cell_angle_alpha	89.995720
_cell_angle_beta	89.994367
_cell_angle_gamma	85.015885
loop_
_atom_site_label
_atom_site_type_symbol
_atom_site_fract_x
_atom_site_fract_y
_atom_site_fract_z
O1	O	-1.960404	-0.216360	0.085565
O2	O	-1.627070	0.116974	0.418898
O3	O	-1.293737	0.450307	0.752232
O4	O	-1.531119	-0.234106	0.085566
O5	O	-1.197785	0.099227	0.418899
O6	O	-0.864452	0.432561	0.752233
O7	O	-1.754634	-0.010590	0.085563
O8	O	-1.421301	0.322743	0.418897
O9	O	-1.087968	0.656076	0.752230
O10	O	-1.736888	-0.439875	0.085568
O11	O	-1.403555	-0.106542	0.418901
O12	O	-1.070221	0.226791	0.752234
O13	O	-1.754611	-0.010578	-0.085570
O14	O	-1.421277	0.322756	0.247763
O15	O	-1.087944	0.656089	0.581096
O16	O	-1.531095	-0.234093	-0.085568
O17	O	-1.197762	0.099240	0.247765
O18	O	-0.864428	0.432573	0.581099
O19	O	-1.960380	-0.216347	-0.085569
O20	O	-1.627047	0.116987	0.247764
O21	O	-1.293713	0.450320	0.581098
Cu22	Cu	-1.745735	-0.225219	-0.101194
Cu23	Cu	-1.412402	0.108114	0.232139
Cu24	Cu	-1.079069	0.441448	0.565472
Cu25	Cu	-1.745763	-0.225234	0.101191
Cu26	Cu	-1.412430	0.108099	0.434525
Cu27	Cu	-1.079097	0.441433	0.767858
O28	O	-1.736864	-0.439862	-0.085566
O29	O	-1.403531	-0.106529	0.247767
O30	O	-1.070198	0.226804	0.581100
C31	C	-1.476120	-0.232394	-0.000001
C32	C	-1.142787	0.100939	0.333333
C33	C	-0.809454	0.434273	0.666666
C34	C	-1.312277	-0.227294	-0.000000
C35	C	-0.978944	0.106039	0.333333
C36	C	-0.645611	0.439372	0.666666
C37	C	-1.752917	0.044403	-0.000002
C38	C	-1.419584	0.377736	0.333331
C39	C	-1.086250	0.711069	0.666665
C40	C	-1.747817	0.208245	0.000003
C41	C	-1.414484	0.541579	0.333336
C42	C	-1.081151	0.874912	0.666670
C43	C	-2.015378	-0.218059	0.000000
C44	C	-1.682045	0.115275	0.333333
C45	C	-1.348712	0.448608	0.666667
C46	C	-2.179221	-0.223158	0.000006
C47	C	-1.845888	0.110175	0.333340
C48	C	-1.512555	0.443508	0.666673
N49	N	-1.745726	-0.225207	-0.243541
N50	N	-1.412393	0.108126	0.089792
N51	N	-1.079060	0.441459	0.423125
C52	C	-1.738582	-0.494855	0.000001
C53	C	-1.405248	-0.161522	0.333335
C54	C	-1.071915	0.171811	0.666668
C55	C	-1.743681	-0.658698	0.000003
C56	C	-1.410348	-0.325365	0.333336
C57	C	-1.077015	0.007968	0.666670
C58	C	-1.745761	-0.225236	-0.663356
C59	C	-1.412428	0.108098	-0.330022
C60	C	-1.079095	0.441431	0.003311
C61	C	-1.745747	-0.225233	-0.546551
C62	C	-1.412414	0.108101	-0.213217
C63	C	-1.079081	0.441434	0.120116
C64	C	-1.745745	-0.225223	-0.453452
C65	C	-1.412411	0.108111	-0.120119
C66	C	-1.079078	0.441444	0.213214
C67	C	-1.745729	-0.225217	-0.336640
C68	C	-1.412396	0.108116	-0.003306
C69	C	-1.079062	0.441449	0.330027
N70	N	-1.745784	-0.225234	0.243538
N71	N	-1.412451	0.108099	0.576872
N72	N	-1.079117	0.441433	0.910205
