data_functionalizedCrystal
_audit_creation_method	'MofGen! by Chris Wilmer'
_symmetry_space_group_name_H-M	'P1'
_symmetry_Int_Tables_number	1
_symmetry_cell_setting	triclinic
loop_
_symmetry_equiv_pos_as_xyz
  x,y,z
_cell_length_a	14.853567
_cell_length_b	23.532407
_cell_length_c	13.930277
_cell_angle_alpha	89.986949
_cell_angle_beta	89.995755
_cell_angle_gamma	83.241839
loop_
_atom_site_label
_atom_site_type_symbol
_atom_site_fract_x
_atom_site_fract_y
_atom_site_fract_z
O1	O	1.195555	0.074353	-0.079783
O2	O	1.695555	0.574353	0.420217
O3	O	0.932999	0.083210	-0.079802
O4	O	1.432999	0.583210	0.420198
O5	O	1.072194	-0.004116	-0.079765
O6	O	1.572194	0.495884	0.420235
O7	O	1.056360	0.161678	-0.079820
O8	O	1.556360	0.661678	0.420180
O9	O	1.072175	-0.004118	0.079897
O10	O	1.572175	0.495882	0.579897
O11	O	0.932980	0.083208	0.079860
O12	O	1.432980	0.583208	0.579860
O13	O	1.195536	0.074351	0.079879
O14	O	1.695536	0.574351	0.579879
Zn15	Zn	1.064255	0.078779	0.105219
Zn16	Zn	1.564255	0.578779	0.605219
Zn17	Zn	1.064280	0.078782	-0.105142
Zn18	Zn	1.564280	0.578782	0.394858
O19	O	1.056341	0.161677	0.079842
O20	O	1.556341	0.661677	0.579842
C21	C	0.899405	0.082808	0.000027
C22	C	1.399405	0.582808	0.500027
C23	C	0.799334	0.081605	0.000021
C24	C	1.299334	0.581605	0.500021
C25	C	1.071781	-0.025335	0.000071
C26	C	1.571781	0.474665	0.500071
C27	C	1.070569	-0.088557	0.000085
C28	C	1.570569	0.411443	0.500085
C29	C	0.387423	0.024648	0.000062
C30	C	0.887423	0.524648	0.500062
C31	C	0.365008	0.128393	0.000026
C32	C	0.865008	0.628393	0.500026
C33	C	0.459029	0.129524	0.000023
C34	C	0.959029	0.629524	0.500023
C35	C	0.517252	0.078216	0.000037
C36	C	1.017252	0.578216	0.500037
C37	C	0.481454	0.025777	0.000055
C38	C	0.981454	0.525777	0.500055
C39	C	0.494835	0.181961	-0.000005
C40	C	0.994835	0.681961	0.499995
C41	C	0.588861	0.183094	-0.000009
C42	C	1.088861	0.683094	0.499991
C43	C	0.647086	0.131786	0.000012
C44	C	1.147086	0.631786	0.500012
C45	C	0.611283	0.079345	0.000031
C46	C	1.111283	0.579345	0.500031
C47	C	0.669506	0.028037	0.000045
C48	C	1.169506	0.528037	0.500045
C49	C	0.633704	-0.024404	0.000071
C50	C	1.133704	0.475596	0.500071
C51	C	0.539679	-0.025531	0.000077
C52	C	1.039679	0.474469	0.500077
C53	C	0.741111	0.132913	0.000007
C54	C	1.241111	0.632913	0.500007
C55	C	0.763536	0.029166	0.000039
C56	C	1.263536	0.529166	0.500039
C57	C	0.983197	-0.355106	0.000019
C58	C	1.483197	0.144894	0.500019
C59	C	0.984323	-0.295701	0.000026
C60	C	1.484323	0.204299	0.500026
O61	O	0.915011	-0.259259	-0.000009
O62	O	1.415011	0.240741	0.499991
N63	N	1.067074	-0.272713	0.000043
N64	N	1.567074	0.227287	0.500043
C65	C	1.148705	-0.309134	0.000043
C66	C	1.648705	0.190866	0.500043
O67	O	1.219195	-0.284127	0.000057
O68	O	1.719195	0.215873	0.500057
C69	C	1.147578	-0.368538	0.000029
C70	C	1.647578	0.131462	0.500029
C71	C	1.064821	-0.391522	0.000022
C72	C	1.564821	0.108478	0.500022
C73	C	0.900446	-0.378090	0.000011
C74	C	1.400446	0.121910	0.500011
C75	C	0.899320	-0.437491	0.000005
C76	C	1.399320	0.062509	0.500005
C77	C	0.980945	-0.473908	0.000008
C78	C	1.480945	0.026092	0.500008
C79	C	1.063695	-0.450923	0.000016
C80	C	1.563695	0.049077	0.500016
C81	C	1.229208	-0.404958	0.000022
C82	C	1.729208	0.095042	0.500022
C83	C	1.228074	-0.464366	0.000007
C84	C	1.728074	0.035634	0.500007
C85	C	1.145317	-0.487350	-0.000001
C86	C	1.645317	0.012650	0.499999
C87	C	1.144194	-0.546741	0.000013
C88	C	1.644194	-0.046741	0.500013
N89	N	1.061442	-0.569728	-0.000004
N90	N	1.561442	-0.069728	0.499996
C91	C	0.979818	-0.533312	-0.000007
C92	C	1.479818	-0.033312	0.499993
C93	C	1.151066	-0.184382	0.000072
C94	C	1.651066	0.315618	0.500072
C95	C	1.152194	-0.124979	0.000093
C96	C	1.652194	0.375021	0.500093
C97	C	0.987811	-0.111549	0.000074
C98	C	1.487811	0.388451	0.500074
C99	C	0.986684	-0.170953	0.000060
C100	C	1.486684	0.329047	0.500060
C101	C	1.068314	-0.207369	0.000055
C102	C	1.568314	0.292631	0.500055
C103	C	0.977460	-0.658059	-0.000018
C104	C	1.477460	-0.158059	0.499982
C105	C	0.976341	-0.717466	-0.000019
C106	C	1.476341	-0.217466	0.499981
C107	C	1.140724	-0.730890	-0.000006
C108	C	1.640724	-0.230890	0.499994
C109	C	1.141843	-0.671489	0.000001
C110	C	1.641843	-0.171489	0.500001
C111	C	1.060203	-0.635074	-0.000008
C112	C	1.560203	-0.135074	0.499992
O113	O	1.213469	-0.583218	0.000044
O114	O	1.713469	-0.083218	0.500044
O115	O	0.909339	-0.558327	-0.000033
O116	O	1.409339	-0.058327	0.499967
C117	C	1.229130	0.074753	0.000048
C118	C	1.729130	0.574753	0.500048
C119	C	1.329200	0.075956	0.000047
C120	C	1.829200	0.575956	0.500047
C121	C	1.056753	0.182895	0.000004
C122	C	1.556753	0.682895	0.500004
C123	C	1.057966	0.246118	-0.000017
C124	C	1.557966	0.746118	0.499983
N125	N	1.064244	0.078777	0.248785
N126	N	1.564244	0.578777	0.748785
N127	N	1.064298	0.078779	-0.248708
N128	N	1.564298	0.578779	0.251292
C129	C	1.002642	0.117434	0.701038
C130	C	1.502642	0.617434	1.201038
C131	C	1.125943	0.040125	0.701040
C132	C	1.625943	0.540125	1.201040
C133	C	1.125932	0.040123	0.600544
C134	C	1.625932	0.540123	1.100544
C135	C	1.064276	0.078778	0.550291
C136	C	1.564276	0.578778	1.050291
C137	C	1.002631	0.117435	0.600533
C138	C	1.502631	0.617435	1.100533
C139	C	1.187582	0.001470	0.550295
C140	C	1.687582	0.501470	1.050295
C141	C	1.187575	0.001467	0.449793
C142	C	1.687575	0.501467	0.949793
C143	C	1.125914	0.040120	0.399537
C144	C	1.625914	0.540120	0.899537
C145	C	1.064266	0.078778	0.449786
C146	C	1.564266	0.578778	0.949786
C147	C	1.002610	0.117433	0.399532
C148	C	1.502610	0.617433	0.899532
C149	C	0.940956	0.156089	0.449779
C150	C	1.440956	0.656089	0.949779
C151	C	0.940970	0.156088	0.550278
C152	C	1.440970	0.656088	1.050278
C153	C	1.125900	0.040122	0.299039
C154	C	1.625900	0.540122	0.799039
C155	C	1.002599	0.117434	0.299027
C156	C	1.502599	0.617434	0.799027
H157	H	0.810936	-0.012615	0.000055
H158	H	1.310936	0.487385	0.500055
H159	H	0.831931	-0.456199	-0.000009
H160	H	1.331931	0.043801	0.499991
H161	H	0.681121	-0.066179	0.000077
H162	H	1.181121	0.433821	0.500077
H163	H	0.952442	0.148906	0.741951
H164	H	1.452442	0.648906	1.241951
H165	H	1.294549	-0.494014	-0.000003
H166	H	1.794549	0.005986	0.499997
H167	H	0.618003	0.225795	-0.000031
H168	H	1.118003	0.725795	0.499969
C169	C	0.810651	-0.338040	0.000016
C170	C	1.310651	0.161960	0.500016
H171	H	0.761215	-0.360246	0.000016
H172	H	1.261215	0.139754	0.500016
H173	H	0.807665	-0.314572	-0.055653
H174	H	1.307665	0.185428	0.444347
H175	H	0.807666	-0.314603	0.055710
H176	H	1.307666	0.185397	0.555710
C177	C	0.873140	0.198610	0.394498
C178	C	1.373140	0.698610	0.894498
H179	H	0.836427	0.221635	0.438811
H180	H	1.336427	0.721635	0.938811
H181	H	0.835802	0.178080	0.355301
H182	H	1.335802	0.678080	0.855301
H183	H	0.905363	0.222357	0.355285
H184	H	1.405363	0.722357	0.855285
C185	C	1.320242	-0.379689	0.000016
C186	C	1.820242	0.120311	0.500016
H187	H	1.368685	-0.409893	0.000001
H188	H	1.868685	0.090107	0.500001
H189	H	1.324111	-0.356804	0.055693
H190	H	1.824111	0.143196	0.555693
H191	H	1.324101	-0.356789	-0.055669
H192	H	1.824101	0.143211	0.444331
H193	H	0.890775	0.187560	0.591195
H194	H	1.390775	0.687560	1.091195
H195	H	0.908948	-0.736176	-0.000021
H196	H	1.408948	-0.236176	0.499979
C197	C	1.193759	-0.002392	0.756316
C198	C	1.693759	0.497608	1.256316
H199	H	1.184933	0.003142	0.823366
H200	H	1.684933	0.503142	1.323366
H201	H	1.253866	0.003860	0.739830
H202	H	1.753866	0.503860	1.239830
H203	H	1.184301	-0.040414	0.739866
H204	H	1.684301	0.459586	1.239866
C205	C	0.895653	-0.196230	0.000038
C206	C	1.395653	0.303770	0.500038
H207	H	0.847206	-0.166029	0.000032
H208	H	1.347206	0.333971	0.500032
H209	H	0.891780	-0.219138	0.055705
H210	H	1.391780	0.280862	0.555705
H211	H	0.891804	-0.219109	-0.055657
H212	H	1.391804	0.280891	0.444343
C213	C	1.255398	-0.041045	0.605573
C214	C	1.755398	0.458955	1.105573
H215	H	1.246566	-0.035513	0.672622
H216	H	1.746566	0.464487	1.172622
H217	H	1.315506	-0.034790	0.589093
H218	H	1.815506	0.465210	1.089093
H219	H	1.245947	-0.079068	0.589118
H220	H	1.745947	0.420932	1.089118
C221	C	1.255381	-0.041056	0.394530
C222	C	1.755381	0.458944	0.894530
H223	H	1.292097	-0.064080	0.438854
H224	H	1.792097	0.435920	0.938854
H225	H	1.292718	-0.020530	0.355303
H226	H	1.792718	0.479470	0.855303
H227	H	1.223152	-0.064803	0.355349
H228	H	1.723152	0.435197	0.855349
H229	H	1.176101	0.008652	0.258132
H230	H	1.676101	0.508652	0.758132
H231	H	0.770257	0.175610	-0.000013
H232	H	1.270257	0.675610	0.499987
H233	H	0.921348	-0.081887	0.000073
H234	H	1.421348	0.418113	0.500073
C235	C	1.243224	-0.099700	0.000117
C236	C	1.743224	0.400300	0.500117
H237	H	1.232214	-0.059105	0.000129
H238	H	1.732214	0.440895	0.500129
H239	H	1.276820	-0.112188	-0.055556
H240	H	1.776820	0.387812	0.444444
H241	H	1.276795	-0.112207	0.055807
H242	H	1.776795	0.387793	0.555807
C243	C	0.500294	-0.083210	0.000095
C244	C	1.000294	0.416790	0.500095
H245	H	0.435958	-0.076533	0.000084
H246	H	0.935958	0.423467	0.500084
H247	H	0.520304	-0.104342	0.055777
H248	H	1.020304	0.395658	0.555777
H249	H	0.520312	-0.104335	-0.055585
H250	H	1.020312	0.395665	0.444415
H251	H	0.358269	-0.018049	0.000086
H252	H	0.858269	0.481951	0.500086
C253	C	0.300967	0.184826	0.000012
C254	C	0.800967	0.684826	0.500012
H255	H	0.239841	0.176643	0.000024
H256	H	0.739841	0.676643	0.500024
H257	H	0.311770	0.206329	-0.055670
H258	H	0.811770	0.706329	0.444330
H259	H	0.311768	0.206321	0.055692
H260	H	0.811768	0.706321	0.555692
H261	H	1.209230	-0.652774	0.000020
H262	H	1.709230	-0.152774	0.500020
H263	H	1.217544	-0.214029	0.000074
H264	H	1.717544	0.285971	0.500074
H265	H	0.447423	0.223733	-0.000027
H266	H	0.947423	0.723733	0.499973
H267	H	1.207180	-0.760551	0.000001
H268	H	1.707180	-0.260551	0.500001
H269	H	0.910981	-0.628416	-0.000025
H270	H	1.410981	-0.128416	0.499975
H271	H	0.952388	0.148910	0.258117
H272	H	1.452388	0.648910	0.758117
