data_functionalizedCrystal
_audit_creation_method	'MofGen! by Chris Wilmer'
_symmetry_space_group_name_H-M	'P1'
_symmetry_Int_Tables_number	1
_symmetry_cell_setting	triclinic
loop_
_symmetry_equiv_pos_as_xyz
  x,y,z
_cell_length_a	10.654550
_cell_length_b	27.732048
_cell_length_c	9.730223
_cell_angle_alpha	89.990670
_cell_angle_beta	89.999957
_cell_angle_gamma	83.563793
loop_
_atom_site_label
_atom_site_type_symbol
_atom_site_fract_x
_atom_site_fract_y
_atom_site_fract_z
O1	O	1.664985	0.067886	-0.114204
O2	O	1.299235	0.074354	-0.114231
O3	O	1.493469	0.000794	-0.114191
O4	O	1.470751	0.141446	-0.114245
O5	O	1.493457	0.000792	0.114389
O6	O	1.299223	0.074352	0.114349
O7	O	1.664973	0.067884	0.114376
Zn8	Zn	1.482096	0.071117	0.150654
Zn9	Zn	1.482112	0.071120	-0.150509
O10	O	1.470738	0.141444	0.114335
C11	C	1.252451	0.073878	0.000056
C12	C	1.113067	0.072457	0.000047
C13	C	1.031761	0.115768	0.000034
C14	C	0.900796	0.114430	0.000059
C15	C	0.932457	0.026466	0.000103
C16	C	1.063419	0.027805	0.000088
C17	C	1.492986	-0.017217	0.000103
C18	C	1.491550	-0.070881	0.000114
C19	C	1.597290	-0.409038	0.000052
C20	C	1.591962	-0.610730	0.000032
O21	O	1.688653	-0.641384	-0.000021
N22	N	1.476789	-0.630571	0.000025
C23	C	1.362940	-0.599986	0.000014
O24	O	1.264855	-0.621490	-0.000007
C25	C	1.368269	-0.398294	0.000023
C26	C	1.483449	-0.378456	0.000044
C27	C	1.712461	-0.389199	0.000071
C28	C	1.713792	-0.338779	0.000084
C29	C	1.599951	-0.308197	0.000076
C30	C	1.484780	-0.328036	0.000057
C31	C	1.254421	-0.367709	0.000002
C32	C	1.255764	-0.317284	0.000001
C33	C	1.370944	-0.297446	0.000022
C34	C	1.372271	-0.247034	0.000062
N35	N	1.487444	-0.227193	0.000069
C36	C	1.601284	-0.257774	0.000076
C37	C	1.360150	-0.705877	0.000011
C38	C	1.358817	-0.756300	0.000011
C39	C	1.587840	-0.767041	0.000027
C40	C	1.589171	-0.716617	0.000037
C41	C	1.475323	-0.686036	0.000018
C42	C	1.604070	-0.151888	0.000104
C43	C	1.605391	-0.101463	0.000122
C44	C	1.376369	-0.090726	0.000098
C45	C	1.375047	-0.141147	0.000088
C46	C	1.488908	-0.171727	0.000086
O47	O	1.275631	-0.216352	0.000100
O48	O	1.699354	-0.236261	0.000067
C49	C	1.595959	-0.459458	0.000039
C50	C	1.480788	-0.479296	0.000020
C51	C	1.366947	-0.448715	0.000012
C52	C	1.479455	-0.529719	0.000020
C53	C	1.593296	-0.560301	0.000027
C54	C	1.708469	-0.540460	0.000034
C55	C	1.709799	-0.490040	0.000046
C56	C	1.251774	-0.468556	0.000005
C57	C	1.250453	-0.518976	-0.000005
C58	C	1.364293	-0.549558	0.000002
C59	C	1.711757	0.068360	0.000086
C60	C	1.851141	0.069781	0.000086
C61	C	1.471221	0.159455	0.000039
C62	C	1.472657	0.213118	0.000018
N63	N	1.482094	0.071115	0.356191
N64	N	1.482124	0.071118	-0.356046
C65	C	1.568130	0.038557	0.428135
C66	C	1.568142	0.038557	0.572018
C67	C	1.396079	0.103678	0.572000
C68	C	1.396062	0.103675	0.428120
H69	H	1.129623	-0.007466	0.000102
H70	H	1.699189	-0.085314	0.000142
O71	O	1.312393	0.135324	0.641662
C72	C	1.141773	0.199933	0.626457
C73	C	1.236460	0.164111	0.547399
H74	H	1.080374	0.223223	0.550280
H75	H	1.079377	0.178864	0.693803
H76	H	1.195540	0.224254	0.693832
H77	H	1.182796	0.139781	0.479949
H78	H	1.298854	0.185210	0.480140
H79	H	1.638180	0.012044	0.369573
H80	H	1.072179	0.152126	0.000011
O81	O	0.821994	0.156547	-0.000019
C82	C	0.804420	0.243936	0.000010
C83	C	0.893806	0.196273	0.000064
H84	H	0.862444	0.276066	0.000107
H85	H	0.742326	0.245542	-0.095664
H86	H	0.742303	0.245484	0.095657
H87	H	0.956003	0.194693	-0.095518
H88	H	0.955814	0.194687	0.095801
H89	H	0.892018	-0.009888	0.000145
H90	H	1.807584	-0.322632	0.000095
H91	H	1.638198	0.012044	0.630590
O92	O	1.714788	-0.181519	0.000168
C93	C	1.942085	-0.186838	0.000120
C94	C	1.816793	-0.153225	0.000069
H95	H	2.024589	-0.163976	0.000011
H96	H	1.947275	-0.210711	0.095800
H97	H	1.947139	-0.210716	-0.095521
H98	H	1.811655	-0.129317	0.095645
H99	H	1.811656	-0.129385	-0.095675
H100	H	1.805169	-0.414094	0.000072
H101	H	1.682961	-0.700469	0.000053
H102	H	1.325995	0.130189	0.369539
O103	O	1.249434	-0.676243	0.000066
C104	C	1.022137	-0.670924	-0.000014
C105	C	1.147428	-0.704537	-0.000055
H106	H	0.939633	-0.693786	-0.000142
H107	H	1.016939	-0.647065	0.095670
H108	H	1.017092	-0.647032	-0.095650
H109	H	1.152558	-0.728459	0.095516
H110	H	1.152574	-0.728364	-0.095803
H111	H	1.680533	-0.791950	0.000034
H112	H	1.160629	-0.383852	-0.000023
O113	O	1.263194	-0.160442	0.000322
C114	C	1.128787	-0.211168	0.118658
C115	C	1.255494	-0.189345	0.118597
H116	H	1.122531	-0.234548	0.214257
H117	H	1.047605	-0.180664	0.118749
H118	H	1.122458	-0.234474	0.022941
H119	H	1.261946	-0.166044	0.214297
H120	H	1.336615	-0.219871	0.118433
O121	O	1.265709	-0.061063	-0.000099
C122	C	1.070438	-0.036413	-0.118612
C123	C	1.195699	-0.070044	-0.118527
H124	H	1.013811	-0.043656	-0.214365
H125	H	1.013596	-0.043684	-0.023031
H126	H	1.091221	0.003027	-0.118543
H127	H	1.175031	-0.109496	-0.118645
H128	H	1.252503	-0.062732	-0.214099
O129	O	1.821719	-0.470796	-0.000187
C130	C	2.017913	-0.464581	-0.118555
C131	C	1.891190	-0.486393	-0.118474
H132	H	2.074128	-0.477191	-0.214165
H133	H	1.999407	-0.423287	-0.118641
H134	H	2.074059	-0.477146	-0.022849
H135	H	1.834980	-0.473865	-0.214164
H136	H	1.909785	-0.527684	-0.118317
O137	O	1.138590	-0.538267	0.000216
C138	C	1.004166	-0.588990	0.118535
C139	C	1.130875	-0.567169	0.118490
H140	H	0.997898	-0.612370	0.214135
H141	H	0.922985	-0.558486	0.118615
H142	H	0.997846	-0.612297	0.022818
H143	H	1.137318	-0.543867	0.214190
H144	H	1.211994	-0.597696	0.118338
O145	O	1.141267	-0.438802	0.000186
C146	C	1.009800	-0.375676	0.118663
C147	C	1.135017	-0.409334	0.118604
H148	H	1.004695	-0.351849	0.214408
H149	H	1.004672	-0.351758	0.023074
H150	H	0.927284	-0.398532	0.118587
H151	H	1.217604	-0.386516	0.118728
H152	H	1.140035	-0.433254	0.214184
H153	H	1.163052	-0.292386	-0.000016
H154	H	1.265026	-0.772447	0.000018
H155	H	1.801162	-0.565368	0.000046
