data_functionalizedCrystal
_audit_creation_method	'MofGen! by Chris Wilmer'
_symmetry_space_group_name_H-M	'P1'
_symmetry_Int_Tables_number	1
_symmetry_cell_setting	triclinic
loop_
_symmetry_equiv_pos_as_xyz
  x,y,z
_cell_length_a	6.817900
_cell_length_b	13.168018
_cell_length_c	14.858572
_cell_angle_alpha	99.381526
_cell_angle_beta	104.524003
_cell_angle_gamma	105.756000
loop_
_atom_site_label
_atom_site_type_symbol
_atom_site_fract_x
_atom_site_fract_y
_atom_site_fract_z
V1	V	-4.058289	-0.149602	-0.302870
O2	O	-4.024746	0.006492	-0.283880
O3	O	-4.029265	-0.295964	-0.313516
O4	O	-4.014663	-0.147606	-0.429159
O5	O	-4.039449	-0.142893	-0.167437
V6	V	-4.538788	-0.130895	-0.285126
O7	O	-4.326182	-0.190636	-0.341792
O8	O	-4.721093	-0.089860	-0.246203
O9	O	-4.344606	0.015468	-0.274479
O10	O	-4.689729	-0.286988	-0.304115
O11	O	-4.675025	-0.137603	-0.420558
O12	O	-4.359208	-0.132890	-0.158836
C13	C	-3.878825	-0.331635	-0.312020
C14	C	-3.936413	-0.451290	-0.321567
C15	C	-4.063293	-0.635506	-0.421527
C16	C	-4.009190	-0.523080	-0.412561
C17	C	-3.917745	-0.491933	-0.239534
C18	C	-3.971848	-0.604359	-0.248501
C19	C	-4.044618	-0.676142	-0.339500
C20	C	-4.098707	-0.788570	-0.348465
C21	C	-4.007276	-0.757421	-0.175440
C22	C	-3.953174	-0.644995	-0.166473
C23	C	-3.860197	-0.142388	-0.459533
C24	C	-3.905940	-0.141725	-0.562858
C25	C	-4.073358	-0.139302	-0.941217
C26	C	-4.026769	-0.139976	-0.835946
C27	C	-3.989651	-0.140515	-0.752042
C28	C	-3.943058	-0.141187	-0.646763
C29	C	-4.158388	0.051133	-0.275973
C30	C	-4.080039	0.170787	-0.266432
C31	C	-4.177016	-0.138112	-0.128458
C32	C	-4.110511	-0.138769	-0.025131
H33	H	-3.893927	-0.586535	-0.092384
H34	H	-4.024414	-0.490001	-0.479356
H35	H	-3.992057	-0.790517	-0.108647
H36	H	-4.122522	-0.693953	-0.495622
H37	H	-3.858513	-0.433469	-0.165447
H38	H	-4.157949	-0.847015	-0.422562
