data_functionalizedCrystal
_audit_creation_method	'MofGen! by Chris Wilmer'
_symmetry_space_group_name_H-M	'P1'
_symmetry_Int_Tables_number	1
_symmetry_cell_setting	triclinic
loop_
_symmetry_equiv_pos_as_xyz
  x,y,z
_cell_length_a	14.519709
_cell_length_b	14.519709
_cell_length_c	7.681481
_cell_angle_alpha	84.246308
_cell_angle_beta	95.739713
_cell_angle_gamma	83.680145
loop_
_atom_site_label
_atom_site_type_symbol
_atom_site_fract_x
_atom_site_fract_y
_atom_site_fract_z
O1	O	1.215175	0.129595	-0.146206
O2	O	1.715175	0.629595	0.353794
O3	O	0.946695	0.143835	-0.146260
O4	O	1.446695	0.643835	0.353740
O5	O	1.088055	0.002475	-0.146216
O6	O	1.588055	0.502475	0.353784
O7	O	1.073816	0.270954	-0.146250
O8	O	1.573816	0.770954	0.353750
O9	O	1.105453	-0.014963	0.146647
O10	O	1.605453	0.485037	0.646647
O11	O	0.964094	0.126396	0.146603
O12	O	1.464094	0.626396	0.646603
O13	O	1.232574	0.112156	0.146657
O14	O	1.732574	0.612156	0.646657
Zn15	Zn	1.101097	0.116508	0.193128
Zn16	Zn	1.601097	0.616508	0.693128
Zn17	Zn	1.078173	0.139483	-0.192732
Zn18	Zn	1.578173	0.639483	0.307268
O19	O	1.091215	0.253516	0.146613
O20	O	1.591215	0.753516	0.646613
C21	C	0.921034	0.134452	0.000164
C22	C	1.421034	0.634452	0.500164
C23	C	0.818652	0.132465	0.000144
C24	C	1.318652	0.632465	0.500144
C25	C	0.443761	0.125141	0.000225
C26	C	0.943761	0.625141	0.500225
C27	C	0.548068	0.127175	0.000202
C28	C	1.048068	0.627175	0.500202
C29	C	0.631203	0.128803	0.000183
C30	C	1.131203	0.628803	0.500183
C31	C	0.735516	0.130837	0.000163
C32	C	1.235516	0.630837	0.500163
C33	C	1.096091	-0.040604	0.000216
C34	C	1.596091	0.459396	0.500216
C35	C	1.094102	-0.142985	0.000216
C36	C	1.594102	0.357015	0.500216
C37	C	1.086780	-0.517878	0.000169
C38	C	1.586780	-0.017878	0.500169
C39	C	1.088813	-0.413571	0.000183
C40	C	1.588813	0.086429	0.500183
C41	C	1.090441	-0.330435	0.000194
C42	C	1.590441	0.169565	0.500194
C43	C	1.092475	-0.226121	0.000205
C44	C	1.592475	0.273879	0.500205
C45	C	1.258235	0.121539	0.000228
C46	C	1.758235	0.621539	0.500228
C47	C	1.360616	0.123527	0.000237
C48	C	1.860616	0.623527	0.500237
C49	C	1.083179	0.296595	0.000177
C50	C	1.583179	0.796595	0.500177
C51	C	1.085166	0.398977	0.000165
C52	C	1.585166	0.898977	0.500165
N53	N	1.116748	0.100827	0.456468
N54	N	1.616748	0.600827	0.956468
N55	N	1.062528	0.155157	-0.456071
N56	N	1.562528	0.655157	0.043929
H57	H	1.007181	0.210612	0.468715
H58	H	1.507181	0.710612	0.968715
H59	H	1.172106	0.045374	0.531691
H60	H	1.672106	0.545374	1.031691
