data_functionalizedCrystal
_audit_creation_method	'MofGen! by Chris Wilmer'
_symmetry_space_group_name_H-M	'P1'
_symmetry_Int_Tables_number	1
_symmetry_cell_setting	triclinic
loop_
_symmetry_equiv_pos_as_xyz
  x,y,z
_cell_length_a	17.038272
_cell_length_b	14.421503
_cell_length_c	15.944564
_cell_angle_alpha	89.996887
_cell_angle_beta	92.692254
_cell_angle_gamma	89.997443
loop_
_atom_site_label
_atom_site_type_symbol
_atom_site_fract_x
_atom_site_fract_y
_atom_site_fract_z
O1	O	1.037433	-0.077000	-0.182390
O2	O	1.537433	0.423000	0.317610
O3	O	0.809802	-0.077027	-0.179494
O4	O	1.309802	0.422973	0.320506
O5	O	0.929828	-0.077004	-0.059112
O6	O	1.429828	0.422996	0.440888
O7	O	0.917407	-0.077023	-0.302773
O8	O	1.417407	0.422977	0.197227
O9	O	0.929809	0.077219	-0.059129
O10	O	1.429809	0.577219	0.440871
O11	O	0.809782	0.077196	-0.179512
O12	O	1.309782	0.577196	0.320488
O13	O	1.037413	0.077223	-0.182408
O14	O	1.537413	0.577223	0.317592
Cu15	Cu	0.923596	0.091292	-0.180962
Cu16	Cu	1.423596	0.591292	0.319038
Cu17	Cu	0.923619	-0.091096	-0.180941
Cu18	Cu	1.423619	0.408904	0.319059
O19	O	0.917387	0.077200	-0.302791
O20	O	1.417387	0.577200	0.197209
C21	C	0.780663	0.000081	-0.176869
C22	C	1.280663	0.500081	0.323131
C23	C	0.693867	0.000071	-0.169009
C24	C	1.193867	0.500071	0.330991
N25	N	0.923585	0.219573	-0.180976
N26	N	1.423585	0.719573	0.319024
N27	N	0.923636	-0.219377	-0.180920
N28	N	1.423636	0.280623	0.319080
C29	C	0.643777	0.000066	-0.241167
C30	C	1.143777	0.500066	0.258833
C31	C	0.562224	0.000079	-0.233777
C32	C	1.062224	0.500079	0.266223
C33	C	0.530762	0.000091	-0.154229
C34	C	1.030762	0.500091	0.345771
C35	C	0.580859	0.000099	-0.082067
C36	C	1.080859	0.500099	0.417933
C37	C	0.662410	0.000092	-0.089457
C38	C	1.162410	0.500092	0.410543
C39	C	0.284996	0.000118	-0.128121
C40	C	0.784996	0.500118	0.371879
C41	C	0.203438	0.000122	-0.120736
C42	C	0.703438	0.500122	0.379264
C43	C	0.184809	0.000104	-0.272447
C44	C	0.684809	0.500104	0.227553
C45	C	0.266363	0.000092	-0.279830
C46	C	0.766363	0.500092	0.220170
C47	C	0.316452	0.000104	-0.207667
C48	C	0.816452	0.500104	0.292333
C49	C	0.447402	0.000102	-0.146674
C50	C	0.947402	0.500102	0.353326
C51	C	0.399810	0.000100	-0.215223
C52	C	0.899810	0.500100	0.284777
C53	C	1.066553	0.000113	-0.185034
C54	C	1.566553	0.500113	0.314966
C55	C	1.153348	0.000117	-0.192893
C56	C	1.653348	0.500117	0.307107
C57	C	0.929301	0.000108	-0.027790
C58	C	1.429301	0.500108	0.472210
C59	C	0.927750	0.000109	0.065566
C60	C	1.427750	0.500109	0.565566
C61	C	0.868075	0.469216	-0.236614
C62	C	1.368075	0.969216	0.263386
C63	C	0.938725	0.531025	-0.257965
C64	C	1.438725	1.031025	0.242035
C65	C	0.923604	0.408734	-0.180958
C66	C	1.423604	0.908734	0.319042
C67	C	0.852972	0.531018	-0.159627
C68	C	1.352972	1.031018	0.340373
C69	C	0.923616	0.591456	-0.180941
C70	C	1.423616	1.091456	0.319059
C71	C	0.994290	0.469183	-0.202349
C72	C	1.494290	0.969183	0.297651
C73	C	0.908490	0.469171	-0.103975
C74	C	1.408490	0.969171	0.396025
C75	C	0.979192	0.530952	-0.125298
C76	C	1.479192	1.030952	0.374702
C77	C	0.923596	0.303473	-0.180969
C78	C	1.423596	0.803473	0.319031
C79	C	0.923632	0.696715	-0.180929
C80	C	1.423632	1.196715	0.319071
C81	C	0.849641	0.000087	0.285999
C82	C	1.349641	0.500087	0.785999
C83	C	0.885895	0.076134	0.344418
C84	C	1.385895	0.576134	0.844418
C85	C	0.924943	0.000102	0.236492
C86	C	1.424943	0.500102	0.736492
C87	C	0.885933	-0.075919	0.344417
C88	C	1.385933	0.424081	0.844417
C89	C	0.922227	0.000091	0.401597
C90	C	1.422227	0.500091	0.901597
C91	C	0.961219	0.076211	0.293681
C92	C	1.461219	0.576211	0.793681
C93	C	0.961246	-0.075910	0.293675
C94	C	1.461246	0.424090	0.793675
C95	C	0.997555	0.000155	0.352072
C96	C	1.497555	0.500155	0.852072
C97	C	0.926506	0.000109	0.141378
C98	C	1.426506	0.500109	0.641378
C99	C	0.920670	0.000091	0.496709
C100	C	1.420670	0.500091	0.996709
C101	C	0.917903	0.000087	0.665887
C102	C	1.417903	0.500087	1.165887
C103	C	0.919423	0.000084	0.572528
C104	C	1.419423	0.500084	1.072528
H105	H	0.669386	0.000056	-0.305943
H106	H	1.169386	0.500056	0.194057
F107	F	0.299840	0.000074	-0.364496
F108	F	0.799840	0.500074	0.135504
F109	F	1.040643	0.566166	-0.063771
F110	F	1.540643	1.066166	0.436229
H111	H	0.951519	0.558194	-0.323061
H112	H	1.451519	1.058194	0.176939
H113	H	0.854037	0.140417	0.366792
H114	H	1.354037	0.640417	0.866792
F115	F	1.079320	0.000218	0.389577
F116	F	1.579320	0.500218	0.889577
H117	H	0.521444	0.000074	-0.292536
H118	H	1.021444	0.500074	0.207464
H119	H	0.555236	0.000122	-0.017297
H120	H	1.055236	0.500122	0.482703
H121	H	0.895674	0.441980	-0.038898
H122	H	1.395674	0.941980	0.461102
F123	F	0.774892	0.566523	-0.136054
F124	F	1.274892	1.066523	0.363946
H125	H	0.787139	0.000156	0.257154
H126	H	1.287139	0.500156	0.757154
H127	H	0.703193	0.000096	-0.030699
H128	H	1.203193	0.500096	0.469301
H129	H	0.144018	0.000096	-0.331197
H130	H	0.644018	0.500096	0.168803
H131	H	0.993034	0.140572	0.271411
H132	H	1.493034	0.640572	0.771411
F133	F	1.072389	0.433834	-0.226020
F134	F	1.572389	0.933834	0.273980
F135	F	1.002852	-0.159937	0.264401
F136	F	1.502852	0.340063	0.764401
H137	H	0.325769	0.000129	-0.069360
H138	H	0.825769	0.500129	0.430640
F139	F	0.433296	0.000092	-0.299881
F140	F	0.933296	0.500092	0.200119
F141	F	0.169957	0.000151	-0.036066
F142	F	0.669957	0.500151	0.463934
F143	F	0.413911	0.000111	-0.062016
F144	F	0.913911	0.500111	0.437984
F145	F	0.844296	-0.159945	0.373661
F146	F	1.344296	0.340055	0.873661
H147	H	0.821163	0.442109	-0.283724
H148	H	1.321163	0.942109	0.216276
