data_functionalizedCrystal
_audit_creation_method	'MofGen! by Chris Wilmer'
_symmetry_space_group_name_H-M	'P1'
_symmetry_Int_Tables_number	1
_symmetry_cell_setting	triclinic
loop_
_symmetry_equiv_pos_as_xyz
  x,y,z
_cell_length_a	10.489741
_cell_length_b	10.489741
_cell_length_c	14.048226
_cell_angle_alpha	89.996252
_cell_angle_beta	90.002859
_cell_angle_gamma	95.460826
loop_
_atom_site_label
_atom_site_type_symbol
_atom_site_fract_x
_atom_site_fract_y
_atom_site_fract_z
O1	O	-0.179971	1.694057	-0.079094
O2	O	0.320029	2.194057	0.420906
O3	O	-0.196864	1.322861	-0.079108
O4	O	0.303136	1.822861	0.420892
O5	O	-0.002819	1.516906	-0.079102
O6	O	0.497181	2.016906	0.420898
O7	O	-0.374015	1.500013	-0.079099
O8	O	0.125985	2.000013	0.420901
O9	O	-0.002808	1.516882	0.079219
O10	O	0.497192	2.016882	0.579219
O11	O	-0.196852	1.322838	0.079214
O12	O	0.303148	1.822838	0.579214
O13	O	-0.179959	1.694033	0.079228
O14	O	0.320041	2.194033	0.579228
Zn15	Zn	-0.188404	1.508432	0.104358
Zn16	Zn	0.311596	2.008432	0.604358
Zn17	Zn	-0.188419	1.508463	-0.104237
Zn18	Zn	0.311581	2.008463	0.395763
O19	O	-0.374003	1.499989	0.079223
O20	O	0.125997	1.999989	0.579223
C21	C	-0.195582	1.275318	0.000051
C22	C	0.304418	1.775318	0.500051
C23	C	-0.191765	1.133688	0.000046
C24	C	0.308235	1.633688	0.500046
C25	C	-0.068300	1.065548	0.000053
C26	C	0.431700	1.565548	0.500053
C27	C	-0.126629	0.973433	-0.078005
C28	C	0.373371	1.473433	0.421995
C29	C	-0.126647	0.973444	0.078088
C30	C	0.373353	1.473444	0.578088
C31	C	-0.250145	1.043439	-0.078077
C32	C	0.249855	1.543439	0.421923
C33	C	-0.250145	1.043459	0.078085
C34	C	0.249855	1.543459	0.578085
C35	C	-0.308564	0.951371	0.000008
C36	C	0.191436	1.451371	0.500008
C37	C	-0.421541	1.501277	0.000063
C38	C	0.078459	2.001277	0.500063
C39	C	-0.563170	1.505094	0.000064
C40	C	-0.063170	2.005094	0.500064
C41	C	-0.631310	1.628559	0.000062
C42	C	-0.131310	2.128559	0.500062
C43	C	-0.723425	1.570223	0.078119
C44	C	-0.223425	2.070223	0.578119
C45	C	-0.723415	1.570218	-0.077973
C46	C	-0.223415	2.070218	0.422027
C47	C	-0.653420	1.446708	0.078186
C48	C	-0.153420	1.946708	0.578186
C49	C	-0.653400	1.446719	-0.077976
C50	C	-0.153400	1.946719	0.422024
C51	C	-0.745487	1.388294	0.000101
C52	C	-0.245487	1.888294	0.500101
C53	C	0.044718	1.515618	0.000056
C54	C	0.544718	2.015618	0.500056
C55	C	0.186348	1.511801	0.000048
C56	C	0.686348	2.011801	0.500048
C57	C	-0.181241	1.741577	0.000067
C58	C	0.318759	2.241577	0.500067
C59	C	-0.185058	1.883206	0.000066
C60	C	0.314942	2.383206	0.500066
N61	N	-0.188392	1.508420	0.246718
N62	N	0.311608	2.008420	0.746718
N63	N	-0.188420	1.508485	-0.246598
N64	N	0.311580	2.008485	0.253402
C65	C	-0.102505	1.594370	0.296539
C66	C	0.397495	2.094370	0.796539
C67	C	-0.102505	1.594379	0.396196
C68	C	0.397495	2.094379	0.896196
C69	C	-0.188398	1.508442	0.446032
C70	C	0.311602	2.008442	0.946032
C71	C	-0.274289	1.422483	0.396205
C72	C	0.225711	1.922483	0.896205
C73	C	-0.274282	1.422469	0.296549
C74	C	0.225718	1.922469	0.796549
C75	C	-0.274299	1.422520	0.603919
C76	C	0.225701	1.922520	1.103919
C77	C	-0.274307	1.422535	0.703582
C78	C	0.225693	1.922535	1.203582
C79	C	-0.102521	1.594429	0.703566
C80	C	0.397479	2.094429	1.203566
C81	C	-0.102514	1.594416	0.603911
C82	C	0.397486	2.094416	1.103911
C83	C	-0.188407	1.508457	0.554090
C84	C	0.311593	2.008457	1.054090
H85	H	-0.302349	1.074276	-0.144144
H86	H	0.197651	1.574276	0.355856
Br87	Br	0.014062	1.711023	0.463813
Br88	Br	0.514062	2.211023	0.963813
H89	H	-0.074394	0.942429	-0.144000
H90	H	0.425606	1.442429	0.356000
Br91	Br	-0.039535	0.921794	0.188080
Br92	Br	0.460465	1.421794	0.688080
Br93	Br	-0.337141	1.095193	0.188087
Br94	Br	0.162859	1.595193	0.688087
H95	H	-0.794911	1.286691	0.000140
H96	H	-0.294911	1.786691	0.500140
Br97	Br	0.014043	1.711054	0.536273
Br98	Br	0.514043	2.211054	1.036273
Br99	Br	0.014040	1.711091	0.771182
Br100	Br	0.514040	2.211091	1.271182
H101	H	-0.622363	1.394532	-0.143976
H102	H	-0.122363	1.894532	0.356024
Br103	Br	-0.548555	1.797750	0.000191
Br104	Br	-0.048555	2.297750	0.500191
Br105	Br	-0.390881	1.305901	0.771208
Br106	Br	0.109119	1.805901	1.271208
Br107	Br	-0.775116	1.657277	0.188114
Br108	Br	-0.275116	2.157277	0.688114
H109	H	-0.410168	0.901947	-0.000033
H110	H	0.089832	1.401947	0.499967
H111	H	-0.754403	1.622491	-0.143963
H112	H	-0.254403	2.122491	0.356037
H113	H	-0.032567	1.664355	0.255969
H114	H	0.467433	2.164355	0.755969
H115	H	-0.622582	1.394500	0.144251
H116	H	-0.122582	1.894500	0.644251
H117	H	-0.344238	1.352519	0.563358
H118	H	0.155762	1.852519	1.063358
H119	H	-0.344221	1.352505	0.436786
H120	H	0.155779	1.852505	0.936786
Br121	Br	-0.390840	1.305808	0.228935
Br122	Br	0.109160	1.805808	0.728935
H123	H	0.033196	1.115238	-0.000045
H124	H	0.533196	1.615238	0.499955
