data_functionalizedCrystal
_audit_creation_method	'MofGen! by Chris Wilmer'
_symmetry_space_group_name_H-M	'P1'
_symmetry_Int_Tables_number	1
_symmetry_cell_setting	triclinic
loop_
_symmetry_equiv_pos_as_xyz
  x,y,z
_cell_length_a	8.597187
_cell_length_b	8.559649
_cell_length_c	7.681452
_cell_angle_alpha	82.935289
_cell_angle_beta	91.324580
_cell_angle_gamma	77.625088
loop_
_atom_site_label
_atom_site_type_symbol
_atom_site_fract_x
_atom_site_fract_y
_atom_site_fract_z
O1	O	2.017891	0.195814	0.452554
O2	O	1.564207	0.220496	0.383729
O3	O	1.831019	-0.024380	0.424203
O4	O	1.751079	0.440691	0.412080
O5	O	1.853950	0.002625	0.134824
O6	O	1.587138	0.247501	0.094349
O7	O	2.040822	0.222820	0.163175
Zn8	Zn	1.817621	0.239448	0.082817
Zn9	Zn	1.787408	0.203867	0.464087
O10	O	1.774010	0.467696	0.122700
C11	C	1.518128	0.232852	0.230309
C12	C	1.346668	0.229416	0.204298
C13	C	1.848542	-0.070398	0.280436
C14	C	1.866574	-0.247749	0.283181
C15	C	2.086900	0.210463	0.316598
C16	C	2.258360	0.213898	0.342621
C17	C	1.756486	0.513713	0.266472
C18	C	1.738454	0.691063	0.263738
N19	N	1.838251	0.263730	-0.177387
N20	N	1.766792	0.179573	0.724293
H21	H	1.291095	0.240088	0.065985
N22	N	1.331957	0.199783	0.525850
H23	H	1.448121	0.204315	0.519081
H24	H	1.322725	0.093837	0.594203
H25	H	1.614968	-0.225644	0.244999
H26	H	1.911197	0.349624	-0.241520
N27	N	1.670143	0.065798	-0.190769
H28	H	1.672475	0.068566	-0.059678
H29	H	1.716986	-0.047394	-0.215793
H30	H	1.990069	-0.331049	0.301902
