data_functionalizedCrystal
_audit_creation_method	'MofGen! by Chris Wilmer'
_symmetry_space_group_name_H-M	'P1'
_symmetry_Int_Tables_number	1
_symmetry_cell_setting	triclinic
loop_
_symmetry_equiv_pos_as_xyz
  x,y,z
_cell_length_a	14.853569
_cell_length_b	10.868271
_cell_length_c	14.853567
_cell_angle_alpha	89.998659
_cell_angle_beta	96.364752
_cell_angle_gamma	90.002343
loop_
_atom_site_label
_atom_site_type_symbol
_atom_site_fract_x
_atom_site_fract_y
_atom_site_fract_z
O1	O	1.196364	0.102255	-0.117711
O2	O	0.933904	0.102269	-0.131731
O3	O	1.072145	0.102265	0.006508
O4	O	1.058123	0.102259	-0.255951
O5	O	1.072133	-0.102379	0.006514
O6	O	0.933893	-0.102376	-0.131726
O7	O	1.196352	-0.102389	-0.117706
Zn8	Zn	1.065121	-0.134874	-0.124715
Zn9	Zn	1.065136	0.134754	-0.124722
O10	O	1.058112	-0.102386	-0.255946
C11	C	0.900310	-0.000052	-0.131093
C12	C	0.800226	-0.000046	-0.129189
N13	N	1.065117	-0.318888	-0.124710
C14	C	0.763850	-0.000039	-0.046178
C15	C	0.742560	-0.000057	-0.210410
C16	C	0.648526	-0.000059	-0.208624
C17	C	0.612150	-0.000052	-0.125613
C18	C	0.669807	-0.000044	-0.044389
C19	C	0.590862	-0.000079	-0.289847
C20	C	0.496821	-0.000082	-0.288064
C21	C	0.460443	-0.000067	-0.205052
C22	C	0.518107	-0.000057	-0.123824
C23	C	0.481730	-0.000051	-0.040813
C24	C	0.539393	-0.000033	0.040415
C25	C	0.633429	-0.000029	0.038623
C26	C	0.366407	-0.000070	-0.203259
C27	C	0.387688	-0.000056	-0.039024
C28	C	1.065131	-0.569894	-0.124720
C29	C	1.065120	-0.430217	-0.124717
C30	C	1.229947	-0.000066	-0.118344
C31	C	1.330030	-0.000064	-0.120249
C32	C	1.071504	-0.000053	0.040100
C33	C	1.069600	-0.000043	0.140183
N34	N	1.065147	0.318768	-0.124720
C35	C	1.058753	-0.000065	-0.289537
C36	C	1.060657	-0.000067	-0.389621
C37	C	0.979434	-0.000061	0.552718
C38	C	1.143667	-0.000070	0.573998
C39	C	1.145457	-0.000063	0.479964
C40	C	1.064234	-0.000057	0.422303
C41	C	0.981222	-0.000058	0.458675
C42	C	1.228468	-0.000074	0.443585
C43	C	1.230262	-0.000068	0.349545
C44	C	1.149038	-0.000053	0.291882
C45	C	1.066022	-0.000053	0.328260
C46	C	0.984800	-0.000047	0.270599
C47	C	0.901783	-0.000038	0.306974
C48	C	0.899998	-0.000043	0.401012
C49	C	1.150822	-0.000048	0.197845
C50	C	0.986587	-0.000044	0.176556
H51	H	0.358078	-0.000044	0.028574
Cl52	Cl	0.493651	-0.000036	0.144768
Cl53	Cl	0.705922	-0.000021	0.140729
H54	H	0.810802	-0.000020	0.019956
H55	H	0.920445	-0.000034	0.129613
Cl56	Cl	0.795644	-0.000028	0.446748
H57	H	0.319463	-0.000096	-0.269395
H58	H	0.835651	-0.000042	0.260014
H59	H	1.209794	-0.000084	0.620951
Cl60	Cl	1.330569	-0.000108	0.516076
Cl61	Cl	0.424341	-0.000094	-0.390177
Cl62	Cl	0.788292	-0.000068	-0.314761
Cl63	Cl	0.875075	-0.000038	0.598445
H64	H	1.297859	-0.000074	0.319937
H65	H	1.218413	-0.000064	0.168232
H66	H	0.620487	-0.000092	-0.357430
