data_functionalizedCrystal
_audit_creation_method	'MofGen! by Chris Wilmer'
_symmetry_space_group_name_H-M	'P1'
_symmetry_Int_Tables_number	1
_symmetry_cell_setting	triclinic
loop_
_symmetry_equiv_pos_as_xyz
  x,y,z
_cell_length_a	18.215407
_cell_length_b	19.077068
_cell_length_c	18.215399
_cell_angle_alpha	92.268164
_cell_angle_beta	89.980167
_cell_angle_gamma	92.327501
loop_
_atom_site_label
_atom_site_type_symbol
_atom_site_fract_x
_atom_site_fract_y
_atom_site_fract_z
Zn1	Zn	1.113288	-0.280200	-0.427869
Zn2	Zn	1.446621	0.053133	-0.094535
Zn3	Zn	1.779955	0.386466	0.238798
Zn4	Zn	1.108246	-0.397902	-0.309739
Zn5	Zn	1.441580	-0.064569	0.023594
Zn6	Zn	1.774913	0.268765	0.356927
Zn7	Zn	0.990220	-0.280223	-0.304817
Zn8	Zn	1.323553	0.053110	0.028516
Zn9	Zn	1.656886	0.386443	0.361850
Zn10	Zn	0.985238	-0.397863	-0.432763
Zn11	Zn	1.318571	-0.064530	-0.099429
Zn12	Zn	1.651905	0.268804	0.233904
O13	O	1.049248	-0.339047	-0.368797
O14	O	1.382581	-0.005714	-0.035464
O15	O	1.715915	0.327619	0.297870
O16	O	1.215603	-0.295821	-0.412210
O17	O	1.548936	0.037513	-0.078877
O18	O	1.882270	0.370846	0.254456
O19	O	1.092565	-0.382318	-0.206103
O20	O	1.425898	-0.048984	0.127230
O21	O	1.759231	0.284349	0.460564
O22	O	1.010740	-0.181729	-0.317032
O23	O	1.344073	0.151604	0.016301
O24	O	1.677406	0.484937	0.349635
O25	O	1.211899	-0.382295	-0.325421
O26	O	1.545232	-0.048962	0.007912
O27	O	1.878566	0.284371	0.341245
O28	O	1.101157	-0.181712	-0.407437
O29	O	1.434491	0.151621	-0.074104
O30	O	1.767824	0.484954	0.259229
O31	O	1.005851	-0.295860	-0.202487
O32	O	1.339184	0.037474	0.130847
O33	O	1.672518	0.370807	0.464180
O34	O	0.886575	-0.295822	-0.321777
O35	O	1.219908	0.037512	0.011556
O36	O	1.553241	0.370845	0.344889
O37	O	1.002249	-0.382229	-0.535097
O38	O	1.335583	-0.048895	-0.201763
O39	O	1.668916	0.284438	0.131570
O40	O	0.882915	-0.382251	-0.415778
O41	O	1.216248	-0.048918	-0.082445
O42	O	1.549582	0.284416	0.250888
O43	O	1.096327	-0.295783	-0.531501
O44	O	1.429660	0.037551	-0.198168
O45	O	1.762994	0.370884	0.135166
O46	O	1.087734	-0.496388	-0.330167
O47	O	1.421068	-0.163055	0.003167
O48	O	1.754401	0.170279	0.336500
O49	O	0.997361	-0.496359	-0.420551
O50	O	1.330694	-0.163026	-0.087218
O51	O	1.664027	0.170307	0.246115
C52	C	0.858042	-0.339035	-0.368775
C53	C	1.191376	-0.005702	-0.035442
C54	C	1.524709	0.327632	0.297891
C55	C	0.776243	-0.339047	-0.368784
C56	C	1.109576	-0.005714	-0.035451
C57	C	1.442909	0.327620	0.297883
C58	C	0.586159	-0.384121	-0.417674
C59	C	0.919493	-0.050788	-0.084341
C60	C	1.252826	0.282545	0.248992
C61	C	0.509301	-0.384124	-0.417684
C62	C	0.842634	-0.050790	-0.084350
C63	C	1.175967	0.282543	0.248983
C64	C	0.513088	-0.293986	-0.319936
C65	C	0.846421	0.039348	0.013397
C66	C	1.179755	0.372681	0.346731
C67	C	0.589945	-0.293980	-0.319931
C68	C	0.923279	0.039353	0.013403
C69	C	1.256612	0.372686	0.346736
C70	C	0.626479	-0.339052	-0.368799
C71	C	0.959812	-0.005719	-0.035466
C72	C	1.293146	0.327614	0.297868
C73	C	0.472763	-0.339060	-0.368814
C74	C	0.806096	-0.005726	-0.035480
C75	C	1.139429	0.327607	0.297853
C76	C	0.389429	-0.339062	-0.368823
C77	C	0.722762	-0.005728	-0.035490
C78	C	1.056096	0.327605	0.297843
C79	C	0.709818	-0.339050	-0.368791
C80	C	1.043152	-0.005716	-0.035457
C81	C	1.376485	0.327617	0.297876
C82	C	1.041480	-0.521911	-0.376440
C83	C	1.374813	-0.188578	-0.043107
C84	C	1.708146	0.144755	0.290226
C85	C	1.038224	-0.600141	-0.379735
C86	C	1.371557	-0.266808	-0.046401
C87	C	1.704891	0.066525	0.286932
C88	C	1.083783	-0.636886	-0.334263
C89	C	1.417117	-0.303552	-0.000930
C90	C	1.750450	0.029781	0.332404
C91	C	1.080725	-0.710391	-0.337366
C92	C	1.414059	-0.377058	-0.004033
C93	C	1.747392	-0.043724	0.329301
C94	C	1.032104	-0.747151	-0.385937
C95	C	1.365437	-0.413818	-0.052604
C96	C	1.698770	-0.080484	0.280729
C97	C	0.986542	-0.710401	-0.431414
C98	C	1.319875	-0.377068	-0.098081
C99	C	1.653209	-0.043735	0.235253
C100	C	0.989604	-0.636897	-0.428314
C101	C	1.322938	-0.303564	-0.094981
C102	C	1.656271	0.029769	0.238352
C103	C	1.017899	-0.966985	-0.400254
C104	C	1.351232	-0.633652	-0.066920
C105	C	1.684566	-0.300319	0.266413
C106	C	1.014839	-1.040495	-0.403348
C107	C	1.348172	-0.707161	-0.070015
C108	C	1.681505	-0.373828	0.263318
C109	C	1.109023	-1.040479	-0.309301
C110	C	1.442357	-0.707146	0.024032
C111	C	1.775690	-0.373813	0.357366
C112	C	1.112078	-0.966974	-0.306202
C113	C	1.445412	-0.633640	0.027131
C114	C	1.778745	-0.300307	0.360464
C115	C	1.066520	-0.930231	-0.351682
C116	C	1.399853	-0.596897	-0.018348
C117	C	1.733186	-0.263564	0.314985
N118	N	1.028975	-0.822285	-0.389109
N119	N	1.362308	-0.488952	-0.055775
N120	N	1.695642	-0.155619	0.277558
N121	N	1.069652	-0.855098	-0.348514
N122	N	1.402986	-0.521764	-0.015180
N123	N	1.736319	-0.188431	0.318153
C124	C	1.241200	-0.339060	-0.368819
C125	C	1.574534	-0.005726	-0.035486
C126	C	1.907867	0.327607	0.297848
C127	C	1.322999	-0.339065	-0.368828
C128	C	1.656332	-0.005732	-0.035495
C129	C	1.989666	0.327602	0.297838
C130	C	1.049295	-0.338999	-0.560748
C131	C	1.382628	-0.005665	-0.227415
C132	C	1.715962	0.327668	0.105919
C133	C	1.049315	-0.338978	-0.642546
C134	C	1.382648	-0.005645	-0.309213
C135	C	1.715981	0.327689	0.024121
C136	C	1.057067	-0.155469	-0.361140
C137	C	1.390400	0.177864	-0.027806
C138	C	1.723733	0.511198	0.305527
C139	C	1.060398	-0.077239	-0.357877
C140	C	1.393732	0.256094	-0.024543
C141	C	1.727065	0.589428	0.308790
C142	C	1.098320	-0.293923	-0.828867
C143	C	1.431653	0.039410	-0.495534
C144	C	1.764986	0.372743	-0.162201
C145	C	1.098329	-0.293903	-0.905725
C146	C	1.431663	0.039430	-0.572392
C147	C	1.764996	0.372764	-0.239058
C148	C	1.000366	-0.383924	-0.909458
C149	C	1.333700	-0.050590	-0.576125
C150	C	1.667033	0.282743	-0.242791
C151	C	1.000354	-0.383940	-0.832601
C152	C	1.333687	-0.050607	-0.499268
C153	C	1.667021	0.282726	-0.165935
C154	C	1.049335	-0.338941	-0.792308
C155	C	1.382668	-0.005608	-0.458975
C156	C	1.716001	0.327726	-0.125641
C157	C	1.049357	-0.338904	-0.946023
C158	C	1.382690	-0.005571	-0.612689
C159	C	1.716024	0.327763	-0.279356
C160	C	1.049367	-0.338882	-1.029355
C161	C	1.382700	-0.005549	-0.696022
C162	C	1.716034	0.327784	-0.362689
C163	C	1.049324	-0.338962	-0.708970
C164	C	1.382657	-0.005628	-0.375636
C165	C	1.715990	0.327705	-0.042303
C166	C	1.049246	-0.339045	-0.177591
C167	C	1.382579	-0.005711	0.155743
C168	C	1.715912	0.327622	0.489076
C169	C	1.049377	-0.338867	-0.095785
C170	C	1.382710	-0.005534	0.237549
C171	C	1.716043	0.327800	0.570882
H172	H	0.476476	-0.420822	-0.457484
H173	H	0.809809	-0.087489	-0.124151
H174	H	1.143142	0.245844	0.209183
C175	C	0.396952	-0.253970	-0.276541
C176	C	0.730285	0.079363	0.056792
C177	C	1.063618	0.412697	0.390125
C178	C	0.472927	-0.244447	-0.266219
C179	C	0.806261	0.088886	0.067114
C180	C	1.139594	0.422219	0.400448
H181	H	0.372161	-0.223389	-0.243374
H182	H	0.705494	0.109945	0.089959
H183	H	1.038828	0.443278	0.423293
H184	H	0.384815	-0.243730	-0.325573
H185	H	0.718149	0.089603	0.007761
H186	H	1.051482	0.422937	0.341094
H187	H	0.382352	-0.301249	-0.267665
H188	H	0.715685	0.032084	0.065668
H189	H	1.049019	0.365418	0.399001
H190	H	0.487528	-0.197169	-0.275100
H191	H	0.820861	0.136164	0.058233
H192	H	1.154194	0.469497	0.391566
H193	H	0.485069	-0.254682	-0.217176
H194	H	0.818402	0.078651	0.116157
H195	H	1.151735	0.411984	0.449491
H196	H	0.615903	-0.420820	-0.457468
H197	H	0.949236	-0.087487	-0.124135
H198	H	1.282569	0.245847	0.209199
C199	C	0.893759	-0.703028	-0.524070
C200	C	1.227093	-0.369695	-0.190737
C201	C	1.560426	-0.036362	0.142597
C202	C	0.933098	-0.750805	-0.484809
C203	C	1.266432	-0.417472	-0.151476
C204	C	1.599765	-0.084139	0.181858
H205	H	0.860768	-0.727972	-0.557037
H206	H	1.194101	-0.394639	-0.223703
H207	H	1.527434	-0.061306	0.109630
H208	H	0.866820	-0.674405	-0.490774
H209	H	1.200153	-0.341071	-0.157441
H210	H	1.533486	-0.007738	0.175892
H211	H	0.927013	-0.674313	-0.551035
H212	H	1.260346	-0.340980	-0.217702
H213	H	1.593680	-0.007647	0.115631
H214	H	0.899845	-0.779517	-0.457839
H215	H	1.233178	-0.446184	-0.124506
H216	H	1.566511	-0.112850	0.208828
H217	H	0.960040	-0.779441	-0.518109
H218	H	1.293373	-0.446108	-0.184776
H219	H	1.626706	-0.112774	0.148558
H220	H	0.960459	-0.420598	-0.802834
H221	H	1.293792	-0.087265	-0.469501
H222	H	1.627126	0.246068	-0.136167
C223	C	0.585975	-0.204886	-0.223302
C224	C	0.919308	0.128448	0.110032
C225	C	1.252642	0.461781	0.443365
C226	C	0.634271	-0.244439	-0.266200
C227	C	0.967604	0.088894	0.067133
C228	C	1.300937	0.422228	0.400466
H229	H	0.613341	-0.174305	-0.190131
H230	H	0.946675	0.159029	0.143202
H231	H	1.280008	0.492362	0.476535
H232	H	0.557154	-0.178003	-0.254287
H233	H	0.890487	0.155330	0.079046
H234	H	1.223820	0.488663	0.412380
H235	H	0.554684	-0.235526	-0.196383
H236	H	0.888018	0.097807	0.136950
H237	H	1.221351	0.431141	0.470283
H238	H	0.665558	-0.213798	-0.293123
H239	H	0.998891	0.119535	0.040210
H240	H	1.332225	0.452868	0.373544
H241	H	0.663105	-0.271323	-0.235211
H242	H	0.996438	0.062010	0.098122
H243	H	1.329771	0.395344	0.431456
C244	C	0.922059	-1.033131	-0.496019
C245	C	1.255392	-0.699798	-0.162685
C246	C	1.588726	-0.366464	0.170648
C247	C	0.961397	-1.080903	-0.456750
C248	C	1.294730	-0.747570	-0.123416
C249	C	1.628064	-0.414236	0.209917
H250	H	0.889072	-1.058079	-0.528987
H251	H	1.222406	-0.724746	-0.195654
H252	H	1.555739	-0.391412	0.137680
H253	H	0.895114	-1.004507	-0.462728
H254	H	1.228447	-0.671173	-0.129395
H255	H	1.561781	-0.337840	0.203939
H256	H	0.955314	-1.004416	-0.522983
H257	H	1.288647	-0.671083	-0.189649
H258	H	1.621981	-0.337749	0.143684
H259	H	0.928142	-1.109615	-0.429781
H260	H	1.261475	-0.776281	-0.096448
H261	H	1.594809	-0.442948	0.236886
H262	H	0.988343	-1.109539	-0.490045
H263	H	1.321677	-0.776206	-0.156711
H264	H	1.655010	-0.442872	0.176622
H265	H	0.952506	-0.606981	-0.465343
H266	H	1.285839	-0.273647	-0.132010
H267	H	1.619173	0.059686	0.201324
C268	C	1.144001	-1.063172	-0.185676
C269	C	1.477335	-0.729839	0.147658
C270	C	1.810668	-0.396506	0.480991
C271	C	1.159104	-1.080872	-0.259320
C272	C	1.492437	-0.747539	0.074013
C273	C	1.825770	-0.414206	0.407347
H274	H	1.174919	-1.088114	-0.154822
H275	H	1.508253	-0.754781	0.178512
H276	H	1.841586	-0.421447	0.511845
H277	H	1.152787	-1.014142	-0.176882
H278	H	1.486120	-0.680809	0.156452
H279	H	1.819454	-0.347475	0.489785
H280	H	1.094056	-1.075269	-0.175376
H281	H	1.427389	-0.741936	0.157957
H282	H	1.760722	-0.408602	0.491290
H283	H	1.209048	-1.068771	-0.269621
H284	H	1.542381	-0.735438	0.063713
H285	H	1.875715	-0.402104	0.397046
H286	H	1.150324	-1.129914	-0.268118
H287	H	1.483657	-0.796580	0.065216
H288	H	1.816990	-0.463247	0.398549
C289	C	1.087706	-0.793253	-0.241997
C290	C	1.421040	-0.459919	0.091336
C291	C	1.754373	-0.126586	0.424669
C292	C	1.130867	-0.750846	-0.287505
C293	C	1.464200	-0.417513	0.045829
C294	C	1.797533	-0.084179	0.379162
H295	H	1.118684	-0.818249	-0.211255
H296	H	1.452017	-0.484916	0.122079
H297	H	1.785351	-0.151582	0.455412
H298	H	1.056915	-0.764667	-0.212498
H299	H	1.390248	-0.431334	0.120836
H300	H	1.723581	-0.098001	0.454169
H301	H	1.058258	-0.825610	-0.271380
H302	H	1.391591	-0.492277	0.061953
H303	H	1.724925	-0.158944	0.395286
H304	H	1.160311	-0.718485	-0.258122
H305	H	1.493645	-0.385151	0.075212
H306	H	1.826978	-0.051818	0.408545
H307	H	1.161671	-0.779434	-0.317007
H308	H	1.495005	-0.446101	0.016326
H309	H	1.828338	-0.112767	0.349659
C310	C	1.011051	-0.884285	-0.495762
C311	C	1.344384	-0.550951	-0.162429
C312	C	1.677718	-0.217618	0.170905
C313	C	0.967813	-0.926609	-0.450241
C314	C	1.301147	-0.593275	-0.116907
C315	C	1.634480	-0.259942	0.216426
H316	H	0.980126	-0.859361	-0.526626
H317	H	1.313459	-0.526028	-0.193292
H318	H	1.646792	-0.192694	0.140041
H319	H	1.040437	-0.851870	-0.466397
H320	H	1.373770	-0.518537	-0.133064
H321	H	1.707104	-0.185203	0.200270
H322	H	1.041905	-0.912923	-0.525144
H323	H	1.375239	-0.579590	-0.191811
H324	H	1.708572	-0.246257	0.141522
H325	H	0.936963	-0.897970	-0.420854
H326	H	1.270296	-0.564636	-0.087521
H327	H	1.603629	-0.231303	0.245812
H328	H	0.938415	-0.959027	-0.479609
H329	H	1.271748	-0.625694	-0.146275
H330	H	1.605081	-0.292361	0.187058
C331	C	1.195146	-0.204934	-0.832900
C332	C	1.528479	0.128400	-0.499566
C333	C	1.861812	0.461733	-0.166233
C334	C	1.152151	-0.244454	-0.784576
C335	C	1.485485	0.088879	-0.451242
C336	C	1.818818	0.422213	-0.117909
H337	H	1.228375	-0.174389	-0.805556
H338	H	1.561708	0.158945	-0.472222
H339	H	1.895041	0.492278	-0.138889
H340	H	1.221996	-0.235592	-0.864157
H341	H	1.555330	0.097741	-0.530824
H342	H	1.888663	0.431075	-0.197490
H343	H	1.164221	-0.178009	-0.861751
H344	H	1.497555	0.155325	-0.528417
H345	H	1.830888	0.488658	-0.195084
H346	H	1.183075	-0.271383	-0.755728
H347	H	1.516409	0.061950	-0.422395
H348	H	1.849742	0.395283	-0.089062
H349	H	1.125298	-0.213792	-0.753305
H350	H	1.458632	0.119542	-0.419972
H351	H	1.791965	0.452875	-0.086639
C352	C	1.112594	-0.199202	-0.988199
C353	C	1.445928	0.134131	-0.654866
C354	C	1.779261	0.467464	-0.321532
C355	C	1.152175	-0.244414	-0.945908
C356	C	1.485508	0.088919	-0.612574
C357	C	1.818841	0.422252	-0.279241
H358	H	1.145838	-0.168645	-1.013000
H359	H	1.479171	0.164689	-0.679667
H360	H	1.812505	0.498022	-0.346334
H361	H	1.083438	-0.225998	-1.023197
H362	H	1.416772	0.107335	-0.689863
H363	H	1.750105	0.440669	-0.356530
H364	H	1.081672	-0.172293	-0.957077
H365	H	1.415006	0.161040	-0.623744
H366	H	1.748339	0.494374	-0.290410
H367	H	1.183093	-0.271328	-0.977030
H368	H	1.516426	0.062006	-0.643697
H369	H	1.849760	0.395339	-0.310364
H370	H	1.181343	-0.217616	-0.910906
H371	H	1.514677	0.115718	-0.577572
H372	H	1.848010	0.449051	-0.244239
H373	H	1.151670	-0.937045	-0.266652
H374	H	1.485003	-0.603712	0.066682
H375	H	1.818337	-0.270379	0.400015
C376	C	1.120646	-0.614315	-0.208726
C377	C	1.453979	-0.280982	0.124607
C378	C	1.787312	0.052352	0.457940
C379	C	1.137230	-0.596483	-0.280870
C380	C	1.470563	-0.263150	0.052463
C381	C	1.803897	0.070184	0.385797
H382	H	1.153647	-0.589376	-0.175765
H383	H	1.486980	-0.256043	0.157568
H384	H	1.820313	0.077291	0.490901
H385	H	1.071712	-0.602311	-0.197409
H386	H	1.405045	-0.268978	0.135924
H387	H	1.738378	0.064356	0.469258
H388	H	1.125344	-0.663352	-0.204076
H389	H	1.458677	-0.330018	0.129257
H390	H	1.792010	0.003315	0.462591
H391	H	1.132527	-0.547447	-0.285522
H392	H	1.465860	-0.214114	0.047812
H393	H	1.799193	0.119220	0.381145
H394	H	1.186176	-0.608482	-0.292191
H395	H	1.519509	-0.275149	0.041143
H396	H	1.852843	0.058184	0.374476
C397	C	0.956891	-0.423874	-1.028932
C398	C	1.290225	-0.090541	-0.695599
C399	C	1.623558	0.242793	-0.362266
C400	C	0.946534	-0.433391	-0.953752
C401	C	1.279868	-0.100057	-0.620418
C402	C	1.613201	0.233276	-0.287085
H403	H	0.923660	-0.454418	-1.056275
H404	H	1.256993	-0.121085	-0.722941
H405	H	1.590327	0.212249	-0.389608
H406	H	0.948133	-0.376587	-1.039553
H407	H	1.281466	-0.043254	-0.706219
H408	H	1.614800	0.290079	-0.372886
H409	H	1.005904	-0.434174	-1.041958
H410	H	1.339238	-0.100841	-0.708625
H411	H	1.672571	0.232492	-0.375291
H412	H	0.897522	-0.423085	-0.940725
H413	H	1.230856	-0.089752	-0.607392
H414	H	1.564189	0.243581	-0.274058
H415	H	0.955287	-0.480688	-0.943127
H416	H	1.288620	-0.147355	-0.609793
H417	H	1.621954	0.185979	-0.276460
