data_functionalizedCrystal
_audit_creation_method	'MofGen! by Chris Wilmer'
_symmetry_space_group_name_H-M	'P1'
_symmetry_Int_Tables_number	1
_symmetry_cell_setting	triclinic
loop_
_symmetry_equiv_pos_as_xyz
  x,y,z
_cell_length_a	19.805407
_cell_length_b	18.050589
_cell_length_c	19.805399
_cell_angle_alpha	89.976299
_cell_angle_beta	89.983114
_cell_angle_gamma	90.028221
loop_
_atom_site_label
_atom_site_type_symbol
_atom_site_fract_x
_atom_site_fract_y
_atom_site_fract_z
Zn1	Zn	1.034709	-0.295666	-0.382745
Zn2	Zn	1.034626	-0.419862	-0.269567
Zn3	Zn	0.921529	-0.295690	-0.269569
Zn4	Zn	0.921484	-0.419819	-0.382713
O5	O	0.978087	-0.357759	-0.326148
O6	O	1.129415	-0.312149	-0.367743
O7	O	1.019607	-0.403418	-0.174850
O8	O	0.936597	-0.191762	-0.284596
O9	O	1.129353	-0.403395	-0.284592
O10	O	1.019750	-0.191745	-0.367746
O11	O	0.936516	-0.312189	-0.174852
O12	O	0.826807	-0.312148	-0.284566
O13	O	0.936519	-0.403322	-0.477434
O14	O	0.826773	-0.403345	-0.367693
O15	O	1.019706	-0.312108	-0.477457
O16	O	1.019563	-0.523781	-0.284562
O17	O	0.936438	-0.523749	-0.367690
C18	C	0.802231	-0.357745	-0.326127
C19	C	0.726999	-0.357757	-0.326133
C20	C	0.691655	-0.405315	-0.369347
C21	C	0.620967	-0.405316	-0.369357
C22	C	0.585623	-0.357763	-0.326148
C23	C	0.620972	-0.310200	-0.282933
C24	C	0.691659	-0.310195	-0.282927
C25	C	0.335899	-0.310216	-0.282955
C26	C	0.265207	-0.310226	-0.282962
C27	C	0.265206	-0.405337	-0.369385
C28	C	0.335893	-0.405332	-0.369379
C29	C	0.371236	-0.357767	-0.326166
C30	C	0.447884	-0.357765	-0.326157
C31	C	0.508976	-0.357768	-0.326153
C32	C	0.978005	-0.550711	-0.326137
C33	C	0.978032	-0.633257	-0.326155
C34	C	0.932873	-0.832718	-0.371344
C35	C	0.916378	-0.882158	-0.309581
C36	C	0.978099	-0.784387	-0.326164
C37	C	0.994627	-0.882029	-0.387934
C38	C	0.978162	-0.930373	-0.326178
C39	C	0.961571	-0.832741	-0.264368
C40	C	1.039849	-0.832607	-0.342762
C41	C	1.023377	-0.882025	-0.280957
C42	C	0.978061	-0.700289	-0.326157
C43	C	0.978200	-1.014469	-0.326178
C44	C	1.154630	-0.357774	-0.326171
C45	C	1.229862	-0.357780	-0.326180
C46	C	0.978117	-0.357708	-0.502691
C47	C	0.978129	-0.357686	-0.577923
C48	C	0.978187	-0.164054	-0.326175
C49	C	0.978230	-0.081508	-0.326186
C50	C	0.934876	-0.310179	-0.613268
C51	C	0.934885	-0.310164	-0.683956
C52	C	0.978152	-0.357654	-0.719299
C53	C	1.021407	-0.405166	-0.683949
C54	C	1.021394	-0.405184	-0.613262
C55	C	1.021461	-0.405096	-0.969023
C56	C	1.021472	-0.405074	-1.039715
C57	C	0.934952	-0.310077	-1.039717
C58	C	0.934939	-0.310095	-0.969030
C59	C	0.978191	-0.357609	-0.933686
C60	C	0.978180	-0.357626	-0.857038
C61	C	0.978167	-0.357634	-0.795946
C62	C	0.978096	-0.357757	-0.150292
C63	C	0.978215	-0.357570	-0.075061
H64	H	0.364667	-0.444058	-0.404562
O65	O	1.063445	-0.451229	-0.578853
C66	C	1.107189	-0.408965	-0.537987
H67	H	1.083347	-0.352684	-0.527402
H68	H	1.157358	-0.400804	-0.565236
C69	C	1.148691	-0.518973	-0.483838
C70	C	1.119405	-0.449850	-0.470833
H71	H	1.156229	-0.544194	-0.442416
H72	H	1.119222	-0.547448	-0.511372
H73	H	1.190495	-0.512163	-0.506547
H74	H	1.077598	-0.456662	-0.448132
H75	H	1.148867	-0.421378	-0.443294
H76	H	0.720427	-0.444041	-0.404530
O77	O	1.102118	-0.806585	-0.359409
C78	C	1.127731	-0.763625	-0.305768
H79	H	1.101849	-0.780555	-0.256708
H80	H	1.117612	-0.702500	-0.316132
C81	C	1.236128	-0.755602	-0.359700
C82	C	1.204344	-0.776401	-0.299443
H83	H	1.283388	-0.763480	-0.355800
H84	H	1.218872	-0.784543	-0.395841
H85	H	1.227689	-0.704667	-0.368331
H86	H	1.212777	-0.827338	-0.290818
H87	H	1.221603	-0.747469	-0.263301
H88	H	0.899647	-0.271503	-0.584497
O89	O	1.063414	-0.451223	-0.934592
C90	C	1.054140	-0.441050	-0.864622
H91	H	1.001916	-0.416726	-0.854963
H92	H	1.094305	-0.401511	-0.844572
C93	C	1.124440	-0.546079	-0.840188
C94	C	1.060296	-0.516210	-0.828324
H95	H	1.128240	-0.592440	-0.817797
H96	H	1.130691	-0.552931	-0.887328
H97	H	1.157903	-0.513123	-0.823480
H98	H	1.026834	-0.549161	-0.845040
H99	H	1.054039	-0.509365	-0.781186
H100	H	0.236422	-0.444064	-0.404574
H101	H	0.894571	-0.811067	-0.409498
H102	H	0.592190	-0.271478	-0.247754
H103	H	0.899661	-0.271482	-0.712731
H104	H	0.899709	-0.271421	-0.940257
O105	O	1.063522	-0.451281	-1.073943
C106	C	1.101707	-0.493212	-1.027592
H107	H	1.073974	-0.495795	-0.977199
H108	H	1.153128	-0.466029	-1.020084
C109	C	1.145480	-0.569071	-1.117067
C110	C	1.111415	-0.572250	-1.055175
H111	H	1.151472	-0.617825	-1.134082
H112	H	1.119756	-0.540821	-1.148296
H113	H	1.188327	-0.546416	-1.110802
H114	H	1.068566	-0.594897	-1.061443
H115	H	1.137132	-0.600506	-1.023948
H116	H	0.947556	-0.811180	-0.212121
H117	H	0.899732	-0.271390	-1.068502
H118	H	1.056632	-0.443836	-0.712731
H119	H	0.592193	-0.444043	-0.404545
H120	H	1.061650	-0.903539	-0.242711
O121	O	0.726023	-0.263920	-0.241043
C122	C	0.766957	-0.216017	-0.279648
H123	H	0.745677	-0.211507	-0.332965
H124	H	0.820522	-0.238977	-0.281938
C125	C	0.794195	-0.144306	-0.181214
C126	C	0.768055	-0.138761	-0.246699
H127	H	0.794875	-0.096652	-0.160889
H128	H	0.766619	-0.176580	-0.155204
H129	H	0.838830	-0.163442	-0.183132
H130	H	0.723418	-0.119635	-0.244779
H131	H	0.795623	-0.106481	-0.272707
O132	O	0.230978	-0.263956	-0.240969
C133	C	0.277329	-0.221983	-0.202816
H134	H	0.327729	-0.219446	-0.230537
H135	H	0.284817	-0.249099	-0.151365
C136	C	0.187859	-0.146049	-0.159145
C137	C	0.249760	-0.142927	-0.193196
H138	H	0.170853	-0.097284	-0.153208
H139	H	0.156631	-0.174328	-0.184847
H140	H	0.194108	-0.168649	-0.116273
H141	H	0.243510	-0.120336	-0.236070
H142	H	0.280987	-0.114642	-0.167500
H143	H	0.364666	-0.271491	-0.247763
H144	H	0.864187	-0.903940	-0.295555
O145	O	1.011361	-0.907946	-0.450193
C146	C	1.070671	-0.950819	-0.445598
H147	H	1.076712	-0.972138	-0.391750
H148	H	1.116158	-0.915229	-0.459541
C149	C	1.058434	-0.990745	-0.560620
C150	C	1.065850	-1.016935	-0.494484
H151	H	1.055462	-1.031527	-0.590777
H152	H	1.018477	-0.961859	-0.563717
H153	H	1.096341	-0.961087	-0.572230
H154	H	1.027939	-1.046584	-0.482872
H155	H	1.105801	-1.045828	-0.491386
