data_functionalizedCrystal
_audit_creation_method	'MofGen! by Chris Wilmer'
_symmetry_space_group_name_H-M	'P1'
_symmetry_Int_Tables_number	1
_symmetry_cell_setting	triclinic
loop_
_symmetry_equiv_pos_as_xyz
  x,y,z
_cell_length_a	16.109301
_cell_length_b	16.109304
_cell_length_c	9.130313
_cell_angle_alpha	89.998292
_cell_angle_beta	89.999196
_cell_angle_gamma	83.462059
loop_
_atom_site_label
_atom_site_type_symbol
_atom_site_fract_x
_atom_site_fract_y
_atom_site_fract_z
O1	O	1.103132	0.106867	-0.121697
O2	O	0.861070	0.120166	-0.121720
O3	O	0.988749	-0.007514	-0.121709
O4	O	0.975452	0.234547	-0.121708
O5	O	0.988741	-0.007518	0.121890
O6	O	0.861061	0.120162	0.121879
O7	O	1.103123	0.106863	0.121901
Cu8	Cu	0.982091	0.113513	0.144133
Cu9	Cu	0.982102	0.113517	-0.143951
O10	O	0.975444	0.234544	0.121891
C11	C	0.830091	0.119626	0.000077
C12	C	0.737795	0.118010	0.000068
C13	C	0.515524	0.190018	0.000085
C14	C	0.428803	0.188494	0.000095
C15	C	0.448676	0.037005	0.000088
C16	C	0.535395	0.038530	0.000089
C17	C	0.568816	0.115039	0.000080
C18	C	0.395377	0.111990	0.000089
C19	C	0.301351	0.110337	0.000099
C20	C	0.662848	0.116693	0.000073
C21	C	0.988206	-0.038491	0.000087
C22	C	0.986590	-0.130786	0.000077
C23	C	0.982861	-0.343122	-0.132703
C24	C	0.981335	-0.429842	-0.132702
C25	C	0.981330	-0.429843	0.132883
C26	C	0.982850	-0.343123	0.132880
C27	C	0.983620	-0.299766	0.000082
C28	C	0.980573	-0.473205	0.000086
C29	C	0.978919	-0.567231	0.000089
C30	C	0.985273	-0.205734	0.000080
C31	C	1.134102	0.107404	0.000102
C32	C	1.226398	0.109019	0.000101
C33	C	0.975987	0.265520	0.000091
C34	C	0.977603	0.357816	0.000092
N35	N	0.982090	0.113509	0.346755
N36	N	0.982109	0.113514	-0.346574
C37	C	1.038646	0.056996	0.423412
C38	C	1.038653	0.056996	0.576749
C39	C	0.925548	0.170030	0.576759
C40	C	0.925537	0.170025	0.423425
H41	H	0.421454	-0.025285	0.000104
H42	H	0.542732	0.252316	0.000089
H43	H	0.983486	-0.307822	-0.240836
H44	H	0.578788	-0.022530	0.000089
O45	O	0.377071	0.261351	-0.000167
C46	C	0.333592	0.390386	-0.126326
C47	C	0.392212	0.307894	-0.126231
H48	H	0.345825	0.428047	-0.228222
H49	H	0.265853	0.376209	-0.126414
H50	H	0.345740	0.428001	-0.024336
H51	H	0.380138	0.270239	-0.228204
H52	H	0.459932	0.322130	-0.126067
H53	H	0.879479	0.216045	0.361007
O54	O	0.870504	0.224846	0.651177
C55	C	0.725934	0.273545	0.698065
C56	C	0.788179	0.211405	0.613724
H57	H	0.659361	0.262711	0.667792
H58	H	0.735586	0.263842	0.820841
H59	H	0.736783	0.340134	0.667921
H60	H	0.777368	0.144791	0.643745
H61	H	0.778512	0.221181	0.490968
H62	H	0.980715	-0.465138	-0.240830
H63	H	0.983463	-0.307821	0.241017
H64	H	0.980704	-0.465155	0.241001
H65	H	1.084705	0.010977	0.639159
H66	H	1.084694	0.010976	0.360991
