data_functionalizedCrystal
_audit_creation_method	'MofGen! by Chris Wilmer'
_symmetry_space_group_name_H-M	'P1'
_symmetry_Int_Tables_number	1
_symmetry_cell_setting	triclinic
loop_
_symmetry_equiv_pos_as_xyz
  x,y,z
_cell_length_a	12.837943
_cell_length_b	9.016244
_cell_length_c	10.540539
_cell_angle_alpha	89.999933
_cell_angle_beta	90.322784
_cell_angle_gamma	90.006412
loop_
_atom_site_label
_atom_site_type_symbol
_atom_site_fract_x
_atom_site_fract_y
_atom_site_fract_z
O1	O	1.377904	0.123300	-0.330280
O2	O	1.075977	0.123310	-0.313964
O3	O	1.233829	0.123303	-0.138172
O4	O	1.220052	0.123307	-0.506072
O5	O	1.233806	-0.123378	-0.138174
O6	O	1.075954	-0.123371	-0.313966
O7	O	1.377880	-0.123381	-0.330281
Cu8	Cu	1.226915	-0.145900	-0.322124
Cu9	Cu	1.226943	0.145829	-0.322122
O10	O	1.220029	-0.123374	-0.506073
C11	C	1.037304	-0.000030	-0.308453
C12	C	0.922106	-0.000026	-0.292015
N13	N	1.226903	-0.351086	-0.322125
C14	C	0.682610	-0.000045	-0.489634
C15	C	0.574370	-0.000042	-0.474194
C16	C	0.597383	-0.000029	-0.245698
C17	C	0.705623	-0.000032	-0.261138
C18	C	0.748232	-0.000037	-0.383109
C19	C	0.856475	-0.000029	-0.398547
C20	C	0.879486	-0.000026	-0.170052
C21	C	0.771246	-0.000024	-0.154613
C22	C	1.142204	-0.586115	-0.415787
C23	C	1.142392	-0.414224	-0.416194
C24	C	1.335380	-0.413427	-0.364177
C25	C	1.334917	-0.585372	-0.364855
C26	C	1.204203	-0.585630	-0.186193
C27	C	1.201715	-0.413676	-0.186784
C28	C	1.416553	-0.000038	-0.335792
C29	C	1.531752	-0.000032	-0.352231
C30	C	1.232784	-0.000035	-0.090757
C31	C	1.229693	-0.000027	0.050531
N32	N	1.226963	0.351015	-0.322111
C33	C	1.221074	-0.000033	-0.553489
C34	C	1.224165	-0.000031	-0.694777
C35	C	1.111250	0.000531	0.246971
C36	C	1.114384	-0.000025	0.100008
C37	C	1.285172	-0.140895	0.106091
C38	C	1.281236	-0.141014	0.253068
C39	C	1.283608	0.139508	0.253330
C40	C	1.284670	0.141371	0.106232
H41	H	0.891165	-0.000036	-0.497863
Br42	Br	0.485312	-0.000063	-0.618770
H43	H	0.717303	-0.000047	-0.588948
Br44	Br	0.539537	-0.000048	-0.080178
H45	H	1.399993	-0.372526	-0.298312
Br46	Br	1.007432	-0.655058	-0.371206
Br47	Br	1.369304	-0.341631	-0.528305
H48	H	1.354822	-0.625461	-0.464380
H49	H	1.246298	0.246277	0.288984
Br50	Br	1.035400	-0.166381	0.306255
H51	H	0.736538	-0.000036	-0.055307
H52	H	1.400010	-0.626957	-0.300017
H53	H	1.240215	-0.246313	0.285772
Br54	Br	0.968551	0.000015	-0.025474
H55	H	1.126773	-0.629076	-0.149007
Br56	Br	1.068706	-0.345773	-0.134096
H57	H	1.061791	-0.372077	-0.389207
H58	H	1.065710	0.101550	0.280576
H59	H	1.369851	-0.146135	0.074433
H60	H	1.156643	-0.629308	-0.515797
Br61	Br	1.220911	-0.315621	0.042152
H62	H	1.266002	-0.626285	-0.116328
Br63	Br	1.041075	-0.168603	0.038450
Br64	Br	1.419450	-0.151689	0.317841
H65	H	1.244077	0.245581	0.069835
H66	H	1.157021	-0.373077	-0.516785
H67	H	1.259357	-0.370702	-0.112797
Br68	Br	1.041624	0.168283	0.036989
Br69	Br	1.424793	0.155560	0.050460
Br70	Br	1.422425	0.141087	0.316791
