data_functionalizedCrystal
_audit_creation_method	'MofGen! by Chris Wilmer'
_symmetry_space_group_name_H-M	'P1'
_symmetry_Int_Tables_number	1
_symmetry_cell_setting	triclinic
loop_
_symmetry_equiv_pos_as_xyz
  x,y,z
_cell_length_a	27.732048
_cell_length_b	14.519709
_cell_length_c	13.596369
_cell_angle_alpha	89.999709
_cell_angle_beta	89.989067
_cell_angle_gamma	96.838600
loop_
_atom_site_label
_atom_site_type_symbol
_atom_site_fract_x
_atom_site_fract_y
_atom_site_fract_z
O1	O	0.063362	-1.222766	-0.081675
O2	O	0.070824	-0.954159	-0.081706
O3	O	-0.003264	-1.096805	-0.081671
O4	O	0.137450	-1.080120	-0.081710
O5	O	-0.003268	-1.096791	0.081912
O6	O	0.070820	-0.954145	0.081877
O7	O	0.063358	-1.222752	0.081908
Zn8	Zn	0.067088	-1.088446	0.107865
Zn9	Zn	0.067094	-1.088465	-0.107663
O10	O	0.137446	-1.080106	0.081873
C11	C	0.070474	-0.919799	0.000082
C12	C	0.069432	-0.817435	0.000071
C13	C	-0.021274	-1.096448	0.000124
C14	C	-0.074934	-1.095393	0.000132
C15	C	0.063708	-1.257113	0.000119
C16	C	0.064750	-1.359476	0.000123
C17	C	-0.413378	-1.173048	0.000090
C18	C	-0.615057	-1.169135	0.000076
O19	O	-0.645973	-1.240145	0.000041
N20	N	-0.634585	-1.084552	0.000067
C21	C	-0.603690	-1.000941	0.000055
O22	O	-0.624927	-0.928909	0.000037
C23	C	-0.402012	-1.004855	0.000062
C24	C	-0.382487	-1.089444	0.000081
C25	C	-0.393853	-1.257630	0.000108
C26	C	-0.343436	-1.258607	0.000117
C27	C	-0.312545	-1.175003	0.000108
C28	C	-0.332071	-1.090421	0.000090
C29	C	-0.371118	-0.921246	0.000043
C30	C	-0.320696	-0.922232	0.000043
C31	C	-0.301171	-1.006820	0.000062
C32	C	-0.250763	-1.007794	0.000090
N33	N	-0.231235	-1.092377	0.000099
C34	C	-0.262126	-1.175981	0.000108
C35	C	-0.709574	-0.998893	0.000053
C36	C	-0.759993	-0.997914	0.000053
C37	C	-0.771356	-1.166108	0.000072
C38	C	-0.720936	-1.167086	0.000079
C39	C	-0.690045	-1.083476	0.000062
C40	C	-0.156247	-1.178028	0.000128
C41	C	-0.105825	-1.178998	0.000141
C42	C	-0.094466	-1.010804	0.000116
C43	C	-0.144883	-1.009833	0.000109
C44	C	-0.175773	-1.093453	0.000111
O45	O	-0.219818	-0.936822	0.000114
O46	O	-0.240879	-1.248004	0.000104
C47	C	-0.463795	-1.172071	0.000081
C48	C	-0.483320	-1.087489	0.000063
C49	C	-0.452429	-1.003885	0.000054
C50	C	-0.533740	-1.086510	0.000063
C51	C	-0.564631	-1.170115	0.000072
C52	C	-0.545103	-1.254698	0.000081
C53	C	-0.494686	-1.255675	0.000090
C54	C	-0.471957	-0.919302	0.000046
C55	C	-0.522375	-0.918331	0.000038
C56	C	-0.553266	-1.001936	0.000047
C57	C	0.155456	-1.080464	0.000077
C58	C	0.209116	-1.081518	0.000062
N59	N	0.067085	-1.088441	0.254957
C60	C	0.065596	-0.442606	0.000116
C61	C	0.066661	-0.546896	0.000103
C62	C	0.067514	-0.630018	0.000093
C63	C	0.068579	-0.734314	0.000081
N64	N	0.067094	-1.088478	-0.254754
C65	C	0.067094	-1.088464	0.656248
C66	C	0.067093	-1.088454	0.544596
C67	C	0.067090	-1.088453	0.455606
C68	C	0.067088	-1.088442	0.343947
H69	H	-0.089931	-1.247882	0.000158
C70	C	-0.804924	-1.256852	-0.000131
C71	C	-0.834181	-1.261200	-0.084308
C72	C	-0.865106	-1.344780	-0.084544
H73	H	-0.824882	-1.260057	0.056844
H74	H	-0.786094	-1.307400	-0.000184
H75	H	-0.853009	-1.210667	-0.084246
H76	H	-0.814236	-1.258012	-0.141296
H77	H	-0.846277	-1.395328	-0.084597
H78	H	-0.885061	-1.347977	-0.027566
H79	H	-0.884958	-1.347745	-0.141661
C80	C	-0.392337	-0.829433	0.000213
C81	C	-0.420950	-0.823914	0.084377
C82	C	-0.440499	-0.739340	0.084568
H83	H	-0.411794	-0.825474	-0.056771
H84	H	-0.366726	-0.779761	0.000254
H85	H	-0.446557	-0.873573	0.084327
H86	H	-0.401504	-0.827857	0.141374
H87	H	-0.414888	-0.689668	0.084609
H88	H	-0.459954	-0.735389	0.027581
H89	H	-0.459911	-0.735581	0.141676
C90	C	-0.473585	-1.347611	0.000053
C91	C	-0.511438	-1.420609	0.000032
C92	C	-0.492023	-1.505318	-0.000018
H93	H	-0.454167	-1.351625	0.057083
H94	H	-0.454162	-1.351549	-0.057014
H95	H	-0.530853	-1.416673	0.057093
H96	H	-0.530860	-1.416626	-0.056994
H97	H	-0.472599	-1.509255	-0.057085
H98	H	-0.472604	-1.509321	0.057013
H99	H	-0.517702	-1.554856	-0.000041
C100	C	-0.699713	-1.258898	0.000292
C101	C	-0.671116	-1.264386	0.084462
C102	C	-0.651566	-1.348958	0.084695
H103	H	-0.680244	-1.262876	-0.056688
H104	H	-0.725323	-1.308571	0.000352
H105	H	-0.645510	-1.214726	0.084393
H106	H	-0.690574	-1.260424	0.141455
H107	H	-0.677176	-1.398632	0.084755
H108	H	-0.632100	-1.352928	0.027711
H109	H	-0.632165	-1.352697	0.141807
C110	C	-0.166153	-0.918065	-0.000057
C111	C	-0.194763	-0.912610	-0.084214
C112	C	-0.214366	-0.828092	-0.084403
H113	H	-0.140584	-0.868333	-0.000107
H114	H	-0.185623	-0.914174	0.056952
H115	H	-0.175294	-0.916492	-0.141208
H116	H	-0.220340	-0.962322	-0.084181
H117	H	-0.233836	-0.824201	-0.027395
H118	H	-0.188794	-0.778367	-0.084451
H119	H	-0.233783	-0.824383	-0.141498
H120	H	-0.570263	-1.322771	0.000093
H121	H	-0.069306	-0.942736	0.000113
C122	C	-0.781094	-0.905979	-0.000006
C123	C	-0.743244	-0.832978	-0.000042
C124	C	-0.762662	-0.748271	-0.000116
H125	H	-0.800525	-0.901957	0.057021
H126	H	-0.800506	-0.902053	-0.057076
H127	H	-0.723840	-0.836901	0.057022
H128	H	-0.723810	-0.836968	-0.057065
H129	H	-0.782074	-0.744346	-0.057186
H130	H	-0.782092	-0.744260	0.056912
H131	H	-0.736983	-0.698730	-0.000150
H132	H	-0.181392	-1.246119	0.000126
C133	C	-0.543541	-0.826456	-0.000186
C134	C	-0.527842	-0.775990	-0.084368
C135	C	-0.547334	-0.691359	-0.084624
H136	H	-0.532963	-0.791942	0.056785
H137	H	-0.577996	-0.837798	-0.000246
H138	H	-0.493395	-0.764645	-0.084299
H139	H	-0.538420	-0.810475	-0.141353
H140	H	-0.581789	-0.702701	-0.084684
H141	H	-0.536755	-0.656853	-0.027649
H142	H	-0.536689	-0.657111	-0.141745
H143	H	-0.327544	-1.327488	0.000128
C144	C	-0.287239	-0.831352	0.000075
C145	C	-0.315135	-0.757073	0.000081
C146	C	-0.284332	-0.673343	0.000126
H147	H	-0.267317	-0.828112	-0.056953
H148	H	-0.267348	-0.828175	0.057145
H149	H	-0.335017	-0.760248	-0.056983
H150	H	-0.335056	-0.760283	0.057105
H151	H	-0.264441	-0.670166	0.057196
H152	H	-0.264411	-0.670112	-0.056903
H153	H	-0.303254	-0.622935	0.000139
H154	H	-0.684426	-0.930803	0.000040
H155	H	-0.419000	-1.325714	0.000112
H156	H	-0.446810	-0.851220	0.000036
