data_functionalizedCrystal
_audit_creation_method	'MofGen! by Chris Wilmer'
_symmetry_space_group_name_H-M	'P1'
_symmetry_Int_Tables_number	1
_symmetry_cell_setting	triclinic
loop_
_symmetry_equiv_pos_as_xyz
  x,y,z
_cell_length_a	13.101039
_cell_length_b	14.853567
_cell_length_c	14.853567
_cell_angle_alpha	96.365070
_cell_angle_beta	86.629197
_cell_angle_gamma	86.640591
loop_
_atom_site_label
_atom_site_type_symbol
_atom_site_fract_x
_atom_site_fract_y
_atom_site_fract_z
O1	O	0.085135	-1.201313	0.112739
O2	O	0.418468	-0.867980	0.446073
O3	O	0.751802	-0.534647	0.779406
O4	O	0.085152	-0.938855	0.126760
O5	O	0.418485	-0.605522	0.460093
O6	O	0.751818	-0.272188	0.793426
O7	O	0.085146	-1.077095	-0.011481
O8	O	0.418479	-0.743762	0.321853
O9	O	0.751813	-0.410428	0.655186
O10	O	0.085141	-1.063073	0.250979
O11	O	0.418474	-0.729740	0.584313
O12	O	0.751807	-0.396407	0.917646
O13	O	-0.085283	-1.067176	-0.001546
O14	O	0.248050	-0.733843	0.331788
O15	O	0.581383	-0.400510	0.665121
O16	O	-0.085278	-0.928936	0.136695
O17	O	0.248056	-0.595603	0.470028
O18	O	0.581389	-0.262270	0.803361
O19	O	-0.085294	-1.191395	0.122674
O20	O	0.248039	-0.858062	0.456008
O21	O	0.581372	-0.524728	0.789341
Zn22	Zn	-0.112345	-1.058591	0.131262
Zn23	Zn	0.220988	-0.725257	0.464595
Zn24	Zn	0.554321	-0.391924	0.797928
Zn25	Zn	0.112203	-1.071659	0.118172
Zn26	Zn	0.445536	-0.738326	0.451505
Zn27	Zn	0.778869	-0.404992	0.784839
O28	O	-0.085289	-1.053155	0.260914
O29	O	0.248045	-0.719821	0.594248
O30	O	0.581378	-0.386488	0.927581
C31	C	-0.000061	-0.900307	0.131092
C32	C	0.333273	-0.566974	0.464425
C33	C	0.666606	-0.233640	0.797758
C34	C	-0.000054	-0.800224	0.129187
C35	C	0.333279	-0.466890	0.462521
C36	C	0.666613	-0.133557	0.795854
C37	C	-0.000066	-1.071501	-0.040102
C38	C	0.333268	-0.738167	0.293231
C39	C	0.666601	-0.404834	0.626565
C40	C	-0.000057	-1.069597	-0.140186
C41	C	0.333277	-0.736264	0.193147
C42	C	0.666610	-0.402931	0.526481
N43	N	-0.265594	-1.049679	0.140195
N44	N	0.067740	-0.716345	0.473528
N45	N	0.401073	-0.383012	0.806861
C46	C	-0.474636	-1.037554	0.152356
C47	C	-0.141302	-0.704220	0.485690
C48	C	0.192031	-0.370887	0.819023
C49	C	-0.525514	-1.092700	0.097073
C50	C	-0.192180	-0.759367	0.430406
C51	C	0.141153	-0.426034	0.763740
C52	C	-0.641832	-1.085954	0.103840
C53	C	-0.308498	-0.752620	0.437173
C54	C	0.024835	-0.419287	0.770507
C55	C	-0.358307	-1.044299	0.145591
C56	C	-0.024974	-0.710966	0.478924
C57	C	0.308360	-0.377632	0.812257
N58	N	0.265451	-1.080578	0.109232
N59	N	0.598784	-0.747245	0.442565
N60	N	0.932118	-0.413911	0.775899
C61	C	-0.000080	-1.229943	0.118342
C62	C	0.333254	-0.896610	0.451675
C63	C	0.666587	-0.563276	0.785009
C64	C	-0.000080	-1.330027	0.120246
C65	C	0.333254	-0.996693	0.453579
C66	C	0.666587	-0.663360	0.786912
C67	C	-0.000075	-0.387689	0.039023
C68	C	0.333258	-0.054355	0.372356
C69	C	0.666591	0.278978	0.705690
C70	C	-0.000078	-0.366408	0.203256
C71	C	0.333256	-0.033074	0.536589
C72	C	0.666589	0.300259	0.869923
C73	C	-0.000074	-0.460441	0.205046
C74	C	0.333259	-0.127108	0.538379
C75	C	0.666592	0.206225	0.871712
C76	C	-0.000070	-0.518104	0.123823
C77	C	0.333263	-0.184770	0.457156
C78	C	0.666597	0.148563	0.790490
C79	C	-0.000069	-0.481732	0.040810
C80	C	0.333264	-0.148398	0.374144
C81	C	0.666598	0.184935	0.707477
C82	C	-0.000065	-0.496821	0.288057
C83	C	0.333268	-0.163488	0.621390
C84	C	0.666602	0.169846	0.954723
C85	C	-0.000061	-0.590860	0.289850
C86	C	0.333273	-0.257527	0.623183
C87	C	0.666606	0.075806	0.956516
C88	C	-0.000064	-0.648524	0.208626
C89	C	0.333270	-0.315191	0.541960
C90	C	0.666603	0.018143	0.875293
C91	C	-0.000064	-0.612147	0.125610
C92	C	0.333270	-0.278813	0.458944
C93	C	0.666603	0.054520	0.792277
C94	C	-0.000059	-0.669809	0.044387
C95	C	0.333274	-0.336475	0.377721
C96	C	0.666607	-0.003142	0.711054
C97	C	-0.000067	-0.633433	-0.038629
C98	C	0.333267	-0.300100	0.294704
C99	C	0.666600	0.033234	0.628037
C100	C	-0.000072	-0.539395	-0.040413
C101	C	0.333261	-0.206062	0.292920
C102	C	0.666595	0.127271	0.626254
C103	C	-0.000058	-0.742562	0.210410
C104	C	0.333275	-0.409228	0.543744
C105	C	0.666608	-0.075895	0.877077
C106	C	-0.000053	-0.763852	0.046175
C107	C	0.333280	-0.430519	0.379508
C108	C	0.666614	-0.097185	0.712841
C109	C	-0.000070	-0.979431	-0.552719
C110	C	0.333263	-0.646097	-0.219386
C111	C	0.666596	-0.312764	0.113948
C112	C	-0.000081	-1.143663	-0.573999
C113	C	0.333253	-0.810330	-0.240666
C114	C	0.666586	-0.476996	0.092667
C115	C	-0.000075	-1.145453	-0.479966
C116	C	0.333259	-0.812120	-0.146633
C117	C	0.666592	-0.478787	0.186701
C118	C	-0.000068	-1.064231	-0.422305
C119	C	0.333265	-0.730898	-0.088971
C120	C	0.666598	-0.397565	0.244362
C121	C	-0.000068	-0.981219	-0.458677
C122	C	0.333266	-0.647885	-0.125343
C123	C	0.666599	-0.314552	0.207990
C124	C	-0.000086	-1.228464	-0.443586
C125	C	0.333248	-0.895131	-0.110253
C126	C	0.666581	-0.561797	0.223080
C127	C	-0.000081	-1.230258	-0.349548
C128	C	0.333252	-0.896924	-0.016214
C129	C	0.666586	-0.563591	0.317119
C130	C	-0.000067	-1.149035	-0.291885
C131	C	0.333266	-0.815702	0.041449
C132	C	0.666599	-0.482368	0.374782
C133	C	-0.000065	-1.066019	-0.328262
C134	C	0.333268	-0.732686	0.005071
C135	C	0.666601	-0.399352	0.338405
C136	C	-0.000059	-0.984797	-0.270601
C137	C	0.333274	-0.651464	0.062733
C138	C	0.666608	-0.318130	0.396066
C139	C	-0.000050	-0.901780	-0.306977
C140	C	0.333284	-0.568447	0.026357
C141	C	0.666617	-0.235114	0.359690
C142	C	-0.000054	-0.899996	-0.401014
C143	C	0.333280	-0.566662	-0.067680
C144	C	0.666613	-0.233329	0.265653
C145	C	-0.000063	-1.150819	-0.197848
C146	C	0.333270	-0.817486	0.135486
C147	C	0.666603	-0.484153	0.468819
C148	C	-0.000056	-0.986585	-0.176558
C149	C	0.333277	-0.653251	0.156775
C150	C	0.666611	-0.319918	0.490109
C151	C	-0.000075	-1.058749	0.289536
C152	C	0.333259	-0.725416	0.622869
C153	C	0.666592	-0.392083	0.956202
C154	C	-0.000077	-1.060653	0.389619
C155	C	0.333256	-0.727320	0.722953
C156	C	0.666590	-0.393986	1.056286
H157	H	-0.481713	-1.144980	0.044662
H158	H	-0.148380	-0.811647	0.377995
H159	H	0.184953	-0.478314	0.711329
H160	H	-0.000101	-1.294590	-0.490540
H161	H	0.333233	-0.961257	-0.157207
H162	H	0.666566	-0.627923	0.176127
H163	H	-0.518431	-0.985278	0.204765
H164	H	-0.185097	-0.651945	0.538099
H165	H	0.148236	-0.318611	0.871432
H166	H	-0.000056	-0.680394	-0.104761
H167	H	0.333277	-0.347061	0.228572
H168	H	0.666610	-0.013727	0.561906
H169	H	-0.000054	-0.620469	0.357447
H170	H	0.333279	-0.287136	0.690780
H171	H	0.666612	0.046198	1.024113
Cl172	Cl	-0.000089	-0.341961	-0.065335
Cl173	Cl	0.333244	-0.008628	0.267998
Cl174	Cl	0.666577	0.324705	0.601332
Cl175	Cl	-0.000056	-0.836334	-0.055940
Cl176	Cl	0.333278	-0.503001	0.277393
Cl177	Cl	0.666611	-0.169668	0.610726
H178	H	-0.000077	-1.218410	-0.168234
H179	H	0.333256	-0.885076	0.165099
H180	H	0.666589	-0.551743	0.498433
H181	H	-0.000102	-0.509768	-0.107999
H182	H	0.333231	-0.176434	0.225334
H183	H	0.666564	0.156899	0.558667
Cl184	Cl	-0.000069	-0.293919	0.305358
Cl185	Cl	0.333264	0.039414	0.638691
Cl186	Cl	0.666598	0.372748	0.972025
H187	H	-0.000058	-0.449867	0.354183
H188	H	0.333275	-0.116534	0.687516
H189	H	0.666609	0.216800	1.020850
Cl190	Cl	-0.000049	-0.875073	-0.598447
Cl191	Cl	0.333284	-0.541740	-0.265113
Cl192	Cl	0.666618	-0.208407	0.068220
Cl193	Cl	-0.000075	-1.334620	-0.303827
Cl194	Cl	0.333258	-1.001287	0.029506
Cl195	Cl	0.666591	-0.667953	0.362839
H196	H	-0.000054	-0.772175	0.278001
H197	H	0.333279	-0.438841	0.611334
H198	H	0.666612	-0.105508	0.944668
Cl199	Cl	-0.000050	-0.799676	-0.234477
Cl200	Cl	0.333283	-0.466343	0.098857
Cl201	Cl	0.666616	-0.133010	0.432190
Cl202	Cl	-0.000039	-0.795643	-0.446750
Cl203	Cl	0.333294	-0.462309	-0.113417
Cl204	Cl	0.666627	-0.128976	0.219917
H205	H	-0.000046	-0.920443	-0.129615
H206	H	0.333287	-0.587109	0.203718
H207	H	0.666620	-0.253776	0.537051
H208	H	-0.000094	-1.209790	-0.620952
H209	H	0.333239	-0.876456	-0.287619
H210	H	0.666572	-0.543123	0.045715
