data_functionalizedCrystal
_audit_creation_method	'MofGen! by Chris Wilmer'
_symmetry_space_group_name_H-M	'P1'
_symmetry_Int_Tables_number	1
_symmetry_cell_setting	triclinic
loop_
_symmetry_equiv_pos_as_xyz
  x,y,z
_cell_length_a	18.215407
_cell_length_b	19.805405
_cell_length_c	18.215399
_cell_angle_alpha	89.969390
_cell_angle_beta	89.980167
_cell_angle_gamma	90.026858
loop_
_atom_site_label
_atom_site_type_symbol
_atom_site_fract_x
_atom_site_fract_y
_atom_site_fract_z
Zn1	Zn	1.125064	-0.269462	-0.416102
Zn2	Zn	1.625064	0.230538	0.083898
Zn3	Zn	1.124969	-0.382653	-0.293030
Zn4	Zn	1.624969	0.117347	0.206970
Zn5	Zn	1.001997	-0.269484	-0.293050
Zn6	Zn	1.501997	0.230516	0.206950
Zn7	Zn	1.001959	-0.382615	-0.416055
Zn8	Zn	1.501959	0.117385	0.083945
O9	O	1.063497	-0.326054	-0.354559
O10	O	1.563497	0.173946	0.145441
O11	O	1.228036	-0.284484	-0.399788
O12	O	1.728036	0.215516	0.100212
O13	O	1.108633	-0.367666	-0.190049
O14	O	1.608633	0.132334	0.309951
O15	O	1.018377	-0.174765	-0.309401
O16	O	1.518377	0.325235	0.190599
O17	O	1.227966	-0.367644	-0.309368
O18	O	1.727966	0.132356	0.190632
O19	O	1.108794	-0.174748	-0.399807
O20	O	1.608794	0.325252	0.100193
O21	O	1.018285	-0.284521	-0.190063
O22	O	1.518285	0.215479	0.309937
O23	O	0.899008	-0.284485	-0.309355
O24	O	1.399008	0.215515	0.190645
O25	O	1.018313	-0.367580	-0.519046
O26	O	1.518313	0.132420	-0.019046
O27	O	0.898980	-0.367602	-0.399727
O28	O	1.398980	0.132398	0.100273
O29	O	1.108758	-0.284447	-0.519080
O30	O	1.608758	0.215553	-0.019080
O31	O	1.108596	-0.477365	-0.309322
O32	O	1.608596	0.022635	0.190678
O33	O	1.018221	-0.477337	-0.399708
O34	O	1.518221	0.022663	0.100292
C35	C	0.872291	-0.326042	-0.354538
C36	C	1.372291	0.173958	0.145462
C37	C	0.790492	-0.326053	-0.354547
C38	C	1.290492	0.173947	0.145453
C39	C	1.063415	-0.501910	-0.354524
C40	C	1.563415	-0.001910	0.145476
C41	C	1.063446	-0.577142	-0.354533
C42	C	1.563446	-0.077142	0.145467
C43	C	0.602303	-0.369400	-0.401544
C44	C	1.102303	0.130600	0.098456
C45	C	0.525444	-0.369403	-0.401553
C46	C	1.025444	0.130597	0.098447
C47	C	0.525444	-0.282719	-0.307591
C48	C	1.025444	0.217281	0.192409
C49	C	0.602301	-0.282714	-0.307586
C50	C	1.102301	0.217286	0.192414
C51	C	0.640729	-0.326059	-0.354561
C52	C	1.140729	0.173941	0.145439
C53	C	0.487013	-0.326066	-0.354575
C54	C	0.987013	0.173934	0.145425
C55	C	0.403679	-0.326068	-0.354585
C56	C	0.903679	0.173932	0.145415
C57	C	0.724068	-0.326056	-0.354553
C58	C	1.224068	0.173944	0.145447
C59	C	1.110550	-0.612478	-0.307518
C60	C	1.610550	-0.112478	0.192482
C61	C	1.110582	-0.683166	-0.307535
C62	C	1.610582	-0.183166	0.192465
C63	C	1.063505	-0.718517	-0.354562
C64	C	1.563505	-0.218517	0.145438
C65	C	1.016399	-0.683176	-0.401582
C66	C	1.516399	-0.183176	0.098418
C67	C	1.016372	-0.612489	-0.401569
C68	C	1.516372	-0.112489	0.098431
C69	C	1.016507	-0.968249	-0.401637
C70	C	1.516507	-0.468249	0.098363
C71	C	1.016536	-1.038941	-0.401645
C72	C	1.516536	-0.538941	0.098355
C73	C	1.110717	-1.038927	-0.307602
C74	C	1.610717	-0.538927	0.192398
C75	C	1.110690	-0.968239	-0.307589
C76	C	1.610690	-0.468239	0.192411
C77	C	1.063587	-0.932905	-0.354611
C78	C	1.563587	-0.432905	0.145389
C79	C	1.063555	-0.856256	-0.354594
C80	C	1.563555	-0.356256	0.145406
C81	C	1.063533	-0.795164	-0.354577
C82	C	1.563533	-0.295164	0.145423
C83	C	1.255450	-0.326066	-0.354581
C84	C	1.755450	0.173934	0.145419
C85	C	1.337249	-0.326071	-0.354590
C86	C	1.837249	0.173929	0.145410
C87	C	1.063542	-0.326007	-0.546512
C88	C	1.563542	0.173993	-0.046512
C89	C	1.063561	-0.325987	-0.628311
C90	C	1.563561	0.174013	-0.128311
C91	C	1.063601	-0.149511	-0.354611
C92	C	1.563601	0.350489	0.145389
C93	C	1.063645	-0.074279	-0.354633
C94	C	1.563645	0.425721	0.145367
C95	C	1.110673	-0.282659	-0.816524
C96	C	1.610673	0.217341	-0.316524
C97	C	1.110682	-0.282639	-0.893383
C98	C	1.610682	0.217361	-0.393383
C99	C	1.016502	-0.369210	-0.893336
C100	C	1.516502	0.130790	-0.393336
C101	C	1.016490	-0.369226	-0.816479
C102	C	1.516490	0.130774	-0.316479
C103	C	1.063580	-0.325952	-0.778075
C104	C	1.563580	0.174048	-0.278075
C105	C	1.063600	-0.325916	-0.931791
C106	C	1.563600	0.174084	-0.431791
C107	C	1.063609	-0.325895	-1.015125
C108	C	1.563609	0.174105	-0.515125
C109	C	1.063570	-0.325972	-0.694736
C110	C	1.563570	0.174028	-0.194736
C111	C	1.063495	-0.326051	-0.163353
C112	C	1.563495	0.173949	0.336647
C113	C	1.063619	-0.325880	-0.081555
C114	C	1.563619	0.174120	0.418445
H115	H	0.633589	-0.404693	-0.439797
H116	H	1.133589	0.095307	0.060203
H117	H	0.494146	-0.247431	-0.269344
H118	H	0.994146	0.252569	0.230656
H119	H	1.149073	-1.067705	-0.269317
H120	H	1.649073	-0.567705	0.230683
H121	H	0.978071	-0.711965	-0.439876
H122	H	1.478071	-0.211965	0.060124
H123	H	1.149028	-0.247385	-0.924686
H124	H	1.649028	0.252615	-0.424686
C125	C	0.980593	-0.483816	-0.916950
C126	C	1.480593	0.016184	-0.416950
C127	C	0.964748	-0.416782	-0.935551
C128	C	1.464748	0.083218	-0.435551
H129	H	0.948639	-0.513184	-0.943009
H130	H	1.448639	-0.013184	-0.443009
H131	H	1.030030	-0.493715	-0.929555
H132	H	1.530030	0.006285	-0.429555
H133	H	0.973843	-0.490011	-0.865673
H134	H	1.473843	0.009989	-0.365673
H135	H	0.971503	-0.410585	-0.986828
H136	H	1.471503	0.089415	-0.486828
H137	H	0.915299	-0.406879	-0.922952
H138	H	1.415299	0.093121	-0.422952
H139	H	1.148938	-0.711934	-0.269250
H140	H	1.648938	-0.211934	0.230750
H141	H	0.978136	-0.404480	-0.785172
H142	H	1.478136	0.095520	-0.285172
C143	C	0.533171	-0.455090	-0.494422
C144	C	1.033171	0.044910	0.005578
C145	C	0.483207	-0.417049	-0.453195
C146	C	0.983207	0.082951	0.046805
H147	H	0.507094	-0.484508	-0.526301
H148	H	1.007094	0.015492	-0.026301
H149	H	0.563172	-0.425632	-0.522626
H150	H	1.063172	0.074368	-0.022626
H151	H	0.563123	-0.480939	-0.462295
H152	H	1.063123	0.019061	0.037705
H153	H	0.453258	-0.391196	-0.485322
H154	H	0.953258	0.108804	0.014678
H155	H	0.453194	-0.446510	-0.424988
H156	H	0.953194	0.053490	0.075012
H157	H	0.978016	-0.583719	-0.439854
H158	H	1.478016	-0.083719	0.060146
C159	C	0.594586	-0.197034	-0.214698
C160	C	1.094586	0.302966	0.285302
C161	C	0.644544	-0.235071	-0.255936
C162	C	1.144544	0.264929	0.244064
H163	H	0.620667	-0.167625	-0.182812
H164	H	1.120667	0.332375	0.317188
H165	H	0.564635	-0.171182	-0.246812
H166	H	1.064635	0.328818	0.253188
H167	H	0.564583	-0.226500	-0.186493
H168	H	1.064583	0.273500	0.313507
H169	H	0.674544	-0.205605	-0.284145
H170	H	1.174544	0.294395	0.215855
H171	H	0.674508	-0.260925	-0.223817
H172	H	1.174508	0.239075	0.276183
C173	C	1.146571	-0.168052	-0.792908
C174	C	1.646571	0.331948	-0.292908
C175	C	1.162425	-0.235085	-0.774310
C176	C	1.662425	0.264915	-0.274310
H177	H	1.178518	-0.138681	-0.766844
H178	H	1.678518	0.361319	-0.266844
H179	H	1.153319	-0.161853	-0.844178
H180	H	1.653319	0.338147	-0.344178
H181	H	1.097126	-0.158159	-0.780301
H182	H	1.597126	0.341841	-0.280301
H183	H	1.211869	-0.244980	-0.786922
H184	H	1.711869	0.255020	-0.286922
H185	H	1.155683	-0.241287	-0.723028
H186	H	1.655683	0.258713	-0.223028
H187	H	1.148883	-0.583700	-0.269220
H188	H	1.648883	-0.083700	0.230780
H189	H	0.978153	-0.939485	-0.439923
H190	H	1.478153	-0.439485	0.060077
C191	C	1.203797	-0.975327	-0.214637
C192	C	1.703797	-0.475327	0.285363
C193	C	1.162441	-0.929382	-0.255898
C194	C	1.662441	-0.429382	0.244102
H195	H	1.235750	-0.951337	-0.182729
H196	H	1.735750	-0.451337	0.317271
H197	H	1.171761	-1.002937	-0.186460
H198	H	1.671761	-0.502937	0.313540
H199	H	1.231935	-1.002858	-0.246740
H200	H	1.731935	-0.502858	0.253260
H201	H	1.134298	-0.901854	-0.223794
H202	H	1.634298	-0.401854	0.276206
H203	H	1.194481	-0.901761	-0.284077
H204	H	1.694481	-0.401761	0.215923
C205	C	0.923446	-1.031860	-0.494623
C206	C	1.423446	-0.531860	0.005377
C207	C	0.964792	-1.077801	-0.453348
C208	C	1.464792	-0.577801	0.046652
H209	H	0.891507	-1.055852	-0.526543
H210	H	1.391507	-0.555852	-0.026543
H211	H	0.895299	-1.004332	-0.462534
H212	H	1.395299	-0.504332	0.037466
H213	H	0.955494	-1.004246	-0.522794
H214	H	1.455494	-0.504246	-0.022794
H215	H	0.932744	-1.105412	-0.425173
H216	H	1.432744	-0.605412	0.074827
H217	H	0.992941	-1.105340	-0.485441
H218	H	1.492941	-0.605340	0.014559
