data_functionalizedCrystal
_audit_creation_method	'MofGen! by Chris Wilmer'
_symmetry_space_group_name_H-M	'P1'
_symmetry_Int_Tables_number	1
_symmetry_cell_setting	triclinic
loop_
_symmetry_equiv_pos_as_xyz
  x,y,z
_cell_length_a	29.019771
_cell_length_b	29.019011
_cell_length_c	29.015668
_cell_angle_alpha	60.004890
_cell_angle_beta	60.009825
_cell_angle_gamma	59.993818
loop_
_atom_site_label
_atom_site_type_symbol
_atom_site_fract_x
_atom_site_fract_y
_atom_site_fract_z
O1	O	0.063866	-0.673289	0.563007
O2	O	0.024059	-0.524205	0.453633
O3	O	0.118464	-0.618532	0.453552
O4	O	-0.030540	-0.578962	0.563088
O5	O	0.149785	-0.587215	0.484789
O6	O	0.055379	-0.492888	0.484869
O7	O	0.095186	-0.641972	0.594244
Cu8	Cu	0.078143	-0.564571	0.542409
Cu9	Cu	0.041102	-0.601606	0.505468
O10	O	0.000781	-0.547645	0.594325
N11	N	0.104196	-0.538525	0.568394
N12	N	0.015054	-0.627656	0.479483
C13	C	0.143783	-0.499167	0.850823
C14	C	0.386758	-0.499111	0.607645
C15	C	0.143618	-0.499136	0.607763
C16	C	0.143598	-0.256029	0.607770
C17	C	0.182748	-0.373362	0.646852
C18	C	0.182758	-0.460025	0.646847
C19	C	0.204440	-0.438361	0.668500
C20	C	0.298958	-0.422064	0.618723
C21	C	0.358043	-0.441753	0.599006
C22	C	0.358069	-0.537354	0.635461
C23	C	0.298985	-0.517664	0.655180
C24	C	0.196983	-0.343808	0.588767
C25	C	0.177262	-0.284720	0.569090
C26	C	0.129075	-0.284743	0.665586
C27	C	0.148797	-0.343831	0.685263
C28	C	0.124666	-0.445760	0.661149
C29	C	0.104961	-0.465454	0.641458
C30	C	0.201435	-0.513678	0.593176
C31	C	0.221143	-0.493984	0.612860
C32	C	0.124738	-0.445777	0.763064
C33	C	0.105085	-0.465488	0.822151
C34	C	0.201594	-0.513722	0.822097
C35	C	0.221247	-0.494012	0.763009
C36	C	0.182817	-0.460038	0.733494
C37	C	0.269432	-0.460018	0.646809
C38	C	0.121399	-0.520450	0.915812
C39	C	0.451745	-0.520012	0.585655
C40	C	0.121177	-0.520429	0.586502
C41	C	0.121544	-0.191035	0.586883
C42	C	-0.110592	-0.666601	0.440035
C43	C	-0.023978	-0.666709	0.440231
C44	C	-0.045598	-0.688342	0.418486
C45	C	-0.061967	-0.782825	0.468184
C46	C	-0.042323	-0.841914	0.487907
C47	C	0.053280	-0.842025	0.451623
C48	C	0.033634	-0.782937	0.431899
C49	C	-0.140218	-0.680832	0.498102
C50	C	-0.199302	-0.661065	0.517690
C51	C	-0.199129	-0.612843	0.421140
C52	C	-0.140045	-0.632610	0.401552
C53	C	-0.038209	-0.608622	0.425941
C54	C	-0.018555	-0.588961	0.445716
C55	C	0.029562	-0.685470	0.494059
C56	C	0.009908	-0.705133	0.474291
C57	C	-0.038037	-0.608631	0.323917
C58	C	-0.018247	-0.588973	0.264830
C59	C	0.029955	-0.685489	0.264893
C60	C	0.010165	-0.705145	0.323981
C61	C	-0.023833	-0.666715	0.353492
C62	C	-0.023990	-0.753339	0.440182
N63	N	0.504925	-0.538487	0.568205
O64	O	0.685342	-0.543679	0.433426
O65	O	0.685533	-0.653395	0.582361
O66	O	0.685457	-0.653145	0.487904
O67	O	0.685418	-0.543929	0.527882
O68	O	0.591592	-0.621921	0.519268
O69	O	0.591667	-0.622171	0.613725
O70	O	0.591477	-0.512455	0.464790
Cu71	Cu	0.583001	-0.564462	0.542121
Cu72	Cu	0.694008	-0.601388	0.505029
O73	O	0.591553	-0.512705	0.559246
N74	N	0.772084	-0.627363	0.478939
N75	N	0.104168	-0.137853	0.568408
O76	O	-0.030538	0.042663	0.563097
O77	O	0.118403	0.042683	0.453379
O78	O	0.023918	0.042657	0.453664
O79	O	0.063947	0.042689	0.562813
O80	O	0.055242	-0.051215	0.484950
O81	O	0.149727	-0.051189	0.484666
O82	O	0.000787	-0.051210	0.594384
Cu83	Cu	0.078117	-0.059771	0.542381
Cu84	Cu	0.041072	0.051244	0.505382
O85	O	0.095272	-0.051184	0.594099
N86	N	0.015015	0.129326	0.479356
N87	N	0.104469	-0.538576	0.968995
O88	O	0.099171	-0.673268	1.149499
O89	O	-0.010519	-0.524279	1.149527
O90	O	-0.010265	-0.618748	1.149494
O91	O	0.098916	-0.578799	1.149533
O92	O	0.021008	-0.587443	1.055625
O93	O	0.020753	-0.492974	1.055659
O94	O	0.130444	-0.641963	1.055630
Cu95	Cu	0.078454	-0.564610	1.047074
Cu96	Cu	0.041470	-0.601632	1.158084
O97	O	0.130189	-0.547494	1.055664
N98	N	0.015455	-0.627672	1.236163
C99	C	0.035988	-0.489761	0.454182
C100	C	0.152897	-0.606574	0.454082
C101	C	0.083257	-0.676417	0.593694
C102	C	-0.033653	-0.559604	0.593794
C103	C	0.638623	-0.652892	0.616806
C104	C	0.638531	-0.652583	0.499833
C105	C	0.638384	-0.512957	0.430345
C106	C	0.638480	-0.513267	0.547317
C107	C	0.152789	-0.004135	0.453875
C108	C	0.035820	-0.004282	0.454266
C109	C	-0.033639	-0.004275	0.593849
C110	C	0.083370	-0.004245	0.593498
C111	C	-0.009989	-0.489856	1.102597
C112	C	-0.009667	-0.606839	1.102536
C113	C	0.129914	-0.676386	1.102561
C114	C	0.129599	-0.559396	1.102601
H115	H	0.057789	-0.453866	0.846219
O116	O	-0.084730	-0.549445	0.634779
C117	C	-0.119809	-0.493990	0.614373
H118	H	-0.092633	-0.467187	0.578123
H119	H	-0.146845	-0.475092	0.649792
H120	H	-0.148317	-0.494850	0.598704
O121	O	0.270340	-0.366052	0.610566
C122	C	0.309075	-0.336776	0.581534
H123	H	0.351206	-0.367100	0.588333
H124	H	0.292012	-0.301142	0.598265
H125	H	0.315330	-0.318410	0.534528
H126	H	0.638671	-0.687334	0.659583
O127	O	0.170468	-0.549101	1.102581
C128	C	0.149905	-0.493623	1.102609
H129	H	0.113669	-0.466914	1.084841
H130	H	0.185248	-0.474636	1.075361
H131	H	0.134171	-0.494457	1.147647
H132	H	0.093440	-0.418108	0.739036
H133	H	-0.076413	-0.004282	0.628294
O134	O	0.093304	-0.727509	0.634697
C135	C	0.054590	-0.752585	0.649889
H136	H	0.015501	-0.718402	0.638583
H137	H	0.041928	-0.776311	0.697247
H138	H	0.075035	-0.783320	0.626122
O139	O	0.239002	-0.546728	0.850676
C140	C	0.294478	-0.555071	0.811904
H141	H	0.294342	-0.548466	0.769794
H142	H	0.322556	-0.599882	0.828953
H143	H	0.311396	-0.523614	0.805611
O144	O	0.025907	-0.438648	0.413213
C145	C	0.064640	-0.413582	0.397995
H146	H	0.081158	-0.432272	0.434171
H147	H	0.042686	-0.366104	0.388777
H148	H	0.101393	-0.422098	0.358731
H149	H	0.268542	-0.505632	0.738936
H150	H	0.195693	-0.615009	0.419684
H151	H	0.638547	-0.686893	0.491276
O152	O	0.093547	-0.004315	0.634481
C153	C	0.087317	-0.052943	0.682067
H154	H	0.059006	-0.069159	0.681632
H155	H	0.067419	-0.042010	0.722126
H156	H	0.130485	-0.086980	0.680924
H157	H	0.638322	-0.478510	0.387573
H158	H	-0.044426	-0.447066	1.102605
H159	H	0.638471	-0.478960	0.555871
O160	O	0.203734	-0.003789	0.412730
C161	C	0.238843	-0.003683	0.432999
H162	H	0.211697	0.013904	0.469361
H163	H	0.265660	0.023791	0.397555
H164	H	0.267561	-0.048657	0.448469
O165	O	0.025588	-0.004196	0.413309
C166	C	0.031841	0.044412	0.365704
H167	H	0.025735	0.078402	0.379197
H168	H	-0.001057	0.060717	0.345703
H169	H	0.075900	0.033422	0.333716
H170	H	-0.043953	-0.615372	1.102487
H171	H	0.057627	-0.716785	0.240872
H172	H	0.164353	-0.719173	1.102545
H173	H	0.093408	-0.418110	0.688821
H174	H	-0.116238	-0.708516	0.529438
O175	O	0.048526	-0.451672	0.655447
C176	C	0.024028	-0.471887	0.714630
H177	H	0.057695	-0.508326	0.733652
H178	H	-0.010796	-0.487236	0.725954
H179	H	0.005375	-0.436445	0.732143
O180	O	0.238753	-0.546579	0.560082
C181	C	0.272889	-0.516728	0.510535
H182	H	0.250050	-0.469457	0.502340
H183	H	0.281813	-0.527288	0.473309
H184	H	0.314406	-0.529298	0.515891
O185	O	0.270390	-0.554607	0.682428
C186	C	0.309146	-0.609710	0.685596
H187	H	0.351249	-0.607457	0.650685
H188	H	0.292068	-0.633962	0.680255
H189	H	0.315461	-0.632268	0.728407
O190	O	0.386808	-0.593334	0.643487
C191	C	0.420968	-0.601356	0.590741
H192	H	0.403133	-0.563948	0.556684
H193	H	0.421646	-0.641769	0.592394
H194	H	0.465748	-0.604840	0.580492
O195	O	0.277566	-0.507734	0.598908
C196	C	0.291806	-0.458075	0.569184
H197	H	0.258472	-0.422584	0.549210
H198	H	0.334686	-0.465842	0.534738
H199	H	0.293774	-0.445642	0.599569
O200	O	0.386814	-0.404964	0.571728
C201	C	0.445300	-0.434703	0.556106
H202	H	0.453390	-0.480746	0.584594
H203	H	0.467765	-0.415144	0.560748
H204	H	0.462038	-0.432267	0.510345
O205	O	0.229934	-0.372409	0.551381
C206	C	0.238274	-0.333651	0.495892
H207	H	0.202642	-0.291536	0.496019
H208	H	0.238561	-0.350718	0.467847
H209	H	0.280361	-0.327358	0.478942
H210	H	0.101438	-0.260698	0.696864
O211	O	0.190990	-0.255981	0.512669
C212	C	0.141324	-0.221795	0.498420
H213	H	0.105847	-0.239613	0.531741
H214	H	0.149083	-0.221112	0.455528
H215	H	0.128882	-0.177016	0.496468
H216	H	0.137197	-0.367895	0.732563
H217	H	-0.065723	-0.577332	0.347941
O218	O	-0.032154	-0.532541	0.236133
C219	C	-0.091325	-0.507947	0.250479
H220	H	-0.110385	-0.541559	0.266676
H221	H	-0.102566	-0.473114	0.211580
H222	H	-0.108872	-0.489281	0.284778
O223	O	0.023996	-0.761590	0.352621
C224	C	0.058254	-0.791290	0.313902
H225	H	0.050793	-0.763111	0.271742
H226	H	0.047150	-0.830692	0.330944
H227	H	0.104519	-0.804085	0.307712
H228	H	-0.065797	-0.577331	0.398207
H229	H	-0.030145	-0.541661	0.434082
H230	H	0.021495	-0.752433	0.485928
O231	O	0.062455	-0.722873	0.527154
C232	C	0.070812	-0.778357	0.535508
H233	H	0.035221	-0.778207	0.528818
H234	H	0.071042	-0.806399	0.580347
H235	H	0.112931	-0.795331	0.504116
H236	H	0.064563	-0.758931	0.409098
O237	O	0.109275	-0.870757	0.443480
C238	C	0.139840	-0.856352	0.385163
H239	H	0.110863	-0.840079	0.360677
H240	H	0.176550	-0.895240	0.375652
H241	H	0.156825	-0.822089	0.372003
O242	O	-0.079289	-0.870468	0.515082
C243	C	-0.106927	-0.856025	0.478884
H244	H	-0.105478	-0.813167	0.445206
H245	H	-0.152750	-0.853903	0.504389
H246	H	-0.084905	-0.889327	0.457787
O247	O	-0.117918	-0.754006	0.476122
C248	C	-0.125847	-0.719846	0.423331
H249	H	-0.085187	-0.711056	0.390474
H250	H	-0.161301	-0.678265	0.426680
H251	H	-0.137466	-0.742595	0.410150
H252	H	-0.223425	-0.672650	0.564976
H253	H	-0.115923	-0.621016	0.354266
O254	O	-0.227657	-0.579815	0.383683
C255	C	-0.188838	-0.571516	0.328229
H256	H	-0.146741	-0.578167	0.328420
H257	H	-0.205843	-0.526703	0.300132
H258	H	-0.182539	-0.602968	0.311292
