data_functionalizedCrystal
_audit_creation_method	'MofGen! by Chris Wilmer'
_symmetry_space_group_name_H-M	'P1'
_symmetry_Int_Tables_number	1
_symmetry_cell_setting	triclinic
loop_
_symmetry_equiv_pos_as_xyz
  x,y,z
_cell_length_a	13.596369
_cell_length_b	14.971486
_cell_length_c	14.971486
_cell_angle_alpha	96.385871
_cell_angle_beta	89.993775
_cell_angle_gamma	89.996008
loop_
_atom_site_label
_atom_site_type_symbol
_atom_site_fract_x
_atom_site_fract_y
_atom_site_fract_z
O1	O	-0.081679	-1.186940	0.116565
O2	O	-0.081706	-0.926540	0.130524
O3	O	-0.081684	-1.063719	-0.006656
O4	O	-0.081700	-1.049760	0.253744
O5	O	0.081898	-1.063717	-0.006664
O6	O	0.081877	-0.926538	0.130515
O7	O	0.081904	-1.186938	0.116556
Zn8	Zn	0.107863	-1.056737	0.123534
Zn9	Zn	-0.107665	-1.056740	0.123546
O10	O	0.081883	-1.049758	0.253736
C11	C	0.000082	-0.893214	0.129895
C12	C	0.000072	-0.793917	0.128024
N13	N	-0.254756	-1.056743	0.123547
C14	C	0.000107	-1.063094	-0.039985
C15	C	0.000106	-1.061223	-0.139282
C16	C	-0.656047	-1.056738	0.123537
C17	C	-0.544396	-1.056736	0.123542
C18	C	-0.455405	-1.056740	0.123542
C19	C	-0.343747	-1.056739	0.123548
N20	N	0.254955	-1.056742	0.123526
C21	C	0.000114	-1.220263	0.117185
C22	C	0.000118	-1.319561	0.119056
C23	C	0.000069	-0.736692	0.208614
C24	C	0.000084	-0.643392	0.206850
C25	C	0.000095	-0.607320	0.124497
C26	C	0.000101	-0.664552	0.043902
C27	C	0.000094	-0.757850	0.045666
C28	C	0.000115	-0.470090	0.040231
C29	C	0.000121	-0.376786	0.038466
C30	C	0.000105	-0.355632	0.201415
C31	C	0.000098	-0.448930	0.203179
C32	C	0.000102	-0.506156	0.122584
C33	C	0.000115	-1.141812	-0.196507
C34	C	0.000105	-1.140049	-0.289807
C35	C	0.000092	-1.057696	-0.325879
C36	C	0.000080	-0.977101	-0.268646
C37	C	0.000084	-0.978865	-0.175349
C38	C	0.000077	-0.973430	-0.463109
C39	C	0.000075	-0.971665	-0.556413
C40	C	0.000098	-1.134614	-0.577567
C41	C	0.000101	-1.136378	-0.484269
C42	C	0.000090	-1.055782	-0.427043
C43	C	0.000090	-1.050384	0.287065
C44	C	0.000084	-1.052254	0.386362
H45	H	0.000059	-0.766054	0.275675
Cl46	Cl	0.000168	-0.331439	-0.065065
H47	H	0.000124	-0.635175	-0.023152
H48	H	0.000080	-0.596802	0.272474
H49	H	0.000130	-1.208874	-0.167145
Cl50	Cl	0.000053	-0.873570	-0.313995
H51	H	0.000120	-0.516682	-0.025399
Cl52	Cl	0.000061	-0.868134	-0.601760
Cl53	Cl	0.000119	-1.241366	-0.361744
H54	H	0.000096	-0.804443	-0.019958
H55	H	0.000066	-0.907800	-0.416517
H56	H	0.000117	-1.203437	-0.454903
H57	H	0.000076	-0.913240	-0.128756
H58	H	0.000103	-1.200238	-0.624165
H59	H	0.000079	-0.478296	0.270239
H60	H	0.000106	-0.309033	0.267039
