data_functionalizedCrystal
_audit_creation_method	'MofGen! by Chris Wilmer'
_symmetry_space_group_name_H-M	'P1'
_symmetry_Int_Tables_number	1
_symmetry_cell_setting	triclinic
loop_
_symmetry_equiv_pos_as_xyz
  x,y,z
_cell_length_a	11.792241
_cell_length_b	27.732048
_cell_length_c	10.268362
_cell_angle_alpha	89.989776
_cell_angle_beta	89.999626
_cell_angle_gamma	83.418036
loop_
_atom_site_label
_atom_site_type_symbol
_atom_site_fract_x
_atom_site_fract_y
_atom_site_fract_z
O1	O	1.504790	0.066248	-0.108189
O2	O	1.174230	0.073076	-0.108221
O3	O	1.349776	-0.000675	-0.108179
O4	O	1.329243	0.139999	-0.108231
O5	O	1.349761	-0.000678	0.108421
O6	O	1.174215	0.073073	0.108379
O7	O	1.504775	0.066245	0.108411
Cu8	Cu	1.339493	0.069659	0.128173
Cu9	Cu	1.339511	0.069662	-0.127983
O10	O	1.329228	0.139996	0.108370
C11	C	1.131945	0.072645	0.000075
C12	C	1.005973	0.071362	0.000064
C13	C	0.775336	0.069001	0.000103
C14	C	0.903679	0.070313	0.000082
C15	C	1.349338	-0.018686	0.000124
C16	C	1.348040	-0.072348	0.000135
C17	C	1.443606	-0.410609	0.000077
C18	C	1.438790	-0.612297	0.000059
O19	O	1.526178	-0.643045	0.000010
N20	N	1.334698	-0.632024	0.000050
C21	C	1.231803	-0.601327	0.000037
O22	O	1.143157	-0.622734	0.000016
C23	C	1.236620	-0.399640	0.000046
C24	C	1.340718	-0.379915	0.000069
C25	C	1.547695	-0.390884	0.000098
C26	C	1.548898	-0.340465	0.000110
C27	C	1.446011	-0.309771	0.000101
C28	C	1.341921	-0.329496	0.000080
C29	C	1.133726	-0.368943	0.000024
C30	C	1.134940	-0.318519	0.000023
C31	C	1.239038	-0.298794	0.000045
C32	C	1.240237	-0.248384	0.000083
N33	N	1.344328	-0.228656	0.000092
C34	C	1.447215	-0.259350	0.000101
C35	C	1.229282	-0.707215	0.000035
C36	C	1.228077	-0.757637	0.000035
C37	C	1.435065	-0.768603	0.000054
C38	C	1.436268	-0.718181	0.000063
C39	C	1.333374	-0.687488	0.000044
C40	C	1.449733	-0.153466	0.000127
C41	C	1.450927	-0.103042	0.000144
C42	C	1.243941	-0.092080	0.000118
C43	C	1.242746	-0.142500	0.000108
C44	C	1.345652	-0.173192	0.000108
O45	O	1.152896	-0.217607	0.000117
O46	O	1.535849	-0.237933	0.000093
C47	C	1.442403	-0.461028	0.000066
C48	C	1.338313	-0.480753	0.000045
C49	C	1.235426	-0.450060	0.000036
C50	C	1.337108	-0.531175	0.000045
C51	C	1.439996	-0.561868	0.000054
C52	C	1.544087	-0.542141	0.000063
C53	C	1.545290	-0.491722	0.000074
C54	C	1.131334	-0.469787	0.000027
C55	C	1.130140	-0.520207	0.000017
C56	C	1.233027	-0.550900	0.000026
C57	C	1.547059	0.066676	0.000112
C58	C	1.673032	0.067959	0.000114
C59	C	1.329667	0.158007	0.000063
C60	C	1.330965	0.211669	0.000044
N61	N	1.339489	0.069656	0.308339
N62	N	1.339525	0.069661	-0.308148
C63	C	1.339506	0.069661	0.574009
C64	C	1.339493	0.069660	0.426171
H65	H	1.535700	-0.086985	0.000165
H66	H	1.145488	-0.682229	0.000019
C67	C	1.655674	-0.575552	0.000001
C68	C	1.632324	-0.623929	-0.000046
C69	C	1.735082	-0.654723	-0.000129
H70	H	1.698481	-0.569616	0.075517
H71	H	1.698406	-0.569566	-0.075560
H72	H	1.589610	-0.629912	0.075507
H73	H	1.589533	-0.629880	-0.075556
H74	H	1.777813	-0.648737	-0.075691
H75	H	1.777881	-0.648783	0.075387
H76	H	1.719253	-0.687550	-0.000174
H77	H	1.633666	-0.324410	0.000122
H78	H	1.157981	-0.158560	0.000126
H79	H	1.143310	-0.773692	0.000040
C80	C	1.546739	-0.801957	-0.000218
C81	C	1.552088	-0.831204	-0.111677
C82	C	1.654946	-0.861932	-0.111994
H83	H	1.550683	-0.821907	0.075222
H84	H	1.608945	-0.783008	-0.000290
H85	H	1.489899	-0.850152	-0.111593
H86	H	1.548164	-0.811267	-0.187136
H87	H	1.717151	-0.842983	-0.112066
H88	H	1.658881	-0.881879	-0.036548
H89	H	1.658593	-0.881777	-0.187622
H90	H	1.630058	-0.475667	0.000092
C91	C	1.132275	-0.058725	-0.000166
C92	C	1.126938	-0.029460	-0.111620
C93	C	1.024083	0.001270	-0.111945
H94	H	1.128327	-0.038787	0.075278
H95	H	1.070067	-0.077673	-0.000251
H96	H	1.189129	-0.010514	-0.111523
H97	H	1.130867	-0.049385	-0.187082
H98	H	0.961875	-0.017678	-0.112031
H99	H	1.020144	0.021205	-0.036496
H100	H	1.020443	0.021126	-0.187571
C101	C	1.016992	-0.541525	-0.000073
C102	C	0.927154	-0.503847	-0.000115
C103	C	0.822910	-0.523464	-0.000229
H104	H	1.012038	-0.560968	0.075431
H105	H	1.012166	-0.560943	-0.075646
H106	H	0.931977	-0.484436	0.075450
H107	H	0.932069	-0.484401	-0.075613
H108	H	0.818084	-0.542883	-0.075802
H109	H	0.817969	-0.542907	0.075276
H110	H	0.761943	-0.497903	-0.000270
H111	H	1.047549	-0.444801	0.000017
H112	H	1.521034	-0.702125	0.000080
C113	C	1.561580	-0.186703	0.000200
C114	C	1.652983	-0.158628	0.000256
C115	C	1.756031	-0.189229	0.000349
H116	H	1.565594	-0.206605	-0.075315
H117	H	1.565473	-0.206599	0.075762
H118	H	1.649092	-0.138740	-0.075299
H119	H	1.649007	-0.138727	0.075764
H120	H	1.759925	-0.209125	0.075911
H121	H	1.760033	-0.209129	-0.075167
H122	H	1.818060	-0.170184	0.000399
C123	C	1.020584	-0.390256	-0.000073
C124	C	0.930753	-0.352575	-0.000124
C125	C	0.826505	-0.372189	-0.000233
H126	H	1.015626	-0.409697	0.075434
H127	H	1.015755	-0.409677	-0.075642
H128	H	0.935580	-0.333163	0.075438
H129	H	0.935674	-0.333132	-0.075625
H130	H	0.821675	-0.391609	-0.075803
H131	H	0.821558	-0.391629	0.075275
H132	H	0.765542	-0.346625	-0.000280
C133	C	1.023256	-0.285172	-0.000262
C134	C	1.017896	-0.255903	-0.111710
C135	C	0.915026	-0.225184	-0.112023
H136	H	1.019301	-0.265235	0.075186
H137	H	0.961061	-0.304127	-0.000346
H138	H	1.080074	-0.236950	-0.111615
H139	H	1.021831	-0.275827	-0.187176
H140	H	0.852831	-0.244138	-0.112107
H141	H	0.911080	-0.205250	-0.036571
H142	H	0.911371	-0.205325	-0.187645
H143	H	1.631483	-0.415870	0.000100
