data_functionalizedCrystal
_audit_creation_method	'MofGen! by Chris Wilmer'
_symmetry_space_group_name_H-M	'P1'
_symmetry_Int_Tables_number	1
_symmetry_cell_setting	triclinic
loop_
_symmetry_equiv_pos_as_xyz
  x,y,z
_cell_length_a	19.188925
_cell_length_b	19.188930
_cell_length_c	18.266242
_cell_angle_alpha	90.011475
_cell_angle_beta	89.990012
_cell_angle_gamma	96.856335
loop_
_atom_site_label
_atom_site_type_symbol
_atom_site_fract_x
_atom_site_fract_y
_atom_site_fract_z
O1	O	0.926152	-0.087151	-0.060905
O2	O	0.722840	-0.098889	-0.060904
O3	O	0.830363	0.008636	-0.060890
O4	O	0.818629	-0.194675	-0.060919
O5	O	0.830345	0.008642	0.060872
O6	O	0.722822	-0.098883	0.060858
O7	O	0.926133	-0.087145	0.060857
Zn8	Zn	0.824475	-0.093013	0.080190
Zn9	Zn	0.824499	-0.093021	-0.080237
O10	O	0.818610	-0.194670	0.060843
C11	C	0.696820	-0.098507	-0.000023
C12	C	0.619315	-0.097367	-0.000022
C13	C	0.057545	-0.152831	-0.000031
C14	C	0.130368	-0.153908	-0.000035
C15	C	0.175302	-0.090816	-0.000025
C16	C	0.147408	-0.026642	-0.000030
C17	C	0.074586	-0.025568	-0.000033
N18	N	0.295973	-0.045138	0.041430
N19	N	0.365151	-0.046163	0.041435
C20	C	0.394712	-0.094050	-0.000017
N21	N	0.352480	-0.140883	-0.041464
N22	N	0.283296	-0.139860	-0.041465
C23	C	0.254267	-0.091974	-0.000022
C24	C	0.501561	-0.159386	-0.000022
C25	C	0.574385	-0.160460	-0.000031
C26	C	0.591425	-0.033193	-0.000018
C27	C	0.518601	-0.032121	-0.000016
C28	C	0.473673	-0.095220	-0.000015
C29	C	0.829974	0.034650	-0.000007
C30	C	0.828833	0.112154	-0.000001
C31	C	0.952154	-0.087527	-0.000026
C32	C	1.029658	-0.088666	-0.000032
C33	C	0.819000	-0.220684	-0.000041
C34	C	0.820140	-0.298188	-0.000053
N35	N	0.824463	-0.093008	0.189677
C36	C	0.891924	0.157079	0.000002
C37	C	0.890852	0.229903	-0.000009
C38	C	0.826686	0.257799	-0.000010
C39	C	0.763587	0.212864	-0.000017
C40	C	0.764660	0.140041	-0.000012
N41	N	0.777633	0.365805	0.041429
N42	N	0.776617	0.434983	0.041426
C43	C	0.823448	0.477207	-0.000024
N44	N	0.871343	0.447641	-0.041463
N45	N	0.872361	0.378456	-0.041457
C46	C	0.825515	0.336761	-0.000015
C47	C	0.885381	0.601097	-0.000035
C48	C	0.884307	0.673922	-0.000051
C49	C	0.757040	0.656880	-0.000051
C50	C	0.758116	0.584057	-0.000042
C51	C	0.822289	0.556170	-0.000031
N52	N	0.824515	-0.093020	-0.189724
C53	C	0.872090	-0.045419	0.227992
C54	C	0.872095	-0.045416	0.304637
C55	C	0.824479	-0.093013	0.342964
C56	C	0.776843	-0.140606	0.304639
C57	C	0.776836	-0.140603	0.227996
N58	N	0.815403	-0.154821	0.463287
N59	N	0.815415	-0.154821	0.536096
C60	C	0.824499	-0.093024	0.573886
N61	N	0.833584	-0.031223	0.536118
N62	N	0.833576	-0.031223	0.463303
C63	C	0.824482	-0.093021	0.426071
C64	C	0.872133	-0.045427	0.695308
C65	C	0.872132	-0.045423	0.771955
C66	C	0.776884	-0.140619	0.771956
C67	C	0.776881	-0.140617	0.695311
C68	C	0.824509	-0.093022	0.656992
H69	H	0.628010	0.018178	-0.000015
H70	H	0.738051	-0.179356	0.196799
H71	H	0.738112	-0.179371	0.803161
O72	O	0.047611	0.036826	0.000003
C73	C	0.102883	0.092285	-0.000011
H74	H	0.152293	0.072869	0.023038
H75	H	0.087795	0.137102	0.035343
H76	H	0.113255	0.111730	-0.058426
O77	O	0.191126	0.034599	-0.000116
C78	C	0.233761	0.037786	-0.063183
H79	H	0.237276	-0.017625	-0.084210
H80	H	0.288573	0.063961	-0.048994
H81	H	0.209911	0.069597	-0.107342
O82	O	0.013873	-0.214104	0.000088
C83	C	-0.028790	-0.217280	0.063135
H84	H	-0.002021	-0.181494	0.107220
H85	H	-0.037159	-0.273545	0.084293
H86	H	-0.081687	-0.199369	0.048873
H87	H	0.704794	0.679592	-0.000055
H88	H	0.464978	-0.210765	-0.000022
O89	O	0.730562	-0.186747	0.341948
C90	C	0.687602	-0.149461	0.386293
H91	H	0.715582	-0.094757	0.397780
H92	H	0.676474	-0.178634	0.440185
H93	H	0.636014	-0.144843	0.356774
O94	O	0.491624	0.030271	0.000025
C95	C	0.546898	0.085729	0.000015
H96	H	0.596306	0.066311	0.023066
H97	H	0.531809	0.130545	0.035370
H98	H	0.557272	0.105176	-0.058398
H99	H	0.738102	-0.179371	0.664113
H100	H	0.910879	-0.006662	0.335839
H101	H	0.597088	-0.212713	-0.000036
O102	O	0.157350	-0.216302	0.000001
C103	C	0.102080	-0.271763	-0.000019
H104	H	0.052661	-0.252341	0.023028
H105	H	0.117157	-0.316568	0.035335
H106	H	0.091730	-0.291226	-0.058435
O107	O	0.954321	0.130107	-0.000023
C108	C	1.009777	0.185382	-0.000004
H109	H	0.990361	0.234789	-0.023060
H110	H	1.054599	0.170294	-0.035350
H111	H	1.029216	0.195759	0.058413
H112	H	0.910912	-0.006670	0.664108
H113	H	0.942230	0.266488	-0.000010
H114	H	0.711342	0.235581	-0.000019
O115	O	0.918468	0.000833	0.809063
C116	C	0.960490	0.042849	0.758802
H117	H	0.961182	0.014225	0.704161
H118	H	1.016282	0.053631	0.780934
H119	H	0.937990	0.094665	0.750669
O120	O	0.703389	0.096369	-0.000141
C121	C	0.700222	0.053706	-0.063189
H122	H	0.736014	0.080475	-0.107267
H123	H	0.643959	0.045338	-0.084358
H124	H	0.718129	0.000809	-0.048924
H125	H	0.937635	0.578390	-0.000029
O126	O	0.696764	0.540512	-0.000004
C127	C	0.639898	0.580746	-0.000025
H128	H	0.657783	0.635159	0.023023
H129	H	0.595700	0.553755	0.035329
H130	H	0.620226	0.585856	-0.058440
O131	O	0.945580	0.717592	-0.000181
C132	C	0.948774	0.760218	-0.063239
H133	H	0.912997	0.733426	-0.107315
H134	H	1.005045	0.768571	-0.084403
H135	H	0.930864	0.813125	-0.048991
O136	O	0.918376	0.000886	0.190883
C137	C	0.960425	0.042879	0.241143
H138	H	0.931809	0.043592	0.295786
H139	H	0.971248	0.098667	0.219013
H140	H	1.012219	0.020335	0.249271
