data_functionalizedCrystal
_audit_creation_method	'MofGen! by Chris Wilmer'
_symmetry_space_group_name_H-M	'P1'
_symmetry_Int_Tables_number	1
_symmetry_cell_setting	triclinic
loop_
_symmetry_equiv_pos_as_xyz
  x,y,z
_cell_length_a	18.101398
_cell_length_b	29.839131
_cell_length_c	18.101389
_cell_angle_alpha	89.978713
_cell_angle_beta	89.975673
_cell_angle_gamma	90.036686
loop_
_atom_site_label
_atom_site_type_symbol
_atom_site_fract_x
_atom_site_fract_y
_atom_site_fract_z
Zn1	Zn	1.132068	-0.178957	-0.418824
Zn2	Zn	1.632068	0.321043	0.081176
Zn3	Zn	1.131941	-0.254074	-0.294976
Zn4	Zn	1.631941	0.245926	0.205024
Zn5	Zn	1.008227	-0.178952	-0.294985
Zn6	Zn	1.508227	0.321048	0.205015
Zn7	Zn	1.008155	-0.254055	-0.418765
Zn8	Zn	1.508155	0.245945	0.081235
O9	O	1.070098	-0.216510	-0.356887
O10	O	1.570098	0.283490	0.143113
O11	O	1.235684	-0.188932	-0.402416
O12	O	1.735684	0.311068	0.097584
O13	O	1.115507	-0.244115	-0.191344
O14	O	1.615507	0.255885	0.308656
O15	O	1.024737	-0.116086	-0.311441
O16	O	1.524737	0.383914	0.188559
O17	O	1.235591	-0.244119	-0.311426
O18	O	1.735591	0.255881	0.188574
O19	O	1.115723	-0.116089	-0.402425
O20	O	1.615723	0.383911	0.097575
O21	O	1.024615	-0.188924	-0.191351
O22	O	1.524615	0.311076	0.308649
O23	O	0.904584	-0.188905	-0.311384
O24	O	1.404584	0.311095	0.188616
O25	O	1.024615	-0.244087	-0.522406
O26	O	1.524615	0.255913	-0.022406
O27	O	0.904532	-0.244082	-0.402324
O28	O	1.404532	0.255918	0.097676
O29	O	1.115654	-0.188913	-0.522449
O30	O	1.615654	0.311087	-0.022449
O31	O	1.115438	-0.316938	-0.311369
O32	O	1.615438	0.183062	0.188631
O33	O	1.024493	-0.316924	-0.402315
O34	O	1.524493	0.183076	0.097685
C35	C	0.877687	-0.216491	-0.356849
C36	C	1.377687	0.283509	0.143151
C37	C	0.795373	-0.216494	-0.356850
C38	C	1.295373	0.283506	0.143150
C39	C	0.496282	-0.216522	-0.356912
C40	C	0.996282	0.283478	0.143088
C41	C	0.527616	-0.181633	-0.299974
C42	C	1.027616	0.318367	0.200026
C43	C	0.613234	-0.181726	-0.299731
C44	C	1.113234	0.318274	0.200269
C45	C	0.644665	-0.216508	-0.356881
C46	C	1.144665	0.283492	0.143119
C47	C	0.613533	-0.263830	-0.335553
C48	C	1.113533	0.236170	0.164447
C49	C	0.527888	-0.263636	-0.335157
C50	C	1.027888	0.236364	0.164843
C51	C	0.527900	-0.204501	-0.435313
C52	C	1.027900	0.295499	0.064687
C53	C	0.613552	-0.203447	-0.434885
C54	C	1.113552	0.296553	0.065115
C55	C	0.728524	-0.216503	-0.356865
C56	C	1.228524	0.283497	0.143135
C57	C	0.412423	-0.216531	-0.356926
C58	C	0.912423	0.283469	0.143074
C59	C	1.069964	-0.333232	-0.356851
C60	C	1.569964	0.166768	0.143149
C61	C	1.069975	-0.383167	-0.356860
C62	C	1.569975	0.116833	0.143140
C63	C	1.117539	-0.692805	-0.309601
C64	C	1.617539	-0.192805	0.190399
C65	C	1.117631	-0.880478	-0.309629
C66	C	1.617631	-0.380478	0.190371
O67	O	1.157965	-0.904738	-0.269420
O68	O	1.657965	-0.404738	0.230580
N69	N	1.070251	-0.903952	-0.356943
N70	N	1.570251	-0.403952	0.143057
C71	C	1.022849	-0.880504	-0.404257
C72	C	1.522849	-0.380504	0.095743
O73	O	0.982558	-0.904777	-0.444506
O74	O	1.482558	-0.404777	0.055494
C75	C	1.022762	-0.692832	-0.404231
C76	C	1.522762	-0.192832	0.095769
C77	C	1.070139	-0.669361	-0.356909
C78	C	1.570139	-0.169361	0.143091
C79	C	1.164913	-0.669333	-0.262283
C80	C	1.664913	-0.169333	0.237717
C81	C	1.164887	-0.622418	-0.262273
C82	C	1.664887	-0.122418	0.237727
C83	C	1.117487	-0.598974	-0.309582
C84	C	1.617487	-0.098974	0.190418
C85	C	1.070113	-0.622445	-0.356899
C86	C	1.570113	-0.122445	0.143101
C87	C	0.975365	-0.669386	-0.451548
C88	C	1.475365	-0.169386	0.048452
C89	C	0.975348	-0.622465	-0.451539
C90	C	1.475348	-0.122465	0.048461
C91	C	1.022725	-0.598993	-0.404217
C92	C	1.522725	-0.098993	0.095783
C93	C	1.022687	-0.552086	-0.404198
C94	C	1.522687	-0.052086	0.095802
N95	N	1.070066	-0.528612	-0.356884
N96	N	1.570066	-0.028612	0.143116
C97	C	1.117466	-0.552056	-0.309576
C98	C	1.617466	-0.052056	0.190424
C99	C	1.022898	-0.979035	-0.404266
C100	C	1.522898	-0.479035	0.095734
C101	C	1.022918	-1.025953	-0.404272
C102	C	1.522918	-0.525953	0.095728
C103	C	1.117700	-1.025923	-0.309645
C104	C	1.617700	-0.525923	0.190355
C105	C	1.117675	-0.979004	-0.309636
C106	C	1.617675	-0.479004	0.190364
C107	C	1.070277	-0.955561	-0.356952
C108	C	1.570277	-0.455561	0.143048
C109	C	1.117407	-0.453530	-0.309559
C110	C	1.617407	0.046470	0.190441
C111	C	1.117374	-0.406610	-0.309551
C112	C	1.617374	0.093390	0.190449
C113	C	1.022595	-0.406645	-0.404181
C114	C	1.522595	0.093355	0.095819
C115	C	1.022625	-0.453560	-0.404186
C116	C	1.522625	0.046440	0.095814
C117	C	1.070037	-0.477002	-0.356872
C118	C	1.570037	0.022998	0.143128
O119	O	0.982379	-0.527797	-0.444393
O120	O	1.482379	-0.027797	0.055607
O121	O	1.157763	-0.527776	-0.269344
O122	O	1.657763	-0.027776	0.230656
C123	C	1.117565	-0.739720	-0.309610
C124	C	1.617565	-0.239720	0.190390
C125	C	1.070192	-0.763192	-0.356928
C126	C	1.570192	-0.263192	0.143072
C127	C	1.022792	-0.739748	-0.404236
C128	C	1.522792	-0.239748	0.095764
C129	C	1.070212	-0.810109	-0.356934
C130	C	1.570212	-0.310109	0.143066
C131	C	1.117612	-0.833553	-0.309625
C132	C	1.617612	-0.333553	0.190375
C133	C	1.164991	-0.810079	-0.262311
C134	C	1.664991	-0.310079	0.237689
C135	C	1.164965	-0.763164	-0.262302
C136	C	1.664965	-0.263164	0.237698
C137	C	0.975413	-0.763222	-0.451550
C138	C	1.475413	-0.263222	0.048450
C139	C	0.975442	-0.810137	-0.451556
C140	C	1.475442	-0.310137	0.048444
C141	C	1.022842	-0.833581	-0.404247
C142	C	1.522842	-0.333581	0.095753
C143	C	1.263260	-0.216528	-0.356927
C144	C	1.763260	0.283472	0.143073
C145	C	1.345574	-0.216536	-0.356943
C146	C	1.845574	0.283464	0.143057
C147	C	1.070141	-0.216498	-0.550049
C148	C	1.570141	0.283502	-0.050049
C149	C	1.070159	-0.216493	-0.632364
C150	C	1.570159	0.283507	-0.132364
C151	C	1.070252	-0.099331	-0.356941
C152	C	1.570252	0.400669	0.143059
C153	C	1.070318	-0.049397	-0.356963
C154	C	1.570318	0.450603	0.143037
C155	C	1.070202	-0.216409	-0.931455
C156	C	1.570202	0.283591	-0.431455
C157	C	1.012726	-0.251013	-0.900102
C158	C	1.512726	0.248987	-0.400102
C159	C	1.012881	-0.251173	-0.814484
C160	C	1.512881	0.248827	-0.314484
C161	C	1.070180	-0.216451	-0.783072
C162	C	1.570180	0.283549	-0.283072
C163	C	1.148202	-0.229306	-0.814177
C164	C	1.648202	0.270694	-0.314177
C165	C	1.147881	-0.229533	-0.899822
C166	C	1.647881	0.270467	-0.399822
C167	C	1.050335	-0.168874	-0.899883
C168	C	1.550335	0.331126	-0.399883
C169	C	1.048599	-0.169148	-0.814232
C170	C	1.548599	0.330852	-0.314232
C171	C	1.070172	-0.216474	-0.699213
C172	C	1.570172	0.283526	-0.199213
C173	C	1.070215	-0.216387	-1.015314
C174	C	1.570215	0.283613	-0.515314
C175	C	1.070098	-0.216488	-0.164477
C176	C	1.570098	0.283512	0.335523
C177	C	1.070223	-0.216367	-0.082163
C178	C	1.570223	0.283633	0.417837
H179	H	0.506064	-0.189489	-0.242218
H180	H	1.006064	0.310511	0.257782
N181	N	0.638885	-0.191696	-0.226851
N182	N	1.138885	0.308304	0.273149
N183	N	0.593533	-0.198609	-0.176009
N184	N	1.093533	0.301391	0.323991
H185	H	0.611648	-0.205652	-0.124534
H186	H	1.111648	0.294348	0.375466
H187	H	1.025997	-0.286408	-0.793999
H188	H	1.525997	0.213592	-0.293999
H189	H	0.507873	-0.273832	-0.277842
H190	H	1.007873	0.226168	0.222158
N191	N	0.639636	-0.137700	-0.316481
N192	N	1.139636	0.362300	0.183519
N193	N	0.594809	-0.106689	-0.328431
N194	N	1.094809	0.393311	0.171569
H195	H	0.613451	-0.075591	-0.340251
H196	H	1.113451	0.424409	0.159749
N197	N	1.165772	-0.382643	-0.261202
N198	N	1.665772	0.117357	0.238798
N199	N	1.208089	-0.403584	-0.218967
N200	N	1.708089	0.096416	0.281033
H201	H	1.242269	-0.386658	-0.184821
H202	H	1.742269	0.113342	0.315179
H203	H	1.203584	-0.829176	-0.223789
H204	H	1.703584	-0.329176	0.276211
H205	H	0.507056	-0.146434	-0.313196
H206	H	1.007056	0.353566	0.186804
N207	N	1.165839	-0.477464	-0.261224
N208	N	1.665839	0.022536	0.238776
N209	N	1.208128	-0.456494	-0.218981
N210	N	1.708128	0.043506	0.281019
H211	H	1.242330	-0.473396	-0.184840
H212	H	1.742330	0.026604	0.315160
N213	N	0.926962	-0.693352	-0.499882
N214	N	1.426962	-0.193352	0.000118
N215	N	0.858627	-0.688148	-0.494905
N216	N	1.358627	-0.188148	0.005095
H217	H	0.824440	-0.705073	-0.529044
H218	H	1.324440	-0.205073	-0.029044
H219	H	1.156295	-1.045019	-0.271125
H220	H	1.656295	-0.545019	0.228875
N221	N	0.927053	-0.834110	-0.499907
N222	N	1.427053	-0.334110	0.000093
N223	N	0.953100	-0.860257	-0.547134
N224	N	1.453100	-0.360257	-0.047134
H225	H	0.918931	-0.877186	-0.581286
H226	H	1.418931	-0.377186	-0.081286
N227	N	0.939919	-0.241027	-0.925909
N228	N	1.439919	0.258973	-0.425909
N229	N	0.889658	-0.232402	-0.880735
N230	N	1.389658	0.267598	-0.380735
H231	H	0.838235	-0.225349	-0.898965
H232	H	1.338235	0.274651	-0.398965
H233	H	0.936815	-0.744137	-0.490076
H234	H	1.436815	-0.244137	0.009924
N235	N	1.166082	-0.955030	-0.261311
N236	N	1.666082	-0.455030	0.238689
N237	N	1.213251	-0.928819	-0.287409
N238	N	1.713251	-0.428819	0.212591
H239	H	1.247441	-0.911889	-0.253279
H240	H	1.747441	-0.411889	0.246721
H241	H	1.025711	-0.286032	-0.921625
H242	H	1.525711	0.213968	-0.421625
H243	H	0.991182	-0.159454	-0.793901
H244	H	1.491182	0.340546	-0.293901
H245	H	1.164725	-0.264282	-0.919802
H246	H	1.664725	0.235718	-0.419802
H247	H	0.984332	-1.045059	-0.442799
H248	H	1.484332	-0.545059	0.057201
H249	H	1.087408	-0.141998	-0.792850
H250	H	1.587408	0.358002	-0.292850
N251	N	0.940305	-0.241074	-0.788096
N252	N	1.440305	0.258926	-0.288096
N253	N	0.910531	-0.204644	-0.804638
N254	N	1.410531	0.295356	-0.304638
H255	H	0.859270	-0.197513	-0.786005
H256	H	1.359270	0.302487	-0.286005
N257	N	1.203423	-0.199287	-0.925837
N258	N	1.703423	0.300713	-0.425837
N259	N	1.242302	-0.178080	-0.880738
N260	N	1.742302	0.321920	-0.380738
H261	H	1.281529	-0.156720	-0.899107
H262	H	1.781529	0.343280	-0.399107
H263	H	0.984049	-0.472671	-0.442722
H264	H	1.484049	0.027329	0.057278
N265	N	0.974474	-0.955099	-0.452607
N266	N	1.474474	-0.455099	0.047393
N267	N	0.932178	-0.976069	-0.494844
N268	N	1.432178	-0.476069	0.005156
H269	H	0.897976	-0.959166	-0.528984
H270	H	1.397976	-0.459166	-0.028984
N271	N	0.502466	-0.236375	-0.488534
N272	N	1.002466	0.263625	0.011466
N273	N	0.464880	-0.223654	-0.542517
N274	N	0.964880	0.276346	-0.042517
H275	H	0.446912	-0.246167	-0.580098
H276	H	0.946912	0.253833	-0.080098
H277	H	0.634950	-0.227008	-0.479581
H278	H	1.134950	0.272992	0.020419
N279	N	1.203361	-0.198679	-0.788655
N280	N	1.703361	0.301321	-0.288655
N281	N	1.185742	-0.166961	-0.747156
N282	N	1.685742	0.333039	-0.247156
H283	H	1.224697	-0.145330	-0.729130
H284	H	1.724697	0.354670	-0.229130
H285	H	1.203467	-0.603310	-0.223741
H286	H	1.703467	-0.103310	0.276259
H287	H	0.507158	-0.290511	-0.374819
H288	H	1.007158	0.209489	0.125181
H289	H	0.936751	-0.603380	-0.490072
H290	H	1.436751	-0.103380	0.009928
N291	N	1.169694	-0.272434	-0.787268
N292	N	1.669694	0.227566	-0.287268
N293	N	1.127686	-0.293777	-0.745192
N294	N	1.627686	0.206223	-0.245192
H295	H	1.142861	-0.324237	-0.726187
H296	H	1.642861	0.175763	-0.226187
N297	N	0.974184	-0.382699	-0.452516
N298	N	1.474184	0.117301	0.047484
N299	N	0.931889	-0.403657	-0.494769
N300	N	1.431889	0.096343	0.005231
H301	H	0.897702	-0.386745	-0.528912
H302	H	1.397702	0.113255	-0.028912
H303	H	0.994431	-0.157163	-0.921470
H304	H	1.494431	0.342837	-0.421470
N305	N	1.213332	-0.693268	-0.213941
N306	N	1.713332	-0.193268	0.286059
N307	N	1.208450	-0.688039	-0.145603
N308	N	1.708450	-0.188039	0.354397
H309	H	1.242647	-0.704940	-0.111454
H310	H	1.742647	-0.204940	0.388546
H311	H	1.203544	-0.744057	-0.223768
H312	H	1.703544	-0.244057	0.276232
N313	N	0.639070	-0.297312	-0.385954
N314	N	1.139070	0.202688	0.114046
N315	N	0.680601	-0.286644	-0.438279
N316	N	1.180601	0.213356	0.061721
H317	H	0.698638	-0.310289	-0.473877
H318	H	1.198638	0.189711	0.026123
N319	N	0.640396	-0.276839	-0.264429
N320	N	1.140396	0.223161	0.235571
N321	N	0.682460	-0.251341	-0.229325
N322	N	1.182460	0.248659	0.270675
H323	H	0.701432	-0.260526	-0.179092
H324	H	1.201432	0.239474	0.320908
N325	N	1.102847	-0.136533	-0.925334
N326	N	1.602847	0.363467	-0.425334
N327	N	1.110747	-0.129780	-0.993034
N328	N	1.610747	0.370220	-0.493034
H329	H	1.147836	-0.106943	-1.011013
H330	H	1.647836	0.393057	-0.511013
N331	N	0.500842	-0.161968	-0.459635
N332	N	1.000842	0.338032	0.040365
N333	N	0.457920	-0.139996	-0.419475
N334	N	0.957920	0.360004	0.080525
H335	H	0.438808	-0.109956	-0.436645
H336	H	0.938808	0.390044	0.063355
N337	N	0.639084	-0.159760	-0.455052
N338	N	1.139084	0.340240	0.044948
N339	N	0.680046	-0.138298	-0.412177
N340	N	1.180046	0.361702	0.087823
H341	H	0.698083	-0.107443	-0.426417
H342	H	1.198083	0.392557	0.073583
