data_functionalizedCrystal
_audit_creation_method	'MofGen! by Chris Wilmer'
_symmetry_space_group_name_H-M	'P1'
_symmetry_Int_Tables_number	1
_symmetry_cell_setting	triclinic
loop_
_symmetry_equiv_pos_as_xyz
  x,y,z
_cell_length_a	23.532407
_cell_length_b	26.809956
_cell_length_c	23.532407
_cell_angle_alpha	89.999665
_cell_angle_beta	82.848674
_cell_angle_gamma	89.997642
loop_
_atom_site_label
_atom_site_type_symbol
_atom_site_fract_x
_atom_site_fract_y
_atom_site_fract_z
O1	O	-0.755264	0.041410	-0.069127
O2	O	-0.589401	0.041428	-0.079130
O3	O	-0.677334	0.041409	0.008803
O4	O	-0.667331	0.041429	-0.157060
O5	O	-0.677317	-0.041550	0.008790
O6	O	-0.589384	-0.041531	-0.079143
O7	O	-0.755247	-0.041549	-0.069140
Zn8	Zn	-0.672313	-0.054712	-0.074144
Zn9	Zn	-0.672335	0.054591	-0.074126
O10	O	-0.667314	-0.041531	-0.157073
C11	C	-0.568176	-0.000049	-0.078882
C12	C	-0.504959	-0.000043	-0.078116
C13	C	-0.105856	-0.000053	-0.125350
C14	C	-0.046456	-0.000056	-0.124638
O15	O	-0.009711	-0.000068	-0.168424
N16	N	-0.023830	-0.000060	-0.072362
C17	C	-0.060607	-0.000068	-0.020794
O18	O	-0.035908	-0.000073	0.023737
C19	C	-0.120006	-0.000070	-0.021506
C20	C	-0.142629	-0.000060	-0.073785
C21	C	-0.128479	-0.000044	-0.177625
C22	C	-0.187876	-0.000041	-0.178336
C23	C	-0.224649	-0.000047	-0.126772
C24	C	-0.202025	-0.000057	-0.074496
C25	C	-0.156783	-0.000081	0.030062
C26	C	-0.216185	-0.000083	0.029345
C27	C	-0.238808	-0.000073	-0.022934
C28	C	-0.298194	-0.000060	-0.023643
N29	N	-0.320820	-0.000055	-0.075920
C30	C	-0.284048	-0.000049	-0.127484
C31	C	0.064135	-0.000066	-0.019302
C32	C	0.123533	-0.000061	-0.018589
C33	C	0.137680	-0.000049	-0.122434
C34	C	0.078281	-0.000051	-0.123146
C35	C	0.041509	-0.000061	-0.071578
C36	C	-0.408784	-0.000042	-0.128974
C37	C	-0.468186	-0.000037	-0.129680
C38	C	-0.482329	-0.000051	-0.025836
C39	C	-0.422932	-0.000054	-0.025129
C40	C	-0.386160	-0.000051	-0.076702
O41	O	-0.334974	-0.000049	0.020119
O42	O	-0.308755	-0.000051	-0.172007
N43	N	-0.672302	-0.129308	-0.074156
C44	C	-0.711267	-0.473942	-0.035199
C45	C	-0.711280	-0.682820	-0.035190
O46	O	-0.744386	-0.709831	-0.002071
N47	N	-0.672338	-0.708935	-0.074114
C48	C	-0.633387	-0.682827	-0.113040
O49	O	-0.600261	-0.709833	-0.146142
C50	C	-0.633371	-0.473951	-0.113045
C51	C	-0.672320	-0.447838	-0.074123
C52	C	-0.750212	-0.447830	0.003721
C53	C	-0.750210	-0.395613	0.003716
C54	C	-0.711263	-0.369510	-0.035208
C55	C	-0.672318	-0.395622	-0.074128
C56	C	-0.594418	-0.447844	-0.151968
C57	C	-0.594417	-0.395622	-0.151965
C58	C	-0.633365	-0.369509	-0.113043
C59	C	-0.633370	-0.317302	-0.113056
N60	N	-0.672312	-0.291187	-0.074133
C61	C	-0.711259	-0.317291	-0.035209
C62	C	-0.633399	-0.792491	-0.113035
C63	C	-0.633404	-0.844710	-0.113034
C64	C	-0.711296	-0.844699	-0.035184
C65	C	-0.711294	-0.792479	-0.035188
C66	C	-0.672341	-0.766376	-0.074111
C67	C	-0.711253	-0.207633	-0.035222
C68	C	-0.711249	-0.155412	-0.035231
C69	C	-0.633355	-0.155427	-0.113079
C70	C	-0.633360	-0.207644	-0.113072
C71	C	-0.672311	-0.233745	-0.074138
O72	O	-0.600277	-0.290259	-0.146153
O73	O	-0.744372	-0.290276	-0.002103
C74	C	-0.711269	-0.526158	-0.035194
C75	C	-0.672324	-0.552271	-0.074114
C76	C	-0.633377	-0.526167	-0.113038
C77	C	-0.672328	-0.604490	-0.074113
C78	C	-0.711275	-0.630594	-0.035189
C79	C	-0.750217	-0.604479	0.003734
C80	C	-0.750215	-0.552262	0.003730
C81	C	-0.594435	-0.552282	-0.151961
C82	C	-0.594440	-0.604498	-0.151954
C83	C	-0.633387	-0.630602	-0.113030
C84	C	0.223528	-0.000067	-0.069388
C85	C	0.160311	-0.000058	-0.070154
C86	C	-0.677071	-0.000072	0.030013
C87	C	-0.676305	-0.000075	0.093230
N88	N	-0.672350	0.129186	-0.074110
C89	C	-0.667577	-0.000049	-0.178283
C90	C	-0.668343	-0.000042	-0.241500
C91	C	-0.723539	-0.000053	0.492333
C92	C	-0.722827	-0.000049	0.551733
O93	O	-0.766613	-0.000036	0.588478
N94	N	-0.670551	-0.000044	0.574359
C95	C	-0.618983	-0.000037	0.537582
O96	O	-0.574452	-0.000032	0.562281
C97	C	-0.619695	-0.000038	0.478183
C98	C	-0.671974	-0.000048	0.455560
C99	C	-0.775814	-0.000063	0.469710
C100	C	-0.776525	-0.000068	0.410313
C101	C	-0.724961	-0.000063	0.373541
C102	C	-0.672685	-0.000053	0.396164
C103	C	-0.568127	-0.000028	0.441406
C104	C	-0.568844	-0.000028	0.382004
C105	C	-0.621123	-0.000038	0.359381
C106	C	-0.621832	-0.000053	0.299995
N107	N	-0.674109	-0.000058	0.277369
C108	C	-0.725673	-0.000063	0.314141
C109	C	-0.617491	-0.000036	0.662324
C110	C	-0.616778	-0.000039	0.721722
C111	C	-0.720623	-0.000050	0.735869
C112	C	-0.721335	-0.000050	0.676470
C113	C	-0.669767	-0.000041	0.639698
C114	C	-0.727163	-0.000074	0.189405
C115	C	-0.727869	-0.000080	0.130003
C116	C	-0.624025	-0.000067	0.115860
C117	C	-0.623318	-0.000063	0.175257
C118	C	-0.674891	-0.000064	0.212029
O119	O	-0.578070	-0.000064	0.263215
O120	O	-0.770196	-0.000062	0.289434
H121	H	0.141947	-0.000061	0.023982
H122	H	0.167632	-0.000047	-0.164421
H123	H	-0.098544	-0.000041	-0.219617
H124	H	0.059867	-0.000046	-0.165717
H125	H	-0.580748	-0.000068	0.193677
C126	C	-0.176758	-0.000112	0.132632
C127	C	-0.131927	-0.000099	0.087531
H128	H	-0.161413	-0.000127	0.168112
H129	H	-0.199629	0.028819	0.130202
H130	H	-0.199631	-0.029041	0.130173
H131	H	-0.109056	0.028832	0.089987
H132	H	-0.109047	-0.029033	0.089962
C133	C	-0.763010	-0.663202	0.081306
C134	C	-0.793026	-0.633179	0.046523
H135	H	-0.789436	-0.680920	0.107724
H136	H	-0.739820	-0.686220	0.058121
H137	H	-0.739425	-0.642824	0.101670
H138	H	-0.816608	-0.653557	0.026156
H139	H	-0.816226	-0.610158	0.069711
H140	H	-0.742968	-0.134153	-0.003536
H141	H	-0.770443	-0.000090	0.111587
H142	H	-0.512280	-0.000054	0.016146
C143	C	-0.829881	-0.000092	0.197406
C144	C	-0.783853	-0.000080	0.229818
H145	H	-0.864878	-0.000101	0.222356
H146	H	-0.828003	0.028836	0.173945
H147	H	-0.827981	-0.029024	0.173943
H148	H	-0.785750	0.028855	0.253278
H149	H	-0.785731	-0.029010	0.253289
C150	C	-0.620599	-0.903429	-0.190615
C151	C	-0.590594	-0.873408	-0.155823
H152	H	-0.594167	-0.921143	-0.217032
H153	H	-0.643787	-0.926452	-0.167436
H154	H	-0.644185	-0.883051	-0.210979
H155	H	-0.567011	-0.893787	-0.135456
H156	H	-0.567396	-0.850383	-0.179005
C157	C	-0.556411	-0.797758	-0.189990
C158	C	-0.590583	-0.763803	-0.155828
H159	H	-0.529982	-0.780048	-0.216413
H160	H	-0.536064	-0.818125	-0.166385
H161	H	-0.580012	-0.818125	-0.210349
H162	H	-0.566982	-0.743438	-0.135467
H163	H	-0.610931	-0.743427	-0.179437
C164	C	-0.782381	-0.042703	0.617887
C165	C	-0.778803	-0.000058	0.651608
H166	H	-0.817863	-0.042707	0.602544
H167	H	-0.751781	-0.042695	0.587483
H168	H	-0.779935	-0.071630	0.640768
H169	H	-0.781244	0.028869	0.628725
H170	H	-0.809411	-0.000061	0.682016
H171	H	-0.817806	-0.000065	0.499645
H172	H	0.034198	-0.000070	0.022693
H173	H	-0.582043	-0.000064	0.085909
C174	C	-0.291187	-0.042738	0.088790
C175	C	-0.256604	-0.000093	0.086033
H176	H	-0.316136	-0.042744	0.123789
H177	H	-0.313164	-0.042728	0.057562
H178	H	-0.267714	-0.071665	0.086901
H179	H	-0.280077	0.028835	0.087918
H180	H	-0.234625	-0.000098	0.117270
C181	C	-0.780069	0.042602	0.810875
C182	C	-0.777307	-0.000048	0.776296
H183	H	-0.815062	0.042604	0.835830
H184	H	-0.748834	0.042601	0.832845
H185	H	-0.778192	0.071526	0.787399
H186	H	-0.779179	-0.028972	0.799772
H187	H	-0.808549	-0.000052	0.754325
H188	H	-0.574207	-0.000039	0.740136
C189	C	-0.788248	-0.202362	0.041728
C190	C	-0.754069	-0.236318	0.007573
H191	H	-0.814683	-0.220072	0.068144
H192	H	-0.764656	-0.181997	0.062089
H193	H	-0.808592	-0.181994	0.018113
H194	H	-0.733722	-0.256683	0.031188
H195	H	-0.777663	-0.256692	-0.012789
C196	C	-0.517417	-0.442587	-0.228906
C197	C	-0.551601	-0.476537	-0.194751
H198	H	-0.490980	-0.460302	-0.255317
H199	H	-0.541006	-0.422222	-0.249273
H200	H	-0.497076	-0.422219	-0.205291
H201	H	-0.571946	-0.496903	-0.218365
H202	H	-0.528010	-0.496912	-0.174383
H203	H	-0.404512	-0.000054	0.017441
H204	H	-0.781924	-0.374356	0.035411
C205	C	-0.507054	-0.042653	0.499985
C206	C	-0.510659	-0.000011	0.466263
H207	H	-0.471572	-0.042642	0.515327
H208	H	-0.537653	-0.042656	0.530389
H209	H	-0.509482	-0.071582	0.477104
H210	H	-0.508235	0.028919	0.489145
H211	H	-0.480051	-0.000004	0.435855
C212	C	-0.827208	-0.442560	0.080662
C213	C	-0.793031	-0.476517	0.046508
H214	H	-0.853649	-0.460269	0.107073
H215	H	-0.803616	-0.422199	0.101027
H216	H	-0.847546	-0.422188	0.057046
H217	H	-0.772689	-0.496887	0.070123
H218	H	-0.816626	-0.496887	0.026141
C219	C	-0.466125	-0.000011	0.373990
C220	C	-0.512157	-0.000019	0.341584
H221	H	-0.431130	-0.000010	0.349037
H222	H	-0.468016	0.028918	0.397449
H223	H	-0.468005	-0.028942	0.397456
H224	H	-0.510278	0.028913	0.318121
H225	H	-0.510264	-0.028952	0.318115
C226	C	-0.788837	-0.733712	-0.022383
C227	C	-0.754069	-0.763761	0.007618
H228	H	-0.815236	-0.715982	0.004051
H229	H	-0.765641	-0.710704	-0.045574
H230	H	-0.809222	-0.754073	-0.045967
H231	H	-0.733680	-0.743400	0.031198
H232	H	-0.777268	-0.786772	0.030818
C233	C	-0.448226	-0.000028	-0.232257
C234	C	-0.493052	-0.000029	-0.187150
H235	H	-0.463577	-0.000028	-0.267735
H236	H	-0.425355	0.028899	-0.229815
H237	H	-0.425352	-0.028961	-0.229818
H238	H	-0.515924	0.028906	-0.189588
H239	H	-0.515933	-0.028959	-0.189594
H240	H	-0.378851	-0.000041	-0.170970
C241	C	-0.558040	0.042614	0.587322
C242	C	-0.560802	-0.000033	0.621907
H243	H	-0.523041	0.042617	0.562375
H244	H	-0.589267	0.042607	0.565343
H245	H	-0.559929	0.071540	0.610794
H246	H	-0.558916	-0.028959	0.598434
H247	H	-0.529566	-0.000030	0.643888
C248	C	-0.167907	-0.000038	-0.280907
C249	C	-0.212737	-0.000039	-0.235804
H250	H	-0.183254	-0.000042	-0.316387
H251	H	-0.145039	0.028891	-0.278465
H252	H	-0.145031	-0.028969	-0.278462
H253	H	-0.235611	0.028894	-0.238247
H254	H	-0.235614	-0.028971	-0.238247
H255	H	-0.562695	-0.374371	-0.183661
C256	C	-0.724088	-0.903422	0.042387
C257	C	-0.754104	-0.873397	0.007607
H258	H	-0.750513	-0.921138	0.068807
H259	H	-0.700901	-0.926441	0.019201
H260	H	-0.700499	-0.883046	0.062749
H261	H	-0.777690	-0.893774	-0.012757
H262	H	-0.777301	-0.850375	0.030796
H263	H	-0.601650	-0.228905	-0.144771
C264	C	-0.599344	-0.139341	-0.211844
C265	C	-0.590546	-0.126726	-0.155862
H266	H	-0.572915	-0.121618	-0.238253
H267	H	-0.593765	-0.174172	-0.217414
H268	H	-0.637317	-0.130780	-0.217832
H269	H	-0.552574	-0.135290	-0.149873
H270	H	-0.596120	-0.091886	-0.150290
C271	C	-0.517437	-0.599251	-0.228900
C272	C	-0.551622	-0.633197	-0.194740
H273	H	-0.491000	-0.616968	-0.255308
H274	H	-0.541025	-0.578888	-0.249270
H275	H	-0.497096	-0.578880	-0.205288
H276	H	-0.571967	-0.653566	-0.218352
H277	H	-0.528031	-0.653570	-0.174369
H278	H	-0.562719	-0.531032	-0.183657
C279	C	-0.879096	-0.000073	0.430282
C280	C	-0.833993	-0.000073	0.385452
H281	H	-0.914576	-0.000072	0.414935
H282	H	-0.876651	-0.029001	0.453153
H283	H	-0.876653	0.028859	0.453155
H284	H	-0.836433	-0.029007	0.362581
H285	H	-0.836439	0.028858	0.362572
H286	H	-0.781931	-0.531005	0.035424
