data_functionalizedCrystal
_audit_creation_method	'MofGen! by Chris Wilmer'
_symmetry_space_group_name_H-M	'P1'
_symmetry_Int_Tables_number	1
_symmetry_cell_setting	triclinic
loop_
_symmetry_equiv_pos_as_xyz
  x,y,z
_cell_length_a	10.967926
_cell_length_b	12.837942
_cell_length_c	9.482900
_cell_angle_alpha	100.328050
_cell_angle_beta	92.549900
_cell_angle_gamma	89.656601
loop_
_atom_site_label
_atom_site_type_symbol
_atom_site_fract_x
_atom_site_fract_y
_atom_site_fract_z
O1	O	1.631220	0.183842	0.287779
O2	O	2.131220	0.683842	0.787779
O3	O	1.282268	0.186126	0.200353
O4	O	1.782268	0.686126	0.700353
O5	O	1.449005	0.033767	0.242136
O6	O	1.949005	0.533767	0.742136
O7	O	1.464483	0.336201	0.245996
O8	O	1.964483	0.836201	0.745996
O9	O	1.415152	0.064845	0.475445
O10	O	1.915152	0.564845	0.975445
O11	O	1.248415	0.217204	0.433662
O12	O	1.748415	0.717204	0.933662
O13	O	1.597367	0.214920	0.521088
O14	O	2.097367	0.714920	1.021088
Cu15	Cu	1.419800	0.218899	0.498678
Cu16	Cu	1.919800	0.718899	0.998678
Cu17	Cu	1.459835	0.182146	0.222763
Cu18	Cu	1.959835	0.682146	0.722763
O19	O	1.430630	0.367279	0.479305
O20	O	1.930630	0.867279	0.979305
C21	C	1.220367	0.199150	0.305739
C22	C	1.720367	0.699150	0.805739
C23	C	1.086355	0.191646	0.272164
C24	C	1.586355	0.691646	0.772164
C25	C	1.009072	0.204399	0.378056
C26	C	1.509072	0.704399	0.878056
C27	C	0.870564	0.196643	0.343357
C28	C	1.370564	0.696643	0.843357
C29	C	1.426851	0.010472	0.357480
C30	C	1.926851	0.510472	0.857480
C31	C	1.411259	-0.105240	0.353571
C32	C	1.911259	0.394760	0.853571
C33	C	1.598705	-0.338566	0.400504
C34	C	2.098705	0.161434	0.900504
C35	C	1.584061	-0.447289	0.396832
C36	C	2.084061	0.052711	0.896832
C37	C	1.367330	-0.431412	0.342548
C38	C	1.867330	0.068588	0.842548
C39	C	1.381974	-0.322689	0.346219
C40	C	1.881974	0.177311	0.846219
C41	C	1.497665	-0.276270	0.375200
C42	C	1.997665	0.223730	0.875200
C43	C	1.512306	-0.167544	0.378881
C44	C	2.012306	0.332456	0.878881
C45	C	1.295578	-0.151670	0.324587
C46	C	1.795578	0.348330	0.824587
C47	C	1.280934	-0.260393	0.320915
C48	C	1.780934	0.239607	0.820915
C49	C	1.659269	0.201895	0.415699
C50	C	2.159269	0.701895	0.915699
C51	C	1.793281	0.209398	0.449265
C52	C	2.293281	0.709398	0.949265
C53	C	1.452784	0.390573	0.363958
C54	C	1.952784	0.890573	0.863958
C55	C	1.468377	0.506284	0.367857
C56	C	1.968377	1.006284	0.867857
N57	N	1.391650	0.244749	0.692744
N58	N	1.891650	0.744749	1.192744
N59	N	1.487994	0.156289	0.028699
N60	N	1.987994	0.656289	0.528699
C61	C	1.451523	0.189765	0.779947
C62	C	1.951523	0.689765	1.279947
C63	C	1.428111	0.211281	0.941498
C64	C	1.928111	0.711281	1.441498
H65	H	1.045448	0.221054	0.494403
H66	H	1.545448	0.721054	0.994403
Cl67	Cl	1.657742	-0.109188	0.415323
Cl68	Cl	2.157742	0.390812	0.915323
Cl69	Cl	1.744134	-0.280202	0.436971
Cl70	Cl	2.244134	0.219798	0.936971
H71	H	0.829650	0.226057	0.565620
H72	H	1.329650	0.726057	1.065620
H73	H	1.556585	0.093277	0.983764
H74	H	2.056585	0.593277	1.483764
H75	H	0.834194	0.179979	0.227003
H76	H	1.334194	0.679979	0.727003
H77	H	1.049979	0.174982	0.155818
H78	H	1.549979	0.674982	0.655818
H79	H	1.323053	0.307748	0.737684
H80	H	1.823053	0.807748	1.237684
H81	H	1.666339	-0.498008	0.417433
H82	H	2.166339	0.001992	0.917433
H83	H	1.273142	-0.469228	0.318937
H84	H	1.773142	0.030772	0.818937
Cl85	Cl	1.135504	-0.318761	0.284472
Cl86	Cl	1.635504	0.181239	0.784472
Cl87	Cl	1.168546	-0.073346	0.292792
Cl88	Cl	1.668546	0.426654	0.792792
Cl89	Cl	1.557128	0.092246	0.710498
Cl90	Cl	2.057128	0.592246	1.210498
H91	H	1.359510	0.274284	0.986431
H92	H	1.859510	0.774284	1.486431
