data_functionalizedCrystal
_audit_creation_method	'MofGen! by Chris Wilmer'
_symmetry_space_group_name_H-M	'P1'
_symmetry_Int_Tables_number	1
_symmetry_cell_setting	triclinic
loop_
_symmetry_equiv_pos_as_xyz
  x,y,z
_cell_length_a	8.597366
_cell_length_b	14.519709
_cell_length_c	7.088929
_cell_angle_alpha	83.763835
_cell_angle_beta	103.954530
_cell_angle_gamma	84.511450
loop_
_atom_site_label
_atom_site_type_symbol
_atom_site_fract_x
_atom_site_fract_y
_atom_site_fract_z
O1	O	2.101722	0.126647	0.187220
O2	O	1.637083	0.141704	0.110676
O3	O	1.881724	-0.000086	0.150995
O4	O	1.857082	0.268437	0.146901
O5	O	1.914417	-0.019077	0.474358
O6	O	1.669777	0.122712	0.434040
O7	O	2.134415	0.107656	0.510583
Cu8	Cu	1.905081	0.113450	0.501837
Cu9	Cu	1.866417	0.135910	0.119423
O10	O	1.889775	0.249445	0.470265
C11	C	1.593965	0.131650	0.262562
C12	C	1.416780	0.129974	0.233374
C13	C	1.896922	-0.043939	0.312488
C14	C	1.893481	-0.146314	0.311922
C15	C	1.880809	-0.521185	0.309785
C16	C	1.884328	-0.416884	0.310379
C17	C	1.887145	-0.333753	0.310855
C18	C	1.890664	-0.229445	0.311446
C19	C	2.177533	0.117710	0.358693
C20	C	2.354717	0.119386	0.387869
C21	C	1.874576	0.293299	0.308767
C22	C	1.878016	0.395675	0.309320
N23	N	1.932287	0.097652	0.770809
N24	N	1.839224	0.151700	-0.149547
H25	H	1.334362	0.137751	0.078762
N26	N	1.458131	0.109617	0.581834
N27	N	1.606750	0.111037	0.606087
H28	H	1.679790	0.104137	0.743073
N29	N	1.718240	0.221964	0.728072
N30	N	1.700002	0.232550	0.546363
H31	H	1.614556	0.282177	0.459918
N32	N	2.053289	0.027391	0.893201
N33	N	2.071532	0.016803	1.074911
H34	H	2.156984	-0.032821	1.161353
