data_functionalizedCrystal
_audit_creation_method	'MofGen! by Chris Wilmer'
_symmetry_space_group_name_H-M	'P1'
_symmetry_Int_Tables_number	1
_symmetry_cell_setting	triclinic
loop_
_symmetry_equiv_pos_as_xyz
  x,y,z
_cell_length_a	14.519709
_cell_length_b	14.519709
_cell_length_c	14.586319
_cell_angle_alpha	89.995260
_cell_angle_beta	90.002108
_cell_angle_gamma	83.680145
loop_
_atom_site_label
_atom_site_type_symbol
_atom_site_fract_x
_atom_site_fract_y
_atom_site_fract_z
O1	O	1.223866	0.120890	-0.076123
O2	O	1.723866	0.620890	0.423877
O3	O	0.955389	0.135127	-0.076151
O4	O	1.455389	0.635127	0.423849
O5	O	1.096746	-0.006230	-0.076128
O6	O	1.596746	0.493770	0.423872
O7	O	1.082510	0.262247	-0.076146
O8	O	1.582510	0.762247	0.423854
O9	O	1.096736	-0.006232	0.076353
O10	O	1.596736	0.493768	0.576353
O11	O	0.955380	0.135125	0.076330
O12	O	1.455380	0.635125	0.576330
O13	O	1.223856	0.120888	0.076358
O14	O	1.723856	0.620888	0.576358
Cu15	Cu	1.089617	0.128006	0.090266
Cu16	Cu	1.589617	0.628006	0.590266
Cu17	Cu	1.089629	0.128009	-0.090060
Cu18	Cu	1.589629	0.628009	0.409940
O19	O	1.082500	0.262245	0.076335
O20	O	1.582500	0.762245	0.576335
C21	C	0.921025	0.134462	0.000086
C22	C	1.421025	0.634462	0.500086
C23	C	0.818643	0.132474	0.000075
C24	C	1.318643	0.632474	0.500075
C25	C	0.443748	0.125154	0.000117
C26	C	0.943748	0.625154	0.500117
C27	C	0.548056	0.127187	0.000105
C28	C	1.048056	0.627187	0.500105
C29	C	0.631192	0.128814	0.000095
C30	C	1.131192	0.628814	0.500095
C31	C	0.735507	0.130847	0.000085
C32	C	1.235507	0.630847	0.500085
C33	C	1.096078	-0.040591	0.000112
C34	C	1.596078	0.459409	0.500112
C35	C	1.094090	-0.142972	0.000113
C36	C	1.594090	0.357028	0.500113
C37	C	1.086770	-0.517868	0.000088
C38	C	1.586770	-0.017868	0.500088
C39	C	1.088803	-0.413560	0.000095
C40	C	1.588803	0.086440	0.500095
C41	C	1.090430	-0.330423	0.000101
C42	C	1.590430	0.169577	0.500101
C43	C	1.092463	-0.226109	0.000107
C44	C	1.592463	0.273891	0.500107
C45	C	1.258221	0.121553	0.000119
C46	C	1.758221	0.621553	0.500119
C47	C	1.360602	0.123541	0.000123
C48	C	1.860602	0.623541	0.500123
C49	C	1.083168	0.296606	0.000092
C50	C	1.583168	0.796606	0.500092
C51	C	1.085156	0.398987	0.000086
C52	C	1.585156	0.898987	0.500086
N53	N	1.089616	0.128004	0.217098
N54	N	1.589616	0.628004	0.717098
N55	N	1.089637	0.128004	-0.216892
N56	N	1.589637	0.628004	0.283108
C57	C	1.152229	0.065432	0.452115
C58	C	1.652229	0.565432	0.952115
C59	C	1.152232	0.065430	0.548096
C60	C	1.652232	0.565430	1.048096
C61	C	1.027017	0.190578	0.548085
C62	C	1.527017	0.690578	1.048085
C63	C	1.027011	0.190575	0.452106
C64	C	1.527011	0.690575	0.952106
C65	C	1.089622	0.128003	0.404123
C66	C	1.589622	0.628003	0.904123
C67	C	1.089631	0.128004	0.596084
C68	C	1.589631	0.628004	1.096084
C69	C	1.089634	0.128002	0.700151
C70	C	1.589634	0.628002	1.200151
C71	C	1.089619	0.128004	0.300049
C72	C	1.589619	0.628004	0.800049
H73	H	1.203211	0.014478	0.587168
H74	H	1.703211	0.514478	1.087168
O75	O	1.212896	0.004571	0.405423
O76	O	1.712896	0.504571	0.905423
C77	C	1.163377	-0.052445	0.349960
C78	C	1.663377	0.447555	0.849960
H79	H	1.091294	-0.015837	0.335557
H80	H	1.591294	0.484163	0.835557
H81	H	1.201839	-0.067013	0.282476
H82	H	1.701839	0.432987	0.782476
H83	H	1.156955	-0.120588	0.386995
H84	H	1.656955	0.379412	0.886995
O85	O	0.966295	0.251329	0.594839
O86	O	1.466295	0.751329	1.094839
C87	C	0.979710	0.237902	0.689845
C88	C	1.479710	0.737902	1.189845
H89	H	1.052972	0.203594	0.702955
H90	H	1.552972	0.703594	1.202955
H91	H	0.969569	0.307724	0.726313
H92	H	1.469569	0.807724	1.226313
H93	H	0.927439	0.191535	0.717092
H94	H	1.427439	0.691535	1.217092
H95	H	0.976024	0.241529	0.413028
H96	H	1.476024	0.741529	0.913028
