data_functionalizedCrystal
_audit_creation_method	'MofGen! by Chris Wilmer'
_symmetry_space_group_name_H-M	'P1'
_symmetry_Int_Tables_number	1
_symmetry_cell_setting	triclinic
loop_
_symmetry_equiv_pos_as_xyz
  x,y,z
_cell_length_a	21.395362
_cell_length_b	18.101395
_cell_length_c	21.395356
_cell_angle_alpha	89.977170
_cell_angle_beta	89.964230
_cell_angle_gamma	90.046983
loop_
_atom_site_label
_atom_site_type_symbol
_atom_site_fract_x
_atom_site_fract_y
_atom_site_fract_z
Zn1	Zn	0.957807	-0.294550	-0.354598
Zn2	Zn	1.457807	0.205450	0.145402
Zn3	Zn	0.957724	-0.418388	-0.249825
Zn4	Zn	1.457724	0.081612	0.250175
Zn5	Zn	0.853037	-0.294599	-0.249799
Zn6	Zn	1.353037	0.205401	0.250201
Zn7	Zn	0.852991	-0.418388	-0.354530
Zn8	Zn	1.352991	0.081612	0.145470
O9	O	0.905390	-0.356481	-0.302188
O10	O	1.405390	0.143519	0.197812
O11	O	1.045474	-0.310956	-0.340739
O12	O	1.545474	0.189044	0.159261
O13	O	0.943822	-0.401988	-0.162144
O14	O	1.443822	0.098012	0.337856
O15	O	0.866989	-0.190960	-0.263718
O16	O	1.366989	0.309040	0.236282
O17	O	1.045413	-0.401940	-0.263763
O18	O	1.545413	0.098060	0.236237
O19	O	0.943964	-0.190923	-0.340713
O20	O	1.443964	0.309077	0.159287
O21	O	0.866909	-0.311041	-0.162125
O22	O	1.366909	0.188959	0.337875
O23	O	0.765353	-0.311041	-0.263652
O24	O	1.265353	0.188959	0.236348
O25	O	0.866910	-0.401940	-0.442217
O26	O	1.366910	0.098060	0.057783
O27	O	0.765319	-0.401988	-0.340598
O28	O	1.265319	0.098012	0.159402
O29	O	0.943919	-0.310956	-0.442267
O30	O	1.443919	0.189044	0.057733
O31	O	0.943777	-0.522021	-0.263697
O32	O	1.443777	-0.022021	0.236303
O33	O	0.866829	-0.522021	-0.340623
O34	O	1.366829	-0.022021	0.159377
C35	C	0.742602	-0.356521	-0.302115
C36	C	1.242602	0.143479	0.197885
C37	C	0.672961	-0.356555	-0.302099
C38	C	1.172961	0.143445	0.197901
C39	C	0.640246	-0.403974	-0.342105
C40	C	1.140246	0.096026	0.157895
C41	C	0.574811	-0.403956	-0.342132
C42	C	1.074811	0.096044	0.157868
C43	C	0.542093	-0.356527	-0.302144
C44	C	1.042093	0.143473	0.197856
C45	C	0.574815	-0.309099	-0.262135
C46	C	1.074815	0.190901	0.237865
C47	C	0.640249	-0.309113	-0.262113
C48	C	1.140249	0.190887	0.237887
C49	C	0.438376	-0.350569	-0.245738
C50	C	0.938376	0.149431	0.254262
C51	C	0.372943	-0.350560	-0.245760
C52	C	0.872943	0.149440	0.254240
C53	C	0.340272	-0.356478	-0.302213
C54	C	0.840272	0.143522	0.197787
C55	C	0.373042	-0.362421	-0.358647
C56	C	0.873042	0.137579	0.141353
C57	C	0.438476	-0.362436	-0.358624
C58	C	0.938476	0.137564	0.141376
C59	C	0.471140	-0.356506	-0.302164
C60	C	0.971140	0.143494	0.197836
C61	C	0.236605	-0.403880	-0.342252
C62	C	0.736605	0.096120	0.157748
C63	C	0.171168	-0.403857	-0.342281
C64	C	0.671168	0.096143	0.157719
C65	C	0.171173	-0.309003	-0.262278
C66	C	0.671173	0.190997	0.237722
C67	C	0.236609	-0.309023	-0.262255
C68	C	0.736609	0.190977	0.237745
C69	C	0.269321	-0.356465	-0.302241
C70	C	0.769321	0.143535	0.197759
C71	C	0.905306	-0.548892	-0.302170
C72	C	1.405306	-0.048892	0.197830
C73	C	0.905327	-0.631206	-0.302183
C74	C	1.405327	-0.131206	0.197817
C75	C	0.905465	-0.930297	-0.302216
C76	C	1.405465	-0.430297	0.197784
C77	C	0.857164	-0.899003	-0.350736
C78	C	1.357164	-0.399003	0.149264
C79	C	0.856935	-0.813385	-0.350585
C80	C	1.356935	-0.313385	0.149415
C81	C	0.905397	-0.781914	-0.302200
C82	C	1.405397	-0.281914	0.197800
C83	C	0.887523	-0.813066	-0.236161
C84	C	1.387523	-0.313066	0.263839
C85	C	0.887212	-0.898711	-0.236451
C86	C	1.387212	-0.398711	0.263549
C87	C	0.971745	-0.898620	-0.319154
C88	C	1.471745	-0.398620	0.180846
C89	C	0.971355	-0.812970	-0.320602
C90	C	1.471355	-0.312970	0.179398
C91	C	0.905359	-0.698055	-0.302187
C92	C	1.405359	-0.198055	0.197813
C93	C	0.905501	-1.014156	-0.302225
C94	C	1.405501	-0.514156	0.197775
C95	C	1.068813	-0.356443	-0.302261
C96	C	1.568813	0.143557	0.197739
C97	C	1.138454	-0.356426	-0.302293
C98	C	1.638454	0.143574	0.197707
C99	C	0.905418	-0.356442	-0.465611
C100	C	1.405418	0.143558	0.034389
C101	C	0.905431	-0.356426	-0.535253
C102	C	1.405431	0.143574	-0.035253
C103	C	0.905491	-0.163319	-0.302220
C104	C	1.405491	0.336681	0.197780
C105	C	0.905534	-0.081005	-0.302234
C106	C	1.405534	0.418995	0.197766
C107	C	0.945550	-0.403627	-1.037060
C108	C	1.445550	0.096373	-0.537060
C109	C	0.945538	-0.403650	-0.971624
C110	C	1.445538	0.096350	-0.471624
C111	C	0.905490	-0.356308	-0.938891
C112	C	1.405490	0.143692	-0.438891
C113	C	0.865439	-0.308953	-0.971599
C114	C	1.365439	0.191047	-0.471599
C115	C	0.865447	-0.308936	-1.037033
C116	C	1.365447	0.191064	-0.537033
C117	C	0.900565	-0.289615	-0.835232
C118	C	1.400565	0.210385	-0.335232
C119	C	0.900562	-0.289630	-0.769799
C120	C	1.400562	0.210370	-0.269799
C121	C	0.905462	-0.356361	-0.737070
C122	C	1.405462	0.143639	-0.237070
C123	C	0.910379	-0.423078	-0.769783
C124	C	1.410379	0.076922	-0.269783
C125	C	0.910387	-0.423061	-0.835217
C126	C	1.410387	0.076939	-0.335217
C127	C	0.905477	-0.356322	-0.867939
C128	C	1.405477	0.143678	-0.367939
C129	C	0.945495	-0.403743	-0.633418
C130	C	1.445495	0.096257	-0.133418
C131	C	0.945480	-0.403767	-0.567981
C132	C	1.445480	0.096233	-0.067981
C133	C	0.865384	-0.309063	-0.567957
C134	C	1.365384	0.190937	-0.067957
C135	C	0.865396	-0.309045	-0.633393
C136	C	1.365396	0.190955	-0.133393
C137	C	0.905455	-0.356384	-0.666119
C138	C	1.405455	0.143616	-0.166119
C139	C	0.905397	-0.356467	-0.139400
C140	C	1.405397	0.143533	0.360600
C141	C	0.905506	-0.356275	-0.069760
C142	C	1.405506	0.143725	0.430240
H143	H	0.464971	-0.345746	-0.199764
H144	H	0.964971	0.154254	0.300236
H145	H	0.548171	-0.270480	-0.229577
H146	H	1.048171	0.229520	0.270423
F147	F	0.931195	-0.925773	-0.187583
F148	F	1.431195	-0.425773	0.312417
F149	F	0.473350	-0.368757	-0.418684
F150	F	0.973350	0.131243	0.081316
F151	F	0.871632	-0.925862	-0.414948
F152	F	1.371632	-0.425862	0.085052
F153	F	0.824865	-0.785137	-0.217074
F154	F	1.324865	-0.285137	0.282926
H155	H	0.921597	-0.792681	-0.199023
H156	H	1.421597	-0.292681	0.300977
H157	H	0.666885	-0.270496	-0.229536
H158	H	1.166885	0.229504	0.270464
F159	F	0.988179	-0.454015	-1.071886
F160	F	1.488179	0.045985	-0.571886
H161	H	0.914390	-0.477384	-0.861849
H162	H	1.414390	0.022616	-0.361849
H163	H	0.868116	-0.792321	-0.399551
H164	H	1.368116	-0.292321	0.100449
H165	H	0.896561	-0.235305	-0.743169
H166	H	1.396561	0.264695	-0.243169
F167	F	0.136351	-0.454325	-0.384866
F168	F	0.636351	0.045675	0.115134
H169	H	0.988040	-0.920167	-0.366491
H170	H	1.488040	-0.420167	0.133509
F171	F	0.338276	-0.368717	-0.418734
F172	F	0.838276	0.131283	0.081266
H173	H	0.914371	-0.477416	-0.743137
H174	H	1.414371	0.022584	-0.243137
F175	F	0.988128	-0.454124	-0.668250
F176	F	1.488128	0.045876	-0.168250
H177	H	0.808335	-0.920604	-0.339656
H178	H	1.308335	-0.420604	0.160344
H179	H	0.832791	-0.270483	-0.660017
H180	H	1.332791	0.229517	-0.160017
H181	H	0.263240	-0.442507	-0.374814
H182	H	0.763240	0.057493	0.125186
F183	F	0.792720	-0.786706	-0.335920
F184	F	1.292720	-0.286706	0.164080
H185	H	0.548170	-0.442570	-0.374712
H186	H	1.048170	0.057430	0.125288
F187	F	0.271427	-0.258554	-0.219673
F188	F	0.771427	0.241446	0.280327
H189	H	0.144535	-0.270382	-0.229722
H190	H	0.644535	0.229618	0.270278
F191	F	0.988099	-0.454172	-0.533180
F192	F	1.488099	0.045828	-0.033180
F193	F	0.823885	-0.924930	-0.217701
F194	F	1.323885	-0.424930	0.282299
H195	H	0.984833	-0.792607	-0.369204
H196	H	1.484833	-0.292607	0.130796
F197	F	0.988159	-0.454052	-0.936815
F198	F	1.488159	0.045948	-0.436815
F199	F	1.020883	-0.784957	-0.277784
F200	F	1.520883	-0.284957	0.222216
H201	H	1.007730	-0.918855	-0.283816
H202	H	1.507730	-0.418855	0.216184
H203	H	0.896616	-0.235267	-0.861874
H204	H	1.396616	0.264733	-0.361874
H205	H	0.832839	-0.270375	-1.063657
H206	H	1.332839	0.229625	-0.563657
F207	F	0.675057	-0.454464	-0.384663
F208	F	1.175057	0.045536	0.115337
F209	F	0.338073	-0.344235	-0.185698
F210	F	0.838073	0.155765	0.314302
F211	F	0.822749	-0.258694	-0.533125
F212	F	1.322749	0.241306	-0.033125
F213	F	0.822819	-0.258567	-0.936761
F214	F	1.322819	0.241433	-0.436761
