data_functionalizedCrystal
_audit_creation_method	'MofGen! by Chris Wilmer'
_symmetry_space_group_name_H-M	'P1'
_symmetry_Int_Tables_number	1
_symmetry_cell_setting	triclinic
loop_
_symmetry_equiv_pos_as_xyz
  x,y,z
_cell_length_a	17.699077
_cell_length_b	15.995292
_cell_length_c	16.176319
_cell_angle_alpha	89.996390
_cell_angle_beta	89.993140
_cell_angle_gamma	83.374596
loop_
_atom_site_label
_atom_site_type_symbol
_atom_site_fract_x
_atom_site_fract_y
_atom_site_fract_z
O1	O	1.004238	0.105864	-0.068730
O2	O	0.783879	0.119646	-0.068733
O3	O	0.900105	-0.009148	-0.068733
O4	O	0.888012	0.234659	-0.068730
O5	O	0.900089	-0.009156	0.068761
O6	O	0.783863	0.119638	0.068760
O7	O	1.004222	0.105856	0.068763
Cu8	Cu	0.894041	0.112746	0.081316
Cu9	Cu	0.894060	0.112756	-0.081286
O10	O	0.887996	0.234650	0.068763
C11	C	0.755673	0.119149	0.000013
C12	C	0.671653	0.117670	0.000012
C13	C	0.632176	0.116969	0.074960
C14	C	0.553231	0.115566	0.074961
C15	C	0.513764	0.114870	0.000012
C16	C	0.553247	0.115569	-0.074942
C17	C	0.632191	0.116966	-0.074942
C18	C	0.234876	0.109934	-0.074943
C19	C	0.155926	0.108540	-0.074938
C20	C	0.155915	0.108534	0.074959
C21	C	0.234859	0.109931	0.074959
C22	C	0.274336	0.110625	0.000006
C23	C	0.359937	0.112145	0.000005
C24	C	0.428164	0.113356	0.000012
C25	C	0.899605	-0.040347	0.000012
C26	C	0.898129	-0.133297	0.000006
C27	C	0.892704	-0.471024	0.000013
C28	C	0.976593	-0.447884	0.000322
C29	C	0.978188	-0.351212	0.000009
C30	C	0.895396	-0.303474	0.000010
C31	C	0.853465	-0.332484	-0.078503
C32	C	0.852455	-0.429272	-0.078566
C33	C	0.850724	-0.429135	0.077789
C34	C	0.853832	-0.332649	0.078824
C35	C	0.896913	-0.208781	0.000005
C36	C	0.891185	-0.565717	0.000012
C37	C	1.032427	0.106353	0.000016
C38	C	1.116448	0.107832	0.000012
C39	C	0.888496	0.265849	0.000017
C40	C	0.889972	0.358799	0.000017
N41	N	0.894033	0.112739	0.195681
N42	N	0.894074	0.112757	-0.195651
C43	C	0.945513	0.055732	0.238946
C44	C	0.945517	0.055731	0.325493
C45	C	0.894044	0.112742	0.368774
C46	C	0.842558	0.169751	0.325503
C47	C	0.842551	0.169748	0.238958
C48	C	0.842584	0.169767	0.674532
C49	C	0.842596	0.169768	0.761083
C50	C	0.945550	0.055751	0.761066
C51	C	0.945543	0.055747	0.674521
C52	C	0.894055	0.112753	0.631258
C53	C	0.894051	0.112752	0.537414
C54	C	0.894051	0.112747	0.462616
H55	H	1.011028	-0.332258	0.056289
H56	H	0.664332	0.117539	-0.135973
H57	H	0.987472	0.009330	0.796300
O58	O	0.768931	-0.447497	0.078500
H59	H	0.757857	-0.482309	0.135776
O60	O	1.001029	-0.005761	0.192264
H61	H	1.036820	-0.045408	0.236893
O62	O	0.674736	0.117724	0.155802
H63	H	0.736262	0.118822	0.143213
H64	H	0.521094	0.114981	0.135991
H65	H	0.800643	0.216168	0.360748
O66	O	0.510687	0.114807	-0.155783
H67	H	0.519089	0.172119	-0.191730
H68	H	0.800630	0.216167	0.203733
O69	O	0.770983	-0.448377	-0.083296
H70	H	0.757598	-0.484963	-0.027951
H71	H	0.800677	0.216195	0.796321
O72	O	0.277427	0.110700	0.155795
H73	H	0.236713	0.109976	0.207913
O74	O	1.019409	-0.485060	0.074912
H75	H	1.069389	-0.528331	0.054247
O76	O	1.001053	-0.005750	0.627836
H77	H	1.060054	0.004824	0.644430
O78	O	0.113294	0.108170	0.155806
H79	H	0.051753	0.107217	0.143220
O80	O	0.113356	0.107761	-0.155778
H81	H	0.154071	0.108462	-0.207899
O82	O	0.277449	0.110692	-0.155782
H83	H	0.236739	0.109984	-0.207895
H84	H	0.884365	-0.314150	0.136908
O85	O	0.885527	-0.466629	0.156620
H86	H	0.880796	-0.535213	0.157751
H87	H	1.008755	-0.476965	-0.055667
H88	H	0.792542	-0.300490	-0.081422
O89	O	1.001056	-0.005739	0.372160
H90	H	1.036858	-0.045370	0.327524
H91	H	0.882596	-0.312480	-0.136933
H92	H	0.881508	-0.456145	-0.137257
O93	O	0.787057	0.231255	0.627875
H94	H	0.796695	0.296516	0.644473
O95	O	1.021949	-0.326904	-0.074677
H96	H	1.042048	-0.384231	-0.110716
O97	O	0.773792	-0.288798	0.085130
H98	H	0.762331	-0.245339	0.031945
