data_functionalizedCrystal
_audit_creation_method	'MofGen! by Chris Wilmer'
_symmetry_space_group_name_H-M	'P1'
_symmetry_Int_Tables_number	1
_symmetry_cell_setting	triclinic
loop_
_symmetry_equiv_pos_as_xyz
  x,y,z
_cell_length_a	10.540539
_cell_length_b	12.837942
_cell_length_c	11.892277
_cell_angle_alpha	93.955190
_cell_angle_beta	85.675458
_cell_angle_gamma	90.322784
loop_
_atom_site_label
_atom_site_type_symbol
_atom_site_fract_x
_atom_site_fract_y
_atom_site_fract_z
O1	O	1.693996	-0.140246	0.093947
O2	O	1.326095	-0.154021	0.093961
O3	O	1.501888	0.003829	0.093947
O4	O	1.518202	-0.298096	0.093960
O5	O	1.517792	-0.008117	-0.094055
O6	O	1.341999	-0.165968	-0.094042
O7	O	1.709900	-0.152192	-0.094055
Zn8	Zn	1.528474	-0.160976	-0.123898
Zn9	Zn	1.507520	-0.145237	0.123803
O10	O	1.534106	-0.310042	-0.094042
C11	C	1.286630	-0.158961	-0.000039
C12	C	1.145342	-0.155870	-0.000034
N13	N	1.542784	-0.171718	-0.292947
C14	C	1.504328	0.036518	-0.000053
C15	C	1.487890	0.151717	-0.000051
C16	C	0.948940	-0.037455	-0.000478
C17	C	1.095866	-0.040561	-0.000042
C18	C	1.080684	-0.204540	0.107323
C19	C	0.933701	-0.200599	0.107401
C20	C	0.951556	-0.216530	-0.106392
C21	C	1.098774	-0.217682	-0.107800
C22	C	1.749364	-0.147252	-0.000054
C23	C	1.890651	-0.150343	-0.000051
C24	C	1.531666	-0.342731	-0.000039
C25	C	1.548104	-0.457929	-0.000034
C26	C	1.685507	0.391213	-0.000035
C27	C	1.670067	0.499453	-0.000032
C28	C	1.441572	0.476440	-0.000035
C29	C	1.457011	0.368200	-0.000038
C30	C	1.578983	0.325590	-0.000039
C31	C	1.594422	0.217347	-0.000050
C32	C	1.365926	0.194337	-0.000045
C33	C	1.350487	0.302577	-0.000042
C34	C	1.393502	-0.059685	-0.529645
C35	C	1.403534	-0.067200	-0.647983
C36	C	1.572875	-0.194267	-0.647965
C37	C	1.562842	-0.186752	-0.529626
C38	C	1.473154	-0.119458	-0.470471
C39	C	1.463129	-0.111938	-0.352130
C40	C	1.632462	-0.239010	-0.352114
C41	C	1.642495	-0.246525	-0.470452
N42	N	1.493219	-0.134487	0.292852
H43	H	1.140193	-0.001788	-0.077001
F44	F	0.913543	0.015692	-0.101113
H45	H	1.784822	0.356519	-0.000047
H46	H	1.132784	-0.302162	-0.114278
H47	H	1.697322	-0.287681	-0.303921
F48	F	1.724234	0.172000	-0.000058
H49	H	0.894430	-0.283218	0.112277
F50	F	1.668299	-0.265899	-0.710942
H51	H	1.251180	0.337285	-0.000037
F52	F	1.252549	0.124487	-0.000061
F53	F	1.121645	-0.314882	0.112571
F54	F	1.318755	-0.003583	-0.710957
F55	F	0.894472	0.028200	0.099584
H56	H	0.913541	-0.299863	-0.107114
H57	H	1.342266	0.511153	-0.000022
F58	F	1.121977	-0.147520	0.211753
F59	F	1.783445	0.569291	-0.000024
H60	H	1.390102	-0.057142	-0.303967
F61	F	1.298073	0.011953	-0.466684
H62	H	1.715513	-0.301317	-0.518633
H63	H	1.126259	0.008308	0.077045
H64	H	0.894196	-0.154487	0.187648
H65	H	0.922794	-0.184384	-0.187768
H66	H	1.142001	-0.182190	-0.187222
