data_functionalizedCrystal
_audit_creation_method	'MofGen! by Chris Wilmer'
_symmetry_space_group_name_H-M	'P1'
_symmetry_Int_Tables_number	1
_symmetry_cell_setting	triclinic
loop_
_symmetry_equiv_pos_as_xyz
  x,y,z
_cell_length_a	8.497374
_cell_length_b	21.395362
_cell_length_c	21.395361
_cell_angle_alpha	89.953415
_cell_angle_beta	89.984309
_cell_angle_gamma	90.022954
loop_
_atom_site_label
_atom_site_type_symbol
_atom_site_fract_x
_atom_site_fract_y
_atom_site_fract_z
Zn1	Zn	0.892770	0.957730	0.249282
Zn2	Zn	0.628940	0.957670	0.354031
Zn3	Zn	0.628900	0.852983	0.249300
Zn4	Zn	0.892573	0.852914	0.354054
O5	O	0.760796	0.905324	0.301667
O6	O	0.857872	1.045400	0.263159
O7	O	0.408172	0.943788	0.340136
O8	O	0.663969	0.866931	0.161620
O9	O	0.664036	1.045356	0.340118
O10	O	0.857833	0.943888	0.161606
O11	O	0.408143	0.866874	0.263191
O12	O	0.663778	0.765296	0.263214
O13	O	1.113362	0.866814	0.340158
O14	O	0.857497	0.765245	0.340176
O15	O	1.113507	0.943821	0.263182
O16	O	0.663845	0.943721	0.441712
O17	O	0.857536	0.866756	0.441729
C18	C	0.760613	0.742537	0.301700
C19	C	0.760572	0.672895	0.301729
C20	C	0.861291	0.640172	0.341857
C21	C	0.861361	0.574737	0.341841
C22	C	0.760684	0.542027	0.301705
C23	C	0.659959	0.574758	0.261570
C24	C	0.659902	0.640192	0.261582
C25	C	0.618664	0.438323	0.296652
C26	C	0.618717	0.372890	0.296644
C27	C	0.760859	0.340206	0.301664
C28	C	0.902951	0.372964	0.306705
C29	C	0.902895	0.438398	0.306717
C30	C	0.760735	0.471075	0.301687
C31	C	0.861662	0.236531	0.341777
C32	C	0.861735	0.171094	0.341757
C33	C	0.660318	0.171117	0.261489
C34	C	0.660260	0.236552	0.261506
C35	C	0.760929	0.269255	0.301653
C36	C	0.760708	0.905241	0.464454
C37	C	0.760723	0.905263	0.534096
C38	C	1.172276	0.905320	0.301668
C39	C	1.350920	0.905321	0.301674
C40	C	0.760981	1.068747	0.301634
C41	C	0.761059	1.138389	0.301620
C42	C	0.760919	0.905424	0.138243
C43	C	0.760971	0.905467	0.068602
C44	C	0.659972	0.945374	0.566779
C45	C	0.660007	0.945403	0.632214
C46	C	0.760777	0.905310	0.664964
C47	C	0.861548	0.865197	0.632273
C48	C	0.861521	0.865173	0.566839
C49	C	0.773092	0.848894	0.768695
C50	C	0.773108	0.848917	0.834128
C51	C	0.760870	0.905383	0.866785
C52	C	0.748583	0.961830	0.834000
C53	C	0.748556	0.961806	0.768566
C54	C	0.760819	0.905332	0.735916
C55	C	0.660152	0.945529	0.970420
C56	C	0.660198	0.945559	1.035857
C57	C	0.861731	0.865347	1.035914
C58	C	0.861693	0.865323	0.970479
C59	C	0.760895	0.905413	0.937736
H60	H	0.503017	0.346224	0.292543
H61	H	0.783097	0.802954	0.860816
C62	C	0.972380	0.821054	0.530886
N63	N	1.055888	0.787825	0.503805
H64	H	0.502907	0.464929	0.292561
H65	H	0.577990	0.548122	0.228889
C66	C	0.549445	0.272549	0.217367
N67	N	0.465975	0.299661	0.184120
H68	H	0.577885	0.666835	0.228903
C69	C	1.059193	0.474428	0.312261
N70	N	1.176919	0.501566	0.316436
H71	H	0.943787	0.832706	1.062578
C72	C	1.059320	0.337017	0.312225
N73	N	1.177093	0.309938	0.316383
C74	C	0.972561	0.821210	0.934526
N75	N	1.056090	0.787989	0.907446
C76	C	0.549074	0.989468	0.530766
N77	N	0.465538	1.022677	0.503639
C78	C	0.972417	0.272506	0.385932
N79	N	1.055843	0.299601	0.419189
H80	H	0.943762	0.144452	0.374433
H81	H	0.783064	0.802908	0.742113
H82	H	0.578353	0.144485	0.228807
C83	C	0.549160	0.989527	0.668173
N84	N	0.465666	1.022759	0.695256
C85	C	0.972036	0.676142	0.386018
N86	N	1.055452	0.703235	0.419280
H87	H	0.943384	0.548088	0.374518
H88	H	0.738556	1.007766	0.741874
C89	C	0.735133	1.023949	0.869917
N90	N	0.725005	1.070736	0.896973
C91	C	0.549296	0.989638	0.934401
N92	N	0.465804	1.022863	0.907273
H93	H	0.578157	0.978226	1.062467
C94	C	0.972390	0.821092	0.668299
N95	N	1.055881	0.787872	0.695433
