data_functionalizedCrystal
_audit_creation_method	'MofGen! by Chris Wilmer'
_symmetry_space_group_name_H-M	'P1'
_symmetry_Int_Tables_number	1
_symmetry_cell_setting	triclinic
loop_
_symmetry_equiv_pos_as_xyz
  x,y,z
_cell_length_a	12.594516
_cell_length_b	12.594517
_cell_length_c	12.594509
_cell_angle_alpha	90.007751
_cell_angle_beta	89.973801
_cell_angle_gamma	89.990306
loop_
_atom_site_label
_atom_site_type_symbol
_atom_site_fract_x
_atom_site_fract_y
_atom_site_fract_z
Zn1	Zn	-0.423891	-1.627267	-0.601489
Zn2	Zn	-0.601901	-1.627158	-0.423517
Zn3	Zn	-0.423917	-1.449271	-0.423560
Zn4	Zn	-0.601808	-1.449253	-0.601489
O5	O	-0.512879	-1.538237	-0.512514
O6	O	-0.447532	-1.776198	-0.577863
O7	O	-0.578341	-1.603522	-0.274577
O8	O	-0.274968	-1.472935	-0.447181
O9	O	-0.578316	-1.776118	-0.447108
O10	O	-0.274949	-1.603708	-0.577905
O11	O	-0.447577	-1.472830	-0.274609
O12	O	-0.447487	-1.300323	-0.447181
O13	O	-0.578157	-1.472905	-0.750435
O14	O	-0.578182	-1.300310	-0.577905
O15	O	-0.447442	-1.603691	-0.750435
O16	O	-0.750834	-1.603505	-0.447108
O17	O	-0.750766	-1.472799	-0.577863
C18	C	-0.512828	-1.261696	-0.512548
C19	C	-0.512832	-1.143391	-0.512588
C20	C	-0.584054	-1.074161	-0.583556
C21	C	-0.487005	-1.003353	-0.609735
C22	C	-0.609953	-1.003400	-0.486399
C23	C	-0.415732	-1.074140	-0.538818
C24	C	-0.538744	-1.074194	-0.415437
C25	C	-0.441629	-1.003417	-0.441579
C26	C	-0.789420	-1.538167	-0.512504
C27	C	-0.907726	-1.538235	-0.512535
C28	C	-0.976980	-1.467137	-0.583603
C29	C	-1.047843	-1.441204	-0.486486
C30	C	-1.047662	-1.564265	-0.609668
C31	C	-0.977030	-1.512250	-0.415366
C32	C	-0.976843	-1.635357	-0.538615
C33	C	-1.047674	-1.609460	-0.441431
C34	C	-0.235258	-1.538336	-0.512548
C35	C	-0.116953	-1.538378	-0.512562
C36	C	-0.512786	-1.538308	-0.790135
C37	C	-0.512746	-1.538339	-0.908441
C38	C	-0.512921	-0.815858	-0.512497
C39	C	-0.512914	-0.934163	-0.512531
C40	C	-0.583802	-1.467227	-0.977694
C41	C	-0.609819	-1.564347	-1.048462
C42	C	-0.486665	-1.441294	-1.048471
C43	C	-0.538814	-1.635510	-0.977651
C44	C	-0.415616	-1.512391	-0.977654
C45	C	-0.441596	-1.609579	-1.048390
C46	C	-0.512895	-1.538227	-0.235973
C47	C	-0.512635	-1.538403	-0.117668
H48	H	-0.333608	-1.105084	-0.561038
O49	O	-0.458009	-0.962132	-0.718529
H50	H	-0.384635	-0.913653	-0.712930
H51	H	-0.381365	-0.972551	-0.381540
O52	O	-0.567992	-1.744403	-0.936853
H53	H	-0.509193	-1.803252	-0.965998
O54	O	-0.567766	-1.115457	-0.306672
H55	H	-0.566695	-1.203575	-0.307532
H56	H	-0.333545	-1.490381	-0.946528
H57	H	-0.464652	-1.359198	-1.079580
H58	H	-0.945939	-1.406904	-0.643615
H59	H	-1.078688	-1.586224	-0.691802
H60	H	-0.644171	-1.105226	-0.643642
O61	O	-1.089155	-1.332495	-0.457262
H62	H	-1.060850	-1.273557	-0.516354
H63	H	-0.945636	-1.717406	-0.560697
H64	H	-0.643984	-1.407136	-0.946653
O65	O	-0.718553	-1.593463	-1.089682
H66	H	-0.772973	-1.607187	-1.021714
O67	O	-0.718703	-0.962264	-0.457057
H68	H	-0.777637	-0.990620	-0.516100
O69	O	-0.936118	-1.483029	-0.306538
H70	H	-0.847992	-1.483156	-0.307393
O71	O	-0.361940	-1.689363	-1.089257
H72	H	-0.281641	-1.668427	-1.059626
O73	O	-1.088541	-1.689190	-0.361757
H74	H	-1.060100	-1.667393	-0.281253
