data_functionalizedCrystal
_audit_creation_method	'MofGen! by Chris Wilmer'
_symmetry_space_group_name_H-M	'P1'
_symmetry_Int_Tables_number	1
_symmetry_cell_setting	triclinic
loop_
_symmetry_equiv_pos_as_xyz
  x,y,z
_cell_length_a	11.792241
_cell_length_b	22.010155
_cell_length_c	11.792254
_cell_angle_alpha	89.995888
_cell_angle_beta	84.196007
_cell_angle_gamma	90.004313
loop_
_atom_site_label
_atom_site_type_symbol
_atom_site_fract_x
_atom_site_fract_y
_atom_site_fract_z
O1	O	1.506924	0.050466	0.155551
O2	O	1.840257	0.383800	0.488885
O3	O	2.173591	0.717133	0.822218
O4	O	1.176584	0.050481	0.171584
O5	O	1.509917	0.383814	0.504917
O6	O	1.843250	0.717147	0.838251
O7	O	1.349763	0.050469	-0.001602
O8	O	1.683096	0.383802	0.331731
O9	O	2.016429	0.717136	0.665065
O10	O	1.333745	0.050478	0.328737
O11	O	1.667078	0.383811	0.662071
O12	O	2.000412	0.717145	0.995404
O13	O	1.349731	-0.050581	-0.001576
O14	O	1.683065	0.282752	0.331757
O15	O	2.016398	0.616085	0.665091
O16	O	1.176552	-0.050570	0.171610
O17	O	1.509886	0.282764	0.504943
O18	O	1.843219	0.616097	0.838277
O19	O	1.506893	-0.050584	0.155577
O20	O	1.840226	0.282749	0.488911
O21	O	2.173559	0.616083	0.822244
Cu22	Cu	1.341719	-0.059804	0.163596
Cu23	Cu	1.675053	0.273530	0.496929
Cu24	Cu	2.008386	0.606863	0.830263
Cu25	Cu	1.341757	0.059700	0.163565
Cu26	Cu	1.675090	0.393034	0.496899
Cu27	Cu	2.008423	0.726367	0.830232
O28	O	1.333713	-0.050572	0.328763
O29	O	1.667047	0.282761	0.662097
O30	O	2.000380	0.616094	0.995430
C31	C	1.134277	-0.000043	0.170590
C32	C	1.467610	0.333291	0.503923
C33	C	1.800944	0.666624	0.837257
C34	C	1.008263	-0.000037	0.167576
C35	C	1.341596	0.333296	0.500909
C36	C	1.674930	0.666629	0.834242
N37	N	1.341702	-0.143856	0.163617
N38	N	1.675035	0.189477	0.496950
N39	N	2.008368	0.522811	0.830284
C40	C	0.777551	-0.000055	0.162033
C41	C	1.110884	0.333278	0.495366
C42	C	1.444217	0.666612	0.828699
C43	C	0.905936	-0.000045	0.165112
C44	C	1.239269	0.333288	0.498446
C45	C	1.572603	0.666621	0.831779
C46	C	1.418445	-0.563641	0.086890
C47	C	1.751778	-0.230307	0.420223
C48	C	2.085112	0.103026	0.753556
C49	C	1.418450	-0.627248	0.086882
C50	C	1.751784	-0.293915	0.420215
C51	C	2.085117	0.039418	0.753548
O52	O	1.483655	-0.660144	0.021660
O53	O	1.816988	-0.326811	0.354993
O54	O	2.150321	0.006523	0.688326
N55	N	1.341756	-0.659063	0.163542
N56	N	1.675089	-0.325730	0.496875
N57	N	2.008423	0.007604	0.830208
C58	C	1.265044	-0.627267	0.240206
C59	C	1.598377	-0.293934	0.573540
C60	C	1.931710	0.039400	0.906873
O61	O	1.199809	-0.660169	0.305410
O62	O	1.533142	-0.326836	0.638743
O63	O	1.866476	0.006498	0.972077
C64	C	1.265034	-0.563661	0.240208
C65	C	1.598367	-0.230327	0.573541
C66	C	1.931700	0.103006	0.906874
C67	C	1.341741	-0.531849	0.163551
C68	C	1.675074	-0.198516	0.496884
C69	C	2.008408	0.134818	0.830217
C70	C	1.495145	-0.531829	0.010238
C71	C	1.828478	-0.198496	0.343571
C72	C	2.161812	0.134838	0.676905
C73	C	1.495141	-0.468226	0.010247
C74	C	1.828474	-0.134892	0.343581
C75	C	2.161808	0.198441	0.676914
C76	C	1.418437	-0.436434	0.086909
C77	C	1.751770	-0.103101	0.420242
C78	C	2.085104	0.230233	0.753575
C79	C	1.341737	-0.468246	0.163560
C80	C	1.675070	-0.134913	0.496893
C81	C	2.008404	0.198421	0.830227
C82	C	1.188317	-0.531866	0.316866
C83	C	1.521650	-0.198533	0.650199
C84	C	1.854984	0.134801	0.983533
C85	C	1.188313	-0.468255	0.316860
C86	C	1.521647	-0.134922	0.650194
C87	C	1.854980	0.198412	0.983527
C88	C	1.265020	-0.436443	0.240203
C89	C	1.598354	-0.103110	0.573537
C90	C	1.931687	0.230223	0.906870
C91	C	1.265029	-0.372851	0.240231
C92	C	1.598362	-0.039518	0.573564
C93	C	1.931695	0.293816	0.906897
N94	N	1.341723	-0.341036	0.163571
N95	N	1.675056	-0.007703	0.496904
N96	N	2.008390	0.325630	0.830238
C97	C	1.418427	-0.372828	0.086910
C98	C	1.751760	-0.039494	0.420243
C99	C	2.085094	0.293839	0.753577
C100	C	1.265069	-0.760845	0.240196
C101	C	1.598402	-0.427512	0.573530
C102	C	1.931735	-0.094178	0.906863
C103	C	1.265083	-0.824450	0.240201
C104	C	1.598416	-0.491117	0.573535
C105	C	1.931750	-0.157784	0.906868
C106	C	1.418488	-0.824427	0.086875
C107	C	1.751822	-0.491094	0.420208
C108	C	2.085155	-0.157760	0.753542
C109	C	1.418479	-0.760820	0.086876
C110	C	1.751812	-0.427487	0.420210
C111	C	2.085145	-0.094154	0.753543
C112	C	1.341763	-0.729030	0.163536
C113	C	1.675096	-0.395697	0.496870
C114	C	2.008430	-0.062363	0.830203
C115	C	1.418413	-0.239256	0.086936
C116	C	1.751747	0.094077	0.420270
C117	C	2.085080	0.427410	0.753603
C118	C	1.418406	-0.175648	0.086956
C119	C	1.751739	0.157686	0.420289
C120	C	2.085072	0.491019	0.753622
C121	C	1.264997	-0.175676	0.240277
C122	C	1.598330	0.157657	0.573611
C123	C	1.931663	0.490990	0.906944
C124	C	1.265008	-0.239280	0.240263
C125	C	1.598341	0.094054	0.573596
C126	C	1.931675	0.427387	0.906929
C127	C	1.341721	-0.271068	0.163582
C128	C	1.675054	0.062265	0.496916
C129	C	2.008387	0.395599	0.830249
O130	O	1.199854	-0.339915	0.305416
O131	O	1.533188	-0.006582	0.638750
O132	O	1.866521	0.326752	0.972083
O133	O	1.483641	-0.339918	0.021707
O134	O	1.816974	-0.006585	0.355040
O135	O	2.150307	0.326748	0.688374
C136	C	1.549199	-0.000059	0.156571
C137	C	1.882533	0.333274	0.489905
C138	C	2.215866	0.666607	0.823238
C139	C	1.675213	-0.000061	0.159586
C140	C	2.008546	0.333273	0.492919
C141	C	2.341880	0.666606	0.826252
C142	C	1.348738	-0.000056	-0.043880
C143	C	1.682071	0.333277	0.289454
C144	C	2.015405	0.666611	0.622787
C145	C	1.345718	-0.000055	-0.169893
C146	C	1.679051	0.333278	0.163441
C147	C	2.012385	0.666611	0.496774
N148	N	1.341784	0.143753	0.163535
N149	N	1.675117	0.477086	0.496869
N150	N	2.008450	0.810419	0.830202
C151	C	1.343264	-0.000053	-0.272229
C152	C	1.676597	0.333280	0.061104
C153	C	2.009931	0.666614	0.394437
C154	C	1.340196	-0.000047	-0.400616
C155	C	1.673529	0.333286	-0.067283
C156	C	2.006862	0.666619	0.266051
C157	C	1.334738	-0.000046	0.371041
C158	C	1.668071	0.333287	0.704374
C159	C	2.001405	0.666621	1.037708
C160	C	1.337758	-0.000043	0.497054
C161	C	1.671092	0.333291	0.830387
C162	C	2.004425	0.666624	1.163721
H163	H	1.480874	-0.149748	0.024532
H164	H	1.814207	0.183585	0.357866
H165	H	2.147540	0.516918	0.691199
F166	F	1.183368	-0.141832	0.321865
F167	F	1.516701	0.191501	0.655198
F168	F	1.850035	0.524835	0.988532
H169	H	1.557599	-0.442328	-0.052176
H170	H	1.890932	-0.108995	0.281157
H171	H	2.224266	0.224338	0.614490
F172	F	1.500060	-0.273079	0.005325
F173	F	1.833393	0.060255	0.338658
F174	F	2.166727	0.393588	0.671991
F175	F	1.500122	-0.858274	0.005284
F176	F	1.833455	-0.524941	0.338617
F177	F	2.166789	-0.191607	0.671950
H178	H	1.557607	-0.557708	-0.052194
H179	H	1.890940	-0.224375	0.281139
H180	H	2.224273	0.108959	0.614473
F181	F	1.183378	-0.273135	0.321863
F182	F	1.516712	0.060198	0.655196
F183	F	1.850045	0.393532	0.988529
F184	F	1.183419	-0.727016	0.321801
F185	F	1.516753	-0.393683	0.655135
F186	F	1.850086	-0.060350	0.988468
F187	F	1.183455	-0.858300	0.321804
F188	F	1.516789	-0.524967	0.655137
F189	F	1.850122	-0.191634	0.988470
F190	F	1.500119	-0.726970	0.005287
F191	F	1.833452	-0.393637	0.338620
F192	F	2.166785	-0.060303	0.671954
H193	H	1.125838	-0.442374	0.379285
H194	H	1.459172	-0.109041	0.712618
H195	H	1.792505	0.224292	1.045952
F196	F	1.106673	-0.565711	0.398453
F197	F	1.440007	-0.232377	0.731787
F198	F	1.773340	0.100956	1.065120
