data_functionalizedCrystal
_audit_creation_method	'MofGen! by Chris Wilmer'
_symmetry_space_group_name_H-M	'P1'
_symmetry_Int_Tables_number	1
_symmetry_cell_setting	triclinic
loop_
_symmetry_equiv_pos_as_xyz
  x,y,z
_cell_length_a	16.959455
_cell_length_b	17.641144
_cell_length_c	16.959447
_cell_angle_alpha	78.810528
_cell_angle_beta	90.020374
_cell_angle_gamma	78.824102
loop_
_atom_site_label
_atom_site_type_symbol
_atom_site_fract_x
_atom_site_fract_y
_atom_site_fract_z
Zn1	Zn	1.271935	-0.314637	0.510736
Zn2	Zn	1.298550	-0.446791	0.405313
Zn3	Zn	1.139769	-0.314662	0.378565
Zn4	Zn	1.166409	-0.446732	0.537426
O5	O	1.219166	-0.380705	0.458010
O6	O	1.386079	-0.332181	0.496776
O7	O	1.277477	-0.429298	0.291161
O8	O	1.135013	-0.204080	0.373734
O9	O	1.405634	-0.429274	0.419322
O10	O	1.232115	-0.204061	0.470840
O11	O	1.160821	-0.332224	0.271509
O12	O	1.032689	-0.332167	0.399613
O13	O	1.180418	-0.429174	0.644489
O14	O	1.052261	-0.429198	0.516328
O15	O	1.257947	-0.332124	0.624880
O16	O	1.303309	-0.557361	0.445202
O17	O	1.206226	-0.557318	0.542264
C18	C	1.013794	-0.380679	0.457965
C19	C	0.925939	-0.380687	0.457968
C20	C	0.564628	-0.431211	0.417644
C21	C	0.544319	-0.330265	0.498486
C22	C	0.626863	-0.330252	0.498464
C23	C	0.678293	-0.380720	0.458032
C24	C	0.647180	-0.431202	0.417623
C25	C	0.657983	-0.279777	0.538880
C26	C	0.740531	-0.279762	0.538860
C27	C	0.791962	-0.330227	0.498423
C28	C	0.760844	-0.380710	0.458011
C29	C	0.812275	-0.431179	0.417580
C30	C	0.781158	-0.481658	0.377162
C31	C	0.698611	-0.481667	0.377186
C32	C	0.874509	-0.330219	0.498400
C33	C	0.894826	-0.431169	0.417558
C34	C	1.260568	-0.586011	0.499549
C35	C	1.278352	-0.673842	0.517346
C36	C	1.084346	-0.963049	0.322906
C37	C	1.101070	-1.045579	0.339631
C38	C	1.202068	-1.045432	0.440797
C39	C	1.185349	-0.962900	0.424083
C40	C	1.126488	-0.921715	0.365137
C41	C	1.227492	-0.921566	0.466314
C42	C	1.210777	-0.839041	0.449599
C43	C	1.151921	-0.797850	0.390653
C44	C	1.109774	-0.839190	0.348421
C45	C	1.286356	-0.962753	0.525257
C46	C	1.328499	-0.921419	0.567487
C47	C	1.311781	-0.838892	0.550776
C48	C	1.252924	-0.797701	0.491831
C49	C	1.353927	-0.797552	0.593008
C50	C	1.337213	-0.715027	0.576293
C51	C	1.236210	-0.715176	0.475115
C52	C	1.425339	-0.380732	0.458056
C53	C	1.513198	-0.380743	0.458075
C54	C	1.219185	-0.380640	0.664165
C55	C	1.219194	-0.380612	0.752016
C56	C	1.177623	-0.174597	0.416326
C57	C	1.159921	-0.086766	0.398563
C58	C	1.219180	-0.380713	0.252645
C59	C	1.219280	-0.380519	0.164750
C60	C	1.178905	-0.431058	1.133687
C61	C	1.259638	-0.329999	1.113263
C62	C	1.259620	-0.330016	1.030721
C63	C	1.219245	-0.380555	0.999658
C64	C	1.178888	-0.431078	1.051137
C65	C	1.299983	-0.279500	0.979236
C66	C	1.299968	-0.279516	0.896688
C67	C	1.259588	-0.330051	0.865623
C68	C	1.219228	-0.380575	0.917108
C69	C	1.178854	-0.431114	0.886045
C70	C	1.138489	-0.481635	0.937528
C71	C	1.138509	-0.481613	1.020072
C72	C	1.259568	-0.330073	0.783079
C73	C	1.178837	-0.431134	0.803495
H74	H	0.502441	-0.289180	0.531408
H75	H	0.616104	-0.238693	0.571803
H76	H	1.332834	-0.238378	0.854777
N77	N	0.836637	-0.536087	0.333555
H78	H	0.819754	-0.523744	0.274604
H79	H	0.833656	-0.592543	0.357227
N80	N	1.094950	-0.536150	0.904022
H81	H	1.101071	-0.528496	0.843919
H82	H	1.036018	-0.523840	0.915948
N83	N	0.774091	-0.225320	0.582450
H84	H	0.728984	-0.193352	0.608066
H85	H	0.800931	-0.188706	0.542917
N86	N	1.135370	-0.485551	1.189198
H87	H	1.076418	-0.473270	1.172334
H88	H	1.141559	-0.477853	1.246188
H89	H	0.899841	-0.289121	0.531309
N90	N	1.303188	-0.275497	1.146763
H91	H	1.297077	-0.283152	1.206868
H92	H	1.279506	-0.219063	1.120927
H93	H	1.105649	-0.522747	1.061996
N94	N	1.046291	-0.794754	0.284843
H95	H	1.002712	-0.760524	0.309998
H96	H	1.022185	-0.833506	0.260642
H97	H	1.145950	-0.472283	0.778210
H98	H	1.292435	-0.288942	0.741166
N99	N	1.391982	-0.965837	0.631065
H100	H	1.435569	-1.000064	0.605916
H101	H	1.366705	-1.000036	0.674577
N102	N	1.382655	-0.670441	0.621851
H103	H	1.363134	-0.611913	0.602316
H104	H	1.442030	-0.684822	0.612526
N105	N	0.950295	-0.485598	0.373942
H106	H	0.918054	-0.517573	0.348343
H107	H	0.991950	-0.522205	0.413454
N108	N	1.020858	-0.918628	0.259326
H109	H	1.046070	-0.884385	0.215793
H110	H	0.977294	-0.884444	0.284543
H111	H	1.401857	-0.831098	0.640997
H112	H	0.673267	-0.522764	0.344280
H113	H	1.138316	-0.730653	0.377042
N114	N	1.055616	-1.090163	0.294076
H115	H	1.015794	-1.051547	0.254198
H116	H	1.025951	-1.124415	0.333149
N117	N	1.343533	-0.224998	1.012738
H118	H	1.337414	-0.232649	1.072841
H119	H	1.319855	-0.168564	0.986898
H120	H	0.539289	-0.472308	0.384734
H121	H	1.188273	-0.681642	0.427121
H122	H	1.249994	-1.078976	0.488789
H123	H	1.299965	-1.029950	0.538862
