data_functionalizedCrystal
_audit_creation_method	'MofGen! by Chris Wilmer'
_symmetry_space_group_name_H-M	'P1'
_symmetry_Int_Tables_number	1
_symmetry_cell_setting	triclinic
loop_
_symmetry_equiv_pos_as_xyz
  x,y,z
_cell_length_a	19.805407
_cell_length_b	19.121063
_cell_length_c	19.805399
_cell_angle_alpha	92.411105
_cell_angle_beta	89.982197
_cell_angle_gamma	92.466276
loop_
_atom_site_label
_atom_site_type_symbol
_atom_site_fract_x
_atom_site_fract_y
_atom_site_fract_z
Zn1	Zn	1.023232	-0.279680	-0.394173
Zn2	Zn	1.018315	-0.397133	-0.285808
Zn3	Zn	0.910046	-0.279694	-0.281002
Zn4	Zn	0.905180	-0.397090	-0.398957
O5	O	0.964193	-0.338399	-0.339985
O6	O	1.117296	-0.295273	-0.379808
O7	O	1.003932	-0.381578	-0.190455
O8	O	0.929154	-0.181408	-0.292001
O9	O	1.113684	-0.381564	-0.300193
O10	O	1.012311	-0.181398	-0.375147
O11	O	0.924387	-0.295296	-0.186924
O12	O	0.814684	-0.295255	-0.296639
O13	O	0.920862	-0.381491	-0.493038
O14	O	0.811110	-0.381505	-0.383300
O15	O	1.007593	-0.295231	-0.489523
O16	O	0.999214	-0.495411	-0.304831
O17	O	0.916094	-0.495380	-0.387961
C18	C	0.788338	-0.338377	-0.339968
C19	C	0.713106	-0.338385	-0.339977
C20	C	0.679640	-0.293532	-0.381502
C21	C	0.608951	-0.293536	-0.381505
C22	C	0.571730	-0.338396	-0.339986
C23	C	0.605201	-0.383251	-0.298456
C24	C	0.675888	-0.383243	-0.298450
C25	C	0.320126	-0.383282	-0.298478
C26	C	0.249434	-0.383288	-0.298489
C27	C	0.253189	-0.293575	-0.381532
C28	C	0.323877	-0.293567	-0.381527
C29	C	0.357342	-0.338419	-0.339995
C30	C	0.433990	-0.338414	-0.339991
C31	C	0.495082	-0.338406	-0.339992
C32	C	0.956611	-0.520880	-0.347452
C33	C	0.953430	-0.598946	-0.350668
C34	C	0.995244	-0.635614	-0.308934
C35	C	0.992256	-0.708966	-0.311964
C36	C	0.947449	-0.745647	-0.356724
C37	C	0.905632	-0.708973	-0.398463
C38	C	0.908625	-0.635623	-0.395436
C39	C	0.936251	-0.967116	-0.368029
C40	C	0.933260	-1.040472	-0.371051
C41	C	1.019885	-1.040459	-0.284552
C42	C	1.022870	-0.967108	-0.281527
C43	C	0.981056	-0.930440	-0.323268
C44	C	0.944392	-0.820624	-0.359820
C45	C	0.984117	-0.855465	-0.320175
C46	C	1.140735	-0.338422	-0.340003
C47	C	1.215967	-0.338431	-0.340011
C48	C	0.964233	-0.338355	-0.516526
C49	C	0.964250	-0.338336	-0.591757
C50	C	0.971823	-0.155206	-0.332504
C51	C	0.975075	-0.077140	-0.329316
C52	C	1.009412	-0.293418	-0.625272
C53	C	1.009420	-0.293398	-0.695960
C54	C	0.964268	-0.338299	-0.733131
C55	C	0.919101	-0.383219	-0.699611
C56	C	0.919091	-0.383236	-0.628925
C57	C	0.919142	-0.383154	-0.984682
C58	C	0.919158	-0.383136	-1.055374
C59	C	1.009472	-0.293316	-1.051717
C60	C	1.009461	-0.293332	-0.981031
C61	C	0.964292	-0.338249	-0.947517
C62	C	0.964283	-0.338270	-0.870869
C63	C	0.964280	-0.338283	-0.809778
C64	C	0.964195	-0.338393	-0.164129
C65	C	0.964317	-0.338214	-0.088890
H66	H	0.581706	-0.257014	-0.415320
C67	C	0.869453	-0.432562	-0.947826
N68	N	0.832023	-0.469777	-0.920064
H69	H	1.059356	-0.937243	-0.245079
C70	C	0.895097	-0.860980	-0.409048
N71	N	0.857968	-0.891380	-0.446125
H72	H	0.882336	-0.419776	-0.729882
C73	C	0.208492	-0.432634	-0.252807
N74	N	0.177654	-0.469799	-0.218400
C75	C	0.364817	-0.244215	-0.427198
N76	N	0.395652	-0.207039	-0.461596
H77	H	1.046230	-0.256771	-0.950769
H78	H	0.874575	-0.605768	-0.429421
C79	C	1.033403	-0.815113	-0.270938
N80	N	1.070522	-0.784714	-0.233850
C81	C	0.216372	-0.244226	-0.427207
N82	N	0.188643	-0.207055	-0.461607
H83	H	1.046182	-0.256856	-0.595012
H84	H	0.347365	-0.419804	-0.264661
H85	H	1.046248	-0.256740	-1.079013
H86	H	0.882387	-0.419701	-1.085637
H87	H	0.882308	-0.419805	-0.601638
H88	H	1.053929	-1.070321	-0.250570
H89	H	0.574890	-0.419773	-0.264647
C90	C	0.712700	-0.432586	-0.252771
N91	N	0.740426	-0.469751	-0.218363
H92	H	0.709941	-0.257003	-0.415313
H93	H	1.026306	-0.738818	-0.277979
C94	C	1.044535	-0.595272	-0.259692
N95	N	1.081663	-0.564888	-0.222603
H96	H	1.046197	-0.256823	-0.723245
H97	H	0.896781	-1.070335	-0.407512
C98	C	0.856342	-0.749325	-0.447698
N99	N	0.819212	-0.779718	-0.484780
H100	H	0.902203	-0.937268	-0.402015
