data_functionalizedCrystal
_audit_creation_method	'MofGen! by Chris Wilmer'
_symmetry_space_group_name_H-M	'P1'
_symmetry_Int_Tables_number	1
_symmetry_cell_setting	triclinic
loop_
_symmetry_equiv_pos_as_xyz
  x,y,z
_cell_length_a	18.050589
_cell_length_b	15.297475
_cell_length_c	15.296720
_cell_angle_alpha	88.382886
_cell_angle_beta	99.646980
_cell_angle_gamma	99.668679
loop_
_atom_site_label
_atom_site_type_symbol
_atom_site_fract_x
_atom_site_fract_y
_atom_site_fract_z
Zn1	Zn	-0.577978	-1.253324	-0.726619
Zn2	Zn	-0.684914	-1.278573	-0.580139
Zn3	Zn	-0.536258	-1.132208	-0.554858
Zn4	Zn	-0.677614	-1.106800	-0.701267
O5	O	-0.619191	-1.192726	-0.640721
O6	O	-0.612678	-1.379249	-0.728378
O7	O	-0.650790	-1.280357	-0.454210
O8	O	-0.437882	-1.148341	-0.577673
O9	O	-0.691244	-1.397799	-0.620759
O10	O	-0.468533	-1.237325	-0.703865
O11	O	-0.541573	-1.172823	-0.435637
O12	O	-0.534494	-1.006262	-0.553090
O13	O	-0.678802	-1.105037	-0.827205
O14	O	-0.638348	-0.987595	-0.660656
O15	O	-0.605600	-1.212688	-0.845831
O16	O	-0.787856	-1.255720	-0.596176
O17	O	-0.782493	-1.129519	-0.685169
C18	C	-0.581102	-0.965146	-0.601379
C19	C	-0.564828	-0.867783	-0.584569
C20	C	-0.812124	-1.192623	-0.640688
C21	C	-0.894678	-1.192654	-0.640717
C22	C	-0.646040	-1.153212	-0.869189
C23	C	-0.657482	-1.136373	-0.966549
C24	C	-1.091246	-1.124087	-0.689101
C25	C	-1.127707	-1.116577	-0.605486
C26	C	-1.045824	-1.192738	-0.640743
C27	C	-1.156454	-1.200290	-0.724374
C28	C	-1.191825	-1.192816	-0.640775
C29	C	-1.081185	-1.185193	-0.557079
C30	C	-1.109941	-1.268934	-0.676028
C31	C	-1.146377	-1.261463	-0.592364
C32	C	-0.961717	-1.192690	-0.640726
C33	C	-1.275930	-1.192866	-0.640784
C34	C	-0.425511	-1.192850	-0.640777
C35	C	-0.342976	-1.192903	-0.640801
C36	C	-0.657429	-1.421195	-0.680217
C37	C	-0.673724	-1.518555	-0.697047
C38	C	-0.735511	-0.554614	-0.760865
C39	C	-0.750806	-0.646092	-0.776656
C40	C	-0.704313	-0.701519	-0.728636
C41	C	-0.642522	-0.665459	-0.664822
C42	C	-0.627228	-0.573973	-0.649024
C43	C	-0.596030	-0.720878	-0.616795
C44	C	-0.534239	-0.684818	-0.552980
C45	C	-0.518948	-0.593341	-0.537186
C46	C	-0.565441	-0.537914	-0.585206
C47	C	-0.611324	-0.812364	-0.632593
C48	C	-0.503041	-0.831723	-0.520751
C49	C	-0.487746	-0.740245	-0.504960
C50	C	-0.537292	-1.313107	-1.279781
C51	C	-0.526544	-1.328934	-1.188308
C52	C	-0.559277	-1.280795	-1.132864
C53	C	-0.602761	-1.216827	-1.168902
C54	C	-0.613514	-1.201004	-1.260385
C55	C	-0.635500	-1.168692	-1.113467
C56	C	-0.678984	-1.104724	-1.149505
C57	C	-0.689735	-1.088904	-1.240979
C58	C	-0.657002	-1.137042	-1.296423
C59	C	-0.624746	-1.184515	-1.021984
C60	C	-0.700969	-1.072411	-1.002587
C61	C	-0.711717	-1.056585	-1.094061
C62	C	-0.592401	-1.232137	-0.413150
C63	C	-0.580779	-1.249146	-0.315820
H64	H	-1.136053	-1.052176	-0.575667
O65	O	-1.038073	-1.176679	-0.463364
H66	H	-1.045251	-1.113686	-0.434066
O67	O	-0.668590	-1.119973	-1.395088
H68	H	-0.704325	-1.067405	-1.410835
O69	O	-0.452885	-0.891492	-0.468954
H70	H	-0.473894	-0.961161	-0.490667
H71	H	-0.747121	-1.004502	-1.123416
O72	O	-0.452305	-0.554453	-0.468351
H73	H	-0.473271	-0.520479	-0.416514
O74	O	-0.577849	-1.253505	-0.983125
H75	H	-0.575874	-1.256431	-0.910202
H76	H	-0.550524	-1.293685	-1.058383
O77	O	-0.479649	-1.397925	-1.149445
H78	H	-0.430411	-1.365962	-1.100995
O79	O	-0.736633	-1.019911	-1.279854
H80	H	-0.757582	-0.989087	-1.225934
H81	H	-0.510650	-1.352300	-1.324932
H82	H	-0.727625	-1.033214	-0.957445
H83	H	-1.170350	-1.319563	-0.551426
O84	O	-1.059269	-1.047114	-0.743159
H85	H	-1.065909	-0.983984	-0.713676
O86	O	-1.099067	-1.354279	-0.715599
H87	H	-1.070581	-1.339067	-0.774447
O88	O	-1.199674	-1.208720	-0.818042
H89	H	-1.177471	-1.151618	-0.858018
H90	H	-0.437435	-0.710872	-0.453001
H91	H	-0.716770	-0.776004	-0.741498
O92	O	-0.677952	-0.851252	-0.701435
H93	H	-0.718040	-0.899701	-0.669359
O94	O	-0.817441	-0.684986	-0.845487
H95	H	-0.847196	-0.631077	-0.876233
O96	O	-0.785653	-0.494837	-0.812655
H97	H	-0.764633	-0.425167	-0.790951
H98	H	-0.552990	-0.463423	-0.572354
