data_functionalizedCrystal
_audit_creation_method	'MofGen! by Chris Wilmer'
_symmetry_space_group_name_H-M	'P1'
_symmetry_Int_Tables_number	1
_symmetry_cell_setting	triclinic
loop_
_symmetry_equiv_pos_as_xyz
  x,y,z
_cell_length_a	16.959455
_cell_length_b	12.759399
_cell_length_c	12.759393
_cell_angle_alpha	89.967969
_cell_angle_beta	89.973429
_cell_angle_gamma	90.012136
loop_
_atom_site_label
_atom_site_type_symbol
_atom_site_fract_x
_atom_site_fract_y
_atom_site_fract_z
Zn1	Zn	1.208459	-0.418287	-0.594206
Zn2	Zn	1.208379	-0.594006	-0.418525
Zn3	Zn	1.076274	-0.418333	-0.418520
Zn4	Zn	1.076264	-0.593916	-0.594141
O5	O	1.142344	-0.506135	-0.506348
O6	O	1.319060	-0.441616	-0.570930
O7	O	1.190825	-0.570760	-0.271503
O8	O	1.093846	-0.271306	-0.441851
O9	O	1.319001	-0.570716	-0.441858
O10	O	1.190962	-0.271272	-0.570926
O11	O	1.093768	-0.441693	-0.271500
O12	O	0.965661	-0.441605	-0.441788
O13	O	1.093830	-0.570561	-0.741171
O14	O	0.965654	-0.570605	-0.570816
O15	O	1.190953	-0.441528	-0.741218
O16	O	1.190816	-0.741015	-0.441795
O17	O	1.093752	-0.740949	-0.570820
C18	C	1.142296	-0.779103	-0.506324
C19	C	1.142347	-0.895879	-0.506349
C20	C	0.936978	-0.506101	-0.506295
C21	C	0.849121	-0.506112	-0.506297
C22	C	1.192946	-0.950741	-0.439242
C23	C	1.192997	-1.060465	-0.439277
C24	C	1.091843	-1.060456	-0.573529
C25	C	1.091797	-0.950734	-0.573499
C26	C	1.286295	-1.210351	-0.401905
C27	C	1.336887	-1.265217	-0.334781
C28	C	1.349049	-1.229679	-0.232273
C29	C	1.310606	-1.139278	-0.196867
C30	C	1.260008	-1.084418	-0.263985
C31	C	1.247862	-1.119954	-0.366508
C32	C	0.998497	-0.800846	-0.610861
C33	C	0.947895	-0.745984	-0.677974
C34	C	0.935725	-0.781520	-0.780484
C35	C	0.974154	-0.871924	-0.815886
C36	C	1.024756	-0.926786	-0.748773
C37	C	1.036927	-0.891243	-0.646264
C38	C	0.477604	-0.573291	-0.439106
C39	C	0.477687	-0.439067	-0.573718
C40	C	0.560233	-0.439050	-0.573693
C41	C	0.601468	-0.506155	-0.506374
C42	C	0.560158	-0.573278	-0.439080
C43	C	0.601550	-0.371935	-0.640992
C44	C	0.684101	-0.371916	-0.640970
C45	C	0.725337	-0.439017	-0.573645
C46	C	0.684022	-0.506142	-0.506348
C47	C	0.725257	-0.573248	-0.439030
C48	C	0.683943	-0.640368	-0.371727
C49	C	0.601395	-0.640379	-0.371756
C50	C	0.807886	-0.439006	-0.573616
C51	C	0.807811	-0.573235	-0.439004
C52	C	1.348512	-0.506171	-0.506402
C53	C	1.436369	-0.506186	-0.506425
C54	C	1.142399	-0.506029	-0.780382
C55	C	1.142423	-0.505984	-0.897158
C56	C	1.142414	-0.232102	-0.506395
C57	C	1.142444	-0.115325	-0.506415
C58	C	1.091903	-0.438767	-0.952018
C59	C	1.091922	-0.438734	-1.061742
C60	C	1.192986	-0.573139	-1.061737
C61	C	1.192963	-0.573176	-0.952015
C62	C	0.998743	-0.401128	-1.211678
C63	C	0.948230	-0.333894	-1.266542
C64	C	0.936115	-0.231389	-1.230951
C65	C	0.974524	-0.196097	-1.140498
C66	C	1.025042	-0.263325	-1.085640
C67	C	1.037143	-0.365845	-1.121229
C68	C	1.286142	-0.610772	-0.802077
C69	C	1.336666	-0.677996	-0.747217
C70	C	1.348789	-0.780502	-0.782806
C71	C	1.310394	-0.815790	-0.873262
C72	C	1.259871	-0.748567	-0.928122
C73	C	1.247746	-0.646061	-0.892526
C74	C	1.142335	-0.506165	-0.233381
C75	C	1.142464	-0.505915	-0.116605
H76	H	1.234109	-0.906081	-0.384567
N77	N	0.728419	-0.712741	-0.299114
H78	H	0.714058	-0.787831	-0.315299
H79	H	0.786967	-0.702457	-0.309350
H80	H	0.841379	-0.627878	-0.384181
H81	H	1.008594	-0.484599	-1.240657
H82	H	1.389937	-0.835231	-0.738135
H83	H	1.276406	-1.239287	-0.485378
H84	H	1.008408	-0.771899	-0.527391
H85	H	0.443963	-0.627936	-0.384307
H86	H	1.228711	-1.010815	-0.235159
H87	H	1.276253	-0.527314	-0.773071
N88	N	0.961034	-0.910254	-0.926454
H89	H	0.993056	-0.975850	-0.938695
H90	H	0.903251	-0.926259	-0.936942
N91	N	1.378360	-1.362710	-0.372961
H92	H	1.362576	-1.424309	-0.327842
H93	H	1.362975	-1.376803	-0.448102
N94	N	0.881142	-0.722353	-0.852871
H95	H	0.836755	-0.769896	-0.875750
H96	H	0.858695	-0.659698	-0.814830
H97	H	1.367937	-0.649250	-0.673571
H98	H	1.050750	-0.384055	-0.907357
H99	H	0.444108	-0.384438	-0.628532
H100	H	0.567749	-0.695025	-0.316961
N101	N	0.557077	-0.299564	-0.713598
H102	H	0.571475	-0.315973	-0.788632
H103	H	0.498528	-0.309791	-0.703306
N104	N	0.852447	-0.366630	-0.646204
H105	H	0.813798	-0.324126	-0.688859
H106	H	0.886677	-0.317949	-0.603516
N107	N	1.323714	-1.100957	-0.086296
H108	H	1.361601	-1.149427	-0.049150
H109	H	1.346492	-1.027840	-0.088265
H110	H	0.916609	-0.672368	-0.649143
N111	N	0.728658	-0.299527	-0.713556
H112	H	0.690008	-0.257020	-0.756205
H113	H	0.762886	-0.250849	-0.670861
H114	H	1.050685	-1.105132	-0.628198
H115	H	1.390243	-1.274358	-0.177621
N116	N	1.066205	-1.024296	-0.786951
H117	H	1.050819	-1.038488	-0.862075
H118	H	1.125131	-1.013775	-0.782467
H119	H	1.056317	-0.234589	-1.011998
H120	H	0.964662	-0.112623	-1.111534
H121	H	1.234135	-0.627844	-1.106415
H122	H	0.894986	-0.176647	-1.275629
H123	H	0.916958	-0.362639	-1.340189
N124	N	1.218458	-0.786622	-1.025688
H125	H	1.233803	-0.861761	-1.039914
H126	H	1.159528	-0.782055	-1.015209
H127	H	1.320269	-0.899258	-0.902243
