data_functionalizedCrystal
_audit_creation_method	'MofGen! by Chris Wilmer'
_symmetry_space_group_name_H-M	'P1'
_symmetry_Int_Tables_number	1
_symmetry_cell_setting	triclinic
loop_
_symmetry_equiv_pos_as_xyz
  x,y,z
_cell_length_a	25.639242
_cell_length_b	25.639239
_cell_length_c	15.296720
_cell_angle_alpha	99.638856
_cell_angle_beta	99.654082
_cell_angle_gamma	90.033587
loop_
_atom_site_label
_atom_site_type_symbol
_atom_site_fract_x
_atom_site_fract_y
_atom_site_fract_z
Zn1	Zn	0.748034	-0.259382	-0.510230
Zn2	Zn	1.248034	0.240618	-0.010230
Zn3	Zn	0.763093	-0.331694	-0.359377
Zn4	Zn	1.263093	0.168306	0.140623
Zn5	Zn	0.675745	-0.244266	-0.359378
Zn6	Zn	1.175745	0.255734	0.140622
Zn7	Zn	0.660563	-0.346773	-0.510153
Zn8	Zn	1.160563	0.153227	-0.010153
O9	O	0.711859	-0.295529	-0.434785
O10	O	1.211859	0.204471	0.065215
O11	O	0.823194	-0.268990	-0.490251
O12	O	1.323194	0.231010	0.009749
O13	O	0.764161	-0.307460	-0.233145
O14	O	1.264161	0.192540	0.266855
O15	O	0.685386	-0.173110	-0.379422
O16	O	1.185386	0.326890	0.120578
O17	O	0.834257	-0.322117	-0.379420
O18	O	1.334257	0.177883	0.120580
O19	O	0.738497	-0.184215	-0.490252
O20	O	1.238497	0.315785	0.009748
O21	O	0.699988	-0.243227	-0.233146
O22	O	1.199988	0.256773	0.266854
O23	O	0.600569	-0.257849	-0.379347
O24	O	1.100569	0.242151	0.120653
O25	O	0.659511	-0.347817	-0.636395
O26	O	1.159511	0.152183	-0.136395
O27	O	0.589415	-0.333160	-0.490120
O28	O	1.089415	0.166840	0.009880
O29	O	0.723775	-0.283611	-0.636452
O30	O	1.223775	0.216389	-0.136452
O31	O	0.749440	-0.406856	-0.379345
O32	O	1.249440	0.093144	0.120655
O33	O	0.674112	-0.417934	-0.490119
O34	O	1.174112	0.082066	0.009881
C35	C	0.576022	-0.295501	-0.434726
C36	C	1.076022	0.204499	0.065274
C37	C	0.517909	-0.295503	-0.434722
C38	C	1.017909	0.204497	0.065278
C39	C	0.272498	-0.256269	-0.377205
C40	C	0.772498	0.243731	0.122795
C41	C	0.327104	-0.256263	-0.377193
C42	C	0.827104	0.243737	0.122807
O43	O	0.360262	-0.222868	-0.328239
O44	O	0.860262	0.277132	0.171761
N45	N	0.348630	-0.295515	-0.434768
N46	N	0.848630	0.204485	0.065232
C47	C	0.315548	-0.334772	-0.492364
C48	C	0.815548	0.165228	0.007636
O49	O	0.338872	-0.368158	-0.541334
O50	O	0.838872	0.131842	-0.041334
C51	C	0.260943	-0.334775	-0.492379
C52	C	0.760943	0.165225	0.007621
C53	C	0.239420	-0.295524	-0.434794
C54	C	0.739420	0.204476	0.065206
C55	C	0.250975	-0.217020	-0.319626
C56	C	0.750975	0.282980	0.180374
C57	C	0.196373	-0.217027	-0.319636
C58	C	0.696373	0.282973	0.180364
C59	C	0.163295	-0.256282	-0.377226
C60	C	0.663295	0.243718	0.122774
C61	C	0.184818	-0.295531	-0.434805
C62	C	0.684818	0.204469	0.065195
C63	C	0.227861	-0.374030	-0.549979
C64	C	0.727861	0.125970	-0.049979
C65	C	0.173253	-0.374030	-0.549990
C66	C	0.673253	0.125970	-0.049990
C67	C	0.151730	-0.334778	-0.492405
C68	C	0.651730	0.165222	0.007595
C69	C	0.097138	-0.334793	-0.492405
C70	C	0.597138	0.165207	0.007595
N71	N	0.075612	-0.295541	-0.434831
N72	N	0.575612	0.204459	0.065169
C73	C	0.108690	-0.256285	-0.377241
C74	C	0.608690	0.243715	0.122759
C75	C	0.430222	-0.334761	-0.492328
C76	C	0.930222	0.165239	0.007672
C77	C	0.484826	-0.334761	-0.492309
C78	C	0.984826	0.165239	0.007691
C79	C	0.496378	-0.256251	-0.377140
C80	C	0.996378	0.243749	0.122860
C81	C	0.441773	-0.256254	-0.377155
C82	C	0.941773	0.243746	0.122845
C83	C	0.408695	-0.295509	-0.434754
C84	C	0.908695	0.204491	0.065246
C85	C	-0.005978	-0.256303	-0.377267
C86	C	0.494022	0.243697	0.122733
C87	C	-0.060584	-0.256314	-0.377280
C88	C	0.439416	0.243686	0.122720
C89	C	-0.072132	-0.334822	-0.492452
C90	C	0.427868	0.165178	0.007548
C91	C	-0.017530	-0.334813	-0.492436
C92	C	0.482470	0.165187	0.007564
C93	C	0.015546	-0.295548	-0.434841
C94	C	0.515546	0.204452	0.065159
O95	O	0.063948	-0.368169	-0.541337
O96	O	0.563948	0.131831	-0.041337
O97	O	0.085358	-0.222901	-0.328287
O98	O	0.585358	0.277099	0.171713
C99	C	0.711775	-0.431367	-0.434743
C100	C	1.211775	0.068633	0.065257
C101	C	0.711784	-0.489482	-0.434756
C102	C	1.211784	0.010518	0.065244
C103	C	0.751159	-0.844077	-0.377203
C104	C	1.251159	-0.344077	0.122797
C105	C	0.751179	-0.898683	-0.377215
C106	C	1.251179	-0.398683	0.122785
O107	O	0.784570	-0.922010	-0.328236
O108	O	1.284570	-0.422010	0.171764
N109	N	0.711945	-0.931774	-0.434844
N110	N	1.211945	-0.431774	0.065156
C111	C	0.672693	-0.910258	-0.492472
C112	C	1.172693	-0.410258	0.007528
O113	O	0.639323	-0.943418	-0.541492
O114	O	1.139323	-0.443418	-0.041492
C115	C	0.672676	-0.855653	-0.492464
C116	C	1.172676	-0.355653	0.007536
C117	C	0.711909	-0.822564	-0.434824
C118	C	1.211909	-0.322564	0.065176
C119	C	0.790390	-0.810988	-0.319569
C120	C	1.290390	-0.310988	0.180431
C121	C	0.790370	-0.756386	-0.319556
C122	C	1.290370	-0.256386	0.180444
C123	C	0.751120	-0.734873	-0.377177
C124	C	1.251120	-0.234873	0.122823
C125	C	0.711890	-0.767962	-0.434811
C126	C	1.211890	-0.267962	0.065189
C127	C	0.633427	-0.834139	-0.550095
C128	C	1.133427	-0.334139	-0.050095
C129	C	0.633414	-0.779530	-0.550083
C130	C	1.133414	-0.279530	-0.050083
C131	C	0.672647	-0.746441	-0.492443
C132	C	1.172647	-0.246441	0.007557
C133	C	0.672620	-0.691847	-0.492419
C134	C	1.172620	-0.191847	0.007581
N135	N	0.711853	-0.658756	-0.434790
N136	N	1.211853	-0.158756	0.065210
C137	C	0.751104	-0.680269	-0.377169
C138	C	1.251104	-0.180269	0.122831
C139	C	0.672731	-1.024930	-0.492486
C140	C	1.172731	-0.524930	0.007514
C141	C	0.672744	-1.079532	-0.492490
C142	C	1.172744	-0.579532	0.007510
C143	C	0.751231	-1.067954	-0.377234
C144	C	1.251231	-0.567954	0.122766
C145	C	0.751215	-1.013350	-0.377226
C146	C	1.251215	-0.513350	0.122774
C147	C	0.711964	-0.991838	-0.434857
C148	C	1.211964	-0.491838	0.065143
C149	C	0.751059	-0.565602	-0.377145
C150	C	1.251059	-0.065602	0.122855
C151	C	0.751034	-0.510995	-0.377135
C152	C	1.251034	-0.010995	0.122865
C153	C	0.672549	-0.522579	-0.492394
C154	C	1.172549	-0.022579	0.007606
C155	C	0.672572	-0.577180	-0.492401
C156	C	1.172572	-0.077180	0.007599
C157	C	0.711831	-0.598690	-0.434774
C158	C	1.211831	-0.098690	0.065226
O159	O	0.639246	-0.668483	-0.541376
O160	O	1.139246	-0.168483	-0.041376
O161	O	0.784471	-0.647104	-0.328165
O162	O	1.284471	-0.147104	0.171835
C163	C	0.848226	-0.295557	-0.434844
C164	C	1.348226	0.204443	0.065156
C165	C	0.906337	-0.295569	-0.434870
C166	C	1.406337	0.204431	0.065130
C167	C	0.688270	-0.319082	-0.670069
C168	C	1.188270	0.180918	-0.170069
C169	C	0.678218	-0.329119	-0.770333
C170	C	1.178218	0.170881	-0.270333
C171	C	0.711955	-0.159162	-0.434846
C172	C	1.211955	0.340838	0.065154
C173	C	0.711996	-0.101050	-0.434872
C174	C	1.211996	0.398950	0.065128
C175	C	0.783723	-0.223702	-1.053080
C176	C	1.283723	0.276298	-0.553080
C177	C	0.793171	-0.214272	-0.958877
C178	C	1.293171	0.285728	-0.458877
C179	C	0.764433	-0.242983	-0.911736
C180	C	1.264433	0.257017	-0.411736
C181	C	0.726247	-0.281125	-0.958808
C182	C	1.226247	0.218875	-0.458808
C183	C	0.716801	-0.290558	-1.053021
C184	C	1.216801	0.209442	-0.553021
C185	C	0.697511	-0.309839	-0.911677
C186	C	1.197511	0.190161	-0.411677
C187	C	0.659324	-0.347981	-0.958749
C188	C	1.159324	0.152019	-0.458749
C189	C	0.649880	-0.357412	-1.052952
C190	C	1.149880	0.142588	-0.552952
C191	C	0.678617	-0.328702	-1.100093
C192	C	1.178617	0.171298	-0.600093
C193	C	0.706957	-0.300406	-0.817465
C194	C	1.206957	0.199594	-0.317465
C195	C	0.640034	-0.367263	-0.817405
C196	C	1.140034	0.132737	-0.317405
C197	C	0.630587	-0.376692	-0.911608
C198	C	1.130587	0.123308	-0.411608
C199	C	0.735386	-0.272029	-0.200416
C200	C	1.235386	0.227971	0.299584
C201	C	0.745540	-0.261845	-0.100152
C202	C	1.245540	0.238155	0.399848
H203	H	0.020947	-0.224328	-0.330371
H204	H	0.520947	0.275672	0.169629
C205	C	0.172700	-0.173840	-0.256318
C206	C	0.672700	0.326160	0.243682
H207	H	0.135441	-0.179458	-0.264566
H208	H	0.635441	0.320542	0.235434
H209	H	0.180343	-0.140061	-0.269647
H210	H	0.680343	0.359939	0.230353
H211	H	0.187708	-0.175359	-0.195675
H212	H	0.687708	0.324641	0.304325
C213	C	0.668226	-0.339077	-1.203717
C214	C	1.168226	0.160923	-0.703717
H215	H	0.641368	-0.365905	-1.225002
H216	H	1.141368	0.134095	-0.725002
H217	H	0.699821	-0.350258	-1.225040
H218	H	1.199821	0.149742	-0.725040
H219	H	0.657068	-0.307468	-1.225039
H220	H	1.157068	0.192532	-0.725039
C221	C	0.608423	-0.398850	-0.765565
C222	C	1.108423	0.101150	-0.265565
H223	H	0.584334	-0.422923	-0.807091
H224	H	1.084334	0.077077	-0.307091
H225	H	0.589342	-0.375169	-0.728811
H226	H	1.089342	0.124831	-0.228811
H227	H	0.632097	-0.417955	-0.728816
H228	H	1.132097	0.082045	-0.228816
H229	H	0.502346	-0.366728	-0.539190
H230	H	1.002346	0.133272	-0.039190
C231	C	0.588588	-0.418650	-0.963394
C232	C	1.088588	0.081350	-0.463394
H233	H	0.587083	-0.420156	-1.026250
H234	H	1.087083	0.079844	-0.526250
H235	H	0.555012	-0.409447	-0.947946
H236	H	1.055012	0.090553	-0.447946
H237	H	0.597766	-0.452236	-0.947943
H238	H	1.097766	0.047764	-0.447943
H239	H	0.783028	-0.583108	-0.330222
H240	H	1.283028	-0.083108	0.169778
H241	H	0.807120	-0.200332	-1.091470
H242	H	1.307120	0.299668	-0.591470
C243	C	0.287355	-0.173837	-0.256272
C244	C	0.787355	0.326163	0.243728
H245	H	0.322961	-0.179447	-0.264502
H246	H	0.822961	0.320553	0.235498
H247	H	0.284461	-0.175368	-0.195645
H248	H	0.784461	0.324632	0.304355
H249	H	0.277090	-0.140052	-0.269592
H250	H	0.777090	0.359948	0.230408
C251	C	-0.084257	-0.213134	-0.313939
C252	C	0.415743	0.286866	0.186061
H253	H	-0.056734	-0.189751	-0.279648
H254	H	0.443266	0.310249	0.220352
H255	H	-0.101630	-0.229157	-0.274574
H256	H	0.398370	0.270843	0.225426
H257	H	-0.109005	-0.193846	-0.348528
H258	H	0.390995	0.306154	0.151472
C259	C	0.532770	-0.213066	-0.313800
C260	C	1.032770	0.286934	0.186200
H261	H	0.568371	-0.218685	-0.322050
H262	H	1.068371	0.281315	0.177950
H263	H	0.529887	-0.214588	-0.253166
H264	H	1.029887	0.285412	0.246834
H265	H	0.522508	-0.179281	-0.327126
H266	H	1.022508	0.320719	0.172874
C267	C	0.833532	-0.719996	-0.256163
C268	C	1.333532	-0.219996	0.243837
H269	H	0.856911	-0.740637	-0.221859
H270	H	1.356911	-0.240637	0.278141
H271	H	0.817496	-0.694781	-0.216811
H272	H	1.317496	-0.194781	0.283189
H273	H	0.852829	-0.702129	-0.290716
H274	H	1.352829	-0.202129	0.209284
H275	H	0.618790	-0.388474	-1.091275
H276	H	1.118790	0.111526	-0.591275
H277	H	0.403292	-0.366732	-0.539230
H278	H	0.903292	0.133268	-0.039230
C279	C	0.418102	-0.213074	-0.313821
C280	C	0.918102	0.286926	0.186179
H281	H	0.445627	-0.189695	-0.279527
H282	H	0.945627	0.310305	0.220473
H283	H	0.400725	-0.229095	-0.274458
H284	H	0.900725	0.270905	0.225542
H285	H	0.393358	-0.193784	-0.348411
H286	H	0.893358	0.306216	0.151589
C287	C	0.251528	-0.417216	-0.613301
C288	C	0.751528	0.082784	-0.113301
H289	H	0.288788	-0.411603	-0.605044
H290	H	0.788788	0.088397	-0.105044
H291	H	0.236520	-0.415698	-0.673940
H292	H	0.736520	0.084302	-0.173940
H293	H	0.243885	-0.450996	-0.599968
H294	H	0.743885	0.049004	-0.099968
C295	C	0.136866	-0.417196	-0.613384
C296	C	0.636866	0.082804	-0.113384
H297	H	0.157508	-0.440566	-0.647679
H298	H	0.657508	0.059434	-0.147679
H299	H	0.111648	-0.401154	-0.652742
H300	H	0.611648	0.098846	-0.152742
H301	H	0.119000	-0.436501	-0.578842
H302	H	0.619000	0.063499	-0.078842
H303	H	0.738049	-0.269350	-0.779148
H304	H	1.238049	0.230650	-0.279148
H305	H	0.783192	-1.085479	-0.330319
H306	H	1.283192	-0.585479	0.169681
H307	H	-0.000005	-0.366778	-0.539319
H308	H	0.499995	0.133222	-0.039319
H309	H	-0.099074	-0.366784	-0.539337
H310	H	0.400926	0.133216	-0.039337
C311	C	0.794194	-0.474600	-0.313733
C312	C	1.294194	0.025400	0.186267
H313	H	0.817575	-0.495237	-0.279426
H314	H	1.317575	0.004763	0.220574
H315	H	0.778152	-0.449388	-0.274384
H316	H	1.278152	0.050612	0.225616
H317	H	0.813490	-0.456730	-0.348283
H318	H	1.313490	0.043270	0.151717
C319	C	0.833566	-0.834643	-0.256174
C320	C	1.333566	-0.334643	0.243826
H321	H	0.856922	-0.807109	-0.221849
H322	H	1.356922	-0.307109	0.278151
H323	H	0.852880	-0.859376	-0.290712
H324	H	1.352880	-0.359376	0.209288
H325	H	0.817532	-0.852028	-0.216830
H326	H	1.317532	-0.352028	0.283170
H327	H	0.783162	-0.986411	-0.330291
H328	H	1.283162	-0.486411	0.169709
C329	C	0.774821	-0.232607	-0.808115
C330	C	1.274821	0.267393	-0.308115
H331	H	0.801675	-0.205775	-0.786832
H332	H	1.301675	0.294225	-0.286832
H333	H	0.785971	-0.264212	-0.786784
H334	H	1.285971	0.235788	-0.286784
H335	H	0.743223	-0.221418	-0.786800
H336	H	1.243223	0.278582	-0.286800
H337	H	0.640793	-1.106469	-0.539418
H338	H	1.140793	-0.606469	-0.039418
H339	H	0.640764	-1.007418	-0.539413
H340	H	1.140764	-0.507418	-0.039413
C341	C	0.590273	-0.870526	-0.613507
C342	C	1.090273	-0.370526	-0.113507
H343	H	0.566902	-0.849886	-0.647825
H344	H	1.066902	-0.349886	-0.147825
H345	H	0.570972	-0.888401	-0.578977
H346	H	1.070972	-0.388401	-0.078977
H347	H	0.606322	-0.895735	-0.652856
H348	H	1.106322	-0.395735	-0.152856
H349	H	0.601452	-0.762019	-0.597015
H350	H	1.101452	-0.262019	-0.097015
H351	H	0.640591	-0.505054	-0.539306
H352	H	1.140591	-0.005054	-0.039306
C353	C	0.629417	-0.613579	-0.555801
C354	C	1.129417	-0.113579	-0.055801
H355	H	0.606040	-0.592945	-0.590119
H356	H	1.106040	-0.092945	-0.090119
H357	H	0.610122	-0.631458	-0.521267
H358	H	1.110122	-0.131458	-0.021267
H359	H	0.645468	-0.638786	-0.595152
H360	H	1.145468	-0.138786	-0.095152
H361	H	0.824264	-0.183218	-0.920558
H362	H	1.324264	0.316782	-0.420558
