data_functionalizedCrystal
_audit_creation_method	'MofGen! by Chris Wilmer'
_symmetry_space_group_name_H-M	'P1'
_symmetry_Int_Tables_number	1
_symmetry_cell_setting	triclinic
loop_
_symmetry_equiv_pos_as_xyz
  x,y,z
_cell_length_a	12.759394
_cell_length_b	18.215407
_cell_length_c	18.215399
_cell_angle_alpha	90.019833
_cell_angle_beta	89.974724
_cell_angle_gamma	89.984715
loop_
_atom_site_label
_atom_site_type_symbol
_atom_site_fract_x
_atom_site_fract_y
_atom_site_fract_z
Zn1	Zn	-0.418265	-1.125123	-0.416130
Zn2	Zn	-0.593962	-1.125053	-0.293069
Zn3	Zn	-0.418299	-1.002056	-0.293077
Zn4	Zn	-0.593904	-1.002043	-0.416094
O5	O	-0.506107	-1.063569	-0.354592
O6	O	-0.441581	-1.228098	-0.399817
O7	O	-0.570699	-1.108713	-0.190086
O8	O	-0.271273	-1.018416	-0.309418
O9	O	-0.570666	-1.228047	-0.309405
O10	O	-0.271248	-1.108833	-0.399825
O11	O	-0.441640	-1.018348	-0.190092
O12	O	-0.441583	-0.899070	-0.309384
O13	O	-0.570566	-1.018394	-0.519083
O14	O	-0.570599	-0.899061	-0.399764
O15	O	-0.441525	-1.108821	-0.519109
O16	O	-0.740975	-1.108701	-0.309370
O17	O	-0.740933	-1.018326	-0.399756
C18	C	-0.779075	-1.063525	-0.354575
C19	C	-0.895852	-1.063573	-0.354592
C20	C	-0.506089	-0.872363	-0.354571
C21	C	-0.506107	-0.790564	-0.354580
C22	C	-0.506035	-1.063614	-0.546545
C23	C	-0.506004	-1.063633	-0.628344
C24	C	-0.895843	-1.157751	-0.260543
C25	C	-0.950699	-1.204859	-0.213528
C26	C	-1.060421	-1.204903	-0.213548
C27	C	-1.115289	-1.157834	-0.260590
C28	C	-1.060432	-1.110726	-0.307605
C29	C	-0.950708	-1.110686	-0.307579
C30	C	-1.060441	-1.016553	-0.401656
C31	C	-0.950719	-1.016505	-0.401634
C32	C	-1.115308	-0.969484	-0.448698
C33	C	-1.060452	-0.922371	-0.495711
C34	C	-0.950724	-0.922329	-0.495689
C35	C	-0.895863	-0.969397	-0.448649
C36	C	-0.232074	-1.063633	-0.354626
C37	C	-0.115297	-1.063661	-0.354641
C38	C	-0.506126	-1.255522	-0.354614
C39	C	-0.506134	-1.337321	-0.354623
C40	C	-0.573391	-0.602384	-0.401582
C41	C	-0.573395	-0.525526	-0.401591
C42	C	-0.438843	-0.525506	-0.307619
C43	C	-0.438835	-0.602363	-0.307614
C44	C	-0.506115	-0.640800	-0.354594
C45	C	-0.506126	-0.487084	-0.354608
C46	C	-0.506129	-0.403751	-0.354618
C47	C	-0.506111	-0.724139	-0.354586
C48	C	-0.438750	-1.110735	-0.816553
C49	C	-0.438719	-1.110744	-0.893412
C50	C	-0.573096	-1.016583	-0.893373
C51	C	-0.573121	-1.016571	-0.816516
C52	C	-0.505949	-1.063651	-0.778108
C53	C	-0.505894	-1.063672	-0.931824
C54	C	-0.505861	-1.063681	-1.015158
C55	C	-0.505980	-1.063641	-0.694769
C56	C	-0.506104	-1.063567	-0.163386
C57	C	-0.505839	-1.063690	-0.081588
H58	H	-0.906017	-1.243184	-0.175228
H59	H	-0.906065	-0.883971	-0.533977
H60	H	-0.627842	-0.978225	-0.785213
H61	H	-0.627787	-0.978254	-0.924655
H62	H	-0.384044	-0.633642	-0.269352
C63	C	-0.260876	-0.501850	-0.271986
C64	C	-0.364895	-0.483254	-0.255976
H65	H	-0.215225	-0.475764	-0.240104
H66	H	-0.251251	-0.553116	-0.265258
H67	H	-0.245603	-0.489271	-0.321453
H68	H	-0.380170	-0.495839	-0.206511
H69	H	-0.374525	-0.431977	-0.262698
H70	H	-0.806502	-1.157711	-0.260513
C71	C	-1.272352	-1.227905	-0.279441
C72	C	-1.235896	-1.157889	-0.260615
H73	H	-1.346811	-1.227939	-0.279452
H74	H	-1.247466	-1.240586	-0.326934
H75	H	-1.247515	-1.262671	-0.244695
H76	H	-1.260727	-1.123123	-0.295364
H77	H	-1.260793	-1.145199	-0.213116
H78	H	-0.628176	-0.494251	-0.439853
H79	H	-0.383997	-1.149083	-0.924711
C80	C	-1.049403	-1.297987	-0.120573
C81	C	-1.120726	-1.256682	-0.161867
H82	H	-1.086636	-1.329949	-0.088665
H83	H	-1.006547	-1.326107	-0.152650
H84	H	-1.006670	-1.265915	-0.092388
H85	H	-1.163455	-1.288755	-0.190056
H86	H	-1.163601	-1.228560	-0.129786
C87	C	-1.272387	-0.988281	-0.518754
C88	C	-1.235916	-0.969536	-0.448724
H89	H	-1.346846	-0.988316	-0.518767
H90	H	-1.247575	-0.953489	-0.553479
H91	H	-1.247487	-1.035757	-0.531504
H92	H	-1.260810	-0.922058	-0.435976
H93	H	-1.260739	-1.004330	-0.413988
H94	H	-0.806522	-0.969362	-0.448621
C95	C	-1.094147	-0.886481	-0.620306
C96	C	-1.120765	-0.870642	-0.547417
H97	H	-1.131391	-0.854547	-0.652226
H98	H	-1.020960	-0.879704	-0.627015
H99	H	-1.112056	-0.935933	-0.631112
H100	H	-1.102848	-0.821191	-0.536610
H101	H	-1.193968	-0.877412	-0.540705
H102	H	-0.384051	-1.149068	-0.785283
C103	C	-0.706378	-0.594681	-0.494476
C104	C	-0.647333	-0.644635	-0.453229
H105	H	-0.752020	-0.620766	-0.526367
H106	H	-0.746513	-0.564689	-0.462368
H107	H	-0.660641	-0.564720	-0.522677
H108	H	-0.693069	-0.674594	-0.425024
H109	H	-0.607194	-0.674641	-0.485342
