data_functionalizedCrystal
_audit_creation_method	'MofGen! by Chris Wilmer'
_symmetry_space_group_name_H-M	'P1'
_symmetry_Int_Tables_number	1
_symmetry_cell_setting	triclinic
loop_
_symmetry_equiv_pos_as_xyz
  x,y,z
_cell_length_a	27.440280
_cell_length_b	27.440280
_cell_length_c	23.196401
_cell_angle_alpha	59.990290
_cell_angle_beta	90.000797
_cell_angle_gamma	59.994730
loop_
_atom_site_label
_atom_site_type_symbol
_atom_site_fract_x
_atom_site_fract_y
_atom_site_fract_z
Zr1	Zr	0.469465	0.533445	-0.075781
O2	O	0.391628	0.635145	-0.167856
O3	O	0.493329	0.431760	-0.047542
O4	O	0.493306	0.533456	-0.167841
O5	O	0.391666	0.533435	0.047322
O6	O	0.573508	0.533448	-0.167845
O7	O	0.391651	0.533449	-0.047557
O8	O	0.573548	0.351532	0.047348
O9	O	0.391625	0.715351	-0.167871
O10	O	0.563357	0.473573	-0.035517
O11	O	0.503514	0.473569	0.035292
O12	O	0.503487	0.593303	-0.106344
O13	O	0.443645	0.593299	-0.035535
Zr14	Zr	0.597401	0.533411	0.075534
Zr15	Zr	0.597378	0.533433	-0.075787
Zr16	Zr	0.469488	0.533423	0.075539
Zr17	Zr	0.469460	0.661364	-0.075806
Zr18	Zr	0.597406	0.405491	0.075558
O19	O	0.573538	0.635096	0.047295
O20	O	0.573504	0.635127	-0.167864
O21	O	0.391662	0.635114	0.047303
O22	O	0.675238	0.431711	0.167609
O23	O	0.675204	0.431742	-0.047550
O24	O	0.493362	0.431729	0.167616
O25	O	0.675200	0.533421	-0.047569
O26	O	0.573560	0.533400	0.167594
O27	O	0.493358	0.533407	0.167597
O28	O	0.675215	0.533407	0.047310
O29	O	0.493299	0.715341	-0.167876
O30	O	0.573567	0.351515	0.167628
O31	O	0.675241	0.351505	0.167624
O32	O	0.675222	0.351522	0.047344
O33	O	0.391644	0.715333	-0.047591
O34	O	0.493318	0.715324	-0.047596
O35	O	0.563379	0.473553	0.106097
O36	O	0.623222	0.473557	0.035287
O37	O	0.563352	0.593287	-0.035540
O38	O	0.503509	0.593283	0.035270
C39	C	0.533439	0.373420	-0.000093
C40	C	0.533441	0.319115	-0.000083
C41	C	0.489238	0.026629	-0.052420
C42	C	0.489238	-0.024388	-0.052427
O43	O	0.451665	-0.013186	-0.096903
N44	N	0.533431	-0.094104	-0.000151
C45	C	0.577631	-0.112803	0.052131
O46	O	0.615221	-0.176787	0.096595
C47	C	0.577633	-0.061787	0.052135
C48	C	0.533434	0.007930	-0.000140
C49	C	0.445043	0.096342	-0.104692
C50	C	0.445043	0.147355	-0.104683
C51	C	0.489238	0.128656	-0.052403
C52	C	0.533434	0.058943	-0.000132
C53	C	0.621835	-0.080486	0.104414
C54	C	0.621834	-0.029462	0.104413
C55	C	0.577634	0.040254	0.052138
C56	C	0.577629	0.091257	0.052156
N57	N	0.533436	0.160973	-0.000120
C58	C	0.489241	0.179672	-0.052400
C59	C	0.577623	-0.219938	0.052119
C60	C	0.577619	-0.270955	0.052118
C61	C	0.489226	-0.182536	-0.052442
C62	C	0.489229	-0.131519	-0.052438
C63	C	0.533430	-0.150222	-0.000158
C64	C	0.489243	0.286801	-0.052378
C65	C	0.489246	0.337815	-0.052363
C66	C	0.577640	0.249392	0.052194
C67	C	0.577636	0.198382	0.052182
C68	C	0.533435	0.217092	-0.000110
O69	O	0.615184	0.080106	0.096607
O70	O	0.451661	0.243656	-0.096861
C71	C	0.373434	0.533444	-0.000117
C72	C	0.319131	0.533449	-0.000114
C73	C	-0.017575	0.533420	-0.052394
C74	C	-0.068593	0.533415	-0.052395
O75	O	-0.094974	0.533396	-0.096833
N76	N	-0.094102	0.533409	-0.000126
C77	C	-0.068588	0.533401	0.052151
O78	O	-0.094970	0.533394	0.096610
C79	C	-0.017568	0.533400	0.052153
C80	C	0.007935	0.533414	-0.000123
C81	C	0.007929	0.533433	-0.104666
C82	C	0.058943	0.533439	-0.104666
C83	C	0.084453	0.533433	-0.052395
C84	C	0.058949	0.533420	-0.000123
C85	C	0.007948	0.533387	0.104432
C86	C	0.058971	0.533387	0.104431
C87	C	0.084474	0.533400	0.052155
C88	C	0.135472	0.533420	0.052148
N89	N	0.160982	0.533426	-0.000121
C90	C	0.135472	0.533433	-0.052392
C91	C	-0.175732	0.533399	0.052142
C92	C	-0.226753	0.533404	0.052137
C93	C	-0.226753	0.533418	-0.052408
C94	C	-0.175734	0.533418	-0.052405
C95	C	-0.150222	0.533406	-0.000127
C96	C	0.242605	0.533446	-0.052389
C97	C	0.293621	0.533455	-0.052386
C98	C	0.293619	0.533438	0.052161
C99	C	0.242605	0.533433	0.052156
C100	C	0.217100	0.533434	-0.000122
O101	O	0.161888	0.533436	0.096566
O102	O	0.161865	0.533430	-0.096838
C103	C	0.693433	0.533412	-0.000131
C104	C	0.747735	0.533407	-0.000133
C105	C	0.533403	0.533455	-0.189403
C106	C	0.533393	0.533465	-0.253643
C107	C	0.533427	0.693436	-0.000154
C108	C	0.533425	0.747741	-0.000164
C109	C	0.577579	0.533462	-0.283808
C110	C	0.577592	0.533448	-0.344154
C111	C	0.533411	0.533451	-0.374342
C112	C	0.489221	0.533450	-0.344167
C113	C	0.489213	0.533457	-0.283817
C114	C	0.479488	0.573611	-0.493729
C115	C	0.479497	0.573608	-0.554080
C116	C	0.533437	0.533426	-0.560478
C117	C	0.587373	0.493256	-0.506523
C118	C	0.587364	0.493263	-0.446174
C119	C	0.533415	0.533443	-0.439780
C120	C	0.577640	0.533407	-0.656077
C121	C	0.577654	0.533389	-0.716422
C122	C	0.489279	0.533398	-0.716438
C123	C	0.489270	0.533410	-0.656090
C124	C	0.533450	0.533417	-0.625915
C125	C	0.533463	0.533400	0.189155
C126	C	0.533473	0.533391	0.253395
C127	C	0.693439	0.373405	-0.000100
C128	C	0.747743	0.319094	-0.000092
C129	C	0.533469	0.373393	0.189186
C130	C	0.533481	0.319078	0.253436
C131	C	0.693468	0.373377	0.189179
C132	C	0.747783	0.319058	0.253426
C133	C	0.373398	0.693479	-0.189426
C134	C	0.319083	0.747798	-0.253674
C135	C	0.373427	0.693451	-0.000147
C136	C	0.319123	0.747761	-0.000155
C137	C	0.533397	0.693463	-0.189433
C138	C	0.533385	0.747777	-0.253683
C139	C	0.741996	0.293598	-0.037054
C140	C	0.793016	0.242575	-0.037061
C141	C	0.849782	0.217045	-0.000101
C142	C	0.855528	0.242547	0.036862
C143	C	0.804509	0.293572	0.036864
C144	C	0.564735	0.293563	0.320574
C145	C	0.564744	0.242536	0.380949
C146	C	0.533502	0.217022	0.374185
C147	C	0.502244	0.242542	0.307040
C148	C	0.502232	0.293571	0.246666
C149	C	0.804532	0.293551	0.246636
C150	C	0.855571	0.242519	0.306997
C151	C	0.849860	0.216991	0.374149
C152	C	0.793104	0.242503	0.380938
C153	C	0.742067	0.293537	0.320577
C154	C	0.262334	0.773311	-0.246883
C155	C	0.211295	0.824359	-0.307245
C156	C	0.217006	0.849890	-0.374396
C157	C	0.273762	0.824375	-0.381186
C158	C	0.324800	0.773331	-0.320825
C159	C	0.324870	0.773263	0.036801
C160	C	0.273850	0.824301	0.036791
C161	C	0.217084	0.849832	-0.000171
C162	C	0.211338	0.824328	-0.037131
C163	C	0.262357	0.773295	-0.037125
C164	C	0.564634	0.773276	-0.246896
C165	C	0.564634	0.824303	-0.307260
C166	C	0.533382	0.849835	-0.374410
C167	C	0.502133	0.824331	-0.381195
C168	C	0.502136	0.773301	-0.320832
H169	H	0.453249	0.394582	-0.094931
O170	O	0.380040	0.748483	0.072604
C171	C	0.473895	0.732906	0.065817
C172	C	0.411442	0.760977	0.025188
H173	H	0.499297	0.743010	0.027497
H174	H	0.499394	0.675076	0.107790
H175	H	0.469211	0.759896	0.092242
H176	H	0.416071	0.734039	-0.001281
H177	H	0.385966	0.818811	-0.016746
O178	O	0.446226	0.533544	-0.373478
C179	C	0.340998	0.592963	-0.427139
C180	C	0.389627	0.592939	-0.393950
H181	H	0.295227	0.640986	-0.443713
H182	H	0.343153	0.545014	-0.386891
H183	H	0.348621	0.592925	-0.475433
H184	H	0.382037	0.593001	-0.345663
H185	H	0.387459	0.640884	-0.434243
H186	H	0.613554	0.533466	-0.259240
O187	O	0.156149	0.849184	-0.072968
C188	C	0.049849	0.927840	-0.105750
C189	C	0.112315	0.899744	-0.065127
H190	H	0.014393	0.968733	-0.099437
H191	H	0.044432	0.883913	-0.083830
H192	H	0.044481	0.951708	-0.164105
H193	H	0.117727	0.875884	-0.006767
H194	H	0.117704	0.943695	-0.087105
H195	H	0.175545	0.891386	-0.000171
O196	O	0.446270	0.533559	-0.254508
C197	C	0.365244	0.593001	-0.221579
C198	C	0.413862	0.592960	-0.254771
H199	H	0.339020	0.641029	-0.221794
H200	H	0.386998	0.545058	-0.164911
H201	H	0.333694	0.592966	-0.253509
H202	H	0.445428	0.593020	-0.222897
H203	H	0.392068	0.640899	-0.311445
H204	H	-0.154971	0.533428	-0.094973
O205	O	0.910687	0.217629	0.072858
C206	C	1.004587	0.117967	0.165414
C207	C	0.942131	0.146105	0.124711
H208	H	1.030032	0.060134	0.207337
H209	H	0.999977	0.144893	0.191894
H210	H	1.030003	0.128040	0.127104
H211	H	0.916681	0.136039	0.162975
H212	H	0.946783	0.119178	0.098221
O213	O	0.471886	0.318444	0.181396
C214	C	0.444201	0.397011	0.055628
C215	C	0.478582	0.368920	0.129501
H216	H	0.449613	0.437816	0.013651
H217	H	0.394856	0.420951	0.049216
H218	H	0.462716	0.353019	0.049332
H219	H	0.460117	0.412874	0.135848
H220	H	0.527923	0.344961	0.135879
H221	H	-0.247519	0.533404	0.094698
H222	H	0.278540	0.845057	0.066890
H223	H	0.901779	0.221752	0.301457
O224	O	0.899396	0.167351	0.432834
C225	C	0.955530	0.052093	0.539726
C226	C	0.899399	0.108254	0.473307
H227	H	0.955558	0.004295	0.572460
H228	H	0.955553	0.072109	0.572544
H229	H	0.997062	0.038285	0.523317
H230	H	0.857837	0.122087	0.489653
H231	H	0.899429	0.088209	0.440506
H232	H	0.175443	0.891452	-0.423540
H233	H	0.809194	0.314328	0.191963
O234	O	0.533420	0.899429	-0.432971
C235	C	0.567743	0.972610	-0.479010
C236	C	0.567737	0.916456	-0.412636
H237	H	0.595495	0.986384	-0.462593
H238	H	0.519982	1.020437	-0.511795
H239	H	0.587790	0.952542	-0.511785
H240	H	0.547717	0.936459	-0.379806
H241	H	0.615509	0.868640	-0.379903
O242	O	0.620609	-0.338642	0.102937
C243	C	0.708260	-0.420942	0.206671
C244	C	0.659613	-0.344262	0.149152
H245	H	0.739800	-0.425510	0.244059
H246	H	0.734495	-0.447053	0.180941
H247	H	0.686468	-0.447033	0.237623
H248	H	0.681356	-0.318112	0.118180
H249	H	0.633383	-0.318202	0.174924
O250	O	0.471782	0.849237	-0.446480
C251	C	0.444103	0.927854	-0.572236
C252	C	0.478492	0.899715	-0.498344
H253	H	0.449526	0.968660	-0.614188
H254	H	0.394756	0.951805	-0.578652
H255	H	0.462601	0.883886	-0.578569
H256	H	0.460044	0.943645	-0.491960
H257	H	0.527835	0.875744	-0.491962
H258	H	0.695779	0.314384	-0.067160
O259	O	0.471721	0.748638	-0.327556
C260	C	0.409749	0.754046	-0.407277
C261	C	0.444159	0.782046	-0.399756
H262	H	0.387466	0.781034	-0.465646
H263	H	0.374231	0.764112	-0.380919
H264	H	0.442115	0.696221	-0.380823
H265	H	0.411838	0.839875	-0.426214
H266	H	0.479685	0.771927	-0.426095
O267	O	0.595167	0.217802	0.446115
C268	C	0.657141	0.223211	0.513036
C269	C	0.622724	0.251270	0.439197
H270	H	0.679419	0.250268	0.507468
H271	H	0.692663	0.165396	0.543168
H272	H	0.624780	0.233230	0.543140
H273	H	0.655039	0.241301	0.409034
H274	H	0.587193	0.309077	0.409118
O275	O	0.787640	0.217708	0.446210
C276	C	0.808996	0.202089	0.557255
C277	C	0.815235	0.230192	0.483360
H278	H	0.831292	0.212185	0.587306
H279	H	0.831366	0.144259	0.587407
H280	H	0.759667	0.229064	0.551736
H281	H	0.864549	0.203269	0.488814
H282	H	0.792828	0.288026	0.453235
H283	H	0.453252	0.302044	-0.094960
O284	O	0.686973	0.318317	0.327269
C285	C	0.617954	0.375934	0.371966
C286	C	0.680368	0.347892	0.364445
H287	H	0.612589	0.399865	0.402010
H288	H	0.612586	0.331975	0.402116
H289	H	0.582461	0.416768	0.317288
H290	H	0.715898	0.307069	0.419094
H291	H	0.685684	0.391889	0.334260
O292	O	0.810063	0.318437	0.072669
C293	C	0.788706	0.418025	0.065928
C294	C	0.782381	0.389960	0.025285
H295	H	0.766319	0.475857	0.027638
H296	H	0.838035	0.391061	0.092325
H297	H	0.766411	0.407936	0.107926
H298	H	0.804644	0.400042	-0.016746
H299	H	0.733043	0.416924	-0.001063
H300	H	0.613638	0.533382	-0.740981
H301	H	0.788326	0.221818	-0.067160
H302	H	0.435560	0.606325	-0.488523
O303	O	0.256671	0.748621	-0.181710
C304	C	0.189311	0.753999	-0.114761
C305	C	0.195645	0.782022	-0.188608
H306	H	0.139975	0.780982	-0.120313
H307	H	0.211608	0.764050	-0.084651
H308	H	0.211668	0.696175	-0.084644
H309	H	0.173285	0.839850	-0.218785
H310	H	0.173365	0.771918	-0.218665
O311	O	0.402159	0.215064	-0.155559
C312	C	0.356285	0.306215	-0.280062
C313	C	0.404885	0.229529	-0.222509
H314	H	0.358464	0.317931	-0.334205
H315	H	0.363860	0.339515	-0.271153
H316	H	0.310517	0.317961	-0.277433
H317	H	0.450673	0.217717	-0.225105
H318	H	0.397258	0.196271	-0.231437
O319	O	0.402011	0.114581	-0.155424
C320	C	0.296747	0.174649	-0.209650
C321	C	0.345442	0.153997	-0.152154
H322	H	0.250999	0.206533	-0.207035
H323	H	0.304240	0.126268	-0.200724
H324	H	0.298955	0.206477	-0.263797
H325	H	0.343263	0.122185	-0.097983
H326	H	0.337933	0.202406	-0.161142
H327	H	0.891321	0.175496	-0.000108
O328	O	0.595048	0.748533	-0.181724
C329	C	0.657019	0.753927	-0.114781
C330	C	0.622606	0.781996	-0.188627
H331	H	0.679299	0.780980	-0.120337
H332	H	0.692540	0.696112	-0.084653
H333	H	0.624655	0.763943	-0.084679
H334	H	0.654925	0.772030	-0.218787
H335	H	0.587078	0.839803	-0.218701
H336	H	0.453234	-0.074756	-0.095001
H337	H	0.590177	0.314332	0.326095
H338	H	0.613621	0.234177	0.094761
H339	H	0.165087	0.845125	-0.301703
O340	O	0.279199	0.849229	-0.446471
C341	C	0.228240	0.927895	-0.572227
C342	C	0.222000	0.899800	-0.498333
H343	H	0.182002	0.968797	-0.614177
H344	H	0.253640	0.883970	-0.578635
H345	H	0.253706	0.951751	-0.578571
H346	H	0.196521	0.875953	-0.491938
H347	H	0.196624	0.943751	-0.491958
O348	O	0.639711	0.454183	-0.393670
C349	C	0.698069	0.362003	-0.271025
C350	C	0.638753	0.406235	-0.330419
H351	H	0.697320	0.323217	-0.219876
H352	H	0.704211	0.396701	-0.263251
H353	H	0.736612	0.333314	-0.285996
H354	H	0.600175	0.434931	-0.315493
H355	H	0.632664	0.371501	-0.338181
O356	O	0.446313	-0.164494	-0.103148
C357	C	0.407032	-0.203918	-0.149347
C358	C	0.455697	-0.224441	-0.091928
H359	H	0.414595	-0.252374	-0.140287
H360	H	0.409146	-0.172090	-0.203562
H361	H	0.361295	-0.172089	-0.146672
H362	H	0.501457	-0.256295	-0.094537
H363	H	0.453530	-0.256235	-0.037738
H364	H	-0.247532	0.533422	-0.094970
H365	H	-0.154965	0.533395	0.094712
H366	H	0.613616	-0.235177	0.094698
H367	H	0.257670	0.752533	-0.067217
O368	O	-0.016725	0.533337	0.155288
C369	C	-0.011326	0.533342	0.258970
C370	C	0.016681	0.533386	0.201422
H371	H	0.015663	0.533396	0.296275
H372	H	-0.011191	0.485344	0.290014
H373	H	-0.059216	0.581309	0.233188
H374	H	0.064581	0.485451	0.227145
H375	H	0.016499	0.581416	0.170383
O376	O	0.318321	0.533565	0.102868
C377	C	0.304227	0.592946	0.157092
C378	C	0.276181	0.592895	0.099628
H379	H	0.270166	0.640902	0.154501
H380	H	0.345052	0.592999	0.148105
H381	H	0.318220	0.544940	0.211249
H382	H	0.262151	0.640893	0.045447
H383	H	0.235381	0.592807	0.108677
H384	H	0.371006	0.752559	-0.326362
H385	H	0.657827	-0.137245	0.146982
H386	H	0.657829	-0.044699	0.146987
H387	H	0.590080	0.845063	-0.301721
O388	O	0.533499	0.167513	0.432887
C389	C	0.508648	0.136293	0.539780
C390	C	0.508624	0.192417	0.473336
H391	H	0.488527	0.156411	0.572494
H392	H	0.556422	0.088509	0.572605
H393	H	0.480972	0.122422	0.523403
H394	H	0.536271	0.206346	0.489651
H395	H	0.460833	0.240165	0.440527
O396	O	0.620622	0.130690	0.103002
C397	C	0.708268	0.048381	0.206743
C398	C	0.659627	0.125063	0.149224
H399	H	0.739809	0.043807	0.244137
H400	H	0.734505	0.022270	0.181014
H401	H	0.686472	0.022294	0.237688
H402	H	0.681374	0.151209	0.118259
H403	H	0.633395	0.151123	0.174996
H404	H	0.476807	0.221760	0.301543
H405	H	0.221845	0.533446	-0.094957
O406	O	0.318435	0.533343	-0.103111
C407	C	0.363710	0.473976	-0.157353
C408	C	0.335636	0.474012	-0.099871
H409	H	0.377613	0.426019	-0.154763
H410	H	0.404583	0.473936	-0.148389
H411	H	0.329673	0.521982	-0.211503
H412	H	0.369628	0.426014	-0.045697
H413	H	0.294752	0.474088	-0.108897
H414	H	0.221835	0.533432	0.094718
H415	H	-0.012835	0.533436	-0.147232
O416	O	0.083657	0.533414	-0.155477
C417	C	0.078236	0.533460	-0.259189
C418	C	0.050198	0.533476	-0.201677
H419	H	0.051189	0.533526	-0.296566
H420	H	0.126109	0.485467	-0.233452
H421	H	0.078145	0.581432	-0.290156
H422	H	0.050245	0.485538	-0.170692
H423	H	0.002340	0.581502	-0.227458
O424	O	0.083760	0.533472	0.155120
C425	C	0.111619	0.592891	0.180656
C426	C	0.083548	0.592869	0.123183
H427	H	0.111446	0.640916	0.154858
H428	H	0.159519	0.544945	0.211642
H429	H	0.084634	0.592849	0.218027
H430	H	0.110486	0.592935	0.085765
H431	H	0.035642	0.640811	0.092250
H432	H	0.613574	0.533445	-0.368719
H433	H	0.631296	0.460536	-0.511729
H434	H	0.613617	0.533411	-0.631506
O435	O	0.446438	0.533308	-0.745762
C436	C	0.424860	0.473880	-0.778713
C437	C	0.473438	0.473909	-0.745504
H438	H	0.446671	0.425854	-0.778502
H439	H	0.398670	0.521825	-0.835382
H440	H	0.393268	0.473920	-0.746794
H441	H	0.505071	0.473844	-0.777368
H442	H	0.499584	0.425968	-0.688830
H443	H	0.435579	0.606320	-0.598008
O444	O	0.446285	0.533451	-0.626896
C445	C	0.358651	0.533419	-0.633258
C446	C	0.407289	0.533390	-0.666402
H447	H	0.327119	0.533355	-0.665176
H448	H	0.332406	0.581416	-0.633421
H449	H	0.380452	0.485451	-0.576602
H450	H	0.385538	0.581325	-0.723071
H451	H	0.433530	0.485361	-0.666185
