data_functionalizedCrystal
_audit_creation_method	'MofGen! by Chris Wilmer'
_symmetry_space_group_name_H-M	'P1'
_symmetry_Int_Tables_number	1
_symmetry_cell_setting	triclinic
loop_
_symmetry_equiv_pos_as_xyz
  x,y,z
_cell_length_a	19.805407
_cell_length_b	18.050590
_cell_length_c	19.805399
_cell_angle_alpha	89.972574
_cell_angle_beta	89.982197
_cell_angle_gamma	90.015869
loop_
_atom_site_label
_atom_site_type_symbol
_atom_site_fract_x
_atom_site_fract_y
_atom_site_fract_z
Zn1	Zn	1.034773	-0.295730	-0.382688
Zn2	Zn	1.368106	0.037604	-0.049355
Zn3	Zn	1.701439	0.370937	0.283978
Zn4	Zn	1.034703	-0.419922	-0.269500
Zn5	Zn	1.368036	-0.086589	0.063833
Zn6	Zn	1.701370	0.246745	0.397166
Zn7	Zn	0.921587	-0.295744	-0.269516
Zn8	Zn	1.254921	0.037589	0.063817
Zn9	Zn	1.588254	0.370922	0.397150
Zn10	Zn	0.921566	-0.419877	-0.382651
Zn11	Zn	1.254900	-0.086543	-0.049317
Zn12	Zn	1.588233	0.246790	0.284016
O13	O	0.978157	-0.357818	-0.326089
O14	O	1.311491	-0.024485	0.007244
O15	O	1.644824	0.308848	0.340578
O16	O	1.129480	-0.312217	-0.367683
O17	O	1.462813	0.021116	-0.034350
O18	O	1.796147	0.354450	0.298984
O19	O	1.019678	-0.403475	-0.174786
O20	O	1.353011	-0.070141	0.158547
O21	O	1.686344	0.263192	0.491881
O22	O	0.936639	-0.191818	-0.284551
O23	O	1.269973	0.141515	0.048782
O24	O	1.603306	0.474849	0.382115
O25	O	1.129429	-0.403460	-0.284524
O26	O	1.462762	-0.070127	0.048809
O27	O	1.796095	0.263206	0.382143
O28	O	1.019796	-0.191807	-0.367698
O29	O	1.353130	0.141526	-0.034365
O30	O	1.686463	0.474859	0.298968
O31	O	0.936572	-0.312242	-0.174798
O32	O	1.269905	0.021091	0.158536
O33	O	1.603239	0.354425	0.491869
O34	O	0.826868	-0.312198	-0.284515
O35	O	1.160201	0.021135	0.048818
O36	O	1.493535	0.354469	0.382152
O37	O	0.936604	-0.403383	-0.477372
O38	O	1.269937	-0.070050	-0.144039
O39	O	1.603270	0.263283	0.189294
O40	O	0.826853	-0.403397	-0.367634
O41	O	1.160186	-0.070064	-0.034301
O42	O	1.493519	0.263269	0.299033
O43	O	1.019776	-0.312173	-0.477400
O44	O	1.353109	0.021160	-0.144067
O45	O	1.686443	0.354494	0.189267
O46	O	1.019657	-0.523841	-0.284488
O47	O	1.352991	-0.190507	0.048846
O48	O	1.686324	0.142826	0.382179
O49	O	0.936536	-0.523807	-0.367619
O50	O	1.269870	-0.190474	-0.034285
O51	O	1.603203	0.142859	0.299048
C52	C	0.802301	-0.357795	-0.326073
C53	C	1.135635	-0.024462	0.007261
C54	C	1.468968	0.308872	0.340594
C55	C	0.727069	-0.357803	-0.326082
C56	C	1.060403	-0.024470	0.007252
C57	C	1.393736	0.308864	0.340585
C58	C	0.691752	-0.310377	-0.369448
C59	C	1.025086	0.022957	-0.036115
C60	C	1.358419	0.356290	0.297219
C61	C	0.621064	-0.310380	-0.369451
C62	C	0.954397	0.022953	-0.036117
C63	C	1.287731	0.356286	0.297216
C64	C	0.585694	-0.357815	-0.326090
C65	C	0.919027	-0.024482	0.007244
C66	C	1.252360	0.308852	0.340577
C67	C	0.621016	-0.405244	-0.282718
C68	C	0.954349	-0.071910	0.050615
C69	C	1.287682	0.261423	0.383948
C70	C	0.691703	-0.405235	-0.282713
C71	C	1.025036	-0.071902	0.050620
C72	C	1.358369	0.261431	0.383954
C73	C	0.335942	-0.405277	-0.282739
C74	C	0.669276	-0.071944	0.050594
C75	C	1.002609	0.261390	0.383928
C76	C	0.265250	-0.405283	-0.282749
C77	C	0.598583	-0.071950	0.050584
C78	C	0.931917	0.261384	0.383917
C79	C	0.265304	-0.310422	-0.369477
C80	C	0.598637	0.022911	-0.036144
C81	C	0.931970	0.356245	0.297190
C82	C	0.335991	-0.310414	-0.369472
C83	C	0.669324	0.022920	-0.036138
C84	C	1.002657	0.356253	0.297195
C85	C	0.371306	-0.357839	-0.326098
C86	C	0.704640	-0.024506	0.007235
C87	C	1.037973	0.308827	0.340569
C88	C	0.447955	-0.357833	-0.326095
C89	C	0.781288	-0.024500	0.007239
C90	C	1.114621	0.308833	0.340572
C91	C	0.509047	-0.357825	-0.326096
C92	C	0.842380	-0.024492	0.007237
C93	C	1.175713	0.308842	0.340571
C94	C	0.978105	-0.550770	-0.326062
C95	C	1.311439	-0.217437	0.007271
C96	C	1.644772	0.115896	0.340605
C97	C	0.978145	-0.633316	-0.326073
C98	C	1.311478	-0.299983	0.007260
C99	C	1.644812	0.033351	0.340594
C100	C	1.023440	-0.832758	-0.280930
C101	C	1.356773	-0.499425	0.052404
C102	C	1.690107	-0.166091	0.385737
C103	C	1.039973	-0.882093	-0.342704
C104	C	1.373306	-0.548759	-0.009371
C105	C	1.706639	-0.215426	0.323963
C106	C	0.978183	-0.784446	-0.326100
C107	C	1.311517	-0.451113	0.007233
C108	C	1.644850	-0.117780	0.340567
C109	C	0.961720	-0.882194	-0.264353
C110	C	1.295053	-0.548860	0.068980
C111	C	1.628386	-0.215527	0.402313
C112	C	0.978222	-0.930432	-0.326121
C113	C	1.311555	-0.597098	0.007213
C114	C	1.644888	-0.263765	0.340546
C115	C	0.994748	-0.832694	-0.387907
C116	C	1.328081	-0.499360	-0.054574
C117	C	1.661414	-0.166027	0.278760
C118	C	0.916466	-0.832791	-0.309515
C119	C	1.249799	-0.499457	0.023819
C120	C	1.583132	-0.166124	0.357152
C121	C	0.932975	-0.882103	-0.371332
C122	C	1.266308	-0.548770	-0.037998
C123	C	1.599642	-0.215436	0.295335
C124	C	0.978163	-0.700348	-0.326087
C125	C	1.311496	-0.367015	0.007246
C126	C	1.644830	-0.033682	0.340579
C127	C	0.978242	-1.014528	-0.326141
C128	C	1.311575	-0.681195	0.007193
C129	C	1.644909	-0.347861	0.340526
C130	C	1.154700	-0.357842	-0.326106
C131	C	1.488033	-0.024509	0.007227
C132	C	1.821367	0.308825	0.340561
C133	C	1.229932	-0.357852	-0.326113
C134	C	1.563265	-0.024519	0.007220
C135	C	1.896599	0.308814	0.340554
C136	C	0.978195	-0.357771	-0.502632
C137	C	1.311529	-0.024438	-0.169298
C138	C	1.644862	0.308895	0.164035
C139	C	0.978211	-0.357752	-0.577864
C140	C	1.311545	-0.024418	-0.244530
C141	C	1.644878	0.308915	0.088803
C142	C	0.978228	-0.164113	-0.326131
C143	C	1.311561	0.169221	0.007202
C144	C	1.644895	0.502554	0.340536
C145	C	0.978258	-0.081567	-0.326149
C146	C	1.311591	0.251766	0.007185
C147	C	1.644925	0.585100	0.340518
C148	C	1.021520	-0.310256	-0.613223
C149	C	1.354853	0.023077	-0.279890
C150	C	1.688187	0.356411	0.053443
C151	C	1.021527	-0.310235	-0.683912
C152	C	1.354860	0.023099	-0.350579
C153	C	1.688194	0.356432	-0.017245
C154	C	0.978228	-0.357713	-0.719239
C155	C	1.311562	-0.024379	-0.385906
C156	C	1.644895	0.308954	-0.052573
C157	C	0.934915	-0.405210	-0.683875
C158	C	1.268248	-0.071877	-0.350542
C159	C	1.601581	0.261456	-0.017208
C160	C	0.934905	-0.405228	-0.613188
C161	C	1.268238	-0.071894	-0.279854
C162	C	1.601572	0.261439	0.053479
C163	C	0.934953	-0.405141	-0.968948
C164	C	1.268286	-0.071808	-0.635615
C165	C	1.601620	0.261526	-0.302282
C166	C	0.934968	-0.405122	-1.039640
C167	C	1.268301	-0.071788	-0.706307
C168	C	1.601634	0.261545	-0.372974
C169	C	1.021575	-0.310148	-1.039673
C170	C	1.354908	0.023185	-0.706339
C171	C	1.688242	0.356519	-0.373006
C172	C	1.021565	-0.310165	-0.968985
C173	C	1.354899	0.023168	-0.635652
C174	C	1.688232	0.356501	-0.302319
C175	C	0.978250	-0.357660	-0.933627
C176	C	1.311583	-0.024326	-0.600294
C177	C	1.644916	0.309007	-0.266960
C178	C	0.978242	-0.357682	-0.856979
C179	C	1.311575	-0.024348	-0.523645
C180	C	1.644908	0.308985	-0.190312
C181	C	0.978239	-0.357695	-0.795887
C182	C	1.311572	-0.024362	-0.462553
C183	C	1.644906	0.308971	-0.129220
C184	C	0.978158	-0.357811	-0.150233
C185	C	1.311492	-0.024478	0.183100
C186	C	1.644825	0.308855	0.516434
C187	C	0.978273	-0.357622	-0.075001
C188	C	1.311607	-0.024289	0.258332
C189	C	1.644940	0.309045	0.591665
H190	H	0.592211	-0.443862	-0.247410
H191	H	0.925545	-0.110529	0.085924
H192	H	1.258878	0.222805	0.419257
H193	H	1.061725	-0.811091	-0.242770
H194	H	1.395059	-0.477757	0.090564
H195	H	1.728392	-0.144424	0.423897
H196	H	0.899692	-0.443825	-0.940168
H197	H	1.233026	-0.110492	-0.606835
H198	H	1.566359	0.222842	-0.273501
H199	H	0.364688	-0.443894	-0.247422
H200	H	0.698021	-0.110561	0.085911
H201	H	1.031354	0.222772	0.419244
Br202	Br	0.938484	-0.918436	-0.177307
Br203	Br	1.271817	-0.585103	0.156026
Br204	Br	1.605151	-0.251769	0.489359
Br205	Br	1.126995	-0.918171	-0.366122
Br206	Br	1.460328	-0.584837	-0.032789
Br207	Br	1.793661	-0.251504	0.300544
Br208	Br	1.080361	-0.245689	-1.087663
Br209	Br	1.413695	0.087645	-0.754329
Br210	Br	1.747028	0.420978	-0.420996
Br211	Br	0.217372	-0.246057	-0.428342
Br212	Br	0.550705	0.087276	-0.095009
Br213	Br	0.884038	0.420610	0.238325
Br214	Br	0.739634	-0.469601	-0.223855
Br215	Br	1.072967	-0.136268	0.109479
Br216	Br	1.406300	0.197066	0.442812
Br217	Br	1.018094	-0.796614	-0.474979
Br218	Br	1.351428	-0.463281	-0.141646
Br219	Br	1.684761	-0.129948	0.191687
Br220	Br	0.217248	-0.469663	-0.223898
Br221	Br	0.550581	-0.136330	0.109435
Br222	Br	0.883914	0.197004	0.442769
Br223	Br	0.869211	-0.917992	-0.435084
Br224	Br	1.202544	-0.584658	-0.101751
Br225	Br	1.535878	-0.251325	0.231583
H226	H	0.864271	-0.811116	-0.295455
H227	H	1.197604	-0.477783	0.037878
H228	H	1.530938	-0.144450	0.371211
H229	H	1.056781	-0.271596	-0.584465
H230	H	1.390115	0.061737	-0.251132
H231	H	1.723448	0.395071	0.082202
Br232	Br	1.080337	-0.245808	-0.731898
Br233	Br	1.413671	0.087525	-0.398564
Br234	Br	1.747004	0.420859	-0.065231
H235	H	0.720546	-0.271752	-0.404760
H236	H	1.053879	0.061582	-0.071426
H237	H	1.387213	0.394915	0.261907
H238	H	1.056826	-0.271506	-0.940225
H239	H	1.390159	0.061827	-0.606892
H240	H	1.723493	0.395161	-0.273559
H241	H	0.899658	-0.443865	-0.712644
H242	H	1.232991	-0.110532	-0.379311
H243	H	1.566324	0.222801	-0.045977
Br244	Br	0.876202	-0.469562	-1.087585
Br245	Br	1.209535	-0.136229	-0.754252
Br246	Br	1.542868	0.197105	-0.420918
Br247	Br	0.383990	-0.246041	-0.428325
Br248	Br	0.717323	0.087292	-0.094992
Br249	Br	1.050657	0.420625	0.238341
Br250	Br	0.573136	-0.246014	-0.428309
Br251	Br	0.906470	0.087320	-0.094975
Br252	Br	1.239803	0.420653	0.238358
Br253	Br	0.876122	-0.469684	-0.565199
Br254	Br	1.209456	-0.136350	-0.231865
Br255	Br	1.542789	0.196983	0.101468
