data_functionalizedCrystal
_audit_creation_method	'MofGen! by Chris Wilmer'
_symmetry_space_group_name_H-M	'P1'
_symmetry_Int_Tables_number	1
_symmetry_cell_setting	triclinic
loop_
_symmetry_equiv_pos_as_xyz
  x,y,z
_cell_length_a	27.440280
_cell_length_b	14.446369
_cell_length_c	14.446369
_cell_angle_alpha	60.000250
_cell_angle_beta	90.005311
_cell_angle_gamma	59.999534
loop_
_atom_site_label
_atom_site_type_symbol
_atom_site_fract_x
_atom_site_fract_y
_atom_site_fract_z
Zr1	Zr	0.469506	1.013131	-0.121408
O2	O	0.391688	1.206259	-0.269237
O3	O	0.493361	0.820009	-0.076085
O4	O	0.493362	1.013117	-0.269204
O5	O	0.391687	1.013159	0.076211
O6	O	0.573565	1.013099	-0.269185
O7	O	0.391687	1.013150	-0.076118
O8	O	0.573563	0.667663	0.076270
O9	O	0.391689	1.358595	-0.269244
O10	O	0.563390	0.899427	-0.056748
O11	O	0.503535	0.899446	0.056919
O12	O	0.503537	1.126807	-0.170454
O13	O	0.443682	1.126826	-0.056787
Zr14	Zr	0.597420	1.013115	0.121569
Zr15	Zr	0.597420	1.013102	-0.121378
Zr16	Zr	0.469506	1.013144	0.121539
Zr17	Zr	0.469507	1.256088	-0.121419
Zr18	Zr	0.597419	0.770157	0.121580
O19	O	0.573566	1.206237	0.076246
O20	O	0.573566	1.206218	-0.269194
O21	O	0.391688	1.206278	0.076202
O22	O	0.675238	0.819987	0.269398
O23	O	0.675239	0.819968	-0.076041
O24	O	0.493361	0.820028	0.269354
O25	O	0.675239	1.013087	-0.076050
O26	O	0.573564	1.013129	0.269365
O27	O	0.493362	1.013147	0.269346
O28	O	0.675239	1.013096	0.076279
O29	O	0.493364	1.358572	-0.269220
O30	O	0.573563	0.667674	0.269381
O31	O	0.675238	0.667651	0.269405
O32	O	0.675238	0.667641	0.076294
O33	O	0.391689	1.358605	-0.076134
O34	O	0.493364	1.358583	-0.076109
O35	O	0.563390	0.899439	0.170615
O36	O	0.623244	0.899420	0.056948
O37	O	0.563391	1.126800	-0.056758
O38	O	0.503537	1.126819	0.056909
C39	C	0.533462	0.709220	0.000094
C40	C	0.533461	0.606078	0.000099
C41	C	0.495892	0.459080	0.072117
C42	C	0.495688	0.566700	0.071826
C43	C	0.505923	0.655073	-0.123442
C44	C	0.505641	0.547840	-0.123068
C45	C	0.598596	0.372608	0.050559
C46	C	0.598500	0.478759	0.053080
C47	C	0.373462	1.013159	0.000042
C48	C	0.319159	1.013171	0.000029
C49	C	0.013704	0.894411	0.059465
C50	C	-0.037314	0.894404	0.059475
O51	O	-0.037131	0.793463	0.109987
N52	N	-0.094074	1.013093	0.000121
C53	C	-0.099814	1.131797	-0.059238
O54	O	-0.152777	1.232750	-0.109722
C55	C	-0.048796	1.131802	-0.059241
C56	C	0.007963	1.013106	0.000108
C57	C	0.070461	0.775725	0.118810
C58	C	0.121475	0.775732	0.118798
C59	C	0.115734	0.894427	0.059441
C60	C	0.058978	1.013114	0.000096
C61	C	-0.054537	1.250505	-0.118593
C62	C	-0.003513	1.250500	-0.118590
C63	C	0.053246	1.131804	-0.059241
C64	C	0.104251	1.131816	-0.059273
N65	N	0.161010	1.013127	0.000081
C66	C	0.166752	0.894433	0.059438
C67	C	-0.206953	1.131775	-0.059226
C68	C	-0.257970	1.131771	-0.059231
C69	C	-0.195466	0.894378	0.059484
C70	C	-0.144449	0.894384	0.059482
C71	C	-0.150193	1.013086	0.000128
C72	C	0.273884	0.894458	0.059408
C73	C	0.324901	0.894476	0.059387
C74	C	0.262393	1.131868	-0.059323
C75	C	0.211381	1.131851	-0.059308
C76	C	0.217130	1.013135	0.000066
O77	O	0.104114	1.232706	-0.109756
O78	O	0.219717	0.793496	0.109926
C79	C	0.693464	1.013087	0.000119
C80	C	0.747767	1.013075	0.000131
C81	C	0.533464	1.013106	-0.303809
C82	C	0.533464	1.013101	-0.406946
C83	C	0.533465	1.317026	0.000066
C84	C	0.533465	1.420168	0.000062
C85	C	0.571401	0.869707	-0.481913
C86	C	0.571237	0.869610	-0.374584
C87	C	0.468428	1.084343	-0.481525
C88	C	0.468635	1.083433	-0.588384
C89	C	0.560037	1.086365	-0.589936
C90	C	0.561353	1.083663	-0.481263
C91	C	0.533463	1.013140	0.303970
C92	C	0.533463	1.013145	0.407107
C93	C	0.693463	0.709184	0.000132
C94	C	0.747765	0.606030	0.000150
C95	C	0.533462	0.709236	0.303984
C96	C	0.533461	0.606100	0.407126
C97	C	0.693463	0.709201	0.304022
C98	C	0.747765	0.606052	0.407177
C99	C	0.373464	1.317045	-0.303861
C100	C	0.319161	1.420194	-0.407016
C101	C	0.373464	1.317062	0.000028
C102	C	0.319161	1.420216	0.000011
C103	C	0.533465	1.317010	-0.303823
C104	C	0.533466	1.420146	-0.406965
C105	C	0.742023	0.557591	-0.059200
C106	C	0.793041	0.460681	-0.059206
C107	C	0.849801	0.412203	0.000145
C108	C	0.855542	0.460652	0.059497
C109	C	0.804525	0.557567	0.059496
C110	C	0.804515	0.557602	0.396286
C111	C	0.855543	0.460697	0.493202
C112	C	0.849819	0.412237	0.601007
C113	C	0.793064	0.460696	0.611895
C114	C	0.742037	0.557606	0.514981
C115	C	0.262412	1.468655	-0.396126
C116	C	0.211384	1.565591	-0.493041
C117	C	0.217107	1.614056	-0.600846
C118	C	0.273863	1.565591	-0.611734
C119	C	0.324890	1.468664	-0.514820
C120	C	0.324904	1.468665	0.059350
C121	C	0.273886	1.565602	0.059330
C122	C	0.217126	1.614083	-0.000025
C123	C	0.211385	1.565630	-0.059372
C124	C	0.262402	1.468701	-0.059357
C125	C	0.495528	0.459794	0.482106
C126	C	0.495689	0.566715	0.374772
C127	C	0.598498	0.479233	0.481701
C128	C	0.598294	0.371858	0.588564
C129	C	0.506894	0.546851	0.590121
C130	C	0.505574	0.655321	0.481444
H131	H	0.447646	0.655510	0.036817
H132	H	0.448133	0.494851	0.037401
O133	O	0.150161	1.617933	-0.123386
H134	H	0.144964	1.536594	-0.089095
H135	H	0.809186	0.597045	0.308515
O136	O	0.440047	1.018816	-0.413182
H137	H	0.394079	1.070066	-0.466827
O138	O	0.916754	0.408425	0.481447
H139	H	0.912156	0.458390	0.390200
H140	H	0.695811	0.597060	-0.107544
H141	H	0.891373	0.333326	0.679912
H142	H	-0.008197	1.347165	-0.166909
H143	H	0.278572	1.605036	0.107661
H144	H	0.167687	0.679077	0.167121
O145	O	0.076664	0.647689	0.182823
H146	H	0.101452	0.590764	0.274031
H147	H	0.257740	1.429200	-0.308354
H148	H	0.788412	0.421225	0.699683
O149	O	0.162066	1.718614	-0.705367
H150	H	0.135122	1.681427	-0.705306
O151	O	0.810727	0.609784	0.123532
H152	H	0.765719	0.685324	0.113568
O153	O	0.442966	0.777022	-0.176956
H154	H	0.443460	0.854933	-0.180183
H155	H	0.371116	1.429199	0.107691
O156	O	0.280033	1.617859	-0.728012
H157	H	0.235014	1.693386	-0.793563
O158	O	0.680828	0.609833	0.526732
H159	H	0.685427	0.559832	0.617980
H160	H	0.257718	1.429257	-0.107675
H161	H	0.514122	0.529242	0.320993
H162	H	0.447797	0.656073	0.320489
H163	H	-0.304182	1.228425	-0.107574
H164	H	0.626722	0.346624	-0.001673
O165	O	0.442158	0.601742	-0.176606
H166	H	0.411949	0.703999	-0.202514
H167	H	0.514160	0.529991	0.162797
H168	H	0.619073	0.439158	0.144094
H169	H	0.371096	1.429207	-0.523700
H170	H	0.531240	0.525863	-0.179673
O171	O	0.150173	1.617831	-0.481286
H172	H	0.154771	1.567817	-0.390039
O173	O	0.429157	1.222822	-0.692500
H174	H	0.383007	1.269007	-0.689752
O175	O	0.162101	1.718592	0.000000
H176	H	0.175636	1.744108	0.051259
H177	H	0.447514	0.497044	0.479758
H178	H	0.513789	0.370124	0.481079
H179	H	0.619921	0.440667	0.430101
O180	O	0.543333	0.514021	0.693716
H181	H	0.524302	0.603932	0.690994
O182	O	0.440505	1.016332	-0.588117
H183	H	0.473332	0.929530	-0.586867
O184	O	0.626465	0.251635	0.588220
H185	H	0.640104	0.270586	0.511876
O186	O	0.540418	0.693223	-0.197652
H187	H	0.577645	0.677633	-0.147148
H188	H	0.552807	0.813366	-0.320800
H189	H	0.371116	0.797815	0.107719
O190	O	0.637778	0.332146	0.692671
H191	H	0.656938	0.389641	0.666537
O192	O	0.637577	0.508681	0.517766
H193	H	0.610995	0.614307	0.482834
H194	H	0.609269	1.031707	-0.429832
H195	H	-0.211638	1.228443	-0.107565
O196	O	0.444413	0.599299	0.595548
H197	H	0.431602	0.535669	0.600417
O198	O	0.442108	0.775209	0.413322
H199	H	0.430469	0.799653	0.326891
O200	O	0.538379	0.697855	0.515266
H201	H	0.535803	0.778849	0.437952
H202	H	0.788355	0.421246	-0.107537
H203	H	0.628853	0.500252	0.006059
O204	O	0.520218	0.341370	0.192919
H205	H	0.559347	0.253870	0.202898
O206	O	0.528551	1.222341	-0.515109
H207	H	0.491691	1.243234	-0.479337
O208	O	0.904826	0.307662	0.000153
H209	H	0.891291	0.282121	-0.051081
H210	H	0.438933	1.189847	-0.508767
H211	H	0.621604	0.278861	0.140131
H212	H	-0.098236	0.797730	0.107819
O213	O	0.280087	0.766419	0.123430
H214	H	0.328129	0.683901	0.164678
O215	O	0.916762	0.408359	0.123515
H216	H	0.941494	0.301453	0.189108
O217	O	-0.189276	0.766349	0.123520
H218	H	-0.234289	0.786297	0.113557
H219	H	-0.100745	1.347160	-0.166920
O220	O	0.150159	1.259868	-0.123320
H221	H	0.154740	1.342404	-0.164592
H222	H	0.619127	0.813716	-0.320297
O223	O	0.256244	1.259844	-0.123428
H224	H	0.278006	1.265580	-0.063581
O225	O	0.635003	0.795103	-0.478790
H226	H	0.640256	0.859453	-0.556305
H227	H	0.607205	1.040456	-0.594038
O228	O	0.547217	0.795502	-0.480540
H229	H	0.533130	0.762859	-0.404938
O230	O	0.523621	1.226327	-0.693561
H231	H	0.486777	1.243720	-0.746942
