data_functionalizedCrystal
_audit_creation_method	'MofGen! by Chris Wilmer'
_symmetry_space_group_name_H-M	'P1'
_symmetry_Int_Tables_number	1
_symmetry_cell_setting	triclinic
loop_
_symmetry_equiv_pos_as_xyz
  x,y,z
_cell_length_a	21.395364
_cell_length_b	21.395362
_cell_length_c	21.395355
_cell_angle_alpha	90.021787
_cell_angle_beta	89.975448
_cell_angle_gamma	89.949410
loop_
_atom_site_label
_atom_site_type_symbol
_atom_site_fract_x
_atom_site_fract_y
_atom_site_fract_z
Zn1	Zn	0.957838	0.249261	-0.354247
Zn2	Zn	1.457838	0.749261	0.145753
Zn3	Zn	0.957731	0.354021	-0.249464
Zn4	Zn	1.457731	0.854021	0.250536
Zn5	Zn	0.853053	0.249289	-0.249484
Zn6	Zn	1.353053	0.749289	0.250516
Zn7	Zn	0.853013	0.354032	-0.354204
Zn8	Zn	1.353013	0.854032	0.145796
O9	O	0.905409	0.301651	-0.301850
O10	O	1.405409	0.801651	0.198150
O11	O	1.045502	0.263142	-0.340357
O12	O	1.545502	0.763142	0.159643
O13	O	0.943817	0.340135	-0.161789
O14	O	1.443817	0.840135	0.338211
O15	O	0.867014	0.161607	-0.263408
O16	O	1.367014	0.661607	0.236592
O17	O	1.045423	0.340108	-0.263373
O18	O	1.545423	0.840108	0.236627
O19	O	0.943999	0.161587	-0.340377
O20	O	1.443999	0.661587	0.159623
O21	O	0.866911	0.263188	-0.161803
O22	O	1.366911	0.763188	0.338197
O23	O	0.765370	0.263199	-0.263366
O24	O	1.265370	0.763199	0.236634
O25	O	0.866946	0.340127	-0.441888
O26	O	1.366946	0.840127	0.058112
O27	O	0.765340	0.340154	-0.340303
O28	O	1.265340	0.840154	0.159697
O29	O	0.943960	0.263152	-0.441919
O30	O	1.443960	0.763152	0.058081
O31	O	0.943779	0.441700	-0.263331
O32	O	1.443779	0.941700	0.236669
O33	O	0.866843	0.441709	-0.340283
O34	O	1.366843	0.941709	0.159717
C35	C	0.742621	0.301681	-0.301832
C36	C	1.242621	0.801681	0.198168
C37	C	0.672980	0.301709	-0.301839
C38	C	1.172980	0.801709	0.198161
C39	C	0.905312	0.464438	-0.301814
C40	C	1.405312	0.964438	0.198186
C41	C	0.905328	0.534080	-0.301820
C42	C	1.405328	1.034080	0.198180
C43	C	0.640330	0.261698	-0.341987
C44	C	1.140330	0.761698	0.158013
C45	C	0.574894	0.261682	-0.341989
C46	C	1.074894	0.761682	0.158011
C47	C	0.542111	0.301687	-0.301851
C48	C	1.042111	0.801687	0.198149
C49	C	0.574769	0.341701	-0.261696
C50	C	1.074769	0.841701	0.238304
C51	C	0.640204	0.341712	-0.261690
C52	C	1.140204	0.841712	0.238310
C53	C	0.438382	0.358112	-0.296810
C54	C	0.938382	0.858112	0.203190
C55	C	0.372949	0.358102	-0.296820
C56	C	0.872949	0.858102	0.203180
C57	C	0.340291	0.301653	-0.301865
C58	C	0.840291	0.801653	0.198135
C59	C	0.373073	0.245212	-0.306913
C60	C	0.873073	0.745212	0.193087
C61	C	0.438507	0.245223	-0.306907
C62	C	0.938507	0.745223	0.193093
C63	C	0.471159	0.301679	-0.301852
C64	C	0.971159	0.801679	0.198148
C65	C	0.236688	0.261620	-0.342017
C66	C	0.736688	0.761620	0.157983
C67	C	0.171252	0.261603	-0.342015
C68	C	0.671252	0.761603	0.157985
C69	C	0.171128	0.341627	-0.261725
C70	C	0.671128	0.841627	0.238275
C71	C	0.236563	0.341640	-0.261723
C72	C	0.736563	0.841640	0.238277
C73	C	0.269339	0.301637	-0.301873
C74	C	0.769339	0.801637	0.198127
C75	C	0.945388	0.566725	-0.341925
C76	C	1.445388	1.066725	0.158075
C77	C	0.945403	0.632161	-0.341939
C78	C	1.445403	1.132161	0.158061
C79	C	0.905365	0.664948	-0.301836
C80	C	1.405365	1.164948	0.198164
C81	C	0.865298	0.632294	-0.261728
C82	C	1.365298	1.132294	0.238272
C83	C	0.865279	0.566860	-0.261720
C84	C	1.365279	1.066860	0.238280
C85	C	0.900477	0.768650	-0.245395
C86	C	1.400477	1.268650	0.254605
C87	C	0.900501	0.834082	-0.245403
C88	C	1.400501	1.334082	0.254597
C89	C	0.905419	0.866769	-0.301862
C90	C	1.405419	1.366769	0.198138
C91	C	0.910327	0.834014	-0.358316
C92	C	1.410327	1.334014	0.141684
C93	C	0.910309	0.768580	-0.358308
C94	C	1.410309	1.268580	0.141692
C95	C	0.905381	0.735900	-0.301841
C96	C	1.405381	1.235900	0.198159
C97	C	0.945498	0.970367	-0.341986
C98	C	1.445498	1.470367	0.158014
C99	C	0.945508	1.035804	-0.342001
C100	C	1.445508	1.535804	0.157999
C101	C	0.865406	1.035936	-0.261784
C102	C	1.365406	1.535936	0.238216
C103	C	0.865392	0.970501	-0.261775
C104	C	1.365392	1.470501	0.238225
C105	C	0.905441	0.937720	-0.301875
C106	C	1.405441	1.437720	0.198125
C107	C	1.068832	0.301621	-0.301868
C108	C	1.568832	0.801621	0.198132
C109	C	1.138473	0.301608	-0.301875
C110	C	1.638473	0.801608	0.198125
C111	C	0.905461	0.301638	-0.465273
C112	C	1.405461	0.801638	0.034727
C113	C	0.905483	0.301633	-0.534914
C114	C	1.405483	0.801633	-0.034914
C115	C	0.905497	1.138227	-0.301894
C116	C	1.405497	1.638227	0.198106
C117	C	0.905469	1.068586	-0.301899
C118	C	1.405469	1.568586	0.198101
C119	C	0.945582	0.261550	-0.567645
C120	C	1.445582	0.761550	-0.067645
C121	C	0.945582	0.261523	-0.633080
C122	C	1.445582	0.761523	-0.133080
C123	C	0.905488	0.301590	-0.665783
C124	C	1.405488	0.801590	-0.165783
C125	C	0.865380	0.341675	-0.633044
C126	C	1.365380	0.841675	-0.133044
C127	C	0.865378	0.341697	-0.567610
C128	C	1.365378	0.841697	-0.067610
C129	C	0.900507	0.358007	-0.769445
C130	C	1.400507	0.858007	-0.269445
C131	C	0.900514	0.357986	-0.834878
C132	C	1.400514	0.857986	-0.334878
C133	C	0.905492	0.301524	-0.867604
C134	C	1.405492	0.801524	-0.367604
C135	C	0.910476	0.245080	-0.834888
C136	C	1.410476	0.745080	-0.334888
C137	C	0.910473	0.245101	-0.769454
C138	C	1.410473	0.745101	-0.269454
C139	C	0.905486	0.301571	-0.736735
C140	C	1.405486	0.801571	-0.236735
C141	C	0.945592	0.261409	-0.971287
C142	C	1.445592	0.761409	-0.471287
C143	C	0.945587	0.261381	-1.036724
C144	C	1.445587	0.761381	-0.536724
C145	C	0.865389	0.341538	-1.036686
C146	C	1.365389	0.841538	-0.536686
C147	C	0.865391	0.341561	-0.971251
C148	C	1.365391	0.841561	-0.471251
C149	C	0.905496	0.301497	-0.938555
C150	C	1.405496	0.801497	-0.438555
C151	C	0.905393	0.301618	-0.139062
C152	C	1.405393	0.801618	0.360938
C153	C	0.905492	0.301447	-0.069421
C154	C	1.405492	0.801447	0.430579
H155	H	0.667012	0.229125	-0.374679
H156	H	1.167012	0.729125	0.125321
C157	C	0.337161	0.183113	-0.312460
C158	C	0.837161	0.683113	0.187540
H159	H	0.366056	0.149503	-0.315469
H160	H	0.866056	0.649503	0.184531
H161	H	0.311624	0.177547	-0.276564
H162	H	0.811624	0.677547	0.223436
H163	H	0.311651	0.183976	-0.348782
H164	H	0.811651	0.683976	0.151218
H165	H	0.144669	0.229017	-0.374707
H166	H	0.644669	0.729017	0.125293
H167	H	0.914334	0.860625	-0.404291
H168	H	1.414334	1.360625	0.095709
C169	C	0.989699	0.217338	-0.935316
C170	C	1.489699	0.717338	-0.435316
H171	H	0.983961	0.223097	-0.891658
H172	H	1.483961	0.723097	-0.391658
H173	H	0.980560	0.175238	-0.946036
H174	H	1.480560	0.675238	-0.446036
H175	H	1.031793	0.226500	-0.946059
H176	H	1.531793	0.726500	-0.446059
H177	H	0.978240	0.228737	-1.063372
H178	H	1.478240	0.728737	-0.563372
C179	C	0.474300	0.420210	-0.291266
C180	C	0.974300	0.920210	0.208734
H181	H	0.445407	0.453822	-0.288271
H182	H	0.945407	0.953822	0.211729
H183	H	0.499811	0.419353	-0.254948
H184	H	0.999811	0.919353	0.245052
H185	H	0.499836	0.425770	-0.327168
H186	H	0.999836	0.925770	0.172832
H187	H	0.914530	0.199103	-0.861532
H188	H	1.414530	0.699103	-0.361532
H189	H	0.832697	0.658994	-0.229077
H190	H	1.332697	1.158994	0.270923
C191	C	0.989471	0.668082	-0.386054
C192	C	1.489471	1.168082	0.113946
H193	H	0.983743	0.711747	-0.380317
H194	H	1.483743	1.211747	0.119683
H195	H	1.031570	0.657314	-0.376919
H196	H	1.531570	1.157314	0.123081
H197	H	0.980278	0.657350	-0.428146
H198	H	1.480278	1.157350	0.071854
C199	C	0.821291	0.385615	-1.072650
C200	C	1.321291	0.885615	-0.572650
H201	H	0.827038	0.379866	-1.116309
H202	H	1.327038	0.879866	-0.616309
H203	H	0.779198	0.376463	-1.061912
H204	H	1.279198	0.876463	-0.561912
H205	H	0.830439	0.427715	-1.061927
H206	H	1.330439	0.927715	-0.561927
H207	H	0.832741	0.374204	-0.944601
H208	H	1.332741	0.874204	-0.444601
H209	H	0.666787	0.374295	-0.228996
H210	H	1.166787	0.874295	0.271004
H211	H	0.896459	0.403946	-0.861510
H212	H	1.396459	0.903946	-0.361510
C213	C	0.821214	0.530946	-0.217601
C214	C	1.321214	1.030946	0.282399
H215	H	0.826935	0.487280	-0.223342
H216	H	1.326935	0.987280	0.276658
H217	H	0.830403	0.541680	-0.175513
H218	H	1.330403	1.041680	0.324487
H219	H	0.779112	0.541712	-0.226740
H220	H	1.279112	1.041712	0.273260
C221	C	0.989691	0.217477	-0.531683
C222	C	1.489691	0.717477	-0.031683
H223	H	1.013569	0.193597	-0.560552
H224	H	1.513569	0.693597	-0.060552
H225	H	1.016972	0.241446	-0.506165
H226	H	1.516972	0.741446	-0.006165
H227	H	0.965738	0.190186	-0.506152
H228	H	1.465738	0.690186	-0.006152
C229	C	0.894894	0.420107	-0.733453
C230	C	1.394894	0.920107	-0.233453
H231	H	0.891894	0.453715	-0.762307
H232	H	1.391894	0.953715	-0.262307
H233	H	0.858543	0.419219	-0.707963
H234	H	1.358543	0.919219	-0.207963
H235	H	0.930753	0.425699	-0.707891
H236	H	1.430753	0.925699	-0.207891
C237	C	0.135075	0.385636	-0.217576
C238	C	0.635075	0.885636	0.282424
H239	H	0.091428	0.379902	-0.223332
H240	H	0.591428	0.879902	0.276668
H241	H	0.145786	0.376410	-0.175493
H242	H	0.645786	0.876410	0.324507
H243	H	0.145760	0.427750	-0.226674
H244	H	0.645760	0.927750	0.273326
C245	C	0.821281	0.385750	-0.669014
C246	C	1.321281	0.885750	-0.169014
H247	H	0.827031	0.380002	-0.712672
H248	H	1.327031	0.880002	-0.212672
H249	H	0.779189	0.376594	-0.658277
H250	H	1.279189	0.876594	-0.158277
H251	H	0.830426	0.427851	-0.658289
H252	H	1.330426	0.927851	-0.158289
C253	C	0.989693	0.217433	-0.669095
C254	C	1.489693	0.717433	-0.169095
H255	H	0.983946	0.223156	-0.712748
H256	H	1.483946	0.723156	-0.212748
H257	H	1.031783	0.226600	-0.658388
H258	H	1.531783	0.726600	-0.158388
H259	H	0.980551	0.175337	-0.658372
H260	H	1.480551	0.675337	-0.158372
C261	C	0.989439	0.530670	-0.386034
C262	C	1.489439	1.030670	0.113966
H263	H	1.013298	0.559489	-0.409924
H264	H	1.513298	1.059489	0.090076
H265	H	1.016741	0.505125	-0.362086
H266	H	1.516741	1.005125	0.137914
H267	H	0.965452	0.505159	-0.413314
H268	H	1.465452	1.005159	0.086686
C269	C	0.915945	0.183018	-0.733469
C270	C	1.415945	0.683018	-0.233469
H271	H	0.918906	0.149385	-0.762326
H272	H	1.418906	0.649385	-0.262326
H273	H	0.952260	0.183831	-0.707954
H274	H	1.452260	0.683831	-0.207954
H275	H	0.880033	0.177532	-0.707933
H276	H	1.380033	0.677532	-0.207933
C277	C	0.538711	0.385708	-0.217547
C278	C	1.038711	0.885708	0.282453
H279	H	0.495064	0.379977	-0.223305
H280	H	0.995064	0.879977	0.276695
H281	H	0.549420	0.376480	-0.175465
H282	H	1.049420	0.876480	0.324535
H283	H	0.549397	0.427823	-0.226643
H284	H	1.049397	0.927823	0.273357
H285	H	0.832721	0.374336	-0.540961
H286	H	1.332721	0.874336	-0.040961
H287	H	0.548305	0.229097	-0.374681
H288	H	1.048305	0.729097	0.125319
H289	H	0.263147	0.374223	-0.229033
H290	H	0.763147	0.874223	0.270967
H291	H	0.346263	0.404059	-0.292713
H292	H	0.846263	0.904059	0.207287
C293	C	0.915701	0.732549	-0.420400
C294	C	1.415701	1.232549	0.079600
H295	H	0.914990	0.688898	-0.412306
H296	H	1.414990	1.188898	0.087694
H297	H	0.881608	0.743297	-0.446726
H298	H	1.381608	1.243297	0.053274
H299	H	0.953842	0.743215	-0.440472
H300	H	1.453842	1.243215	0.059528
C301	C	0.474566	0.183143	-0.312450
C302	C	0.974566	0.683143	0.187550
H303	H	0.445749	0.149520	-0.315451
H304	H	0.945749	0.649520	0.184549
H305	H	0.500112	0.184013	-0.348762
H306	H	1.000112	0.684013	0.151238
H307	H	0.500076	0.177593	-0.276543
H308	H	1.000076	0.677593	0.223457
C309	C	0.895101	0.870107	-0.183307
C310	C	1.395101	1.370107	0.316693
H311	H	0.892158	0.841270	-0.149682
H312	H	1.392158	1.341270	0.350318
H313	H	0.931018	0.895593	-0.177831
H314	H	1.431018	1.395593	0.322169
H315	H	0.858786	0.895674	-0.184096
H316	H	1.358786	1.395674	0.315904
H317	H	0.978106	0.943676	-0.374640
H318	H	1.478106	1.443676	0.125360
H319	H	0.263376	0.229044	-0.374705
H320	H	0.763376	0.729044	0.125295
H321	H	0.978130	1.062383	-0.374663
H322	H	1.478130	1.562383	0.125337
H323	H	0.832803	1.062631	-0.229136
H324	H	1.332803	1.562631	0.270864
C325	C	0.895067	0.732701	-0.183286
C326	C	1.395067	1.232701	0.316714
H327	H	0.892155	0.761578	-0.149666
H328	H	1.392155	1.261578	0.350334
H329	H	0.858741	0.707216	-0.184061
H330	H	1.358741	1.207216	0.315939
H331	H	0.930975	0.707137	-0.177810
H332	H	1.430975	1.207137	0.322190
C333	C	0.821330	0.934585	-0.217656
C334	C	1.321330	1.434585	0.282344
H335	H	0.827050	0.890920	-0.223398
H336	H	1.327050	1.390920	0.276602
H337	H	0.830521	0.945319	-0.175567
H338	H	1.330521	1.445319	0.324433
H339	H	0.779229	0.945354	-0.226794
H340	H	1.279229	1.445354	0.273206
