data_functionalizedCrystal
_audit_creation_method	'MofGen! by Chris Wilmer'
_symmetry_space_group_name_H-M	'P1'
_symmetry_Int_Tables_number	1
_symmetry_cell_setting	triclinic
loop_
_symmetry_equiv_pos_as_xyz
  x,y,z
_cell_length_a	18.215407
_cell_length_b	17.640280
_cell_length_c	18.215399
_cell_angle_alpha	78.775397
_cell_angle_beta	89.980167
_cell_angle_gamma	78.800709
loop_
_atom_site_label
_atom_site_type_symbol
_atom_site_fract_x
_atom_site_fract_y
_atom_site_fract_z
Zn1	Zn	1.184366	-0.314661	-0.356963
Zn2	Zn	1.684366	0.185339	0.143037
Zn3	Zn	1.209181	-0.446838	-0.209048
Zn4	Zn	1.709181	0.053162	0.290952
Zn5	Zn	1.061303	-0.314687	-0.233905
Zn6	Zn	1.561303	0.185313	0.266095
Zn7	Zn	1.086163	-0.446794	-0.332082
Zn8	Zn	1.586163	0.053206	0.167918
O9	O	1.135253	-0.380745	-0.282999
O10	O	1.635253	0.119255	0.217001
O11	O	1.290643	-0.332202	-0.337352
O12	O	1.790643	0.167798	0.162648
O13	O	1.189546	-0.429337	-0.109356
O14	O	1.689546	0.070663	0.390644
O15	O	1.056838	-0.204079	-0.271045
O16	O	1.556838	0.295921	0.228955
O17	O	1.308875	-0.429312	-0.228680
O18	O	1.808875	0.070688	0.271320
O19	O	1.147252	-0.204060	-0.361454
O20	O	1.647252	0.295940	0.138546
O21	O	1.080901	-0.332246	-0.127618
O22	O	1.580901	0.167754	0.372382
O23	O	0.961615	-0.332203	-0.246918
O24	O	1.461615	0.167797	0.253082
O25	O	1.099208	-0.429237	-0.438372
O26	O	1.599208	0.070763	0.061628
O27	O	0.979879	-0.429262	-0.319048
O28	O	1.479879	0.070738	0.180952
O29	O	1.171357	-0.332159	-0.456652
O30	O	1.671357	0.167841	0.043348
O31	O	1.213652	-0.557436	-0.204553
O32	O	1.713652	-0.057436	0.295447
O33	O	1.123271	-0.557404	-0.294945
O34	O	1.623271	-0.057404	0.205055
C35	C	0.944044	-0.380731	-0.282981
C36	C	1.444044	0.119269	0.217019
C37	C	0.862248	-0.380745	-0.282987
C38	C	1.362248	0.119255	0.217013
C39	C	0.683598	-0.431363	-0.320471
C40	C	1.183598	0.068637	0.179529
C41	C	0.606740	-0.431365	-0.320479
C42	C	1.106740	0.068635	0.179521
C43	C	0.587662	-0.330142	-0.245542
C44	C	1.087662	0.169858	0.254458
C45	C	0.664519	-0.330136	-0.245538
C46	C	1.164519	0.169864	0.254462
C47	C	0.712485	-0.380751	-0.283000
C48	C	1.212485	0.119249	0.217000
C49	C	0.558771	-0.380759	-0.283013
C50	C	1.058771	0.119241	0.216987
C51	C	0.475438	-0.380761	-0.283022
C52	C	0.975438	0.119239	0.216978
C53	C	0.795824	-0.380748	-0.282993
C54	C	1.295824	0.119252	0.217007
C55	C	1.173871	-0.586099	-0.244368
C56	C	1.673871	-0.086099	0.255632
C57	C	1.190460	-0.673950	-0.227866
C58	C	1.690460	-0.173950	0.272134
C59	C	1.009534	-0.962935	-0.408631
C60	C	1.509534	-0.462935	0.091369
C61	C	1.025123	-1.045484	-0.393101
C62	C	1.525123	-0.545484	0.106899
C63	C	1.119295	-1.045452	-0.299071
C64	C	1.619295	-0.545452	0.200929
C65	C	1.103717	-0.962901	-0.314596
C66	C	1.603717	-0.462901	0.185404
C67	C	1.048835	-0.921649	-0.369375
C68	C	1.548835	-0.421649	0.130625
C69	C	1.143018	-0.921615	-0.275340
C70	C	1.643018	-0.421615	0.224660
C71	C	1.127438	-0.839071	-0.290861
C72	C	1.627438	-0.339071	0.209139
C73	C	1.072557	-0.797813	-0.345636
C74	C	1.572557	-0.297813	0.154364
C75	C	1.033255	-0.839105	-0.384896
C76	C	1.533255	-0.339105	0.115104
C77	C	1.197896	-0.962869	-0.220557
C78	C	1.697896	-0.462869	0.279443
C79	C	1.237196	-0.921583	-0.181301
C80	C	1.737196	-0.421583	0.318699
C81	C	1.221620	-0.839038	-0.196825
C82	C	1.721620	-0.339038	0.303175
C83	C	1.166739	-0.797780	-0.251601
C84	C	1.666739	-0.297780	0.248399
C85	C	1.260922	-0.797746	-0.157566
C86	C	1.760922	-0.297746	0.342434
C87	C	1.245342	-0.715202	-0.173086
C88	C	1.745342	-0.215202	0.326914
C89	C	1.151159	-0.715236	-0.267122
C90	C	1.651159	-0.215236	0.232878
C91	C	1.327209	-0.380759	-0.283018
C92	C	1.827209	0.119241	0.216982
C93	C	1.409009	-0.380765	-0.283027
C94	C	1.909009	0.119235	0.216973
C95	C	1.135288	-0.380690	-0.474963
C96	C	1.635288	0.119310	0.025037
C97	C	1.135302	-0.380667	-0.556766
C98	C	1.635302	0.119333	-0.056766
C99	C	1.096504	-0.174589	-0.321798
C100	C	1.596504	0.325411	0.178202
C101	C	1.079991	-0.086738	-0.338331
C102	C	1.579991	0.413262	0.161669
C103	C	1.172878	-0.330072	-0.754489
C104	C	1.672878	0.169928	-0.254489
C105	C	1.172883	-0.330049	-0.831352
C106	C	1.672883	0.169951	-0.331352
C107	C	1.097755	-0.431141	-0.812304
C108	C	1.597755	0.068859	-0.312304
C109	C	1.097747	-0.431159	-0.735444
C110	C	1.597747	0.068841	-0.235444
C111	C	1.135313	-0.380626	-0.706537
C112	C	1.635313	0.119374	-0.206537
C113	C	1.135326	-0.380584	-0.860261
C114	C	1.635326	0.119416	-0.360261
C115	C	1.135330	-0.380560	-0.943600
C116	C	1.635330	0.119440	-0.443600
C117	C	1.135307	-0.380649	-0.623194
C118	C	1.635307	0.119351	-0.123194
C119	C	1.135250	-0.380742	-0.091794
C120	C	1.635250	0.119258	0.408206
C121	C	1.135336	-0.380543	-0.010033
C122	C	1.635336	0.119457	0.489967
H123	H	1.106474	-0.681646	-0.311735
H124	H	1.606474	-0.181646	0.188265
H125	H	1.059867	-0.730600	-0.358267
H126	H	1.559867	-0.230600	0.141733
H127	H	1.210581	-1.030082	-0.207924
H128	H	1.710581	-0.530082	0.292076
F129	F	1.287164	-0.671260	-0.131301
F130	F	1.787164	-0.171260	0.368699
H131	H	0.583224	-0.472577	-0.350993
H132	H	1.083224	0.027423	0.149007
F133	F	0.695263	-0.276260	-0.205659
F134	F	1.195263	0.223740	0.294341
H135	H	1.203465	-0.288922	-0.730956
H136	H	1.703465	0.211078	-0.230956
H137	H	0.988570	-0.805515	-0.429509
H138	H	1.488570	-0.305515	0.070491
F139	F	1.212871	-0.276247	-0.882381
F140	F	1.712871	0.223753	-0.382381
H141	H	0.548599	-0.288934	-0.215039
H142	H	1.048599	0.211066	0.284961
H143	H	0.964849	-0.929345	-0.453244
H144	H	1.464849	-0.429345	0.046756
H145	H	1.067172	-0.472285	-0.835849
H146	H	1.567172	0.027715	-0.335849
F147	F	1.295604	-0.965495	-0.123003
F148	F	1.795604	-0.465495	0.376997
H149	H	0.722651	-0.472575	-0.350978
H150	H	1.222651	0.027425	0.149022
F151	F	0.983283	-1.089421	-0.434880
F152	F	1.483283	-0.589421	0.065120
F153	F	1.319324	-0.841660	-0.099263
F154	F	1.819324	-0.341660	0.400737
H155	H	1.067151	-0.472326	-0.696400
H156	H	1.567151	0.027674	-0.196400
H157	H	1.163978	-1.079051	-0.254467
H158	H	1.663978	-0.579051	0.245533
