data_functionalizedCrystal
_audit_creation_method	'MofGen! by Chris Wilmer'
_symmetry_space_group_name_H-M	'P1'
_symmetry_Int_Tables_number	1
_symmetry_cell_setting	triclinic
loop_
_symmetry_equiv_pos_as_xyz
  x,y,z
_cell_length_a	21.295417
_cell_length_b	18.050590
_cell_length_c	18.050583
_cell_angle_alpha	89.997484
_cell_angle_beta	89.959541
_cell_angle_gamma	89.982671
loop_
_atom_site_label
_atom_site_type_symbol
_atom_site_fract_x
_atom_site_fract_y
_atom_site_fract_z
Zn1	Zn	-0.250786	-1.135289	-0.419524
Zn2	Zn	-0.356072	-1.135192	-0.295324
Zn3	Zn	-0.250796	-1.011106	-0.295388
Zn4	Zn	-0.355997	-1.011051	-0.419513
O5	O	-0.303413	-1.073159	-0.357437
O6	O	-0.264779	-1.239200	-0.403026
O7	O	-0.342143	-1.118714	-0.191408
O8	O	-0.162706	-1.027642	-0.311886
O9	O	-0.342133	-1.239129	-0.311778
O10	O	-0.162698	-1.118879	-0.403088
O11	O	-0.264797	-1.027548	-0.191455
O12	O	-0.264724	-0.907174	-0.311875
O13	O	-0.342004	-1.027549	-0.523439
O14	O	-0.342015	-0.907134	-0.403070
O15	O	-0.264706	-1.118826	-0.523447
O16	O	-0.444151	-1.118661	-0.311768
O17	O	-0.444096	-1.027455	-0.403008
C18	C	-0.303363	-0.880207	-0.357479
C19	C	-0.303357	-0.797661	-0.357514
C20	C	-0.345501	-0.598210	-0.406998
C21	C	-0.288098	-0.548820	-0.425280
C22	C	-0.303387	-0.646531	-0.357485
C23	C	-0.360817	-0.548839	-0.339209
C24	C	-0.303421	-0.500546	-0.357459
C25	C	-0.245954	-0.598228	-0.375803
C26	C	-0.318711	-0.598252	-0.289701
C27	C	-0.261269	-0.548884	-0.307958
C28	C	-0.303368	-0.730629	-0.357503
C29	C	-0.303433	-0.416449	-0.357442
C30	C	-0.466964	-1.073062	-0.357396
C31	C	-0.536932	-1.073088	-0.357403
C32	C	-0.569807	-1.120621	-0.309943
C33	C	-0.635549	-1.120656	-0.309960
C34	C	-0.668415	-1.073145	-0.357429
C35	C	-0.635532	-1.025608	-0.404899
C36	C	-0.569791	-1.025580	-0.404886
N37	N	-0.771667	-1.008178	-0.363105
N38	N	-0.834119	-1.008207	-0.363112
C39	C	-0.866490	-1.073228	-0.357472
N40	N	-0.834050	-1.138220	-0.351808
N41	N	-0.771593	-1.138191	-0.351796
C42	C	-0.739700	-1.073170	-0.357448
C43	C	-0.970650	-1.120803	-0.310027
C44	C	-1.036393	-1.120839	-0.310049
C45	C	-1.036375	-1.025784	-0.404984
C46	C	-0.970633	-1.025755	-0.404966
C47	C	-0.937774	-1.073263	-0.357483
C48	C	-0.139222	-1.073277	-0.357495
C49	C	-0.069254	-1.073328	-0.357519
C50	C	-0.303345	-1.073192	-0.551143
C51	C	-0.303317	-1.073206	-0.633689
C52	C	-0.303454	-0.266865	-0.357408
C53	C	-0.303450	-0.349411	-0.357428
C54	C	-0.261262	-1.122892	-0.833144
C55	C	-0.245842	-1.055159	-0.882562
C56	C	-0.303306	-1.073236	-0.784819
C57	C	-0.318686	-1.140996	-0.882483
C58	C	-0.303294	-1.073271	-0.930804
C59	C	-0.287856	-1.005467	-0.833150
C60	C	-0.360727	-1.091349	-0.833067
C61	C	-0.345329	-1.023570	-0.882463
C62	C	-0.303311	-1.073217	-0.700721
C63	C	-0.303289	-1.073282	-1.014901
C64	C	-0.303434	-1.073169	-0.164485
C65	C	-0.303286	-1.073299	-0.081940
H66	H	-0.381055	-0.619871	-0.448913
O67	O	-0.418708	-0.522830	-0.320815
C68	C	-0.417769	-0.444729	-0.320381
H69	H	-0.377717	-0.424158	-0.356913
H70	H	-0.464287	-0.422753	-0.342582
H71	H	-0.410543	-0.424122	-0.261299
H72	H	-0.275147	-0.527108	-0.482593
H73	H	-0.197386	-0.619832	-0.391315
H74	H	-0.380880	-0.981544	-0.903981
O75	O	-0.667357	-0.979431	-0.451080
C76	C	-0.624240	-0.937455	-0.492956
H77	H	-0.577359	-0.967853	-0.495536
H78	H	-0.643197	-0.929505	-0.551467
H79	H	-0.617299	-0.881066	-0.465727
O80	O	-0.938597	-0.979644	-0.451039
C81	C	-0.873526	-0.989793	-0.440836
H82	H	-0.864533	-1.047117	-0.416546
H83	H	-0.848502	-0.984708	-0.496455
H84	H	-0.854924	-0.945760	-0.401256
O85	O	-0.537825	-0.979507	-0.451067
C86	C	-0.499723	-1.021740	-0.499036
H87	H	-0.519497	-1.080238	-0.503663
H88	H	-0.498947	-0.994844	-0.556173
H89	H	-0.449916	-1.024291	-0.476061
H90	H	-1.063133	-0.987102	-0.443638
H91	H	-0.225684	-1.164816	-0.811486
H92	H	-1.063159	-1.159550	-0.271402
H93	H	-0.274787	-0.948161	-0.811570
H94	H	-0.409279	-1.106680	-0.811312
O95	O	-0.537987	-1.166847	-0.263804
C96	C	-0.581106	-1.208797	-0.221905
H97	H	-0.627945	-1.211364	-0.252334
H98	H	-0.562087	-1.267309	-0.214018
H99	H	-0.588152	-1.181642	-0.165486
O100	O	-0.334142	-1.209396	-0.908249
C101	C	-0.289685	-1.261546	-0.883136
H102	H	-0.265706	-1.239547	-0.831158
H103	H	-0.314379	-1.315966	-0.869794
H104	H	-0.253022	-1.271294	-0.928147
H105	H	-0.225628	-0.527362	-0.266076
O106	O	-0.187868	-1.037015	-0.908468
C107	C	-0.143685	-1.089476	-0.883331
H108	H	-0.168734	-1.143530	-0.869437
H109	H	-0.107347	-1.099925	-0.928548
H110	H	-0.119247	-1.067394	-0.831682
H111	H	-0.331680	-0.619980	-0.232405
O112	O	-0.938823	-1.167022	-0.263884
C113	C	-0.981941	-1.208976	-0.221987
H114	H	-1.028778	-1.211554	-0.252420
H115	H	-0.962916	-1.267484	-0.214092
H116	H	-0.988995	-1.181818	-0.165571
O117	O	-0.667528	-1.166893	-0.263949
C118	C	-0.705522	-1.214839	-0.306246
H119	H	-0.685664	-1.219414	-0.364733
H120	H	-0.706273	-1.271997	-0.279395
H121	H	-0.755350	-1.191877	-0.308812
