data_functionalizedCrystal
_audit_creation_method	'MofGen! by Chris Wilmer'
_symmetry_space_group_name_H-M	'P1'
_symmetry_Int_Tables_number	1
_symmetry_cell_setting	triclinic
loop_
_symmetry_equiv_pos_as_xyz
  x,y,z
_cell_length_a	10.654550
_cell_length_b	17.038272
_cell_length_c	9.130313
_cell_angle_alpha	89.998262
_cell_angle_beta	89.996220
_cell_angle_gamma	87.798229
loop_
_atom_site_label
_atom_site_type_symbol
_atom_site_fract_x
_atom_site_fract_y
_atom_site_fract_z
O1	O	1.678036	0.109874	-0.121922
O2	O	1.313530	0.120343	-0.121899
O3	O	1.493617	0.001281	-0.121899
O4	O	1.497950	0.228936	-0.121923
O5	O	1.493615	0.001284	0.121700
O6	O	1.313528	0.120346	0.121700
O7	O	1.678034	0.109878	0.121676
Cu8	Cu	1.495781	0.115112	0.143931
Cu9	Cu	1.495783	0.115108	-0.144153
O10	O	1.497948	0.228939	0.121676
C11	C	1.266660	0.119576	-0.000097
C12	C	1.127003	0.117276	-0.000087
C13	C	1.054026	0.187378	-0.000116
C14	C	0.922804	0.185212	-0.000141
C15	C	0.937548	0.042837	-0.000115
C16	C	1.068767	0.045004	-0.000080
C17	C	1.045513	0.269577	-0.000137
C18	C	0.914292	0.267411	-0.000162
C19	C	1.489675	-0.027867	-0.000100
C20	C	1.477918	-0.114726	-0.000099
C21	C	1.585862	-0.164237	-0.000105
C22	C	1.574808	-0.245850	-0.000118
C23	C	1.455808	-0.277949	-0.000115
C24	C	1.347856	-0.228431	-0.000114
C25	C	1.358911	-0.146821	-0.000111
C26	C	1.416750	-0.523925	-0.000133
C27	C	1.405702	-0.605542	-0.000131
C28	C	1.632656	-0.622955	-0.000137
C29	C	1.643701	-0.541342	-0.000126
C30	C	1.535749	-0.491831	-0.000133
C31	C	1.444505	-0.361370	-0.000124
C32	C	1.547052	-0.408412	-0.000134
C33	C	1.724905	0.110645	-0.000129
C34	C	1.864562	0.112944	-0.000148
C35	C	1.501889	0.258088	-0.000126
C36	C	1.513646	0.344947	-0.000136
N37	N	1.495788	0.115114	0.346553
N38	N	1.495785	0.115100	-0.346776
C39	C	1.575554	0.062412	0.423205
C40	C	1.575550	0.062403	0.576542
C41	C	1.416010	0.167805	0.576561
C42	C	1.416009	0.167810	0.423227
C43	C	1.667667	0.001561	0.423195
C44	C	1.667663	0.001552	0.576532
H45	H	1.682764	-0.138109	-0.000098
H46	H	1.347615	-0.387514	-0.000119
H47	H	1.351046	0.210718	0.360818
H48	H	1.351055	0.210708	0.639006
H49	H	1.643941	-0.382273	-0.000169
H50	H	1.720544	-0.663275	-0.000135
H51	H	1.760620	0.020614	0.375629
H52	H	1.631874	-0.055271	0.624087
H53	H	1.640641	-0.058569	0.381583
H54	H	1.077829	0.301726	0.101811
H55	H	1.308794	-0.631674	-0.000105
H56	H	1.083600	0.295749	-0.105312
H57	H	1.765419	0.014955	0.618141
H58	H	1.328847	-0.483623	-0.000138
H59	H	1.128180	-0.012080	-0.000035
H60	H	1.250963	-0.254573	-0.000121
H61	H	0.890116	-0.016005	-0.000131
H62	H	0.875436	0.298381	-0.102119
H63	H	0.870926	0.292254	0.105003
H64	H	1.271011	-0.106509	-0.000107
H65	H	1.662708	-0.286159	-0.000119
H66	H	1.740603	-0.515213	-0.000128
