data_functionalizedCrystal
_audit_creation_method	'MofGen! by Chris Wilmer'
_symmetry_space_group_name_H-M	'P1'
_symmetry_Int_Tables_number	1
_symmetry_cell_setting	triclinic
loop_
_symmetry_equiv_pos_as_xyz
  x,y,z
_cell_length_a	12.827893
_cell_length_b	14.908178
_cell_length_c	14.908308
_cell_angle_alpha	89.778379
_cell_angle_beta	93.279990
_cell_angle_gamma	93.313970
loop_
_atom_site_label
_atom_site_type_symbol
_atom_site_fract_x
_atom_site_fract_y
_atom_site_fract_z
Zn1	Zn	1.539134	-0.387317	-0.487678
Zn2	Zn	1.540188	-0.529027	-0.328638
Zn3	Zn	1.375011	-0.378677	-0.337340
Zn4	Zn	1.354888	-0.537643	-0.478954
O5	O	1.452305	-0.458166	-0.408153
O6	O	1.685508	-0.406126	-0.466590
O7	O	1.527140	-0.501861	-0.203968
O8	O	1.404762	-0.253989	-0.364575
O9	O	1.686283	-0.510239	-0.349744
O10	O	1.525343	-0.260337	-0.475027
O11	O	1.405785	-0.391399	-0.210361
O12	O	1.226107	-0.399754	-0.356117
O13	O	1.370466	-0.524924	-0.605936
O14	O	1.211323	-0.516546	-0.460160
O15	O	1.505830	-0.414480	-0.612345
O16	O	1.507628	-0.656004	-0.341286
O17	O	1.371488	-0.662334	-0.451722
C18	C	1.180798	-0.458148	-0.408137
C19	C	1.064643	-0.458163	-0.408150
C20	C	1.005571	-0.516036	-0.459544
C21	C	0.885518	-0.516052	-0.459559
C22	C	1.437516	-0.691797	-0.394633
C23	C	1.431282	-0.791748	-0.388879
C24	C	1.545019	-0.986032	-0.493204
C25	C	1.539166	-1.079945	-0.487801
C26	C	1.413717	-1.073487	-0.372675
C27	C	1.419571	-0.979574	-0.378078
C28	C	1.485225	-0.935851	-0.438344
C29	C	1.491084	-0.841936	-0.443742
C30	C	1.365630	-0.835480	-0.328620
C31	C	1.359776	-0.929393	-0.323217
C32	C	1.724873	-0.458185	-0.408169
C33	C	1.841025	-0.458193	-0.408176
C34	C	1.435786	-0.471627	-0.642678
C35	C	1.428746	-0.477363	-0.742618
C36	C	1.467180	-0.223623	-0.421745
C37	C	1.473518	-0.123675	-0.427537
C38	C	1.556471	-0.373116	-0.937094
C39	C	1.549860	-0.378503	-1.030997
C40	C	1.408909	-0.493518	-1.024330
C41	C	1.415520	-0.488131	-0.930427
C42	C	1.489305	-0.427930	-0.886812
C43	C	1.495920	-0.422548	-0.792907
C44	C	1.354964	-0.537558	-0.786242
C45	C	1.348354	-0.542945	-0.880145
C46	C	1.468825	-0.444692	-0.174544
C47	C	1.476083	-0.438703	-0.074618
H48	H	1.026338	-0.408625	-0.364164
H49	H	1.043875	-0.565567	-0.503538
H50	H	1.316944	-0.794611	-0.283946
H51	H	1.544546	-0.806337	-0.492811
H52	H	0.834745	-0.565602	-0.503557
C53	C	1.617242	-0.937934	-0.559494
N54	N	1.671640	-0.901708	-0.609426
C55	C	1.327728	-0.559712	-1.072324
N56	N	1.266575	-0.609565	-1.108475
H57	H	1.556000	-0.373530	-0.757397
H58	H	1.616554	-0.324102	-0.901582
C59	C	1.623752	-0.318207	-1.086304
N60	N	1.679410	-0.272789	-1.127961
C61	C	1.604950	-1.135141	-0.548147
N62	N	1.654503	-1.176715	-0.593602
H63	H	1.288279	-0.591957	-0.915669
C64	C	1.281077	-0.597857	-0.730924
N65	N	1.225428	-0.643275	-0.689258
H66	H	0.891792	-0.408647	-0.364170
H67	H	1.306320	-0.965006	-0.274153
C68	C	1.341634	-1.121593	-0.306281
N69	N	1.287391	-1.157826	-0.256233
