data_functionalizedCrystal
_audit_creation_method	'MofGen! by Chris Wilmer'
_symmetry_space_group_name_H-M	'P1'
_symmetry_Int_Tables_number	1
_symmetry_cell_setting	triclinic
loop_
_symmetry_equiv_pos_as_xyz
  x,y,z
_cell_length_a	13.032831
_cell_length_b	17.640280
_cell_length_c	13.032268
_cell_angle_alpha	87.294217
_cell_angle_beta	90.886977
_cell_angle_gamma	70.377065
loop_
_atom_site_label
_atom_site_type_symbol
_atom_site_fract_x
_atom_site_fract_y
_atom_site_fract_z
Zn1	Zn	1.657819	-0.537275	-0.657580
Zn2	Zn	1.714714	-0.655808	-0.458408
Zn3	Zn	1.497821	-0.504041	-0.471445
Zn4	Zn	1.519686	-0.651506	-0.609520
O5	O	1.597510	-0.587158	-0.549239
O6	O	1.813945	-0.568708	-0.645817
O7	O	1.700603	-0.623567	-0.318999
O8	O	1.486083	-0.397129	-0.521706
O9	O	1.855746	-0.655793	-0.499486
O10	O	1.603633	-0.421546	-0.658459
O11	O	1.541252	-0.512065	-0.328577
O12	O	1.352142	-0.507894	-0.475104
O13	O	1.523350	-0.648462	-0.757034
O14	O	1.368206	-0.616236	-0.576547
O15	O	1.624835	-0.564537	-0.792344
O16	O	1.721805	-0.766558	-0.452884
O17	O	1.578519	-0.763397	-0.563905
C18	C	1.321649	-0.557992	-0.522026
C19	C	1.203638	-0.545536	-0.510403
C20	C	1.159034	-0.593658	-0.555304
C21	C	1.037063	-0.580786	-0.543293
C22	C	1.658735	-0.793847	-0.501790
C23	C	1.685021	-0.882282	-0.481534
C24	C	1.398216	-1.164984	-0.703527
C25	C	1.422921	-1.248080	-0.684462
C26	C	1.572195	-1.251326	-0.568994
C27	C	1.547506	-1.168229	-0.588054
C28	C	1.460514	-1.125064	-0.655320
C29	C	1.609804	-1.128309	-0.539846
C30	C	1.585113	-1.045219	-0.558900
C31	C	1.498123	-1.002048	-0.626161
C32	C	1.435823	-1.041974	-0.674374
C33	C	1.696791	-1.171474	-0.472575
C34	C	1.759089	-1.131554	-0.424368
C35	C	1.734403	-1.048463	-0.443427
C36	C	1.647414	-1.005293	-0.510688
C37	C	1.796704	-1.008537	-0.395214
C38	C	1.772013	-0.925447	-0.414268
C39	C	1.622722	-0.922202	-0.529741
C40	C	1.874448	-0.616437	-0.576558
C41	C	1.992462	-0.628915	-0.588200
C42	C	1.570185	-0.609727	-0.812308
C43	C	1.558541	-0.619344	-0.924413
C44	C	1.536072	-0.379666	-0.596898
C45	C	1.509891	-0.291246	-0.617207
C46	C	1.603562	-0.582108	-0.991863
C47	C	1.591528	-0.592047	-1.107729
C48	C	1.624773	-0.564625	-0.287212
C49	C	1.636556	-0.554805	-0.175179
H50	H	1.551892	-0.887057	-0.584525
O51	O	1.528659	-0.644022	-1.144850
H52	H	1.497502	-0.669781	-1.077816
H53	H	1.211143	-0.644385	-0.602642
O54	O	0.968061	-0.513595	-0.480567
H55	H	0.883094	-0.514037	-0.480959
H56	H	1.684006	-0.515559	-1.147154
H57	H	1.478015	-0.934389	-0.641666
O58	O	1.495671	-0.671317	-0.961530
H59	H	1.550225	-0.720906	-1.004925
O60	O	1.061467	-0.696116	-0.650911
H61	H	1.146439	-0.695685	-0.650504
O62	O	1.134633	-0.478349	-0.447680
H63	H	1.049665	-0.478791	-0.448073
O64	O	1.341996	-0.995406	-0.746926
H65	H	1.302817	-1.037122	-0.777247
H66	H	1.372195	-1.280582	-0.723737
O67	O	1.304389	-1.118417	-0.776079
H68	H	1.265210	-1.160132	-0.806401
H69	H	1.643021	-1.286481	-0.514223
O70	O	1.723431	-1.261094	-0.452013
H71	H	1.743442	-1.291773	-0.525189
O72	O	1.852940	-1.178116	-0.351848
H73	H	1.859657	-1.242604	-0.346711
O74	O	1.890546	-1.055099	-0.322686
H75	H	1.897258	-1.119586	-0.317547
H76	H	1.822742	-0.892944	-0.375011
H77	H	1.651011	-0.542867	-0.963831
