data_functionalizedCrystal
_audit_creation_method	'MofGen! by Chris Wilmer'
_symmetry_space_group_name_H-M	'P1'
_symmetry_Int_Tables_number	1
_symmetry_cell_setting	triclinic
loop_
_symmetry_equiv_pos_as_xyz
  x,y,z
_cell_length_a	27.732048
_cell_length_b	23.532355
_cell_length_c	22.610064
_cell_angle_alpha	90.008169
_cell_angle_beta	90.003306
_cell_angle_gamma	82.735077
loop_
_atom_site_label
_atom_site_type_symbol
_atom_site_fract_x
_atom_site_fract_y
_atom_site_fract_z
O1	O	0.058554	0.755162	0.049110
O2	O	0.067070	0.589276	0.049130
O3	O	-0.007578	0.677371	0.049108
O4	O	0.133202	0.667067	0.049132
O5	O	-0.007569	0.677347	-0.049261
O6	O	0.067079	0.589252	-0.049239
O7	O	0.058562	0.755137	-0.049259
Zn8	Zn	0.062822	0.672191	-0.064867
Zn9	Zn	0.062811	0.672223	0.064739
O10	O	0.133210	0.667043	-0.049237
C11	C	0.066862	0.568048	-0.000052
C12	C	0.066222	0.504831	-0.000045
C13	C	0.062205	0.112812	-0.053692
C14	C	0.061596	0.053414	-0.053694
O15	O	0.061269	0.022684	-0.099296
N16	N	0.061289	0.023720	-0.000073
C17	C	0.061587	0.053427	0.053554
O18	O	0.061270	0.022716	0.099162
C19	C	0.062192	0.112825	0.053555
C20	C	0.062504	0.142515	-0.000069
C21	C	0.062516	0.142503	-0.107311
C22	C	0.063126	0.201896	-0.107309
C23	C	0.063424	0.231600	-0.053686
C24	C	0.063114	0.201909	-0.000066
C25	C	0.062486	0.142532	0.107181
C26	C	0.063091	0.201934	0.107179
C27	C	0.063403	0.231624	0.053554
C28	C	0.064022	0.291006	0.053559
N29	N	0.064329	0.320701	-0.000062
C30	C	0.064030	0.290997	-0.053685
C31	C	0.060314	-0.071312	0.053546
C32	C	0.059712	-0.130709	0.053545
C33	C	0.059721	-0.130718	-0.053703
C34	C	0.060326	-0.071320	-0.053701
C35	C	0.060621	-0.041617	-0.000075
C36	C	0.065311	0.415729	-0.053675
C37	C	0.065923	0.475127	-0.053668
C38	C	0.065912	0.475132	0.053580
C39	C	0.065303	0.415738	0.053573
C40	C	0.065001	0.386038	-0.000059
O41	O	0.064348	0.321774	0.099138
O42	O	0.064341	0.321717	-0.099285
C43	C	-0.025580	0.677143	-0.000078
C44	C	-0.079236	0.676491	-0.000083
C45	C	-0.417985	0.724449	-0.000058
C46	C	-0.619648	0.722033	-0.000049
O47	O	-0.650843	0.765887	-0.000029
N48	N	-0.638844	0.669796	-0.000044
C49	C	-0.607621	0.618160	-0.000036
O50	O	-0.628575	0.573674	-0.000025
C51	C	-0.405959	0.620577	-0.000041
C52	C	-0.386766	0.672817	-0.000052
C53	C	-0.398792	0.776685	-0.000069
C54	C	-0.348379	0.777289	-0.000074
C55	C	-0.317160	0.725657	-0.000069
C56	C	-0.336353	0.673421	-0.000058
C57	C	-0.374736	0.568942	-0.000029
C58	C	-0.324318	0.569551	-0.000029
C59	C	-0.305125	0.621791	-0.000040
C60	C	-0.254721	0.622392	-0.000057
N61	N	-0.235525	0.674629	-0.000063
C62	C	-0.266744	0.726261	-0.000069
C63	C	-0.713496	0.616895	-0.000035
C64	C	-0.763912	0.616290	-0.000035
C65	C	-0.775936	0.720163	-0.000047
C66	C	-0.725520	0.720767	-0.000051
C67	C	-0.694301	0.669131	-0.000041
C68	C	-0.160873	0.727525	-0.000080
C69	C	-0.110456	0.728124	-0.000088
C70	C	-0.098436	0.624251	-0.000073
C71	C	-0.148849	0.623652	-0.000068
C72	C	-0.180067	0.675293	-0.000070
O73	O	-0.223497	0.578561	-0.000071
O74	O	-0.245780	0.770740	-0.000067
C75	C	-0.468398	0.723846	-0.000053
C76	C	-0.487591	0.671610	-0.000042
C77	C	-0.456372	0.619978	-0.000036
C78	C	-0.538007	0.671006	-0.000042
C79	C	-0.569226	0.722638	-0.000047
C80	C	-0.550030	0.774875	-0.000053
C81	C	-0.499617	0.775478	-0.000058
C82	C	-0.475568	0.567741	-0.000030
C83	C	-0.525981	0.567142	-0.000026
C84	C	-0.557200	0.618774	-0.000031
C85	C	0.151213	0.667271	-0.000050
C86	C	0.204869	0.667923	-0.000041
C87	C	0.058771	0.776366	-0.000075
C88	C	0.059411	0.839583	-0.000078
N89	N	0.062829	0.672173	-0.153320
C90	C	0.033644	0.637927	-0.438162
C91	C	0.033646	0.637921	-0.376242
O92	O	0.008834	0.608780	-0.344218
N93	N	0.062814	0.672196	-0.345272
C94	C	0.091977	0.706484	-0.376225
O95	O	0.116786	0.735637	-0.344197
C96	C	0.091972	0.706492	-0.438144
C97	C	0.062806	0.672210	-0.469111
C98	C	0.004480	0.603648	-0.469129
C99	C	0.004479	0.603653	-0.531044
C100	C	0.033641	0.637936	-0.561993
C101	C	0.062805	0.672215	-0.531026
C102	C	0.121132	0.740782	-0.469096
C103	C	0.121124	0.740787	-0.531019
C104	C	0.091958	0.706505	-0.561986
C105	C	0.091965	0.706503	-0.623891
N106	N	0.062798	0.672228	-0.654861
C107	C	0.033636	0.637944	-0.623912
C108	C	0.091985	0.706465	-0.246191
C109	C	0.091994	0.706454	-0.184274
C110	C	0.033662	0.637892	-0.184295
C111	C	0.033657	0.637900	-0.246214
C112	C	0.062818	0.672189	-0.277161
C113	C	0.033635	0.637957	-0.753939
C114	C	0.033637	0.637963	-0.815860
C115	C	0.091967	0.706527	-0.815834
C116	C	0.091966	0.706518	-0.753918
C117	C	0.062797	0.672232	-0.722972
O118	O	0.116764	0.735631	-0.655954
O119	O	0.008826	0.608801	-0.655947
N120	N	0.062800	0.672246	0.153191
H121	H	0.062271	0.118325	-0.150980
H122	H	-0.424206	0.818733	-0.000071
H123	H	-0.332757	0.819828	-0.000081
H124	H	-0.801363	0.762204	-0.000052
C125	C	-0.547086	0.509670	-0.000013
N126	N	-0.562982	0.466383	0.000002
H127	H	0.144870	0.768711	-0.556213
H128	H	-0.390354	0.526402	-0.000016
H129	H	0.060580	-0.047150	-0.097367
H130	H	-0.186286	0.769576	-0.000079
H131	H	-0.164477	0.581114	-0.000075
C132	C	-0.289980	0.512745	-0.000019
N133	N	-0.264117	0.469960	-0.000014
C134	C	0.063417	0.234603	0.166173
N135	N	0.063664	0.259208	0.210608
C136	C	0.124082	0.744162	-0.150217
N137	N	0.148249	0.772569	-0.124568
H138	H	0.065069	0.391553	-0.097347
H139	H	0.009887	0.610044	-0.841071
H140	H	0.059476	-0.154913	-0.097366
H141	H	-0.073008	0.582213	-0.000071
C142	C	0.059374	-0.163362	0.112536
N143	N	0.059115	-0.187954	0.156970
C144	C	-0.704413	0.778235	-0.000059
N145	N	-0.688518	0.821522	-0.000063
C146	C	0.066263	0.507784	-0.112661
N147	N	0.066518	0.532379	-0.157094
C148	C	0.060645	-0.038645	0.112543
N149	N	0.060893	-0.014043	0.156979
C150	C	0.062136	0.109887	0.166174
N151	N	0.061868	0.085300	0.210610
C152	C	0.001570	0.600191	-0.280271
N153	N	-0.022601	0.571788	-0.305920
C154	C	0.064966	0.383076	0.112562
N155	N	0.064707	0.358481	0.156994
H156	H	-0.483996	0.818017	-0.000067
H157	H	-0.094832	0.770666	-0.000099
C158	C	0.066238	0.507817	0.112562
N159	N	0.066478	0.532439	0.156987
H160	H	-0.779534	0.573751	-0.000036
H161	H	-0.688082	0.574844	-0.000027
H162	H	0.115736	0.734385	-0.271385
C163	C	0.153213	0.778501	-0.435046
N164	N	0.177376	0.806915	-0.409401
C165	C	0.124042	0.744238	-0.849889
N166	N	0.148198	0.772647	-0.875542
C167	C	-0.584381	0.831670	-0.000058
N168	N	-0.610257	0.874446	-0.000058
H169	H	-0.450153	0.525695	-0.000024
C170	C	0.001550	0.600236	-0.719908
N171	N	-0.022614	0.571821	-0.694276
H172	H	-0.019273	0.575739	-0.556252
C173	C	-0.027601	0.565927	-0.435095
N174	N	-0.051763	0.537510	-0.409464
H175	H	0.009917	0.609976	-0.159085
H176	H	0.063376	0.226066	-0.150975
C177	C	0.124053	0.744226	-0.719854
N178	N	0.148218	0.772633	-0.694200
