data_functionalizedCrystal
_audit_creation_method	'MofGen! by Chris Wilmer'
_symmetry_space_group_name_H-M	'P1'
_symmetry_Int_Tables_number	1
_symmetry_cell_setting	triclinic
loop_
_symmetry_equiv_pos_as_xyz
  x,y,z
_cell_length_a	6.817900
_cell_length_b	16.255699
_cell_length_c	16.255661
_cell_angle_alpha	95.343798
_cell_angle_beta	103.488922
_cell_angle_gamma	103.489404
loop_
_atom_site_label
_atom_site_type_symbol
_atom_site_fract_x
_atom_site_fract_y
_atom_site_fract_z
V1	V	-4.026708	-0.117774	-0.264153
O2	O	-4.014191	0.004956	-0.258836
O3	O	-3.978255	-0.232849	-0.262625
O4	O	-3.978270	-0.116271	-0.379233
O5	O	-4.014176	-0.112429	-0.141420
V6	V	-4.510347	-0.103057	-0.249440
O7	O	-4.287710	-0.150055	-0.296429
O8	O	-4.699542	-0.070776	-0.217164
O9	O	-4.335593	0.012018	-0.250969
O10	O	-4.640261	-0.225787	-0.254757
O11	O	-4.640276	-0.108402	-0.372173
O12	O	-4.335579	-0.104560	-0.134360
C13	C	-3.823245	-0.260892	-0.258529
C14	C	-3.864916	-0.354970	-0.258046
C15	C	-3.823262	-0.112184	-0.407274
C16	C	-3.864942	-0.111717	-0.501354
C17	C	-3.775496	-0.577782	-0.252513
C18	C	-3.859152	-0.625224	-0.184316
C19	C	-3.941316	-0.527222	-0.257203
C20	C	-3.931935	-0.647410	-0.324549
C21	C	-4.015103	-0.693609	-0.256392
C22	C	-4.024394	-0.573415	-0.188954
C23	C	-4.097180	-0.595606	-0.329250
C24	C	-4.180955	-0.643023	-0.261038
C25	C	-3.898803	-0.431370	-0.257670
C26	C	-4.057627	-0.789458	-0.255920
C27	C	-3.775498	-0.106134	-0.724159
C28	C	-3.931912	-0.178190	-0.793808
C29	C	-3.941326	-0.110841	-0.673600
C30	C	-3.859203	-0.037959	-0.771587
C31	C	-4.015094	-0.109990	-0.839982
C32	C	-4.097222	-0.182961	-0.742019
C33	C	-4.024451	-0.042667	-0.719783
C34	C	-4.181001	-0.114744	-0.789412
C35	C	-3.898825	-0.111331	-0.577752
C36	C	-4.057612	-0.109506	-0.935829
C37	C	-4.153946	0.040057	-0.255062
C38	C	-4.091513	0.134133	-0.255550
C39	C	-4.153929	-0.108650	-0.106315
C40	C	-4.091487	-0.109113	-0.012234
H41	H	-3.603670	-0.549269	-0.248827
O42	O	-4.216382	-0.579574	-0.402437
C43	C	-4.301921	-0.599332	-0.556629
C44	C	-4.166778	-0.617535	-0.473803
H45	H	-4.261897	-0.630029	-0.614351
H46	H	-4.269792	-0.527209	-0.556028
H47	H	-4.474252	-0.627334	-0.560824
H48	H	-3.994405	-0.589587	-0.469555
H49	H	-4.199086	-0.689666	-0.474440
H50	H	-3.893237	-0.235487	-0.826031
O51	O	-3.739841	-0.641437	-0.111248
C52	C	-3.647007	-0.748856	-0.028692
C53	C	-3.782310	-0.730613	-0.111457
H54	H	-3.681263	-0.820953	-0.028841
H55	H	-3.684807	-0.717225	0.029150
H56	H	-3.474654	-0.721886	-0.025139
H57	H	-3.954704	-0.757582	-0.115093
H58	H	-3.744333	-0.762228	-0.169259
H59	H	-4.197436	-0.244308	-0.728700
O60	O	-4.070178	0.025783	-0.681324
C61	C	-3.995955	0.179565	-0.652318
C62	C	-3.943957	0.102114	-0.695899
H63	H	-3.893964	0.241297	-0.664102
H64	H	-3.964829	0.178231	-0.580501
H65	H	-4.167701	0.176497	-0.680141
H66	H	-3.772222	0.105131	-0.668147
H67	H	-3.975228	0.103475	-0.767714
O68	O	-3.570705	-0.102016	-0.690080
C69	C	-3.323288	-0.170104	-0.612280
C70	C	-3.555283	-0.174859	-0.650818
H71	H	-3.310742	-0.228998	-0.580543
H72	H	-3.248127	-0.109912	-0.562514
H73	H	-3.239230	-0.167906	-0.665315
H74	H	-3.639517	-0.177090	-0.597842
H75	H	-3.630285	-0.235043	-0.700604
O76	O	-4.385941	-0.118951	-0.823260
C77	C	-4.634185	-0.050405	-0.899693
C78	C	-4.402018	-0.045517	-0.861379
H79	H	-4.647258	0.008949	-0.930537
H80	H	-4.718644	-0.053755	-0.846776
H81	H	-4.708533	-0.110071	-0.950188
H82	H	-4.327487	0.014143	-0.810895
H83	H	-4.317712	-0.042215	-0.914344
O84	O	-4.070294	-0.534968	-0.120539
C85	C	-4.082348	-0.402616	-0.044251
C86	C	-4.030251	-0.446047	-0.121754
H87	H	-4.050035	-0.330719	-0.045218
H88	H	-3.981317	-0.414895	0.017460
H89	H	-4.254422	-0.430100	-0.047650
H90	H	-3.858223	-0.418590	-0.118438
H91	H	-4.131421	-0.433773	-0.183432
O92	O	-4.386008	-0.676910	-0.265465
C93	C	-4.710971	-0.776768	-0.344818
C94	C	-4.478806	-0.738447	-0.339928
H95	H	-4.786057	-0.826541	-0.405007
H96	H	-4.794877	-0.723682	-0.347084
H97	H	-4.723816	-0.808493	-0.285939
H98	H	-4.465768	-0.706730	-0.398792
H99	H	-4.395006	-0.791567	-0.337620
O100	O	-3.885427	-0.685721	-0.392874
C101	C	-3.619630	-0.695836	-0.465515
C102	C	-3.672046	-0.652375	-0.388113
H103	H	-3.447103	-0.668907	-0.461683
H104	H	-3.719292	-0.683021	-0.527273
H105	H	-3.653680	-0.767811	-0.464861
H106	H	-3.637986	-0.580391	-0.388685
H107	H	-3.572399	-0.665259	-0.326390
O108	O	-3.739335	0.035133	-0.787507
C109	C	-3.390686	0.122207	-0.772337
C110	C	-3.526203	0.039415	-0.754239
H111	H	-3.218342	0.125687	-0.745465
H112	H	-3.428312	0.180034	-0.740588
H113	H	-3.425100	0.122163	-0.844423
H114	H	-3.491865	0.039376	-0.682170
H115	H	-3.488554	-0.018375	-0.786046
