data_functionalizedCrystal
_audit_creation_method	'MofGen! by Chris Wilmer'
_symmetry_space_group_name_H-M	'P1'
_symmetry_Int_Tables_number	1
_symmetry_cell_setting	triclinic
loop_
_symmetry_equiv_pos_as_xyz
  x,y,z
_cell_length_a	10.654556
_cell_length_b	14.519731
_cell_length_c	9.730223
_cell_angle_alpha	89.997677
_cell_angle_beta	89.999363
_cell_angle_gamma	84.088131
loop_
_atom_site_label
_atom_site_type_symbol
_atom_site_fract_x
_atom_site_fract_y
_atom_site_fract_z
O1	O	1.666597	0.129554	-0.114307
O2	O	1.301002	0.141889	-0.114307
O3	O	1.493479	0.001535	-0.114295
O4	O	1.474121	0.269908	-0.114320
O5	O	1.493477	0.001538	0.114285
O6	O	1.301000	0.141892	0.114273
O7	O	1.666595	0.129557	0.114273
Zn8	Zn	1.483797	0.135725	0.150565
Zn9	Zn	1.483800	0.135721	-0.150599
O10	O	1.474118	0.269912	0.114260
C11	C	1.254212	0.140984	-0.000017
C12	C	1.114795	0.138271	-0.000017
C13	C	1.492571	-0.032828	-0.000004
C14	C	1.489853	-0.135222	-0.000004
C15	C	0.918302	0.134450	-0.124627
C16	C	1.049301	0.136994	-0.124621
C17	C	1.049286	0.136993	0.124590
C18	C	0.918292	0.134442	0.124582
C19	C	0.918311	0.134455	-0.268506
C20	C	1.049309	0.136999	-0.268501
C21	C	1.487644	-0.218378	-0.000007
C22	C	1.484885	-0.322701	-0.000017
C23	C	1.482694	-0.405851	-0.000026
C24	C	1.479935	-0.510181	-0.000034
C25	C	1.713385	0.130462	-0.000020
C26	C	1.852802	0.133176	-0.000030
C27	C	1.475027	0.304274	-0.000033
C28	C	1.477745	0.406668	-0.000043
N29	N	1.483804	0.135728	0.356101
N30	N	1.483803	0.135711	-0.356136
C31	C	1.569055	0.073600	0.428033
C32	C	1.569052	0.073589	0.571916
C33	C	1.398543	0.197841	0.571923
C34	C	1.398542	0.197847	0.428042
C35	C	1.667500	0.001867	0.428030
C36	C	1.667497	0.001856	0.571913
H37	H	0.864970	0.133386	0.226041
H38	H	1.101641	0.071317	-0.313141
H39	H	1.073523	0.202119	-0.323735
H40	H	1.329113	0.248429	0.369477
H41	H	1.329124	0.248417	0.630513
H42	H	0.865981	0.200134	-0.313157
H43	H	1.758470	0.024330	0.383401
H44	H	0.894107	0.069340	-0.323749
F45	F	1.793447	0.022504	0.622959
H46	H	1.637621	-0.065130	0.616534
H47	H	1.102624	0.138024	0.226044
F48	F	1.640354	-0.090782	0.376985
