data_functionalizedCrystal
_audit_creation_method	'MofGen! by Chris Wilmer'
_symmetry_space_group_name_H-M	'P1'
_symmetry_Int_Tables_number	1
_symmetry_cell_setting	triclinic
loop_
_symmetry_equiv_pos_as_xyz
  x,y,z
_cell_length_a	9.065215
_cell_length_b	10.489716
_cell_length_c	7.540329
_cell_angle_alpha	90.000441
_cell_angle_beta	89.997574
_cell_angle_gamma	84.771917
loop_
_atom_site_label
_atom_site_type_symbol
_atom_site_fract_x
_atom_site_fract_y
_atom_site_fract_z
O1	O	1.959478	0.187027	-0.147444
O2	O	2.459478	0.687027	0.352556
O3	O	1.530117	0.202373	-0.147450
O4	O	2.030117	0.702373	0.352550
O5	O	1.754586	0.009136	-0.147453
O6	O	2.254586	0.509136	0.352547
O7	O	1.735009	0.380265	-0.147441
O8	O	2.235009	0.880265	0.352559
O9	O	1.754573	0.009133	0.147512
O10	O	2.254573	0.509133	0.647512
O11	O	1.530104	0.202371	0.147515
O12	O	2.030104	0.702371	0.647515
O13	O	1.959465	0.187025	0.147521
O14	O	2.459465	0.687025	0.647521
Cu15	Cu	1.744783	0.194697	0.174451
Cu16	Cu	2.244783	0.694697	0.674451
Cu17	Cu	1.744799	0.194700	-0.174380
Cu18	Cu	2.244799	0.694700	0.325620
O19	O	1.734995	0.380262	0.147524
O20	O	2.234995	0.880262	0.647524
C21	C	1.475131	0.200898	0.000031
C22	C	1.975131	0.700898	0.500031
C23	C	1.311310	0.196491	0.000028
C24	C	1.811310	0.696491	0.500028
C25	C	1.753109	-0.038403	0.000024
C26	C	2.253109	0.461597	0.500024
C27	C	1.748708	-0.180050	0.000008
C28	C	2.248708	0.319950	0.500008
C29	C	1.886359	-0.277228	0.000026
C30	C	2.386359	0.222772	0.500026
C31	C	1.813628	-0.354849	-0.145404
C32	C	2.313628	0.145151	0.354596
C33	C	1.813583	-0.354816	0.145409
C34	C	2.313583	0.145184	0.645409
C35	C	1.676034	-0.255806	-0.145542
C36	C	2.176034	0.244194	0.354458
C37	C	1.676009	-0.255767	0.145401
C38	C	2.176009	0.244233	0.645401
C39	C	1.603176	-0.333340	-0.000064
C40	C	2.103176	0.166660	0.499936
C41	C	2.014451	0.188500	0.000036
C42	C	2.514451	0.688500	0.500036
C43	C	2.178272	0.192907	0.000027
C44	C	2.678272	0.692907	0.500027
C45	C	1.736473	0.427801	0.000043
C46	C	2.236473	0.927801	0.500043
C47	C	1.740874	0.569448	0.000048
C48	C	2.240874	1.069448	0.500048
N49	N	1.744782	0.194695	0.419799
N50	N	2.244782	0.694695	0.919799
N51	N	1.744811	0.194693	-0.419728
N52	N	2.244811	0.694693	0.080272
H53	H	2.006093	-0.252120	-0.000120
H54	H	2.506093	0.247880	0.499880
Br55	Br	1.579264	-0.183547	0.350338
Br56	Br	2.079264	0.316453	0.850338
H57	H	1.483352	-0.358202	-0.000145
H58	H	1.983352	0.141798	0.499855
Br59	Br	1.579246	-0.183987	-0.350699
Br60	Br	2.079246	0.316013	0.149301
Br61	Br	1.910482	-0.426996	-0.350331
Br62	Br	2.410482	0.073004	0.149669
Br63	Br	1.910467	-0.426927	0.350328
Br64	Br	2.410467	0.073073	0.850328
