data_functionalizedCrystal
_audit_creation_method	'MofGen! by Chris Wilmer'
_symmetry_space_group_name_H-M	'P1'
_symmetry_Int_Tables_number	1
_symmetry_cell_setting	triclinic
loop_
_symmetry_equiv_pos_as_xyz
  x,y,z
_cell_length_a	23.532407
_cell_length_b	10.540539
_cell_length_c	9.616153
_cell_angle_alpha	90.000094
_cell_angle_beta	89.998491
_cell_angle_gamma	96.312916
loop_
_atom_site_label
_atom_site_type_symbol
_atom_site_fract_x
_atom_site_fract_y
_atom_site_fract_z
O1	O	0.756279	-0.154076	-0.115466
O2	O	0.590563	-0.176370	-0.115506
O3	O	0.677202	0.019607	-0.115483
O4	O	0.669641	-0.350054	-0.115489
O5	O	0.677190	0.019603	0.115808
O6	O	0.590551	-0.176375	0.115786
O7	O	0.756268	-0.154081	0.115825
Zn8	Zn	0.673408	-0.165228	0.152528
Zn9	Zn	0.673423	-0.165223	-0.152208
O10	O	0.669629	-0.350058	0.115803
C11	C	0.569338	-0.175805	0.000135
C12	C	0.506109	-0.174098	0.000119
N13	N	0.673401	-0.165231	0.360503
C14	C	0.676629	0.066889	0.000160
C15	C	0.674933	0.207782	0.000152
C16	C	0.107702	-0.279368	0.000181
C17	C	0.048291	-0.277782	0.000189
O18	O	0.012191	-0.375368	0.000238
N19	N	0.024895	-0.161273	0.000189
C20	C	0.060914	-0.046343	0.000194
O21	O	0.035558	0.052903	0.000195
C22	C	0.120323	-0.047930	0.000195
C23	C	0.143715	-0.164446	0.000181
C24	C	0.131094	-0.395874	0.000169
C25	C	0.190501	-0.397459	0.000158
C26	C	0.226515	-0.282538	0.000158
C27	C	0.203122	-0.166031	0.000170
C28	C	0.156340	0.066999	0.000210
C29	C	0.215753	0.065402	0.000212
C30	C	0.239146	-0.051114	0.000199
C31	C	0.298542	-0.052694	0.000160
N32	N	0.321938	-0.169203	0.000161
C33	C	0.285924	-0.284125	0.000160
C34	C	-0.063851	-0.043019	0.000193
C35	C	-0.123259	-0.041431	0.000182
C36	C	-0.135878	-0.272870	0.000180
C37	C	-0.076468	-0.274457	0.000181
C38	C	-0.040455	-0.159528	0.000194
C39	C	0.410683	-0.287445	0.000135
C40	C	0.470095	-0.289020	0.000118
C41	C	0.482709	-0.057581	0.000127
C42	C	0.423302	-0.056005	0.000137
C43	C	0.387290	-0.170947	0.000146
O44	O	0.334677	0.044840	0.000117
O45	O	0.311288	-0.383354	0.000177
C46	C	0.777493	-0.154646	0.000182
C47	C	0.840722	-0.156353	0.000188
C48	C	0.670202	-0.397340	0.000157
C49	C	0.671898	-0.538233	0.000155
C50	C	0.609924	0.389075	-0.000383
C51	C	0.611644	0.242514	0.000138
C52	C	0.705383	0.270437	0.132238
C53	C	0.703223	0.416910	0.132349
C54	C	0.704524	0.417476	-0.130673
C55	C	0.705107	0.270513	-0.132419
N56	N	0.673434	-0.165209	-0.360183
C57	C	0.626913	-0.269724	0.580860
C58	C	0.627016	-0.270107	0.419693
C59	C	0.732940	-0.193411	0.418966
C60	C	0.732687	-0.194148	0.580184
C61	C	0.660943	-0.032202	0.580412
C62	C	0.659576	-0.033111	0.419185
H63	H	0.489138	-0.383905	0.000107
H64	H	0.743612	-0.291127	0.617774
H65	H	0.585020	0.418464	0.093796
C66	C	0.600402	-0.004198	0.367574
N67	N	0.555831	0.017575	0.328695
H68	H	0.137305	0.161879	0.000222
C69	C	0.603516	0.004632	0.635381
N70	N	0.560260	0.032360	0.676783
H71	H	0.582777	-0.253428	0.380167
C72	C	-0.148984	0.086746	0.000187
N73	N	-0.168357	0.183294	0.000203
C74	C	0.768169	0.242273	0.138910
N75	N	0.815458	0.221049	0.143939
H76	H	0.691214	0.048248	0.378899
C77	C	0.091487	-0.522309	0.000173
N78	N	0.061659	-0.617549	0.000168
H79	H	0.582536	-0.253328	0.619661
H80	H	0.684046	0.448358	-0.230785
H81	H	0.768414	-0.120986	0.619181
H82	H	0.381368	-0.381042	0.000147
C83	C	0.397570	0.072168	0.000134
N84	N	0.378192	0.168710	0.000143
H85	H	0.694862	0.045566	0.618537
H86	H	0.209541	-0.492339	0.000146
H87	H	0.684221	0.227141	0.230522
C88	C	-0.024241	0.083422	0.000184
N89	N	0.005591	0.178657	0.000176
H90	H	0.682827	0.228925	-0.230132
C91	C	0.780851	-0.093273	0.367164
N92	N	0.816937	-0.017847	0.328144
H93	H	0.245073	0.158995	0.000223
C94	C	0.766279	0.483310	-0.131864
N95	N	0.812791	0.532904	-0.132753
C96	C	0.522335	0.068827	0.000144
N97	N	0.552183	0.164038	0.000173
C98	C	-0.050743	-0.402633	0.000182
N99	N	-0.031370	-0.499180	0.000188
C100	C	0.767447	0.239848	-0.143175
N101	N	0.814404	0.216756	-0.151263
H102	H	0.634839	-0.367888	0.621360
H103	H	-0.165212	-0.366446	0.000186
C104	C	0.579269	0.183894	-0.127771
N105	N	0.554880	0.139746	-0.224113
C106	C	0.637867	-0.403473	0.367569
N107	N	0.646043	-0.503928	0.328310
C108	C	0.748026	-0.322938	0.364423
N109	N	0.759384	-0.420504	0.323348
H110	H	0.587505	0.199964	0.094969
C111	C	0.764712	0.483734	0.140480
N112	N	0.811025	0.534061	0.146614
H113	H	0.584928	0.416857	-0.095105
H114	H	0.680709	0.444369	0.231075
