data_functionalizedCrystal
_audit_creation_method	'MofGen! by Chris Wilmer'
_symmetry_space_group_name_H-M	'P1'
_symmetry_Int_Tables_number	1
_symmetry_cell_setting	triclinic
loop_
_symmetry_equiv_pos_as_xyz
  x,y,z
_cell_length_a	13.185407
_cell_length_b	13.262508
_cell_length_c	11.295483
_cell_angle_alpha	109.979812
_cell_angle_beta	87.298132
_cell_angle_gamma	68.867216
loop_
_atom_site_label
_atom_site_type_symbol
_atom_site_fract_x
_atom_site_fract_y
_atom_site_fract_z
O1	O	1.459985	-0.290898	-0.193210
O2	O	1.140352	-0.181375	-0.157746
O3	O	1.311964	-0.395951	-0.227233
O4	O	1.288373	-0.076323	-0.123722
O5	O	1.296892	-0.377126	-0.023087
O6	O	1.125279	-0.162551	0.046401
O7	O	1.444912	-0.272074	0.010937
Cu8	Cu	1.283720	-0.215594	0.047309
Cu9	Cu	1.301545	-0.237856	-0.194118
O10	O	1.273300	-0.057499	0.080425
C11	C	1.091971	-0.160860	-0.052077
C12	C	0.970265	-0.127789	-0.041369
C13	C	1.304492	-0.426585	-0.138132
C14	C	1.304668	-0.545909	-0.176782
C15	C	0.687166	-0.443412	-0.143579
C16	C	0.801514	-0.474487	-0.153633
C17	C	0.843707	-0.387815	-0.125568
C18	C	0.771542	-0.270063	-0.087447
C19	C	0.657182	-0.238984	-0.077383
C20	C	0.813723	-0.183387	-0.059372
C21	C	0.741558	-0.065635	-0.021251
C22	C	0.627209	-0.034562	-0.011189
C23	C	0.585016	-0.121233	-0.039254
C24	C	0.928083	-0.214466	-0.069437
C25	C	0.898099	-0.010038	-0.003240
C26	C	0.783751	0.021037	0.006814
C27	C	1.272294	-0.841227	0.159405
C28	C	1.272120	-0.729113	0.195721
C29	C	1.280257	-0.683307	0.102598
C30	C	1.288568	-0.749625	-0.026847
C31	C	1.288734	-0.861746	-0.063166
C32	C	1.296697	-0.703825	-0.119972
C33	C	1.305008	-0.770144	-0.249418
C34	C	1.305174	-0.882254	-0.285730
C35	C	1.297037	-0.928060	-0.192608
C36	C	1.296531	-0.591704	-0.083653
C37	C	1.312971	-0.612223	-0.306224
C38	C	1.313145	-0.724337	-0.342540
C39	C	1.493294	-0.292589	-0.094734
C40	C	1.615000	-0.325661	-0.105450
C41	C	1.280773	-0.026864	-0.008679
C42	C	1.280597	0.092458	0.029963
N43	N	1.271190	-0.199939	0.217115
N44	N	1.314083	-0.253521	-0.363927
C45	C	1.404276	-0.366273	0.412539
C46	C	1.394816	-0.354437	0.541036
C47	C	1.242803	-0.164436	0.602606
C48	C	1.252264	-0.176272	0.474109
C49	C	1.333004	-0.277193	0.379080
C50	C	1.342470	-0.289024	0.250582
C51	C	1.190453	-0.099027	0.312153
C52	C	1.180992	-0.087192	0.440649
H53	H	0.986830	-0.310341	-0.100477
C54	C	0.704354	0.150563	0.048757
N55	N	0.644551	0.248122	0.080352
H56	H	0.491906	-0.095939	-0.031076
H57	H	1.470025	-0.448442	0.335166
H58	H	1.452851	-0.426976	0.568272
H59	H	0.568453	0.061321	0.019864
H60	H	1.289754	-0.537715	0.021743
H61	H	0.932452	0.060538	0.019616
C62	C	1.280076	-0.559982	0.142551
N63	N	1.279946	-0.467092	0.172648
C64	C	1.262978	-0.656172	0.338106
N65	N	1.256093	-0.601232	0.445358
H66	H	1.265662	-0.878531	0.235212
C67	C	1.297225	-1.051391	-0.232549
N68	N	1.297363	-1.144284	-0.262629
H69	H	1.177060	-0.082273	0.679993
C70	C	1.314375	-0.955225	-0.428132
N71	N	1.321331	-1.010197	-0.535393
C72	C	1.322278	-0.797297	-0.484927
N73	N	1.329155	-0.852251	-0.592172
H74	H	1.319589	-0.574925	-0.382051
H75	H	1.408215	-0.371197	0.173209
C76	C	1.112049	-0.001033	0.275339
N77	N	1.052998	0.072776	0.247609
H78	H	0.936816	-0.413124	-0.133757
C79	C	0.880887	-0.604010	-0.195567
N80	N	0.940674	-0.701575	-0.227156
H81	H	0.652797	-0.513964	-0.166390
C82	C	1.092175	0.023811	0.545193
N83	N	1.025275	0.107420	0.623934
