data_functionalizedCrystal
_audit_creation_method	'MofGen! by Chris Wilmer'
_symmetry_space_group_name_H-M	'P1'
_symmetry_Int_Tables_number	1
_symmetry_cell_setting	triclinic
loop_
_symmetry_equiv_pos_as_xyz
  x,y,z
_cell_length_a	10.654553
_cell_length_b	9.730217
_cell_length_c	10.654550
_cell_angle_alpha	89.996061
_cell_angle_beta	95.514460
_cell_angle_gamma	90.004176
loop_
_atom_site_label
_atom_site_type_symbol
_atom_site_fract_x
_atom_site_fract_y
_atom_site_fract_z
O1	O	1.667837	0.114302	-0.176418
O2	O	1.302359	0.114301	-0.193220
O3	O	1.493501	0.114296	-0.002080
O4	O	1.476695	0.114306	-0.367558
O5	O	1.493488	-0.114284	-0.002072
O6	O	1.302346	-0.114279	-0.193212
O7	O	1.667824	-0.114278	-0.176410
Zn8	Zn	1.485083	-0.150571	-0.184810
Zn9	Zn	1.485101	0.150593	-0.184820
O10	O	1.476682	-0.114274	-0.367551
C11	C	1.255555	0.000010	-0.191982
C12	C	1.116112	0.000010	-0.188288
N13	N	1.485079	-0.356107	-0.184803
C14	C	0.919564	-0.124579	-0.183070
C15	C	1.050585	-0.124587	-0.186548
C16	C	1.050610	0.124623	-0.186564
C17	C	0.919590	0.124630	-0.183095
C18	C	0.919551	-0.268459	-0.183056
C19	C	1.050572	-0.268467	-0.186534
C20	C	1.331435	-0.356168	-0.031025
C21	C	1.254627	-0.428139	0.045866
C22	C	1.254645	-0.572019	0.045867
C23	C	1.331478	-0.643931	-0.031036
C24	C	1.408286	-0.571961	-0.107927
C25	C	1.408262	-0.428078	-0.107916
C26	C	1.561922	-0.571900	-0.261709
C27	C	1.561912	-0.428020	-0.261705
C28	C	1.638755	-0.643813	-0.338612
C29	C	1.715572	-0.571842	-0.415498
C30	C	1.715551	-0.427954	-0.415494
C31	C	1.638721	-0.356050	-0.338596
C32	C	1.714628	0.000015	-0.177649
C33	C	1.854072	0.000024	-0.181342
C34	C	1.492261	0.000008	0.044722
C35	C	1.488569	0.000012	0.184165
N36	N	1.485114	0.356130	-0.184818
C37	C	1.477922	0.000018	-0.414352
C38	C	1.481614	0.000022	-0.553796
C39	C	1.601110	0.000009	0.263650
C40	C	1.597634	0.000018	0.394670
C41	C	1.369064	0.000030	0.366710
C42	C	1.372542	0.000030	0.235691
C43	C	1.733073	-0.000004	0.279794
C44	C	1.729596	0.000006	0.410815
H45	H	0.866269	0.226094	-0.181704
H46	H	1.779312	-0.095653	0.452577
H47	H	1.775089	-0.098700	0.244170
H48	H	1.331475	-0.761086	-0.031040
H49	H	0.873264	-0.323703	-0.269844
C50	C	1.250216	-0.000024	0.149602
C51	C	1.147866	-0.000047	0.222774
C52	C	1.035155	-0.000114	0.143513
H53	H	1.246655	0.079666	0.097880
H54	H	1.246739	-0.079766	0.097933
H55	H	1.151342	0.079688	0.274421
H56	H	1.151385	-0.079731	0.274494
H57	H	1.031678	-0.079857	0.091844
H58	H	1.031608	0.079577	0.091794
H59	H	0.965698	-0.000143	0.193148
H60	H	1.103971	0.226073	-0.187993
H61	H	0.889976	-0.313101	-0.091457
C62	C	1.782924	0.131435	0.471879
C63	C	1.886070	0.099480	0.558446
C64	C	1.935211	0.220511	0.614738
H65	H	1.809432	0.190899	0.408823
H66	H	1.719778	0.175738	0.514421
H67	H	1.949204	0.055197	0.515905
H68	H	1.859594	0.040034	0.621525
H69	H	1.872065	0.264815	0.657281
H70	H	1.961712	0.279967	0.551675
H71	H	2.005193	0.198845	0.673489
C72	C	1.799190	-0.649742	-0.498900
C73	C	1.925438	-0.614704	-0.465460
C74	C	2.002504	-0.686430	-0.542272
H75	H	1.788362	-0.745759	-0.487965
H76	H	1.776668	-0.626124	-0.584632
H77	H	1.947953	-0.638331	-0.379749
H78	H	1.936306	-0.518699	-0.476400
H79	H	1.979982	-0.662812	-0.628004
H80	H	1.991665	-0.782443	-0.531331
H81	H	2.088171	-0.662657	-0.519601
C82	C	1.089756	-0.328115	-0.308719
C83	C	0.982161	-0.367612	-0.386127
C84	C	1.018212	-0.422573	-0.498685
H85	H	1.134793	-0.260768	-0.350832
H86	H	1.142147	-0.405976	-0.290448
H87	H	0.929791	-0.289761	-0.404401
H88	H	0.937111	-0.434972	-0.344054
H89	H	1.070603	-0.500435	-0.480413
H90	H	1.063250	-0.355219	-0.540786
H91	H	0.945216	-0.449391	-0.551215
H92	H	1.096853	-0.323706	-0.099734
H93	H	1.638700	-0.238895	-0.338582
H94	H	1.192069	-0.369572	0.108476
C95	C	1.171089	-0.650236	0.129131
C96	C	1.086688	-0.732828	0.053775
C97	C	1.009686	-0.804886	0.130433
H98	H	1.221924	-0.706469	0.186465
H99	H	1.125251	-0.586849	0.174903
H100	H	1.132521	-0.796208	0.008024
H101	H	1.035825	-0.676630	-0.003556
H102	H	0.963849	-0.741499	0.176205
H103	H	1.060532	-0.861111	0.187762
H104	H	0.952404	-0.860924	0.079314
C105	C	1.798862	-0.349996	-0.499189
C106	C	1.765320	-0.385016	-0.625420
C107	C	1.842050	-0.313249	-0.702556
H108	H	1.787926	-0.253985	-0.488346
H109	H	1.884610	-0.373592	-0.476740
H110	H	1.679594	-0.361410	-0.647862
H111	H	1.776262	-0.481015	-0.636303
H112	H	1.927798	-0.336845	-0.680107
H113	H	1.831108	-0.217241	-0.691702
H114	H	1.819311	-0.337009	-0.788211
H115	H	1.331421	-0.239014	-0.031008
C116	C	1.243223	-0.000028	0.422898
C117	C	1.264262	-0.000058	0.554652
C118	C	1.148365	-0.000131	0.606451
H119	H	1.196747	0.079662	0.395814
H120	H	1.196817	-0.079770	0.395761
H121	H	1.310649	0.079677	0.581778
H122	H	1.310719	-0.079742	0.581771
H123	H	1.101958	-0.079873	0.579314
H124	H	1.101897	0.079560	0.579358
H125	H	1.162623	-0.000163	0.695851
C126	C	1.801693	0.127591	0.240431
C127	C	1.720436	0.205643	0.157481
C128	C	1.783605	0.323180	0.121181
H129	H	1.828016	0.180895	0.312902
H130	H	1.873335	0.101065	0.199579
H131	H	1.648817	0.232170	0.198334
H132	H	1.694110	0.152379	0.084991
H133	H	1.855247	0.296655	0.080329
H134	H	1.809925	0.376473	0.193659
H135	H	1.728486	0.376147	0.064887
H136	H	1.638758	-0.760967	-0.338612
