data_functionalizedCrystal
_audit_creation_method	'MofGen! by Chris Wilmer'
_symmetry_space_group_name_H-M	'P1'
_symmetry_Int_Tables_number	1
_symmetry_cell_setting	triclinic
loop_
_symmetry_equiv_pos_as_xyz
  x,y,z
_cell_length_a	17.699083
_cell_length_b	16.109301
_cell_length_c	15.186229
_cell_angle_alpha	90.000638
_cell_angle_beta	90.004632
_cell_angle_gamma	83.372248
loop_
_atom_site_label
_atom_site_type_symbol
_atom_site_fract_x
_atom_site_fract_y
_atom_site_fract_z
O1	O	-0.097285	-1.102963	-0.073175
O2	O	0.236049	-0.769630	0.260159
O3	O	0.569382	-0.436296	0.593492
O4	O	-0.109391	-0.860880	-0.073189
O5	O	0.223942	-0.527547	0.260144
O6	O	0.557275	-0.194214	0.593478
O7	O	0.006841	-0.988761	-0.073174
O8	O	0.340175	-0.655428	0.260160
O9	O	0.673508	-0.322094	0.593493
O10	O	-0.213517	-0.975082	-0.073190
O11	O	0.119816	-0.641749	0.260143
O12	O	0.453149	-0.308416	0.593477
O13	O	0.006843	-0.988753	0.073284
O14	O	0.340176	-0.655419	0.406617
O15	O	0.673510	-0.322086	0.739950
O16	O	-0.109390	-0.860872	0.073268
O17	O	0.223944	-0.527538	0.406602
O18	O	0.557277	-0.194205	0.739935
O19	O	-0.097283	-1.102955	0.073283
O20	O	0.236050	-0.769621	0.406616
O21	O	0.569384	-0.436288	0.739949
Zn22	Zn	-0.103336	-0.981912	0.096529
Zn23	Zn	0.229997	-0.648578	0.429862
Zn24	Zn	0.563331	-0.315245	0.763195
Zn25	Zn	-0.103338	-0.981923	-0.096435
Zn26	Zn	0.229995	-0.648590	0.236898
Zn27	Zn	0.563328	-0.315256	0.570232
O28	O	-0.213516	-0.975074	0.073267
O29	O	0.119818	-0.641740	0.406601
O30	O	0.453151	-0.308407	0.739934
C31	C	-0.108900	-0.829902	0.000038
C32	C	0.224433	-0.496569	0.333371
C33	C	0.557766	-0.163235	0.666705
C34	C	-0.107430	-0.737609	0.000033
C35	C	0.225903	-0.404276	0.333366
C36	C	0.559237	-0.070943	0.666700
C37	C	0.035040	-0.988267	0.000055
C38	C	0.368373	-0.654933	0.333388
C39	C	0.701707	-0.321600	0.666722
C40	C	0.119060	-0.986796	0.000055
C41	C	0.452393	-0.653463	0.333389
C42	C	0.785727	-0.320130	0.666722
C43	C	-0.241714	-0.975568	0.000037
C44	C	0.091619	-0.642235	0.333370
C45	C	0.424952	-0.308901	0.666703
C46	C	-0.325734	-0.977039	0.000031
C47	C	0.007599	-0.643705	0.333364
C48	C	0.340932	-0.310372	0.666697
C49	C	0.167574	-1.061860	0.000061
C50	C	0.500907	-0.728526	0.333394
C51	C	0.834241	-0.395193	0.666728
C52	C	0.246519	-1.060473	0.000053
C53	C	0.579853	-0.727140	0.333387
C54	C	0.913186	-0.393806	0.666720
C55	C	0.276949	-0.984022	0.000046
C56	C	0.610283	-0.650689	0.333379
C57	C	0.943616	-0.317356	0.666713
C58	C	0.228429	-0.908953	0.000038
C59	C	0.561762	-0.575620	0.333371
C60	C	0.895096	-0.242286	0.666704
C61	C	0.149485	-0.910341	0.000039
C62	C	0.482819	-0.577007	0.333373
C63	C	0.816152	-0.243674	0.666706
C64	C	0.546800	-0.903356	0.000030
C65	C	0.880134	-0.570023	0.333364
C66	C	1.213467	-0.236689	0.666697
C67	C	0.625750	-0.901974	0.000031
C68	C	0.959083	-0.568641	0.333365
C69	C	1.292417	-0.235308	0.666698
C70	C	0.643834	-1.053488	0.000044
C71	C	0.977167	-0.720155	0.333377
C72	C	1.310501	-0.386822	0.666711
C73	C	0.564890	-1.054876	0.000046
C74	C	0.898224	-0.721543	0.333379
C75	C	1.231557	-0.388209	0.666712
C76	C	0.516377	-0.979807	0.000033
C77	C	0.849711	-0.646474	0.333366
C78	C	1.183044	-0.313141	0.666699
C79	C	0.430776	-0.981312	0.000040
C80	C	0.764109	-0.647978	0.333373
C81	C	1.097443	-0.314645	0.666706
C82	C	0.362549	-0.982517	0.000045
C83	C	0.695882	-0.649184	0.333379
C84	C	1.029216	-0.315850	0.666712
C85	C	-0.097774	-1.133933	0.000054
C86	C	0.235559	-0.800600	0.333387
C87	C	0.568893	-0.467266	0.666720
C88	C	-0.099244	-1.226226	0.000053
C89	C	0.234089	-0.892892	0.333387
C90	C	0.567422	-0.559559	0.666720
N91	N	-0.103334	-0.981910	0.228221
N92	N	0.229999	-0.648577	0.561555
N93	N	0.563333	-0.315244	0.894888
C94	C	-0.172981	-0.515224	0.000038
C95	C	0.160352	-0.181891	0.333372
C96	C	0.493685	0.151443	0.666705
C97	C	-0.171594	-0.428506	0.000044
C98	C	0.161739	-0.095173	0.333377
C99	C	0.495073	0.238161	0.666711
C100	C	-0.033688	-0.448618	0.000050
C101	C	0.299646	-0.115284	0.333384
C102	C	0.632979	0.218049	0.666717
C103	C	-0.035076	-0.535334	0.000051
C104	C	0.298257	-0.202001	0.333384
C105	C	0.631591	0.131333	0.666718
C106	C	-0.104725	-0.568635	0.000040
C107	C	0.228608	-0.235301	0.333374
C108	C	0.561942	0.098032	0.666707
C109	C	-0.101949	-0.395200	0.000046
C110	C	0.231384	-0.061867	0.333379
C111	C	0.564717	0.271466	0.666712
C112	C	-0.100445	-0.301177	0.000052
C113	C	0.232889	0.032157	0.333385
C114	C	0.566222	0.365490	0.666719
C115	C	-0.106230	-0.662664	0.000036
C116	C	0.227103	-0.329331	0.333369
C117	C	0.560436	0.004003	0.666702
N118	N	-0.103334	-0.981931	-0.228128
N119	N	0.229999	-0.648598	0.105206
N120	N	0.563332	-0.315265	0.438539
C121	C	-0.051884	-1.038555	0.453951
C122	C	0.281450	-0.705222	0.787284
C123	C	0.614783	-0.371888	1.120618
C124	C	-0.051882	-1.038558	0.546141
C125	C	0.281452	-0.705224	0.879474
C126	C	0.614785	-0.371891	1.212807
C127	C	-0.154787	-0.925280	0.546136
C128	C	0.178546	-0.591947	0.879470
C129	C	0.511879	-0.258614	1.212803
C130	C	-0.154785	-0.925274	0.453948
C131	C	0.178549	-0.591941	0.787282
C132	C	0.511882	-0.258608	1.120615
C133	C	-0.103334	-0.981916	0.407858
C134	C	0.229999	-0.648583	0.741191
C135	C	0.563333	-0.315250	1.074525
C136	C	-0.103334	-0.981925	0.592236
C137	C	0.229999	-0.648592	0.925569
C138	C	0.563332	-0.315258	1.258902
C139	C	-0.103333	-0.981927	0.692192
C140	C	0.230000	-0.648594	1.025525
C141	C	0.563334	-0.315261	1.358858
C142	C	-0.103334	-0.981913	0.307896
C143	C	0.229999	-0.648580	0.641229
C144	C	0.563332	-0.315247	0.974562
H145	H	0.142805	-1.124115	0.000072
H146	H	0.476138	-0.790781	0.333406
H147	H	0.809471	-0.457448	0.666739
Cl148	Cl	-0.260540	-0.557085	0.000030
Cl149	Cl	0.072793	-0.223751	0.333364
Cl150	Cl	0.406127	0.109582	0.666697
H151	H	-0.227175	-0.385022	0.000044
H152	H	0.106158	-0.051688	0.333377
H153	H	0.439491	0.281645	0.666711
Cl154	Cl	0.050740	-0.602484	0.000061
Cl155	Cl	0.384073	-0.269151	0.333394
Cl156	Cl	0.717406	0.064182	0.666728
H157	H	-0.009988	-1.084675	0.416427
H158	H	0.323345	-0.751342	0.749760
H159	H	0.656679	-0.418009	1.083093
H160	H	0.683343	-1.114613	0.000050
H161	H	1.016677	-0.781280	0.333383
H162	H	1.350010	-0.447946	0.666717
H163	H	0.650523	-0.839715	0.000027
H164	H	0.983856	-0.506382	0.333360
H165	H	1.317189	-0.173049	0.666694
Cl166	Cl	0.012803	-1.109762	0.604084
Cl167	Cl	0.346136	-0.776428	0.937417
Cl168	Cl	0.679470	-0.443095	1.270750
H169	H	0.023018	-0.421494	0.000064
H170	H	0.356352	-0.088160	0.333398
H171	H	0.689685	0.245173	0.666731
H172	H	-0.196682	-0.879148	0.416417
H173	H	0.136651	-0.545815	0.749750
H174	H	0.469985	-0.212482	1.083083
Cl175	Cl	0.307505	-1.154843	0.000063
Cl176	Cl	0.640839	-0.821510	0.333396
Cl177	Cl	0.974172	-0.488176	0.666730
Cl178	Cl	0.526640	-1.150989	0.000052
Cl179	Cl	0.859974	-0.817656	0.333385
Cl180	Cl	1.193307	-0.484322	0.666718
H181	H	0.507310	-0.842230	0.000020
H182	H	0.840643	-0.508897	0.333353
H183	H	1.173976	-0.175564	0.666687
Cl184	Cl	0.266684	-0.812843	0.000018
Cl185	Cl	0.600017	-0.479509	0.333351
Cl186	Cl	0.933351	-0.146176	0.666684
Cl187	Cl	0.088496	-0.815971	0.000029
Cl188	Cl	0.421829	-0.482638	0.333362
Cl189	Cl	0.755163	-0.149304	0.666695
H190	H	-0.196679	-0.879165	0.583672
H191	H	0.136655	-0.545831	0.917005
H192	H	0.469988	-0.212498	1.250339
