data_functionalizedCrystal
_audit_creation_method	'MofGen! by Chris Wilmer'
_symmetry_space_group_name_H-M	'P1'
_symmetry_Int_Tables_number	1
_symmetry_cell_setting	triclinic
loop_
_symmetry_equiv_pos_as_xyz
  x,y,z
_cell_length_a	19.077105
_cell_length_b	16.959454
_cell_length_c	19.076919
_cell_angle_alpha	92.275489
_cell_angle_beta	90.076224
_cell_angle_gamma	87.716588
loop_
_atom_site_label
_atom_site_type_symbol
_atom_site_fract_x
_atom_site_fract_y
_atom_site_fract_z
Zn1	Zn	1.058295	-0.382399	-0.440440
Zn2	Zn	1.558295	0.117601	0.059560
Zn3	Zn	1.062944	-0.509490	-0.322940
Zn4	Zn	1.562944	-0.009490	0.177060
Zn5	Zn	0.945513	-0.371810	-0.318233
Zn6	Zn	1.445513	0.128190	0.181767
Zn7	Zn	0.940765	-0.509013	-0.435693
Zn8	Zn	1.440765	-0.009013	0.064307
O9	O	1.001879	-0.443178	-0.379326
O10	O	1.501879	0.056822	0.120674
O11	O	1.157244	-0.403889	-0.428810
O12	O	1.657244	0.096111	0.071190
O13	O	1.051298	-0.486995	-0.223984
O14	O	1.551298	0.013005	0.276016
O15	O	0.960515	-0.262606	-0.334460
O16	O	1.460515	0.237394	0.165540
O17	O	1.160659	-0.497262	-0.342484
O18	O	1.660659	0.002738	0.157516
O19	O	1.043376	-0.270386	-0.424245
O20	O	1.543376	0.229614	0.075755
O21	O	0.965022	-0.385842	-0.220526
O22	O	1.465022	0.114158	0.279474
O23	O	0.846551	-0.385379	-0.329857
O24	O	1.346551	0.114621	0.170143
O25	O	0.952424	-0.496450	-0.534654
O26	O	1.452424	0.003550	-0.034654
O27	O	0.843063	-0.486182	-0.416155
O28	O	1.343063	0.013818	0.083845
O29	O	1.038773	-0.403426	-0.538142
O30	O	1.538773	0.096574	-0.038142
O31	O	1.046695	-0.620035	-0.337881
O32	O	1.546695	-0.120035	0.162119
O33	O	0.956931	-0.619685	-0.420720
O34	O	1.456931	-0.119685	0.079280
C35	C	0.819311	-0.434581	-0.371980
C36	C	1.319311	0.065419	0.128020
C37	C	0.741206	-0.430922	-0.368854
C38	C	1.241206	0.069078	0.131146
C39	C	0.702718	-0.481759	-0.412246
C40	C	1.202718	0.018241	0.087754
C41	C	0.629330	-0.478312	-0.409312
C42	C	1.129330	0.021688	0.090688
C43	C	0.594433	-0.424030	-0.362983
C44	C	1.094433	0.075970	0.137017
C45	C	0.632926	-0.373188	-0.319590
C46	C	1.132926	0.126812	0.180410
C47	C	0.706312	-0.376632	-0.322528
C48	C	1.206312	0.123368	0.177472
C49	C	0.375144	-0.408090	-0.349389
C50	C	0.875144	0.091910	0.150611
C51	C	0.301753	-0.404651	-0.346453
C52	C	0.801753	0.095349	0.153547
C53	C	0.298162	-0.509774	-0.436177
C54	C	0.798162	-0.009774	0.063823
C55	C	0.371550	-0.513217	-0.439107
C56	C	0.871550	-0.013217	0.060893
C57	C	0.410037	-0.462372	-0.395717
C58	C	0.910037	0.037628	0.104283
N59	N	0.519419	-0.420507	-0.359981
N60	N	1.019419	0.079493	0.140019
N61	N	0.485049	-0.465892	-0.398723
N62	N	0.985049	0.034108	0.101277
C63	C	1.001821	-0.648541	-0.379312
C64	C	1.501821	-0.148541	0.120688
C65	C	1.001859	-0.736400	-0.379332
C66	C	1.501859	-0.236400	0.120668
C67	C	0.955205	-1.107727	-0.422458
C68	C	1.455205	-0.607727	0.077542
C69	C	1.048747	-1.108038	-0.336274
C70	C	1.548747	-0.608038	0.163726
C71	C	1.048723	-1.025491	-0.336266
C72	C	1.548723	-0.525491	0.163734
C73	C	1.001938	-0.984058	-0.379355
C74	C	1.501938	-0.484058	0.120645
C75	C	0.955178	-1.025172	-0.422451
C76	C	1.455178	-0.525172	0.077549
C77	C	1.095477	-0.984370	-0.293166
C78	C	1.595477	-0.484370	0.206834
C79	C	1.095454	-0.901818	-0.293156
C80	C	1.595454	-0.401818	0.206844
C81	C	1.048672	-0.860383	-0.336249
C82	C	1.548672	-0.360383	0.163751
C83	C	1.001911	-0.901503	-0.379347
C84	C	1.501911	-0.401503	0.120653
C85	C	0.955126	-0.860069	-0.422436
C86	C	1.455126	-0.360069	0.077564
C87	C	0.908367	-0.901187	-0.465538
C88	C	1.408367	-0.401187	0.034462
C89	C	0.908396	-0.983737	-0.465543
C90	C	1.408396	-0.483737	0.034457
C91	C	1.048644	-0.777834	-0.336244
C92	C	1.548644	-0.277834	0.163756
C93	C	0.955099	-0.777514	-0.422428
C94	C	1.455099	-0.277514	0.077572
C95	C	1.185161	-0.451810	-0.386702
C96	C	1.685161	0.048190	0.113298
C97	C	1.263265	-0.455488	-0.389844
C98	C	1.763265	0.044512	0.110156
C99	C	0.994550	-0.451066	-0.562607
C100	C	1.494550	0.048934	-0.062607
C101	C	0.991427	-0.454427	-0.640710
C102	C	1.491427	0.045573	-0.140710
C103	C	1.001956	-0.237015	-0.379357
C104	C	1.501956	0.262985	0.120643
C105	C	1.001989	-0.149160	-0.379370
C106	C	1.501989	0.350840	0.120630
C107	C	1.034915	-0.407577	-0.679220
C108	C	1.534915	0.092423	-0.179220
C109	C	1.031972	-0.410731	-0.752606
C110	C	1.531972	0.089269	-0.252606
C111	C	0.985544	-0.460742	-0.787481
C112	C	1.485544	0.039258	-0.287481
C113	C	0.942052	-0.507595	-0.748966
C114	C	1.442052	-0.007595	-0.248966
C115	C	0.944992	-0.504435	-0.675581
C116	C	1.444992	-0.004435	-0.175581
C117	C	0.971927	-0.475381	-1.006763
C118	C	1.471927	0.024619	-0.506763
C119	C	0.968992	-0.478539	-1.080153
C120	C	1.468992	0.021461	-0.580153
C121	C	1.058911	-0.381674	-1.083788
C122	C	1.558911	0.118326	-0.583788
C123	C	1.061850	-0.378523	-1.010402
C124	C	1.561850	0.121477	-0.510402
C125	C	1.018355	-0.425372	-0.971893
C126	C	1.518355	0.074628	-0.471893
N127	N	0.982536	-0.463970	-0.862493
N128	N	1.482536	0.036030	-0.362493
N129	N	1.021360	-0.422140	-0.896882
N130	N	1.521360	0.077860	-0.396882
C131	C	1.009220	-0.435266	-0.196760
C132	C	1.509220	0.064734	0.303240
C133	C	1.012479	-0.431688	-0.118663
C134	C	1.512479	0.068312	0.381337
H135	H	0.917003	-0.743785	-0.457519
H136	H	1.417003	-0.243785	0.042481
C137	C	1.085985	-0.352567	-0.640861
C138	C	1.585985	0.147433	-0.140861
H139	H	1.081514	-0.357398	-0.591640
H140	H	1.581514	0.142602	-0.091640
H141	H	1.075240	-0.299493	-0.652482
H142	H	1.575240	0.200507	-0.152482
H143	H	1.132714	-0.366882	-0.654790
H144	H	1.632714	0.133118	-0.154790
H145	H	1.133528	-0.868345	-0.258061
H146	H	1.633528	-0.368345	0.241939
C147	C	1.079812	-0.359199	-0.794964
C148	C	1.579812	0.140801	-0.294964
H149	H	1.107890	-0.328971	-0.763684
H150	H	1.607890	0.171029	-0.263684
H151	H	1.051802	-0.324723	-0.822514
H152	H	1.551802	0.175277	-0.322514
H153	H	1.109271	-0.392117	-0.824821
H154	H	1.609271	0.107883	-0.324821
C155	C	0.856908	-0.855609	-0.512935
C156	C	1.356908	-0.355609	-0.012935
H157	H	0.829061	-0.891916	-0.538605
H158	H	1.329061	-0.391916	-0.038605
H159	H	0.882530	-0.825953	-0.544645
H160	H	1.382530	-0.325953	-0.044645
H161	H	0.827374	-0.820846	-0.484790
H162	H	1.327374	-0.320846	0.015210
C163	C	1.112921	-0.323512	-0.972045
C164	C	1.612921	0.176488	-0.472045
H165	H	1.138397	-0.296056	-1.005491
H166	H	1.638397	0.203944	-0.505491
H167	H	1.144671	-0.353960	-0.944648
H168	H	1.644671	0.146040	-0.444648
H169	H	1.087199	-0.286570	-0.942339
H170	H	1.587199	0.213430	-0.442339
C171	C	0.903774	-1.152948	-0.469870
C172	C	1.403774	-0.652948	0.030130
H173	H	0.875912	-1.116447	-0.495533
H174	H	1.375912	-0.616447	0.004467
H175	H	0.874265	-1.182592	-0.441743
H176	H	1.374265	-0.682592	0.058257
H177	H	0.929421	-1.187697	-0.501597
H178	H	1.429421	-0.687697	-0.001597
C179	C	0.417474	-0.352167	-0.301660
C180	C	0.917474	0.147833	0.198340
H181	H	0.466178	-0.361982	-0.310048
H182	H	0.966178	0.138018	0.189952
H183	H	0.407323	-0.361053	-0.253948
H184	H	0.907323	0.138947	0.246052
H185	H	0.405044	-0.298958	-0.311550
H186	H	0.905044	0.201042	0.188450
H187	H	0.931183	-0.519265	-1.108546
H188	H	1.431183	-0.019265	-0.608546
C189	C	1.106746	-0.330139	-1.126149
C190	C	1.606746	0.169861	-0.626149
H191	H	1.098343	-0.339176	-1.174849
H192	H	1.598343	0.160824	-0.674849
H193	H	1.154436	-0.343409	-1.116023
H194	H	1.654436	0.156591	-0.616023
H195	H	1.096957	-0.276027	-1.113715
H196	H	1.596957	0.223973	-0.613715
H197	H	0.936521	-0.513541	-0.975418
H198	H	1.436521	-0.013541	-0.475418
C199	C	0.890983	-0.562606	-0.787326
C200	C	1.390983	-0.062606	-0.287326
H201	H	0.895465	-0.557785	-0.836548
H202	H	1.395465	-0.057785	-0.336548
H203	H	0.844256	-0.548298	-0.773400
H204	H	1.344256	-0.048298	-0.273400
H205	H	0.901734	-0.615682	-0.775704
H206	H	1.401734	-0.115682	-0.275704
C207	C	0.748649	-0.320710	-0.274798
C208	C	1.248649	0.179290	0.225202
H209	H	0.717356	-0.287892	-0.246782
H210	H	1.217356	0.212108	0.253218
H211	H	0.776213	-0.288823	-0.302880
H212	H	1.276213	0.211177	0.197120
H213	H	0.778490	-0.350918	-0.245277
H214	H	1.278490	0.149082	0.254723
H215	H	1.086833	-1.141778	-0.301189
H216	H	1.586833	-0.641778	0.198811
C217	C	0.409932	-0.572922	-0.490074
C218	C	0.909932	-0.072922	0.009926
H219	H	0.376499	-0.602701	-0.515501
H220	H	0.876499	-0.102701	-0.015501
H221	H	0.439624	-0.607498	-0.464289
H222	H	0.939624	-0.107498	0.035711
H223	H	0.437346	-0.545395	-0.521885
H224	H	0.937346	-0.045395	-0.021885
C225	C	0.897173	-0.555991	-0.633221
C226	C	1.397173	-0.055991	-0.133221
H227	H	0.869110	-0.586239	-0.664500
H228	H	1.369110	-0.086239	-0.164500
H229	H	0.867710	-0.523096	-0.603356
H230	H	1.367710	-0.023096	-0.103356
H231	H	0.925205	-0.590462	-0.605681
H232	H	1.425205	-0.090462	-0.105681
C233	C	0.741103	-0.541473	-0.463202
C234	C	1.241103	-0.041473	0.036798
H235	H	0.790322	-0.536252	-0.458733
H236	H	1.290322	-0.036252	0.041267
H237	H	0.727202	-0.531462	-0.509953
H238	H	1.227202	-0.031462	-0.009953
H239	H	0.729471	-0.593553	-0.452347
H240	H	1.229471	-0.093553	0.047653
C241	C	0.856963	-1.028964	-0.512949
C242	C	1.356963	-0.528964	-0.012949
H243	H	0.829100	-0.992468	-0.538616
H244	H	1.329100	-0.492468	-0.038616
H245	H	0.827455	-1.058603	-0.484816
H246	H	1.327455	-0.558603	0.015184
H247	H	0.882609	-1.063718	-0.544672
H248	H	1.382609	-0.563718	-0.044672
H249	H	0.604506	-0.328988	-0.281870
H250	H	1.104506	0.171012	0.218130
C251	C	1.146944	-1.029947	-0.245783
C252	C	1.646944	-0.529947	0.254217
H253	H	1.140271	-1.085000	-0.251971
H254	H	1.640271	-0.585000	0.248029
H255	H	1.138592	-1.013936	-0.198145
H256	H	1.638592	-0.513936	0.301855
H257	H	1.193730	-1.019034	-0.258016
H258	H	1.693730	-0.519034	0.241984
H259	H	0.597996	-0.519710	-0.444645
H260	H	1.097996	-0.019710	0.055355
C261	C	0.255825	-0.565692	-0.483908
C262	C	0.755825	-0.065692	0.016092
H263	H	0.207121	-0.555864	-0.475530
H264	H	0.707121	-0.055864	0.024470
H265	H	0.268250	-0.618901	-0.474029
H266	H	0.768250	-0.118901	0.025971
H267	H	0.265979	-0.556794	-0.531622
H268	H	0.765979	-0.056794	-0.031622
C269	C	1.100069	-0.732603	-0.288838
C270	C	1.600069	-0.232603	0.211162
H271	H	1.093351	-0.677505	-0.295001
H272	H	1.593351	-0.177505	0.204999
H273	H	1.146866	-0.748755	-0.301055
H274	H	1.646866	-0.248755	0.198945
H275	H	1.091707	-0.743637	-0.241203
H276	H	1.591707	-0.243637	0.258797
C277	C	0.263366	-0.344934	-0.295493
C278	C	0.763366	0.155066	0.204507
H279	H	0.296797	-0.315140	-0.270077
H280	H	0.796797	0.184860	0.229923
H281	H	0.235951	-0.372450	-0.263683
H282	H	0.735951	0.127550	0.236317
H283	H	0.233676	-0.310360	-0.321289
H284	H	0.733676	0.189640	0.178711
