data_functionalizedCrystal
_audit_creation_method	'MofGen! by Chris Wilmer'
_symmetry_space_group_name_H-M	'P1'
_symmetry_Int_Tables_number	1
_symmetry_cell_setting	triclinic
loop_
_symmetry_equiv_pos_as_xyz
  x,y,z
_cell_length_a	10.654550
_cell_length_b	15.944551
_cell_length_c	9.130313
_cell_angle_alpha	89.994529
_cell_angle_beta	89.999724
_cell_angle_gamma	83.991834
loop_
_atom_site_label
_atom_site_type_symbol
_atom_site_fract_x
_atom_site_fract_y
_atom_site_fract_z
O1	O	1.666313	0.117977	-0.121694
O2	O	1.300689	0.129217	-0.121721
O3	O	1.493485	0.001379	-0.121693
O4	O	1.473517	0.245814	-0.121721
O5	O	1.493472	0.001376	0.121906
O6	O	1.300676	0.129213	0.121878
O7	O	1.666300	0.117973	0.121905
Cu8	Cu	1.483487	0.123592	0.144134
Cu9	Cu	1.483502	0.123597	-0.143950
O10	O	1.473503	0.245810	0.121878
C11	C	1.253895	0.128389	0.000075
C12	C	1.114484	0.125920	0.000065
C13	C	1.034024	0.201189	0.000061
C14	C	0.903034	0.198863	0.000087
C15	C	0.932975	0.045995	0.000115
C16	C	1.063963	0.048321	0.000100
C17	C	1.492650	-0.029921	0.000106
C18	C	1.490165	-0.123182	0.000107
C19	C	1.364720	-0.338764	0.000077
C20	C	1.422966	-0.399446	0.120191
C21	C	1.485668	-0.293933	0.000095
C22	C	1.423007	-0.399426	-0.119979
C23	C	1.481317	-0.458871	0.000078
C24	C	1.543947	-0.353387	0.120308
C25	C	1.543972	-0.353360	-0.119969
C26	C	1.602306	-0.414024	0.000173
C27	C	1.488172	-0.198917	0.000107
C28	C	1.478822	-0.553887	0.000077
C29	C	1.713094	0.118800	0.000106
C30	C	1.852505	0.121269	0.000106
C31	C	1.474339	0.277110	0.000075
C32	C	1.476824	0.370371	0.000065
N33	N	1.483485	0.123589	0.346757
N34	N	1.483514	0.123594	-0.346572
C35	C	1.568884	0.067007	0.423421
C36	C	1.568896	0.067007	0.576758
C37	C	1.398106	0.180179	0.576753
C38	C	1.398089	0.180174	0.423419
H39	H	1.264327	-0.306038	0.000190
C40	C	1.354517	-0.426597	0.255455
C41	C	1.230188	-0.388166	0.254879
C42	C	1.167084	-0.413161	0.379445
H43	H	1.396515	-0.410078	0.340855
H44	H	1.354032	-0.486146	0.254928
H45	H	1.230679	-0.328629	0.255420
H46	H	1.188156	-0.404680	0.169508
H47	H	1.166599	-0.472710	0.378918
H48	H	1.209092	-0.396641	0.464836
H49	H	1.082717	-0.387095	0.379065
H50	H	1.638433	0.020931	0.639173
C51	C	0.878193	-0.038278	0.000435
C52	C	0.919067	-0.083818	0.125781
C53	C	0.868619	-0.161451	0.126128
H54	H	0.905774	-0.069400	-0.084413
H55	H	0.788652	-0.028921	0.000516
H56	H	1.008589	-0.093177	0.125686
H57	H	0.891487	-0.052721	0.210649
H58	H	0.779078	-0.152094	0.126210
H59	H	0.896204	-0.192566	0.041276
H60	H	0.896336	-0.192356	0.211181
H61	H	1.328541	0.226250	0.360995
C62	C	1.305199	0.241516	0.659917
C63	C	1.181797	0.227105	0.622675
C64	C	1.096178	0.283587	0.699270
H65	H	1.318657	0.297697	0.634835
H66	H	1.317358	0.233410	0.762231
H67	H	1.169643	0.235218	0.520384
H68	H	1.168299	0.170935	0.647761
H69	H	1.108337	0.275481	0.801584
H70	H	1.109648	0.339764	0.674182
H71	H	1.012441	0.273812	0.674022
H72	H	1.129477	-0.012976	0.000108
C73	C	1.612233	-0.326243	0.255686
C74	C	1.716889	-0.285851	0.212993
C75	C	1.779807	-0.260823	0.337661
H76	H	1.639622	-0.374402	0.313067
H77	H	1.556529	-0.288488	0.311825
H78	H	1.772582	-0.323604	0.156878
H79	H	1.689534	-0.237683	0.155629
H80	H	1.724104	-0.223068	0.393800
H81	H	1.807188	-0.308986	0.395033
H82	H	1.850816	-0.233408	0.308711
C83	C	1.088634	0.285520	0.000113
C84	C	0.990128	0.350939	0.000155
C85	C	1.040381	0.428638	0.000228
H86	H	1.139084	0.289728	-0.084819
H87	H	1.139081	0.289649	0.085089
H88	H	0.939702	0.346812	-0.084812
H89	H	0.939670	0.346759	0.085081
H90	H	1.090828	0.432767	0.085204
H91	H	1.090831	0.432837	-0.084705
H92	H	0.973553	0.473034	0.000270
H93	H	1.702787	-0.446601	0.000249
C94	C	1.354985	-0.426735	-0.255430
C95	C	1.437705	-0.481770	-0.338508
C96	C	1.375074	-0.506949	-0.463277
H97	H	1.326956	-0.378585	-0.312526
H98	H	1.284422	-0.454651	-0.226609
H99	H	1.508245	-0.453854	-0.367330
H100	H	1.465739	-0.529933	-0.281456
H101	H	1.304511	-0.534865	-0.434456
H102	H	1.347047	-0.458794	-0.520360
H103	H	1.431186	-0.544298	-0.519653
C104	C	0.815615	0.280557	0.000373
C105	C	0.739574	0.283705	0.125728
C106	C	0.659040	0.358956	0.126052
H107	H	0.763767	0.282904	-0.084469
H108	H	0.864423	0.327127	0.000429
H109	H	0.690771	0.237148	0.125659
H110	H	0.791387	0.281372	0.210590
H111	H	0.707848	0.405526	0.126107
H112	H	0.607201	0.361296	0.041204
H113	H	0.607445	0.361105	0.211109
C114	C	1.611934	-0.325978	-0.255410
C115	C	1.529841	-0.269725	-0.337017
C116	C	1.592397	-0.244472	-0.461796
H117	H	1.638596	-0.373986	-0.313479
H118	H	1.683389	-0.298982	-0.226619
H119	H	1.458410	-0.296722	-0.365810
H120	H	1.503175	-0.221705	-0.278992
H121	H	1.663852	-0.217475	-0.433006
H122	H	1.619057	-0.292484	-0.519853
H123	H	1.536711	-0.206296	-0.517175
H124	H	1.638416	0.020930	0.361006
