data_functionalizedCrystal
_audit_creation_method	'MofGen! by Chris Wilmer'
_symmetry_space_group_name_H-M	'P1'
_symmetry_Int_Tables_number	1
_symmetry_cell_setting	triclinic
loop_
_symmetry_equiv_pos_as_xyz
  x,y,z
_cell_length_a	10.654544
_cell_length_b	23.532409
_cell_length_c	22.610064
_cell_angle_alpha	89.992888
_cell_angle_beta	90.009366
_cell_angle_gamma	83.667206
loop_
_atom_site_label
_atom_site_type_symbol
_atom_site_fract_x
_atom_site_fract_y
_atom_site_fract_z
O1	O	1.665318	0.079977	0.049195
O2	O	1.299598	0.087597	0.049192
O3	O	1.493485	0.000927	0.049195
O4	O	1.471431	0.166647	0.049193
O5	O	1.493451	0.000940	-0.049175
O6	O	1.299564	0.087610	-0.049177
O7	O	1.665284	0.079989	-0.049174
Zn8	Zn	1.482419	0.083802	-0.064794
Zn9	Zn	1.482464	0.083785	0.064812
O10	O	1.471397	0.166659	-0.049176
C11	C	1.252801	0.087044	0.000008
C12	C	1.113411	0.085370	0.000007
C13	C	1.492906	-0.020286	0.000011
C14	C	1.491216	-0.083514	0.000016
C15	C	1.113348	0.085390	-0.107238
C16	C	1.047832	0.084616	-0.160859
C17	C	0.916863	0.083042	-0.160856
C18	C	0.851408	0.082241	-0.107227
C19	C	0.916924	0.083016	-0.053607
C20	C	1.047896	0.084591	-0.053615
C21	C	0.916988	0.082991	0.053637
C22	C	1.047956	0.084569	0.053636
C23	C	0.851533	0.082190	0.107266
C24	C	0.917048	0.082969	0.160888
C25	C	1.048024	0.084544	0.160883
C26	C	1.113472	0.085344	0.107256
C27	C	1.484049	-0.356813	0.053639
C28	C	1.485618	-0.297402	0.053639
O29	O	1.486489	-0.266678	0.099240
N30	N	1.486376	-0.267688	0.000017
C31	C	1.485578	-0.297389	-0.053608
O32	O	1.486368	-0.266659	-0.099218
C33	C	1.484018	-0.356798	-0.053608
C34	C	1.483247	-0.386509	0.000018
C35	C	1.483280	-0.386523	0.107260
C36	C	1.481708	-0.445930	0.107260
C37	C	1.480906	-0.475625	0.053639
C38	C	1.481676	-0.445915	0.000017
C39	C	1.483228	-0.386498	-0.107233
C40	C	1.481669	-0.445912	-0.107227
C41	C	1.480898	-0.475622	-0.053602
C42	C	1.479302	-0.535017	-0.053604
N43	N	1.478544	-0.564731	0.000018
C44	C	1.479346	-0.535035	0.053639
C45	C	1.488856	-0.172624	-0.053605
C46	C	1.490407	-0.113215	-0.053606
C47	C	1.490450	-0.113233	0.053642
C48	C	1.488890	-0.172643	0.053642
C49	C	1.488098	-0.202338	0.000017
C50	C	1.476045	-0.659792	0.053634
C51	C	1.474468	-0.719204	0.053629
C52	C	1.474432	-0.719181	-0.053618
C53	C	1.476002	-0.659774	-0.053613
C54	C	1.476813	-0.630082	0.000018
O55	O	1.478435	-0.565779	-0.099182
O56	O	1.478573	-0.565773	0.099241
C57	C	1.712081	0.080543	0.000012
C58	C	1.851472	0.082217	0.000017
C59	C	1.471976	0.187873	0.000008
C60	C	1.473666	0.251101	0.000008
N61	N	1.482397	0.083813	-0.153246
C62	C	1.568321	0.045413	-0.561887
C63	C	1.568327	0.045409	-0.623807
O64	O	1.641329	0.012769	-0.655825
N65	N	1.482463	0.083773	-0.654783
C66	C	1.396578	0.122140	-0.623837
O67	O	1.323544	0.154770	-0.655871
C68	C	1.396567	0.122141	-0.561918
C69	C	1.482445	0.083778	-0.530945
C70	C	1.654191	0.007054	-0.530913
C71	C	1.654186	0.007059	-0.468997
C72	C	1.568310	0.045423	-0.438055
C73	C	1.482440	0.083783	-0.469029
C74	C	1.310677	0.160504	-0.530973
C75	C	1.310672	0.160501	-0.469050
C76	C	1.396551	0.122139	-0.438076
C77	C	1.396559	0.122153	-0.376171
N78	N	1.482423	0.083789	-0.345195
C79	C	1.568299	0.045424	-0.376137
C80	C	1.396607	0.122134	-0.753871
C81	C	1.396624	0.122136	-0.815788
C82	C	1.568371	0.045405	-0.815754
C83	C	1.568360	0.045406	-0.753835
C84	C	1.482471	0.083770	-0.722894
C85	C	1.568282	0.045438	-0.246109
C86	C	1.568273	0.045448	-0.184188
C87	C	1.396521	0.122177	-0.184228
C88	C	1.396534	0.122169	-0.246144
C89	C	1.482420	0.083795	-0.277083
O90	O	1.323591	0.154775	-0.344114
O91	O	1.641310	0.012794	-0.344095
N92	N	1.482495	0.083769	0.153264
H93	H	1.219987	0.086680	-0.107246
H94	H	1.326605	0.153415	-0.159026
H95	H	1.483937	-0.362352	0.150928
N96	N	0.717631	0.080623	-0.107212
N97	N	0.671274	0.039844	-0.083269
H98	H	0.576792	0.038701	-0.083256
N99	N	1.741989	-0.032120	-0.437397
N100	N	1.741024	-0.084768	-0.444315
H101	H	1.803072	-0.112434	-0.422011
H102	H	1.488201	-0.196798	-0.097276
H103	H	0.863519	0.082415	-0.204519
H104	H	0.744893	0.080905	0.107265
H105	H	0.863745	0.082313	0.204549
N106	N	1.656028	0.006250	-0.277708
N107	N	1.733756	0.024643	-0.312252
H108	H	1.795732	-0.003031	-0.334569
H109	H	1.101360	0.085173	0.204548
H110	H	1.326616	0.153413	-0.271363
H111	H	1.491099	-0.089044	0.097303
H112	H	1.220112	0.086629	0.107247
H113	H	1.638294	0.014166	-0.840958
H114	H	1.473836	-0.743391	0.097299
H115	H	1.476706	-0.635624	0.097306
N116	N	1.484049	-0.356160	-0.162010
N117	N	1.573456	-0.327906	-0.173975
H118	H	1.574040	-0.306480	-0.212664
H119	H	1.724121	-0.024190	-0.556101
N120	N	1.114713	0.085429	-0.215632
N121	N	1.231649	0.086833	-0.215631
H122	H	1.278884	0.087406	-0.254314
N123	N	1.480944	-0.476288	0.162030
N124	N	1.391565	-0.504555	0.174005
H125	H	1.391036	-0.525996	0.212688
H126	H	1.488260	-0.196829	0.097309
N127	N	1.491165	-0.082877	-0.108389
N128	N	1.490441	-0.109405	-0.156258
H129	H	1.490981	-0.087982	-0.194951
H130	H	1.481025	-0.470087	-0.150897
H131	H	1.476580	-0.635580	-0.097280
N132	N	1.656026	0.006187	-0.722208
N133	N	1.732651	-0.028080	-0.749850
H134	H	1.794544	-0.055793	-0.727517
N135	N	1.473603	-0.749529	-0.108383
N136	N	1.472206	-0.802572	-0.108369
H137	H	1.471627	-0.824008	-0.147047
N138	N	1.655979	0.006246	-0.152555
N139	N	1.654896	-0.046398	-0.159465
H140	H	1.716828	-0.074086	-0.137125
H141	H	1.326707	0.153381	-0.841003
N142	N	1.308864	0.161331	-0.722277
N143	N	1.232212	0.195579	-0.749948
H144	H	1.170241	0.223261	-0.727638
N145	N	1.222952	0.199699	-0.562592
N146	N	1.146291	0.233945	-0.534946
H147	H	1.084330	0.261630	-0.557276
N148	N	1.222923	0.199692	-0.437455
N149	N	1.146259	0.233938	-0.465122
H150	H	1.084287	0.261617	-0.442810
