data_functionalizedCrystal
_audit_creation_method	'MofGen! by Chris Wilmer'
_symmetry_space_group_name_H-M	'P1'
_symmetry_Int_Tables_number	1
_symmetry_cell_setting	triclinic
loop_
_symmetry_equiv_pos_as_xyz
  x,y,z
_cell_length_a	16.625548
_cell_length_b	19.077068
_cell_length_c	19.077271
_cell_angle_alpha	85.514665
_cell_angle_beta	87.708466
_cell_angle_gamma	92.328114
loop_
_atom_site_label
_atom_site_type_symbol
_atom_site_fract_x
_atom_site_fract_y
_atom_site_fract_z
Zn1	Zn	1.200011	-0.296772	0.409854
Zn2	Zn	1.533345	0.036562	0.743187
Zn3	Zn	1.866678	0.369895	1.076520
Zn4	Zn	1.199937	-0.409895	0.296697
Zn5	Zn	1.533270	-0.076562	0.630030
Zn6	Zn	1.866604	0.256772	0.963364
Zn7	Zn	1.070851	-0.292027	0.291982
Zn8	Zn	1.404184	0.041307	0.625316
Zn9	Zn	1.737517	0.374640	0.958649
Zn10	Zn	1.059490	-0.414625	0.414542
Zn11	Zn	1.392824	-0.081292	0.747875
Zn12	Zn	1.726157	0.252042	1.081208
O13	O	1.132572	-0.353330	0.353269
O14	O	1.465906	-0.019996	0.686602
O15	O	1.799239	0.313337	1.019935
O16	O	1.312833	-0.311784	0.394854
O17	O	1.646166	0.021550	0.728187
O18	O	1.979500	0.354883	1.061521
O19	O	1.187537	-0.390294	0.197424
O20	O	1.520870	-0.056961	0.530757
O21	O	1.854203	0.276372	0.864090
O22	O	1.092769	-0.194006	0.303683
O23	O	1.426103	0.139328	0.637016
O24	O	1.759436	0.472661	0.970350
O25	O	1.312778	-0.394895	0.311718
O26	O	1.646112	-0.061562	0.645052
O27	O	1.979445	0.271772	0.978385
O28	O	1.187663	-0.197492	0.390282
O29	O	1.520997	0.135842	0.723616
O30	O	1.854330	0.469175	1.056949
O31	O	1.092697	-0.303697	0.193960
O32	O	1.426031	0.029636	0.527293
O33	O	1.759364	0.362970	0.860626
O34	O	0.956512	-0.308284	0.308229
O35	O	1.289845	0.025050	0.641562
O36	O	1.623179	0.358383	0.974896
O37	O	1.073408	-0.402957	0.512568
O38	O	1.406741	-0.069623	0.845901
O39	O	1.740074	0.263710	1.179235
O40	O	0.948166	-0.398356	0.398273
O41	O	1.281499	-0.065023	0.731606
O42	O	1.614832	0.268311	1.064940
O43	O	1.176648	-0.316370	0.509123
O44	O	1.509981	0.016963	0.842457
O45	O	1.843314	0.350296	1.175790
O46	O	1.176521	-0.509173	0.316264
O47	O	1.509854	-0.175840	0.649598
O48	O	1.843188	0.157494	0.982931
O49	O	1.073336	-0.512648	0.402845
O50	O	1.406669	-0.179315	0.736178
O51	O	1.740002	0.154019	1.069511
C52	C	1.123709	-0.536490	0.360590
C53	C	1.457042	-0.203157	0.693924
C54	C	1.790375	0.130177	1.027257
C55	C	1.119989	-0.614848	0.363746
C56	C	1.453323	-0.281514	0.697079
C57	C	1.786656	0.051819	1.030413
C58	C	0.923083	-0.353319	0.353249
C59	C	1.256416	-0.019985	0.686582
C60	C	1.589750	0.313348	1.019915
C61	C	0.833461	-0.353332	0.353257
C62	C	1.166794	-0.019998	0.686591
C63	C	1.500127	0.313335	1.019924
C64	C	1.172003	-0.649829	0.320188
C65	C	1.505337	-0.316496	0.653522
C66	C	1.838670	0.016837	0.986855
C67	C	1.168510	-0.723455	0.323161
C68	C	1.501843	-0.390122	0.656494
C69	C	1.835177	-0.056788	0.989827
C70	C	1.112998	-0.762098	0.369688
C71	C	1.446331	-0.428764	0.703021
C72	C	1.779664	-0.095431	1.036354
C73	C	1.060981	-0.727111	0.413250
C74	C	1.394315	-0.393778	0.746583
C75	C	1.727648	-0.060445	1.079917
C76	C	1.064479	-0.653487	0.410281
C77	C	1.397813	-0.320154	0.743614
C78	C	1.731146	0.013180	1.076947
C79	C	1.096774	-0.982487	0.383401
C80	C	1.430108	-0.649154	0.716735
C81	C	1.763441	-0.315821	1.050068
C82	C	1.093279	-1.056117	0.386366
C83	C	1.426612	-0.722783	0.719699
C84	C	1.759945	-0.389450	1.053032
C85	C	1.200809	-1.052455	0.296277
C86	C	1.534142	-0.719122	0.629610
C87	C	1.867475	-0.385788	0.962944
C88	C	1.204298	-0.978829	0.293309
C89	C	1.537632	-0.645496	0.626642
C90	C	1.870965	-0.312163	0.959976
C91	C	1.152285	-0.943850	0.336874
C92	C	1.485618	-0.610516	0.670207
C93	C	1.818952	-0.277183	1.003541
N94	N	1.109424	-0.837355	0.372725
N95	N	1.442757	-0.504022	0.706059
N96	N	1.776090	-0.170688	1.039392
N97	N	1.155864	-0.868594	0.333839
N98	N	1.489197	-0.535260	0.667173
N99	N	1.822530	-0.201927	1.000506
C100	C	0.505283	-0.353338	0.353288
C101	C	0.838617	-0.020004	0.686621
C102	C	1.171950	0.313329	1.019954
C103	C	0.596593	-0.353334	0.353277
C104	C	0.929926	-0.020001	0.686610
C105	C	1.263259	0.313333	1.019944
C106	C	0.669369	-0.353335	0.353272
C107	C	1.002703	-0.020002	0.686605
C108	C	1.336036	0.313332	1.019939
C109	C	0.760684	-0.353331	0.353262
C110	C	1.094017	-0.019997	0.686596
C111	C	1.427351	0.313336	1.019929
C112	C	1.342880	-0.353341	0.353289
C113	C	1.676213	-0.020008	0.686623
C114	C	2.009546	0.313326	1.019956
C115	C	1.432500	-0.353346	0.353298
C116	C	1.765834	-0.020013	0.686631
C117	C	2.099167	0.313321	1.019965
C118	C	1.123769	-0.360720	0.537139
C119	C	1.457102	-0.027387	0.870473
C120	C	1.790435	0.305946	1.203806
C121	C	1.120017	-0.363870	0.615494
C122	C	1.453350	-0.030537	0.948827
C123	C	1.786684	0.302797	1.282161
C124	C	1.141492	-0.169455	0.345934
C125	C	1.474825	0.163879	0.679267
C126	C	1.808158	0.497212	1.012600
C127	C	1.145293	-0.091098	0.342808
C128	C	1.478626	0.242235	0.676141
C129	C	1.811959	0.575569	1.009475
C130	C	1.172003	-0.320271	0.650513
C131	C	1.505337	0.013063	0.983846
C132	C	1.838670	0.346396	1.317180
C133	C	1.168469	-0.323227	0.724135
C134	C	1.501802	0.010106	1.057469
C135	C	1.835135	0.343439	1.390802
C136	C	1.112951	-0.369787	0.762738
C137	C	1.446284	-0.036454	1.096071
C138	C	1.779618	0.296879	1.429404
C139	C	1.060959	-0.413388	0.727713
C140	C	1.394292	-0.080055	1.061047
C141	C	1.727626	0.253278	1.394380
C142	C	1.064490	-0.410428	0.654092
C143	C	1.397824	-0.077094	0.987425
C144	C	1.731157	0.256239	1.320759
C145	C	1.096622	-0.383473	0.983114
C146	C	1.429955	-0.050139	1.316447
C147	C	1.763289	0.283194	1.649780
C148	C	1.093096	-0.386432	1.056740
C149	C	1.426429	-0.053098	1.390073
C150	C	1.759763	0.280235	1.723407
C151	C	1.200605	-0.296269	1.053157
C152	C	1.533938	0.037064	1.386490
C153	C	1.867272	0.370397	1.719824
C154	C	1.204135	-0.293316	0.979535
C155	C	1.537468	0.040017	1.312868
C156	C	1.870801	0.373351	1.646201
C157	C	1.152140	-0.336914	0.944517
C158	C	1.485473	-0.003581	1.277850
C159	C	1.818807	0.329753	1.611183
N160	N	1.109338	-0.372812	0.837992
N161	N	1.442672	-0.039479	1.171325
N162	N	1.776005	0.293854	1.504658
N163	N	1.155749	-0.333885	0.869264
N164	N	1.489083	-0.000552	1.202597
N165	N	1.822416	0.332781	1.535930
C166	C	1.141334	-0.345983	1.170114
C167	C	1.474667	-0.012650	1.503447
C168	C	1.808001	0.320684	1.836781
C169	C	1.145082	-0.342832	1.091759
C170	C	1.478416	-0.009499	1.425092
C171	C	1.811749	0.323834	1.758426
H172	H	1.210865	-0.751933	0.287691
H173	H	1.544198	-0.418600	0.621024
H174	H	1.877531	-0.085267	0.954358
H175	H	1.243156	-1.080944	0.260810
H176	H	1.576489	-0.747610	0.594143
H177	H	1.909823	-0.414277	0.927477
H178	H	1.048083	-1.087578	0.424266
H179	H	1.381416	-0.754245	0.757599
H180	H	1.714750	-0.420912	1.090933
H181	H	1.210803	-0.287726	0.752645
H182	H	1.544137	0.045607	1.085978
H183	H	1.877470	0.378941	1.419311
C184	C	1.039414	-0.431415	0.944603
C185	C	1.372748	-0.098081	1.277936
C186	C	1.706081	0.235252	1.611269
H187	H	1.005846	-0.459566	0.978139
H188	H	1.339179	-0.126233	1.311472
H189	H	1.672512	0.207100	1.644805
H190	H	1.006974	-0.403275	0.914812
H191	H	1.340307	-0.069942	1.248145
H192	H	1.673640	0.263391	1.581479
H193	H	1.070128	-0.460987	0.917103
H194	H	1.403461	-0.127654	1.250437
H195	H	1.736794	0.205679	1.583770
H196	H	1.054422	-0.954012	0.418872
H197	H	1.387755	-0.620679	0.752206
H198	H	1.721088	-0.287346	1.085539
H199	H	1.249501	-0.947368	0.255423
H200	H	1.582834	-0.614035	0.588756
H201	H	1.916168	-0.280701	0.922090
H202	H	1.015752	-0.451296	0.759149
H203	H	1.349086	-0.117963	1.092482
H204	H	1.682419	0.215371	1.425816
H205	H	1.015786	-0.758580	0.451136
H206	H	1.349119	-0.425247	0.784470
H207	H	1.682452	-0.091914	1.117803
H208	H	1.022125	-0.625006	0.445751
H209	H	1.355458	-0.291673	0.779084
H210	H	1.688792	0.041661	1.112418
H211	H	1.217214	-0.282359	0.619088
H212	H	1.550548	0.050975	0.952422
H213	H	1.883881	0.384308	1.285755
H214	H	1.249345	-0.255404	0.948109
H215	H	1.582679	0.077930	1.281443
H216	H	1.916012	0.411263	1.614776
H217	H	1.242935	-0.260773	1.081676
H218	H	1.576268	0.072560	1.415010
H219	H	1.909602	0.405893	1.748343
H220	H	1.047884	-0.424348	1.088168
H221	H	1.381218	-0.091015	1.421502
H222	H	1.714551	0.242319	1.754835
C223	C	1.007325	-0.458404	0.615572
C224	C	1.340658	-0.125071	0.948905
C225	C	1.673991	0.208263	1.282239
H226	H	0.973764	-0.486567	0.649105
H227	H	1.307098	-0.153234	0.982439
H228	H	1.640431	0.180100	1.315772
H229	H	0.974873	-0.430294	0.585764
H230	H	1.308207	-0.096961	0.919097
H231	H	1.641540	0.236372	1.252430
H232	H	1.038077	-0.487965	0.588091
H233	H	1.371410	-0.154632	0.921424
H234	H	1.704743	0.178702	1.254757
H235	H	1.217204	-0.618371	0.282298
H236	H	1.550537	-0.285037	0.615632
H237	H	1.883871	0.048296	0.948965
