data_functionalizedCrystal
_audit_creation_method	'MofGen! by Chris Wilmer'
_symmetry_space_group_name_H-M	'P1'
_symmetry_Int_Tables_number	1
_symmetry_cell_setting	triclinic
loop_
_symmetry_equiv_pos_as_xyz
  x,y,z
_cell_length_a	6.817900
_cell_length_b	23.752963
_cell_length_c	23.753023
_cell_angle_alpha	97.113271
_cell_angle_beta	100.067528
_cell_angle_gamma	100.066732
loop_
_atom_site_label
_atom_site_type_symbol
_atom_site_fract_x
_atom_site_fract_y
_atom_site_fract_z
V1	V	-3.971794	-0.079886	-0.178727
V2	V	-3.471794	0.420114	0.321273
O3	O	-3.977677	0.003095	-0.174979
O4	O	-3.477677	0.503095	0.325021
O5	O	-3.907026	-0.157686	-0.177837
O6	O	-3.407026	0.342314	0.322163
O7	O	-3.907021	-0.078983	-0.256524
O8	O	-3.407021	0.421017	0.243476
O9	O	-3.977682	-0.076152	-0.095747
O10	O	-3.477682	0.423848	0.404253
V11	V	-4.459665	-0.069922	-0.168762
V12	V	-3.959665	0.430078	0.331238
O13	O	-4.223516	-0.101743	-0.200587
O14	O	-3.723516	0.398257	0.299413
O15	O	-4.658140	-0.048065	-0.146902
O16	O	-4.158140	0.451935	0.353098
O17	O	-4.301226	0.007878	-0.169652
O18	O	-3.801226	0.507878	0.330348
O19	O	-4.571179	-0.152903	-0.172509
O20	O	-4.071179	0.347097	0.327491
O21	O	-4.571174	-0.073656	-0.251741
O22	O	-4.071174	0.426344	0.248259
O23	O	-4.301231	-0.070825	-0.090964
O24	O	-3.801231	0.429175	0.409036
C25	C	-3.748575	-0.176641	-0.175103
C26	C	-3.248575	0.323359	0.324897
C27	C	-3.776798	-0.240246	-0.174894
C28	C	-3.276798	0.259754	0.325106
C29	C	-3.748568	-0.076248	-0.275476
C30	C	-3.248568	0.423752	0.224524
C31	C	-3.776784	-0.076025	-0.339078
C32	C	-3.276784	0.423975	0.160922
C33	C	-3.924670	-0.626269	-0.121105
C34	C	-3.424670	-0.126269	0.378895
C35	C	-3.951214	-0.686031	-0.120900
C36	C	-3.451214	-0.186031	0.379100
O37	O	-3.941785	-0.709812	-0.076207
O38	O	-3.441785	-0.209812	0.423793
N39	N	-3.991787	-0.724303	-0.173229
N40	N	-3.491787	-0.224303	0.326771
C41	C	-4.005838	-0.702811	-0.225766
C42	C	-3.505838	-0.202811	0.274234
O43	O	-4.042788	-0.740852	-0.270258
O44	O	-3.542788	-0.240852	0.229742
C45	C	-3.979309	-0.643050	-0.225971
C46	C	-3.479309	-0.143050	0.274029
C47	C	-3.938715	-0.604780	-0.173638
C48	C	-3.438715	-0.104780	0.326362
C49	C	-3.884081	-0.588000	-0.068776
C50	C	-3.384081	-0.088000	0.431224
C51	C	-3.857536	-0.528242	-0.068981
C52	C	-3.357536	-0.028242	0.431019
C53	C	-3.871581	-0.506753	-0.121514
C54	C	-3.371581	-0.006753	0.378486
C55	C	-3.912170	-0.545022	-0.173842
C56	C	-3.412170	-0.045022	0.326158
C57	C	-3.993374	-0.621559	-0.278507
C58	C	-3.493374	-0.121559	0.221493
C59	C	-3.966843	-0.561794	-0.278707
C60	C	-3.466843	-0.061794	0.221293
C61	C	-3.926249	-0.523524	-0.226374
C62	C	-3.426249	-0.023524	0.273626
C63	C	-3.899670	-0.463776	-0.226580
C64	C	-3.399670	0.036224	0.273420
N65	N	-3.859097	-0.425504	-0.174251
N66	N	-3.359097	0.074496	0.325749
C67	C	-3.845052	-0.446992	-0.121718
C68	C	-3.345052	0.053008	0.378282
C69	C	-4.061551	-0.828312	-0.225334
C70	C	-3.561551	-0.328312	0.274666
C71	C	-4.088066	-0.888072	-0.225130
C72	C	-3.588066	-0.388072	0.274870
C73	C	-4.033443	-0.871288	-0.120264
C74	C	-3.533443	-0.371288	0.379736
C75	C	-4.006914	-0.811527	-0.120468
C76	C	-3.506914	-0.311527	0.379532
C77	C	-4.020978	-0.790040	-0.173005
C78	C	-3.520978	-0.290040	0.326995
C79	C	-3.789306	-0.321497	-0.122152
C80	C	-3.289306	0.178503	0.377848
C81	C	-3.762753	-0.261734	-0.122361
C82	C	-3.262753	0.238266	0.377639
C83	C	-3.817388	-0.278524	-0.227227
C84	C	-3.317388	0.221476	0.272773
C85	C	-3.843929	-0.338281	-0.227018
C86	C	-3.343929	0.161719	0.272982
C87	C	-3.829891	-0.359765	-0.174476
C88	C	-3.329891	0.140235	0.325524
O89	O	-3.909078	-0.439953	-0.271251
O90	O	-3.409078	0.060047	0.228749
O91	O	-3.808129	-0.408946	-0.077235
O92	O	-3.308129	0.091054	0.422765
C93	C	-3.979301	-0.127140	-0.741885
C94	C	-3.479301	0.372860	-0.241885
C95	C	-4.005846	-0.126939	-0.801648
C96	C	-3.505846	0.373061	-0.301648
O97	O	-4.042870	-0.171425	-0.839697
O98	O	-3.542870	0.328575	-0.339697
N99	N	-3.991799	-0.074407	-0.823143
N100	N	-3.491799	0.425593	-0.323143
C101	C	-3.951223	-0.022073	-0.784872
C102	C	-3.451223	0.477927	-0.284872
O103	O	-3.941714	0.022628	-0.808643
O104	O	-3.441714	0.522628	-0.308643
C105	C	-3.924693	-0.022274	-0.725111
C106	C	-3.424693	0.477726	-0.225111
C107	C	-3.938724	-0.074810	-0.703619
C108	C	-3.438724	0.425190	-0.203619
C109	C	-3.993332	-0.179671	-0.720393
C110	C	-3.493332	0.320329	-0.220393
C111	C	-3.966785	-0.179871	-0.660634
C112	C	-3.466785	0.320129	-0.160634
C113	C	-3.926207	-0.127541	-0.622368
C114	C	-3.426207	0.372459	-0.122368
C115	C	-3.912177	-0.075010	-0.643861
C116	C	-3.412177	0.424990	-0.143861
C117	C	-3.884133	0.030059	-0.686842
C118	C	-3.384133	0.530059	-0.186842
C119	C	-3.857605	0.029853	-0.627077
C120	C	-3.357605	0.529853	-0.127077
C121	C	-3.871635	-0.022682	-0.605585
C122	C	-3.371635	0.477318	-0.105585
C123	C	-3.845052	-0.022880	-0.545836
C124	C	-3.345052	0.477120	-0.045836
N125	N	-3.859099	-0.075412	-0.524341
N126	N	-3.359099	0.424588	-0.024341
C127	C	-3.899677	-0.127743	-0.562607
C128	C	-3.399677	0.372257	-0.062607
C129	C	-4.006944	-0.021654	-0.910376
C130	C	-3.506944	0.478346	-0.410376
C131	C	-4.033459	-0.021451	-0.970135
C132	C	-3.533459	0.478549	-0.470135
C133	C	-4.088084	-0.126318	-0.986907
C134	C	-3.588084	0.373682	-0.486907
C135	C	-4.061554	-0.126519	-0.927146
C136	C	-3.561554	0.373481	-0.427146
C137	C	-4.020991	-0.074186	-0.888880
C138	C	-3.520991	0.425814	-0.388880
C139	C	-3.843922	-0.128160	-0.437109
C140	C	-3.343922	0.371840	0.062891
C141	C	-3.817362	-0.128355	-0.377344
C142	C	-3.317362	0.371645	0.122656
C143	C	-3.762750	-0.023489	-0.360578
C144	C	-3.262750	0.476511	0.139422
C145	C	-3.789297	-0.023293	-0.420337
C146	C	-3.289297	0.476707	0.079663
C147	C	-3.829892	-0.075633	-0.458602
C148	C	-3.329892	0.424367	0.041398
O149	O	-3.808031	0.021583	-0.507753
O150	O	-3.308031	0.521583	-0.007753
O151	O	-3.909205	-0.172437	-0.538828
O152	O	-3.409205	0.327563	-0.038828
C153	C	-4.123019	0.026830	-0.172384
C154	C	-3.623019	0.526830	0.327616
C155	C	-4.074034	0.090434	-0.172597
C156	C	-3.574034	0.590434	0.327403
C157	C	-4.123026	-0.073562	-0.072009
C158	C	-3.623026	0.426438	0.427991
C159	C	-4.074049	-0.073782	-0.008407
C160	C	-3.574049	0.426218	0.491593
H161	H	-3.729691	-0.230576	-0.079743
H162	H	-3.229691	0.269424	0.420257
F163	F	-3.963739	0.034052	-0.869654
F164	F	-3.463739	0.534052	-0.369654
F165	F	-3.832315	-0.255642	-0.283134
F166	F	-3.332315	0.244358	0.216866
F167	F	-4.131237	-0.182012	-1.027643
F168	F	-3.631237	0.317988	-0.527643
H169	H	-3.978224	-0.222651	-0.643142
H170	H	-3.478224	0.277349	-0.143142
H171	H	-3.828785	-0.171138	-0.359849
H172	H	-3.328785	0.328862	0.140151
F173	F	-4.036522	-0.235373	-0.761111
F174	F	-3.536522	0.264627	-0.261111
F175	F	-3.963716	-0.770803	-0.064769
F176	F	-3.463716	-0.270803	0.435231
F177	F	-3.887123	-0.183866	-0.477825
F178	F	-3.387123	0.316134	0.022175
H179	H	-3.872645	-0.605489	-0.025995
H180	H	-3.372645	-0.105489	0.474005
F181	F	-4.036476	-0.662275	-0.334207
F182	F	-3.536476	-0.162275	0.165793
F183	F	-3.719555	0.032202	-0.319842
F184	F	-3.219555	0.532202	0.180158
H185	H	-4.072980	-0.169298	-0.909652
H186	H	-3.572980	0.330702	-0.409652
H187	H	-4.022004	0.021329	-0.987628
H188	H	-3.522004	0.521329	-0.487628
H189	H	-3.872687	0.072839	-0.704329
H190	H	-3.372687	0.572839	-0.204329
F191	F	-3.774340	0.032621	-0.443211
F192	F	-3.274340	0.532621	0.056789
F193	F	-3.981823	-0.538930	-0.334626
F194	F	-3.481823	-0.038930	0.165374
F195	F	-3.887205	-0.379013	-0.282717
F196	F	-3.387205	0.120987	0.217283
H197	H	-3.777872	-0.338982	-0.079367
H198	H	-3.277872	0.161018	0.420633
H199	H	-3.824580	0.072471	-0.595924
H200	H	-3.324580	0.572471	-0.095924
H201	H	-4.022010	-0.888795	-0.077488
H202	H	-3.522010	-0.388795	0.422512
F203	F	-3.814349	-0.487520	-0.013281
F204	F	-3.314349	0.012480	0.486719
H205	H	-4.121086	-0.919226	-0.267744
H206	H	-3.621086	-0.419226	0.232256
H207	H	-4.072999	-0.810823	-0.268118
H208	H	-3.572999	-0.310823	0.231882
