data_functionalizedCrystal
_audit_creation_method	'MofGen! by Chris Wilmer'
_symmetry_space_group_name_H-M	'P1'
_symmetry_Int_Tables_number	1
_symmetry_cell_setting	triclinic
loop_
_symmetry_equiv_pos_as_xyz
  x,y,z
_cell_length_a	25.639239
_cell_length_b	14.908780
_cell_length_c	14.908694
_cell_angle_alpha	96.797826
_cell_angle_beta	93.266315
_cell_angle_gamma	86.672354
loop_
_atom_site_label
_atom_site_type_symbol
_atom_site_fract_x
_atom_site_fract_y
_atom_site_fract_z
Zn1	Zn	-0.180755	-1.413292	-0.591786
Zn2	Zn	-0.263429	-1.404414	-0.440407
Zn3	Zn	-0.180766	-1.253188	-0.431687
Zn4	Zn	-0.272922	-1.261835	-0.582974
O5	O	-0.224468	-1.333182	-0.511713
O6	O	-0.187744	-1.538788	-0.579043
O7	O	-0.248496	-1.377019	-0.312584
O8	O	-0.107598	-1.274523	-0.452963
O9	O	-0.248485	-1.532265	-0.467826
O10	O	-0.107589	-1.392151	-0.570587
O11	O	-0.187764	-1.265914	-0.306177
O12	O	-0.196968	-1.127661	-0.444418
O13	O	-0.264664	-1.289260	-0.710809
O14	O	-0.264675	-1.134014	-0.555567
O15	O	-0.196949	-1.400535	-0.717284
O16	O	-0.337856	-1.385403	-0.459281
O17	O	-0.344830	-1.280651	-0.564023
C18	C	-0.231853	-1.097993	-0.498091
C19	C	-0.235026	-0.997379	-0.492284
C20	C	-0.177836	-0.815115	-0.597361
C21	C	-0.180815	-0.720580	-0.591908
C22	C	-0.243961	-0.713770	-0.475922
C23	C	-0.240982	-0.808306	-0.481375
C24	C	-0.207918	-0.858975	-0.542097
C25	C	-0.204942	-0.953513	-0.547554
C26	C	-0.268085	-0.946701	-0.431564
C27	C	-0.271064	-0.852165	-0.426111
C28	C	-0.360314	-1.333028	-0.511663
C29	C	-0.418428	-1.333046	-0.511677
C30	C	-0.775142	-1.387883	-0.457281
C31	C	-0.829746	-1.387919	-0.457295
O32	O	-0.854883	-1.434383	-0.410992
N33	N	-0.860704	-1.333345	-0.511783
C34	C	-0.837056	-1.278738	-0.566266
O35	O	-0.868403	-1.232322	-0.612614
C36	C	-0.782454	-1.278708	-0.566256
C37	C	-0.751498	-1.333279	-0.511759
C38	C	-0.744186	-1.442451	-0.402789
C39	C	-0.689587	-1.442413	-0.402774
C40	C	-0.665942	-1.387809	-0.457251
C41	C	-0.696898	-1.333241	-0.511743
C42	C	-0.758807	-1.224106	-0.620744
C43	C	-0.704200	-1.224081	-0.620730
C44	C	-0.673244	-1.278652	-0.566232
C45	C	-0.618654	-1.278599	-0.566206
N46	N	-0.587696	-1.333174	-0.511718
C47	C	-0.611340	-1.387779	-0.457241
C48	C	-0.951725	-1.278807	-0.566284
C49	C	-1.006327	-1.278832	-0.566290
C50	C	-0.999012	-1.388014	-0.457320
C51	C	-0.944410	-1.387984	-0.457310
C52	C	-0.920767	-1.333381	-0.511797
C53	C	-0.496677	-1.387696	-0.457213
C54	C	-0.442072	-1.387651	-0.457200
C55	C	-0.449392	-1.278472	-0.566172
C56	C	-0.503991	-1.278513	-0.566182
C57	C	-0.527632	-1.333132	-0.511700
O58	O	-0.593480	-1.232162	-0.612488
O59	O	-0.579987	-1.434195	-0.410910
C60	C	-0.088092	-1.333363	-0.511785
C61	C	-0.029976	-1.333440	-0.511816
C62	C	-0.231864	-1.346853	-0.747808
C63	C	-0.235016	-1.352678	-0.848417
C64	C	-0.217050	-0.569290	-0.525383
C65	C	-0.213877	-0.669904	-0.531192
C66	C	-0.177700	-1.247911	-1.030802
C67	C	-0.180660	-1.253381	-1.125333
C68	C	-0.243898	-1.369084	-1.132013
C69	C	-0.240938	-1.363614	-1.037481
C70	C	-0.207837	-1.303026	-0.986879
C71	C	-0.204875	-1.297561	-0.892346
C72	C	-0.268116	-1.413259	-0.899027
C73	C	-0.271075	-1.418729	-0.993559
C74	C	-0.217062	-1.319617	-0.276541
C75	C	-0.213757	-1.313967	-0.175942
H76	H	-0.178021	-0.994766	-0.596998
H77	H	-0.156317	-0.684873	-0.636907
H78	H	-0.156119	-1.208501	-1.161091
C79	C	-0.280559	-1.435306	-1.187665
N80	N	-0.308264	-1.485034	-1.229575
C81	C	-0.141287	-1.181268	-0.975138
N82	N	-0.113861	-1.131071	-0.933213
H83	H	-0.784002	-1.179664	-0.665117
H84	H	-0.297981	-0.810897	-0.376670
C85	C	-0.301179	-0.994954	-0.370771
N86	N	-0.326106	-1.031300	-0.324986
H87	H	-0.177921	-1.248230	-0.851148
C88	C	-0.301269	-1.473890	-0.850705
N89	N	-0.326239	-1.519557	-0.814308
H90	H	-0.150917	-0.856371	-0.646807
C91	C	-0.280323	-0.658017	-0.409126
N92	N	-0.307711	-0.616023	-0.358814
H93	H	-1.031527	-1.234385	-0.610658
H94	H	-0.416869	-1.432089	-0.412818
C95	C	-0.925723	-1.218739	-0.626232
N96	N	-0.906142	-1.173502	-0.671389
C97	C	-0.522673	-1.447773	-0.397273
N98	N	-0.542254	-1.493019	-0.352122
C99	C	-0.655542	-1.502439	-0.342814
N100	N	-0.629903	-1.547651	-0.297646
H101	H	-0.430132	-1.234010	-0.610524
H102	H	-0.763431	-1.486921	-0.358427
H103	H	-0.684953	-1.179618	-0.665103
H104	H	-0.919208	-1.432421	-0.412934
H105	H	-0.298027	-1.468055	-1.034772
C106	C	-1.025031	-1.448089	-0.397401
N107	N	-1.044631	-1.493335	-0.352274
H108	H	-0.529197	-1.234080	-0.610562
