data_functionalizedCrystal
_audit_creation_method	'MofGen! by Chris Wilmer'
_symmetry_space_group_name_H-M	'P1'
_symmetry_Int_Tables_number	1
_symmetry_cell_setting	triclinic
loop_
_symmetry_equiv_pos_as_xyz
  x,y,z
_cell_length_a	14.044220
_cell_length_b	14.044190
_cell_length_c	11.892095
_cell_angle_alpha	94.240074
_cell_angle_beta	85.750402
_cell_angle_gamma	93.190328
loop_
_atom_site_label
_atom_site_type_symbol
_atom_site_fract_x
_atom_site_fract_y
_atom_site_fract_z
O1	O	1.282756	0.224587	-0.093905
O2	O	1.782756	0.724587	0.406095
O3	O	1.006086	0.216279	-0.093933
O4	O	1.506086	0.716279	0.406067
O5	O	1.140263	0.082098	-0.093897
O6	O	1.640263	0.582098	0.406103
O7	O	1.148579	0.358768	-0.093941
O8	O	1.648579	0.858768	0.406059
O9	O	1.129074	0.093267	0.094108
O10	O	1.629074	0.593267	0.594108
O11	O	0.994897	0.227448	0.094072
O12	O	1.494897	0.727448	0.594072
O13	O	1.271567	0.235756	0.094100
O14	O	1.771567	0.735756	0.594100
Zn15	Zn	1.131455	0.233375	0.123935
Zn16	Zn	1.631455	0.733375	0.623935
Zn17	Zn	1.146197	0.218660	-0.123769
Zn18	Zn	1.646197	0.718660	0.376231
O19	O	1.137390	0.369937	0.094064
O20	O	1.637390	0.869937	0.594064
C21	C	0.964870	0.218228	0.000066
C22	C	1.464870	0.718228	0.500066
C23	C	0.858727	0.207383	0.000057
C24	C	1.358727	0.707383	0.500057
C25	C	0.664388	0.187558	0.000082
C26	C	1.164388	0.687558	0.500082
C27	C	0.613260	0.264472	0.000075
C28	C	1.113260	0.764472	0.500075
C29	C	0.505123	0.253442	0.000089
C30	C	1.005123	0.753442	0.500089
C31	C	0.772535	0.198587	0.000068
C32	C	1.272535	0.698587	0.500068
C33	C	1.131032	0.052061	0.000108
C34	C	1.631032	0.552061	0.500108
C35	C	1.120184	-0.054082	0.000117
C36	C	1.620184	0.445918	0.500117
C37	C	1.177287	-0.299542	0.000078
C38	C	1.677287	0.200458	0.500078
C39	C	1.100371	-0.248417	0.000079
C40	C	1.600371	0.251583	0.500079
C41	C	1.111398	-0.140279	0.000100
C42	C	1.611398	0.359721	0.500100
C43	C	1.166262	-0.407690	0.000057
C44	C	1.666262	0.092310	0.500057
C45	C	1.312783	0.233807	0.000098
C46	C	1.812783	0.733807	0.500098
C47	C	1.418926	0.244652	0.000100
C48	C	1.918926	0.744652	0.500100
C49	C	1.146621	0.399974	0.000056
C50	C	1.646621	0.899974	0.500056
C51	C	1.157469	0.506116	0.000040
C52	C	1.657469	1.006116	0.500040
N53	N	1.121401	0.243418	0.292987
N54	N	1.621401	0.743418	0.792987
N55	N	1.156259	0.208610	-0.292820
N56	N	1.656259	0.708610	0.207180
C57	C	1.226215	0.138671	0.529663
C58	C	1.726215	0.638671	1.029663
C59	C	1.219195	0.145699	0.648003
C60	C	1.719195	0.645699	1.148003
C61	C	1.100336	0.264495	0.648009
C62	C	1.600336	0.764495	1.148009
C63	C	1.107356	0.257468	0.529669
C64	C	1.607356	0.757468	1.029669
C65	C	1.170299	0.194555	0.470500
C66	C	1.670299	0.694555	0.970500
C67	C	1.177324	0.187533	0.352158
C68	C	1.677324	0.687533	0.852158
C69	C	1.058461	0.306324	0.352166
C70	C	1.558461	0.806324	0.852166
C71	C	1.051440	0.313351	0.470506
C72	C	1.551440	0.813351	0.970506
H73	H	0.626948	0.113431	0.000100
H74	H	1.126948	0.613431	0.500100
N75	N	1.002172	-0.298006	0.000058
N76	N	1.502172	0.201994	0.500058
H77	H	1.008109	-0.369347	0.000048
H78	H	1.508109	0.130653	0.500048
H79	H	0.962216	-0.274750	0.069757
H80	H	1.462216	0.225250	0.569757
N81	N	1.275478	-0.249952	0.000120
N82	N	1.775478	0.250048	0.500120
H83	H	1.269534	-0.178611	0.000141
H84	H	1.769534	0.321389	0.500141
H85	H	1.307124	-0.264964	0.069827
H86	H	1.807124	0.235036	0.569827
N87	N	0.662851	0.362669	0.000022
N88	N	1.162851	0.862669	0.500022
H89	H	0.613662	0.412463	0.000011
H90	H	1.113662	0.912463	0.500011
H91	H	0.699934	0.374736	0.069704
H92	H	1.199934	0.874736	0.569704
N93	N	0.998135	0.366599	0.288365
N94	N	1.498135	0.866599	0.788365
H95	H	1.013639	0.436516	0.308953
H96	H	1.513639	0.936516	0.808953
H97	H	1.012153	0.352528	0.204437
H98	H	1.512153	0.852528	0.704437
H99	H	1.264726	0.100192	0.696170
H100	H	1.764726	0.600192	1.196170
H101	H	1.228577	0.136309	0.303983
H102	H	1.728577	0.636309	0.803983
N103	N	1.294109	0.070831	0.465835
N104	N	1.794109	0.570831	0.965835
H105	H	1.328472	0.036498	0.521273
H106	H	1.828472	0.536498	1.021273
H107	H	1.256906	0.022596	0.416745
H108	H	1.756906	0.522596	0.916745
N109	N	1.032441	0.332334	0.711836
N110	N	1.532441	0.832334	1.211836
H111	H	1.036477	0.328299	0.795781
H112	H	1.536477	0.828299	1.295781
H113	H	1.050419	0.399776	0.691153
H114	H	1.550419	0.899776	1.191153
H115	H	1.000191	0.364572	0.518695
H116	H	1.500191	0.864572	1.018695
