data_functionalizedCrystal
_audit_creation_method	'MofGen! by Chris Wilmer'
_symmetry_space_group_name_H-M	'P1'
_symmetry_Int_Tables_number	1
_symmetry_cell_setting	triclinic
loop_
_symmetry_equiv_pos_as_xyz
  x,y,z
_cell_length_a	14.853567
_cell_length_b	17.699083
_cell_length_c	16.176319
_cell_angle_alpha	90.001389
_cell_angle_beta	90.003003
_cell_angle_gamma	83.458972
loop_
_atom_site_label
_atom_site_type_symbol
_atom_site_fract_x
_atom_site_fract_y
_atom_site_fract_z
O1	O	-0.114008	-1.004375	-0.068624
O2	O	-0.128841	-0.784035	-0.068650
O3	O	0.009827	-0.900090	-0.068639
O4	O	-0.252676	-0.888319	-0.068635
O5	O	0.009836	-0.900074	0.068855
O6	O	-0.128832	-0.784019	0.068843
O7	O	-0.113999	-1.004359	0.068869
Cu8	Cu	-0.121415	-0.894187	0.081411
Cu9	Cu	-0.121425	-0.894206	-0.081191
O10	O	-0.252667	-0.888303	0.068858
C11	C	-0.128305	-0.755828	0.000093
C12	C	-0.126711	-0.671806	0.000083
C13	C	0.043418	-0.899549	0.000106
C14	C	0.143496	-0.897951	0.000098
C15	C	-0.286258	-0.888844	0.000112
C16	C	-0.386336	-0.890443	0.000114
C17	C	0.555751	-0.822255	0.000105
C18	C	0.577539	-0.960131	0.000121
C19	C	0.483511	-0.961634	0.000117
C20	C	0.425598	-0.893446	0.000107
C21	C	0.461714	-0.823756	0.000103
C22	C	0.447389	-1.031324	0.000129
C23	C	0.353355	-1.032829	0.000126
C24	C	0.295441	-0.964641	0.000111
C25	C	0.331561	-0.894947	0.000105
C26	C	0.273648	-0.826759	0.000096
C27	C	0.309767	-0.757065	0.000084
C28	C	0.403799	-0.755567	0.000088
C29	C	0.201409	-0.966139	0.000107
C30	C	0.179611	-0.828260	0.000094
C31	C	-0.114535	-1.032565	0.000125
C32	C	-0.116130	-1.116587	0.000129
N33	N	-0.121407	-0.894179	0.195776
C34	C	-0.208106	-0.623396	0.000084
C35	C	-0.206602	-0.544449	0.000095
C36	C	-0.123703	-0.513913	0.000098
C37	C	-0.042301	-0.562329	0.000099
C38	C	-0.043806	-0.641275	0.000095
C39	C	-0.036232	-0.243950	0.000120
C40	C	-0.034734	-0.164999	0.000122
C41	C	-0.199028	-0.147125	0.000120
C42	C	-0.200533	-0.226070	0.000115
C43	C	-0.119132	-0.274479	0.000121
C44	C	-0.120763	-0.360083	0.000111
C45	C	-0.122070	-0.428311	0.000102
N46	N	-0.121426	-0.894220	-0.195556
C47	C	-0.060030	-0.945584	0.239045
C48	C	-0.060029	-0.945588	0.325592
C49	C	-0.121410	-0.894190	0.368868
C50	C	-0.182790	-0.842780	0.325593
C51	C	-0.182786	-0.842773	0.239048
C52	C	-0.182807	-0.842806	0.674621
C53	C	-0.182808	-0.842818	0.761173
C54	C	-0.060050	-0.945621	0.761166
C55	C	-0.060046	-0.945614	0.674620
C56	C	-0.121422	-0.894201	0.631353
C57	C	-0.121422	-0.894197	0.537508
C58	C	-0.121416	-0.894198	0.462711
H59	H	0.262602	-0.701546	0.000083
H60	H	0.323956	-1.089579	0.000134
H61	H	0.433216	-0.698825	0.000079
O62	O	-0.248985	-0.787318	0.192386
H63	H	-0.211077	-0.750490	0.152979
H64	H	0.172005	-1.022883	0.000122
H65	H	-0.010071	-0.987482	0.796404
H66	H	-0.232783	-0.800945	0.639400
O67	O	0.006190	-1.001006	0.192366
H68	H	-0.031688	-1.037832	0.152924
O69	O	-0.286830	-0.094912	0.000122
H70	H	-0.326511	-0.105789	0.056156
H71	H	-0.275612	-0.648252	0.000081
O72	O	0.006153	-1.001045	0.372264
H73	H	0.048823	-1.036795	0.327632
O74	O	0.509854	-1.104863	0.000149
H75	H	0.497031	-1.138224	-0.055880
O76	O	-0.294392	-0.492233	0.000097
H77	H	-0.352289	-0.526729	0.000084
O78	O	0.594697	-0.747085	0.000102
H79	H	0.669813	-0.757492	0.000112
O80	O	0.639995	-1.033675	0.000139
H81	H	0.711449	-1.020924	0.000139
H82	H	0.022475	-0.680690	0.000093
O83	O	-0.289945	-0.259008	0.000124
H84	H	-0.346293	-0.212082	0.000138
H85	H	0.032777	-0.140140	0.000126
H86	H	-0.010067	-0.987470	0.639387
O87	O	0.051560	-0.296159	0.000125
H88	H	0.109454	-0.261659	0.000121
O89	O	-0.249001	-0.787344	0.372263
H90	H	-0.238702	-0.795990	0.439714
H91	H	0.132463	-0.772732	0.000082
O92	O	0.047116	-0.529400	0.000106
H93	H	0.034489	-0.466371	0.000102
O94	O	-0.249028	-0.787391	0.807855
H95	H	-0.291708	-0.751639	0.763229
