data_functionalizedCrystal
_audit_creation_method	'MofGen! by Chris Wilmer'
_symmetry_space_group_name_H-M	'P1'
_symmetry_Int_Tables_number	1
_symmetry_cell_setting	triclinic
loop_
_symmetry_equiv_pos_as_xyz
  x,y,z
_cell_length_a	23.096457
_cell_length_b	23.096457
_cell_length_c	18.426585
_cell_angle_alpha	90.000142
_cell_angle_beta	60.001289
_cell_angle_gamma	60.000185
loop_
_atom_site_label
_atom_site_type_symbol
_atom_site_fract_x
_atom_site_fract_y
_atom_site_fract_z
Zr1	Zr	0.633742	0.557777	-0.095231
O2	O	0.754530	0.465327	-0.211102
O3	O	0.512955	0.586116	-0.059715
O4	O	0.633746	0.586112	-0.211114
O5	O	0.633735	0.465335	0.059728
O6	O	0.633748	0.681393	-0.211118
O7	O	0.633739	0.465330	-0.059703
O8	O	0.417675	0.681399	0.059706
O9	O	0.849808	0.465329	-0.211097
O10	O	0.562637	0.669311	-0.044566
O11	O	0.562633	0.598208	0.044567
O12	O	0.704849	0.598204	-0.133685
O13	O	0.704844	0.527101	-0.044552
Zr14	Zr	0.633738	0.709746	0.095240
Zr15	Zr	0.633744	0.709738	-0.095238
Zr16	Zr	0.633735	0.557785	0.095247
Zr17	Zr	0.785699	0.557781	-0.095223
Zr18	Zr	0.481781	0.709742	0.095232
O19	O	0.754524	0.681407	0.059724
O20	O	0.754534	0.681396	-0.211112
O21	O	0.754521	0.465338	0.059734
O22	O	0.512950	0.802196	0.211111
O23	O	0.512959	0.802185	-0.059725
O24	O	0.512946	0.586127	0.211121
O25	O	0.633745	0.802188	-0.059719
O26	O	0.633734	0.681410	0.211123
O27	O	0.633732	0.586130	0.211127
O28	O	0.633741	0.802193	0.059712
O29	O	0.849810	0.586118	-0.211102
O30	O	0.417670	0.681405	0.211111
O31	O	0.417672	0.802194	0.211106
O32	O	0.417677	0.802187	0.059701
O33	O	0.849803	0.465335	-0.059692
O34	O	0.849805	0.586124	-0.059697
O35	O	0.562631	0.669318	0.133694
O36	O	0.562635	0.740421	0.044561
O37	O	0.704847	0.669315	-0.044558
O38	O	0.704843	0.598212	0.044575
C39	C	0.443664	0.633757	-0.000006
C40	C	0.379154	0.633755	-0.000009
C41	C	0.348856	0.670865	-0.046539
C42	C	0.288233	0.670872	-0.046532
C43	C	0.257924	0.633755	-0.000007
C44	C	0.288227	0.596643	0.046534
C45	C	0.348842	0.596643	0.046532
N46	N	0.195527	0.573350	-0.006455
N47	N	0.137947	0.573352	-0.006459
C48	C	0.075292	0.633754	0.000002
N49	N	0.072400	0.694154	0.006449
N50	N	0.129989	0.694151	0.006447
C51	C	0.192196	0.633751	0.000000
C52	C	-0.020741	0.670875	-0.046523
C53	C	-0.081368	0.670884	-0.046509
C54	C	-0.081368	0.596648	0.046550
C55	C	-0.020748	0.596646	0.046543
C56	C	0.009564	0.633758	0.000001
C57	C	0.633737	0.443681	0.000013
C58	C	0.633736	0.379170	0.000016
C59	C	0.559505	0.385981	0.046527
C60	C	0.559504	0.325365	0.046531
C61	C	0.633737	0.257939	0.000006
C62	C	0.707978	0.251130	-0.046506
C63	C	0.707977	0.311745	-0.046502
N64	N	0.688995	0.135141	-0.075713
N65	N	0.688991	0.077562	-0.075716
C66	C	0.633745	0.075306	-0.000009
N67	N	0.578490	0.132811	0.075699
N68	N	0.578492	0.190397	0.075700
C69	C	0.633747	0.192208	-0.000003
C70	C	0.559508	0.016394	0.046510
C71	C	0.559510	-0.044224	0.046516
C72	C	0.707986	-0.118459	-0.046529
C73	C	0.707982	-0.057841	-0.046527
C74	C	0.633741	0.009583	-0.000010
C75	C	0.823815	0.633766	0.000015
C76	C	0.888325	0.633768	0.000018
C77	C	0.633748	0.633751	-0.238255
C78	C	0.633751	0.633748	-0.319118
C79	C	0.633743	0.823842	-0.000004
C80	C	0.633744	0.888353	-0.000007
C81	C	0.633726	0.633775	-0.615202
C82	C	0.633729	0.633769	-0.532821
C83	C	0.633738	0.633761	-0.467163
C84	C	0.633742	0.633756	-0.384776
C85	C	0.633732	0.633771	0.238264
C86	C	0.633729	0.633775	0.319127
C87	C	0.443668	0.823837	-0.000014
C88	C	0.379159	0.888347	-0.000021
C89	C	0.443656	0.633766	0.238254
C90	C	0.379144	0.633768	0.319114
C91	C	0.443660	0.823847	0.238245
C92	C	0.379148	0.888360	0.319102
C93	C	0.823820	0.443676	-0.238236
C94	C	0.888332	0.379163	-0.319093
C95	C	0.823812	0.443686	0.000023
C96	C	0.888321	0.379176	0.000030
C97	C	0.823823	0.633756	-0.238245
C98	C	0.888336	0.633755	-0.319105
C99	C	0.348866	0.881522	-0.046555
C100	C	0.288261	0.942130	-0.046579
C101	C	0.257947	1.009562	-0.000063
C102	C	0.288246	1.016385	0.046473
C103	C	0.348853	0.955778	0.046491
C104	C	0.348847	0.670888	0.403618
C105	C	0.288239	0.670887	0.479601
C106	C	0.257925	0.633770	0.471079
C107	C	0.288227	0.596645	0.386566
C108	C	0.348838	0.596643	0.310585
C109	C	0.348855	0.955777	0.310547
C110	C	0.288248	1.016400	0.386513
C111	C	0.257931	1.009604	0.471034
C112	C	0.288230	0.942179	0.479587
C113	C	0.348840	0.881558	0.403622
C114	C	0.918632	0.311745	-0.310538
C115	C	0.979258	0.251122	-0.386504
C116	C	1.009578	0.257919	-0.471025
C117	C	0.979275	0.325343	-0.479579
C118	C	0.918655	0.385965	-0.403613
C119	C	0.918620	0.386000	0.046556
C120	C	0.979242	0.325392	0.046559
C121	C	1.009558	0.257960	0.000040
C122	C	0.979256	0.251138	-0.046492
C123	C	0.918640	0.311745	-0.046500
C124	C	0.918631	0.670879	-0.310554
C125	C	0.979239	0.670891	-0.386523
C126	C	1.009556	0.633775	-0.471042
C127	C	0.979255	0.596649	-0.479591
C128	C	0.918643	0.596641	-0.403623
H129	H	0.263544	0.566423	0.084415
N130	N	0.379806	0.962729	0.224216
N131	N	0.332448	0.994354	0.201545
H132	H	0.354306	0.999269	0.140576
N133	N	0.379783	0.812686	0.412345
N134	N	0.454194	0.770562	0.380339
H135	H	0.476045	0.721920	0.386501
H136	H	0.499052	0.440877	0.084400
N137	N	0.887715	0.454823	-0.412376
N138	N	0.914798	0.460873	-0.487850
H139	H	0.892950	0.509504	-0.494045
H140	H	0.893941	0.440901	0.084443
N141	N	0.257315	1.085261	0.377747
N142	N	0.284388	1.091313	0.302274
H143	H	0.262544	1.139944	0.296080
H144	H	1.058939	0.208551	-0.532873
N145	N	0.887702	0.304755	-0.094031
N146	N	0.914781	0.244541	-0.135558
H147	H	0.892935	0.239599	-0.169131
H148	H	0.373522	0.701113	0.410574
H149	H	0.208578	1.058972	0.532882
H150	H	0.263537	0.936656	0.548414
N151	N	1.010263	0.332266	-0.565924
N152	N	1.064385	0.278129	-0.633735
H153	H	1.086271	0.283016	-0.694720
N154	N	1.010178	0.332384	0.094096
N155	N	0.983092	0.392598	0.135632
H156	H	1.004939	0.397539	0.169205
N157	N	0.010239	0.708776	-0.094054
N158	N	0.084655	0.676459	-0.155312
H159	H	0.106537	0.703225	-0.188882
H160	H	0.263599	0.936561	-0.084473
N161	N	0.887670	0.304805	-0.224201
N162	N	0.833548	0.358928	-0.156373
H163	H	0.811686	0.354023	-0.095399
H164	H	0.373510	0.961344	0.084390
H165	H	0.768429	-0.173358	-0.084411
N166	N	0.257290	0.708766	-0.094081
N167	N	0.264062	0.676444	-0.155337
H168	H	0.242211	0.703205	-0.188921
N169	N	0.887680	0.708799	-0.224233
N170	N	0.914742	0.741945	-0.216628
H171	H	0.892884	0.768732	-0.155665
H172	H	0.208596	1.058907	-0.000084
N173	N	1.071478	0.196062	0.000058
N174	N	1.098519	0.202173	0.041608
H175	H	1.142250	0.158460	0.041626
H176	H	0.263555	1.071296	0.084345
N177	N	-0.112317	0.558737	0.094094
N178	N	-0.146131	0.574483	0.176123
H179	H	-0.167992	0.547709	0.209708
N180	N	1.010239	0.182250	-0.094005
N181	N	1.064357	0.128148	-0.093981
H182	H	1.086239	0.079494	-0.127534
H183	H	1.003904	0.701122	-0.379545
N184	N	0.379783	0.558733	0.094071
N185	N	0.352712	0.525600	0.135617
H186	H	0.374565	0.498824	0.169192
N187	N	1.071467	0.633796	-0.548628
N188	N	1.098505	0.666947	-0.540971
H189	H	1.142231	0.666964	-0.595763
N190	N	1.010234	0.558743	-0.565934
N191	N	1.064353	0.558758	-0.633748
H192	H	1.086238	0.531984	-0.694731
N193	N	-0.112316	0.708777	-0.094053
N194	N	-0.166433	0.708769	-0.094050
H195	H	-0.188287	0.735527	-0.127633
N196	N	0.783815	-0.064809	-0.094043
N197	N	0.850092	-0.125013	-0.135576
H198	H	0.903653	-0.129937	-0.169134
N199	N	0.483668	0.332328	0.094035
N200	N	0.433972	0.363948	0.074292
H201	H	0.380413	0.368868	0.107840
H202	H	0.893984	0.566407	-0.410597
N203	N	0.379803	0.708782	-0.094075
N204	N	0.352734	0.741919	-0.135612
H205	H	0.374588	0.768701	-0.169182
N206	N	0.010197	0.558734	0.094076
N207	N	-0.016873	0.525599	0.135618
H208	H	0.004980	0.498823	0.169193
H209	H	0.768420	0.196227	-0.084386
H210	H	0.263574	0.701120	0.548407
H211	H	0.499056	0.071294	0.084406
N212	N	0.483673	-0.037254	0.094043
N213	N	0.417397	0.022951	0.135572
H214	H	0.363835	0.027875	0.169140
H215	H	0.768427	0.306194	-0.084374
N216	N	0.196012	0.633768	0.548687
N217	N	0.209537	0.576611	0.561843
H218	H	0.165809	0.576612	0.616656
H219	H	0.373498	0.566418	0.241781
N220	N	0.379842	0.812642	-0.094082
N221	N	0.433960	0.758527	-0.094074
H222	H	0.455839	0.709881	-0.127646
H223	H	0.263537	0.566426	0.379641
N224	N	1.010195	0.182262	-0.377738
N225	N	0.983105	0.176210	-0.302265
H226	H	1.004952	0.127579	-0.296071
