data_functionalizedCrystal
_audit_creation_method	'MofGen! by Chris Wilmer'
_symmetry_space_group_name_H-M	'P1'
_symmetry_Int_Tables_number	1
_symmetry_cell_setting	triclinic
loop_
_symmetry_equiv_pos_as_xyz
  x,y,z
_cell_length_a	19.188930
_cell_length_b	19.188930
_cell_length_c	18.266242
_cell_angle_alpha	89.988525
_cell_angle_beta	89.977082
_cell_angle_gamma	83.144779
loop_
_atom_site_label
_atom_site_type_symbol
_atom_site_fract_x
_atom_site_fract_y
_atom_site_fract_z
O1	O	0.926149	0.087169	-0.061124
O2	O	0.722838	0.098903	-0.061075
O3	O	0.830361	-0.008620	-0.061087
O4	O	0.818627	0.194691	-0.061113
O5	O	0.830343	-0.008625	0.060675
O6	O	0.722820	0.098897	0.060687
O7	O	0.926131	0.087163	0.060638
Zn8	Zn	0.824473	0.093029	0.079994
Zn9	Zn	0.824497	0.093037	-0.080432
O10	O	0.818608	0.194686	0.060649
C11	C	0.696818	0.098520	-0.000188
C12	C	0.619313	0.097380	-0.000169
C13	C	0.829972	-0.034634	-0.000204
C14	C	0.828831	-0.112138	-0.000197
C15	C	0.574389	0.160470	-0.000188
C16	C	0.501566	0.159399	-0.000196
C17	C	0.473669	0.095233	-0.000199
C18	C	0.518603	0.032133	-0.000175
C19	C	0.591425	0.033207	-0.000160
N20	N	0.365695	0.046188	-0.041663
N21	N	0.296516	0.045172	-0.041679
C22	C	0.254260	0.091994	-0.000243
N23	N	0.283795	0.139881	0.041200
N24	N	0.352980	0.140899	0.041213
C25	C	0.394707	0.094062	-0.000215
C26	C	0.130372	0.153928	-0.000270
C27	C	0.057547	0.152853	-0.000274
C28	C	0.074586	0.025586	-0.000261
C29	C	0.147409	0.026662	-0.000250
C30	C	0.175298	0.090835	-0.000258
C31	C	0.891922	-0.157062	-0.000209
C32	C	0.890850	-0.229886	-0.000220
C33	C	0.826684	-0.257782	-0.000206
C34	C	0.763585	-0.212849	-0.000198
C35	C	0.764658	-0.140026	-0.000194
N36	N	0.777631	-0.365789	0.041244
N37	N	0.776615	-0.434968	0.041242
C38	C	0.823446	-0.477191	-0.000220
N39	N	0.871341	-0.447624	-0.041669
N40	N	0.872359	-0.378439	-0.041664
C41	C	0.825513	-0.336745	-0.000210
C42	C	0.885379	-0.601079	-0.000245
C43	C	0.884305	-0.673904	-0.000261
C44	C	0.757038	-0.656865	-0.000231
C45	C	0.758114	-0.584042	-0.000222
C46	C	0.822287	-0.556154	-0.000226
C47	C	0.952151	0.087546	-0.000252
C48	C	1.029656	0.088687	-0.000276
C49	C	0.818997	0.220700	-0.000236
C50	C	0.820138	0.298204	-0.000247
N51	N	0.824461	0.093024	0.189481
N52	N	0.824513	0.093037	-0.189919
C53	C	0.872088	0.045436	0.227785
C54	C	0.872092	0.045433	0.304430
C55	C	0.824477	0.093030	0.342768
C56	C	0.776841	0.140621	0.304455
C57	C	0.776834	0.140618	0.227812
N58	N	0.815401	0.154837	0.463094
N59	N	0.815413	0.154838	0.535902
C60	C	0.824496	0.093040	0.573691
N61	N	0.833582	0.031239	0.535920
N62	N	0.833574	0.031240	0.463106
C63	C	0.824480	0.093038	0.425875
C64	C	0.872131	0.045444	0.695101
C65	C	0.872130	0.045440	0.771748
C66	C	0.776882	0.140634	0.771772
C67	C	0.776879	0.140632	0.695127
C68	C	0.824507	0.093038	0.656796
H69	H	0.597091	0.212725	-0.000196
N70	N	0.725519	0.191966	0.813112
H71	H	0.752099	0.222819	0.844892
H72	H	0.695359	0.222065	0.777165
N73	N	0.725459	0.191949	0.186499
H74	H	0.733345	0.241485	0.199822
H75	H	0.732705	0.184667	0.132142
H76	H	0.910868	0.006681	0.196579
N77	N	0.453100	0.227449	-0.000219
H78	H	0.481817	0.268264	-0.000221
H79	H	0.422543	0.229769	-0.045366
N80	N	0.488520	-0.037075	-0.000170
H81	H	0.435570	-0.028182	-0.000183
H82	H	0.504994	-0.064677	-0.045300
N83	N	0.639887	-0.034842	-0.000148
H84	H	0.670458	-0.037233	0.044994
H85	H	0.611122	-0.075618	-0.000177
N86	N	0.725509	0.191964	0.653815
H87	H	0.733396	0.241500	0.667136
H88	H	0.732751	0.184682	0.599457
H89	H	0.153080	0.206181	-0.000267
H90	H	0.910877	0.006680	0.335623
N91	N	0.009089	0.220905	-0.000236
H92	H	0.037810	0.261717	-0.000223
H93	H	-0.021498	0.223264	-0.045363
H94	H	0.051874	-0.026659	-0.000309
H95	H	0.738071	0.179374	0.335674
N96	N	0.923495	-0.005888	0.653752
H97	H	0.953664	-0.036040	0.689651
H98	H	0.896860	-0.036688	0.621971
H99	H	0.183988	-0.024713	-0.000238
H100	H	0.944176	-0.134360	-0.000214
N101	N	0.958900	-0.278352	-0.000235
H102	H	0.999715	-0.249634	-0.000238
H103	H	0.961213	-0.308946	0.044903
H104	H	0.910911	0.006685	0.802935
N105	N	0.694376	-0.242932	-0.000186
H106	H	0.703269	-0.295882	-0.000188
H107	H	0.666769	-0.226492	0.044959
H108	H	0.713281	-0.103448	-0.000184
N109	N	0.952358	-0.722360	-0.000268
H110	H	0.941942	-0.772725	-0.000273
H111	H	0.980345	-0.713339	-0.045408
N112	N	0.687824	-0.686936	-0.000217
H113	H	0.684547	-0.716758	-0.045355
H114	H	0.684574	-0.716746	0.044949
N115	N	0.954589	-0.570993	-0.000252
H116	H	0.994396	-0.610505	-0.000267
H117	H	0.957813	-0.541136	-0.045387
H118	H	0.706738	-0.547464	-0.000208
