data_functionalizedCrystal
_audit_creation_method	'MofGen! by Chris Wilmer'
_symmetry_space_group_name_H-M	'P1'
_symmetry_Int_Tables_number	1
_symmetry_cell_setting	triclinic
loop_
_symmetry_equiv_pos_as_xyz
  x,y,z
_cell_length_a	19.121102
_cell_length_b	19.120786
_cell_length_c	12.759393
_cell_angle_alpha	87.524000
_cell_angle_beta	87.538297
_cell_angle_gamma	89.915559
loop_
_atom_site_label
_atom_site_type_symbol
_atom_site_fract_x
_atom_site_fract_y
_atom_site_fract_z
Zn1	Zn	1.059888	-0.324884	-0.640845
Zn2	Zn	1.054791	-0.442140	-0.457339
Zn3	Zn	0.942643	-0.319908	-0.458019
Zn4	Zn	0.937617	-0.437082	-0.625826
O5	O	0.998735	-0.381003	-0.545507
O6	O	1.157317	-0.344637	-0.622503
O7	O	1.039885	-0.425961	-0.310404
O8	O	0.962432	-0.222458	-0.488842
O9	O	1.153573	-0.430785	-0.487682
O10	O	1.048572	-0.226114	-0.623163
O11	O	0.957490	-0.336158	-0.310904
O12	O	0.843871	-0.331252	-0.474279
O13	O	0.953866	-0.422163	-0.774843
O14	O	0.840178	-0.417339	-0.597565
O15	O	1.043698	-0.339732	-0.785878
O16	O	1.035011	-0.539579	-0.473119
O17	O	0.948923	-0.535862	-0.596906
C18	C	0.816587	-0.373207	-0.534367
C19	C	0.738662	-0.369889	-0.529624
C20	C	0.700146	-0.413218	-0.591475
C21	C	0.626928	-0.410091	-0.587025
C22	C	0.592228	-0.363638	-0.520718
C23	C	0.630749	-0.320304	-0.458865
C24	C	0.703966	-0.323428	-0.463321
C25	C	0.371256	-0.351956	-0.504062
C26	C	0.298034	-0.348836	-0.499608
C27	C	0.294218	-0.438624	-0.627770
C28	C	0.367436	-0.441747	-0.632216
C29	C	0.405951	-0.398410	-0.570367
C30	C	0.517387	-0.360442	-0.516165
C31	C	0.480791	-0.401603	-0.574926
C32	C	0.990888	-0.563160	-0.533333
C33	C	0.987595	-0.641090	-0.528164
C34	C	1.030863	-0.679543	-0.595721
C35	C	1.027766	-0.752767	-0.590866
C36	C	0.981404	-0.787536	-0.518447
C37	C	0.938132	-0.749078	-0.450886
C38	C	0.941225	-0.675856	-0.455747
C39	C	0.969818	-1.008528	-0.500272
C40	C	0.966729	-1.081756	-0.495414
C41	C	1.056362	-1.085440	-0.635396
C42	C	1.059455	-1.012216	-0.640246
C43	C	1.016180	-0.973764	-0.572689
C44	C	0.978239	-0.862383	-0.513480
C45	C	1.019342	-0.898919	-0.577662
C46	C	1.181594	-0.388830	-0.556692
C47	C	1.259518	-0.392166	-0.561458
C48	C	0.998790	-0.380938	-0.819548
C49	C	0.998814	-0.380911	-0.936328
C50	C	1.006631	-0.198136	-0.557753
C51	C	1.009997	-0.120209	-0.562972
C52	C	1.045593	-0.337982	-0.996938
C53	C	1.045606	-0.337952	-1.106665
C54	C	0.952058	-0.423786	-1.095162
C55	C	0.952042	-0.423812	-0.985437
C56	C	1.074249	-0.256305	-1.263693
C57	C	1.121039	-0.213383	-1.324307
C58	C	1.189905	-0.205557	-1.293609
C59	C	1.211995	-0.240663	-1.202299
C60	C	1.165209	-0.283591	-1.141690
C61	C	1.096333	-0.291404	-1.172387
C62	C	0.923407	-0.505459	-0.828408
C63	C	0.876623	-0.548391	-0.767798
C64	C	0.807755	-0.556225	-0.798493
C65	C	0.785667	-0.521131	-0.889806
C66	C	0.832451	-0.478199	-0.950416
C67	C	0.901318	-0.470364	-0.919713
C68	C	0.998722	-0.381019	-0.272538
C69	C	0.998843	-0.380855	-0.155780
H70	H	0.395684	-0.479576	-0.686207
O71	O	0.585377	-0.456958	-0.653524
H72	H	0.621805	-0.489840	-0.700293
H73	H	0.729590	-0.527511	-0.914801
O74	O	0.252679	-0.485357	-0.694489
H75	H	0.195937	-0.475377	-0.680262
O76	O	0.999965	-0.264739	-1.296793
H77	H	0.992472	-0.233124	-1.370473
H78	H	1.097206	-0.983909	-0.699215
H79	H	1.091594	-1.116755	-0.690398
O80	O	1.189020	-0.321451	-1.043205
H81	H	1.244769	-0.308797	-1.032036
H82	H	0.728393	-0.451048	-0.645466
H83	H	0.979483	-0.499080	-0.803402
H84	H	1.268076	-0.234293	-1.177318
H85	H	0.900380	-0.777393	-0.391925
H86	H	0.269783	-0.311000	-0.445619
H87	H	0.934583	-0.977226	-0.445263
H88	H	0.769666	-0.591190	-0.749138
H89	H	0.489126	-0.322621	-0.462175
H90	H	0.602490	-0.282477	-0.404881
H91	H	0.735325	-0.288140	-0.412961
H92	H	0.402606	-0.316673	-0.453691
O93	O	0.928246	-0.899895	-0.435366
H94	H	0.873805	-0.883540	-0.450874
H95	H	0.905991	-0.644547	-0.400736
O96	O	1.080873	-0.642043	-0.673822
H97	H	1.110437	-0.681087	-0.719986
O98	O	0.518219	-0.451693	-0.646457
H99	H	0.550030	-0.488748	-0.598999
H100	H	1.083675	-0.303047	-0.956957
O101	O	1.074433	-0.794244	-0.663730
H102	H	1.107197	-0.757766	-0.714894
H103	H	0.928972	-1.110063	-0.436441
H104	H	1.057087	-0.870608	-0.636630
O105	O	1.240371	-0.159253	-1.358970
H106	H	1.213441	-0.136152	-1.427611
O107	O	1.097215	-0.175507	-1.422778
H108	H	1.041460	-0.188145	-1.433931
H109	H	0.913980	-0.458716	-1.135160
O110	O	0.808630	-0.440336	-1.048899
H111	H	0.752879	-0.452988	-1.060060
H112	H	0.894615	-0.576974	-0.693453
