data_functionalizedCrystal
_audit_creation_method	'MofGen! by Chris Wilmer'
_symmetry_space_group_name_H-M	'P1'
_symmetry_Int_Tables_number	1
_symmetry_cell_setting	triclinic
loop_
_symmetry_equiv_pos_as_xyz
  x,y,z
_cell_length_a	13.897441
_cell_length_b	21.395362
_cell_length_c	21.395361
_cell_angle_alpha	90.046585
_cell_angle_beta	90.036482
_cell_angle_gamma	90.041279
loop_
_atom_site_label
_atom_site_type_symbol
_atom_site_fract_x
_atom_site_fract_y
_atom_site_fract_z
Zn1	Zn	-0.545871	-0.957843	0.249153
Zn2	Zn	-0.384556	-0.957750	0.353940
Zn3	Zn	-0.384531	-0.853063	0.249209
Zn4	Zn	-0.545750	-0.853027	0.353926
O5	O	-0.465177	-0.905421	0.301557
O6	O	-0.524533	-1.045509	0.263036
O7	O	-0.249571	-0.943840	0.340077
O8	O	-0.405974	-0.867016	0.161524
O9	O	-0.406015	-1.045441	0.340022
O10	O	-0.524509	-0.943997	0.161483
O11	O	-0.249553	-0.866926	0.263132
O12	O	-0.405857	-0.765380	0.263118
O13	O	-0.680748	-0.866955	0.339998
O14	O	-0.524304	-0.765354	0.340052
O15	O	-0.680837	-0.943963	0.263022
O16	O	-0.405898	-0.943805	0.441616
O17	O	-0.524327	-0.866865	0.441606
C18	C	-0.465123	-0.905338	0.464345
C19	C	-0.465133	-0.905360	0.533986
C20	C	-0.465065	-0.742633	0.301590
C21	C	-0.465040	-0.672992	0.301619
C22	C	-0.716770	-0.905465	0.301502
C23	C	-0.823984	-0.905484	0.301478
C24	C	-1.020279	-0.905501	0.301436
C25	C	-0.911047	-0.905490	0.301461
C26	C	-0.214563	-0.905413	0.301567
C27	C	-0.107349	-0.905515	0.301414
C28	C	-0.465290	-1.068844	0.301524
C29	C	-0.465338	-1.138486	0.301510
C30	C	-0.526623	-0.640282	0.341732
C31	C	-0.526666	-0.574846	0.341717
C32	C	-0.465109	-0.542124	0.301595
C33	C	-0.403522	-0.574842	0.261475
C34	C	-0.403487	-0.640276	0.261487
C35	C	-0.378272	-0.438402	0.296563
C36	C	-0.378305	-0.372969	0.296555
C37	C	-0.465215	-0.340303	0.301554
C38	C	-0.552095	-0.373078	0.306575
C39	C	-0.552061	-0.438512	0.306587
C40	C	-0.465140	-0.471171	0.301577
C41	C	-0.526850	-0.236640	0.341653
C42	C	-0.526895	-0.171204	0.341633
C43	C	-0.403742	-0.171201	0.261394
C44	C	-0.403706	-0.236636	0.261410
C45	C	-0.465258	-0.269352	0.301543
C46	C	-0.465252	-0.905521	0.138134
C47	C	-0.465284	-0.905564	0.068492
C48	C	-0.403530	-0.945458	0.566684
C49	C	-0.403551	-0.945487	0.632119
C50	C	-0.465166	-0.905407	0.664854
C51	C	-0.526780	-0.865306	0.632149
C52	C	-0.526764	-0.865283	0.566714
C53	C	-0.472695	-0.848992	0.768584
C54	C	-0.472705	-0.849015	0.834017
C55	C	-0.465222	-0.905480	0.866675
C56	C	-0.457710	-0.961925	0.833892
C57	C	-0.457693	-0.961901	0.768458
C58	C	-0.465191	-0.905429	0.735807
C59	C	-0.403640	-0.945613	0.970325
C60	C	-0.403668	-0.945643	1.035762
C61	C	-0.526892	-0.865457	1.035790
C62	C	-0.526869	-0.865432	0.970355
C63	C	-0.465237	-0.905510	0.937626
H64	H	-0.576746	-0.666915	0.374411
H65	H	-0.353553	-0.263269	0.228749
H66	H	-0.577028	-0.832778	0.943730
O67	O	-0.480800	-0.788138	0.869372
H68	H	-0.546147	-0.789123	0.899155
O69	O	-0.593345	-0.822226	1.071092
H70	H	-0.669068	-0.832944	1.058486
H71	H	-0.353458	-0.978249	0.943677
O72	O	-0.593066	-0.539567	0.385009
H73	H	-0.668804	-0.552186	0.374350
H74	H	-0.307495	-0.464992	0.292489
H75	H	-0.353505	-0.978300	1.062383
H76	H	-0.577049	-0.144572	0.374297
H77	H	-0.353387	-0.978142	0.658747
H78	H	-0.478792	-0.803008	0.742000
H79	H	-0.451579	-1.007860	0.741768
O80	O	-0.593228	-0.822075	0.667458
H81	H	-0.668953	-0.832793	0.654856
O82	O	-0.645759	-0.473866	0.311988
H83	H	-0.706205	-0.440164	0.315457
H84	H	-0.576930	-0.832630	0.540091
H85	H	-0.622866	-0.346483	0.310645
O86	O	-0.337121	-0.539558	0.218198
H87	H	-0.261384	-0.552065	0.228886
O88	O	-0.593251	-0.271941	0.384919
H89	H	-0.576597	-0.259324	0.434082
O90	O	-0.337336	-0.135918	0.218123
H91	H	-0.347698	-0.084921	0.224857
H92	H	-0.307562	-0.346288	0.292471
O93	O	-0.337045	-0.675563	0.218232
H94	H	-0.294238	-0.641819	0.190334
O95	O	-0.337073	-0.988691	0.531382
H96	H	-0.294247	-1.016584	0.565117
O97	O	-0.449646	-1.022835	0.869104
H98	H	-0.450934	-1.013372	0.920112
