data_functionalizedCrystal
_audit_creation_method	'MofGen! by Chris Wilmer'
_symmetry_space_group_name_H-M	'P1'
_symmetry_Int_Tables_number	1
_symmetry_cell_setting	triclinic
loop_
_symmetry_equiv_pos_as_xyz
  x,y,z
_cell_length_a	12.827893
_cell_length_b	17.637651
_cell_length_c	12.827885
_cell_angle_alpha	78.750798
_cell_angle_beta	89.980918
_cell_angle_gamma	101.219340
loop_
_atom_site_label
_atom_site_type_symbol
_atom_site_fract_x
_atom_site_fract_y
_atom_site_fract_z
Zn1	Zn	1.513560	-0.314727	-0.506616
Zn2	Zn	1.478114	-0.446962	-0.296487
Zn3	Zn	1.338791	-0.314766	-0.331879
Zn4	Zn	1.303462	-0.446904	-0.471203
O5	O	1.408482	-0.380840	-0.401546
O6	O	1.655092	-0.332276	-0.478750
O7	O	1.459584	-0.429467	-0.154935
O8	O	1.391593	-0.204119	-0.384691
O9	O	1.629050	-0.429429	-0.324369
O10	O	1.519995	-0.204091	-0.513069
O11	O	1.357223	-0.332343	-0.180937
O12	O	1.187871	-0.332286	-0.350353
O13	O	1.331381	-0.429330	-0.622148
O14	O	1.161915	-0.429367	-0.452713
O15	O	1.485739	-0.332220	-0.648165
O16	O	1.425327	-0.557596	-0.290031
O17	O	1.297011	-0.557553	-0.418394
C18	C	1.136976	-0.380825	-0.401531
C19	C	1.020819	-0.380838	-0.401544
C20	C	0.836151	-0.428964	-0.452090
C21	C	0.956204	-0.428952	-0.452077
C22	C	1.353518	-0.586263	-0.346552
C23	C	1.330099	-0.674144	-0.323060
C24	C	1.587067	-0.962804	-0.580340
C25	C	1.565029	-1.045381	-0.558248
C26	C	1.431413	-1.045518	-0.424438
C27	C	1.453443	-0.962939	-0.446516
C28	C	1.531271	-0.921588	-0.524469
C29	C	1.397647	-0.921724	-0.390645
C30	C	1.419672	-0.839152	-0.412724
C31	C	1.497494	-0.797795	-0.490676
C32	C	1.553296	-0.839017	-0.546548
C33	C	1.319815	-0.963076	-0.312698
C34	C	1.264018	-0.921861	-0.256826
C35	C	1.286049	-0.839287	-0.278901
C36	C	1.363870	-0.797931	-0.356852
C37	C	1.230247	-0.798066	-0.223028
C38	C	1.252272	-0.715494	-0.245108
C39	C	1.385896	-0.715359	-0.378932
C40	C	1.681048	-0.380855	-0.401562
C41	C	1.797199	-0.380861	-0.401568
C42	C	1.408573	-0.380764	-0.674137
C43	C	1.408612	-0.380731	-0.790299
C44	C	1.463689	-0.174615	-0.456778
C45	C	1.487215	-0.086734	-0.480314
C46	C	1.485003	-0.332669	-0.854960
C47	C	1.485045	-0.332634	-0.975020
C48	C	1.408466	-0.380858	-0.130031
C49	C	1.408689	-0.380668	-0.013930
H50	H	1.449278	-0.681690	-0.442401
C51	C	1.320297	-0.436287	-0.835572
H52	H	1.272361	-0.466442	-0.779436
H53	H	1.351108	-0.470697	-0.868941
H54	H	1.282920	-0.405992	-0.886257
H55	H	1.368043	-1.079197	-0.360972
H56	H	1.550448	-0.291489	-1.030577
C57	C	1.001509	-0.484589	-0.510515
H58	H	0.945398	-0.514772	-0.542226
H59	H	1.034879	-0.518968	-0.461220
H60	H	1.052193	-0.454345	-0.564170
H61	H	0.852730	-0.339673	-0.358302
H62	H	0.780619	-0.470159	-0.495347
H63	H	1.343288	-0.421821	-0.958377
H64	H	0.987281	-0.339650	-0.358294
H65	H	1.515426	-0.730560	-0.508651
C66	C	1.638884	-0.793525	-0.632316
H67	H	1.668955	-0.829896	-0.662442
H68	H	1.693038	-0.761300	-0.601019
H69	H	1.607442	-0.761323	-0.686420
C70	C	1.672655	-0.917313	-0.666107
H71	H	1.702725	-0.953684	-0.696233
H72	H	1.726808	-0.885087	-0.634811
H73	H	1.641213	-0.885110	-0.720211
H74	H	1.610456	-1.078936	-0.603765
H75	H	1.301875	-1.030312	-0.294733
H76	H	1.200649	-0.955540	-0.193360
H77	H	1.166873	-0.831747	-0.159566
C78	C	1.190899	-0.670154	-0.183652
H79	H	1.141401	-0.706607	-0.134058
H80	H	1.153937	-0.637945	-0.232201
H81	H	1.239498	-0.637947	-0.146766
H82	H	1.550369	-0.291544	-0.821436
