data_functionalizedCrystal
_audit_creation_method	'MofGen! by Chris Wilmer'
_symmetry_space_group_name_H-M	'P1'
_symmetry_Int_Tables_number	1
_symmetry_cell_setting	triclinic
loop_
_symmetry_equiv_pos_as_xyz
  x,y,z
_cell_length_a	29.839131
_cell_length_b	18.215407
_cell_length_c	18.215399
_cell_angle_alpha	90.020595
_cell_angle_beta	89.969127
_cell_angle_gamma	89.958659
loop_
_atom_site_label
_atom_site_type_symbol
_atom_site_fract_x
_atom_site_fract_y
_atom_site_fract_z
Zn1	Zn	-0.178859	-1.124987	-0.416116
Zn2	Zn	0.154474	-0.791654	-0.082783
Zn3	Zn	0.487808	-0.458321	0.250551
Zn4	Zn	-0.253988	-1.124860	-0.293043
Zn5	Zn	0.079345	-0.791527	0.040290
Zn6	Zn	0.412678	-0.458194	0.373623
Zn7	Zn	-0.178873	-1.001920	-0.293062
Zn8	Zn	0.154460	-0.668587	0.040272
Zn9	Zn	0.487794	-0.335253	0.373605
Zn10	Zn	-0.253962	-1.001850	-0.416067
Zn11	Zn	0.079371	-0.668517	-0.082733
Zn12	Zn	0.412704	-0.335184	0.250600
O13	O	-0.216421	-1.063404	-0.354572
O14	O	0.116913	-0.730071	-0.021238
O15	O	0.450246	-0.396738	0.312095
O16	O	-0.188830	-1.227955	-0.399803
O17	O	0.144503	-0.894621	-0.066470
O18	O	0.477837	-0.561288	0.266864
O19	O	-0.244041	-1.108528	-0.190061
O20	O	0.089293	-0.775195	0.143272
O21	O	0.422626	-0.441861	0.476605
O22	O	-0.116004	-1.018327	-0.309413
O23	O	0.217329	-0.684994	0.023920
O24	O	0.550663	-0.351661	0.357253
O25	O	-0.244027	-1.227861	-0.309382
O26	O	0.089306	-0.894528	0.023951
O27	O	0.422640	-0.561195	0.357285
O28	O	-0.115994	-1.108745	-0.399821
O29	O	0.217340	-0.775411	-0.066487
O30	O	0.550673	-0.442078	0.266846
O31	O	-0.188854	-1.018204	-0.190075
O32	O	0.144480	-0.684871	0.143258
O33	O	0.477813	-0.351538	0.476592
O34	O	-0.188829	-0.898926	-0.309365
O35	O	0.144505	-0.565593	0.023968
O36	O	0.477838	-0.232260	0.357301
O37	O	-0.243983	-1.018209	-0.519057
O38	O	0.089350	-0.684875	-0.185724
O39	O	0.422683	-0.351542	0.147609
O40	O	-0.243997	-0.898875	-0.399737
O41	O	0.089337	-0.565542	-0.066403
O42	O	0.422670	-0.232209	0.266930
O43	O	-0.188805	-1.108677	-0.519094
O44	O	0.144528	-0.775344	-0.185760
O45	O	0.477862	-0.442010	0.147573
O46	O	-0.316852	-1.108460	-0.309334
O47	O	0.016481	-0.775127	0.023999
O48	O	0.349815	-0.441794	0.357332
O49	O	-0.316833	-1.018086	-0.399719
O50	O	0.016500	-0.684752	-0.066386
O51	O	0.349834	-0.351419	0.266948
C52	C	-0.216412	-0.872198	-0.354548
C53	C	0.116921	-0.538865	-0.021215
C54	C	0.450255	-0.205532	0.312119
C55	C	-0.216419	-0.790399	-0.354555
C56	C	0.116914	-0.457066	-0.021222
C57	C	0.450248	-0.123733	0.312111
C58	C	-0.245189	-0.602198	-0.401550
C59	C	0.088144	-0.268865	-0.068217
C60	C	0.421478	0.064469	0.265116
C61	C	-0.245190	-0.525339	-0.401558
C62	C	0.088143	-0.192006	-0.068225
C63	C	0.421477	0.141327	0.265108
C64	C	-0.187655	-0.525363	-0.307596
C65	C	0.145679	-0.192030	0.025737
C66	C	0.479012	0.141304	0.359070
C67	C	-0.187652	-0.602220	-0.307592
C68	C	0.145681	-0.268887	0.025741
C69	C	0.479015	0.064446	0.359074
C70	C	-0.216422	-0.640636	-0.354568
C71	C	0.116912	-0.307303	-0.021235
C72	C	0.450245	0.026031	0.312098
C73	C	-0.216425	-0.486920	-0.354580
C74	C	0.116908	-0.153586	-0.021247
C75	C	0.450241	0.179747	0.312086
C76	C	-0.216426	-0.403586	-0.354589
C77	C	0.116907	-0.070253	-0.021255
C78	C	0.450240	0.263081	0.312078
C79	C	-0.216420	-0.723975	-0.354561
C80	C	0.116913	-0.390641	-0.021228
C81	C	0.450246	-0.057308	0.312106
C82	C	-0.333143	-1.063272	-0.354535
C83	C	0.000190	-0.729938	-0.021202
C84	C	0.333523	-0.396605	0.312131
C85	C	-0.383078	-1.063282	-0.354544
C86	C	-0.049744	-0.729949	-0.021211
C87	C	0.283589	-0.396615	0.312122
C88	C	-0.692718	-1.110548	-0.307577
C89	C	-0.359385	-0.777215	0.025756
C90	C	-0.026052	-0.443882	0.359089
C91	C	-0.880391	-1.110639	-0.307606
C92	C	-0.547058	-0.777306	0.025727
C93	C	-0.213725	-0.443972	0.359061
O94	O	-0.904654	-1.150721	-0.267645
O95	O	-0.571320	-0.817388	0.065689
O96	O	-0.237987	-0.484054	0.399022
N97	N	-0.903863	-1.063557	-0.354627
N98	N	-0.570529	-0.730224	-0.021294
N99	N	-0.237196	-0.396890	0.312039
C100	C	-0.880413	-1.016452	-0.401648
C101	C	-0.547080	-0.683119	-0.068315
C102	C	-0.213746	-0.349786	0.265018
O103	O	-0.904683	-0.976414	-0.441649
O104	O	-0.571350	-0.643080	-0.108316
O105	O	-0.238016	-0.309747	0.225018
C106	C	-0.692741	-1.016366	-0.401623
C107	C	-0.359407	-0.683033	-0.068290
C108	C	-0.026074	-0.349699	0.265044
C109	C	-0.669272	-1.063446	-0.354593
C110	C	-0.335938	-0.730112	-0.021260
C111	C	-0.002605	-0.396779	0.312073
C112	C	-0.669249	-1.157625	-0.260552
C113	C	-0.335916	-0.824291	0.072781
C114	C	-0.002582	-0.490958	0.406115
C115	C	-0.622334	-1.157599	-0.260542
C116	C	-0.289000	-0.824265	0.072791
C117	C	0.044333	-0.490932	0.406124
C118	C	-0.598887	-1.110496	-0.307558
C119	C	-0.265554	-0.777163	0.025775
C120	C	0.067779	-0.443830	0.359108
C121	C	-0.622356	-1.063420	-0.354584
C122	C	-0.289023	-0.730086	-0.021250
C123	C	0.044310	-0.396753	0.312083
C124	C	-0.669292	-0.969265	-0.448647
C125	C	-0.335959	-0.635932	-0.115314
C126	C	-0.002625	-0.302599	0.218019
C127	C	-0.622371	-0.969249	-0.448638
C128	C	-0.289038	-0.635916	-0.115305
C129	C	0.044296	-0.302583	0.218029
C130	C	-0.598902	-1.016329	-0.401608
C131	C	-0.265569	-0.682996	-0.068275
C132	C	0.067765	-0.349662	0.265058
C133	C	-0.551994	-1.016291	-0.401590
C134	C	-0.218661	-0.682958	-0.068257
C135	C	0.114672	-0.349624	0.265077
N136	N	-0.528523	-1.063373	-0.354569
N137	N	-0.195190	-0.730040	-0.021235
N138	N	0.138144	-0.396706	0.312098
C139	C	-0.551969	-1.110476	-0.307553
C140	C	-0.218636	-0.777142	0.025781
C141	C	0.114697	-0.443809	0.359114
C142	C	-0.978944	-1.016500	-0.401657
C143	C	-0.645610	-0.683167	-0.068324
C144	C	-0.312277	-0.349834	0.265009
C145	C	-1.025861	-1.016521	-0.401663
C146	C	-0.692528	-0.683187	-0.068330
C147	C	-0.359195	-0.349854	0.265004
C148	C	-1.025836	-1.110709	-0.307621
C149	C	-0.692503	-0.777375	0.025712
C150	C	-0.359170	-0.444042	0.359045
C151	C	-0.978918	-1.110684	-0.307612
C152	C	-0.645584	-0.777350	0.025721
C153	C	-0.312251	-0.444017	0.359054
C154	C	-0.955472	-1.063582	-0.354636
C155	C	-0.622139	-0.730249	-0.021303
C156	C	-0.288805	-0.396916	0.312031
C157	C	-0.453444	-1.110417	-0.307536
C158	C	-0.120110	-0.777084	0.025797
C159	C	0.213223	-0.443750	0.359131
C160	C	-0.406524	-1.110385	-0.307528
C161	C	-0.073191	-0.777051	0.025805
C162	C	0.260143	-0.443718	0.359138
C163	C	-0.406553	-1.016200	-0.401573
C164	C	-0.073220	-0.682867	-0.068239
C165	C	0.260114	-0.349533	0.265094
C166	C	-0.453469	-1.016229	-0.401578
C167	C	-0.120135	-0.682896	-0.068244
C168	C	0.213198	-0.349563	0.265089
C169	C	-0.476913	-1.063344	-0.354557
C170	C	-0.143579	-0.730010	-0.021224
C171	C	0.189754	-0.396677	0.312110
O172	O	-0.527703	-0.976236	-0.441536
O173	O	-0.194370	-0.642903	-0.108203
O174	O	0.138964	-0.309569	0.225131
O175	O	-0.527691	-1.150520	-0.267570
O176	O	-0.194358	-0.817187	0.065764
O177	O	0.138975	-0.483853	0.399097
C178	C	-0.739634	-1.110574	-0.307587
C179	C	-0.406300	-0.777241	0.025747
C180	C	-0.072967	-0.443908	0.359080
C181	C	-0.763103	-1.063498	-0.354612
C182	C	-0.429769	-0.730164	-0.021279
C183	C	-0.096436	-0.396831	0.312054
C184	C	-0.739656	-1.016395	-0.401628
C185	C	-0.406323	-0.683062	-0.068295
C186	C	-0.072990	-0.349728	0.265039
C187	C	-0.810020	-1.063518	-0.354618
C188	C	-0.476687	-0.730185	-0.021284
C189	C	-0.143354	-0.396852	0.312049
C190	C	-0.833467	-1.110621	-0.307602
C191	C	-0.500134	-0.777288	0.025731
C192	C	-0.166800	-0.443954	0.359065
C193	C	-0.809995	-1.157703	-0.260580
C194	C	-0.476662	-0.824370	0.072753
C195	C	-0.143329	-0.491036	0.406086
C196	C	-0.763080	-1.157677	-0.260571
C197	C	-0.429747	-0.824344	0.072762
C198	C	-0.096413	-0.491010	0.406096
C199	C	-0.763128	-0.969313	-0.448650
C200	C	-0.429794	-0.635980	-0.115316
C201	C	-0.096461	-0.302646	0.218017
C202	C	-0.810043	-0.969342	-0.448655
C203	C	-0.476710	-0.636009	-0.115321
C204	C	-0.143377	-0.302676	0.218012
C205	C	-0.833490	-1.016445	-0.401639
C206	C	-0.500156	-0.683112	-0.068305
C207	C	-0.166823	-0.349778	0.265028
C208	C	-0.099242	-1.063558	-0.354625
C209	C	0.234091	-0.730225	-0.021291
C210	C	0.567424	-0.396891	0.312042
C211	C	-0.049308	-1.063623	-0.354647
C212	C	0.284026	-0.730290	-0.021314
C213	C	0.617359	-0.396957	0.312020
C214	C	-0.216390	-1.063449	-0.546525
C215	C	0.116944	-0.730116	-0.213191
C216	C	0.450277	-0.396783	0.120142
C217	C	-0.216376	-1.063468	-0.628324
C218	C	0.116957	-0.730135	-0.294990
C219	C	0.450290	-0.396802	0.038343
C220	C	-0.216428	-0.255357	-0.354593
C221	C	0.116905	0.077976	-0.021259
C222	C	0.450238	0.411309	0.312074
C223	C	-0.216428	-0.337156	-0.354593
C224	C	0.116905	-0.003823	-0.021260
C225	C	0.450239	0.329510	0.312074
C226	C	-0.187618	-1.110592	-0.816538
C227	C	0.145715	-0.777259	-0.483205
C228	C	0.479048	-0.443926	-0.149871
C229	C	-0.187605	-1.110601	-0.893397
C230	C	0.145728	-0.777268	-0.560063
C231	C	0.479062	-0.443934	-0.226730
C232	C	-0.245065	-1.016397	-0.893348
C233	C	0.088268	-0.683063	-0.560014
C234	C	0.421601	-0.349730	-0.226681
C235	C	-0.245076	-1.016385	-0.816490
C236	C	0.088258	-0.683051	-0.483157
C237	C	0.421591	-0.349718	-0.149824
C238	C	-0.216353	-1.063487	-0.778087
C239	C	0.116980	-0.730153	-0.444754
C240	C	0.450314	-0.396820	-0.111421
C241	C	-0.216329	-1.063507	-0.931804
C242	C	0.117004	-0.730174	-0.598470
C243	C	0.450337	-0.396841	-0.265137
C244	C	-0.216315	-1.063517	-1.015137
C245	C	0.117018	-0.730183	-0.681804
C246	C	0.450351	-0.396850	-0.348471
C247	C	-0.216366	-1.063477	-0.694748
C248	C	0.116967	-0.730143	-0.361415
C249	C	0.450301	-0.396810	-0.028082
C250	C	-0.216419	-1.063402	-0.163366
C251	C	0.116914	-0.730069	0.169968
C252	C	0.450248	-0.396736	0.503301
C253	C	-0.216306	-1.063526	-0.081567
C254	C	0.117028	-0.730192	0.251766
C255	C	0.450361	-0.396859	0.585100
H256	H	-0.268615	-0.494047	-0.439817
H257	H	0.064719	-0.160713	-0.106484
H258	H	0.398052	0.172620	0.226850
H259	H	-0.268451	-0.978050	-0.924625
H260	H	0.064882	-0.644716	-0.591291
H261	H	0.398215	-0.311383	-0.257958
N262	N	-0.158265	-0.641501	-0.259608
N263	N	0.175069	-0.308167	0.073725
N264	N	0.508402	0.025166	0.407059
N265	N	-0.129657	-0.684430	-0.285588
N266	N	0.203676	-0.351096	0.047745
N267	N	0.537009	-0.017763	0.381078
H268	H	-0.108902	-0.712173	-0.251704
H269	H	0.224431	-0.378840	0.081630
H270	H	0.557764	-0.045506	0.414963
N271	N	-1.049831	-0.968434	-0.449707
N272	N	-0.716498	-0.635101	-0.116373
N273	N	-0.383165	-0.301767	0.216960
N274	N	-1.075976	-0.994310	-0.496635
N275	N	-0.742643	-0.660977	-0.163301
N276	N	-0.409309	-0.327644	0.170032
H277	H	-1.092904	-0.960350	-0.530570
H278	H	-0.759571	-0.627017	-0.197237
H279	H	-0.426237	-0.293684	0.136096
N280	N	-0.382559	-1.158479	-0.259478
N281	N	-0.049225	-0.825145	0.073856
N282	N	0.284108	-0.491812	0.407189
N283	N	-0.403502	-1.200530	-0.217504
N284	N	-0.070169	-0.867197	0.115829
N285	N	0.263164	-0.533864	0.449163
H286	H	-0.386578	-1.234496	-0.183569
H287	H	-0.053245	-0.901163	0.149764
H288	H	0.280088	-0.567830	0.483098
H289	H	-0.472526	-1.148784	-0.269249
H290	H	-0.139193	-0.815450	0.064085
H291	H	0.194140	-0.482117	0.397418
N292	N	-0.158282	-1.158698	-0.777298
N293	N	0.175051	-0.825365	-0.443965
N294	N	0.508384	-0.492031	-0.110632
N295	N	-0.174094	-1.205568	-0.734412
N296	N	0.159239	-0.872235	-0.401079
N297	N	0.492572	-0.538901	-0.067745
H298	H	-0.153374	-1.239543	-0.706699
H299	H	0.179959	-0.906210	-0.373366
H300	H	0.513292	-0.572876	-0.040033
H301	H	-0.268614	-0.633474	-0.439803
H302	H	0.064719	-0.300140	-0.106470
H303	H	0.398053	0.033193	0.226864
H304	H	-0.268475	-0.978021	-0.785183
H305	H	0.064859	-0.644687	-0.451850
H306	H	0.398192	-0.311354	-0.118516
N307	N	-0.382605	-0.968092	-0.449609
N308	N	-0.049272	-0.634758	-0.116276
N309	N	0.284062	-0.301425	0.217058
N310	N	-0.403561	-0.926063	-0.491601
N311	N	-0.070228	-0.592729	-0.158268
N312	N	0.263106	-0.259396	0.175065
H313	H	-0.386647	-0.892089	-0.525532
H314	H	-0.053314	-0.558756	-0.192199
H315	H	0.280019	-0.225423	0.141134
H316	H	-0.164232	-0.494076	-0.269349
H317	H	0.169101	-0.160742	0.063984
H318	H	0.502434	0.172591	0.397318
N319	N	-0.739184	-0.921204	-0.496688
N320	N	-0.405850	-0.587871	-0.163355
N321	N	-0.072517	-0.254538	0.169978
N322	N	-0.744399	-0.926050	-0.564600
N323	N	-0.411065	-0.592716	-0.231267
N324	N	-0.077732	-0.259383	0.102066
H325	H	-0.727490	-0.892068	-0.598531
H326	H	-0.394157	-0.558735	-0.265197
H327	H	-0.060824	-0.225401	0.068136
N328	N	-0.955000	-0.968390	-0.449703
N329	N	-0.621667	-0.635057	-0.116370
N330	N	-0.288333	-0.301723	0.216963
N331	N	-0.960218	-0.973236	-0.517615
N332	N	-0.626885	-0.639903	-0.184281
N333	N	-0.293552	-0.306569	0.149052
H334	H	-0.943311	-0.939257	-0.551548
H335	H	-0.609977	-0.605923	-0.218214
H336	H	-0.276644	-0.272590	0.115119
H337	H	-0.829148	-0.930998	-0.486951
H338	H	-0.495814	-0.597665	-0.153618
H339	H	-0.162481	-0.264331	0.179715
H340	H	-0.603228	-1.195937	-0.222249
H341	H	-0.269895	-0.862604	0.111084
H342	H	0.063439	-0.529271	0.444418
N343	N	-0.477443	-0.968146	-0.449625
N344	N	-0.144109	-0.634813	-0.116291
N345	N	0.189224	-0.301479	0.217042
N346	N	-0.503582	-0.994030	-0.496556
N347	N	-0.170249	-0.660697	-0.163223
N348	N	0.163085	-0.327364	0.170111
H349	H	-0.520511	-0.960076	-0.530496
H350	H	-0.187177	-0.626742	-0.197163
H351	H	0.146156	-0.293409	0.136170
N352	N	-0.693187	-1.205752	-0.212521
N353	N	-0.359854	-0.872418	0.120812
N354	N	-0.026521	-0.539085	0.454146
N355	N	-0.672218	-1.247778	-0.170544
N356	N	-0.338885	-0.914445	0.162789
N357	N	-0.005552	-0.581112	0.496123
H358	H	-0.689121	-1.281769	-0.136616
H359	H	-0.355788	-0.948435	0.196718
H360	H	-0.022455	-0.615102	0.530051
H361	H	-0.959812	-1.149021	-0.269317
H362	H	-0.626479	-0.815687	0.064016
H363	H	-0.293145	-0.482354	0.397349
H364	H	-0.688392	-0.930924	-0.486941
H365	H	-0.355059	-0.597591	-0.153607
H366	H	-0.021726	-0.264258	0.179726
N367	N	-1.049798	-1.158816	-0.259596
N368	N	-0.716465	-0.825483	0.073737
N369	N	-0.383131	-0.492149	0.407070
N370	N	-1.091688	-1.158822	-0.259615
N371	N	-0.758355	-0.825488	0.073719
N372	N	-0.425022	-0.492155	0.407052
H373	H	-1.108614	-1.192798	-0.225702
H374	H	-0.775280	-0.859465	0.107631
H375	H	-0.441947	-0.526131	0.440965
H376	H	-0.603284	-0.930894	-0.486933
H377	H	-0.269950	-0.597561	-0.153599
H378	H	0.063383	-0.264228	0.179734
H379	H	-0.743975	-1.196014	-0.222275
H380	H	-0.410642	-0.862680	0.111058
H381	H	-0.077308	-0.529347	0.444392
H382	H	-0.829094	-1.196053	-0.222296
H383	H	-0.495760	-0.862720	0.111037
H384	H	-0.162427	-0.529387	0.444370
H385	H	-0.164206	-1.148958	-0.924700
H386	H	0.169128	-0.815625	-0.591366
H387	H	0.502461	-0.482291	-0.258033
