data_functionalizedCrystal
_audit_creation_method	'MofGen! by Chris Wilmer'
_symmetry_space_group_name_H-M	'P1'
_symmetry_Int_Tables_number	1
_symmetry_cell_setting	triclinic
loop_
_symmetry_equiv_pos_as_xyz
  x,y,z
_cell_length_a	6.817900
_cell_length_b	11.102289
_cell_length_c	14.125286
_cell_angle_alpha	94.650305
_cell_angle_beta	100.396688
_cell_angle_gamma	108.605707
loop_
_atom_site_label
_atom_site_type_symbol
_atom_site_fract_x
_atom_site_fract_y
_atom_site_fract_z
V1	V	-4.017305	-0.174858	-0.299990
O2	O	-3.978131	0.009412	-0.294280
O3	O	-3.994727	-0.347685	-0.297938
O4	O	-3.952991	-0.171725	-0.430827
O5	O	-4.020156	-0.167765	-0.160472
V6	V	-4.499649	-0.152869	-0.283303
O7	O	-4.281150	-0.223091	-0.336596
O8	O	-4.686002	-0.104636	-0.246697
O9	O	-4.299021	0.019958	-0.285355
O10	O	-4.656220	-0.337139	-0.289013
O11	O	-4.614196	-0.159962	-0.422821
O12	O	-4.340757	-0.156002	-0.152467
C13	C	-3.846524	-0.389830	-0.293206
C14	C	-3.909244	-0.531115	-0.292400
C15	C	-4.121210	-0.603949	-0.296822
C16	C	-4.180133	-0.736703	-0.296073
C17	C	-3.815102	-0.723776	-0.286478
C18	C	-3.756184	-0.591026	-0.287233
C19	C	-4.331957	-0.611412	-0.302357
C20	C	-4.390880	-0.744166	-0.301609
C21	C	-3.793285	-0.165374	-0.462717
C22	C	-3.822156	-0.163956	-0.569676
C23	C	-4.061310	-0.166532	-0.817798
C24	C	-3.875025	-0.161193	-0.765483
C25	C	-3.845609	-0.162731	-0.656526
C26	C	-4.090733	-0.164994	-0.926765
C27	C	-4.110567	0.062096	-0.290085
C28	C	-4.027085	0.203381	-0.290896
C29	C	-4.163806	-0.162357	-0.120571
C30	C	-4.114173	-0.163768	-0.013611
H31	H	-4.421845	-0.591963	-0.372332
H32	H	-3.737631	-0.155463	-0.802525
N33	N	-4.481117	-0.775793	-0.219158
N34	N	-4.544717	-0.890026	-0.204590
H35	H	-4.608440	-0.912364	-0.146360
H36	H	-4.198692	-0.172260	-0.780758
H37	H	-3.583591	-0.531732	-0.283644
H38	H	-3.690495	-0.772573	-0.282272
H39	H	-4.353333	-0.558407	-0.234518
H40	H	-4.500300	-0.801800	-0.372889
