data_functionalizedCrystal
_audit_creation_method	'MofGen! by Chris Wilmer'
_symmetry_space_group_name_H-M	'P1'
_symmetry_Int_Tables_number	1
_symmetry_cell_setting	triclinic
loop_
_symmetry_equiv_pos_as_xyz
  x,y,z
_cell_length_a	12.759401
_cell_length_b	18.050590
_cell_length_c	12.759393
_cell_angle_alpha	90.034679
_cell_angle_beta	90.019676
_cell_angle_gamma	90.018979
loop_
_atom_site_label
_atom_site_type_symbol
_atom_site_fract_x
_atom_site_fract_y
_atom_site_fract_z
Zn1	Zn	1.606238	-0.295615	0.593954
Zn2	Zn	2.106238	0.204385	1.093954
Zn3	Zn	1.606117	-0.419823	0.418261
Zn4	Zn	2.106117	0.080177	0.918261
Zn5	Zn	1.430537	-0.295652	0.418293
Zn6	Zn	1.930537	0.204348	0.918293
Zn7	Zn	1.430517	-0.419769	0.593903
Zn8	Zn	1.930517	0.080231	1.093903
O9	O	1.518352	-0.357715	0.506103
O10	O	2.018352	0.142285	1.006103
O11	O	1.753243	-0.312099	0.570656
O12	O	2.253243	0.187901	1.070656
O13	O	1.582784	-0.403390	0.271245
O14	O	2.082784	0.096610	0.771245
O15	O	1.453903	-0.191723	0.441630
O16	O	1.953903	0.308277	0.941630
O17	O	1.753155	-0.403354	0.441576
O18	O	2.253155	0.096646	0.941576
O19	O	1.582990	-0.191695	0.570687
O20	O	2.082990	0.308305	1.070687
O21	O	1.453786	-0.312162	0.271268
O22	O	1.953786	0.187838	0.771268
O23	O	1.283513	-0.312109	0.441580
O24	O	1.783513	0.187891	0.941580
O25	O	1.453869	-0.403261	0.740931
O26	O	1.953869	0.096739	1.240931
O27	O	1.283499	-0.403297	0.570599
O28	O	1.783499	0.096703	1.070599
O29	O	1.582971	-0.312046	0.740968
O30	O	2.082971	0.187954	1.240968
O31	O	1.582765	-0.523740	0.441526
O32	O	2.082765	-0.023740	0.941526
O33	O	1.453752	-0.523700	0.570568
O34	O	1.953752	-0.023700	1.070568
C35	C	1.245385	-0.357702	0.506088
C36	C	1.745385	0.142298	1.006088
C37	C	1.128608	-0.357714	0.506107
C38	C	1.628608	0.142286	1.006107
C39	C	1.073793	-0.310284	0.573423
C40	C	1.573793	0.189716	1.073423
C41	C	0.964069	-0.310291	0.573429
C42	C	1.464069	0.189709	1.073429
C43	C	0.963985	-0.405166	0.438802
C44	C	1.463985	0.094834	0.938802
C45	C	1.073707	-0.405155	0.438790
C46	C	1.573707	0.094845	0.938790
C47	C	1.518272	-0.550667	0.506061
C48	C	2.018272	-0.050667	1.006061
C49	C	1.518333	-0.633213	0.506078
C50	C	2.018333	-0.133213	1.006078
C51	C	1.588636	-0.832658	0.436003
C52	C	2.088636	-0.332658	0.936003
C53	C	1.614306	-0.881983	0.531889
C54	C	2.114306	-0.381983	1.031889
C55	C	1.518393	-0.784343	0.506120
C56	C	2.018393	-0.284343	1.006120
C57	C	1.492831	-0.882100	0.410277
C58	C	1.992831	-0.382100	0.910277
C59	C	1.518452	-0.930328	0.506152
C60	C	2.018452	-0.430328	1.006152
C61	C	1.544111	-0.832581	0.602057
C62	C	2.044111	-0.332581	1.102057
C63	C	1.422592	-0.832693	0.480380
C64	C	1.922592	-0.332693	0.980380
C65	C	1.448224	-0.881996	0.576332
C66	C	1.948224	-0.381996	1.076332
C67	C	1.518361	-0.700245	0.506100
C68	C	2.018361	-0.200245	1.006100
C69	C	1.518484	-1.014425	0.506183
C70	C	2.018484	-0.514425	1.006183
C71	C	1.792386	-0.357728	0.506118
C72	C	2.292386	0.142272	1.006118
C73	C	1.909162	-0.357734	0.506125
C74	C	2.409162	0.142266	1.006125
C75	C	1.518431	-0.357643	0.780136
C76	C	2.018431	0.142357	1.280136
C77	C	1.518465	-0.357613	0.896913
C78	C	2.018465	0.142387	1.396913
C79	C	1.518462	-0.164009	0.506168
C80	C	2.018462	0.335991	1.006168
C81	C	1.518509	-0.081463	0.506196
C82	C	2.018509	0.418537	1.006196
C83	C	1.518335	-0.357732	0.233135
C84	C	2.018335	0.142268	0.733135
C85	C	1.518505	-0.357553	0.116359
C86	C	2.018505	0.142447	0.616359
C87	C	1.585693	-0.310110	0.951796
C88	C	2.085693	0.189890	1.451796
C89	C	1.585711	-0.310078	1.061521
C90	C	2.085711	0.189922	1.561521
C91	C	1.451269	-0.405059	1.061468
C92	C	1.951269	0.094941	1.561468
C93	C	1.451247	-0.405086	0.951746
C94	C	1.951247	0.094914	1.451746
H95	H	1.648059	-0.810994	0.376768
H96	H	2.148059	-0.310994	0.876768
H97	H	1.118491	-0.271652	0.628233
H98	H	1.618491	0.228348	1.128233
N99	N	0.904760	-0.456329	0.366204
N100	N	1.404760	0.043671	0.866204
H101	H	0.859247	-0.490787	0.408816
H102	H	1.359247	0.009213	0.908816
H103	H	0.956199	-0.486325	0.323566
H104	H	1.456199	0.013675	0.823566
N105	N	0.904960	-0.259132	0.646043
N106	N	1.404960	0.240868	1.146043
H107	H	0.859447	-0.289356	0.694658
H108	H	1.359447	0.210644	1.194658
H109	H	0.859491	-0.224689	0.603369
H110	H	1.359491	0.275311	1.103369
H111	H	1.396494	-0.443769	0.907059
H112	H	1.896494	0.056231	1.407059
N113	N	1.132828	-0.456318	0.366179
N114	N	1.632828	0.043682	0.866179
H115	H	1.178365	-0.490764	0.408781
H116	H	1.678365	0.009236	0.908781
H117	H	1.178275	-0.426037	0.317578
H118	H	1.678275	0.073963	0.817578
H119	H	1.695348	-0.903636	0.553681
H120	H	2.195348	-0.403636	1.053681
N121	N	1.572905	-0.803901	0.709474
N122	N	2.072905	-0.303901	1.209474
H123	H	1.572734	-0.747950	0.708792
H124	H	2.072734	-0.247950	1.208792
H125	H	1.645039	-0.822319	0.729025
H126	H	2.145039	-0.322319	1.229025
H127	H	1.388847	-0.903523	0.635711
H128	H	1.888847	-0.403523	1.135711
H129	H	1.471186	-0.903850	0.329210
H130	H	1.971186	-0.403850	0.829210
N131	N	1.315272	-0.803985	0.451485
N132	N	1.815272	-0.303985	0.951485
H133	H	1.296001	-0.821967	0.379022
H134	H	1.796001	-0.321967	0.879022
H135	H	1.315961	-0.748039	0.452427
H136	H	1.815961	-0.248039	0.952427
H137	H	1.640423	-0.271452	0.907155
H138	H	2.140423	0.228548	1.407155
N139	N	1.658209	-0.258834	1.120718
N140	N	2.158209	0.241166	1.620718
H141	H	1.700781	-0.228764	1.069328
H142	H	2.200781	0.271236	1.569328
H143	H	1.706821	-0.289048	1.166247
H144	H	2.206821	0.210952	1.666247
H145	H	1.396545	-0.443711	1.106127
H146	H	1.896545	0.056289	1.606127
