data_functionalizedCrystal
_audit_creation_method	'MofGen! by Chris Wilmer'
_symmetry_space_group_name_H-M	'P1'
_symmetry_Int_Tables_number	1
_symmetry_cell_setting	triclinic
loop_
_symmetry_equiv_pos_as_xyz
  x,y,z
_cell_length_a	21.395362
_cell_length_b	19.077068
_cell_length_c	19.077569
_cell_angle_alpha	89.935763
_cell_angle_beta	92.333493
_cell_angle_gamma	92.343691
loop_
_atom_site_label
_atom_site_type_symbol
_atom_site_fract_x
_atom_site_fract_y
_atom_site_fract_z
Zn1	Zn	0.963028	-0.263493	0.408896
Zn2	Zn	0.954544	-0.385725	0.296099
Zn3	Zn	0.853882	-0.268267	0.291362
Zn4	Zn	0.854180	-0.381002	0.413530
O5	O	0.906408	-0.324622	0.352472
O6	O	1.049582	-0.279686	0.393977
O7	O	0.937515	-0.374119	0.197137
O8	O	0.871786	-0.169299	0.303032
O9	O	1.043349	-0.369489	0.311105
O10	O	0.951975	-0.165791	0.389384
O11	O	0.863559	-0.287823	0.193657
O12	O	0.766241	-0.283243	0.307525
O13	O	0.872295	-0.361439	0.511249
O14	O	0.766461	-0.366069	0.397280
O15	O	0.952264	-0.275105	0.507845
O16	O	0.937805	-0.483434	0.315598
O17	O	0.864068	-0.479963	0.401873
C18	C	0.743616	-0.324662	0.352392
C19	C	0.673973	-0.324696	0.352375
C20	C	0.641386	-0.367885	0.399046
C21	C	0.575953	-0.367867	0.399076
C22	C	0.543108	-0.324667	0.352424
C23	C	0.575703	-0.281469	0.305749
C24	C	0.641136	-0.281483	0.305725
C25	C	0.437231	-0.321558	0.288936
C26	C	0.371799	-0.321549	0.288960
C27	C	0.341292	-0.324618	0.352500
C28	C	0.376224	-0.327711	0.416018
C29	C	0.441656	-0.327726	0.415994
C30	C	0.472157	-0.324646	0.352445
C31	C	0.237754	-0.367790	0.399208
C32	C	0.172319	-0.367766	0.399239
C33	C	0.172070	-0.281372	0.305906
C34	C	0.237504	-0.281391	0.305881
C35	C	0.270342	-0.324604	0.352531
C36	C	0.900066	-0.507195	0.359768
C37	C	0.897411	-0.585300	0.362912
C38	C	0.934586	-0.623775	0.319508
C39	C	0.932093	-0.697162	0.322470
C40	C	0.892420	-0.732073	0.368833
C41	C	0.855243	-0.693592	0.412242
C42	C	0.857740	-0.620206	0.409283
C43	C	0.880834	-0.951362	0.382499
C44	C	0.878339	-1.024754	0.385453
C45	C	0.955190	-1.028319	0.295681
C46	C	0.957680	-0.954932	0.292723
C47	C	0.920506	-0.916457	0.336135
N48	N	0.889869	-0.807086	0.371860
N49	N	0.923061	-0.841445	0.333111
C50	C	1.069836	-0.324582	0.352553
C51	C	1.139479	-0.324565	0.352587
C52	C	0.913259	-0.317213	0.535756
C53	C	0.916179	-0.314056	0.613861
C54	C	0.912793	-0.141335	0.345163
C55	C	0.915514	-0.063229	0.342048
C56	C	0.899622	-0.331951	0.169898
C57	C	0.896831	-0.334911	0.091786
C58	C	0.875915	-0.357518	0.652328
C59	C	0.878664	-0.354551	0.725716
C60	C	0.921673	-0.308118	0.760635
C61	C	0.961941	-0.264654	0.722163
C62	C	0.959195	-0.267624	0.648777
C63	C	0.934352	-0.294417	0.979927
C64	C	0.937094	-0.291448	1.053319
C65	C	0.853818	-0.381347	1.056867
C66	C	0.851073	-0.384311	0.983479
C67	C	0.891343	-0.340849	0.945013
N68	N	0.924482	-0.305083	0.835650
N69	N	0.888536	-0.343888	0.870000
H70	H	0.145329	-0.246194	0.267924
H71	H	0.850564	-0.920042	0.417845
H72	H	0.822943	-0.722022	0.449995
C73	C	0.470313	-0.318377	0.219918
C74	C	0.450769	-0.376490	0.178672
C75	C	0.481237	-0.373590	0.115096
H76	H	0.460269	-0.276512	0.195718
H77	H	0.514288	-0.318865	0.228972
H78	H	0.406804	-0.375995	0.169616
H79	H	0.460814	-0.418363	0.202850
H80	H	0.525212	-0.374079	0.124149
H81	H	0.471191	-0.331723	0.090902
H82	H	0.467986	-0.413022	0.087105
H83	H	0.145788	-0.402935	0.437249
C84	C	0.272773	-0.234480	0.255124
C85	C	0.230006	-0.196655	0.214261
C86	C	0.262472	-0.153437	0.167491
H87	H	0.300402	-0.202763	0.280743
H88	H	0.296172	-0.262545	0.225487
H89	H	0.206618	-0.168593	0.243895
H90	H	0.202376	-0.228355	0.188628
H91	H	0.285871	-0.181502	0.137854
H92	H	0.290100	-0.121724	0.193115
H93	H	0.233460	-0.127772	0.139755
C94	C	0.676594	-0.234709	0.255010
C95	C	0.711053	-0.276261	0.211490
C96	C	0.743733	-0.233198	0.164768
H97	H	0.647734	-0.208961	0.227162
H98	H	0.704258	-0.203064	0.280690
H99	H	0.683392	-0.307893	0.185813
H100	H	0.739924	-0.302008	0.239319
H101	H	0.771397	-0.201553	0.190448
H102	H	0.714868	-0.207452	0.136925
H103	H	0.767121	-0.261384	0.135239
H104	H	0.470095	-0.330243	0.467713
C105	C	0.972405	-0.739085	0.275421
C106	C	0.933913	-0.783192	0.232046
C107	C	0.971055	-0.821854	0.188753
H108	H	0.996447	-0.707918	0.247317
H109	H	0.999664	-0.766571	0.303584
H110	H	0.906666	-0.755709	0.203886
H111	H	0.909872	-0.814373	0.260131
H112	H	0.998314	-0.849340	0.216916
H113	H	0.995095	-0.790682	0.160654
H114	H	0.944945	-0.851790	0.159323
H115	H	0.351386	-0.330209	0.467759
H116	H	0.827469	-0.588879	0.444629
H117	H	0.845878	-0.389944	0.757033
C118	C	0.677122	-0.414677	0.449739
C119	C	0.717809	-0.373144	0.493232
C120	C	0.750745	-0.416222	0.539936
H121	H	0.648411	-0.440408	0.477607
H122	H	0.700586	-0.446337	0.424044
H123	H	0.694347	-0.341496	0.518925
H124	H	0.746532	-0.347414	0.465384
H125	H	0.774209	-0.447882	0.514241
H126	H	0.722030	-0.441950	0.567799
H127	H	0.778359	-0.388048	0.569447
H128	H	0.343362	-0.319034	0.237239
C129	C	0.835280	-1.062788	0.435722
C130	C	0.841036	-1.135292	0.429003
C131	C	0.801375	-1.170352	0.475287
H132	H	0.846550	-1.048910	0.482496
H133	H	0.793195	-1.051275	0.424893
H134	H	0.883112	-1.146800	0.439837
H135	H	0.829762	-1.149191	0.382239
H136	H	0.759290	-1.158838	0.464458
H137	H	0.812648	-1.156468	0.522058
H138	H	0.805271	-1.219549	0.470730
C139	C	0.978100	-0.247144	0.938294
C140	C	1.016337	-0.205830	0.984584
C141	C	1.056640	-0.162265	0.946254
H142	H	1.003453	-0.275096	0.910747
H143	H	0.954143	-0.217652	0.908445
H144	H	1.040292	-0.235319	1.014420
H145	H	0.991001	-0.177864	1.012132
H146	H	1.032684	-0.132773	0.916405
H147	H	1.081989	-0.190223	0.918708
H148	H	1.082585	-0.134224	0.977656
C149	C	0.829300	-0.408053	0.614457
C150	C	0.841208	-0.476852	0.635079
C151	C	0.798287	-0.523429	0.600201
H152	H	0.787980	-0.397394	0.626024
H153	H	0.833437	-0.403645	0.565237
H154	H	0.837065	-0.481258	0.684288
H155	H	0.882520	-0.487533	0.623512
H156	H	0.802424	-0.519021	0.550980
H157	H	0.756969	-0.512764	0.611770
H158	H	0.806364	-0.570115	0.614183
H159	H	0.548956	-0.246293	0.267766
C160	C	1.008537	-0.214152	0.760107
C161	C	0.976204	-0.167403	0.800408
C162	C	1.019107	-0.120862	0.835363
H163	H	1.035989	-0.239783	0.789877
H164	H	1.032116	-0.188651	0.726706
H165	H	0.952636	-0.192901	0.833805
H166	H	0.948756	-0.141755	0.770656
H167	H	1.042686	-0.095361	0.801962
H168	H	1.046556	-0.146499	0.865128
H169	H	0.997176	-0.089134	0.862706
C170	C	0.804341	-0.434780	0.945698
C171	C	0.769671	-0.472214	0.995094
C172	C	0.726612	-0.518709	0.960316
H173	H	0.776855	-0.409124	0.915994
H174	H	0.826141	-0.466595	0.918310
H175	H	0.747872	-0.440404	1.022470
H176	H	0.797140	-0.497884	1.024800
H177	H	0.748412	-0.550523	0.932928
H178	H	0.699131	-0.493047	0.930613
H179	H	0.703087	-0.544118	0.993826
H180	H	0.991981	-0.232232	0.617458
C181	C	0.810177	-0.428506	1.098756
C182	C	0.821796	-0.415982	1.170500
C183	C	0.781613	-0.459423	1.209109
H184	H	0.767963	-0.418763	1.086386
H185	H	0.817263	-0.476217	1.088658
H186	H	0.814706	-0.368282	1.180593
H187	H	0.864003	-0.425730	1.182891
H188	H	0.788698	-0.507135	1.199011
H189	H	0.739400	-0.449676	1.196733
H190	H	0.789494	-0.450937	1.257791
H191	H	0.972115	-0.253630	1.081748
H192	H	0.549415	-0.403037	0.437084
H193	H	0.989985	-0.926509	0.254970
H194	H	0.264492	-0.402972	0.437196
C195	C	0.977616	-0.585970	0.269058
C196	C	0.960825	-0.606694	0.200236
C197	C	1.000457	-0.571892	0.153744
H198	H	0.973816	-0.536746	0.273414
H199	H	1.019694	-0.597539	0.279843
H200	H	0.918757	-0.595120	0.189454
H201	H	0.964629	-0.655913	0.195858
H202	H	1.042535	-0.583461	0.164529
H203	H	0.996654	-0.522669	0.158106
H204	H	0.989074	-0.585953	0.107044
C205	C	0.995533	-1.070215	0.248643
C206	C	0.984872	-1.141955	0.261170
C207	C	1.022038	-1.180570	0.217861
H208	H	0.985083	-1.060218	0.200905
H209	H	1.038432	-1.057750	0.258516
H210	H	0.941983	-1.154416	0.251292
H211	H	0.995326	-1.151974	0.308899
H212	H	1.064936	-1.168105	0.227734
H213	H	1.011584	-1.170567	0.170126
H214	H	1.014813	-1.229249	0.226359
