data_functionalizedCrystal
_audit_creation_method	'MofGen! by Chris Wilmer'
_symmetry_space_group_name_H-M	'P1'
_symmetry_Int_Tables_number	1
_symmetry_cell_setting	triclinic
loop_
_symmetry_equiv_pos_as_xyz
  x,y,z
_cell_length_a	6.817900
_cell_length_b	16.256208
_cell_length_c	16.255661
_cell_angle_alpha	95.350611
_cell_angle_beta	103.488922
_cell_angle_gamma	103.499088
loop_
_atom_site_label
_atom_site_type_symbol
_atom_site_fract_x
_atom_site_fract_y
_atom_site_fract_z
V1	V	-4.026770	-0.117778	-0.264174
O2	O	-4.014188	0.004956	-0.258835
O3	O	-3.978378	-0.232858	-0.262666
O4	O	-3.978331	-0.116275	-0.379254
O5	O	-4.014235	-0.112433	-0.141440
V6	V	-4.510402	-0.103061	-0.249458
O7	O	-4.287789	-0.150061	-0.296455
O8	O	-4.699579	-0.070778	-0.217177
O9	O	-4.335587	0.012018	-0.250966
O10	O	-4.640380	-0.225796	-0.254797
O11	O	-4.640333	-0.108406	-0.372192
O12	O	-4.335634	-0.104564	-0.134379
C13	C	-3.823382	-0.260902	-0.258575
C14	C	-3.865103	-0.354983	-0.258109
C15	C	-3.823321	-0.112188	-0.407294
C16	C	-3.865001	-0.111721	-0.501374
C17	C	-4.180993	-0.643087	-0.261101
C18	C	-4.024588	-0.573415	-0.189040
C19	C	-4.015127	-0.693616	-0.256396
C20	C	-4.097310	-0.595653	-0.329275
C21	C	-3.941426	-0.527235	-0.257239
C22	C	-3.859240	-0.625174	-0.184270
C23	C	-3.932023	-0.647427	-0.324568
C24	C	-3.775481	-0.577774	-0.252486
C25	C	-4.057590	-0.789464	-0.255909
C26	C	-3.898947	-0.431387	-0.257719
C27	C	-3.775555	-0.106138	-0.724178
C28	C	-3.932006	-0.178197	-0.793840
C29	C	-3.941385	-0.110845	-0.673620
C30	C	-3.859223	-0.037961	-0.771594
C31	C	-4.015152	-0.109994	-0.840001
C32	C	-4.097318	-0.182968	-0.742052
C33	C	-4.024473	-0.042668	-0.719790
C34	C	-4.181062	-0.114748	-0.789432
C35	C	-3.898884	-0.111335	-0.577772
C36	C	-4.057670	-0.109510	-0.935849
C37	C	-4.153925	0.040058	-0.255055
C38	C	-4.091442	0.134138	-0.255526
C39	C	-4.153986	-0.108654	-0.106334
C40	C	-4.091545	-0.109117	-0.012253
H41	H	-4.352750	-0.671603	-0.264649
O42	O	-4.216816	-0.256245	-0.726294
C43	C	-4.168245	-0.327509	-0.764997
H44	H	-4.097480	-0.308807	-0.819746
H45	H	-4.316881	-0.381892	-0.791063
H46	H	-4.051105	-0.349454	-0.715480
H47	H	-4.352936	-0.118407	-0.817788
O48	O	-4.071105	-0.535026	-0.120757
C49	C	-4.284444	-0.568506	-0.125514
H50	H	-4.373908	-0.596246	-0.194776
H51	H	-4.350041	-0.515228	-0.101659
H52	H	-4.301895	-0.621113	-0.083954
O53	O	-4.070164	0.025784	-0.681320
C54	C	-3.943731	0.102073	-0.695879
H55	H	-3.797144	0.089124	-0.710516
H56	H	-3.897197	0.152641	-0.636345
H57	H	-4.034612	0.126142	-0.752546
H58	H	-3.758958	0.023306	-0.785046
O59	O	-3.739881	-0.641181	-0.111106
C60	C	-3.780943	-0.730362	-0.111528
H61	H	-3.942133	-0.763331	-0.155988
H62	H	-3.776494	-0.744635	-0.043873
H63	H	-3.657408	-0.755233	-0.135065
H64	H	-3.893415	-0.679666	-0.381870
O65	O	-3.570521	-0.543776	-0.248164
C66	C	-3.533539	-0.454917	-0.249337
H67	H	-3.686341	-0.439624	-0.280244
H68	H	-3.415418	-0.434168	-0.287761
H69	H	-3.468953	-0.419103	-0.180957
H70	H	-3.893361	-0.235496	-0.826073
H71	H	-4.197564	-0.582244	-0.390559
O72	O	-3.570718	-0.102054	-0.690243
C73	C	-3.522327	-0.173667	-0.728346
H74	H	-3.671451	-0.227697	-0.755023
H75	H	-3.407240	-0.195962	-0.678263
H76	H	-3.449161	-0.155253	-0.782560
