data_functionalizedCrystal
_audit_creation_method	'MofGen! by Chris Wilmer'
_symmetry_space_group_name_H-M	'P1'
_symmetry_Int_Tables_number	1
_symmetry_cell_setting	triclinic
loop_
_symmetry_equiv_pos_as_xyz
  x,y,z
_cell_length_a	19.121063
_cell_length_b	14.908783
_cell_length_c	14.908854
_cell_angle_alpha	90.167510
_cell_angle_beta	88.966655
_cell_angle_gamma	95.893785
loop_
_atom_site_label
_atom_site_type_symbol
_atom_site_fract_x
_atom_site_fract_y
_atom_site_fract_z
Zn1	Zn	-0.192888	1.334162	-0.597749
Zn2	Zn	-0.316756	1.335563	-0.453745
Zn3	Zn	-0.206422	1.191686	-0.439411
Zn4	Zn	-0.317479	1.176551	-0.595407
O5	O	-0.258386	1.259491	-0.521578
O6	O	-0.203353	1.460521	-0.585625
O7	O	-0.307481	1.323398	-0.326292
O8	O	-0.106310	1.216333	-0.455396
O9	O	-0.294358	1.461551	-0.479826
O10	O	-0.096367	1.321010	-0.571726
O11	O	-0.226420	1.217692	-0.315761
O12	O	-0.227121	1.063505	-0.453125
O13	O	-0.295590	1.190539	-0.721269
O14	O	-0.308714	1.052385	-0.567735
O15	O	-0.204054	1.306334	-0.722989
O16	O	-0.415169	1.308722	-0.477556
O17	O	-0.415700	1.191897	-0.581634
C18	C	-0.269465	1.025230	-0.508621
C19	C	-0.274220	0.925010	-0.503101
C20	C	-0.188508	0.735595	-0.603077
C21	C	-0.192974	0.641429	-0.597892
C22	C	-0.287613	0.642511	-0.487543
C23	C	-0.283148	0.736677	-0.492728
C24	C	-0.233594	0.783215	-0.550497
C25	C	-0.229133	0.877382	-0.555686
C26	C	-0.323768	0.878463	-0.445333
C27	C	-0.328234	0.784297	-0.440148
C28	C	-0.440925	1.248843	-0.530917
C29	C	-0.519010	1.244368	-0.534947
C30	C	-0.555391	1.303133	-0.482702
C31	C	-0.628760	1.298930	-0.486498
C32	C	-0.665748	1.235957	-0.542535
C33	C	-0.629362	1.177190	-0.594785
C34	C	-0.555993	1.181398	-0.590994
C35	C	-0.887287	1.220210	-0.556696
C36	C	-0.960661	1.216004	-0.560481
C37	C	-0.960054	1.337746	-0.452195
C38	C	-0.886685	1.341945	-0.448404
C39	C	-0.850305	1.283181	-0.500658
C40	C	-0.740743	1.231657	-0.546414
C41	C	-0.775310	1.287486	-0.496783
C42	C	-0.075133	1.270204	-0.512223
C43	C	0.002959	1.274769	-0.508236
C44	C	-0.248393	1.246592	-0.755593
C45	C	-0.244135	1.241095	-0.855317
C46	C	-0.247265	1.494666	-0.534585
C47	C	-0.242526	1.594884	-0.540129
C48	C	-0.320539	1.340859	-1.053677
C49	C	-0.316540	1.335697	-1.147376
C50	C	-0.232134	1.225616	-1.136417
C51	C	-0.236133	1.230777	-1.042717
C52	C	-0.280338	1.288400	-1.001351
C53	C	-0.284340	1.293556	-0.907650
C54	C	-0.199931	1.183480	-0.896692
C55	C	-0.195932	1.178318	-0.990391
C56	C	-0.268287	1.272394	-0.288473
C57	C	-0.272340	1.278077	-0.188750
H58	H	-0.360486	0.917245	-0.402526
H59	H	-0.320331	1.340480	-0.873971
H60	H	-0.167197	1.140763	-0.854078
H61	H	-0.148163	0.773487	-0.650119
H62	H	-0.525281	1.354408	-0.437067
H63	H	-0.156259	0.602661	-0.640706
H64	H	-0.526373	1.133546	-0.633538
H65	H	-0.349275	1.378416	-1.189977
H66	H	-0.188784	0.915272	-0.602726
H67	H	-0.356529	1.387782	-1.019996
C68	C	-0.382116	0.733703	-0.377584
C69	C	-0.427612	0.674250	-0.427631
C70	C	-0.477265	0.627639	-0.370030
H71	H	-0.358693	0.700602	-0.335125
H72	H	-0.408372	0.775521	-0.347029
H73	H	-0.401359	0.632438	-0.458171
H74	H	-0.451052	0.707328	-0.470087
H75	H	-0.503521	0.669456	-0.339476
H76	H	-0.453835	0.594543	-0.327575
H77	H	-0.508144	0.587301	-0.403980
H78	H	-0.159940	1.131406	-1.024085
C79	C	-0.999450	1.401702	-0.395527
C80	C	-0.976461	1.490840	-0.419134
C81	C	-1.012728	1.549787	-0.366943
H82	H	-1.048451	1.390309	-0.405757
H83	H	-0.990634	1.392625	-0.333874
H84	H	-0.985283	1.499913	-0.480772
H85	H	-0.927465	1.502261	-0.408900
H86	H	-1.003911	1.540710	-0.305290
H87	H	-1.061726	1.538386	-0.377177
H88	H	-0.997130	1.610273	-0.382947
H89	H	-0.856571	1.393222	-0.402775
H90	H	-0.745193	1.338761	-0.451162
C91	C	-1.000904	1.147771	-0.621391
C92	C	-1.038119	1.193197	-0.683907
C93	C	-1.075208	1.130373	-0.740017
H94	H	-0.968810	1.113344	-0.652060
H95	H	-1.032924	1.108774	-0.586371
H96	H	-1.006103	1.232178	-0.718923
H97	H	-1.070225	1.227620	-0.653263
H98	H	-1.107228	1.091376	-0.704998
H99	H	-1.043109	1.095949	-0.770680
H100	H	-1.100468	1.161185	-0.782436
H101	H	-0.770867	1.180383	-0.592037
H102	H	-0.659483	1.125919	-0.640416
H103	H	-0.658378	1.346781	-0.443954
C104	C	-0.341488	0.591910	-0.424973
C105	C	-0.386982	0.532450	-0.475014
C106	C	-0.436624	0.485828	-0.417405
H107	H	-0.318054	0.558813	-0.382521
H108	H	-0.367746	0.633721	-0.394412
H109	H	-0.360728	0.490644	-0.505560
H110	H	-0.410432	0.565523	-0.517464
H111	H	-0.462882	0.527639	-0.386844
H112	H	-0.413185	0.452736	-0.374955
H113	H	-0.467502	0.445485	-0.451350
H114	H	-0.857673	1.172360	-0.599241
H115	H	-0.196140	1.178708	-1.170114
