data_functionalizedCrystal
_audit_creation_method	'MofGen! by Chris Wilmer'
_symmetry_space_group_name_H-M	'P1'
_symmetry_Int_Tables_number	1
_symmetry_cell_setting	triclinic
loop_
_symmetry_equiv_pos_as_xyz
  x,y,z
_cell_length_a	13.635800
_cell_length_b	17.296766
_cell_length_c	9.514088
_cell_angle_alpha	84.947542
_cell_angle_beta	118.843545
_cell_angle_gamma	77.378987
loop_
_atom_site_label
_atom_site_type_symbol
_atom_site_fract_x
_atom_site_fract_y
_atom_site_fract_z
V1	V	2.112408	-0.112570	0.517112
O2	O	2.100552	0.003944	0.490637
O3	O	2.091074	-0.221799	0.529570
O4	O	2.129762	-0.111482	0.735345
O5	O	2.061597	-0.107137	0.283438
V6	V	2.348466	-0.098558	0.487220
O7	O	2.255548	-0.143308	0.582683
O8	O	2.430425	-0.067820	0.421648
O9	O	2.258197	0.010670	0.474761
O10	O	2.419021	-0.215072	0.513694
O11	O	2.457976	-0.103992	0.720894
O12	O	2.219510	-0.099646	0.268987
V13	V	2.612408	-0.112570	0.517112
O14	O	2.600552	0.003944	0.490637
O15	O	2.591074	-0.221799	0.529570
O16	O	2.629762	-0.111482	0.735345
O17	O	2.561597	-0.107137	0.283438
V18	V	2.848466	-0.098558	0.487220
O19	O	2.755548	-0.143308	0.582683
O20	O	2.930425	-0.067820	0.421648
O21	O	2.758197	0.010670	0.474761
O22	O	2.919021	-0.215072	0.513694
O23	O	2.957976	-0.103992	0.720894
O24	O	2.719510	-0.099646	0.268987
C25	C	2.012927	-0.248406	0.525540
C26	C	2.036405	-0.337706	0.537181
C27	C	1.998915	-0.367768	0.393847
C28	C	2.020986	-0.451676	0.404790
C29	C	2.080538	-0.505519	0.559068
C30	C	2.118033	-0.475451	0.702413
C31	C	2.095970	-0.391546	0.691469
C32	C	2.149590	-0.759455	0.599558
C33	C	2.171648	-0.843365	0.610492
C34	C	2.074600	-0.819584	0.312868
C35	C	2.052535	-0.735677	0.301936
C36	C	2.090036	-0.705617	0.445281
C37	C	2.103096	-0.591286	0.570258
C38	C	2.067486	-0.619852	0.434091
C39	C	2.062276	-0.107685	0.788024
C40	C	2.117125	-0.107518	0.966536
C41	C	2.168014	0.037274	0.478788
C42	C	2.134158	0.126572	0.467158
C43	C	2.118665	-0.103446	0.216300
C44	C	2.053435	-0.103609	0.037786
C45	C	2.512927	-0.248406	0.525540
C46	C	2.536405	-0.337706	0.537181
C47	C	2.562276	-0.107685	0.788024
C48	C	2.617125	-0.107518	0.966536
C49	C	2.668014	0.037274	0.478788
C50	C	2.634158	0.126572	0.467158
C51	C	2.618665	-0.103446	0.216300
C52	C	2.553435	-0.103609	0.037786
C53	C	2.640158	-0.383761	0.551271
C54	C	2.662240	-0.467670	0.562233
C55	C	2.580563	-0.505521	0.559094
C56	C	2.476802	-0.459461	0.545008
C57	C	2.454725	-0.375554	0.534057
C58	C	2.702899	0.172627	0.453072
C59	C	2.671091	0.256535	0.442118
C60	C	2.570546	0.294387	0.445260
C61	C	2.501799	0.248326	0.459342
C62	C	2.533603	0.164421	0.470285
H63	H	1.950414	-0.323933	0.268216
O64	O	2.744941	-0.111767	1.066623
H65	H	2.799676	-0.168789	1.063898
O66	O	2.728279	-0.342956	0.554680
H67	H	2.686408	-0.296042	0.438841
O68	O	2.244943	-0.111774	1.066629
H69	H	2.259480	-0.058683	1.013554
O70	O	2.774144	-0.517339	0.577395
H71	H	2.827211	-0.476914	0.577700
O72	O	2.536269	0.384884	0.433491
H73	H	2.520886	0.417674	0.315638
H74	H	2.598553	-0.573844	0.568013
O75	O	2.393368	0.289153	0.462765
H76	H	2.382825	0.355232	0.452817
H77	H	1.990459	-0.476148	0.288073
H78	H	2.410306	-0.490292	0.542454
H79	H	2.044072	-0.844068	0.196164
O80	O	1.988273	-0.677601	0.135534
H81	H	1.965907	-0.712603	0.037700
H82	H	2.370235	-0.338061	0.522577
H83	H	2.456948	-0.100398	0.962223
H84	H	2.784773	0.141820	0.450513
H85	H	2.727082	0.294026	0.430655
H86	H	2.220140	-0.887204	0.736129
H87	H	2.180114	-0.734990	0.716279
H88	H	2.477625	0.126928	0.481768
H89	H	2.166531	-0.519298	0.828030
H90	H	2.126509	-0.367072	0.808188
O91	O	2.003243	-0.561783	0.267692
H92	H	2.060185	-0.526054	0.262019
H93	H	2.151586	-0.635134	0.695871
H94	H	1.956948	-0.100398	0.962223
