data_functionalizedCrystal
_audit_creation_method	'MofGen! by Chris Wilmer'
_symmetry_space_group_name_H-M	'P1'
_symmetry_Int_Tables_number	1
_symmetry_cell_setting	triclinic
loop_
_symmetry_equiv_pos_as_xyz
  x,y,z
_cell_length_a	6.817900
_cell_length_b	7.190334
_cell_length_c	19.453172
_cell_angle_alpha	88.400474
_cell_angle_beta	101.710488
_cell_angle_gamma	60.611776
loop_
_atom_site_label
_atom_site_type_symbol
_atom_site_fract_x
_atom_site_fract_y
_atom_site_fract_z
V1	V	-4.214595	0.665986	-0.096060
O2	O	-4.207232	0.652283	0.005769
O3	O	-4.156462	0.662417	-0.191579
O4	O	-4.251932	0.955995	-0.094076
O5	O	-4.111100	0.356672	-0.092409
V6	V	-4.688375	0.628870	-0.083940
O7	O	-4.497227	0.747403	-0.122646
O8	O	-4.855941	0.547452	-0.057353
O9	O	-4.523302	0.632438	0.011580
O10	O	-4.813136	0.642573	-0.185768
O11	O	-4.909267	0.938183	-0.087591
O12	O	-4.427832	0.338860	-0.085923
C13	C	-3.996321	0.652166	-0.214880
C14	C	-4.030648	0.651181	-0.292965
C15	C	-4.461523	0.656862	-0.854023
C16	C	-4.429280	0.657773	-0.780654
C17	C	-4.227226	0.645547	-0.740304
C18	C	-4.057375	0.632353	-0.773327
C19	C	-4.089611	0.631421	-0.846694
N20	N	-4.097601	0.759509	-0.628420
N21	N	-4.066993	0.760400	-0.558724
C22	C	-4.130086	0.648349	-0.519252
N23	N	-4.224988	0.535403	-0.552111
N24	N	-4.255610	0.534522	-0.621813
C25	C	-4.192249	0.646554	-0.660749
C26	C	-4.264961	0.662514	-0.406682
C27	C	-4.232704	0.663411	-0.333310
C28	C	-3.860804	0.638013	-0.325986
C29	C	-3.893055	0.637095	-0.399355
C30	C	-4.095143	0.649356	-0.439699
C31	C	-4.118114	1.026651	-0.090503
C32	C	-4.231959	1.268197	-0.089493
C33	C	-4.346783	0.642684	0.034877
C34	C	-4.291698	0.643683	0.112962
H35	H	-4.429507	0.672486	-0.439531
H36	H	-4.626071	0.666839	-0.886867
H37	H	-4.370999	0.674132	-0.306430
H38	H	-4.567569	0.668491	-0.753767
H39	H	-3.892857	0.622395	-0.740469
H40	H	-3.951316	0.620695	-0.873575
H41	H	-3.754768	0.626371	-0.426236
H42	H	-3.696284	0.628051	-0.293133
