data_functionalizedCrystal
_audit_creation_method	'MofGen! by Chris Wilmer'
_symmetry_space_group_name_H-M	'P1'
_symmetry_Int_Tables_number	1
_symmetry_cell_setting	triclinic
loop_
_symmetry_equiv_pos_as_xyz
  x,y,z
_cell_length_a	9.065218
_cell_length_b	9.065215
_cell_length_c	8.140239
_cell_angle_alpha	89.997619
_cell_angle_beta	90.002802
_cell_angle_gamma	94.984709
loop_
_atom_site_label
_atom_site_type_symbol
_atom_site_fract_x
_atom_site_fract_y
_atom_site_fract_z
O1	O	-1.960396	0.216355	-0.136613
O2	O	-1.460396	0.716355	0.363387
O3	O	-1.531111	0.234101	-0.136615
O4	O	-1.031111	0.734101	0.363385
O5	O	-1.754629	0.010585	-0.136608
O6	O	-1.254629	0.510585	0.363392
O7	O	-1.736878	0.439871	-0.136621
O8	O	-1.236878	0.939871	0.363379
O9	O	-1.754616	0.010583	0.136619
O10	O	-1.254616	0.510583	0.636619
O11	O	-1.531098	0.234099	0.136612
O12	O	-1.031098	0.734099	0.636612
O13	O	-1.960383	0.216352	0.136614
O14	O	-1.460383	0.716352	0.636614
Zn15	Zn	-1.745739	0.225225	0.179994
Zn16	Zn	-1.245739	0.725225	0.679994
Zn17	Zn	-1.745755	0.225228	-0.179995
Zn18	Zn	-1.245755	0.725228	0.320005
O19	O	-1.736865	0.439868	0.136607
O20	O	-1.236865	0.939868	0.636607
C21	C	-1.476118	0.232394	-0.000002
C22	C	-0.976118	0.732394	0.499998
C23	C	-1.312275	0.227295	-0.000003
C24	C	-0.812275	0.727295	0.499997
C25	C	-1.752917	-0.044403	0.000004
C26	C	-1.252917	0.455597	0.500004
C27	C	-1.747819	-0.208246	-0.000002
C28	C	-1.247819	0.291754	0.499998
C29	C	-2.015376	0.218059	-0.000003
C30	C	-1.515376	0.718059	0.499997
C31	C	-2.179219	0.223159	-0.000013
C32	C	-1.679219	0.723159	0.499987
C33	C	-1.738576	0.494856	-0.000009
C34	C	-1.238576	0.994856	0.499991
C35	C	-1.743674	0.658699	-0.000014
C36	C	-1.243674	1.158699	0.499986
N37	N	-1.745738	0.225222	0.425676
N38	N	-1.245738	0.725222	0.925676
N39	N	-1.745767	0.225220	-0.425678
N40	N	-1.245767	0.725220	0.074322
