data_functionalizedCrystal
_audit_creation_method	'MofGen! by Chris Wilmer'
_symmetry_space_group_name_H-M	'P1'
_symmetry_Int_Tables_number	1
_symmetry_cell_setting	triclinic
loop_
_symmetry_equiv_pos_as_xyz
  x,y,z
_cell_length_a	31.640172
_cell_length_b	31.640172
_cell_length_c	20.919309
_cell_angle_alpha	62.590984
_cell_angle_beta	90.005700
_cell_angle_gamma	60.004780
loop_
_atom_site_label
_atom_site_type_symbol
_atom_site_fract_x
_atom_site_fract_y
_atom_site_fract_z
Zr1	Zr	0.409322	0.458378	-0.080778
O2	O	0.344374	0.541490	-0.179180
O3	O	0.429224	0.371761	-0.050613
O4	O	0.432540	0.453313	-0.179164
O5	O	0.338451	0.465156	0.050776
O6	O	0.502097	0.453305	-0.179151
O7	O	0.341057	0.459938	-0.050629
O8	O	0.496164	0.307423	0.050804
O9	O	0.344384	0.611038	-0.179179
O10	O	0.489631	0.408680	-0.037737
O11	O	0.435776	0.412580	0.037930
O12	O	0.439681	0.508597	-0.113422
O13	O	0.385826	0.512497	-0.037755
Zr14	Zr	0.516099	0.466687	0.080973
Zr15	Zr	0.520257	0.458365	-0.080756
Zr16	Zr	0.405165	0.466700	0.080951
Zr17	Zr	0.409337	0.569299	-0.080776
Zr18	Zr	0.516084	0.355767	0.080971
O19	O	0.496198	0.553305	0.050808
O20	O	0.502109	0.541472	-0.179149
O21	O	0.338463	0.553323	0.050777
O22	O	0.581047	0.383575	0.179375
O23	O	0.586959	0.371743	-0.050582
O24	O	0.423312	0.383594	0.179344
O25	O	0.586971	0.459910	-0.050581
O26	O	0.492881	0.471753	0.179359
O27	O	0.423324	0.471761	0.179346
O28	O	0.584364	0.465128	0.050824
O29	O	0.432562	0.611028	-0.179162
O30	O	0.492859	0.314038	0.179357
O31	O	0.581038	0.314028	0.179374
O32	O	0.584342	0.307413	0.050821
O33	O	0.341079	0.617653	-0.050626
O34	O	0.429257	0.617642	-0.050609
O35	O	0.485740	0.416468	0.113617
O36	O	0.539595	0.412568	0.037950
O37	O	0.489645	0.512485	-0.037735
O38	O	0.435790	0.516385	0.037932
C39	C	0.462692	0.323788	0.000095
C40	C	0.462685	0.276700	0.000094
C41	C	0.490833	-0.017377	-0.039393
C42	C	0.490843	-0.194373	-0.039393
O43	O	0.514769	-0.219008	-0.072957
N44	N	0.462731	-0.214466	0.000103
C45	C	0.434617	-0.190311	0.039606
O46	O	0.410710	-0.211466	0.073206
C47	C	0.434609	-0.013318	0.039610
C48	C	0.462719	0.006776	0.000105
C49	C	0.518941	0.002717	-0.078894
C50	C	0.518936	0.046966	-0.078897
C51	C	0.490822	0.071120	-0.039399
C52	C	0.462714	0.051025	0.000102
C53	C	0.406498	0.010834	0.079116
C54	C	0.406500	0.055083	0.079115
C55	C	0.434610	0.075178	0.039610
C56	C	0.434596	0.119427	0.039596
N57	N	0.462708	0.139520	0.000101
C58	C	0.490821	0.115367	-0.039397
C59	C	0.434622	-0.283233	0.039600
C60	C	0.434623	-0.327480	0.039598
C61	C	0.490850	-0.331541	-0.039399
C62	C	0.490846	-0.287290	-0.039401
C63	C	0.462734	-0.263140	0.000104
C64	C	0.490808	0.208292	-0.039401
C65	C	0.490799	0.252546	-0.039403
C66	C	0.434574	0.256600	0.039597
C67	C	0.434581	0.212352	0.039596
C68	C	0.462702	0.188198	0.000096
O69	O	0.410687	0.144084	0.073150
O70	O	0.514733	0.136522	-0.072979
C71	C	0.490838	-0.061626	-0.039390
C72	C	0.462730	-0.081720	0.000111
C73	C	0.434616	-0.057567	0.039609
C74	C	0.462731	-0.125968	0.000109
C75	C	0.490844	-0.150121	-0.039389
C76	C	0.518956	-0.130028	-0.078885
C77	C	0.518951	-0.085779	-0.078888
C78	C	0.406504	-0.077660	0.079105
C79	C	0.406511	-0.121908	0.079104
C80	C	0.434624	-0.146062	0.039606
C81	C	0.323948	0.462549	0.000071
C82	C	0.276853	0.462554	0.000061
C83	C	0.010919	0.410372	0.039620
C84	C	-0.166066	0.410363	0.039635
O85	O	-0.166778	0.366007	0.073262
N86	N	-0.214269	0.462518	0.000127
C87	C	-0.218225	0.514680	-0.039384
O88	O	-0.263286	0.559041	-0.072981
C89	C	-0.041240	0.514689	-0.039394
C90	C	0.006962	0.462530	0.000110
C91	C	0.059120	0.358218	0.079122
C92	C	0.103363	0.358220	0.079114
C93	C	0.099406	0.410378	0.039605
C94	C	0.051206	0.462533	0.000103
C95	C	-0.045197	0.566850	-0.078900
C96	C	-0.000945	0.566848	-0.078897
C97	C	0.047257	0.514689	-0.039393
C98	C	0.091492	0.514693	-0.039414
N99	N	0.139695	0.462537	0.000094
C100	C	0.143652	0.410380	0.039604
C101	C	-0.311143	0.514671	-0.039377
C102	C	-0.355389	0.514669	-0.039376
C103	C	-0.303227	0.410352	0.039644
C104	C	-0.258980	0.410354	0.039638
C105	C	-0.262940	0.462516	0.000131
C106	C	0.236565	0.410390	0.039584
C107	C	0.280810	0.410397	0.039571
C108	C	0.228644	0.514714	-0.039446
C109	C	0.184403	0.514707	-0.039436
C110	C	0.188367	0.462540	0.000085
O111	O	0.092243	0.559025	-0.073016
O112	O	0.188717	0.366026	0.073210
C113	C	-0.033324	0.410370	0.039627
C114	C	-0.081525	0.462524	0.000125
C115	C	-0.085482	0.514682	-0.039384
C116	C	-0.125771	0.462522	0.000127
C117	C	-0.121814	0.410365	0.039636
C118	C	-0.073611	0.358209	0.079144
C119	C	-0.029367	0.358212	0.079137
C120	C	-0.133685	0.566837	-0.078892
C121	C	-0.177926	0.566830	-0.078882
C122	C	-0.173969	0.514672	-0.039373
C123	C	0.601473	0.462517	0.000124
C124	C	0.648568	0.462511	0.000134
C125	C	0.467911	0.452123	-0.202201
C126	C	0.469676	0.448591	-0.270859
C127	C	0.462730	0.601277	0.000100
C128	C	0.462736	0.648366	0.000101
C129	C	0.444433	0.499085	-0.342621
C130	C	0.446098	0.495762	-0.407130
C131	C	0.473003	0.441944	-0.399875
C132	C	0.498250	0.391446	-0.328105
C133	C	0.496587	0.394769	-0.263597
C134	C	0.479329	0.429300	-0.592669
C135	C	0.480989	0.425981	-0.657184
C136	C	0.428837	0.530297	-0.736205
C137	C	0.427175	0.533616	-0.671693
C138	C	0.452423	0.483118	-0.599929
C139	C	0.474705	0.438546	-0.465812
C140	C	0.450725	0.486516	-0.533993
C141	C	0.457510	0.472942	0.202395
C142	C	0.455745	0.476475	0.271054
C143	C	0.601454	0.323772	0.000122
C144	C	0.648543	0.276678	0.000131
C145	C	0.457491	0.334198	0.202393
C146	C	0.455720	0.290642	0.271050
C147	C	0.596254	0.334182	0.202420
C148	C	0.641577	0.290621	0.271087
C149	C	0.329167	0.590884	-0.202225
C150	C	0.283844	0.634445	-0.270892
C151	C	0.323967	0.601293	0.000073
C152	C	0.276879	0.648387	0.000064
C153	C	0.467930	0.590868	-0.202198
C154	C	0.469701	0.634424	-0.270856
C155	C	0.644575	0.252533	-0.039380
C156	C	0.688816	0.208288	-0.039388
C157	C	0.737023	0.188187	0.000121
C158	C	0.740990	0.212338	0.039633
C159	C	0.696750	0.256584	0.039635
C160	C	0.480969	0.272218	0.342807
C161	C	0.479302	0.231299	0.407324
C162	C	0.452390	0.208802	0.400083
C163	C	0.427138	0.227231	0.328318
C164	C	0.428802	0.268152	0.263803
C165	C	0.690978	0.268128	0.263836
C166	C	0.733568	0.227204	0.328349
C167	C	0.726757	0.208769	0.400112
C168	C	0.677351	0.231266	0.407362
C169	C	0.634762	0.272193	0.342849
C170	C	0.234443	0.656943	-0.263641
C171	C	0.191853	0.697881	-0.328154
C172	C	0.198664	0.716318	-0.399917
C173	C	0.248070	0.693818	-0.407167
C174	C	0.290659	0.652884	-0.342654
C175	C	0.280846	0.672537	0.039568
C176	C	0.236606	0.716793	0.039558
C177	C	0.188399	0.736895	0.000047
C178	C	0.184432	0.712743	-0.039462
C179	C	0.228672	0.668491	-0.039455
C180	C	0.496619	0.656907	-0.263590
C181	C	0.498293	0.697827	-0.328094
C182	C	0.473047	0.716265	-0.399864
C183	C	0.446129	0.693777	-0.407128
C184	C	0.444458	0.652855	-0.342624
H185	H	0.513736	-0.270932	-0.071569
F186	F	0.021930	0.302697	0.121184
H187	H	0.696534	0.283131	0.205408
F188	F	0.404697	-0.348855	0.081633
F189	F	0.398498	0.203282	0.320623
H190	H	0.383616	-0.138262	0.111271
H191	H	0.594539	0.290501	0.348764
H192	H	0.502884	0.290530	0.348718
H193	H	0.761441	0.175444	0.452636
H194	H	0.411729	-0.263575	0.071773
F195	F	0.401968	0.584037	-0.812584
F196	F	0.526941	0.721756	-0.320347
F197	F	0.523491	0.637292	-0.187213
H198	H	0.605327	0.268898	-0.071562
F199	F	0.786145	0.203266	0.320618
F200	F	0.343234	0.628940	-0.350383
H201	H	0.320095	0.656174	0.071748
H202	H	0.474411	0.749587	-0.452381
F203	F	0.401929	0.287753	0.187436
F204	F	0.415803	0.628934	-0.350369
F205	F	-0.406686	0.570183	-0.081432
F206	F	0.700980	0.282274	0.081695
F207	F	0.520717	0.273931	-0.081454
F208	F	0.419259	0.713410	-0.483517
H209	H	0.062350	0.315743	0.111299
F210	F	0.520739	0.182590	-0.081440
F211	F	0.141319	0.783993	0.000048
F212	F	0.450624	0.165250	0.468754
H213	H	0.541827	0.063323	-0.111062
H214	H	0.541841	-0.069422	-0.111056
F215	F	-0.207682	0.354840	0.081685
F216	F	0.240838	0.742488	0.081613
F217	F	0.509627	0.368697	-0.649456
H218	H	0.228888	0.641934	-0.205213
F219	F	0.224442	0.642790	-0.081499
F220	F	0.139276	0.721818	-0.320423
F221	F	0.506181	0.211692	0.483694
H222	H	0.671813	0.216251	0.465800
F223	F	0.153332	0.759884	-0.468572
H224	H	0.145176	0.729117	-0.071630
H225	H	0.499889	0.388181	-0.534243
H226	H	0.422520	0.542910	-0.348538
H227	H	0.541836	-0.016946	-0.111057
F228	F	0.376581	-0.010544	0.121165
F229	F	0.520771	-0.357254	-0.081436
F230	F	0.684584	0.182592	-0.081441
F231	F	0.376579	0.080782	0.121165
H232	H	0.411684	0.195997	0.071754
F233	F	0.784104	0.141095	0.000112
F234	F	0.548874	-0.155740	-0.120924
F235	F	0.404655	0.282315	0.081631
H236	H	0.383612	-0.058000	0.111271
H237	H	0.145154	0.557178	-0.071613
F238	F	0.224442	0.570221	-0.081484
H239	H	0.320059	0.367921	0.071742
F240	F	0.240791	0.354868	0.081646
H241	H	0.142609	0.315747	0.111280
H242	H	-0.300012	0.367883	0.071810
H243	H	0.428821	0.530335	-0.539897
F244	F	-0.315366	0.570192	-0.081430
H245	H	0.496611	0.394728	-0.459912
F246	F	0.526886	0.334168	-0.320384
H247	H	-0.084438	0.609324	-0.111068
H248	H	0.780246	0.195965	0.071799
H249	H	0.253610	0.708835	-0.465604
H250	H	0.517143	0.353651	-0.205165
H251	H	-0.004176	0.609325	-0.111059
H252	H	-0.217173	0.609307	-0.111059
F253	F	-0.137905	0.622353	-0.120945
F254	F	-0.069407	0.302699	0.121190
H255	H	0.425543	0.536880	-0.465561
H256	H	0.405267	0.577441	-0.677609
