data_functionalizedCrystal
_audit_creation_method	'MofGen! by Chris Wilmer'
_symmetry_space_group_name_H-M	'P1'
_symmetry_Int_Tables_number	1
_symmetry_cell_setting	triclinic
loop_
_symmetry_equiv_pos_as_xyz
  x,y,z
_cell_length_a	19.288840
_cell_length_b	16.109301
_cell_length_c	17.766277
_cell_angle_alpha	89.993364
_cell_angle_beta	89.983379
_cell_angle_gamma	83.293748
loop_
_atom_site_label
_atom_site_type_symbol
_atom_site_fract_x
_atom_site_fract_y
_atom_site_fract_z
O1	O	0.921612	0.103615	-0.062722
O2	O	1.421612	0.603615	0.437278
O3	O	0.719382	0.117628	-0.062697
O4	O	1.219382	0.617628	0.437303
O5	O	0.826052	-0.010429	-0.062702
O6	O	1.326052	0.489571	0.437298
O7	O	0.814941	0.231672	-0.062716
O8	O	1.314941	0.731672	0.437284
O9	O	0.826033	-0.010432	0.062486
O10	O	1.326033	0.489568	0.562486
O11	O	0.719363	0.117625	0.062492
O12	O	1.219363	0.617625	0.562492
O13	O	0.921593	0.103612	0.062466
O14	O	1.421593	0.603612	0.562466
Cu15	Cu	0.820476	0.110618	0.073910
Cu16	Cu	1.320476	0.610618	0.573910
Cu17	Cu	0.820499	0.110622	-0.074140
Cu18	Cu	1.320499	0.610622	0.425860
O19	O	0.814922	0.231669	0.062472
O20	O	1.314922	0.731669	0.562472
C21	C	0.693495	0.117179	-0.000099
C22	C	1.193495	0.617179	0.499901
C23	C	0.616387	0.115836	-0.000089
C24	C	1.116387	0.615836	0.499911
C25	C	0.580192	0.115193	-0.068331
C26	C	1.080192	0.615193	0.431669
C27	C	0.507742	0.113921	-0.068340
C28	C	1.007742	0.613921	0.431660
C29	C	0.471492	0.113277	-0.000103
C30	C	0.971492	0.613277	0.499897
C31	C	0.507695	0.113925	0.068148
C32	C	1.007695	0.613925	0.568148
C33	C	0.580142	0.115204	0.068155
C34	C	1.080142	0.615204	0.568155
C35	C	0.362035	0.062550	0.052168
C36	C	0.862035	0.562550	0.552168
C37	C	0.289589	0.061266	0.052158
C38	C	0.789589	0.561266	0.552158
C39	C	0.248039	0.109334	-0.000123
C40	C	0.748039	0.609334	0.499877
C41	C	0.278944	0.158676	-0.052406
C42	C	0.778944	0.658676	0.447594
C43	C	0.351392	0.159956	-0.052399
C44	C	0.851392	0.659956	0.447601
C45	C	0.392934	0.111890	-0.000103
C46	C	0.892934	0.611890	0.499897
C47	C	0.133285	0.107313	-0.068379
C48	C	0.633285	0.607313	0.431621
C49	C	0.060834	0.106047	-0.068386
C50	C	0.560834	0.606047	0.431614
C51	C	0.060788	0.106042	0.068104
C52	C	0.560788	0.606042	0.568104
C53	C	0.133238	0.107317	0.068109
C54	C	0.633238	0.607317	0.568109
C55	C	0.169482	0.107948	-0.000135
C56	C	0.669482	0.607948	0.499865
C57	C	0.825593	-0.041404	-0.000108
C58	C	1.325593	0.458596	0.499892
C59	C	0.824243	-0.133694	-0.000107
C60	C	1.324243	0.366306	0.499893
C61	C	0.884402	-0.356179	-0.000126
C62	C	1.384402	0.143821	0.499874
C63	C	0.883129	-0.442895	-0.000132
C64	C	1.383129	0.057105	0.499868
C65	C	0.756568	-0.422574	-0.000113
C66	C	1.256568	0.077426	0.499887
C67	C	0.757842	-0.335860	-0.000112
C68	C	1.257842	0.164140	0.499888
C69	C	0.821761	-0.302665	-0.000115
C70	C	1.321761	0.197335	0.499885
C71	C	0.819214	-0.476095	-0.000122
C72	C	1.319214	0.023905	0.499878
C73	C	0.817833	-0.570116	-0.000128
C74	C	1.317833	-0.070116	0.499872
C75	C	0.823142	-0.208638	-0.000110
C76	C	1.323142	0.291362	0.499890
C77	C	0.947480	0.104061	-0.000133
C78	C	1.447480	0.604061	0.499867
C79	C	1.024588	0.105404	-0.000148
C80	C	1.524588	0.605404	0.499852
C81	C	0.815382	0.262644	-0.000124
C82	C	1.315382	0.762644	0.499876
C83	C	0.816731	0.354934	-0.000130
C84	C	1.316731	0.854934	0.499870
N85	N	0.820465	0.110614	0.178040
N86	N	1.320465	0.610614	0.678040
N87	N	0.820515	0.110619	-0.178270
N88	N	1.320515	0.610619	0.321730
C89	C	0.862573	0.160911	0.217412
C90	C	1.362573	0.660911	0.717412
C91	C	0.862584	0.160909	0.296214
C92	C	1.362584	0.660909	0.796214
C93	C	0.820474	0.110619	0.335641
C94	C	1.320474	0.610619	0.835641
C95	C	0.778364	0.060312	0.296259
C96	C	1.278364	0.560312	0.796259
C97	C	0.778359	0.060310	0.217459
C98	C	1.278359	0.560310	0.717459
C99	C	0.757856	0.108523	0.460508
C100	C	1.257856	0.608523	0.960508
C101	C	0.757859	0.108531	0.539307
C102	C	1.257859	0.608531	1.039307
C103	C	0.820489	0.110622	0.578687
C104	C	1.320489	0.610622	1.078687
C105	C	0.883116	0.112721	0.539258
C106	C	1.383116	0.612721	1.039258
C107	C	0.883112	0.112719	0.460458
C108	C	1.383112	0.612719	0.960458
C109	C	0.820475	0.110616	0.421086
C110	C	1.320475	0.610616	0.921086
C111	C	0.862612	0.160918	0.703505
C112	C	1.362612	0.660918	1.203505
C113	C	0.862624	0.160910	0.782308
C114	C	1.362624	0.660910	1.282308
C115	C	0.778397	0.060319	0.782352
C116	C	1.278397	0.560319	1.282352
C117	C	0.778391	0.060322	0.703550
C118	C	1.278391	0.560322	1.203550
C119	C	0.820498	0.110627	0.664131
C120	C	1.320498	0.610627	1.164131
H121	H	0.376551	0.200134	-0.094968
H122	H	0.876551	0.700134	0.405032
N123	N	0.468599	0.113220	0.141746
N124	N	0.968599	0.613220	0.641746
H125	H	0.502525	0.113821	0.184980
H126	H	1.002525	0.613821	0.684980
H127	H	0.432886	0.164216	0.144713
H128	H	0.932886	0.664216	0.644713
H129	H	0.245114	0.197821	-0.094976
H130	H	0.745114	0.697821	0.405024
H131	H	0.031273	0.105522	0.123664
H132	H	0.531273	0.605522	0.623664
H133	H	0.704527	-0.449612	-0.000109
H134	H	1.204527	0.050388	0.499891
H135	H	0.706829	-0.292286	-0.000106
H136	H	1.206829	0.207714	0.499894
H137	H	0.896919	0.201865	0.814363
H138	H	1.396919	0.701865	1.314363
N139	N	0.950652	0.114973	0.417926
N140	N	1.450652	0.614973	0.917926
H141	H	0.971833	0.167400	0.431619
H142	H	1.471833	0.667400	0.931619
H143	H	0.984185	0.064336	0.431648
H144	H	1.484185	0.564336	0.931648
N145	N	0.619186	0.115902	0.141762
N146	N	1.119186	0.615902	0.641762
H147	H	0.585230	0.115304	0.184991
H148	H	1.085230	0.615304	0.684991
H149	H	0.654893	0.064902	0.144742
H150	H	1.154893	0.564902	0.644742
H151	H	0.609698	0.115707	-0.123901
H152	H	1.109698	0.615707	0.376099
N153	N	0.732983	0.006069	0.824865
N154	N	1.232983	0.506069	1.324865
H155	H	0.739377	0.013700	0.880760
H156	H	1.239377	0.513700	1.380760
H157	H	0.682463	0.022653	0.811110
H158	H	1.182463	0.522653	1.311110
H159	H	0.706851	0.106826	0.428452
H160	H	1.206851	0.606826	0.928452
N161	N	0.950689	-0.500618	-0.000140
N162	N	1.450689	-0.000618	0.499860
H163	H	0.978584	-0.489961	-0.046549
H164	H	1.478584	0.010039	0.453451
H165	H	0.978511	-0.489949	0.046297
H166	H	1.478511	0.010051	0.546297
H167	H	0.896898	0.201879	0.671408
H168	H	1.396898	0.701879	1.171408
N169	N	0.907994	0.215156	0.174896
N170	N	1.407994	0.715156	0.674896
H171	H	0.934674	0.247015	0.211800
H172	H	1.434674	0.747015	0.711800
H173	H	0.941956	0.178791	0.142198
H174	H	1.441956	0.678791	0.642198
N175	N	0.406843	0.010700	0.108562
N176	N	0.906843	0.510700	0.608562
H177	H	0.441479	-0.030411	0.081068
H178	H	0.941479	0.469589	0.581068
H179	H	0.432753	0.048590	0.140710
H180	H	0.932753	0.548590	0.640710
H181	H	0.478267	0.113399	-0.123913
H182	H	0.978267	0.613399	0.376087
N183	N	0.950680	0.114996	0.581702
N184	N	1.450680	0.614996	1.081702
H185	H	0.959703	0.063580	0.614401
H186	H	1.459703	0.563580	1.114401
H187	H	0.990292	0.116361	0.544703
H188	H	1.490292	0.616361	1.044703
H189	H	0.896874	0.201868	0.328277
H190	H	1.396874	0.701868	0.828277
H191	H	0.936449	-0.329155	-0.000130
H192	H	1.436449	0.170845	0.499870
H193	H	0.162796	0.107836	-0.123948
H194	H	0.662796	0.607836	0.376052
H195	H	0.744100	0.019368	0.671493
H196	H	1.244100	0.519368	1.171493
N197	N	0.690315	0.106260	0.581828
N198	N	1.190315	0.606260	1.081828
H199	H	0.699819	0.106584	0.637723
H200	H	1.199819	0.606584	1.137723
H201	H	0.656755	0.156856	0.568059
H202	H	1.156755	0.656856	1.068059
N203	N	0.172282	0.108010	0.141713
N204	N	0.672282	0.608010	0.641713
H205	H	0.138326	0.107409	0.184941
H206	H	0.638326	0.607409	0.684941
H207	H	0.207992	0.057012	0.144694
H208	H	0.707992	0.557012	0.644694
N209	N	0.732948	0.006066	0.338778
N210	N	1.232948	0.506066	0.838778
H211	H	0.739339	0.013700	0.394673
H212	H	1.239339	0.513700	0.894673
H213	H	0.682428	0.022648	0.325021
H214	H	1.182428	0.522648	0.825021
N215	N	0.021791	0.105356	-0.141993
N216	N	0.521791	0.605356	0.358007
H217	H	0.055748	0.105947	-0.185221
H218	H	0.555748	0.605947	0.314779
H219	H	-0.002618	0.053296	-0.144959
H220	H	0.497382	0.553296	0.355041
N221	N	0.732940	0.006057	0.174993
N222	N	1.232940	0.506057	0.674993
H223	H	0.682401	0.022614	0.188724
H224	H	1.182401	0.522614	0.688724
H225	H	0.739383	0.013709	0.119105
H226	H	1.239383	0.513709	0.619105
N227	N	0.256256	0.008049	0.108543
N228	N	0.756256	0.508049	0.608543
H229	H	0.275534	-0.052495	0.101580
H230	H	0.775534	0.447505	0.601580
H231	H	0.266857	0.026527	0.161201
H232	H	0.766857	0.526527	0.661201
