data_functionalizedCrystal
_audit_creation_method	'MofGen! by Chris Wilmer'
_symmetry_space_group_name_H-M	'P1'
_symmetry_Int_Tables_number	1
_symmetry_cell_setting	triclinic
loop_
_symmetry_equiv_pos_as_xyz
  x,y,z
_cell_length_a	18.050591
_cell_length_b	18.050589
_cell_length_c	19.077271
_cell_angle_alpha	87.676607
_cell_angle_beta	92.286692
_cell_angle_gamma	90.027061
loop_
_atom_site_label
_atom_site_type_symbol
_atom_site_fract_x
_atom_site_fract_y
_atom_site_fract_z
Zn1	Zn	1.118444	-0.278823	-0.397897
Zn2	Zn	1.618444	0.221177	0.102103
Zn3	Zn	1.123338	-0.408007	-0.280209
Zn4	Zn	1.623338	0.091993	0.219791
Zn5	Zn	0.999246	-0.283832	-0.280223
Zn6	Zn	1.499246	0.216168	0.219777
Zn7	Zn	0.994212	-0.402974	-0.397876
Zn8	Zn	1.494212	0.097026	0.102124
O9	O	1.058810	-0.343409	-0.339051
O10	O	1.558810	0.156591	0.160949
O11	O	1.223018	-0.295969	-0.382289
O12	O	1.723018	0.204031	0.117711
O13	O	1.111032	-0.395737	-0.181720
O14	O	1.611032	0.104263	0.318280
O15	O	1.015117	-0.179242	-0.295847
O16	O	1.515117	0.320758	0.204153
O17	O	1.226613	-0.390880	-0.295824
O18	O	1.726613	0.109120	0.204176
O19	O	1.102691	-0.175562	-0.382302
O20	O	1.602691	0.324438	0.117698
O21	O	1.019862	-0.304507	-0.181730
O22	O	1.519862	0.195493	0.318270
O23	O	0.894654	-0.299627	-0.295826
O24	O	1.394654	0.200373	0.204174
O25	O	1.006537	-0.382302	-0.496370
O26	O	1.506537	0.117698	0.003630
O27	O	0.890956	-0.387160	-0.382265
O28	O	1.390956	0.112840	0.117735
O29	O	1.097810	-0.291089	-0.496385
O30	O	1.597810	0.208911	0.003615
O31	O	1.106151	-0.511264	-0.295803
O32	O	1.606151	-0.011264	0.204197
O33	O	1.011283	-0.507567	-0.382252
O34	O	1.511283	-0.007567	0.117748
C35	C	0.865858	-0.343391	-0.339045
C36	C	1.365858	0.156609	0.160955
C37	C	0.783312	-0.343401	-0.339060
C38	C	1.283312	0.156599	0.160940
C39	C	0.532499	-0.391106	-0.386001
C40	C	1.032499	0.108894	0.113999
C41	C	0.584590	-0.411907	-0.321761
C42	C	1.084590	0.088093	0.178239
C43	C	0.486192	-0.343424	-0.339058
C44	C	0.986192	0.156576	0.160942
C45	C	0.581183	-0.322647	-0.403296
C46	C	1.081183	0.177353	0.096704
C47	C	0.632177	-0.343414	-0.339062
C48	C	1.132177	0.156586	0.160938
C49	C	0.537196	-0.364261	-0.274784
C50	C	1.037196	0.135739	0.225216
C51	C	0.533783	-0.274968	-0.356362
C52	C	1.033783	0.225032	0.143638
C53	C	0.585853	-0.295744	-0.292077
C54	C	1.085853	0.204256	0.207923
C55	C	0.402093	-0.343431	-0.339057
C56	C	0.902093	0.156569	0.160943
C57	C	0.716273	-0.343407	-0.339056
C58	C	1.216273	0.156593	0.160944
C59	C	1.058721	-0.536362	-0.339039
C60	C	1.558721	-0.036362	0.160961
C61	C	1.058750	-0.618907	-0.339058
C62	C	1.558750	-0.118907	0.160942
C63	C	1.007210	-0.816374	-0.386053
C64	C	1.507210	-0.316374	0.113947
C65	C	0.991831	-0.868537	-0.321830
C66	C	1.491831	-0.368537	0.178170
C67	C	1.058822	-0.770036	-0.339067
C68	C	1.558822	-0.270036	0.160933
C69	C	1.074237	-0.864955	-0.403297
C70	C	1.574237	-0.364955	0.096703
C71	C	1.058891	-0.916021	-0.339082
C72	C	1.558891	-0.416021	0.160918
C73	C	1.043410	-0.821113	-0.274810
C74	C	1.543410	-0.321113	0.225190
C75	C	1.125845	-0.817526	-0.356321
C76	C	1.625845	-0.317526	0.143679
C77	C	1.110494	-0.869668	-0.292054
C78	C	1.610494	-0.369668	0.207946
C79	C	1.058781	-0.685939	-0.339060
C80	C	1.558781	-0.185939	0.160940
C81	C	1.058933	-1.000117	-0.339082
C82	C	1.558933	-0.500117	0.160918
C83	C	1.252516	-0.343427	-0.339057
C84	C	1.752516	0.156573	0.160943
C85	C	1.335061	-0.343435	-0.339060
C86	C	1.835061	0.156565	0.160940
C87	C	1.051066	-0.335576	-0.522629
C88	C	1.551066	0.164424	-0.022629
C89	C	1.047766	-0.332238	-0.600859
C90	C	1.547766	0.167762	-0.100859
C91	C	1.058919	-0.149702	-0.339078
C92	C	1.558919	0.350298	0.160922
C93	C	1.058966	-0.067156	-0.339090
C94	C	1.558966	0.432844	0.160910
C95	C	1.024097	-0.308355	-1.041212
C96	C	1.524097	0.191645	-0.541212
C97	C	1.027201	-0.311489	-0.967707
C98	C	1.527201	0.188511	-0.467707
C99	C	1.076216	-0.360558	-0.930948
C100	C	1.576216	0.139442	-0.430948
C101	C	1.122136	-0.406492	-0.967699
C102	C	1.622136	0.093508	-0.467699
C103	C	1.119035	-0.403354	-1.041203
C104	C	1.619035	0.096646	-0.541203
C105	C	1.090584	-0.375033	-0.711114
C106	C	1.590584	0.124967	-0.211114
C107	C	1.093680	-0.378169	-0.637605
C108	C	1.593680	0.121831	-0.137605
C109	C	0.998746	-0.283165	-0.637618
C110	C	1.498746	0.216835	-0.137618
C111	C	0.995646	-0.280034	-0.711123
C112	C	1.495646	0.219966	-0.211123
C113	C	1.041568	-0.325965	-0.747867
C114	C	1.541568	0.174035	-0.247867
N115	N	1.079389	-0.363764	-0.855814
N116	N	1.579389	0.136236	-0.355814
N117	N	1.038399	-0.322755	-0.823000
N118	N	1.538399	0.177245	-0.323000
C119	C	1.066567	-0.351158	-0.156187
C120	C	1.566567	0.148842	0.343813
C121	C	1.070011	-0.354287	-0.077958
C122	C	1.570011	0.145713	0.422042
H123	H	0.600595	-0.305078	-0.457619
H124	H	1.100595	0.194922	0.042381
H125	H	1.156424	-0.440755	-1.071120
H126	H	1.656424	0.059245	-0.571120
H127	H	1.162048	-0.446442	-0.937764
H128	H	1.662048	0.053558	-0.437764
H129	H	0.961360	-0.245770	-0.607693
H130	H	1.461360	0.254230	-0.107693
H131	H	0.609079	-0.255419	-0.252335
H132	H	1.109079	0.244581	0.247665
H133	H	0.509141	-0.431468	-0.425648
H134	H	1.009141	0.068532	0.074352
H135	H	0.606883	-0.469795	-0.307121
H136	H	1.106883	0.030205	0.192879
H137	H	0.517876	-0.381900	-0.220446
H138	H	1.017876	0.118100	0.279554
H139	H	0.511473	-0.217095	-0.371020
H140	H	1.011473	0.282905	0.128980
H141	H	1.182478	-0.795128	-0.370932
H142	H	1.682478	-0.295128	0.129068
H143	H	0.963504	-0.793040	-0.425730
H144	H	1.463504	-0.293040	0.074270
H145	H	0.935185	-0.890935	-0.307249
H146	H	1.435185	-0.390935	0.192751
H147	H	0.984181	-0.268399	-1.071136
H148	H	1.484181	0.231601	-0.571136
H149	H	1.030333	-0.801855	-0.220482
H150	H	1.530333	-0.301855	0.279518
H151	H	1.154172	-0.892868	-0.252280
H152	H	1.654172	-0.392868	0.247720
H153	H	1.087248	-0.884304	-0.457610
H154	H	1.587248	-0.384304	0.042390
H155	H	0.989812	-0.274087	-0.937792
H156	H	1.489812	0.225913	-0.437792
H157	H	1.133612	-0.418115	-0.607678
H158	H	1.633612	0.081885	-0.107678
H159	H	0.955729	-0.240080	-0.741047
H160	H	1.455729	0.259920	-0.241047
H161	H	1.127975	-0.412435	-0.741022
H162	H	1.627975	0.087565	-0.241022
