data_functionalizedCrystal
_audit_creation_method	'MofGen! by Chris Wilmer'
_symmetry_space_group_name_H-M	'P1'
_symmetry_Int_Tables_number	1
_symmetry_cell_setting	triclinic
loop_
_symmetry_equiv_pos_as_xyz
  x,y,z
_cell_length_a	12.837943
_cell_length_b	10.654550
_cell_length_c	9.130313
_cell_angle_alpha	90.004369
_cell_angle_beta	89.997453
_cell_angle_gamma	90.343065
loop_
_atom_site_label
_atom_site_type_symbol
_atom_site_fract_x
_atom_site_fract_y
_atom_site_fract_z
O1	O	1.377802	-0.326751	-0.121780
O2	O	1.877802	0.173249	0.378220
O3	O	1.075880	-0.310610	-0.121787
O4	O	1.575880	0.189390	0.378213
O5	O	1.233782	-0.136698	-0.121774
O6	O	1.733782	0.363302	0.378226
O7	O	1.219899	-0.500662	-0.121793
O8	O	1.719899	-0.000662	0.378207
O9	O	1.233772	-0.136691	0.121825
O10	O	1.733772	0.363309	0.621825
O11	O	1.075869	-0.310603	0.121812
O12	O	1.575869	0.189397	0.621812
O13	O	1.377791	-0.326744	0.121819
O14	O	1.877791	0.173256	0.621819
Cu15	Cu	1.226829	-0.318673	0.144058
Cu16	Cu	1.726829	0.181327	0.644058
Cu17	Cu	1.226842	-0.318681	-0.144026
Cu18	Cu	1.726842	0.181319	0.355974
O19	O	1.219888	-0.500655	0.121806
O20	O	1.719888	-0.000655	0.621806
C21	C	1.037215	-0.305153	0.000012
C22	C	1.537215	0.194847	0.500012
C23	C	0.922021	-0.288891	0.000009
C24	C	1.422021	0.211109	0.500009
C25	C	1.232758	-0.089786	0.000025
C26	C	1.732758	0.410214	0.500025
C27	C	1.229708	0.049990	0.000022
C28	C	1.729708	0.549990	0.500022
C29	C	1.416456	-0.332200	0.000017
C30	C	1.916456	0.167800	0.500017
C31	C	1.531650	-0.348462	0.000010
C32	C	2.031650	0.151538	0.500010
C33	C	1.771203	-0.152958	0.000035
C34	C	2.271203	0.347042	0.500035
C35	C	1.879438	-0.168232	0.000029
C36	C	2.379438	0.331768	0.500029
C37	C	1.856359	-0.394284	0.000001
C38	C	2.356359	0.105716	0.500001
C39	C	1.748123	-0.379009	0.000007
C40	C	2.248123	0.120991	0.500007
C41	C	1.705549	-0.258343	0.000023
C42	C	2.205549	0.241657	0.500023
C43	C	1.597312	-0.243070	0.000019
C44	C	2.097312	0.256930	0.500019
C45	C	1.574234	-0.469120	0.000001
C46	C	2.074234	0.030880	0.500001
C47	C	1.682470	-0.484394	-0.000006
C48	C	2.182470	0.015606	0.499994
C49	C	1.220913	-0.547568	0.000004
C50	C	1.720913	-0.047568	0.500004
C51	C	1.223963	-0.687344	-0.000003
C52	C	1.723963	-0.187344	0.499997
N53	N	1.226827	-0.318667	0.346681
N54	N	1.726827	0.181333	0.846681
C55	C	1.322678	0.119331	0.000024
C56	C	1.822678	0.619331	0.500024
C57	C	1.319806	0.250665	0.000006
C58	C	1.819806	0.750665	0.500006
C59	C	1.130985	0.243307	-0.000009
C60	C	1.630985	0.743307	0.499991
C61	C	1.133858	0.111975	-0.000002
C62	C	1.633858	0.611975	0.499998
N63	N	1.226851	-0.318677	-0.346648
N64	N	1.726851	0.181323	0.153352
C65	C	1.296770	-0.241698	0.423338
C66	C	1.796770	0.258302	0.923338
C67	C	1.296780	-0.241699	0.576675
C68	C	1.796780	0.258301	1.076675
C69	C	1.156901	-0.395650	0.576683
C70	C	1.656901	0.104350	1.076683
C71	C	1.156887	-0.395641	0.423349
C72	C	1.656887	0.104359	0.923349
H73	H	1.562650	-0.144817	0.000025
H74	H	2.062650	0.355183	0.500025
F75	F	1.727792	-0.612810	-0.000022
F76	F	2.227792	-0.112810	0.499978
F77	F	1.082436	-0.477561	0.341758
F78	F	1.582436	0.022439	0.841758
H79	H	1.395513	0.307116	0.000004
H80	H	1.895513	0.807116	0.500004
H81	H	1.520767	-0.554932	-0.000010
H82	H	2.020767	-0.054932	0.499990
H83	H	1.400725	0.068867	0.000040
H84	H	1.900725	0.568867	0.500040
F85	F	1.371205	-0.159772	0.341748
F86	F	1.871205	0.340228	0.841748
H87	H	1.052948	0.293791	-0.000026
H88	H	1.552948	0.793791	0.499974
F89	F	1.725890	-0.024538	0.000043
F90	F	2.225890	0.475462	0.500043
F91	F	1.949308	-0.056067	0.000047
F92	F	2.449308	0.443933	0.500047
F93	F	1.082471	-0.477571	0.658289
F94	F	1.582471	0.022429	1.158289
H95	H	1.891042	-0.492525	0.000002
H96	H	2.391042	0.007475	0.500002
F97	F	1.034901	0.038173	-0.000014
F98	F	1.534901	0.538173	0.499986
F99	F	1.371221	-0.159775	0.658255
F100	F	1.871221	0.340225	1.158255
