data_functionalizedCrystal
_audit_creation_method	'MofGen! by Chris Wilmer'
_symmetry_space_group_name_H-M	'P1'
_symmetry_Int_Tables_number	1
_symmetry_cell_setting	triclinic
loop_
_symmetry_equiv_pos_as_xyz
  x,y,z
_cell_length_a	34.490303
_cell_length_b	34.489386
_cell_length_c	34.485816
_cell_angle_alpha	60.004462
_cell_angle_beta	60.008900
_cell_angle_gamma	59.994399
loop_
_atom_site_label
_atom_site_type_symbol
_atom_site_fract_x
_atom_site_fract_y
_atom_site_fract_z
O1	O	0.053846	-0.566517	0.473678
O2	O	0.020329	-0.441078	0.381663
O3	O	0.099768	-0.520436	0.381578
O4	O	-0.025592	-0.487159	0.473762
O5	O	0.126127	-0.494082	0.407849
O6	O	0.046689	-0.414724	0.407933
O7	O	0.080206	-0.540163	0.499949
Zn8	Zn	0.067632	-0.473259	0.458112
Zn9	Zn	0.032903	-0.507982	0.423499
O10	O	0.000767	-0.460805	0.500033
N11	N	0.091336	-0.449565	0.481736
N12	N	0.009203	-0.531680	0.399875
C13	C	0.142510	-0.268211	0.532817
C14	C	0.142641	-0.398441	0.662987
C15	C	0.142524	-0.398421	0.532817
C16	C	0.272762	-0.398394	0.532723
C17	C	0.156853	-0.311177	0.547124
C18	C	0.156928	-0.384109	0.620020
C19	C	0.229794	-0.384081	0.547073
C20	C	0.156863	-0.384097	0.547124
C21	C	0.124253	-0.213522	0.514606
C22	C	0.124277	-0.416652	0.514606
C23	C	0.175110	-0.365866	0.565335
C24	C	0.352285	-0.384669	0.490824
C25	C	0.401998	-0.401229	0.474223
C26	C	0.402027	-0.481671	0.504898
C27	C	0.352316	-0.465109	0.521500
C28	C	0.136220	-0.188652	0.465734
C29	C	0.119621	-0.138936	0.449181
C30	C	0.079092	-0.138961	0.530374
C31	C	0.095691	-0.188678	0.546927
C32	C	0.075398	-0.404656	0.526651
C33	C	0.058814	-0.421229	0.510091
C34	C	0.139984	-0.461794	0.469452
C35	C	0.156570	-0.445221	0.486007
C36	C	0.075593	-0.404694	0.742565
C37	C	0.059066	-0.421281	0.792280
C38	C	0.140274	-0.461856	0.792215
C39	C	0.156800	-0.445269	0.742499
C40	C	0.124458	-0.416687	0.717675
C41	C	0.327446	-0.416608	0.514460
C42	C	-0.023585	-0.564792	0.161919
C43	C	-0.023910	-0.769260	0.366530
C44	C	-0.023880	-0.564780	0.366623
C45	C	-0.228325	-0.564561	0.366222
C46	C	-0.129610	-0.597564	0.333467
C47	C	-0.056729	-0.597644	0.333613
C48	C	-0.074925	-0.615849	0.315324
C49	C	-0.088689	-0.695351	0.357144
C50	C	-0.072155	-0.745068	0.373736
C51	C	0.008283	-0.745150	0.343188
C52	C	-0.008252	-0.695435	0.326596
C53	C	-0.154529	-0.609541	0.382326
C54	C	-0.204241	-0.592916	0.398818
C55	C	-0.204114	-0.552341	0.317588
C56	C	-0.154401	-0.568966	0.301096
C57	C	-0.068707	-0.548770	0.321590
C58	C	-0.052166	-0.532225	0.338221
C59	C	-0.011669	-0.613425	0.378886
C60	C	-0.028210	-0.629972	0.362261
C61	C	-0.068581	-0.548777	0.235758
C62	C	-0.051939	-0.532234	0.186043
C63	C	-0.011379	-0.613438	0.186090
C64	C	-0.028020	-0.629981	0.235806
C65	C	-0.056622	-0.597649	0.260639
C66	C	-0.056739	-0.670537	0.333576
C67	C	-0.005614	-0.545951	0.107238
C68	C	-0.006360	-0.823943	0.385033
C69	C	-0.005995	-0.545937	0.384582
C70	C	-0.283006	-0.545971	0.383725
N71	N	0.426163	-0.449489	0.481488
O72	O	0.588601	-0.457377	0.364497
O73	O	0.588789	-0.549696	0.489801
O74	O	0.588709	-0.549485	0.410335
O75	O	0.588681	-0.457588	0.443963
O76	O	0.509731	-0.523223	0.436741
O77	O	0.509811	-0.523434	0.516207
O78	O	0.509624	-0.431115	0.390903
Zn79	Zn	0.497178	-0.473105	0.457747
Zn80	Zn	0.601234	-0.507706	0.422956
O81	O	0.509704	-0.431326	0.470368
N82	N	0.672250	-0.531322	0.399211
N83	N	0.091303	-0.114798	0.481730
O84	O	-0.025603	0.047729	0.473733
O85	O	0.099703	0.047764	0.381394
O86	O	0.020199	0.047731	0.381655
O87	O	0.053901	0.047761	0.473472
O88	O	0.046564	-0.031252	0.407974
O89	O	0.126068	-0.031219	0.407713
O90	O	0.000762	-0.031254	0.500052
Zn91	Zn	0.067601	-0.043777	0.458061
Zn92	Zn	0.032864	0.060287	0.423385
O93	O	0.080266	-0.031222	0.499791
N94	N	0.009156	0.131307	0.399717
N95	N	0.091635	-0.449614	0.816396
O96	O	0.083664	-0.566502	0.978913
O97	O	-0.008637	-0.441152	0.978954
O98	O	-0.008421	-0.520640	0.978930
O99	O	0.083448	-0.487013	0.978936
O100	O	0.017877	-0.494296	0.899950
O101	O	0.017661	-0.414807	0.899974
O102	O	0.109961	-0.540157	0.899933
Zn103	Zn	0.067986	-0.473299	0.887414
Zn104	Zn	0.033338	-0.508010	0.991473
O105	O	0.109746	-0.460669	0.899956
N106	N	0.009689	-0.531700	1.062491
C107	C	0.030367	-0.412095	0.382120
C108	C	0.128741	-0.510370	0.382016
C109	C	0.070168	-0.569147	0.499490
C110	C	-0.028207	-0.470871	0.499595
C111	C	0.549323	-0.549278	0.518791
C112	C	0.549225	-0.549017	0.420381
C113	C	0.549087	-0.431532	0.361914
C114	C	0.549188	-0.431794	0.460322
C115	C	0.128638	0.008374	0.381806
C116	C	0.030215	0.008236	0.382161
C117	C	-0.028206	0.008233	0.499608
C118	C	0.070250	0.008272	0.499285
C119	C	-0.008199	-0.412187	0.939469
C120	C	-0.007927	-0.510619	0.939425
C121	C	0.109523	-0.569121	0.939417
C122	C	0.109257	-0.470684	0.939444
H123	H	0.019274	-0.411508	0.812539
H124	H	0.023205	-0.376060	0.353221
H125	H	-0.064213	-0.463781	0.528541
H126	H	0.549182	-0.402927	0.467517
O127	O	0.143679	-0.462153	0.939522
C128	C	0.156488	-0.494719	0.980411
H129	H	0.126075	-0.508643	1.009005
H130	H	0.189557	-0.525633	0.971149
C131	C	0.204245	-0.452621	0.963840
C132	C	0.166890	-0.469720	0.998962
H133	H	0.210664	-0.437202	0.975283
H134	H	0.195618	-0.430682	0.936292
H135	H	0.231799	-0.478386	0.956125
H136	H	0.139336	-0.443955	1.006671
H137	H	0.175513	-0.491654	1.026512
H138	H	0.549027	-0.402547	0.325928
O139	O	0.171691	-0.518904	0.347495
C140	C	0.180175	-0.557329	0.336523
H141	H	0.157990	-0.580150	0.367931
H142	H	0.169963	-0.543219	0.303957
C143	C	0.260456	-0.559505	0.287525
C144	C	0.233211	-0.587537	0.326103
H145	H	0.293171	-0.578138	0.281095
H146	H	0.254740	-0.533617	0.294916
H147	H	0.251941	-0.547749	0.260392
H148	H	0.241722	-0.599288	0.353236
H149	H	0.238930	-0.613428	0.318716
O150	O	0.044109	-0.376948	0.718527
C151	C	-0.002564	-0.369909	0.751157
H152	H	-0.002440	-0.399890	0.786585
H153	H	-0.016807	-0.334497	0.756455
C154	C	-0.034630	-0.332734	0.688274
C155	C	-0.034477	-0.369559	0.731786
H156	H	-0.054316	-0.332516	0.676324
H157	H	-0.003185	-0.337474	0.666290
H158	H	-0.046498	-0.303228	0.692695
H159	H	-0.022604	-0.399065	0.727363
H160	H	-0.065921	-0.364824	0.753769
O161	O	0.078946	0.008252	0.533658
C162	C	0.125622	0.008276	0.516335
H163	H	0.148070	-0.006668	0.485845
H164	H	0.124912	0.046171	0.503091
C165	C	0.119671	-0.004346	0.593939
C166	C	0.147244	-0.022704	0.556493
H167	H	0.133008	-0.023454	0.618710
H168	H	0.088224	-0.004360	0.605610
H169	H	0.119081	0.027233	0.582896
H170	H	0.147828	-0.054280	0.567535
H171	H	0.178691	-0.022695	0.544825
O172	O	-0.042726	-0.369221	0.939504
C173	C	-0.025629	-0.339664	0.939499
H174	H	0.004863	-0.362499	0.954444
H175	H	-0.012457	-0.315676	0.901611
C176	C	-0.103388	-0.280888	0.952129
C177	C	-0.065939	-0.308934	0.970489
H178	H	-0.128253	-0.261930	0.971243
H179	H	-0.114906	-0.300800	0.952131
H180	H	-0.092404	-0.260902	0.920556
H181	H	-0.076921	-0.328923	1.002059
H182	H	-0.054423	-0.289024	0.970493
H183	H	0.164551	0.008603	0.352745
O184	O	0.549405	-0.583811	0.561742
C185	C	0.549409	-0.566706	0.591294
H186	H	0.564322	-0.536200	0.568457
H187	H	0.511529	-0.553547	0.615305
C188	C	0.562122	-0.644474	0.650038
C189	C	0.580442	-0.607009	0.621989
H190	H	0.581262	-0.669335	0.668973
H191	H	0.562117	-0.655998	0.630129
H192	H	0.530556	-0.633503	0.670043
H193	H	0.612005	-0.617980	0.601980
H194	H	0.580452	-0.595488	0.641894
O195	O	0.021541	0.008193	0.347809
C196	C	-0.025140	0.008182	0.365128
H197	H	-0.037612	-0.006759	0.405578
H198	H	-0.049726	0.046066	0.353116
C199	C	-0.010751	-0.004471	0.295948
C200	C	-0.026069	-0.022826	0.345630
H201	H	-0.011326	-0.023597	0.283919
H202	H	0.020698	-0.004463	0.284279
H203	H	-0.031242	0.027098	0.285944
H204	H	-0.005575	-0.054392	0.355632
H205	H	-0.057515	-0.022841	0.357300
O206	O	-0.071172	0.008251	0.534130
C207	C	-0.100741	0.008228	0.517063
H208	H	-0.087902	0.023174	0.476612
H209	H	-0.099454	-0.029667	0.529147
C210	C	-0.167893	0.020846	0.586422
C211	C	-0.152126	0.039207	0.536739
H212	H	-0.199590	0.039953	0.598560
H213	H	-0.147972	0.020860	0.597922
H214	H	-0.166817	-0.010733	0.596486
H215	H	-0.153197	0.070782	0.526676
H216	H	-0.172049	0.039198	0.525238
H217	H	-0.036776	-0.517804	0.939391
H218	H	0.077330	-0.605181	0.528391
O219	O	0.549153	-0.583416	0.411807
C220	C	0.508229	-0.567081	0.400661
H221	H	0.479634	-0.537609	0.416012
H222	H	0.517428	-0.552742	0.360449
C223	C	0.524848	-0.644616	0.403216
C224	C	0.489725	-0.608421	0.422074
H225	H	0.513435	-0.670116	0.416422
H226	H	0.552421	-0.655621	0.410723
H227	H	0.532511	-0.632661	0.369706
H228	H	0.482067	-0.620375	0.455582
H229	H	0.462151	-0.597419	0.414573
O230	O	0.171755	-0.489630	0.816256
C231	C	0.218430	-0.496649	0.783627
H232	H	0.218308	-0.491082	0.748197
H233	H	0.232671	-0.470187	0.778335
C234	C	0.250492	-0.554419	0.846511
C235	C	0.250343	-0.547586	0.802996
H236	H	0.270179	-0.585838	0.858460
H237	H	0.219047	-0.549690	0.868494
H238	H	0.262358	-0.532364	0.842095
H239	H	0.238472	-0.569637	0.807414
H240	H	0.281787	-0.552320	0.781014
O241	O	0.204266	-0.456976	0.718302
C242	C	0.216260	-0.481987	0.689534
H243	H	0.188242	-0.498819	0.704533
H244	H	0.217878	-0.456416	0.651865
C245	C	0.299438	-0.500440	0.670313
C246	C	0.265027	-0.521117	0.688737
H247	H	0.329521	-0.524576	0.669819
H248	H	0.291358	-0.483588	0.689693
H249	H	0.300780	-0.479132	0.638924
H250	H	0.263681	-0.542421	0.720128
H251	H	0.273108	-0.537973	0.669363
H252	H	0.138503	-0.605120	0.939399
H253	H	0.019013	-0.411451	0.519888
O254	O	0.044009	-0.376833	0.554357
C255	C	0.015229	-0.335144	0.529283
H256	H	0.034397	-0.328222	0.489505
H257	H	-0.019697	-0.339669	0.539888
C258	C	-0.018465	-0.301344	0.590155
C259	C	0.005079	-0.292840	0.541299
H260	H	-0.024729	-0.275250	0.597569
H261	H	0.000923	-0.329432	0.607050
H262	H	-0.047568	-0.305116	0.598987
H263	H	0.034183	-0.289075	0.532470
H264	H	-0.014305	-0.264751	0.524404
O265	O	0.171420	-0.489528	0.441661
C266	C	0.218118	-0.496573	0.434595
H267	H	0.218032	-0.466601	0.440148
H268	H	0.232390	-0.531992	0.461039
C269	C	0.250072	-0.533723	0.376832
C270	C	0.249966	-0.496908	0.383649
H271	H	0.269718	-0.533932	0.345407
H272	H	0.218611	-0.528978	0.381593
H273	H	0.261964	-0.563235	0.398872
H274	H	0.238068	-0.467397	0.361614
H275	H	0.281426	-0.501648	0.378883
H276	H	0.196371	-0.454985	0.476195
H277	H	0.332093	-0.491119	0.540748
H278	H	0.422223	-0.375220	0.454977
O279	O	0.426112	-0.528801	0.511791
C280	C	0.393528	-0.553440	0.536203
H281	H	0.358098	-0.531760	0.556591
H282	H	0.388217	-0.559194	0.509616
C283	C	0.456486	-0.628497	0.546200
C284	C	0.412971	-0.601871	0.571245
H285	H	0.468480	-0.658372	0.567814
H286	H	0.478439	-0.611898	0.529752
H287	H	0.452054	-0.633287	0.524046
H288	H	0.417404	-0.597077	0.593394
H289	H	0.391019	-0.618471	0.587698
H290	H	0.332037	-0.345175	0.485091
O291	O	0.163894	-0.212762	0.434319
C292	C	0.138761	-0.200607	0.405597
H293	H	0.098994	-0.186955	0.424819
H294	H	0.149313	-0.171738	0.370669
C295	C	0.199617	-0.261536	0.371829
C296	C	0.150774	-0.244772	0.395440
H297	H	0.207028	-0.288778	0.365562
H298	H	0.216550	-0.269724	0.391178
H299	H	0.208403	-0.237474	0.342725
H300	H	0.141989	-0.268831	0.424546
H301	H	0.133839	-0.236589	0.376096
O302	O	0.131163	-0.114752	0.401711
C303	C	0.089368	-0.085995	0.389734
H304	H	0.059523	-0.100994	0.417777
H305	H	0.078895	-0.048318	0.388092
C306	C	0.134830	-0.066795	0.306546
C307	C	0.098176	-0.085220	0.340987
H308	H	0.140263	-0.066315	0.276476
H309	H	0.162989	-0.086168	0.314614
H310	H	0.126098	-0.035399	0.305183
H311	H	0.106911	-0.116617	0.342353
H312	H	0.070019	-0.065852	0.332917
H313	H	0.055841	-0.118733	0.556693
H314	H	0.085944	-0.208923	0.586721
H315	H	-0.091873	-0.522445	0.255974
O316	O	-0.063625	-0.484741	0.161952
C317	C	-0.092429	-0.459756	0.194533
H318	H	-0.110545	-0.483441	0.229953
H319	H	-0.069515	-0.449059	0.199873
C320	C	-0.108127	-0.385825	0.131557
C321	C	-0.130380	-0.414915	0.175060
H322	H	-0.131535	-0.358164	0.119545
H323	H	-0.088720	-0.402658	0.109606
H324	H	-0.089032	-0.376917	0.136013
H325	H	-0.149469	-0.423828	0.170602
H326	H	-0.149791	-0.398083	0.197010
O327	O	0.016410	-0.644911	0.162045
C328	C	0.023382	-0.691593	0.194669
H329	H	0.017779	-0.691494	0.230123
H330	H	-0.003079	-0.705799	0.199903
C331	C	0.081192	-0.723651	0.131797
C332	C	0.074315	-0.723530	0.175341
H333	H	0.112609	-0.743352	0.119874
H334	H	0.076494	-0.692200	0.109817
H335	H	0.059138	-0.735488	0.136165
H336	H	0.096364	-0.711687	0.170972
H337	H	0.079017	-0.754980	0.197320
H338	H	-0.018278	-0.669778	0.256062
H339	H	-0.091926	-0.522444	0.298262
H340	H	-0.098172	-0.765271	0.392919
H341	H	-0.061921	-0.492427	0.328433
H342	H	0.011557	-0.639751	0.402207
H343	H	-0.018458	-0.669769	0.372051
H344	H	0.017768	-0.675232	0.307405
H345	H	0.047765	-0.765423	0.337508
H346	H	-0.134345	-0.632833	0.408685
O347	O	-0.135779	-0.671183	0.363847
C348	C	-0.150915	-0.683325	0.341470
H349	H	-0.119137	-0.697032	0.312137
H350	H	-0.167599	-0.712149	0.368700
C351	C	-0.226867	-0.622302	0.355898
C352	C	-0.187838	-0.639133	0.319867
H353	H	-0.249645	-0.595044	0.342573
H354	H	-0.216671	-0.614122	0.370975
H355	H	-0.240764	-0.646326	0.378586
H356	H	-0.173938	-0.615112	0.297183
H357	H	-0.198033	-0.647308	0.304785
O358	O	-0.228431	-0.604633	0.446287
C359	C	-0.216319	-0.654425	0.466947
H360	H	-0.202614	-0.670457	0.438634
H361	H	-0.187505	-0.669176	0.482708
C362	C	-0.277355	-0.647539	0.541246
C363	C	-0.260527	-0.667230	0.506472
H364	H	-0.304624	-0.655438	0.565629
H365	H	-0.285515	-0.613993	0.527328
H366	H	-0.253340	-0.659833	0.554375
H367	H	-0.284540	-0.654931	0.493341
H368	H	-0.252373	-0.700774	0.520390
O369	O	-0.228125	-0.524553	0.286081
C370	C	-0.195471	-0.517565	0.239417
H371	H	-0.160049	-0.523156	0.239569
H372	H	-0.190173	-0.544028	0.225169
C373	C	-0.258312	-0.459766	0.207302
C374	C	-0.214808	-0.466629	0.207487
H375	H	-0.270241	-0.428347	0.187605
H376	H	-0.280313	-0.464475	0.238739
H377	H	-0.253892	-0.481822	0.195429
H378	H	-0.219230	-0.444578	0.219365
H379	H	-0.192808	-0.461915	0.176051
H380	H	-0.134111	-0.559208	0.261309
