data_functionalizedCrystal
_audit_creation_method	'MofGen! by Chris Wilmer'
_symmetry_space_group_name_H-M	'P1'
_symmetry_Int_Tables_number	1
_symmetry_cell_setting	triclinic
loop_
_symmetry_equiv_pos_as_xyz
  x,y,z
_cell_length_a	16.992694
_cell_length_b	14.971486
_cell_length_c	14.048226
_cell_angle_alpha	89.993360
_cell_angle_beta	89.999324
_cell_angle_gamma	87.141176
loop_
_atom_site_label
_atom_site_type_symbol
_atom_site_fract_x
_atom_site_fract_y
_atom_site_fract_z
O1	O	1.040571	0.189676	-0.079042
O2	O	0.812284	0.187595	-0.079070
O3	O	0.932546	0.058866	-0.079049
O4	O	0.920309	0.318406	-0.079064
O5	O	0.932532	0.058856	0.079273
O6	O	0.812269	0.187586	0.079251
O7	O	1.040557	0.189667	0.079279
Zn8	Zn	0.926411	0.188625	0.104402
Zn9	Zn	0.926430	0.188637	-0.104193
O10	O	0.920294	0.318397	0.079257
C11	C	0.931992	0.025498	0.000111
C12	C	0.930352	-0.073914	0.000110
C13	C	0.783062	0.184914	0.000087
C14	C	0.696010	0.176927	0.000076
C15	C	1.001003	-0.126176	0.000120
C16	C	0.999457	-0.219584	0.000110
C17	C	0.927260	-0.260729	0.000098
C18	C	0.856603	-0.208461	0.000086
C19	C	0.858150	-0.115054	0.000088
C20	C	0.853385	-0.403149	0.000082
C21	C	0.851838	-0.496562	0.000080
C22	C	0.994692	-0.507679	0.000103
C23	C	0.996239	-0.414272	0.000106
C24	C	0.925582	-0.362011	0.000096
C25	C	0.645842	0.253991	0.000073
C26	C	0.564048	0.246481	0.000086
C27	C	0.532424	0.161906	0.000097
C28	C	0.582599	0.084836	0.000103
C29	C	0.664391	0.092347	0.000096
C30	C	0.288797	0.130776	0.000124
C31	C	0.206999	0.123271	0.000128
C32	C	0.188454	0.284917	0.000112
C33	C	0.270248	0.292421	0.000100
C34	C	0.320416	0.215351	0.000112
N35	N	0.448818	0.154227	0.000107
N36	N	0.404020	0.223030	0.000108
C37	C	1.069779	0.192349	0.000120
C38	C	1.156831	0.200336	0.000124
C39	C	0.920849	0.351765	0.000095
C40	C	0.922489	0.451177	0.000090
N41	N	0.926403	0.188617	0.246763
N42	N	0.926443	0.188639	-0.246554
C43	C	0.979672	0.131642	0.296590
C44	C	0.979678	0.131641	0.396248
C45	C	0.926417	0.188622	0.446076
C46	C	0.873143	0.245600	0.396242
C47	C	0.873134	0.245594	0.296586
C48	C	0.873165	0.245608	0.603956
C49	C	0.873174	0.245614	0.703618
C50	C	0.979709	0.131655	0.703618
C51	C	0.979700	0.131650	0.603962
C52	C	0.926426	0.188629	0.554134
H53	H	1.059794	-0.092683	0.000136
H54	H	0.181255	0.054397	0.000135
H55	H	1.056988	-0.262131	0.000120
O56	O	0.821323	0.300854	0.751986
C57	C	0.743692	0.280706	0.727637
H58	H	0.743256	0.209062	0.700243
H59	H	0.704359	0.288138	0.793185
H60	H	0.720684	0.328626	0.669797
H61	H	1.023086	0.085260	0.744193
O62	O	0.784699	-0.352474	-0.000056
C63	C	0.740883	-0.371886	-0.082069
H64	H	0.760069	-0.441284	-0.109406
H65	H	0.675487	-0.369994	-0.063634
H66	H	0.751661	-0.320080	-0.139483
O67	O	1.066438	-0.374446	0.000080
C68	C	1.128470	-0.440601	0.000112
H69	H	1.106437	-0.505552	-0.029868
H70	H	1.178875	-0.417491	-0.045843
H71	H	1.150258	-0.452253	0.076070
O72	O	0.139641	0.359713	-0.000017
C73	C	0.091783	0.360224	-0.082021
H74	H	0.087580	0.288930	-0.109355
H75	H	0.030343	0.389150	-0.063575
H76	H	0.118726	0.403007	-0.139442
H77	H	1.023073	0.085257	0.563392
H78	H	0.829781	0.292003	0.563389
H79	H	0.829773	0.291991	0.436817
O80	O	0.337411	0.055822	0.000089
C81	C	0.291956	-0.020432	0.000121
H82	H	0.230934	-0.002087	-0.029855
H83	H	0.322072	-0.074790	-0.045838
H84	H	0.286107	-0.046082	0.076078
O85	O	1.031440	0.076206	0.248339
C86	C	1.078470	0.025934	0.313693
H87	H	1.046326	0.022609	0.384736
H88	H	1.090366	-0.044643	0.284912
H89	H	1.136745	0.059182	0.324278
O90	O	0.821361	0.301027	0.248327
C91	C	0.774341	0.351306	0.313674
H92	H	0.806496	0.354642	0.384707
H93	H	0.762438	0.421879	0.284868
H94	H	0.716068	0.318057	0.324288
O95	O	0.551752	0.002747	0.000073
C96	C	0.468802	0.012641	0.000099
H97	H	0.449659	0.081075	-0.029880
H98	H	0.443640	-0.041829	-0.045860
H99	H	0.446032	0.006676	0.076056
O100	O	0.713015	0.017396	0.000053
C101	C	0.667566	-0.058864	0.000085
H102	H	0.606542	-0.040523	-0.029886
H103	H	0.697684	-0.113218	-0.045878
H104	H	0.661723	-0.084517	0.076042
H105	H	1.023053	0.085247	0.436817
O106	O	0.781775	-0.536676	0.000105
C107	C	0.795566	-0.630325	0.000087
H108	H	0.856735	-0.647858	0.030076
H109	H	0.749357	-0.662281	0.046041
H110	H	0.791756	-0.656562	-0.075868
O111	O	0.786421	-0.248322	0.000197
C112	C	0.743345	-0.222140	0.082198
H113	H	0.764776	-0.155906	0.109540
H114	H	0.678059	-0.213851	0.063745
H115	H	0.752367	-0.275488	0.139615
H116	H	1.052223	-0.550235	0.000109
O117	O	0.789541	-0.064246	-0.000087
C118	C	0.786181	-0.009859	-0.082071
H119	H	0.826253	-0.041158	-0.139375
H120	H	0.723030	-0.003876	-0.109605
H121	H	0.806541	0.059436	-0.063530
H122	H	0.295990	0.361291	0.000080
H123	H	0.523204	0.309235	0.000082
O124	O	0.676427	0.336217	0.000103
C125	C	0.614604	0.402624	0.000081
H126	H	0.559021	0.373574	0.030061
H127	H	0.631750	0.461319	0.046040
H128	H	0.603049	0.426680	-0.075875
