data_functionalizedCrystal
_audit_creation_method	'MofGen! by Chris Wilmer'
_symmetry_space_group_name_H-M	'P1'
_symmetry_Int_Tables_number	1
_symmetry_cell_setting	triclinic
loop_
_symmetry_equiv_pos_as_xyz
  x,y,z
_cell_length_a	21.295420
_cell_length_b	21.295416
_cell_length_c	19.120904
_cell_angle_alpha	87.589183
_cell_angle_beta	92.422698
_cell_angle_gamma	89.971418
loop_
_atom_site_label
_atom_site_type_symbol
_atom_site_fract_x
_atom_site_fract_y
_atom_site_fract_z
Zn1	Zn	0.947123	0.265835	-0.397109
Zn2	Zn	1.447123	0.765835	0.102891
Zn3	Zn	0.951531	0.366614	-0.279658
Zn4	Zn	1.451531	0.866614	0.220342
Zn5	Zn	0.846351	0.261360	-0.279674
Zn6	Zn	1.346351	0.761360	0.220326
Zn7	Zn	0.841817	0.371066	-0.397066
Zn8	Zn	1.341817	0.871066	0.102934
O9	O	0.896706	0.316219	-0.338377
O10	O	1.396706	0.816219	0.161623
O11	O	1.035797	0.279214	-0.381540
O12	O	1.535797	0.779214	0.118460
O13	O	0.941321	0.348915	-0.181378
O14	O	1.441321	0.848915	0.318622
O15	O	0.859771	0.173865	-0.295277
O16	O	1.359771	0.673865	0.204723
O17	O	1.039035	0.353255	-0.295249
O18	O	1.539035	0.853255	0.204751
O19	O	0.933808	0.177153	-0.381556
O20	O	1.433808	0.677153	0.118444
O21	O	0.864045	0.271586	-0.181390
O22	O	1.364045	0.771586	0.318610
O23	O	0.757661	0.275903	-0.295235
O24	O	1.257661	0.775903	0.204765
O25	O	0.852044	0.360843	-0.495354
O26	O	1.352044	0.860843	0.004646
O27	O	0.754330	0.356503	-0.381482
O28	O	1.254330	0.856503	0.118518
O29	O	0.929412	0.283531	-0.495385
O30	O	1.429412	0.783531	0.004615
O31	O	0.936925	0.455293	-0.295207
O32	O	1.436925	0.955293	0.204793
O33	O	0.856319	0.458564	-0.381466
O34	O	1.356319	0.958564	0.118534
C35	C	0.733155	0.316201	-0.338356
C36	C	1.233155	0.816201	0.161644
C37	C	0.663186	0.316209	-0.338364
C38	C	1.163186	0.816209	0.161636
C39	C	0.162012	0.358260	-0.383242
C40	C	0.662012	0.858260	0.116758
C41	C	0.227755	0.358260	-0.383234
C42	C	0.727755	0.858260	0.116766
C43	C	0.262346	0.316234	-0.338399
C44	C	0.762346	0.816234	0.161601
C45	C	0.231189	0.274216	-0.293554
C46	C	0.731189	0.774216	0.206446
C47	C	0.165448	0.274221	-0.293558
C48	C	0.665448	0.774221	0.206442
N49	N	0.365789	0.260915	-0.333116
N50	N	0.865789	0.760915	0.166884
N51	N	0.428240	0.260912	-0.333116
N52	N	0.928240	0.760912	0.166884
C53	C	0.460421	0.316216	-0.338384
C54	C	0.960421	0.816216	0.161616
N55	N	0.427790	0.371524	-0.343664
N56	N	0.927790	0.871524	0.156336
N57	N	0.365333	0.371527	-0.343667
N58	N	0.865333	0.871527	0.156333
C59	C	0.333631	0.316223	-0.338389
C60	C	0.833631	0.816223	0.161611
C61	C	0.562856	0.358234	-0.383214
C62	C	1.062856	0.858234	0.116786
C63	C	0.628600	0.358235	-0.383201
C64	C	1.128600	0.858235	0.116799
C65	C	0.632033	0.274185	-0.293525
C66	C	1.132033	0.774185	0.206475
C67	C	0.566290	0.274190	-0.293534
C68	C	1.066290	0.774190	0.206466
C69	C	0.531705	0.316213	-0.338382
C70	C	1.031705	0.816213	0.161618
C71	C	0.896625	0.479769	-0.338346
C72	C	1.396625	0.979769	0.161654
C73	C	0.896647	0.549738	-0.338356
C74	C	1.396647	1.049738	0.161644
C75	C	0.938653	0.580882	-0.293488
C76	C	1.438653	1.080882	0.206512
C77	C	0.938681	0.646625	-0.293507
C78	C	1.438681	1.146625	0.206493
C79	C	0.896694	0.681221	-0.338386
C80	C	1.396694	1.181221	0.161614
C81	C	0.854685	0.650069	-0.383263
C82	C	1.354685	1.150069	0.116737
C83	C	0.854662	0.584327	-0.383247
C84	C	1.354662	1.084327	0.116753
N85	N	0.841422	0.784690	-0.343739
N86	N	1.341422	1.284690	0.156261
N87	N	0.841446	0.847142	-0.343749
N88	N	1.341446	1.347142	0.156251
C89	C	0.896763	0.879298	-0.338436
C90	C	1.396763	1.379298	0.161564
N91	N	0.952057	0.846642	-0.333099
N92	N	1.452057	1.346642	0.166901
N93	N	0.952032	0.784184	-0.333085
N94	N	1.452032	1.284184	0.166915
C95	C	0.896715	0.752507	-0.338408
C96	C	1.396715	1.252507	0.161592
C97	C	0.938804	0.981729	-0.293587
C98	C	1.438804	1.481729	0.206413
C99	C	0.938833	1.047473	-0.293611
C100	C	1.438833	1.547473	0.206389
C101	C	0.854832	1.050916	-0.383362
C102	C	1.354832	1.550916	0.116638
C103	C	0.854807	0.985173	-0.383342
C104	C	1.354807	1.485173	0.116658
C105	C	0.896793	0.950583	-0.338451
C106	C	1.396793	1.450583	0.161549
C107	C	1.060895	0.316237	-0.338397
C108	C	1.560895	0.816237	0.161603
C109	C	1.130863	0.316245	-0.338406
C110	C	1.630863	0.816245	0.161594
C111	C	0.896804	1.152031	-0.338435
C112	C	1.396804	1.652031	0.161565
C113	C	0.896846	1.082065	-0.338491
C114	C	1.396846	1.582065	0.161509
C115	C	0.889731	0.323183	-0.521565
C116	C	1.389731	0.823183	-0.021565
C117	C	0.886758	0.326150	-0.599630
C118	C	1.386758	0.826150	-0.099630
C119	C	0.925641	0.287294	-0.636322
C120	C	1.425641	0.787294	-0.136322
C121	C	0.922840	0.290080	-0.709672
C122	C	1.422840	0.790080	-0.209672
C123	C	0.881160	0.331726	-0.746327
C124	C	1.381160	0.831726	-0.246327
C125	C	0.842273	0.370584	-0.709630
C126	C	1.342273	0.870584	-0.209630
C127	C	0.845071	0.367794	-0.636282
C128	C	1.345071	0.867794	-0.136282
C129	C	0.870695	0.342160	-0.967791
C130	C	1.370695	0.842160	-0.467791
C131	C	0.867901	0.344948	-1.041144
C132	C	1.367901	0.844948	-0.541144
C133	C	0.948468	0.264443	-1.041181
C134	C	1.448468	0.764443	-0.541181
C135	C	0.951265	0.261659	-0.967831
C136	C	1.451265	0.761659	-0.467831
C137	C	0.912376	0.300515	-0.931140
C138	C	1.412376	0.800515	-0.431140
C139	C	0.878298	0.334576	-0.821303
C140	C	1.378298	0.834576	-0.321303
C141	C	0.915235	0.297661	-0.856166
C142	C	1.415235	0.797661	-0.356166
C143	C	0.903690	0.309236	-0.155900
C144	C	1.403690	0.809236	0.344100
C145	C	0.906784	0.306091	-0.077837
C146	C	1.406784	0.806091	0.422163
H147	H	0.653960	0.392453	-0.419710
H148	H	1.153960	0.892453	0.080290
H149	H	0.820455	0.558969	-0.419785
H150	H	1.320455	1.058969	0.080215
H151	H	0.540928	0.239975	-0.257026
H152	H	1.040928	0.739975	0.242974
H153	H	0.972841	0.552721	-0.256937
H154	H	1.472841	1.052721	0.243063
O155	O	0.955739	0.257153	-0.820671
O156	O	1.455739	0.757153	-0.320671
C157	C	1.035388	0.177629	-0.828439
C158	C	1.535388	0.677629	-0.328439
C159	C	0.989534	0.223462	-0.868732
C160	C	1.489534	0.723462	-0.368732
H161	H	1.062733	0.150387	-0.867279
H162	H	1.562733	0.650387	-0.367279
H163	H	1.007846	0.143363	-0.794122
H164	H	1.507846	0.643363	-0.294122
H165	H	1.069563	0.205242	-0.794077
H166	H	1.569563	0.705242	-0.294077
H167	H	0.955348	0.195901	-0.903132
H168	H	1.455348	0.695901	-0.403132
H169	H	1.017116	0.257729	-0.903005
H170	H	1.517116	0.757729	-0.403005
H171	H	0.820600	0.959813	-0.419874
H172	H	1.320600	1.459813	0.080126
O173	O	0.979648	0.948220	-0.249962
O174	O	1.479648	1.448220	0.250038
C175	C	1.062939	0.951741	-0.160910
C176	C	1.562939	1.451741	0.339090
C177	C	1.016727	0.989764	-0.210292
C178	C	1.516727	1.489764	0.289708
H179	H	1.092920	0.985313	-0.128814
H180	H	1.592920	1.485313	0.371186
H181	H	1.094633	0.922159	-0.193144
H182	H	1.594633	1.422159	0.306856
H183	H	1.035438	0.919594	-0.124179
H184	H	1.535438	1.419594	0.375821
H185	H	1.044177	1.021946	-0.247034
H186	H	1.544177	1.521946	0.252966
H187	H	0.985033	1.019305	-0.178015
H188	H	1.485033	1.519305	0.321985
O189	O	0.979508	0.676788	-0.249852
O190	O	1.479508	1.176788	0.250148
C191	C	1.062837	0.666441	-0.160848
C192	C	1.562837	1.166441	0.339152
C193	C	1.016627	0.632205	-0.210240
C194	C	1.516627	1.132205	0.289760
H195	H	1.092870	0.630411	-0.128820
H196	H	1.592870	1.130411	0.371180
H197	H	1.035399	0.695842	-0.124059
H198	H	1.535399	1.195842	0.375941
H199	H	1.094485	0.698425	-0.193141
H200	H	1.594485	1.198425	0.306859
H201	H	0.984969	0.600189	-0.178004
H202	H	1.484969	1.100189	0.321996
H203	H	1.044105	0.602843	-0.247031
H204	H	1.544105	1.102843	0.252969
H205	H	0.813402	0.399429	-0.606408
H206	H	1.313402	0.899429	-0.106408
O207	O	0.979754	1.077733	-0.250157
O208	O	1.479754	1.577733	0.249843
C209	C	1.065194	1.151471	-0.240913
C210	C	1.565194	1.651471	0.259087
C211	C	1.018865	1.117249	-0.290185
C212	C	1.518865	1.617249	0.209815
H213	H	1.096819	1.183437	-0.273255
H214	H	1.596819	1.683437	0.226745
H215	H	1.095237	1.115450	-0.208881
H216	H	1.595237	1.615450	0.291119
H217	H	1.037790	1.180893	-0.204116
H218	H	1.537790	1.680893	0.295884
H219	H	1.046220	1.087827	-0.327024
H220	H	1.546220	1.587827	0.172976
H221	H	0.988823	1.153302	-0.322168
H222	H	1.488823	1.653302	0.177832
H223	H	0.820647	1.079083	-0.419907
H224	H	1.320647	1.579083	0.080093
H225	H	0.820500	0.678242	-0.419805
H226	H	1.320500	1.178242	0.080195
H227	H	0.660196	0.239969	-0.257016
H228	H	1.160196	0.739969	0.242984
H229	H	0.259357	0.239999	-0.257048
H230	H	0.759357	0.739999	0.242952
O231	O	0.966146	0.246783	-0.600826
O232	O	1.466146	0.746783	-0.100826
C233	C	1.045785	0.167252	-0.608612
C234	C	1.545785	0.667252	-0.108612
C235	C	0.999932	0.213094	-0.648896
C236	C	1.499932	0.713094	-0.148896
H237	H	1.073122	0.140011	-0.647459
H238	H	1.573122	0.640011	-0.147459
H239	H	1.018243	0.132986	-0.574296
H240	H	1.518243	0.632986	-0.074296
H241	H	1.079967	0.194859	-0.574252
H242	H	1.579967	0.694859	-0.074252
H243	H	0.965739	0.185539	-0.683294
H244	H	1.465739	0.685539	-0.183294
H245	H	1.027514	0.247359	-0.683168
H246	H	1.527514	0.747359	-0.183168
H247	H	0.954504	0.258441	-0.739543
H248	H	1.454504	0.758441	-0.239543
O249	O	0.991767	0.221147	-0.932334
O250	O	1.491767	0.721147	-0.432334
C251	C	1.071409	0.141618	-0.940114
C252	C	1.571409	0.641618	-0.440114
C253	C	1.025556	0.187456	-0.980401
C254	C	1.525556	0.687456	-0.480401
H255	H	1.098749	0.114376	-0.978958
H256	H	1.598749	0.614376	-0.478958
H257	H	1.043868	0.107352	-0.905796
H258	H	1.543868	0.607352	-0.405796
H259	H	1.105589	0.169227	-0.905753
H260	H	1.605589	0.669227	-0.405753
H261	H	0.991366	0.159899	-1.014799
H262	H	1.491366	0.659899	-0.514799
H263	H	1.053138	0.221722	-1.014674
H264	H	1.553138	0.721722	-0.514674
O265	O	0.827354	0.385420	-1.076645
O266	O	1.327354	0.885420	-0.576645
C267	C	0.747762	0.465001	-1.068873
C268	C	1.247762	0.965001	-0.568873
C269	C	0.793637	0.419186	-1.028581
C270	C	1.293637	0.919186	-0.528581
H271	H	0.720499	0.492322	-1.030031
H272	H	1.220499	0.992322	-0.530031
H273	H	0.713518	0.437430	-1.103199
H274	H	1.213518	0.937430	-0.603199
H275	H	0.775345	0.499199	-1.103224
H276	H	1.275345	0.999199	-0.603224
H277	H	0.766106	0.384977	-0.994192
H278	H	1.266106	0.884977	-0.494192
H279	H	0.827882	0.446797	-0.994299
H280	H	1.327882	0.946797	-0.494299
O281	O	0.833009	0.379935	-0.932085
O282	O	1.333009	0.879935	-0.432085
C283	C	0.827627	0.461810	-0.849294
C284	C	1.327627	0.961810	-0.349294
C285	C	0.870384	0.419054	-0.889673
C286	C	1.370384	0.919054	-0.389673
H287	H	0.857828	0.493457	-0.815005
H288	H	1.357828	0.993457	-0.315005
H289	H	0.796045	0.431636	-0.814912
H290	H	1.296045	0.931636	-0.314912
H291	H	0.797349	0.492022	-0.888116
H292	H	1.297349	0.992022	-0.388116
H293	H	0.900701	0.388834	-0.850901
H294	H	1.400701	0.888834	-0.350901
H295	H	0.901924	0.449265	-0.924065
H296	H	1.401924	0.949265	-0.424065
O297	O	0.801873	0.411106	-0.745268
O298	O	1.301873	0.911106	-0.245268
C299	C	0.790192	0.499219	-0.828084
C300	C	1.290192	0.999219	-0.328084
C301	C	0.836015	0.453376	-0.787758
C302	C	1.336015	0.953376	-0.287758
H303	H	0.817777	0.533396	-0.862459
H304	H	1.317777	1.033396	-0.362459
H305	H	0.762890	0.526558	-0.789290
H306	H	1.262890	1.026558	-0.289290
H307	H	0.755975	0.471605	-0.862396
H308	H	1.255975	0.971605	-0.362396
H309	H	0.870270	0.480941	-0.753446
H310	H	1.370270	0.980941	-0.253446
H311	H	0.863272	0.426036	-0.826590
H312	H	1.363272	0.926036	-0.326590
H313	H	0.133857	0.392481	-0.419758
H314	H	0.633857	0.892481	0.080242
H315	H	0.253121	0.392473	-0.419747
H316	H	0.753121	0.892473	0.080253
H317	H	0.140087	0.240006	-0.257047
H318	H	0.640087	0.740006	0.242953
H319	H	0.980129	0.232808	-1.071063
H320	H	1.480129	0.732808	-0.571063
H321	H	0.534695	0.392453	-0.419731
H322	H	1.034695	0.892453	0.080269
H323	H	0.844365	0.368487	-0.851156
H324	H	1.344365	0.868487	-0.351156
