data_functionalizedCrystal
_audit_creation_method	'MofGen! by Chris Wilmer'
_symmetry_space_group_name_H-M	'P1'
_symmetry_Int_Tables_number	1
_symmetry_cell_setting	triclinic
loop_
_symmetry_equiv_pos_as_xyz
  x,y,z
_cell_length_a	12.759401
_cell_length_b	16.120484
_cell_length_c	12.759401
_cell_angle_alpha	87.114147
_cell_angle_beta	90.006940
_cell_angle_gamma	92.926992
loop_
_atom_site_label
_atom_site_type_symbol
_atom_site_fract_x
_atom_site_fract_y
_atom_site_fract_z
Zn1	Zn	1.584822	-0.332025	0.615194
Zn2	Zn	1.575814	-0.471408	0.448404
Zn3	Zn	1.409164	-0.332014	0.439529
Zn4	Zn	1.400171	-0.471405	0.624041
O5	O	1.492493	-0.401713	0.531792
O6	O	1.730648	-0.350520	0.593081
O7	O	1.553702	-0.452914	0.300205
O8	O	1.439999	-0.215348	0.455415
O9	O	1.724030	-0.452924	0.470541
O10	O	1.569054	-0.215355	0.584476
O11	O	1.431265	-0.350502	0.293685
O12	O	1.260951	-0.350499	0.463993
O13	O	1.424672	-0.452919	0.769888
O14	O	1.254343	-0.452908	0.599553
O15	O	1.560334	-0.350517	0.763389
O16	O	1.544982	-0.588075	0.479119
O17	O	1.415937	-0.588073	0.608158
C18	C	1.219526	-0.401703	0.531771
C19	C	1.102749	-0.401718	0.531788
C20	C	1.044469	-0.455124	0.602273
C21	C	0.934744	-0.455127	0.602294
C22	C	0.941590	-0.348317	0.461335
C23	C	1.051312	-0.348310	0.461320
C24	C	0.782896	-0.485081	0.728065
C25	C	0.724612	-0.538500	0.798542
C26	C	0.754986	-0.619868	0.819679
C27	C	0.843642	-0.647834	0.770325
C28	C	0.901920	-0.594419	0.699840
C29	C	0.871549	-0.513040	0.678722
C30	C	1.203161	-0.318364	0.335548
C31	C	1.261442	-0.264953	0.265058
C32	C	1.231070	-0.183584	0.243910
C33	C	1.142411	-0.155622	0.293246
C34	C	1.084130	-0.209032	0.363736
C35	C	1.114510	-0.290401	0.384886
C36	C	1.478535	-0.618325	0.545584
C37	C	1.472660	-0.710992	0.551520
C38	C	1.461939	-0.880657	0.562378
C39	C	1.523235	-0.921928	0.501223
C40	C	1.517270	-1.016336	0.507265
C41	C	1.467903	-0.786241	0.556338
C42	C	1.766525	-0.401724	0.531814
C43	C	1.883302	-0.401728	0.531824
C44	C	1.492504	-0.401718	0.805826
C45	C	1.492509	-0.401721	0.922602
C46	C	1.506534	-0.184255	0.517969
C47	C	1.512518	-0.091588	0.512078
C48	C	1.563139	-0.348409	0.974082
C49	C	1.563130	-0.348407	1.083806
C50	C	1.421857	-0.455037	1.090561
C51	C	1.421862	-0.455034	0.980839
C52	C	1.607013	-0.250089	1.227514
C53	C	1.677659	-0.196785	1.278998
C54	C	1.781001	-0.183989	1.242591
C55	C	1.813717	-0.224510	1.154702
C56	C	1.743077	-0.277821	1.103224
C57	C	1.639721	-0.290601	1.139629
C58	C	1.377990	-0.553353	0.837129
C59	C	1.307354	-0.606669	0.785649
C60	C	1.204009	-0.619473	0.822055
C61	C	1.171296	-0.578966	0.909949
C62	C	1.241932	-0.525650	0.961428
C63	C	1.345276	-0.512845	0.925015
C64	C	1.492480	-0.401726	1.258825
C65	C	1.492495	-0.401723	1.142049
H66	H	0.974102	-0.617189	0.659656
H67	H	1.580191	-0.886360	0.444328
O68	O	1.094394	-0.506908	0.670875
C69	C	1.068752	-0.488831	0.774474
H70	H	1.042881	-0.422235	0.775676
H71	H	1.140456	-0.496072	0.826817
H72	H	1.002188	-0.533566	0.804702
H73	H	1.404986	-0.916223	0.619268
O74	O	1.631856	-0.296735	0.917469
C75	C	1.696637	-0.344196	0.857006
H76	H	1.698893	-0.409860	0.894244
H77	H	1.779435	-0.314040	0.853856
H78	H	1.663969	-0.347065	0.774027
H79	H	1.769715	-0.310816	1.031669
O80	O	1.353340	-0.506799	1.147295
C81	C	1.368463	-0.495358	1.255178
H82	H	1.451306	-0.468060	1.268442
H83	H	1.357300	-0.557808	1.300845
H84	H	1.309013	-0.450957	1.283484
O85	O	0.998068	-0.181931	0.411838
C86	C	1.012526	-0.187094	0.521482
H87	H	1.072715	-0.235074	0.542480
H88	H	0.934725	-0.206567	0.561717
H89	H	1.041828	-0.123819	0.548910
O90	O	1.914136	-0.211965	1.119453
C91	C	1.969477	-0.156240	1.183751
H92	H	1.911586	-0.116908	1.224534
H93	H	2.025861	-0.113951	1.133489
H94	H	2.015734	-0.192799	1.245220
O95	O	1.849487	-0.132166	1.292707
C96	C	1.798465	-0.099175	1.378108
H97	H	1.710163	-0.101890	1.363972
H98	H	1.827697	-0.031793	1.386210
H99	H	1.816277	-0.137161	1.453199
H100	H	0.899697	-0.304835	0.403961
H101	H	1.651012	-0.163792	1.350558
O102	O	1.112729	-0.076615	0.272792
C103	C	1.021995	-0.063382	0.331473
H104	H	0.978992	-0.125684	0.352719
H105	H	0.968218	-0.022298	0.282828
H106	H	1.045402	-0.031465	0.406321
O107	O	1.347464	-0.292110	0.216942
C108	C	1.333000	-0.286897	0.107300
H109	H	1.245509	-0.287671	0.089017
H110	H	1.368948	-0.342159	0.071174
H111	H	1.372846	-0.226647	0.073049
H112	H	1.522862	-0.260496	1.257160
H113	H	1.215289	-0.492668	1.032996
H114	H	0.868358	-0.714095	0.787532
O115	O	1.070856	-0.591465	0.945156
C116	C	1.015533	-0.647223	0.880888
H117	H	1.055274	-0.646268	0.800791
H118	H	0.931322	-0.627758	0.870881
H119	H	1.015264	-0.712727	0.919021
H120	H	1.146500	-0.662894	0.780136
H121	H	1.334001	-0.639659	0.714089
O122	O	1.287540	-0.131715	0.175299
C123	C	1.222631	-0.106306	0.091475
H124	H	1.153947	-0.153735	0.084302
H125	H	1.269897	-0.101656	0.015405
H126	H	1.191564	-0.042983	0.106935
H127	H	0.707523	-0.663362	0.877064
H128	H	1.227905	-0.384620	0.352771
H129	H	0.758165	-0.418823	0.710871
O130	O	1.478433	-0.541060	0.801856
C131	C	1.527364	-0.617614	0.805231
H132	H	1.485463	-0.662662	0.865006
H133	H	1.612999	-0.607336	0.828974
H134	H	1.523197	-0.644747	0.724443
O135	O	0.638566	-0.511389	0.846663
C136	C	0.653037	-0.516573	0.956305
H137	H	0.713214	-0.564567	0.977283
H138	H	0.575236	-0.536038	0.996545
H139	H	0.682361	-0.453307	0.983746
