data_functionalizedCrystal
_audit_creation_method	'MofGen! by Chris Wilmer'
_symmetry_space_group_name_H-M	'P1'
_symmetry_Int_Tables_number	1
_symmetry_cell_setting	triclinic
loop_
_symmetry_equiv_pos_as_xyz
  x,y,z
_cell_length_a	14.519709
_cell_length_b	9.065218
_cell_length_c	8.140239
_cell_angle_alpha	89.996984
_cell_angle_beta	89.995169
_cell_angle_gamma	95.651985
loop_
_atom_site_label
_atom_site_type_symbol
_atom_site_fract_x
_atom_site_fract_y
_atom_site_fract_z
O1	O	1.225278	-0.193395	0.136393
O2	O	1.558612	0.139938	0.469726
O3	O	1.891945	0.473271	0.803059
O4	O	0.956968	-0.216170	0.136442
O5	O	1.290302	0.117163	0.469775
O6	O	1.623635	0.450497	0.803109
O7	O	1.096669	0.009964	0.136413
O8	O	1.430003	0.343297	0.469746
O9	O	1.763336	0.676630	0.803080
O10	O	1.085578	-0.419529	0.136422
O11	O	1.418911	-0.086196	0.469755
O12	O	1.752244	0.247138	0.803088
O13	O	1.096667	0.009973	-0.136814
O14	O	1.430000	0.343306	0.196519
O15	O	1.763334	0.676639	0.529852
O16	O	0.956966	-0.216161	-0.136785
O17	O	1.290299	0.117172	0.196548
O18	O	1.623633	0.450506	0.529882
O19	O	1.225276	-0.193386	-0.136835
O20	O	1.558610	0.139947	0.196499
O21	O	1.891943	0.473281	0.529832
Zn22	Zn	1.091121	-0.204772	-0.180191
Zn23	Zn	1.424454	0.128561	0.153143
Zn24	Zn	1.757788	0.461895	0.486476
Zn25	Zn	1.091124	-0.204784	0.179798
Zn26	Zn	1.424457	0.128549	0.513131
Zn27	Zn	1.757790	0.461883	0.846465
O28	O	1.085575	-0.419520	-0.136806
O29	O	1.418909	-0.086187	0.196528
O30	O	1.752242	0.247147	0.529861
C31	C	0.922600	-0.215104	-0.000165
C32	C	1.255933	0.118229	0.333168
C33	C	1.589266	0.451563	0.666501
C34	C	0.820195	-0.211923	-0.000146
C35	C	1.153528	0.121410	0.333187
C36	C	1.486862	0.454743	0.666520
N37	N	1.091126	-0.204763	-0.425873
N38	N	1.424459	0.128570	-0.092540
N39	N	1.757792	0.461904	0.240794
C40	C	1.095602	0.064935	-0.000198
C41	C	1.428936	0.398268	0.333135
C42	C	1.762269	0.731602	0.666469
C43	C	1.092415	0.228718	-0.000189
C44	C	1.425748	0.562051	0.333144
C45	C	1.759082	0.895385	0.666477
C46	C	0.445214	-0.200214	-0.000221
C47	C	0.778547	0.133119	0.333112
C48	C	1.111880	0.466452	0.666445
C49	C	0.549545	-0.203466	-0.000200
C50	C	0.882879	0.129868	0.333134
C51	C	1.216212	0.463201	0.666467
C52	C	0.632701	-0.206068	-0.000182
C53	C	0.966034	0.127265	0.333151
C54	C	1.299368	0.460598	0.666485
C55	C	0.737039	-0.209321	-0.000164
C56	C	1.070373	0.124013	0.333169
C57	C	1.403706	0.457346	0.666503
C58	C	1.259645	-0.194452	-0.000224
C59	C	1.592978	0.138881	0.333110
C60	C	1.926312	0.472214	0.666443
C61	C	1.362049	-0.197633	-0.000232
C62	C	1.695383	0.135701	0.333101
C63	C	2.028716	0.469034	0.666435
C64	C	1.086642	-0.474491	-0.000191
C65	C	1.419976	-0.141158	0.333142
C66	C	1.753309	0.192176	0.666475
C67	C	1.089830	-0.638274	-0.000189
C68	C	1.423163	-0.304941	0.333144
C69	C	1.756496	0.028392	0.666478
N70	N	1.091126	-0.204782	0.425480
N71	N	1.424460	0.128552	0.758814
N72	N	1.757793	0.461885	1.092147
