data_functionalizedCrystal
_audit_creation_method	'MofGen! by Chris Wilmer'
_symmetry_space_group_name_H-M	'P1'
_symmetry_Int_Tables_number	1
_symmetry_cell_setting	triclinic
loop_
_symmetry_equiv_pos_as_xyz
  x,y,z
_cell_length_a	12.594517
_cell_length_b	12.594516
_cell_length_c	16.625539
_cell_angle_alpha	89.976325
_cell_angle_beta	90.020900
_cell_angle_gamma	89.973469
loop_
_atom_site_label
_atom_site_type_symbol
_atom_site_fract_x
_atom_site_fract_y
_atom_site_fract_z
Zn1	Zn	1.627183	0.423746	0.455942
Zn2	Zn	2.127183	0.923746	0.955942
Zn3	Zn	1.627042	0.601747	0.321121
Zn4	Zn	2.127042	1.101747	0.821121
Zn5	Zn	1.449189	0.423783	0.321122
Zn6	Zn	1.949189	0.923783	0.821122
Zn7	Zn	1.449136	0.601682	0.455910
Zn8	Zn	1.949136	1.101682	0.955910
O9	O	1.538138	0.512739	0.388524
O10	O	2.038138	1.012739	0.888524
O11	O	1.776111	0.447370	0.438071
O12	O	2.276111	0.947370	0.938071
O13	O	1.603413	0.578182	0.208288
O14	O	2.103413	1.078182	0.708288
O15	O	1.472881	0.274832	0.339021
O16	O	1.972881	0.774832	0.839021
O17	O	1.776007	0.578147	0.339018
O18	O	2.276007	1.078147	0.839018
O19	O	1.603653	0.274805	0.438073
O20	O	2.103653	0.774805	0.938073
O21	O	1.472744	0.447432	0.208289
O22	O	1.972744	0.947432	0.708289
O23	O	1.300236	0.447369	0.338989
O24	O	1.800236	0.947369	0.838989
O25	O	1.472792	0.578036	0.568746
O26	O	1.972792	1.078036	1.068746
O27	O	1.300198	0.578072	0.438017
O28	O	1.800198	1.078072	0.938017
O29	O	1.603602	0.447307	0.568770
O30	O	2.103602	0.947307	1.068770
O31	O	1.603362	0.750684	0.338986
O32	O	2.103362	1.250684	0.838986
O33	O	1.472655	0.750637	0.438015
O34	O	1.972655	1.250637	0.938015
C35	C	1.261597	0.512718	0.388500
C36	C	1.761597	1.012718	0.888500
C37	C	1.143291	0.512735	0.388509
C38	C	1.643291	1.012735	0.888509
C39	C	1.074028	0.441549	0.334750
C40	C	1.574028	0.941549	0.834750
C41	C	1.003199	0.538636	0.314920
C42	C	1.503199	1.038636	0.814920
C43	C	1.003321	0.415695	0.408353
C44	C	1.503321	0.915695	0.908353
C45	C	1.074021	0.609873	0.368640
C46	C	1.574021	1.109873	0.868640
C47	C	1.074149	0.486866	0.462107
C48	C	1.574149	0.986866	0.962107
C49	C	1.003352	0.584021	0.442305
C50	C	1.503352	1.084021	0.942305
C51	C	1.538016	0.789280	0.388514
C52	C	2.038016	1.289280	0.888514
C53	C	1.538062	0.907586	0.388538
C54	C	2.038062	1.407586	0.888538
C55	C	1.466951	0.976852	0.442361
C56	C	1.966951	1.476852	0.942361
C57	C	1.441005	1.047712	0.368786
C58	C	1.941005	1.547712	0.868786
C59	C	1.564066	1.047524	0.462124
C60	C	2.064066	1.547524	0.962124
C61	C	1.512065	0.976888	0.314924
C62	C	2.012065	1.476888	0.814924
C63	C	1.635171	0.976694	0.408311
C64	C	2.135171	1.476694	0.908311
C65	C	1.609262	1.047523	0.334685
C66	C	2.109262	1.547523	0.834685
C67	C	1.815759	0.512762	0.388548
C68	C	2.315759	1.012762	0.888548
C69	C	1.934064	0.512771	0.388558
C70	C	2.434064	1.012771	0.888558
C71	C	1.538207	0.512660	0.598833
C72	C	2.038207	1.012660	1.098833
C73	C	1.538236	0.512626	0.688454
C74	C	2.038236	1.012626	1.188454
C75	C	1.538242	1.235119	0.388549
C76	C	2.038242	1.735119	0.888549
C77	C	1.538166	1.116813	0.388557
C78	C	2.038166	1.616813	0.888557
C79	C	1.538130	0.512742	0.179033
C80	C	2.038130	1.012742	0.679033
C81	C	1.538307	0.512476	0.089412
C82	C	2.038307	1.012476	0.589412
C83	C	1.538286	0.512507	1.016630
C84	C	2.038286	1.012507	1.516630
C85	C	1.538269	0.512544	0.925321
C86	C	2.038269	1.012544	1.425321
C87	C	1.538262	0.512568	0.852545
C88	C	2.038262	1.012568	1.352545
C89	C	1.538244	0.512603	0.761230
C90	C	2.038244	1.012603	1.261230
H91	H	0.972037	0.560539	0.252701
H92	H	1.472037	1.060539	0.752701
H93	H	0.972515	0.644305	0.487788
H94	H	1.472515	1.144305	0.987788
H95	H	1.490018	0.945988	0.252683
H96	H	1.990018	1.445988	0.752683
Br97	Br	0.951546	0.278893	0.436291
Br98	Br	1.451546	0.778893	0.936291
H99	H	1.669443	1.078358	0.289124
H100	H	2.169443	1.578358	0.789124
H101	H	1.358932	1.078930	0.352078
H102	H	1.858932	1.578930	0.852078
H103	H	1.406723	0.945820	0.487812
H104	H	1.906723	1.445820	0.987812
Br105	Br	1.771937	0.924663	0.436217
Br106	Br	2.271937	1.424663	0.936217
H107	H	1.105061	0.381408	0.289233
H108	H	1.605061	0.881408	0.789233
Br109	Br	1.125558	0.746721	0.340581
Br110	Br	1.625558	1.246721	0.840581
H111	H	1.105337	0.464934	0.524308
H112	H	1.605337	0.964934	1.024308
Br113	Br	1.600652	1.099249	0.565831
Br114	Br	2.100652	1.599249	1.065831
