data_functionalizedCrystal
_audit_creation_method	'MofGen! by Chris Wilmer'
_symmetry_space_group_name_H-M	'P1'
_symmetry_Int_Tables_number	1
_symmetry_cell_setting	triclinic
loop_
_symmetry_equiv_pos_as_xyz
  x,y,z
_cell_length_a	14.853554
_cell_length_b	10.723023
_cell_length_c	9.198806
_cell_angle_alpha	89.996191
_cell_angle_beta	90.002577
_cell_angle_gamma	95.951501
loop_
_atom_site_label
_atom_site_type_symbol
_atom_site_fract_x
_atom_site_fract_y
_atom_site_fract_z
O1	O	-0.126443	1.655901	-0.120886
O2	O	-0.138547	1.292625	-0.120890
O3	O	-0.001315	1.483975	-0.120881
O4	O	-0.263674	1.464551	-0.120896
O5	O	-0.001315	1.483960	0.120904
O6	O	-0.138546	1.292610	0.120895
O7	O	-0.126442	1.655886	0.120899
Cu8	Cu	-0.132494	1.474246	0.142974
Cu9	Cu	-0.132495	1.474264	-0.142965
O10	O	-0.263674	1.464535	0.120889
C11	C	-0.137666	1.246127	0.000002
C12	C	-0.135031	1.107599	0.000001
C13	C	-0.133856	1.045848	-0.125252
C14	C	-0.131133	0.902672	-0.125256
C15	C	-0.297267	1.465420	-0.000005
C16	C	-0.397366	1.468049	-0.000011
C17	C	-0.820603	1.479230	-0.131797
C18	C	-0.820588	1.479213	0.131806
C19	C	-0.726542	1.476728	0.131805
C20	C	-0.679522	1.475496	0.000001
C21	C	-0.726548	1.476749	-0.131803
C22	C	-0.679508	1.475488	0.263606
C23	C	-0.585456	1.473005	0.263610
C24	C	-0.538435	1.471764	0.131804
C25	C	-0.585467	1.473015	-0.000005
C26	C	-0.538447	1.471782	-0.131809
C27	C	-0.585478	1.473025	-0.263619
C28	C	-0.679527	1.475507	-0.263609
C29	C	-0.444386	1.469281	0.131793
C30	C	-0.444392	1.469301	-0.131814
C31	C	0.032278	1.483091	0.000011
C32	C	0.132377	1.480462	0.000007
C33	C	-0.127323	1.702384	0.000003
C34	C	-0.129958	1.840911	-0.000005
N35	N	-0.132493	1.474243	0.344088
N36	N	-0.132489	1.474278	-0.344079
C37	C	-0.074620	1.554588	0.416289
C38	C	-0.074617	1.554607	0.583701
H39	H	-0.130120	0.849568	-0.232489
H40	H	-0.130964	0.894009	0.107234
H41	H	-0.134025	1.054470	0.107231
H42	H	-0.858877	1.480226	0.239115
H43	H	-0.025072	1.623399	0.645791
O44	O	-0.198119	1.383153	0.573680
H45	H	-0.268473	1.399421	0.602785
O46	O	-0.730251	1.476849	-0.405766
H47	H	-0.765577	1.562970	-0.412072
H48	H	-0.406115	1.468288	-0.239147
O49	O	-0.534763	1.471690	-0.405780
H50	H	-0.461464	1.469751	-0.383629
H51	H	-0.025070	1.623357	0.354166
O52	O	-0.198140	1.383148	0.426350
H53	H	-0.159893	1.322336	0.495726
H54	H	-0.717798	1.476502	0.370913
H55	H	-0.547171	1.471993	0.370937
O56	O	-0.871320	1.480569	-0.273962
H57	H	-0.944618	1.482505	-0.251825
O58	O	-0.393656	1.467938	0.273939
H59	H	-0.442153	1.469208	0.365590
H60	H	-0.134872	1.098976	-0.232481
