data_functionalizedCrystal
_audit_creation_method	'MofGen! by Chris Wilmer'
_symmetry_space_group_name_H-M	'P1'
_symmetry_Int_Tables_number	1
_symmetry_cell_setting	triclinic
loop_
_symmetry_equiv_pos_as_xyz
  x,y,z
_cell_length_a	6.817900
_cell_length_b	11.452831
_cell_length_c	10.773894
_cell_angle_alpha	83.899974
_cell_angle_beta	96.645922
_cell_angle_gamma	108.696887
loop_
_atom_site_label
_atom_site_type_symbol
_atom_site_fract_x
_atom_site_fract_y
_atom_site_fract_z
V1	V	-3.967650	-0.164839	-0.353163
V2	V	-3.467650	0.335161	0.146837
O3	O	-3.936515	0.012549	-0.384264
O4	O	-3.436515	0.512549	0.115736
O5	O	-3.938588	-0.331299	-0.314370
O6	O	-3.438588	0.168701	0.185630
O7	O	-3.884792	-0.160273	-0.523786
O8	O	-3.384792	0.339727	-0.023786
O9	O	-3.990683	-0.159661	-0.173398
O10	O	-3.490683	0.340339	0.326602
V11	V	-4.453237	-0.143861	-0.336081
V12	V	-3.953237	0.356139	0.163919
O13	O	-4.224380	-0.210855	-0.390634
O14	O	-3.724380	0.289145	0.109366
O15	O	-4.646703	-0.097845	-0.298610
O16	O	-4.146703	0.402155	0.201390
O17	O	-4.259092	0.022599	-0.374874
O18	O	-3.759092	0.522599	0.125126
O19	O	-4.601768	-0.321249	-0.304980
O20	O	-4.101768	0.178751	0.195020
O21	O	-4.547600	-0.149039	-0.515846
O22	O	-4.047600	0.350961	-0.015846
O23	O	-4.312888	-0.148428	-0.165458
O24	O	-3.812888	0.351572	0.334542
C25	C	-3.789408	-0.371942	-0.299412
C26	C	-3.289408	0.128058	0.200588
C27	C	-3.846704	-0.508012	-0.268831
C28	C	-3.346704	-0.008012	0.231169
C29	C	-3.949740	-0.724671	-0.328823
C30	C	-3.449740	-0.224671	0.171177
C31	C	-3.890521	-0.584036	-0.360437
C32	C	-3.390521	-0.084036	0.139563
C33	C	-3.720785	-0.153779	-0.566542
C34	C	-3.220785	0.346221	-0.066542
C35	C	-3.734452	-0.151147	-0.705788
C36	C	-3.234452	0.348853	-0.205788
C37	C	-3.913056	-0.155709	-0.772660
C38	C	-3.413056	0.344291	-0.272660
C39	C	-3.927185	-0.152989	-0.916579
C40	C	-3.427185	0.347011	-0.416579
C41	C	-4.071615	0.063235	-0.389827
C42	C	-3.571615	0.563235	0.110173
C43	C	-3.993556	0.199304	-0.420416
C44	C	-3.493556	0.699304	0.079584
C45	C	-4.140238	-0.154925	-0.122695
C46	C	-3.640238	0.345075	0.377305
C47	C	-4.105810	-0.157551	0.016552
C48	C	-3.605810	0.342449	0.516552
H49	H	-3.956059	-0.763698	-0.227003
H50	H	-3.456059	-0.263698	0.272997
F51	F	-3.985273	-0.749690	-0.553505
F52	F	-3.485273	-0.249690	-0.053505
F53	F	-3.548247	-0.143402	-0.770214
F54	F	-3.048247	0.356598	-0.270214
F55	F	-3.882241	-0.533036	-0.493533
F56	F	-3.382241	-0.033036	0.006467
H57	H	-3.853011	-0.547032	-0.167003
H58	H	-3.353011	-0.047032	0.332997
H59	H	-4.055502	-0.161620	-0.723366
H60	H	-3.555502	0.338380	-0.223366
F61	F	-3.740967	-0.145243	-0.981000
F62	F	-3.240967	0.354757	-0.481000
F63	F	-4.292017	-0.165267	-0.919032
F64	F	-3.792017	0.334733	-0.419032
