data_functionalizedCrystal
_audit_creation_method	'MofGen! by Chris Wilmer'
_symmetry_space_group_name_H-M	'P1'
_symmetry_Int_Tables_number	1
_symmetry_cell_setting	triclinic
loop_
_symmetry_equiv_pos_as_xyz
  x,y,z
_cell_length_a	25.639243
_cell_length_b	25.639239
_cell_length_c	25.639233
_cell_angle_alpha	90.019301
_cell_angle_beta	90.015962
_cell_angle_gamma	90.042008
loop_
_atom_site_label
_atom_site_type_symbol
_atom_site_fract_x
_atom_site_fract_y
_atom_site_fract_z
Zn1	Zn	0.799223	-0.208176	0.295654
Zn2	Zn	0.799145	-0.295595	0.208217
Zn3	Zn	0.711799	-0.208180	0.208227
Zn4	Zn	0.711743	-0.295587	0.295617
O5	O	0.755478	-0.251885	0.251929
O6	O	0.872378	-0.219775	0.284066
O7	O	0.787550	-0.284004	0.135053
O8	O	0.723452	-0.135014	0.219844
O9	O	0.872321	-0.284001	0.219827
O10	O	0.787682	-0.135012	0.284076
O11	O	0.723377	-0.219781	0.135061
O12	O	0.638627	-0.219772	0.219808
O13	O	0.723357	-0.283987	0.368787
O14	O	0.638586	-0.283990	0.284013
O15	O	0.787628	-0.219767	0.368814
O16	O	0.787496	-0.368759	0.219791
O17	O	0.723282	-0.368753	0.284003
C18	C	0.619635	-0.251881	0.251908
C19	C	0.561521	-0.251892	0.251911
C20	C	0.755388	-0.387727	0.251903
C21	C	0.755398	-0.445841	0.251910
C22	C	0.201182	-0.218495	0.285434
C23	C	0.146578	-0.218494	0.285437
O24	O	0.118361	-0.190088	0.313913
N25	N	0.119239	-0.251883	0.251943
C26	C	0.146507	-0.285271	0.218440
O27	O	0.118239	-0.313670	0.189951
C28	C	0.201110	-0.285268	0.218434
C29	C	0.228446	-0.251881	0.251934
C30	C	0.228518	-0.185109	0.318931
C31	C	0.283119	-0.185111	0.318928
C32	C	0.310383	-0.218497	0.285428
C33	C	0.283047	-0.251882	0.251932
C34	C	0.228377	-0.318653	0.184929
C35	C	0.282984	-0.318647	0.184926
C36	C	0.310320	-0.285260	0.218426
C37	C	0.364912	-0.285270	0.218429
N38	N	0.392251	-0.251881	0.251923
C39	C	0.364987	-0.218494	0.285423
C40	C	0.031836	-0.285273	0.218453
C41	C	-0.022766	-0.285279	0.218461
C42	C	-0.022691	-0.218501	0.285458
C43	C	0.031912	-0.218499	0.285452
C44	C	0.059175	-0.251884	0.251947
C45	C	0.479652	-0.218500	0.285415
C46	C	0.534257	-0.218506	0.285411
C47	C	0.534177	-0.285281	0.218413
C48	C	0.479577	-0.285278	0.218418
C49	C	0.452315	-0.251883	0.251921
O50	O	0.393163	-0.313659	0.189966
O51	O	0.393261	-0.190095	0.313903
C52	C	0.722035	-0.697044	0.285353
C53	C	0.722016	-0.642440	0.285347
O54	O	0.693564	-0.614211	0.313764
N55	N	0.755464	-0.615115	0.251937
C56	C	0.788937	-0.642398	0.218535
O57	O	0.817386	-0.614142	0.190118
C58	C	0.788959	-0.697001	0.218545
C59	C	0.755505	-0.724323	0.251953
C60	C	0.688584	-0.724366	0.318759
C61	C	0.688603	-0.778966	0.318764
C62	C	0.722073	-0.806245	0.285364
C63	C	0.755524	-0.778923	0.251958
C64	C	0.822434	-0.724283	0.185145
C65	C	0.822453	-0.778890	0.185158
C66	C	0.788999	-0.806211	0.218566
C67	C	0.789012	-0.860803	0.218563
N68	N	0.755564	-0.888127	0.251972
C69	C	0.722094	-0.860848	0.285373
C70	C	0.788890	-0.527727	0.218519
C71	C	0.788866	-0.473125	0.218507
C72	C	0.721945	-0.473170	0.285320
C73	C	0.721967	-0.527774	0.285329
C74	C	0.755442	-0.555052	0.251929
C75	C	0.722136	-0.975513	0.285381
C76	C	0.722156	-1.030119	0.285382
C77	C	0.789079	-1.030068	0.218571
C78	C	0.789057	-0.975468	0.218568
C79	C	0.755584	-0.948191	0.251977
O80	O	0.817451	-0.889066	0.190162
O81	O	0.693655	-0.889110	0.313791
C82	C	0.891851	-0.251888	0.251950
C83	C	0.949965	-0.251890	0.251959
C84	C	0.755495	-0.251875	0.388302
C85	C	0.755502	-0.251871	0.446416
C86	C	0.755582	-0.115512	0.251965
C87	C	0.755626	-0.057397	0.251981
C88	C	0.755491	-0.251856	0.116086
C89	C	0.755585	-0.251713	0.057972
C90	C	0.789010	-0.218333	0.806799
C91	C	0.789016	-0.218318	0.861403
O92	O	0.817464	-0.189864	0.889657
N93	N	0.755559	-0.251749	0.888698
C94	C	0.722090	-0.285192	0.861387
O95	O	0.693632	-0.313626	0.889617
C96	C	0.722081	-0.285204	0.806783
C97	C	0.755544	-0.251775	0.779491
C98	C	0.822470	-0.184906	0.779506
C99	C	0.822464	-0.184921	0.724906
C100	C	0.788998	-0.218363	0.697598
C101	C	0.755538	-0.251790	0.724890
C102	C	0.688610	-0.318644	0.779472
C103	C	0.688603	-0.318653	0.724865
C104	C	0.722066	-0.285224	0.697573
C105	C	0.722067	-0.285247	0.642982
N106	N	0.755524	-0.251817	0.615686
C107	C	0.788990	-0.218375	0.642994
C108	C	0.722110	-0.285165	0.976057
C109	C	0.722121	-0.285157	1.030660
C110	C	0.789047	-0.218282	1.030672
C111	C	0.789038	-0.218293	0.976069
C112	C	0.755567	-0.251735	0.948762
C113	C	0.788975	-0.218410	0.528329
C114	C	0.788968	-0.218429	0.473724
C115	C	0.722040	-0.285302	0.473716
C116	C	0.722049	-0.285285	0.528316
C117	C	0.755518	-0.251834	0.555622
O118	O	0.693632	-0.313686	0.614693
O119	O	0.817437	-0.189941	0.614757
H120	H	0.556512	-0.191317	0.312692
O121	O	0.689573	-0.317831	0.554776
C122	C	0.700966	-0.369948	0.541448
H123	H	0.721061	-0.371047	0.501806
H124	H	0.663213	-0.393390	0.539572
H125	H	0.727834	-0.387548	0.572186
O126	O	0.821344	-0.554293	0.186063
C127	C	0.791632	-0.585933	0.152258
H128	H	0.751990	-0.594143	0.170643
H129	H	0.812954	-0.624312	0.145306
H130	H	0.785926	-0.564932	0.113491
O131	O	0.689585	-0.317709	0.949614
C132	C	0.660052	-0.347202	0.985420
H133	H	0.681475	-0.348996	1.024344
H134	H	0.654446	-0.388403	0.969644
H135	H	0.620357	-0.328058	0.991223
H136	H	0.054166	-0.191310	0.312730
O137	O	-0.049238	-0.186138	0.318024
C138	C	-0.080824	-0.215957	0.351748
H139	H	-0.089034	-0.255554	0.333238
H140	H	-0.119205	-0.194674	0.358792
H141	H	-0.059774	-0.221755	0.390485
O142	O	0.821418	-0.185876	0.447239
C143	C	0.810036	-0.133765	0.460599
H144	H	0.768270	-0.131125	0.475599
H145	H	0.814558	-0.107939	0.424696
H146	H	0.838078	-0.120093	0.492304
H147	H	0.305371	-0.157922	0.346206
O148	O	0.656143	-0.697849	0.351262
C149	C	0.685864	-0.666202	0.385053
H150	H	0.727050	-0.682601	0.388327
H151	H	0.666922	-0.665592	0.425270
H152	H	0.687653	-0.624823	0.368887
H153	H	0.816227	-0.191169	0.550555
H154	H	0.054030	-0.312464	0.191171
O155	O	0.689647	-0.949079	0.317906
C156	C	0.701050	-0.962380	0.370028
H157	H	0.721166	-1.002001	0.371132
H158	H	0.663300	-0.964285	0.393434
H159	H	0.727905	-0.931610	0.387664
O160	O	0.821502	-0.185806	1.057286
C161	C	0.814336	-0.192974	1.111331
H162	H	0.773976	-0.210102	1.118775
H163	H	0.817904	-0.153806	1.132090
H164	H	0.845332	-0.220808	1.126833
O165	O	0.689696	-0.317693	1.057190
C166	C	0.719440	-0.351448	1.088785
H167	H	0.760616	-0.354677	1.072340
H168	H	0.700502	-0.391686	1.089390
H169	H	0.721252	-0.335278	1.130172
O170	O	0.689464	-0.317769	0.447246
C171	C	0.637361	-0.306334	0.460568
H172	H	0.636293	-0.286222	0.500213
H173	H	0.613894	-0.344070	0.462432
H174	H	0.619766	-0.279466	0.429832
H175	H	0.849712	-0.157699	0.702689
H176	H	0.849715	-0.801096	0.157961
H177	H	0.816286	-0.191071	0.953851
O178	O	0.201912	-0.351099	0.152334
C179	C	0.237696	-0.380567	0.122776
H180	H	0.276632	-0.359144	0.121014
H181	H	0.221909	-0.386078	0.081569
H182	H	0.243481	-0.420307	0.141844
H183	H	-0.045019	-0.312472	0.191188
H184	H	0.694729	-0.550015	0.312536
O185	O	0.656093	-0.805422	0.351270
C186	C	0.626544	-0.769626	0.380737
H187	H	0.647947	-0.730681	0.382555
H188	H	0.620945	-0.785383	0.421931
H189	H	0.586845	-0.763871	0.361553
H190	H	0.661360	-0.345866	0.801685
O191	O	0.854907	-0.152361	0.806050
C192	C	0.825179	-0.118586	0.837645
H193	H	0.783996	-0.115360	0.821194
H194	H	0.844121	-0.078350	0.838261
H195	H	0.823380	-0.134735	0.879029
H196	H	0.661341	-0.345880	0.702635
H197	H	0.816101	-0.450883	0.191298
O198	O	0.453198	-0.186120	0.318037
C199	C	0.466566	-0.197621	0.370121
H200	H	0.481543	-0.239396	0.372678
H201	H	0.430673	-0.193155	0.395968
H202	H	0.498291	-0.169615	0.383835
H203	H	0.457318	-0.312470	0.191146
O204	O	0.202120	-0.152660	0.351525
C205	C	0.237967	-0.123188	0.381075
H206	H	0.276874	-0.144609	0.382832
H207	H	0.222219	-0.117674	0.422284
H208	H	0.243796	-0.083449	0.362003
H209	H	0.305179	-0.345834	0.157641
H210	H	0.556386	-0.312465	0.191139
O211	O	0.689732	-1.056715	0.317864
C212	C	0.719488	-1.088242	0.351675
H213	H	0.759125	-1.096391	0.333273
H214	H	0.698198	-1.126658	0.358669
H215	H	0.725201	-1.067173	0.390423
O216	O	0.854910	-0.697810	0.152623
C217	C	0.843523	-0.711184	0.100502
H218	H	0.823430	-0.750848	0.099406
H219	H	0.881278	-0.713034	0.077102
H220	H	0.816653	-0.680486	0.082853
O221	O	0.689510	-0.446643	0.317826
C222	C	0.719248	-0.415001	0.351606
H223	H	0.760429	-0.431413	0.354876
H224	H	0.700313	-0.414378	0.391826
H225	H	0.721048	-0.373625	0.335434
H226	H	0.816327	-1.052289	0.191376
O227	O	0.821596	-0.949005	0.186094
C228	C	0.851127	-0.984794	0.156602
H229	H	0.852937	-1.023706	0.178023
H230	H	0.892320	-0.968977	0.151058
H231	H	0.832006	-0.990638	0.116877
