data_functionalizedCrystal
_audit_creation_method	'MofGen! by Chris Wilmer'
_symmetry_space_group_name_H-M	'P1'
_symmetry_Int_Tables_number	1
_symmetry_cell_setting	triclinic
loop_
_symmetry_equiv_pos_as_xyz
  x,y,z
_cell_length_a	18.050589
_cell_length_b	18.050591
_cell_length_c	21.395355
_cell_angle_alpha	89.970606
_cell_angle_beta	89.987098
_cell_angle_gamma	90.024669
loop_
_atom_site_label
_atom_site_type_symbol
_atom_site_fract_x
_atom_site_fract_y
_atom_site_fract_z
Zn1	Zn	-0.295816	1.135363	-0.354367
Zn2	Zn	-0.045816	1.385363	-0.104367
Zn3	Zn	0.204184	1.635363	0.145633
Zn4	Zn	0.454184	1.885363	0.395633
Zn5	Zn	-0.419988	1.135253	-0.249600
Zn6	Zn	-0.169988	1.385253	0.000400
Zn7	Zn	0.080012	1.635253	0.250400
Zn8	Zn	0.330012	1.885253	0.500400
Zn9	Zn	-0.295808	1.011161	-0.249595
Zn10	Zn	-0.045808	1.261161	0.000405
Zn11	Zn	0.204192	1.511161	0.250405
Zn12	Zn	0.454192	1.761161	0.500405
Zn13	Zn	-0.419961	1.011130	-0.354331
Zn14	Zn	-0.169961	1.261130	-0.104331
Zn15	Zn	0.080039	1.511130	0.145669
Zn16	Zn	0.330039	1.761130	0.395669
O17	O	-0.357893	1.073227	-0.301973
O18	O	-0.107893	1.323227	-0.051973
O19	O	0.142107	1.573227	0.198027
O20	O	0.392107	1.823227	0.448027
O21	O	-0.312302	1.239273	-0.340486
O22	O	-0.062302	1.489273	-0.090486
O23	O	0.187698	1.739273	0.159514
O24	O	0.437698	1.989273	0.409514
O25	O	-0.403523	1.118759	-0.161921
O26	O	-0.153523	1.368759	0.088079
O27	O	0.096477	1.618759	0.338079
O28	O	0.346477	1.868759	0.588079
O29	O	-0.191885	1.027696	-0.263506
O30	O	0.058115	1.277696	-0.013506
O31	O	0.308115	1.527696	0.236494
O32	O	0.558115	1.777696	0.486494
O33	O	-0.403530	1.239192	-0.263514
O34	O	-0.153530	1.489192	-0.013514
O35	O	0.096470	1.739192	0.236486
O36	O	0.346470	1.989192	0.486486
O37	O	-0.191890	1.118947	-0.340481
O38	O	0.058110	1.368947	-0.090481
O39	O	0.308110	1.618947	0.159519
O40	O	0.558110	1.868947	0.409519
O41	O	-0.312289	1.027589	-0.161917
O42	O	-0.062289	1.277589	0.088083
O43	O	0.187711	1.527589	0.338083
O44	O	0.437711	1.777589	0.588083
O45	O	-0.312263	0.907233	-0.263471
O46	O	-0.062263	1.157233	-0.013471
O47	O	0.187737	1.407233	0.236529
O48	O	0.437737	1.657233	0.486529
O49	O	-0.403485	1.027643	-0.442014
O50	O	-0.153485	1.277643	-0.192014
O51	O	0.096515	1.527643	0.057986
O52	O	0.346515	1.777643	0.307986
O53	O	-0.403477	0.907210	-0.340420
O54	O	-0.153477	1.157210	-0.090420
O55	O	0.096523	1.407210	0.159580
O56	O	0.346523	1.657210	0.409580
O57	O	-0.312276	1.118916	-0.442040
O58	O	-0.062276	1.368916	-0.192040
O59	O	0.187724	1.618916	0.057960
O60	O	0.437724	1.868916	0.307960
O61	O	-0.523909	1.118729	-0.263479
O62	O	-0.273909	1.368729	-0.013479
O63	O	-0.023909	1.618729	0.236521
O64	O	0.226091	1.868729	0.486521
O65	O	-0.523889	1.027536	-0.340425
O66	O	-0.273889	1.277536	-0.090425
O67	O	-0.023889	1.527536	0.159575
O68	O	0.226111	1.777536	0.409575
C69	C	-0.357867	0.880275	-0.301942
C70	C	-0.107867	1.130275	-0.051942
C71	C	0.142133	1.380275	0.198058
C72	C	0.392133	1.630275	0.448058
C73	C	-0.357874	0.797729	-0.301943
C74	C	-0.107874	1.047729	-0.051943
C75	C	0.142126	1.297729	0.198057
C76	C	0.392126	1.547729	0.448057
C77	C	-0.308220	0.548894	-0.260197
C78	C	-0.058220	0.798894	-0.010197
C79	C	0.191780	1.048894	0.239803
C80	C	0.441780	1.298894	0.489803
C81	C	-0.290145	0.598338	-0.317376
C82	C	-0.040145	0.848338	-0.067376
C83	C	0.209855	1.098338	0.182624
C84	C	0.459855	1.348338	0.432624
C85	C	-0.357912	0.500609	-0.301994
C86	C	-0.107912	0.750609	-0.051994
C87	C	0.142088	1.000609	0.198006
C88	C	0.392088	1.250609	0.448006
C89	C	-0.375933	0.598247	-0.244793
C90	C	-0.125933	0.848247	0.005207
C91	C	0.124067	1.098247	0.255207
C92	C	0.374067	1.348247	0.505207
C93	C	-0.357891	0.646594	-0.301966
C94	C	-0.107891	0.896594	-0.051966
C95	C	0.142109	1.146594	0.198034
C96	C	0.392109	1.396594	0.448034
C97	C	-0.339802	0.548965	-0.359204
C98	C	-0.089802	0.798965	-0.109204
C99	C	0.160198	1.048965	0.140796
C100	C	0.410198	1.298965	0.390796
C101	C	-0.425621	0.548870	-0.286582
C102	C	-0.175621	0.798870	-0.036582
C103	C	0.074379	1.048870	0.213418
C104	C	0.324379	1.298870	0.463418
C105	C	-0.407572	0.598291	-0.343801
C106	C	-0.157572	0.848291	-0.093801
C107	C	0.092428	1.098291	0.156199
C108	C	0.342428	1.348291	0.406199
C109	C	-0.357922	0.416510	-0.302010
C110	C	-0.107922	0.666510	-0.052010
C111	C	0.142078	0.916510	0.197990
C112	C	0.392078	1.166510	0.447990
C113	C	-0.357881	0.730690	-0.301957
C114	C	-0.107881	0.980690	-0.051957
C115	C	0.142119	1.230690	0.198043
C116	C	0.392119	1.480690	0.448043
C117	C	-0.550845	1.073137	-0.301963
C118	C	-0.300845	1.323137	-0.051963
C119	C	-0.050845	1.573137	0.198037
C120	C	0.199155	1.823137	0.448037
C121	C	-0.633391	1.073167	-0.301979
C122	C	-0.383391	1.323167	-0.051979
C123	C	-0.133391	1.573167	0.198021
C124	C	0.116609	1.823167	0.448021
C125	C	-0.832858	1.023625	-0.343807
C126	C	-0.582858	1.273625	-0.093807
C127	C	-0.332858	1.523625	0.156193
C128	C	-0.082858	1.773625	0.406193
C129	C	-0.882285	1.005516	-0.286633
C130	C	-0.632285	1.255516	-0.036633
C131	C	-0.382285	1.505516	0.213367
C132	C	-0.132285	1.755516	0.463367
C133	C	-0.784521	1.073240	-0.301987
C134	C	-0.534521	1.323240	-0.051987
C135	C	-0.284521	1.573240	0.198013
C136	C	-0.034521	1.823240	0.448013
C137	C	-0.882177	1.091386	-0.359168
C138	C	-0.632177	1.341386	-0.109168
C139	C	-0.382177	1.591386	0.140832
C140	C	-0.132177	1.841386	0.390832
C141	C	-0.930506	1.073309	-0.302000
C142	C	-0.680506	1.323309	-0.052000
C143	C	-0.430506	1.573309	0.198000
C144	C	-0.180506	1.823309	0.448000
C145	C	-0.832861	1.055095	-0.244783
C146	C	-0.582861	1.305095	0.005217
C147	C	-0.332861	1.555095	0.255217
C148	C	-0.082861	1.805095	0.505217
C149	C	-0.832748	1.140996	-0.317356
C150	C	-0.582748	1.390996	-0.067356
C151	C	-0.332748	1.640996	0.182644
C152	C	-0.082748	1.890996	0.432644
C153	C	-0.882153	1.122913	-0.260142
C154	C	-0.632153	1.372913	-0.010142
C155	C	-0.382153	1.622913	0.239858
C156	C	-0.132153	1.872913	0.489858
C157	C	-0.700423	1.073198	-0.301981
C158	C	-0.450423	1.323198	-0.051981
C159	C	-0.200423	1.573198	0.198019
C160	C	0.049577	1.823198	0.448019
C161	C	-1.014603	1.073351	-0.302000
C162	C	-0.764603	1.323351	-0.052000
C163	C	-0.514603	1.573351	0.198000
C164	C	-0.264603	1.823351	0.448000
C165	C	-0.164188	1.073337	-0.301997
C166	C	0.085812	1.323337	-0.051997
C167	C	0.335812	1.573337	0.198003
C168	C	0.585812	1.823337	0.448003
C169	C	-0.081642	1.073384	-0.302007
C170	C	0.168358	1.323384	-0.052007
C171	C	0.418358	1.573384	0.197993
C172	C	0.668358	1.823384	0.447993
C173	C	-0.357878	1.073289	-0.465396
C174	C	-0.107878	1.323289	-0.215396
C175	C	0.142122	1.573289	0.034604
C176	C	0.392122	1.823289	0.284604
C177	C	-0.357872	1.073315	-0.535038
C178	C	-0.107872	1.323315	-0.285038
C179	C	0.142128	1.573315	-0.035038
C180	C	0.392128	1.823315	0.214962
C181	C	-0.357920	1.266933	-0.302005
C182	C	-0.107920	1.516933	-0.052005
C183	C	0.142080	1.766933	0.197995
C184	C	0.392080	2.016933	0.447995
C185	C	-0.357931	1.349478	-0.302018
C186	C	-0.107931	1.599478	-0.052018
C187	C	0.142069	1.849478	0.197982
C188	C	0.392069	2.099478	0.447982
C189	C	-0.310377	1.120839	-0.567765
C190	C	-0.060377	1.370839	-0.317765
C191	C	0.189623	1.620839	-0.067765
C192	C	0.439623	1.870839	0.182235
C193	C	-0.310345	1.120838	-0.633201
C194	C	-0.060345	1.370838	-0.383201
C195	C	0.189655	1.620838	-0.133201
C196	C	0.439655	1.870838	0.116799
C197	C	-0.357821	1.073321	-0.665906
C198	C	-0.107821	1.323321	-0.415906
C199	C	0.142179	1.573321	-0.165906
C200	C	0.392179	1.823321	0.084094
C201	C	-0.405319	1.025787	-0.633170
C202	C	-0.155319	1.275787	-0.383170
C203	C	0.094681	1.525787	-0.133170
C204	C	0.344681	1.775787	0.116830
C205	C	-0.405344	1.025785	-0.567736
C206	C	-0.155344	1.275785	-0.317736
C207	C	0.094656	1.525785	-0.067736
C208	C	0.344656	1.775785	0.182264
C209	C	-0.424690	1.067426	-0.769577
C210	C	-0.174690	1.317426	-0.519577
C211	C	0.075310	1.567426	-0.269577
C212	C	0.325310	1.817426	-0.019577
C213	C	-0.424666	1.067434	-0.835010
C214	C	-0.174666	1.317434	-0.585010
C215	C	0.075334	1.567434	-0.335010
C216	C	0.325334	1.817434	-0.085010
C217	C	-0.357743	1.073325	-0.867727
C218	C	-0.107743	1.323325	-0.617727
C219	C	0.142257	1.573325	-0.367727
C220	C	0.392257	1.823325	-0.117727
C221	C	-0.290842	1.079224	-0.835003
C222	C	-0.040842	1.329224	-0.585003
C223	C	0.209158	1.579224	-0.335003
C224	C	0.459158	1.829224	-0.085003
C225	C	-0.290867	1.079221	-0.769569
C226	C	-0.040867	1.329221	-0.519569
C227	C	0.209133	1.579221	-0.269569
C228	C	0.459133	1.829221	-0.019569
C229	C	-0.357799	1.073318	-0.736858
C230	C	-0.107799	1.323318	-0.486858
C231	C	0.142201	1.573318	-0.236858
C232	C	0.392201	1.823318	0.013142
C233	C	-0.310210	1.120851	-0.971407
C234	C	-0.060210	1.370851	-0.721407
C235	C	0.189790	1.620851	-0.471407
C236	C	0.439790	1.870851	-0.221407
C237	C	-0.310176	1.120844	-1.036844
C238	C	-0.060176	1.370844	-0.786844
C239	C	0.189824	1.620844	-0.536844
C240	C	0.439824	1.870844	-0.286844
C241	C	-0.405157	1.025798	-1.036812
C242	C	-0.155157	1.275798	-0.786812
C243	C	0.094843	1.525798	-0.536812
C244	C	0.344843	1.775798	-0.286812
C245	C	-0.405183	1.025800	-0.971377
C246	C	-0.155183	1.275800	-0.721377
C247	C	0.094817	1.525800	-0.471377
C248	C	0.344817	1.775800	-0.221377
C249	C	-0.357711	1.073331	-0.938678
C250	C	-0.107711	1.323331	-0.688678
C251	C	0.142289	1.573331	-0.438678
C252	C	0.392289	1.823331	-0.188678
C253	C	-0.357855	1.073208	-0.139185
C254	C	-0.107855	1.323208	0.110815
C255	C	0.142145	1.573208	0.360815
C256	C	0.392145	1.823208	0.610815
C257	C	-0.357652	1.073326	-0.069544
C258	C	-0.107652	1.323326	0.180456
C259	C	0.142348	1.573326	0.430456
C260	C	0.392348	1.823326	0.680456
H261	H	-0.391183	0.619897	-0.196430
H262	H	-0.141183	0.869897	0.053570
H263	H	0.108817	1.119897	0.303570
H264	H	0.358817	1.369897	0.553570
H265	H	-0.482873	0.527126	-0.273537
H266	H	-0.232873	0.777126	-0.023537
H267	H	0.017127	1.027126	0.226463
H268	H	0.267127	1.277126	0.476463
H269	H	-0.811212	0.981606	-0.379123
H270	H	-0.561212	1.231606	-0.129123
H271	H	-0.311212	1.481606	0.120877
H272	H	-0.061212	1.731606	0.370877
Br273	Br	-0.918547	0.910063	-0.264966
Br274	Br	-0.668547	1.160063	-0.014966
Br275	Br	-0.418547	1.410063	0.235034
Br276	Br	-0.168547	1.660063	0.485034
Br277	Br	-0.796911	1.029453	-0.164168
Br278	Br	-0.546911	1.279453	0.085832
Br279	Br	-0.296911	1.529453	0.335832
Br280	Br	-0.046911	1.779453	0.585832
Br281	Br	-0.245782	1.185352	-0.927027
Br282	Br	0.004218	1.435352	-0.677027
Br283	Br	0.254218	1.685352	-0.427027
Br284	Br	0.504218	1.935352	-0.177027
H285	H	-0.903661	1.164900	-0.224741
H286	H	-0.653661	1.414900	0.025259
H287	H	-0.403661	1.664900	0.275259
H288	H	-0.153661	1.914900	0.525259
H289	H	-0.232874	0.620053	-0.330412
H290	H	0.017126	0.870053	-0.080412
H291	H	0.267126	1.120053	0.169588
H292	H	0.517126	1.370053	0.419588
Br293	Br	-0.515459	1.059438	-0.879414
Br294	Br	-0.265459	1.309438	-0.629414
Br295	Br	-0.015459	1.559438	-0.379414
Br296	Br	0.234541	1.809438	-0.129414
Br297	Br	-0.245725	1.185359	-1.081262
Br298	Br	0.004275	1.435359	-0.831262
Br299	Br	0.254275	1.685359	-0.581262
Br300	Br	0.504275	1.935359	-0.331262
Br301	Br	-0.477602	0.634212	-0.402758
Br302	Br	-0.227602	0.884212	-0.152758
Br303	Br	0.022398	1.134212	0.097242
Br304	Br	0.272398	1.384212	0.347242
Br305	Br	-0.314271	0.513039	-0.439836
Br306	Br	-0.064271	0.763039	-0.189836
Br307	Br	0.185729	1.013039	0.060164
Br308	Br	0.435729	1.263039	0.310164
H309	H	-0.903839	1.106706	-0.407520
H310	H	-0.653839	1.356706	-0.157520
H311	H	-0.403839	1.606706	0.092480
H312	H	-0.153839	1.856706	0.342480
H313	H	-0.810975	1.198250	-0.330371
H314	H	-0.560975	1.448250	-0.080371
H315	H	-0.310975	1.698250	0.169629
H316	H	-0.060975	1.948250	0.419629
H317	H	-0.479173	1.062429	-0.742944
H318	H	-0.229173	1.312429	-0.492944
H319	H	0.020827	1.562429	-0.242944
H320	H	0.270827	1.812429	0.007056
Br321	Br	-0.469580	0.961300	-1.081190
Br322	Br	-0.219580	1.211300	-0.831190
Br323	Br	0.030420	1.461300	-0.581190
Br324	Br	0.280420	1.711300	-0.331190
Br325	Br	-0.245948	1.185341	-0.523392
Br326	Br	0.004052	1.435341	-0.273392
Br327	Br	0.254052	1.685341	-0.023392
Br328	Br	0.504052	1.935341	0.226608
H329	H	-0.271666	1.159536	-0.659853
H330	H	-0.021666	1.409536	-0.409853
H331	H	0.228334	1.659536	-0.159853
H332	H	0.478334	1.909536	0.090147
Br333	Br	-0.469746	0.961294	-0.677554
Br334	Br	-0.219746	1.211294	-0.427554
Br335	Br	0.030254	1.461294	-0.177554
Br336	Br	0.280254	1.711294	0.072446
H337	H	-0.443863	0.987106	-0.944729
H338	H	-0.193863	1.237106	-0.694729
H339	H	0.056137	1.487106	-0.444729
H340	H	0.306137	1.737106	-0.194729
H341	H	-0.444019	0.987081	-0.541089
H342	H	-0.194019	1.237081	-0.291089
H343	H	0.055981	1.487081	-0.041089
H344	H	0.305981	1.737081	0.208911
Br345	Br	-0.200078	1.087223	-0.725159
Br346	Br	0.049922	1.337223	-0.475159
Br347	Br	0.299922	1.587223	-0.225159
Br348	Br	0.549922	1.837223	0.024841
H349	H	-0.266174	0.527208	-0.224906
H350	H	-0.016174	0.777208	0.025094
H351	H	0.233826	1.027208	0.275094
H352	H	0.483826	1.277208	0.525094
Br353	Br	-0.200011	1.087227	-0.879396
Br354	Br	0.049989	1.337227	-0.629396
Br355	Br	0.299989	1.587227	-0.379396
Br356	Br	0.549989	1.837227	-0.129396
