data_functionalizedCrystal
_audit_creation_method	'MofGen! by Chris Wilmer'
_symmetry_space_group_name_H-M	'P1'
_symmetry_Int_Tables_number	1
_symmetry_cell_setting	triclinic
loop_
_symmetry_equiv_pos_as_xyz
  x,y,z
_cell_length_a	12.759401
_cell_length_b	12.759400
_cell_length_c	12.759393
_cell_angle_alpha	89.968436
_cell_angle_beta	89.981504
_cell_angle_gamma	90.014845
loop_
_atom_site_label
_atom_site_type_symbol
_atom_site_fract_x
_atom_site_fract_y
_atom_site_fract_z
Zn1	Zn	1.606255	-0.418200	-0.593981
Zn2	Zn	1.606150	-0.593919	-0.418301
Zn3	Zn	1.430557	-0.418255	-0.418321
Zn4	Zn	1.430546	-0.593838	-0.593943
O5	O	1.518377	-0.506053	-0.506137
O6	O	1.753262	-0.441520	-0.570685
O7	O	1.582818	-0.570673	-0.271283
O8	O	1.453913	-0.271226	-0.441647
O9	O	1.753185	-0.570620	-0.441614
O10	O	1.582998	-0.271186	-0.570704
O11	O	1.453811	-0.441614	-0.271297
O12	O	1.283535	-0.441535	-0.441609
O13	O	1.453894	-0.570482	-0.740969
O14	O	1.283527	-0.570536	-0.570638
O15	O	1.582987	-0.441442	-0.740997
O16	O	1.582807	-0.740929	-0.441577
O17	O	1.453791	-0.740870	-0.570620
C18	C	1.245410	-0.506033	-0.506122
C19	C	1.128633	-0.506050	-0.506141
C20	C	1.518315	-0.779020	-0.506115
C21	C	1.518384	-0.895797	-0.506140
C22	C	1.073794	-0.573328	-0.573215
C23	C	0.964070	-0.573342	-0.573227
C24	C	0.964034	-0.438796	-0.439081
C25	C	1.073756	-0.438778	-0.439075
C26	C	1.073815	-0.651010	-0.650660
C27	C	0.964091	-0.651024	-0.650672
C28	C	1.585637	-0.950655	-0.439022
C29	C	1.585702	-1.060379	-0.439054
C30	C	1.451252	-1.060377	-0.573327
C31	C	1.451193	-0.950655	-0.573299
C32	C	1.652828	-0.895797	-0.371864
C33	C	1.720086	-0.950655	-0.304739
C34	C	1.720150	-1.060379	-0.304771
C35	C	1.652957	-1.115245	-0.371929
C36	C	1.792410	-0.506073	-0.506152
C37	C	1.909187	-0.506082	-0.506158
C38	C	1.518451	-0.505947	-0.780170
C39	C	1.518482	-0.505902	-0.896947
C40	C	1.518468	-0.232019	-0.506182
C41	C	1.518507	-0.115243	-0.506201
C42	C	1.585710	-0.438704	-0.951825
C43	C	1.585735	-0.438666	-1.061549
C44	C	1.451301	-0.573033	-1.061507
C45	C	1.451272	-0.573064	-0.951785
C46	C	1.663328	-0.361131	-0.951851
C47	C	1.663353	-0.361093	-1.061575
C48	C	1.518364	-0.506083	-0.233169
C49	C	1.518537	-0.505832	-0.116393
H50	H	1.118401	-0.383987	-0.384464
C51	C	1.119772	-0.755374	-0.611102
N52	N	1.154387	-0.833982	-0.581305
C53	C	1.652778	-0.775098	-0.371837
N54	N	1.652745	-0.684188	-0.371822
H55	H	1.774798	-0.905977	-0.250068
C56	C	0.903658	-0.364804	-0.365309
N57	N	0.858184	-0.309073	-0.309741
C58	C	1.114089	-0.621722	-0.760642
N59	N	1.144424	-0.599672	-0.843481
C60	C	1.773275	-0.390544	-1.101809
N61	N	1.856065	-0.412729	-1.132113
C62	C	1.633911	-0.251217	-0.911647
N63	N	1.611752	-0.168431	-0.881365
C64	C	0.918156	-0.611773	-0.755163
N65	N	0.883556	-0.582202	-0.833861
C66	C	1.377335	-1.120734	-0.647184
N67	N	1.321655	-1.166195	-0.702810
H68	H	1.740599	-0.390300	-0.917815
H69	H	1.634239	-0.283784	-1.095623
H70	H	1.653024	-1.204589	-0.371958
C71	C	0.923833	-0.760918	-0.621034
N72	N	0.893512	-0.843687	-0.598709
C73	C	1.377196	-0.890308	-0.647117
N74	N	1.321456	-0.844854	-0.702716
H75	H	1.774922	-1.105041	-0.250123
H76	H	1.396525	-0.627780	-0.907107
C77	C	1.377372	-0.646906	-1.121839
N78	N	1.321687	-0.702549	-1.167280
