data_functionalizedCrystal
_audit_creation_method	'MofGen! by Chris Wilmer'
_symmetry_space_group_name_H-M	'P1'
_symmetry_Int_Tables_number	1
_symmetry_cell_setting	triclinic
loop_
_symmetry_equiv_pos_as_xyz
  x,y,z
_cell_length_a	16.625539
_cell_length_b	16.959455
_cell_length_c	16.959454
_cell_angle_alpha	90.017022
_cell_angle_beta	90.024917
_cell_angle_gamma	90.019462
loop_
_atom_site_label
_atom_site_type_symbol
_atom_site_fract_x
_atom_site_fract_y
_atom_site_fract_z
Zn1	Zn	-0.455904	-1.208424	0.314745
Zn2	Zn	-0.321080	-1.208335	0.446933
Zn3	Zn	-0.321088	-1.076240	0.314765
Zn4	Zn	-0.455872	-1.076217	0.446878
O5	O	-0.388486	-1.142304	0.380830
O6	O	-0.438030	-1.319023	0.332294
O7	O	-0.208248	-1.190784	0.429432
O8	O	-0.338988	-1.093822	0.204151
O9	O	-0.338975	-1.318957	0.429412
O10	O	-0.438038	-1.190937	0.204136
O11	O	-0.208254	-1.093735	0.332329
O12	O	-0.338957	-0.965626	0.332276
O13	O	-0.568709	-1.093782	0.429319
O14	O	-0.437982	-0.965609	0.429338
O15	O	-0.568733	-1.190914	0.332241
O16	O	-0.338943	-1.190762	0.557536
O17	O	-0.437975	-1.093695	0.557496
C18	C	-0.388472	-1.142238	0.586196
C19	C	-0.388493	-1.142282	0.674053
C20	C	-0.388468	-0.936938	0.380804
C21	C	-0.388479	-0.849081	0.380812
C22	C	-0.598795	-1.142355	0.380771
C23	C	-0.688416	-1.142377	0.380746
C24	C	-1.016592	-1.142414	0.380658
C25	C	-0.925283	-1.142401	0.380685
C26	C	-0.852507	-1.142396	0.380702
C27	C	-0.761193	-1.142383	0.380728
C28	C	-0.178995	-1.142298	0.380832
C29	C	-0.089374	-1.142429	0.380634
C30	C	-0.388505	-1.348472	0.380857
C31	C	-0.388513	-1.436329	0.380868
C32	C	-0.337031	-0.477590	0.330248
C33	C	-0.439987	-0.477621	0.431477
C34	C	-0.439982	-0.560167	0.431466
C35	C	-0.388500	-0.601428	0.380846
C36	C	-0.337023	-0.560144	0.330237
C37	C	-0.491453	-0.601458	0.482079
C38	C	-0.491449	-0.684008	0.482070
C39	C	-0.439970	-0.725271	0.431446
C40	C	-0.388492	-0.683982	0.380834
C41	C	-0.337010	-0.725243	0.330214
C42	C	-0.285534	-0.683955	0.279598
C43	C	-0.285544	-0.601406	0.279612
C44	C	-0.439961	-0.807820	0.431432
C45	C	-0.337001	-0.807797	0.330203
C46	C	-0.388517	-1.142392	0.174662
C47	C	-0.388531	-1.142429	0.086805
C48	C	-0.440046	-1.091835	1.045537
C49	C	-0.337008	-1.192993	1.045519
C50	C	-0.337001	-1.192966	0.962974
C51	C	-0.388516	-1.142371	0.921706
C52	C	-0.440039	-1.091804	0.962984
C53	C	-0.285473	-1.243526	0.921689
C54	C	-0.285463	-1.243500	0.839138
C55	C	-0.336983	-1.192908	0.797869
C56	C	-0.388508	-1.142340	0.839152
C57	C	-0.440024	-1.091746	0.797885
C58	C	-0.491554	-1.041181	0.839166
C59	C	-0.491559	-1.041213	0.921715
C60	C	-0.336978	-1.192876	0.715321
C61	C	-0.440016	-1.091715	0.715331
H62	H	-0.295083	-0.841386	0.288977
C63	C	-0.548169	-0.556075	0.537669
H64	H	-0.578845	-0.592485	0.567789
H65	H	-0.583325	-0.523941	0.507395
H66	H	-0.517348	-0.523805	0.572105
H67	H	-0.243505	-1.284673	0.805532
H68	H	-0.243614	-0.717561	0.238387
C69	C	-0.228917	-0.555989	0.223952
H70	H	-0.236288	-0.500917	0.231219
H71	H	-0.240799	-0.569523	0.170853
H72	H	-0.174720	-0.569497	0.235463
C73	C	-0.280303	-1.248490	0.669914
H74	H	-0.249625	-1.278628	0.706315
H75	H	-0.245144	-1.218261	0.637747
H76	H	-0.311180	-1.282908	0.637677
H77	H	-0.481897	-0.444021	0.472694
C78	C	-0.496685	-1.036061	0.669943
H79	H	-0.527369	-1.005951	0.706353
H80	H	-0.531839	-1.066265	0.637699
H81	H	-0.465803	-1.001619	0.637783
H82	H	-0.295062	-1.234180	1.079125
H83	H	-0.482003	-1.050668	1.079153
H84	H	-0.243526	-1.284711	0.955296
H85	H	-0.295123	-0.443970	0.289036
C86	C	-0.548221	-0.985531	0.793770
H87	H	-0.578909	-0.955418	0.830174
H88	H	-0.583370	-1.015739	0.761525
H89	H	-0.517335	-0.951092	0.761610
C90	C	-0.548076	-0.729418	0.537737
H91	H	-0.578741	-0.693021	0.567881
H92	H	-0.517175	-0.761607	0.572135
H93	H	-0.583261	-0.761634	0.507530
H94	H	-0.481869	-0.841433	0.472645
C95	C	-0.548226	-0.985590	0.967125
H96	H	-0.540843	-0.992848	1.022198
H97	H	-0.602414	-0.997116	0.953568
H98	H	-0.536366	-0.932481	0.953635
