data_functionalizedCrystal
_audit_creation_method	'MofGen! by Chris Wilmer'
_symmetry_space_group_name_H-M	'P1'
_symmetry_Int_Tables_number	1
_symmetry_cell_setting	triclinic
loop_
_symmetry_equiv_pos_as_xyz
  x,y,z
_cell_length_a	17.699083
_cell_length_b	19.288865
_cell_length_c	18.366186
_cell_angle_alpha	90.011479
_cell_angle_beta	90.003018
_cell_angle_gamma	83.209632
loop_
_atom_site_label
_atom_site_type_symbol
_atom_site_fract_x
_atom_site_fract_y
_atom_site_fract_z
O1	O	-1.003957	-0.087837	-0.060456
O2	O	-0.783563	-0.099265	-0.060481
O3	O	-0.900128	0.007572	-0.060453
O4	O	-0.887392	-0.194674	-0.060484
O5	O	-0.900109	0.007577	0.060646
O6	O	-0.783543	-0.099260	0.060618
O7	O	-1.003937	-0.087832	0.060643
Zn8	Zn	-0.893737	-0.093545	0.079858
Zn9	Zn	-0.893763	-0.093552	-0.079696
O10	O	-0.887372	-0.194668	0.060616
C11	C	-0.755356	-0.098853	0.000066
C12	C	-0.671340	-0.097624	0.000057
C13	C	-0.899709	0.033451	0.000098
C14	C	-0.898478	0.110556	0.000105
C15	C	-1.032144	-0.088244	0.000095
C16	C	-1.116160	-0.089472	0.000099
C17	C	-0.622631	-0.160335	0.000048
C18	C	-0.543689	-0.159177	0.000057
C19	C	-0.513458	-0.095307	0.000071
C20	C	-0.562174	-0.032591	0.000082
C21	C	-0.641114	-0.033750	0.000078
C22	C	-0.243817	-0.027915	0.000101
C23	C	-0.164871	-0.026761	0.000103
C24	C	-0.146393	-0.153342	0.000080
C25	C	-0.225333	-0.154501	0.000076
C26	C	-0.274041	-0.091785	0.000091
C27	C	-0.359639	-0.093042	0.000082
C28	C	-0.427862	-0.094049	0.000075
C29	C	-0.887792	-0.220548	0.000062
C30	C	-0.889022	-0.297653	0.000051
N31	N	-0.893725	-0.093540	0.188749
C32	C	-0.966874	0.155172	0.000116
C33	C	-0.965718	0.227620	0.000104
C34	C	-0.896163	0.255450	0.000096
C35	C	-0.827759	0.210825	0.000081
C36	C	-0.828916	0.138378	0.000085
C37	C	-0.841478	0.363804	0.042508
C38	C	-0.840323	0.436250	0.042509
C39	C	-0.892589	0.478900	0.000079
C40	C	-0.946024	0.449097	-0.042341
C41	C	-0.947181	0.376650	-0.042336
C42	C	-0.894900	0.334006	0.000091
C43	C	-0.959736	0.602073	0.000077
C44	C	-0.958578	0.674522	0.000061
C45	C	-0.820616	0.657725	0.000044
C46	C	-0.821777	0.585277	0.000053
C47	C	-0.891339	0.557456	0.000073
N48	N	-0.893781	-0.093551	-0.188587
C49	C	-0.945357	-0.046256	0.226862
C50	C	-0.945362	-0.046253	0.303090
C51	C	-0.893742	-0.093545	0.341202
C52	C	-0.842100	-0.140833	0.303080
C53	C	-0.842092	-0.140830	0.226854
C54	C	-0.883610	-0.156821	0.461952
C55	C	-0.883624	-0.156825	0.538177
C56	C	-0.893763	-0.093554	0.576309
C57	C	-0.903905	-0.030277	0.538207
C58	C	-0.903897	-0.030274	0.461981
C59	C	-0.893745	-0.093554	0.423857
C60	C	-0.945403	-0.046263	0.697077
C61	C	-0.945403	-0.046259	0.773306
C62	C	-0.842145	-0.140845	0.773295
C63	C	-0.842141	-0.140843	0.697067
C64	C	-0.893775	-0.093553	0.658963
H65	H	-0.647238	-0.212346	0.000036
Br66	Br	-0.772080	-0.205022	0.825013
Br67	Br	-1.015474	0.017919	0.645362
H68	H	-0.800101	-0.179349	0.666034
Br69	Br	-0.869868	-0.242700	0.589879
Br70	Br	-1.015474	0.017923	0.825035
H71	H	-0.140260	0.025253	0.000115
H72	H	-0.773219	0.102051	0.000076
Br73	Br	-0.869924	-0.242699	0.410209
H74	H	-0.800069	-0.179339	0.334115
Br75	Br	-0.266357	-0.241184	0.000051
H76	H	-0.800046	-0.179335	0.195822
H77	H	-0.987398	-0.007747	0.195839
Br78	Br	-0.080284	-0.238457	0.000061
Br79	Br	-0.733362	0.248592	0.000060
H80	H	-0.766082	0.548950	0.000048
H81	H	-0.283467	0.023152	0.000114
H82	H	-0.987408	-0.007747	0.334127
H83	H	-1.016378	0.579419	0.000090
Br84	Br	-0.477586	-0.244288	0.000042
H85	H	-0.537553	0.019413	0.000104
Br86	Br	-0.917653	0.055598	0.410273
H87	H	-0.680773	0.017316	0.000085
H88	H	-1.023517	0.132524	0.000130
Br89	Br	-0.917676	0.055597	0.589948
Br90	Br	-1.019692	0.336203	-0.099906
Br91	Br	-1.058547	0.288181	0.000117
Br92	Br	-0.726218	0.695486	0.000026
Br93	Br	-0.767811	0.476690	0.100082
Br94	Br	-1.016963	0.506970	-0.099927
H95	H	-1.014276	0.710848	0.000066
H96	H	-0.798914	0.329083	0.077063
