data_functionalizedCrystal
_audit_creation_method	'MofGen! by Chris Wilmer'
_symmetry_space_group_name_H-M	'P1'
_symmetry_Int_Tables_number	1
_symmetry_cell_setting	triclinic
loop_
_symmetry_equiv_pos_as_xyz
  x,y,z
_cell_length_a	10.654563
_cell_length_b	10.654550
_cell_length_c	9.730223
_cell_angle_alpha	90.004253
_cell_angle_beta	89.999031
_cell_angle_gamma	95.512281
loop_
_atom_site_label
_atom_site_type_symbol
_atom_site_fract_x
_atom_site_fract_y
_atom_site_fract_z
O1	O	1.667829	-0.176480	-0.114216
O2	O	1.302353	-0.193268	-0.114235
O3	O	1.493494	-0.002135	-0.114217
O4	O	1.476688	-0.367613	-0.114235
O5	O	1.493482	-0.002130	0.114363
O6	O	1.302340	-0.193263	0.114345
O7	O	1.667817	-0.176475	0.114363
Zn8	Zn	1.485077	-0.184868	0.150646
Zn9	Zn	1.485093	-0.184875	-0.150518
O10	O	1.476676	-0.367608	0.114345
C11	C	1.255549	-0.192029	0.000052
C12	C	1.116106	-0.188331	0.000045
C13	C	1.050593	-0.186599	-0.124548
C14	C	0.919569	-0.183145	-0.124536
C15	C	0.919586	-0.183148	0.124674
C16	C	1.050606	-0.186612	0.124661
C17	C	0.731528	-0.251862	-0.274220
C18	C	0.666012	-0.250109	-0.398821
C19	C	0.717504	-0.177769	-0.508832
C20	C	0.834513	-0.107151	-0.494248
C21	C	0.900023	-0.108893	-0.369645
C22	C	0.848530	-0.181262	-0.259639
C23	C	1.238651	-0.117884	0.274336
C24	C	1.304165	-0.119617	0.398940
C25	C	1.252676	-0.191949	0.508963
C26	C	1.135665	-0.262548	0.494392
C27	C	1.070151	-0.260815	0.369788
C28	C	1.121648	-0.188485	0.259765
C29	C	1.492254	0.044665	0.000072
C30	C	1.488562	0.184109	0.000070
C31	C	1.714621	-0.177714	0.000073
C32	C	1.854063	-0.181413	0.000071
C33	C	1.477916	-0.414409	0.000053
C34	C	1.481608	-0.553852	0.000046
N35	N	1.485075	-0.184863	0.356183
C36	C	1.601103	0.263589	0.000075
C37	C	1.597626	0.394610	0.000058
C38	C	1.369058	0.366658	0.000037
C39	C	1.372536	0.235639	0.000044
N40	N	1.485105	-0.184871	-0.356054
C41	C	1.569741	-0.100265	0.428117
C42	C	1.569754	-0.100266	0.572000
C43	C	1.400429	-0.269472	0.572002
C44	C	1.400412	-0.269465	0.428121
H45	H	0.876424	-0.048238	-0.583830
C46	C	1.728727	0.206902	0.000090
C47	C	1.822526	0.236464	0.118786
C48	C	1.950154	0.179781	0.118796
C49	C	1.983982	0.093538	0.000110
C50	C	1.890181	0.063972	-0.118596
C51	C	1.762553	0.120654	-0.118606
H52	H	1.797486	0.300310	0.206653
H53	H	2.019592	0.201668	0.206671
H54	H	2.078460	0.051578	0.000117
H55	H	1.915221	0.000126	-0.206463
H56	H	1.693115	0.098768	-0.206480
C57	C	1.307312	-0.362542	0.651135
C58	C	1.307397	-0.362634	0.809398
C59	C	1.214281	-0.455709	0.888526
C60	C	1.121078	-0.548693	0.809392
C61	C	1.120990	-0.548605	0.651120
C62	C	1.214107	-0.455529	0.571992
H63	H	1.376394	-0.293798	0.867986
H64	H	1.214347	-0.455774	1.005690
H65	H	1.052148	-0.617593	0.867967
H66	H	1.051993	-0.617440	0.592532
H67	H	1.214040	-0.455464	0.454828
C68	C	1.028728	-0.031231	-0.353593
C69	C	1.085373	0.048355	-0.474600
C70	C	1.214084	0.126012	-0.458555
C71	C	1.286150	0.124084	-0.321503
C72	C	1.229505	0.044496	-0.200487
C73	C	1.100794	-0.033162	-0.216532
H74	H	1.032025	0.049785	-0.576062
H75	H	1.256016	0.184928	-0.548140
H76	H	1.381430	0.181571	-0.309626
H77	H	1.282853	0.043066	-0.099024
H78	H	1.058862	-0.092078	-0.126947
C79	C	0.941440	-0.338480	0.353752
C80	C	0.884794	-0.418050	0.474770
C81	C	0.756085	-0.495713	0.458732
C82	C	0.684023	-0.493807	0.321677
C83	C	0.740668	-0.414234	0.200649
C84	C	0.869377	-0.336571	0.216687
H85	H	0.938139	-0.419464	0.576235
H86	H	0.714153	-0.554619	0.548325
H87	H	0.588745	-0.551298	0.309805
H88	H	0.687323	-0.412820	0.099184
H89	H	0.911309	-0.277666	0.127094
H90	H	1.103919	-0.188006	-0.226018
H91	H	1.093734	-0.321436	0.583986
H92	H	1.280886	0.170923	0.000035
H93	H	1.689269	0.459318	0.000060
H94	H	1.399447	-0.062134	0.410794
H95	H	0.664156	-0.176350	-0.610287
H96	H	1.331460	-0.338355	0.369549
H97	H	0.570739	-0.307609	-0.410684
H98	H	0.689598	-0.310785	-0.184654
H99	H	0.866239	-0.181745	0.226131
H100	H	1.306026	-0.193345	0.610425
H101	H	1.280590	-0.058988	0.184747
H102	H	1.638677	-0.031375	0.369547
H103	H	1.274594	0.408630	0.000018
H104	H	1.638695	-0.031377	0.630564
