data_functionalizedCrystal
_audit_creation_method	'MofGen! by Chris Wilmer'
_symmetry_space_group_name_H-M	'P1'
_symmetry_Int_Tables_number	1
_symmetry_cell_setting	triclinic
loop_
_symmetry_equiv_pos_as_xyz
  x,y,z
_cell_length_a	19.188929
_cell_length_b	19.188905
_cell_length_c	9.616153
_cell_angle_alpha	89.986020
_cell_angle_beta	90.024050
_cell_angle_gamma	96.860334
loop_
_atom_site_label
_atom_site_type_symbol
_atom_site_fract_x
_atom_site_fract_y
_atom_site_fract_z
O1	O	-0.087082	0.926159	-0.115941
O2	O	-0.098834	0.722845	-0.115902
O3	O	0.008698	0.830369	-0.115837
O4	O	-0.194614	0.818635	-0.116006
O5	O	0.008696	0.830354	0.115455
O6	O	-0.098836	0.722830	0.115389
O7	O	-0.087084	0.926144	0.115351
Zn8	Zn	-0.092961	0.824485	0.152092
Zn9	Zn	-0.092957	0.824504	-0.152644
O10	O	-0.194616	0.818620	0.115285
C11	C	-0.098458	0.696826	-0.000250
C12	C	-0.097324	0.619321	-0.000231
C13	C	-0.096778	0.582937	-0.126311
C14	C	-0.095705	0.510113	-0.126327
C15	C	-0.095164	0.473678	-0.000256
C16	C	-0.095714	0.510070	0.125840
C17	C	-0.096794	0.582892	0.125853
N18	N	-0.053736	0.364652	0.093600
N19	N	-0.052709	0.295475	0.093579
C20	C	-0.091911	0.254272	-0.000287
N21	N	-0.132171	0.284860	-0.094154
N22	N	-0.133196	0.354043	-0.094137
C23	C	-0.093993	0.394716	-0.000256
C24	C	-0.090203	0.138924	-0.126394
C25	C	-0.089134	0.066098	-0.126405
C26	C	-0.089136	0.066058	0.125766
C27	C	-0.090212	0.138881	0.125774
C28	C	-0.090742	0.175310	-0.000310
C29	C	-0.220626	0.819007	-0.000383
C30	C	-0.298131	0.820148	-0.000449
C31	C	-0.343060	0.757056	-0.000409
C32	C	-0.415884	0.758128	-0.000378
C33	C	-0.443775	0.822295	-0.000359
C34	C	-0.398835	0.885395	-0.000407
C35	C	-0.326013	0.884321	-0.000452
N36	N	-0.551740	0.871337	0.078433
N37	N	-0.620918	0.872353	0.078479
C38	C	-0.663183	0.825533	-0.000226
N39	N	-0.633658	0.777649	-0.078961
N40	N	-0.564473	0.776631	-0.079000
C41	C	-0.522737	0.823466	-0.000311
C42	C	-0.787077	0.763599	-0.000154
C43	C	-0.859902	0.764673	-0.000131
C44	C	-0.842851	0.891942	-0.000146
C45	C	-0.770028	0.890866	-0.000183
C46	C	-0.742146	0.826693	-0.000180
C47	C	0.034708	0.829982	-0.000172
C48	C	0.112213	0.828841	-0.000115
C49	C	-0.087460	0.952163	-0.000305
C50	C	-0.088594	1.029668	-0.000333
N51	N	-0.092962	0.824477	0.360067
N52	N	-0.092950	0.824518	-0.360619
C53	C	-0.150296	0.766787	0.580402
C54	C	-0.150507	0.766910	0.419234
C55	C	-0.108646	0.897282	0.418486
C56	C	-0.109051	0.896967	0.579703
C57	C	-0.019750	0.810090	0.580044
C58	C	-0.020246	0.808408	0.418817
H59	H	-0.088699	0.036392	0.228416
H60	H	-0.090651	0.168505	0.228442
H61	H	-0.161415	0.910336	0.378047
H62	H	-0.004610	0.758169	0.620806
H63	H	-0.008338	0.754853	0.380640
F64	F	-0.095141	0.471292	0.260014
H65	H	-0.090642	0.168585	-0.229059
H66	H	-0.289431	0.935700	-0.000486
F67	F	-0.088559	0.027376	-0.260605
F68	F	-0.178819	0.913629	0.628775
H69	H	-0.865559	0.944188	-0.000232
F70	F	0.038122	0.859820	0.366201
F71	F	0.036027	0.865120	0.629898
H72	H	-0.764374	0.711345	-0.000144
F73	F	-0.097375	0.621615	0.260051
H74	H	-0.141141	0.712491	0.619234
F75	F	-0.313390	0.688757	-0.000417
F76	F	-0.428520	0.953686	-0.000394
H77	H	-0.452473	0.706750	-0.000342
H78	H	-0.896483	0.713294	-0.000108
H79	H	-0.733445	0.942242	-0.000206
H80	H	-0.204834	0.776096	0.380606
H81	H	-0.204317	0.775849	0.620853
F82	F	-0.097345	0.621703	-0.260502
H83	H	-0.095262	0.480484	-0.229000
F84	F	-0.138373	0.696155	0.367608
F85	F	-0.056464	0.954738	0.630700
F86	F	-0.055494	0.954758	0.368395
