data_functionalizedCrystal
_audit_creation_method	'MofGen! by Chris Wilmer'
_symmetry_space_group_name_H-M	'P1'
_symmetry_Int_Tables_number	1
_symmetry_cell_setting	triclinic
loop_
_symmetry_equiv_pos_as_xyz
  x,y,z
_cell_length_a	18.050589
_cell_length_b	10.685980
_cell_length_c	10.685880
_cell_angle_alpha	80.918858
_cell_angle_beta	94.341171
_cell_angle_gamma	94.395014
loop_
_atom_site_label
_atom_site_type_symbol
_atom_site_fract_x
_atom_site_fract_y
_atom_site_fract_z
Zn1	Zn	-0.244701	1.995642	-0.866673
Zn2	Zn	-0.360080	1.979186	-0.654417
Zn3	Zn	-0.244740	1.767082	-0.638146
Zn4	Zn	-0.377693	1.783292	-0.850321
O5	O	-0.306803	1.881300	-0.752389
O6	O	-0.252618	2.171095	-0.852170
O7	O	-0.337425	1.937379	-0.474633
O8	O	-0.140807	1.797504	-0.668494
O9	O	-0.337387	2.159005	-0.696227
O10	O	-0.140778	1.965426	-0.836393
O11	O	-0.252685	1.781548	-0.462678
O12	O	-0.269764	1.591597	-0.652638
O13	O	-0.367406	1.825131	-1.030116
O14	O	-0.367444	1.603506	-0.808522
O15	O	-0.269697	1.981144	-1.042130
O16	O	-0.466344	1.953097	-0.680370
O17	O	-0.479284	1.809174	-0.824300
C18	C	-0.320521	1.551492	-0.727041
C19	C	-0.326408	1.410401	-0.716226
C20	C	-0.499761	1.881146	-0.752356
C21	C	-0.582306	1.881199	-0.752394
C22	C	-0.788816	1.803014	-0.830639
C23	C	-0.834730	1.763184	-0.712440
C24	C	-0.733432	1.881325	-0.752420
C25	C	-0.834598	1.921219	-0.870637
C26	C	-0.879413	1.881445	-0.752455
C27	C	-0.778259	1.841428	-0.634154
C28	C	-0.778123	1.999523	-0.792434
C29	C	-0.824010	1.959730	-0.674158
C30	C	-0.649336	1.881252	-0.752401
C31	C	-0.963507	1.881516	-0.752461
C32	C	-0.113092	1.881493	-0.752453
C33	C	-0.030544	1.881574	-0.752480
C34	C	-0.320512	1.906781	-1.083467
C35	C	-0.326354	1.917639	-1.224553
C36	C	-0.293033	2.212396	-0.777838
C37	C	-0.287165	2.353490	-0.788682
C38	C	-0.293092	1.855992	-0.422605
C39	C	-0.287030	1.845380	-0.281539
H40	H	-0.249060	1.412704	-0.858986
N41	N	-0.376882	1.331959	-0.623089
H42	H	-0.429824	1.356442	-0.644389
H43	H	-0.360500	1.348008	-0.534209
H44	H	-0.753719	1.807619	-0.534158
N45	N	-0.844602	2.047520	-0.586462
H46	H	-0.823922	2.017276	-0.497243
H47	H	-0.900597	2.047622	-0.587618
H48	H	-0.859230	1.954913	-0.970599
N49	N	-0.768035	1.715157	-0.918122
H50	H	-0.788719	1.625924	-0.887739
H51	H	-0.712028	1.716451	-0.918075
N52	N	-0.745324	2.131829	-0.837286
H53	H	-0.765889	2.161850	-0.926628
H54	H	-0.689369	2.130838	-0.836053
H55	H	-0.248896	1.775198	-1.222392
H56	H	-0.859494	1.663284	-0.678625
N57	N	-0.376870	2.010613	-1.302898
H58	H	-0.402280	2.057289	-1.244826
H59	H	-0.415641	1.963097	-1.353921
