data_functionalizedCrystal
_audit_creation_method	'MofGen! by Chris Wilmer'
_symmetry_space_group_name_H-M	'P1'
_symmetry_Int_Tables_number	1
_symmetry_cell_setting	triclinic
loop_
_symmetry_equiv_pos_as_xyz
  x,y,z
_cell_length_a	23.532355
_cell_length_b	22.610064
_cell_length_c	17.699083
_cell_angle_alpha	90.003173
_cell_angle_beta	96.944743
_cell_angle_gamma	90.002356
loop_
_atom_site_label
_atom_site_type_symbol
_atom_site_fract_x
_atom_site_fract_y
_atom_site_fract_z
O1	O	0.755546	0.049105	-0.091680
O2	O	1.255546	0.549105	0.408320
O3	O	0.589717	0.049124	-0.105015
O4	O	1.089717	0.549124	0.394985
O5	O	0.677317	0.049109	0.011867
O6	O	1.177317	0.549109	0.511867
O7	O	0.667946	0.049121	-0.208562
O8	O	1.167946	0.549121	0.291438
O9	O	0.677301	-0.049260	0.011849
O10	O	1.177301	0.450740	0.511849
O11	O	0.589701	-0.049245	-0.105032
O12	O	1.089701	0.450755	0.394968
O13	O	0.755531	-0.049264	-0.091697
O14	O	1.255531	0.450736	0.408303
Zn15	Zn	0.672614	-0.064873	-0.098367
Zn16	Zn	1.172614	0.435127	0.401633
Zn17	Zn	0.672634	0.064733	-0.098345
Zn18	Zn	1.172634	0.564733	0.401655
O19	O	0.667931	-0.049249	-0.208579
O20	O	1.167931	0.450751	0.291421
C21	C	0.568492	-0.000058	-0.104690
C22	C	1.068492	0.499942	0.395310
C23	C	0.505270	-0.000051	-0.103688
C24	C	1.005270	0.499949	0.396312
C25	C	0.113230	-0.053697	-0.097401
C26	C	0.613230	0.446303	0.402599
C27	C	0.053828	-0.053699	-0.096447
C28	C	0.553828	0.446301	0.403553
O29	O	0.023100	-0.099301	-0.095936
O30	O	0.523100	0.400699	0.404064
N31	N	0.024126	-0.000078	-0.095965
N32	N	0.524126	0.499922	0.404035
C33	C	0.053831	0.053548	-0.096429
C34	C	0.553831	0.553548	0.403571
O35	O	0.023113	0.099157	-0.095931
O36	O	0.523113	0.599157	0.404069
C37	C	0.113232	0.053550	-0.097377
C38	C	0.613232	0.553550	0.402623
C39	C	0.142930	-0.000074	-0.097867
C40	C	0.642930	0.499926	0.402133
C41	C	0.142927	-0.107317	-0.097890
C42	C	0.642927	0.392683	0.402110
C43	C	0.202325	-0.107314	-0.098844
C44	C	0.702325	0.392686	0.401156
C45	C	0.232026	-0.053692	-0.099310
C46	C	0.732026	0.446308	0.400690
C47	C	0.202328	-0.000072	-0.098821
C48	C	0.702328	0.499928	0.401179
C49	C	0.142936	0.107176	-0.097835
C50	C	0.642936	0.607176	0.402165
C51	C	0.202342	0.107173	-0.098783
C52	C	0.702342	0.607173	0.401217
C53	C	0.232040	0.053549	-0.099272
C54	C	0.732040	0.553549	0.400728
C55	C	0.291426	0.053553	-0.100242
C56	C	0.791426	0.553553	0.399758
N57	N	0.321127	-0.000068	-0.100724
N58	N	0.821127	0.499932	0.399276
C59	C	0.291427	-0.053690	-0.100258
C60	C	0.791427	0.446310	0.399742
C61	C	-0.070917	0.053541	-0.094437
C62	C	0.429083	0.553541	0.405563
C63	C	-0.130318	0.053539	-0.093494
C64	C	0.369682	0.553539	0.406506
C65	C	-0.130317	-0.053708	-0.093511
C66	C	0.369683	0.446292	0.406489
C67	C	-0.070915	-0.053707	-0.094459
C68	C	0.429085	0.446293	0.405541
C69	C	-0.041215	-0.000080	-0.094919
C70	C	0.458785	0.499920	0.405081
C71	C	0.416167	-0.053681	-0.102264
C72	C	0.916167	0.446319	0.397736
C73	C	0.475570	-0.053673	-0.103222
C74	C	0.975570	0.446327	0.396778
C75	C	0.475564	0.053574	-0.103201
C76	C	0.975564	0.553574	0.396799
C77	C	0.416166	0.053567	-0.102247
C78	C	0.916166	0.553567	0.397753
C79	C	0.386469	-0.000065	-0.101776
C80	C	0.886469	0.499935	0.398224
O81	O	0.322191	0.099132	-0.100751
O82	O	0.822191	0.599132	0.399249
O83	O	0.322153	-0.099291	-0.100747
O84	O	0.822153	0.400709	0.399253
N85	N	0.672604	-0.153325	-0.098382
N86	N	1.172604	0.346675	0.401618
C87	C	0.711425	-0.561973	-0.046598
C88	C	1.211425	-0.061973	0.453402
C89	C	0.711428	-0.623893	-0.046592
C90	C	1.211428	-0.123893	0.453408
O91	O	0.744410	-0.655918	-0.002574
O92	O	1.244410	-0.155918	0.497426
N93	N	0.672633	-0.654862	-0.098329
N94	N	1.172633	-0.154862	0.401671
C95	C	0.633830	-0.623908	-0.150070
C96	C	1.133830	-0.123908	0.349930
O97	O	0.600832	-0.655936	-0.194076
O98	O	1.100832	-0.155936	0.305924
C99	C	0.633825	-0.561989	-0.150071
C100	C	1.133825	-0.061989	0.349929
C101	C	0.672625	-0.531023	-0.098336
C102	C	1.172625	-0.031023	0.401664
C103	C	0.750222	-0.531007	0.005134
C104	C	1.250222	-0.031007	0.505134
C105	C	0.750220	-0.469092	0.005128
C106	C	1.250220	0.030908	0.505128
C107	C	0.711420	-0.438142	-0.046611
C108	C	1.211420	0.061858	0.453389
C109	C	0.672623	-0.469108	-0.098343
C110	C	1.172623	0.030892	0.401657
C111	C	0.595019	-0.531036	-0.201808
C112	C	1.095019	-0.031036	0.298192
C113	C	0.595017	-0.469113	-0.201804
C114	C	1.095017	0.030887	0.298196
C115	C	0.633817	-0.438148	-0.150069
C116	C	1.133817	0.061852	0.349931
C117	C	0.633821	-0.376243	-0.150088
C118	C	1.133821	0.123757	0.349912
N119	N	0.672616	-0.345273	-0.098351
N120	N	1.172616	0.154727	0.401649
C121	C	0.711415	-0.376223	-0.046612
C122	C	1.211415	0.123777	0.453388
C123	C	0.633843	-0.753942	-0.150062
C124	C	1.133843	-0.253942	0.349938
C125	C	0.633851	-0.815859	-0.150065
C126	C	1.133851	-0.315859	0.349935
C127	C	0.711448	-0.815840	-0.046586
C128	C	1.211448	-0.315840	0.453414
C129	C	0.711443	-0.753921	-0.046588
C130	C	1.211443	-0.253921	0.453412
C131	C	0.672637	-0.722973	-0.098325
C132	C	1.172637	-0.222973	0.401675
C133	C	0.711407	-0.246196	-0.046630
C134	C	1.211407	0.253804	0.453370
C135	C	0.711403	-0.184275	-0.046644
C136	C	1.211403	0.315725	0.453356
C137	C	0.633804	-0.184299	-0.150120
C138	C	1.133804	0.315701	0.349880
C139	C	0.633810	-0.246215	-0.150110
C140	C	1.133810	0.253785	0.349890
C141	C	0.672614	-0.277162	-0.098359
C142	C	1.172614	0.222838	0.401641
O143	O	0.600854	-0.344179	-0.194081
O144	O	1.100854	0.155821	0.305919
O145	O	0.744402	-0.344188	-0.002607
O146	O	1.244402	0.155812	0.497393
C147	C	0.776756	-0.000080	-0.092022
C148	C	1.276756	0.499920	0.407978
C149	C	0.839977	-0.000084	-0.093024
C150	C	1.339977	0.499916	0.406976
C151	C	0.676973	-0.000076	0.040053
C152	C	1.176973	0.499924	0.540053
C153	C	0.675966	-0.000076	0.124066
C154	C	1.175966	0.499924	0.624066
N155	N	0.672648	0.153185	-0.098324
N156	N	1.172648	0.653185	0.401676
C157	C	0.668274	-0.000063	-0.236765
C158	C	1.168274	0.499937	0.263235
C159	C	0.669282	-0.000059	-0.320778
C160	C	1.169282	0.499941	0.179222
C161	C	0.727385	-0.000082	0.172961
C162	C	1.227385	0.499918	0.672961
C163	C	0.726435	-0.000077	0.251899
C164	C	1.226435	0.499923	0.751899
C165	C	0.674066	-0.000069	0.281941
C166	C	1.174066	0.499931	0.781941
C167	C	0.622642	-0.000061	0.233040
C168	C	1.122642	0.499939	0.733040
C169	C	0.623593	-0.000062	0.154103
C170	C	1.123593	0.499938	0.654103
C171	C	0.618808	-0.000055	0.551383
C172	C	1.118808	0.499945	1.051383
C173	C	0.617862	-0.000056	0.630326
C174	C	1.117862	0.499944	1.130326
C175	C	0.721651	-0.000071	0.649178
C176	C	1.221651	0.499929	1.149178
C177	C	0.722601	-0.000072	0.570241
C178	C	1.222601	0.499928	1.070241
C179	C	0.671178	-0.000060	0.521348
C180	C	1.171178	0.499940	1.021348
C181	C	0.672209	-0.000065	0.435754
C182	C	1.172209	0.499935	0.935754
C183	C	0.673034	-0.000069	0.367533
C184	C	1.173034	0.499931	0.867533
H185	H	0.499756	0.097232	-0.103584
H186	H	0.999756	0.597232	0.396416
H187	H	0.768306	-0.000084	0.291706
H188	H	1.268306	0.499916	0.791706
H189	H	0.575214	-0.000051	0.654782
H190	H	1.075214	0.499949	1.154782
Cl191	Cl	0.378843	-0.121105	-0.101672
Cl192	Cl	0.878843	0.378895	0.398328
Cl193	Cl	0.239675	0.174593	-0.099359
Cl194	Cl	0.739675	0.674593	0.400641
Cl195	Cl	0.585059	-0.715041	-0.215117
Cl196	Cl	1.085059	-0.215041	0.284883
H197	H	0.391984	0.097232	-0.101861
H198	H	0.891984	0.597232	0.398139
Cl199	Cl	0.760223	-0.854761	0.018458
Cl200	Cl	1.260223	-0.354761	0.518458
Cl201	Cl	0.760185	-0.145349	0.018398
Cl202	Cl	1.260185	0.354651	0.518398
H203	H	0.118767	0.150843	-0.097435
H204	H	0.618767	0.650843	0.402565
Cl205	Cl	0.554162	-0.000039	0.489926
Cl206	Cl	1.054162	0.499961	0.989926
H207	H	0.226500	-0.150981	-0.099239
H208	H	0.726500	0.349019	0.400761
H209	H	0.602261	-0.841068	-0.192201
H210	H	1.102261	-0.341068	0.307799
Cl211	Cl	0.788440	-0.000080	0.532479
Cl212	Cl	1.288440	0.499920	1.032479
H213	H	0.602221	-0.271428	-0.192244
H214	H	1.102221	0.228572	0.307756
H215	H	0.580002	-0.000051	0.257506
H216	H	1.080002	0.499949	0.757506
H217	H	0.581722	-0.000056	0.114293
H218	H	1.081722	0.499944	0.614293
H219	H	0.743004	-0.271386	-0.004489
H220	H	1.243004	0.228614	0.495511
Cl221	Cl	0.786298	-0.000083	0.710650
Cl222	Cl	1.286298	0.499917	1.210650
Cl223	Cl	0.512900	-0.121092	-0.103840
Cl224	Cl	1.012900	0.378908	0.396160
Cl225	Cl	0.793225	-0.000098	0.135202
Cl226	Cl	1.293225	0.499902	0.635202
Cl227	Cl	0.798995	-0.430170	0.070174
Cl228	Cl	1.298995	0.069830	0.570174
Cl229	Cl	0.546237	-0.569953	-0.266848
Cl230	Cl	1.046237	-0.069953	0.233152
Cl231	Cl	0.546229	-0.430211	-0.266850
Cl232	Cl	1.046229	0.069789	0.233150
H233	H	0.118752	-0.150985	-0.097509
H234	H	0.618752	0.349015	0.402491
Cl235	Cl	-0.033587	-0.121122	-0.095072
Cl236	Cl	0.466413	0.378878	0.404928
Cl237	Cl	-0.167665	-0.121120	-0.092922
Cl238	Cl	0.332335	0.378880	0.407078
Cl239	Cl	-0.167646	0.120956	-0.092894
Cl240	Cl	0.332354	0.620956	0.407106
H241	H	0.781817	-0.556201	0.047269
H242	H	1.281817	-0.056201	0.547269
Cl243	Cl	0.760221	-0.715000	0.018455
Cl244	Cl	1.260221	-0.215000	0.518455
Cl245	Cl	0.585030	-0.145381	-0.215161
Cl246	Cl	1.085030	0.354619	0.284839
H247	H	-0.046739	0.097212	-0.094818
H248	H	0.453261	0.597212	0.405182
