data_functionalizedCrystal
_audit_creation_method	'MofGen! by Chris Wilmer'
_symmetry_space_group_name_H-M	'P1'
_symmetry_Int_Tables_number	1
_symmetry_cell_setting	triclinic
loop_
_symmetry_equiv_pos_as_xyz
  x,y,z
_cell_length_a	16.109302
_cell_length_b	10.723024
_cell_length_c	14.586319
_cell_angle_alpha	89.997376
_cell_angle_beta	89.994552
_cell_angle_gamma	83.964825
loop_
_atom_site_label
_atom_site_type_symbol
_atom_site_fract_x
_atom_site_fract_y
_atom_site_fract_z
O1	O	1.104074	0.160395	-0.076279
O2	O	1.604074	0.660395	0.423721
O3	O	0.862130	0.180354	-0.076272
O4	O	1.362130	0.680354	0.423728
O5	O	0.988683	-0.011275	-0.076272
O6	O	1.488683	0.488725	0.423728
O7	O	0.977521	0.352025	-0.076279
O8	O	1.477521	0.852025	0.423721
O9	O	0.988674	-0.011278	0.076209
O10	O	1.488674	0.488722	0.576209
O11	O	0.862121	0.180352	0.076209
O12	O	1.362121	0.680352	0.576209
O13	O	1.104065	0.160392	0.076202
O14	O	1.604065	0.660392	0.576202
Cu15	Cu	0.983092	0.170372	0.090128
Cu16	Cu	1.483092	0.670372	0.590128
Cu17	Cu	0.983103	0.170375	-0.090198
Cu18	Cu	1.483103	0.670375	0.409802
O19	O	0.977512	0.352022	0.076202
O20	O	1.477512	0.852022	0.576202
C21	C	0.831146	0.179544	-0.000030
C22	C	1.331146	0.679544	0.499970
C23	C	0.738836	0.177120	-0.000028
C24	C	1.238836	0.677120	0.499972
C25	C	0.526457	0.171513	0.083081
C26	C	1.026457	0.671513	0.583081
C27	C	0.439724	0.169221	0.083078
C28	C	0.939724	0.669221	0.583078
C29	C	0.439744	0.169231	-0.083165
C30	C	0.939744	0.669231	0.416835
C31	C	0.526477	0.171513	-0.083161
C32	C	1.026477	0.671513	0.416839
C33	C	0.569831	0.172660	-0.000035
C34	C	1.069831	0.672660	0.499965
C35	C	0.396364	0.168086	-0.000043
C36	C	0.896364	0.668086	0.499957
C37	C	0.302324	0.165602	-0.000047
C38	C	0.802324	0.665602	0.499953
C39	C	0.663877	0.175142	-0.000031
C40	C	1.163877	0.675142	0.499969
C41	C	0.987866	-0.057766	-0.000033
C42	C	1.487866	0.442234	0.499967
C43	C	0.985436	-0.196288	-0.000036
C44	C	1.485436	0.303712	0.499964
C45	C	1.056248	-0.272209	-0.000040
C46	C	1.556248	0.227791	0.499960
C47	C	1.053738	-0.415379	-0.000043
C48	C	1.553738	0.084621	0.499957
C49	C	1.135049	0.161202	-0.000042
C50	C	1.635049	0.661202	0.499958
C51	C	1.227359	0.163627	-0.000051
C52	C	1.727359	0.663627	0.499949
C53	C	0.978329	0.398512	-0.000039
C54	C	1.478329	0.898512	0.499961
C55	C	0.980759	0.537034	-0.000042
C56	C	1.480759	1.037034	0.499958
N57	N	0.983091	0.170369	0.216960
N58	N	1.483091	0.670369	0.716960
N59	N	0.983111	0.170368	-0.217030
N60	N	1.483111	0.670368	0.282970
C61	C	1.039147	0.085543	0.451966
C62	C	1.539147	0.585543	0.951966
C63	C	1.039150	0.085540	0.547947
C64	C	1.539150	0.585540	1.047947
C65	C	0.927048	0.255198	0.547957
C66	C	1.427048	0.755198	1.047957
C67	C	0.927042	0.255194	0.451978
C68	C	1.427042	0.755194	0.951978
C69	C	0.983097	0.170368	0.403985
C70	C	1.483097	0.670368	0.903985
C71	C	0.983105	0.170369	0.595945
C72	C	1.483105	0.670369	1.095945
C73	C	0.983107	0.170366	0.700012
C74	C	1.483107	0.670366	1.200012
C75	C	0.983094	0.170369	0.299911
C76	C	1.483094	0.670369	0.799911
H77	H	0.404413	0.168287	0.150759
H78	H	0.904413	0.668287	0.650759
Cl79	Cl	1.109613	-0.021100	0.391636
Cl80	Cl	1.609613	0.478900	0.891636
H81	H	1.084790	0.016467	0.587011
H82	H	1.584790	0.516467	1.087011
H83	H	0.404435	0.168298	-0.150843
H84	H	0.904435	0.668298	0.349157
Cl85	Cl	0.856569	0.361833	0.391652
Cl86	Cl	1.356569	0.861833	0.891652
H87	H	0.881411	0.324263	0.587043
H88	H	1.381411	0.824263	1.087043
H89	H	0.561754	0.172447	0.150767
H90	H	1.061754	0.672447	0.650767
H91	H	0.561792	0.172444	-0.150849
H92	H	1.061792	0.672444	0.349151
Cl93	Cl	1.152723	-0.208929	-0.000048
Cl94	Cl	1.652723	0.291071	0.499952
Cl95	Cl	0.887156	-0.362260	-0.000030
Cl96	Cl	1.387156	0.137740	0.499970
Cl97	Cl	1.147338	-0.516092	-0.000040
Cl98	Cl	1.647338	-0.016092	0.499960
Cl99	Cl	0.888961	-0.259568	-0.000042
Cl100	Cl	1.388961	0.240432	0.499958
