data_functionalizedCrystal
_audit_creation_method	'MofGen! by Chris Wilmer'
_symmetry_space_group_name_H-M	'P1'
_symmetry_Int_Tables_number	1
_symmetry_cell_setting	triclinic
loop_
_symmetry_equiv_pos_as_xyz
  x,y,z
_cell_length_a	17.699097
_cell_length_b	17.699083
_cell_length_c	16.176319
_cell_angle_alpha	89.992304
_cell_angle_beta	89.988988
_cell_angle_gamma	83.285722
loop_
_atom_site_label
_atom_site_type_symbol
_atom_site_fract_x
_atom_site_fract_y
_atom_site_fract_z
O1	O	1.004072	0.095761	-0.068817
O2	O	0.783695	0.108203	-0.068804
O3	O	0.900110	-0.008207	-0.068803
O4	O	0.887658	0.212171	-0.068817
O5	O	0.900094	-0.008214	0.068690
O6	O	0.783679	0.108195	0.068690
O7	O	1.004056	0.095754	0.068676
Cu8	Cu	0.893867	0.101974	0.081237
Cu9	Cu	0.893885	0.101983	-0.081364
O10	O	0.887642	0.212163	0.068676
C11	C	0.755491	0.107752	-0.000055
C12	C	0.671473	0.106409	-0.000050
C13	C	0.155764	0.098184	-0.075030
C14	C	0.234708	0.099440	-0.075026
C15	C	0.274165	0.100065	-0.000076
C16	C	0.234675	0.099427	0.074876
C17	C	0.155733	0.098165	0.074871
C18	C	0.553039	0.104514	0.074898
C19	C	0.631986	0.105778	0.074897
C20	C	0.632014	0.105789	-0.075000
C21	C	0.553072	0.104527	-0.075005
C22	C	0.513589	0.103885	-0.000054
C23	C	0.427989	0.102521	-0.000059
C24	C	0.359763	0.101434	-0.000069
C25	C	0.899656	-0.036408	-0.000057
C26	C	0.898317	-0.120426	-0.000056
C27	C	0.966650	-0.169044	-0.000059
C28	C	0.965388	-0.247987	-0.000066
C29	C	0.895792	-0.278311	-0.000065
C30	C	0.827454	-0.229687	-0.000064
C31	C	0.828717	-0.150745	-0.000063
C32	C	0.822359	-0.548050	-0.000071
C33	C	0.821101	-0.626998	-0.000070
C34	C	0.959030	-0.645292	-0.000074
C35	C	0.960293	-0.566350	-0.000073
C36	C	0.891955	-0.517733	-0.000077
C37	C	0.893325	-0.432134	-0.000070
C38	C	0.894422	-0.363909	-0.000065
C39	C	1.032261	0.096205	-0.000074
C40	C	1.116279	0.097547	-0.000084
C41	C	0.888096	0.240364	-0.000073
C42	C	0.889435	0.324382	-0.000078
N43	N	0.893859	0.101967	0.195602
N44	N	0.893899	0.101983	-0.195730
C45	C	0.945423	0.050442	0.238867
C46	C	0.945426	0.050441	0.325414
C47	C	0.893869	0.101970	0.368695
C48	C	0.842300	0.153498	0.325425
C49	C	0.842293	0.153494	0.238879
C50	C	0.842326	0.153512	0.674453
C51	C	0.842338	0.153513	0.761004
C52	C	0.945459	0.050459	0.760988
C53	C	0.945452	0.050455	0.674442
C54	C	0.893881	0.101980	0.631179
C55	C	0.893876	0.101979	0.537335
C56	C	0.893877	0.101975	0.462538
H57	H	0.664110	0.106287	0.135935
H58	H	0.800304	0.195450	0.203654
H59	H	0.987437	0.008498	0.639205
C60	C	1.001506	-0.005525	0.372237
C61	C	1.046676	-0.050632	0.315810
C62	C	1.098356	-0.102189	0.358912
H63	H	0.974443	-0.037078	0.406020
H64	H	1.032997	0.021656	0.405962
H65	H	1.015188	-0.077811	0.282099
H66	H	1.073755	-0.019100	0.282025
H67	H	1.129848	-0.075008	0.392637
H68	H	1.071287	-0.133736	0.392693
H69	H	1.129015	-0.132795	0.320633
H70	H	0.520903	0.103980	0.135928
H71	H	0.800336	0.195466	0.639235
H72	H	0.987450	0.008502	0.796221
C73	C	0.277643	0.100147	0.156167
C74	C	0.355226	0.101411	0.140133
C75	C	0.394827	0.102087	0.214999
H76	H	0.270643	0.055833	0.187027
H77	H	0.258885	0.144075	0.186966
H78	H	0.373977	0.057486	0.109347
H79	H	0.362249	0.145722	0.109286
H80	H	0.376070	0.146016	0.245798
H81	H	0.387821	0.057773	0.245853
H82	H	0.447470	0.102952	0.204130
H83	H	0.123585	0.097655	0.135900
H84	H	0.800318	0.195451	0.360669
C85	C	1.039498	-0.300898	-0.000115
C86	C	1.023500	-0.376522	-0.000145
C87	C	1.091753	-0.425285	-0.000206
H88	H	1.068092	-0.291829	0.047818
H89	H	1.068051	-0.291753	-0.048082
H90	H	0.994959	-0.385664	0.047817
H91	H	0.994916	-0.385616	-0.048075
H92	H	1.120307	-0.416140	-0.048173
H93	H	1.120343	-0.416209	0.047728
H94	H	1.080908	-0.476601	-0.000234
C95	C	0.786268	0.209490	0.807848
C96	C	0.741086	0.254598	0.751438
C97	C	0.689423	0.306162	0.794560
H98	H	0.813344	0.241041	0.841598
H99	H	0.754783	0.182314	0.841608
H100	H	0.772567	0.281772	0.717692
H101	H	0.713994	0.223068	0.717687
H102	H	0.657938	0.278986	0.828320
H103	H	0.716506	0.337707	0.828308
H104	H	0.658757	0.336769	0.756293
C105	C	0.751813	-0.262461	-0.000108
C106	C	0.692240	-0.202984	-0.000129
C107	C	0.622548	-0.233144	-0.000179
H108	H	0.748337	-0.292870	0.047826
H109	H	0.748421	-0.292848	-0.048074
H110	H	0.695631	-0.172609	0.047833
H111	H	0.695691	-0.172570	-0.048059
H112	H	0.619156	-0.263531	-0.048146
H113	H	0.619080	-0.263552	0.047755
H114	H	0.582120	-0.192794	-0.000201
H115	H	1.023323	-0.144360	-0.000055
C116	C	0.113069	0.097472	-0.156495
C117	C	0.164552	0.098278	-0.222127
C118	C	0.125253	0.097611	-0.297186
H119	H	0.076422	0.141087	-0.159732
H120	H	0.088144	0.052844	-0.159657
H121	H	0.189464	0.142901	-0.218967
H122	H	0.201200	0.054666	-0.218917
H123	H	0.100328	0.052984	-0.300348
H124	H	0.088607	0.141228	-0.300415
H125	H	0.160179	0.098151	-0.341727
H126	H	0.266853	0.099954	-0.136055
C127	C	1.033205	-0.698115	-0.000251
C128	C	1.036531	-0.743945	-0.071002
C129	C	1.104852	-0.792605	-0.071196
H130	H	1.035647	-0.729370	0.047638
H131	H	1.074855	-0.668774	-0.000293
H132	H	0.994893	-0.773283	-0.070952
H133	H	1.034102	-0.712711	-0.118902
H134	H	1.146502	-0.763264	-0.071238
H135	H	1.107287	-0.823855	-0.023305
H136	H	1.107121	-0.823701	-0.119203
H137	H	0.520949	0.104022	-0.136038
H138	H	0.987409	0.008485	0.203633
C139	C	0.674801	0.106361	-0.156441
C140	C	0.664222	0.040980	-0.201671
C141	C	0.703614	0.041490	-0.276700
H142	H	0.727484	0.107161	-0.145827
H143	H	0.656002	0.150254	-0.187279
H144	H	0.683024	-0.002902	-0.170839
H145	H	0.611547	0.040167	-0.212307
H146	H	0.684815	0.085383	-0.307539
H147	H	0.756295	0.042292	-0.266078
H148	H	0.696436	-0.002866	-0.307401
C149	C	1.035932	-0.533575	-0.000118
C150	C	1.095507	-0.593050	-0.000145
C151	C	1.165198	-0.562887	-0.000201
H152	H	1.039396	-0.503176	0.047816
H153	H	1.039336	-0.503176	-0.048085
H154	H	1.092105	-0.623435	0.047817
H155	H	1.092069	-0.623453	-0.048075
H156	H	1.168601	-0.532489	-0.048168
H157	H	1.168653	-0.532489	0.047733
H158	H	1.205628	-0.603236	-0.000227
C159	C	0.754583	-0.097869	0.000070
C160	C	0.751276	-0.052006	0.070796
C161	C	0.682998	-0.003281	0.070936
H162	H	0.712891	-0.127138	0.000115
H163	H	0.752211	-0.066644	-0.047853
H164	H	0.753641	-0.083226	0.118706
H165	H	0.792952	-0.022720	0.070766
H166	H	0.680625	0.027943	0.023013
H167	H	0.641311	-0.032557	0.070978
H168	H	0.680748	0.027847	0.118918
H169	H	0.764424	-0.651685	-0.000067
H170	H	0.766714	-0.508475	-0.000074
