data_functionalizedCrystal
_audit_creation_method	'MofGen! by Chris Wilmer'
_symmetry_space_group_name_H-M	'P1'
_symmetry_Int_Tables_number	1
_symmetry_cell_setting	triclinic
loop_
_symmetry_equiv_pos_as_xyz
  x,y,z
_cell_length_a	15.944545
_cell_length_b	15.944493
_cell_length_c	9.730223
_cell_angle_alpha	90.004543
_cell_angle_beta	90.002580
_cell_angle_gamma	83.485608
loop_
_atom_site_label
_atom_site_type_symbol
_atom_site_fract_x
_atom_site_fract_y
_atom_site_fract_z
O1	O	1.114500	0.108306	-0.114183
O2	O	0.869947	0.121668	-0.114203
O3	O	0.998927	-0.007291	-0.114204
O4	O	0.985520	0.237266	-0.114182
O5	O	0.998926	-0.007288	0.114376
O6	O	0.869945	0.121672	0.114377
O7	O	1.114499	0.108310	0.114397
Zn8	Zn	0.992222	0.114991	0.150679
Zn9	Zn	0.992224	0.114987	-0.150485
O10	O	0.985518	0.237269	0.114398
C11	C	0.838652	0.121116	0.000084
C12	C	0.745406	0.119456	0.000076
C13	C	0.474791	0.034560	0.000083
C14	C	0.525364	0.075492	0.112792
C15	C	0.409764	0.113535	0.000099
C16	C	0.525346	0.075510	-0.112570
C17	C	0.574677	0.116440	0.000085
C18	C	0.459108	0.154446	0.112901
C19	C	0.459086	0.154452	-0.112563
C20	C	0.509626	0.195442	0.000174
C21	C	0.314762	0.111860	0.000108
C22	C	0.669676	0.118122	0.000086
C23	C	0.998378	-0.038584	0.000080
C24	C	0.996735	-0.131833	0.000063
C25	C	1.072656	-0.367594	0.000095
C26	C	1.031716	-0.418163	-0.112609
C27	C	0.993691	-0.302554	0.000079
C28	C	1.031696	-0.418136	0.112752
C29	C	0.990757	-0.467463	0.000101
C30	C	0.952772	-0.351894	-0.112718
C31	C	0.952764	-0.351864	0.112745
C32	C	0.911766	-0.402400	0.000013
C33	C	0.995384	-0.207554	0.000065
C34	C	0.989058	-0.562460	0.000105
C35	C	1.145793	0.108862	0.000107
C36	C	1.239039	0.110522	0.000107
C37	C	0.986067	0.268562	0.000111
C38	C	0.987710	0.361811	0.000120
N39	N	0.992227	0.114993	0.356216
N40	N	0.992226	0.114978	-0.356021
C41	C	1.049353	0.057909	0.428141
C42	C	1.049351	0.057899	0.572024
C43	C	0.935093	0.172064	0.572043
C44	C	0.935091	0.172070	0.428163
C45	C	1.106489	0.000833	0.356194
C46	C	1.163621	-0.056255	0.428120
C47	C	1.163619	-0.056265	0.572003
C48	C	1.106484	0.000813	0.643960
H49	H	0.554271	0.042142	-0.207851
H50	H	0.919444	-0.323075	-0.208103
H51	H	1.106482	0.000794	0.761119
H52	H	0.843695	-0.417864	-0.000054
O53	O	0.879632	0.227440	0.358072
C54	C	0.891896	0.215216	0.215653
H55	H	0.923307	0.148453	0.195996
H56	H	0.828287	0.224517	0.160966
H57	H	0.934009	0.262790	0.174833
H58	H	0.919444	-0.322901	0.208027
H59	H	0.888577	0.218536	0.630640
O60	O	1.153801	-0.348953	-0.000299
C61	C	1.195134	-0.382883	-0.119348
H62	H	1.146353	-0.392223	-0.201965
H63	H	1.240112	-0.337610	-0.158710
H64	H	1.232361	-0.446251	-0.093638
O65	O	1.071610	-0.452703	0.226283
C66	C	1.139867	-0.511545	0.185832
H67	H	1.160432	-0.496042	0.077433
H68	H	1.194841	-0.508360	0.259849
H69	H	1.119525	-0.577815	0.187504
O70	O	1.071558	-0.452570	-0.226316
C71	C	1.101711	-0.388260	-0.305480
H72	H	1.109585	-0.331682	-0.236969
H73	H	1.165247	-0.412788	-0.352608
H74	H	1.054686	-0.368309	-0.390876
H75	H	1.106497	0.000838	0.239037
H76	H	0.459152	-0.033454	0.000186
H77	H	0.430134	0.187775	-0.207846
O78	O	1.219055	-0.111647	0.358014
C79	C	1.206780	-0.099430	0.215598
H80	H	1.175414	-0.032651	0.195944
H81	H	1.270380	-0.108783	0.160895
H82	H	1.164622	-0.146973	0.174791
H83	H	1.210132	-0.102754	0.630563
H84	H	0.554301	0.042140	0.208072
H85	H	0.430291	0.187775	0.208289
H86	H	0.525104	0.263508	0.000246
