data_functionalizedCrystal
_audit_creation_method	'MofGen! by Chris Wilmer'
_symmetry_space_group_name_H-M	'P1'
_symmetry_Int_Tables_number	1
_symmetry_cell_setting	triclinic
loop_
_symmetry_equiv_pos_as_xyz
  x,y,z
_cell_length_a	17.000371
_cell_length_b	17.038272
_cell_length_c	15.500346
_cell_angle_alpha	92.974377
_cell_angle_beta	93.369380
_cell_angle_gamma	83.355402
loop_
_atom_site_label
_atom_site_type_symbol
_atom_site_fract_x
_atom_site_fract_y
_atom_site_fract_z
O1	O	1.061505	0.031029	0.071947
O2	O	1.394838	0.364362	0.405280
O3	O	1.728172	0.697695	0.738614
O4	O	0.831685	0.059274	0.071948
O5	O	1.165018	0.392607	0.405282
O6	O	1.498351	0.725940	0.738615
O7	O	0.945229	-0.068571	0.071941
O8	O	1.278562	0.264762	0.405274
O9	O	1.611895	0.598096	0.738608
O10	O	0.947961	0.158873	0.071955
O11	O	1.281294	0.492207	0.405288
O12	O	1.614628	0.825540	0.738621
O13	O	0.938211	-0.074546	-0.071946
O14	O	1.271545	0.258787	0.261388
O15	O	1.604878	0.592121	0.594721
O16	O	0.824667	0.053299	-0.071938
O17	O	1.158001	0.386632	0.261395
O18	O	1.491334	0.719965	0.594728
O19	O	1.054488	0.025054	-0.071939
O20	O	1.387821	0.358387	0.261394
O21	O	1.721154	0.691720	0.594727
Cu22	Cu	0.938937	0.038631	-0.085077
Cu23	Cu	1.272270	0.371964	0.248257
Cu24	Cu	1.605603	0.705297	0.581590
Cu25	Cu	0.947236	0.045697	0.085086
Cu26	Cu	1.280569	0.379030	0.418419
Cu27	Cu	1.613902	0.712363	0.751752
O28	O	0.940944	0.152898	-0.071932
O29	O	1.274277	0.486232	0.261401
O30	O	1.607610	0.819565	0.594735
C31	C	0.798625	0.057803	0.000005
C32	C	1.131959	0.391137	0.333338
C33	C	1.465292	0.724470	0.666672
C34	C	0.710572	0.062314	0.000005
C35	C	1.043905	0.395648	0.333339
C36	C	1.377239	0.728981	0.666672
C37	C	0.673845	-0.007108	-0.000000
C38	C	1.007179	0.326226	0.333333
C39	C	1.340512	0.659559	0.666666
C40	C	0.591110	-0.002864	0.000006
C41	C	0.924443	0.330469	0.333340
C42	C	1.257777	0.663803	0.666673
C43	C	0.545103	0.070802	0.000012
C44	C	0.878436	0.404136	0.333346
C45	C	1.211769	0.737469	0.666679
C46	C	0.581835	0.140230	0.000021
C47	C	0.915168	0.473563	0.333354
C48	C	1.248501	0.806896	0.666687
C49	C	0.664569	0.135985	0.000020
C50	C	0.997902	0.469319	0.333354
C51	C	1.331236	0.802652	0.666687
C52	C	0.295067	0.087196	0.000019
C53	C	0.628400	0.420530	0.333352
C54	C	0.961734	0.753863	0.666686
C55	C	0.212327	0.091435	0.000017
C56	C	0.545661	0.424769	0.333350
C57	C	0.878994	0.758102	0.666683
C58	C	0.221609	-0.051659	0.000004
C59	C	0.554942	0.281675	0.333337
C60	C	0.888275	0.615008	0.666671
C61	C	0.304344	-0.055897	-0.000001
C62	C	0.637677	0.277437	0.333332
C63	C	0.971010	0.610770	0.666665
C64	C	0.341069	0.013531	0.000011
C65	C	0.674402	0.346864	0.333345
C66	C	1.007735	0.680197	0.666678
C67	C	0.460534	0.075142	0.000016
C68	C	0.793867	0.408475	0.333349
C69	C	1.127200	0.741808	0.666683
C70	C	0.425637	0.009191	0.000014
C71	C	0.758970	0.342524	0.333347
C72	C	1.092303	0.675858	0.666680
C73	C	0.939235	-0.100517	-0.000002
C74	C	1.272569	0.232817	0.333331
C75	C	1.605902	0.566150	0.666664
C76	C	0.931823	-0.186802	-0.000002
C77	C	1.265156	0.146532	0.333331
C78	C	1.598489	0.479865	0.666665
C79	C	0.999881	-0.241577	-0.000003
C80	C	1.333214	0.091756	0.333330
C81	C	1.666548	0.425089	0.666663
C82	C	0.992912	-0.322650	0.000005
C83	C	1.326245	0.010683	0.333338
C84	C	1.659578	0.344017	0.666672
C85	C	0.917883	-0.348946	0.000008
C86	C	1.251216	-0.015613	0.333342
C87	C	1.584549	0.317721	0.666675
C88	C	0.849819	-0.294164	0.000012
C89	C	1.183153	0.039170	0.333346
C90	C	1.516486	0.372503	0.666679
C91	C	0.856790	-0.213092	0.000010
C92	C	1.190123	0.120241	0.333343
C93	C	1.523456	0.453575	0.666677
C94	C	0.893257	-0.593017	0.000020
C95	C	1.226591	-0.259683	0.333354
C96	C	1.559924	0.073650	0.666687
C97	C	0.886292	-0.674095	0.000020
C98	C	1.219625	-0.340762	0.333353
C99	C	1.552958	-0.007428	0.666686
C100	C	1.029385	-0.702576	0.000014
C101	C	1.362718	-0.369243	0.333348
C102	C	1.696052	-0.035909	0.666681
C103	C	1.036349	-0.621502	0.000007
C104	C	1.369682	-0.288169	0.333340
C105	C	1.703015	0.045165	0.666674
C106	C	0.968285	-0.566727	0.000015
C107	C	1.301619	-0.233393	0.333349
C108	C	1.634952	0.099940	0.666682
C109	C	0.910757	-0.431815	0.000014
C110	C	1.244090	-0.098482	0.333347
C111	C	1.577423	0.234851	0.666681
C112	C	0.975412	-0.483859	0.000016
C113	C	1.308746	-0.150525	0.333349
C114	C	1.642079	0.182808	0.666682
C115	C	1.087547	0.026524	0.000006
C116	C	1.420881	0.359857	0.333339
C117	C	1.754214	0.693191	0.666672
C118	C	1.175601	0.022013	0.000011
C119	C	1.508934	0.355347	0.333344
C120	C	1.842267	0.688680	0.666678
C121	C	0.946937	0.184844	0.000013
C122	C	1.280270	0.518177	0.333346
C123	C	1.613604	0.851511	0.666680
C124	C	0.954350	0.271129	0.000018
C125	C	1.287684	0.604463	0.333352
C126	C	1.621017	0.937796	0.666685
N127	N	0.933106	0.033660	-0.204760
N128	N	1.266439	0.366993	0.128573
N129	N	1.599772	0.700326	0.461907
C130	C	0.904034	0.008631	-0.749940
C131	C	1.237368	0.341964	-0.416606
C132	C	1.570701	0.675297	-0.083273
C133	C	0.908441	0.012421	-0.659368
C134	C	1.241775	0.345754	-0.326035
C135	C	1.575108	0.679087	0.007298
C136	C	0.961883	0.058245	-0.614090
C137	C	1.295216	0.391579	-0.280756
C138	C	1.628550	0.724912	0.052577
C139	C	1.010927	0.100277	-0.659387
C140	C	1.344260	0.433610	-0.326054
C141	C	1.677593	0.766943	0.007279
C142	C	1.006523	0.096482	-0.749957
C143	C	1.339857	0.429815	-0.416624
C144	C	1.673190	0.763149	-0.083291
C145	C	0.977746	0.071896	-0.340628
C146	C	1.311079	0.405230	-0.007294
C147	C	1.644412	0.738563	0.326039
C148	C	0.982144	0.075690	-0.250051
C149	C	1.315477	0.409023	0.083282
C150	C	1.648811	0.742357	0.416615
C151	C	0.879659	-0.012168	-0.250038
C152	C	1.212992	0.321165	0.083295
C153	C	1.546326	0.654499	0.416628
C154	C	0.875257	-0.015955	-0.340610
C155	C	1.208590	0.317378	-0.007277
C156	C	1.541924	0.650712	0.326057
C157	C	0.924303	0.026073	-0.385900
C158	C	1.257637	0.359407	-0.052566
C159	C	1.590970	0.692740	0.280767
C160	C	0.966387	0.062122	-0.521511
C161	C	1.299720	0.395456	-0.188178
C162	C	1.633054	0.728789	0.145156
C163	C	0.919803	0.022192	-0.478477
C164	C	1.253136	0.355525	-0.145143
C165	C	1.586469	0.688858	0.188190
N166	N	0.953073	0.050661	0.204769
N167	N	1.286406	0.383994	0.538102
N168	N	1.619739	0.717328	0.871436
H169	H	0.191698	-0.108182	0.000003
H170	H	0.525032	0.225151	0.333337
H171	H	0.858365	0.558484	0.666670
H172	H	1.017683	0.106120	-0.377492
H173	H	1.351016	0.439453	-0.044158
H174	H	1.684349	0.772786	0.289175
Br175	Br	1.054698	0.137861	-0.188602
Br176	Br	1.388032	0.471194	0.144731
Br177	Br	1.721365	0.804528	0.478065
H178	H	0.876293	-0.015122	-0.515346
H179	H	1.209626	0.318212	-0.182013
H180	H	1.542960	0.651545	0.151320
H181	H	0.868511	-0.021807	-0.622496
H182	H	1.201844	0.311526	-0.289163
H183	H	1.535178	0.644859	0.044171
H184	H	0.561211	-0.059395	0.000002
H185	H	0.894545	0.273939	0.333336
H186	H	1.227878	0.607272	0.666669
Br187	Br	1.121751	-0.776917	0.000003
Br188	Br	1.455084	-0.443584	0.333336
Br189	Br	1.788418	-0.110250	0.666669
Br190	Br	0.488076	-0.090781	0.000011
Br191	Br	0.821410	0.242552	0.333345
Br192	Br	1.154743	0.575885	0.666678
Br193	Br	0.344898	0.181420	0.000038
Br194	Br	0.678232	0.514753	0.333371
Br195	Br	1.011565	0.848087	0.666705
H196	H	1.054444	0.137584	-0.622515
H197	H	1.387777	0.470918	-0.289181
H198	H	1.721110	0.804251	0.044152
H199	H	1.046456	0.130707	-0.786832
H200	H	1.379789	0.464041	-0.453499
H201	H	1.713123	0.797374	-0.120166
H202	H	0.423065	0.135121	0.000020
H203	H	0.756398	0.468454	0.333353
H204	H	1.089732	0.801787	0.666687
Br205	Br	1.101710	-0.205899	-0.000020
Br206	Br	1.435044	0.127434	0.333313
Br207	Br	1.768377	0.460767	0.666646
Br208	Br	0.714413	0.230205	0.000036
Br209	Br	1.047747	0.563538	0.333369
Br210	Br	1.381080	0.896872	0.666702
H211	H	1.048332	-0.367246	0.000002
H212	H	1.381665	-0.033913	0.333335
H213	H	1.714999	0.299420	0.666669
H214	H	1.097445	-0.600099	0.000004
H215	H	1.430778	-0.266766	0.333337
H216	H	1.764112	0.066568	0.666671
H217	H	1.009899	0.099434	-0.484635
H218	H	1.343232	0.432767	-0.151302
H219	H	1.676566	0.766101	0.182031
H220	H	0.825191	-0.695501	0.000008
H221	H	1.158524	-0.362168	0.333342
H222	H	1.491857	-0.028835	0.666675
Br223	Br	0.831497	-0.053557	-0.811380
Br224	Br	1.164830	0.279777	-0.478047
Br225	Br	1.498164	0.613110	-0.144714
Br226	Br	0.800885	-0.518689	0.000037
Br227	Br	1.134219	-0.185355	0.333371
Br228	Br	1.467552	0.147978	0.666704
Br229	Br	0.764421	-0.138752	0.000019
Br230	Br	1.097755	0.194582	0.333352
Br231	Br	1.431088	0.527915	0.666685
Br232	Br	0.366777	-0.155876	-0.000020
Br233	Br	0.700110	0.177457	0.333313
Br234	Br	1.033443	0.510790	0.666647
H235	H	0.788729	-0.315580	0.000020
H236	H	1.122063	0.017754	0.333354
H237	H	1.455396	0.351087	0.666687
H238	H	0.831740	-0.053272	-0.377470
H239	H	1.165074	0.280062	-0.044136
H240	H	1.498407	0.613395	0.289197
H241	H	1.036501	-0.462444	0.000032
H242	H	1.369835	-0.129111	0.333366
H243	H	1.703168	0.204222	0.666699
Br244	Br	0.813101	-0.069204	-0.188569
Br245	Br	1.146434	0.264129	0.144764
Br246	Br	1.479768	0.597462	0.478097
H247	H	0.711299	-0.067095	-0.000009
H248	H	1.044633	0.266238	0.333325
H249	H	1.377966	0.599572	0.666658
Br250	Br	0.519397	0.240207	0.000041
Br251	Br	0.852731	0.573540	0.333374
Br252	Br	1.186064	0.906874	0.666707
H253	H	0.849668	-0.453235	0.000015
H254	H	1.183001	-0.119901	0.333348
H255	H	1.516334	0.213432	0.666681
H256	H	0.174869	0.151426	0.000018
H257	H	0.508203	0.484759	0.333351
H258	H	0.841536	0.818093	0.666684
