data_functionalizedCrystal
_audit_creation_method	'MofGen! by Chris Wilmer'
_symmetry_space_group_name_H-M	'P1'
_symmetry_Int_Tables_number	1
_symmetry_cell_setting	triclinic
loop_
_symmetry_equiv_pos_as_xyz
  x,y,z
_cell_length_a	16.992694
_cell_length_b	17.038272
_cell_length_c	16.053802
_cell_angle_alpha	92.751609
_cell_angle_beta	87.249047
_cell_angle_gamma	90.889890
loop_
_atom_site_label
_atom_site_type_symbol
_atom_site_fract_x
_atom_site_fract_y
_atom_site_fract_z
O1	O	1.054593	0.163385	-0.069325
O2	O	0.826187	0.161558	-0.069350
O3	O	0.939032	0.048571	-0.069331
O4	O	0.941748	0.276372	-0.069344
O5	O	0.932819	0.054763	0.069527
O6	O	0.819974	0.167750	0.069508
O7	O	1.048380	0.169577	0.069533
Zn8	Zn	0.933190	0.169646	0.091567
Zn9	Zn	0.941376	0.161489	-0.091384
O10	O	0.935535	0.282564	0.069514
C11	C	0.793711	0.162304	0.000076
C12	C	0.706200	0.155293	0.000067
C13	C	0.660472	0.222933	0.000064
C14	C	0.578245	0.216342	0.000076
C15	C	0.541748	0.142110	0.000085
C16	C	0.587482	0.074465	0.000091
C17	C	0.669707	0.081057	0.000085
C18	C	0.296327	0.114789	0.000109
C19	C	0.214096	0.108201	0.000112
C20	C	0.204864	0.250079	0.000099
C21	C	0.287091	0.256665	0.000088
C22	C	0.332818	0.189020	0.000098
N23	N	0.457699	0.135371	0.000094
N24	N	0.416865	0.195760	0.000095
C25	C	0.933456	0.022384	0.000098
C26	C	0.926089	-0.064871	0.000097
C27	C	0.993729	-0.110741	0.000105
C28	C	0.986802	-0.192727	0.000096
C29	C	0.912235	-0.228840	0.000085
C30	C	0.844590	-0.182964	0.000075
C31	C	0.851518	-0.100981	0.000077
C32	C	0.887761	-0.476135	0.000071
C33	C	0.880838	-0.558124	0.000071
C34	C	1.023051	-0.567881	0.000091
C35	C	1.029972	-0.485895	0.000099
C36	C	0.962328	-0.440026	0.000084
C37	C	0.905153	-0.312643	0.000079
C38	C	0.969410	-0.356226	0.000084
C39	C	1.080856	0.168831	0.000105
C40	C	1.168367	0.175841	0.000109
C41	C	0.941111	0.308751	0.000084
C42	C	0.948478	0.396006	0.000079
N43	N	0.927609	0.175214	0.216427
N44	N	0.946963	0.155915	-0.216243
C45	C	0.975645	0.127157	0.260129
C46	C	0.971749	0.131060	0.347535
C47	C	0.919820	0.183023	0.391237
C48	C	0.871779	0.231082	0.347529
C49	C	0.875672	0.227175	0.260125
C50	C	0.902815	0.200067	0.652644
C51	C	0.898928	0.203972	0.740055
C52	C	0.998897	0.103948	0.740054
C53	C	1.002788	0.100050	0.652648
C54	C	0.954744	0.148105	0.608948
N55	N	0.915838	0.187015	0.480580
N56	N	0.958723	0.144109	0.519606
H57	H	0.167624	0.305152	0.000092
H58	H	1.038011	0.064823	0.775643
H59	H	0.557760	0.014024	0.000110
C60	C	0.823127	-0.352365	0.000073
C61	C	0.768643	-0.340277	-0.072036
C62	C	0.686617	-0.380000	-0.072045
C63	C	0.659075	-0.431812	0.000055
C64	C	0.713560	-0.443903	0.072170
C65	C	0.795586	-0.404180	0.072179
H66	H	0.789030	-0.301920	-0.125414
H67	H	0.646283	-0.371049	-0.125430
H68	H	0.598354	-0.461218	0.000049
H69	H	0.693172	-0.482259	0.125548
H70	H	0.835919	-0.413130	0.125563
C71	C	0.346616	0.040378	0.000108
C72	C	0.335896	-0.015840	0.072212
C73	C	0.386189	-0.090256	0.072209
C74	C	0.447200	-0.108454	0.000100
C75	C	0.457923	-0.052235	-0.072009
C76	C	0.407631	0.022181	-0.072006
H77	H	0.290729	-0.002370	0.125596
H78	H	0.378251	-0.131873	0.125590
H79	H	0.484430	-0.163541	0.000098
H80	H	0.503090	-0.065705	-0.125393
H81	H	0.415569	0.063798	-0.125387
H82	H	1.010863	0.091928	0.383116
H83	H	0.706939	0.025977	0.000087
H84	H	1.054449	-0.081343	0.000119
H85	H	0.541016	0.271422	0.000072
C86	C	0.327235	0.338322	0.000081
C87	C	0.276935	0.412727	0.000080
C88	C	0.317079	0.494384	0.000069
C89	C	0.407523	0.501637	0.000059
C90	C	0.457829	0.427229	0.000060
C91	C	0.417684	0.345571	0.000071
H92	H	0.209978	0.407361	0.000088
H93	H	0.279839	0.549466	0.000068
H94	H	0.437240	0.562085	0.000051
H95	H	0.524786	0.432595	0.000053
H96	H	0.454924	0.290490	0.000072
C97	C	0.841798	0.261134	0.788126
C98	C	0.788952	0.313990	0.740054
C99	C	0.731828	0.371151	0.788124
C100	C	0.727549	0.375455	0.884265
C101	C	0.780397	0.322597	0.932343
C102	C	0.837521	0.265436	0.884273
H103	H	0.792118	0.310806	0.668880
H104	H	0.692706	0.410280	0.752533
H105	H	0.685262	0.417769	0.919850
H106	H	0.777231	0.325781	1.003517
H107	H	0.876643	0.226307	0.919863
C108	C	1.061209	-0.243180	0.000108
C109	C	1.117590	-0.232724	0.072225
C110	C	1.192002	-0.283176	0.072235
C111	C	1.210034	-0.344084	0.000127
C112	C	1.153652	-0.354543	-0.071995
C113	C	1.079239	-0.304091	-0.072005
H114	H	1.104244	-0.187633	0.125608
H115	H	1.233740	-0.275432	0.125625
H116	H	1.265118	-0.381432	0.000134
H117	H	1.166998	-0.399634	-0.125379
H118	H	1.037502	-0.311834	-0.125395
H119	H	0.820113	-0.587524	0.000076
C120	C	0.762566	-0.222690	0.000057
C121	C	0.735017	-0.274500	0.072157
C122	C	0.652992	-0.314224	0.072140
C123	C	0.598515	-0.302140	0.000024
C124	C	0.626063	-0.250328	-0.072082
C125	C	0.708089	-0.210603	-0.072065
H126	H	0.775345	-0.283447	0.125547
H127	H	0.632600	-0.352579	0.125518
H128	H	0.537795	-0.331547	0.000011
H129	H	0.585736	-0.241380	-0.125472
H130	H	0.728481	-0.172249	-0.125442
H131	H	0.690181	0.283381	0.000056
H132	H	0.184383	0.047750	0.000119
H133	H	1.090692	-0.456497	0.000108
C134	C	1.032768	0.069996	0.212060
C135	C	1.085602	0.017131	0.260137
C136	C	1.142725	-0.040034	0.212071
C137	C	1.147014	-0.044335	0.115930
C138	C	1.094178	0.008531	0.067848
C139	C	1.037055	0.065696	0.115913
H140	H	1.082430	0.020314	0.331311
H141	H	1.181838	-0.079169	0.247665
H142	H	1.189299	-0.086653	0.080349
H143	H	1.097351	0.005348	-0.003327
H144	H	0.997942	0.104831	0.080320
H145	H	0.796438	-0.063634	0.000071
C146	C	1.059906	0.042887	0.604572
C147	C	1.112747	-0.009981	0.652635
C148	C	1.169867	-0.067141	0.604556
C149	C	1.174144	-0.071432	0.508415
C150	C	1.121301	-0.018562	0.460346
C151	C	1.064181	0.038597	0.508425
H152	H	1.109582	-0.006806	0.723810
H153	H	1.208985	-0.106278	0.640140
H154	H	1.216428	-0.113745	0.472824
H155	H	1.124466	-0.021738	0.389172
H156	H	1.025063	0.077735	0.472841
H157	H	0.832680	-0.438798	0.000059
H158	H	0.863697	0.239197	0.617070
H159	H	1.078123	-0.605236	0.000102
H160	H	1.030124	-0.326819	0.000074
C161	C	0.814656	0.288243	0.395598
C162	C	0.810410	0.292587	0.491739
C163	C	0.753288	0.349753	0.539804
C164	C	0.700411	0.402574	0.491728
C165	C	0.704655	0.398233	0.395581
C166	C	0.761778	0.341067	0.347516
H167	H	0.849555	0.253484	0.527333
H168	H	0.750146	0.352966	0.610979
H169	H	0.658125	0.444892	0.527309
H170	H	0.665511	0.437336	0.359988
H171	H	0.764919	0.337853	0.276342
H172	H	0.836555	0.266306	0.224543
