data_functionalizedCrystal
_audit_creation_method	'MofGen! by Chris Wilmer'
_symmetry_space_group_name_H-M	'P1'
_symmetry_Int_Tables_number	1
_symmetry_cell_setting	triclinic
loop_
_symmetry_equiv_pos_as_xyz
  x,y,z
_cell_length_a	12.759401
_cell_length_b	16.625545
_cell_length_c	12.759393
_cell_angle_alpha	89.969509
_cell_angle_beta	90.019676
_cell_angle_gamma	89.972623
loop_
_atom_site_label
_atom_site_type_symbol
_atom_site_fract_x
_atom_site_fract_y
_atom_site_fract_z
Zn1	Zn	1.606177	0.320953	0.593985
Zn2	Zn	1.606030	0.455808	0.418305
Zn3	Zn	1.430476	0.320994	0.418324
Zn4	Zn	1.430430	0.455749	0.593946
O5	O	1.518278	0.388376	0.506140
O6	O	1.753179	0.338850	0.570689
O7	O	1.582701	0.437966	0.271286
O8	O	1.453863	0.208156	0.441650
O9	O	1.753071	0.437927	0.441617
O10	O	1.582950	0.208126	0.570707
O11	O	1.453721	0.338919	0.271300
O12	O	1.283449	0.338862	0.441612
O13	O	1.453785	0.437826	0.740972
O14	O	1.283415	0.437865	0.570641
O15	O	1.582906	0.338793	0.741001
O16	O	1.582656	0.568632	0.441580
O17	O	1.453643	0.568589	0.570623
C18	C	1.245311	0.388362	0.506125
C19	C	1.128534	0.388376	0.506144
C20	C	1.073729	0.336879	0.573455
C21	C	0.964005	0.336888	0.573462
C22	C	0.963901	0.439895	0.438843
C23	C	1.073623	0.439882	0.438832
C24	C	1.518157	0.597867	0.506118
C25	C	1.518202	0.687488	0.506144
C26	C	1.518240	0.760270	0.506168
C27	C	1.518299	0.851579	0.506196
C28	C	1.518351	0.924355	0.506214
C29	C	1.518408	1.015669	0.506240
C30	C	1.792311	0.388390	0.506155
C31	C	1.909088	0.388397	0.506162
C32	C	1.518357	0.388299	0.780173
C33	C	1.518390	0.388266	0.896950
C34	C	1.518420	1.178067	0.506198
C35	C	1.518460	1.088446	0.506257
C36	C	1.518260	0.388395	0.233172
C37	C	1.518430	0.388201	0.116396
C38	C	1.585628	0.336691	0.951829
C39	C	1.585646	0.336656	1.061553
C40	C	1.451185	0.439778	1.061510
C41	C	1.451163	0.439808	0.951788
H42	H	0.919179	0.481831	0.384042
O43	O	0.910720	0.286782	0.638702
C44	C	0.847230	0.234665	0.579017
H45	H	0.880261	0.229599	0.496279
H46	H	0.846030	0.172651	0.617163
H47	H	0.764061	0.259599	0.575347
H48	H	1.118247	0.481817	0.384014
O49	O	1.650860	0.286580	1.115024
C50	C	1.636482	0.297612	1.223627
H51	H	1.555387	0.324012	1.238595
H52	H	1.643656	0.237202	1.265336
H53	H	1.698776	0.340542	1.254771
H54	H	1.118434	0.294937	0.628261
O55	O	1.385988	0.489822	1.114944
C56	C	1.400406	0.478724	1.223557
H57	H	1.481509	0.452319	1.238560
H58	H	1.393243	0.539108	1.265241
H59	H	1.338127	0.435772	1.254696
H60	H	1.640367	0.294719	0.907183
O61	O	1.385991	0.489952	0.898356
C62	C	1.445758	0.542062	0.834902
H63	H	1.525396	0.513635	0.818488
H64	H	1.402942	0.552882	0.757735
H65	H	1.457262	0.601807	0.877172
