data_functionalizedCrystal
_audit_creation_method	'MofGen! by Chris Wilmer'
_symmetry_space_group_name_H-M	'P1'
_symmetry_Int_Tables_number	1
_symmetry_cell_setting	triclinic
loop_
_symmetry_equiv_pos_as_xyz
  x,y,z
_cell_length_a	27.732064
_cell_length_b	15.944551
_cell_length_c	14.421503
_cell_angle_alpha	90.000740
_cell_angle_beta	89.995295
_cell_angle_gamma	96.925919
loop_
_atom_site_label
_atom_site_type_symbol
_atom_site_fract_x
_atom_site_fract_y
_atom_site_fract_z
O1	O	0.062343	-1.113716	-0.077006
O2	O	0.070029	-0.869066	-0.077028
O3	O	-0.004178	-0.998982	-0.077020
O4	O	0.136549	-0.983800	-0.077014
O5	O	-0.004186	-0.998970	0.077203
O6	O	0.070021	-0.869055	0.077195
O7	O	0.062335	-1.113704	0.077217
Cu8	Cu	0.066177	-0.991378	0.091288
Cu9	Cu	0.066186	-0.991392	-0.091099
O10	O	0.136541	-0.983788	0.077209
C11	C	0.069706	-0.837771	0.000080
C12	C	0.068749	-0.744537	0.000072
C13	C	-0.022190	-0.998655	0.000088
C14	C	-0.075848	-0.997689	0.000080
C15	C	0.062658	-1.145000	0.000106
C16	C	0.063614	-1.238233	0.000109
C17	C	-0.453282	-0.914339	0.000069
C18	C	-0.251606	-0.917895	0.000068
O19	O	-0.220634	-0.853217	0.000025
N20	N	-0.232145	-0.994932	0.000075
C21	C	-0.263107	-1.071086	0.000075
O22	O	-0.241926	-1.136693	0.000072
C23	C	-0.464781	-1.067530	0.000070
C24	C	-0.484239	-0.990487	0.000072
C25	C	-0.472741	-0.837303	0.000070
C26	C	-0.523157	-0.836414	0.000075
C27	C	-0.554114	-0.912563	0.000079
C28	C	-0.534655	-0.989599	0.000078
C29	C	-0.495742	-1.143683	0.000064
C30	C	-0.546163	-1.142787	0.000060
C31	C	-0.565621	-1.065744	0.000063
C32	C	-0.616029	-1.064859	0.000087
N33	N	-0.635490	-0.987822	0.000080
C34	C	-0.604532	-0.911673	0.000076
C35	C	-0.157224	-1.072948	0.000080
C36	C	-0.106806	-1.073837	0.000083
C37	C	-0.095309	-0.920645	0.000074
C38	C	-0.145728	-0.919757	0.000077
C39	C	-0.176685	-0.995910	0.000074
C40	C	-0.710410	-0.909814	0.000088
C41	C	-0.760831	-0.908933	0.000097
C42	C	-0.772323	-1.062124	0.000102
C43	C	-0.721907	-1.063006	0.000097
C44	C	-0.690951	-0.986844	0.000087
O45	O	-0.647030	-1.129502	0.000119
O46	O	-0.625722	-0.846076	0.000059
C47	C	-0.402866	-0.915227	0.000063
C48	C	-0.383408	-0.992263	0.000062
C49	C	-0.414365	-1.068412	0.000066
C50	C	-0.332989	-0.993153	0.000065
C51	C	-0.302032	-0.917004	0.000061
C52	C	-0.321493	-0.839967	0.000054
C53	C	-0.371909	-0.839079	0.000060
C54	C	-0.394904	-1.145449	0.000072
C55	C	-0.344487	-1.146331	0.000068
C56	C	-0.313530	-1.070183	0.000064
C57	C	0.154553	-0.984115	0.000098
C58	C	0.208212	-0.985081	0.000101
N59	N	0.066170	-0.991375	0.219569
C60	C	0.020466	-0.530307	0.000088
C61	C	0.042891	-0.469001	-0.075952
C62	C	0.067018	-0.573834	0.000082
C63	C	0.042894	-0.469012	0.076100
C64	C	0.065343	-0.408943	0.000097
C65	C	0.089456	-0.513756	-0.076020
C66	C	0.089453	-0.513773	0.076101
C67	C	0.111911	-0.452485	0.000043
C68	C	0.067982	-0.668823	0.000073
C69	C	0.064383	-0.313954	0.000100
N70	N	0.066189	-0.991402	-0.219380
C71	C	0.031584	-1.051004	0.531001
C72	C	0.075129	-1.067426	0.469169
C73	C	0.066184	-0.991393	0.591458
C74	C	0.022633	-0.975001	0.469197
C75	C	0.066175	-0.991386	0.408737
C76	C	0.109751	-1.007853	0.530986
C77	C	0.057227	-0.915396	0.531020
C78	C	0.100803	-0.931786	0.469215
C79	C	0.066189	-0.991399	0.696719
C80	C	0.066175	-0.991380	0.303478
H81	H	-0.776671	-0.846193	0.000103
H82	H	-0.070095	-0.858642	0.000075
H83	H	0.023192	-0.449177	0.140383
H84	H	0.150586	-0.418825	0.000002
H85	H	-0.420105	-1.207460	0.000074
H86	H	0.082704	-1.131692	0.442001
H87	H	-0.014193	-0.961140	0.442054
H88	H	-0.018169	-0.564141	-0.000008
H89	H	-0.090968	-1.136573	0.000096
H90	H	0.049637	-0.851149	0.558208
H91	H	0.109123	-0.533645	0.140391
H92	H	0.109134	-0.533494	-0.140375
H93	H	0.002360	-1.101450	0.558129
H94	H	0.146586	-1.021784	0.558015
C95	C	-0.338773	-1.277178	-0.079221
C96	C	-0.323102	-1.231024	0.000062
H97	H	-0.325569	-1.329459	-0.079231
H98	H	-0.373227	-1.287537	-0.079206
H99	H	-0.328143	-1.245840	-0.132994
H100	H	-0.333735	-1.262359	0.053836
H101	H	-0.288641	-1.220667	0.000057
C102	C	0.173307	-0.901819	0.378123
C103	C	0.140337	-0.863726	0.432810
H104	H	0.197712	-0.859804	0.355643
H105	H	0.187930	-0.941595	0.414382
H106	H	0.156638	-0.929883	0.327247
H107	H	0.157006	-0.835668	0.483690
H108	H	0.125714	-0.823936	0.396549
C109	C	-0.704124	-0.758300	0.000091
C110	C	-0.676388	-0.826096	0.000084
H111	H	-0.683120	-0.706618	0.000099
H112	H	-0.724025	-0.761144	-0.053686
H113	H	-0.724032	-0.761154	0.053876
H114	H	-0.656483	-0.823246	-0.053705
H115	H	-0.656479	-0.823251	0.053867
H116	H	-0.538995	-0.773678	0.000069
H117	H	-0.182426	-1.134965	0.000079
C118	C	-0.466455	-0.685796	0.000077
C119	C	-0.438717	-0.753590	0.000074
H120	H	-0.445452	-0.634113	0.000091
H121	H	-0.486353	-0.688639	-0.053705
H122	H	-0.486366	-0.688654	0.053858
H123	H	-0.418809	-0.750736	-0.053711
H124	H	-0.418811	-0.750746	0.053861
H125	H	-0.296278	-0.777964	0.000057
H126	H	-0.797538	-1.124122	0.000109
C127	C	-0.195749	-0.829884	-0.079212
C128	C	-0.167116	-0.835072	0.000071
H129	H	-0.208952	-0.777602	-0.079213
H130	H	-0.176314	-0.833417	-0.132980
H131	H	-0.221403	-0.875108	-0.079203
H132	H	-0.141459	-0.789851	0.000058
H133	H	-0.186551	-0.831531	0.053852
C134	C	-0.445723	-1.233563	-0.079231
C135	C	-0.474363	-1.228372	0.000052
H136	H	-0.432524	-1.285849	-0.079236
H137	H	-0.465152	-1.230021	-0.132999
H138	H	-0.420065	-1.188344	-0.079217
H139	H	-0.500023	-1.273588	0.000034
H140	H	-0.454933	-1.231922	0.053833
C141	C	-0.552459	-1.294302	0.000061
C142	C	-0.580190	-1.226500	0.000061
H143	H	-0.573466	-1.345981	0.000068
H144	H	-0.532555	-1.291460	-0.053719
H145	H	-0.532554	-1.291454	0.053844
H146	H	-0.600092	-1.229345	-0.053726
H147	H	-0.600103	-1.229343	0.053846
C148	C	-0.671874	-1.152874	-0.079185
C149	C	-0.700511	-1.147688	0.000102
H150	H	-0.658666	-1.205151	-0.079184
H151	H	-0.691307	-1.149350	-0.132950
H152	H	-0.646223	-1.107643	-0.079182
H153	H	-0.726165	-1.192915	0.000095
H154	H	-0.681078	-1.151220	0.053881
C155	C	-0.031560	-0.481882	-0.162600
C156	C	0.016317	-0.442194	-0.162734
H157	H	-0.047968	-0.465330	-0.216171
H158	H	-0.031402	-0.541418	-0.162945
H159	H	-0.047783	-0.465802	-0.108598
H160	H	0.032540	-0.458280	-0.216733
H161	H	0.016161	-0.382646	-0.162398
H162	H	-0.387747	-0.776343	0.000062
