data_functionalizedCrystal
_audit_creation_method	'MofGen! by Chris Wilmer'
_symmetry_space_group_name_H-M	'P1'
_symmetry_Int_Tables_number	1
_symmetry_cell_setting	triclinic
loop_
_symmetry_equiv_pos_as_xyz
  x,y,z
_cell_length_a	13.339070
_cell_length_b	14.519731
_cell_length_c	12.376457
_cell_angle_alpha	101.297478
_cell_angle_beta	75.592262
_cell_angle_gamma	99.659074
loop_
_atom_site_label
_atom_site_type_symbol
_atom_site_fract_x
_atom_site_fract_y
_atom_site_fract_z
O1	O	1.362531	0.449841	-0.093988
O2	O	1.067891	0.389127	-0.093995
O3	O	1.223010	0.287233	-0.093981
O4	O	1.207412	0.551735	-0.094002
O5	O	1.184244	0.312661	0.094028
O6	O	1.029125	0.414556	0.094014
O7	O	1.323765	0.475270	0.094021
Zn8	Zn	1.170290	0.448950	0.123868
Zn9	Zn	1.221366	0.415447	-0.123842
O10	O	1.168646	0.577164	0.094007
C11	C	1.202895	0.265402	0.000024
C12	C	1.200705	0.162464	0.000024
C13	C	1.010799	0.391585	0.000009
C14	C	0.898440	0.361015	0.000007
C15	C	1.380857	0.472811	0.000015
C16	C	1.493218	0.503380	0.000009
C17	C	1.198925	0.078867	0.000022
C18	C	1.196703	-0.026009	0.000013
C19	C	1.194939	-0.109598	0.000006
C20	C	1.192717	-0.214480	-0.000001
C21	C	1.857560	0.265686	0.000012
C22	C	1.751994	0.236961	0.000010
C23	C	1.687295	0.303564	0.000010
C24	C	1.728172	0.398896	0.000012
C25	C	1.833751	0.427622	0.000006
C26	C	1.663485	0.465500	0.000004
C27	C	1.704363	0.560832	0.000006
C28	C	1.809932	0.589554	0.000001
C29	C	1.874631	0.522951	0.000000
C30	C	1.557907	0.436773	0.000010
C31	C	1.534098	0.598709	0.000004
C32	C	1.639664	0.627434	0.000006
C33	C	1.188761	0.598995	-0.000000
C34	C	1.190953	0.701931	-0.000008
N35	N	1.135439	0.471817	0.292923
N36	N	1.256224	0.392575	-0.292897
C37	C	1.337124	0.339476	0.647926
C38	C	1.361510	0.323470	0.529588
C39	C	1.304994	0.360555	0.470416
C40	C	1.224088	0.413649	0.529593
C41	C	1.199705	0.429663	0.647942
C42	C	1.167575	0.450742	0.470433
C43	C	1.086670	0.503837	0.529610
C44	C	1.062290	0.519847	0.647947
C45	C	1.118806	0.482762	0.707120
C46	C	1.191959	0.434728	0.352083
C47	C	1.054540	0.524916	0.352100
C48	C	1.030154	0.540922	0.470438
H49	H	1.601338	0.280170	0.000008
H50	H	1.324853	0.347520	0.374060
H51	H	1.257833	0.391499	0.303912
H52	H	1.672962	0.705055	0.000008
O53	O	1.095107	0.498481	0.822076
C54	C	1.107717	0.596684	0.861607
H55	H	1.101132	0.636503	0.793409
H56	H	1.187726	0.618716	0.882597
C57	C	1.030393	0.571497	1.052325
C58	C	1.022296	0.620403	0.968565
H59	H	0.977705	0.586129	1.118304
H60	H	1.021901	0.505335	1.025693
H61	H	1.097071	0.589862	1.069802
H62	H	0.955624	0.602028	0.951079
H63	H	1.030775	0.686562	0.995196
O64	O	1.440093	0.271839	0.472283
C65	C	1.484763	0.242558	0.549881
H66	H	1.425886	0.242289	0.634247
H67	H	1.557409	0.293498	0.562451
C68	C	1.587274	0.142456	0.400080
C69	C	1.514956	0.142118	0.503698
H70	H	1.605904	0.080501	0.371592
H71	H	1.557183	0.162185	0.347800
H72	H	1.647804	0.184910	0.410569
H73	H	1.454424	0.099673	0.493205
H74	H	1.545039	0.122379	0.555976
H75	H	1.718719	0.159342	0.000006
O76	O	1.849547	0.682164	-0.000162
C77	C	1.836591	0.711214	-0.097550
H78	H	1.770018	0.662937	-0.130002
H79	H	1.911713	0.706939	-0.165738
C80	C	1.892655	0.873234	-0.028126
C81	C	1.810883	0.813943	-0.067978
H82	H	1.876802	0.936603	-0.009887
H83	H	1.901388	0.853663	0.037485
H84	H	1.955249	0.869660	-0.084956
H85	H	1.748294	0.817509	-0.011144
H86	H	1.802139	0.833518	-0.133579
O87	O	1.920541	0.201127	0.000059
C88	C	2.022493	0.246921	0.000020
H89	H	2.019337	0.325241	0.035612
H90	H	2.071605	0.239040	-0.090181
C91	C	2.075655	0.105602	0.030029
C92	C	2.071778	0.201794	0.073753
H93	H	2.106060	0.077763	0.075506
H94	H	2.006970	0.074747	0.030051
H95	H	2.116581	0.099047	-0.045138
H96	H	2.030843	0.208347	0.148912
H97	H	2.140458	0.232649	0.073745
H98	H	0.996420	0.563088	0.696130
H99	H	1.481419	0.652942	0.000003
H100	H	1.524635	0.359153	0.000007
H101	H	1.960592	0.546336	0.000008
H102	H	1.383137	0.309292	0.696111
O103	O	0.951438	0.592365	0.527880
C104	C	0.857184	0.547776	0.498964
H105	H	0.863260	0.469379	0.466431
H106	H	0.841695	0.582005	0.430279
C107	C	0.759475	0.655022	0.644066
C108	C	0.766936	0.558732	0.604117
H109	H	0.703804	0.661783	0.708927
H110	H	0.822976	0.685065	0.663545
H111	H	0.746573	0.683535	0.586819
H112	H	0.779851	0.530223	0.661358
H113	H	0.703434	0.528684	0.584650
H114	H	1.008522	0.555116	0.303923
