data_functionalizedCrystal
_audit_creation_method	'MofGen! by Chris Wilmer'
_symmetry_space_group_name_H-M	'P1'
_symmetry_Int_Tables_number	1
_symmetry_cell_setting	triclinic
loop_
_symmetry_equiv_pos_as_xyz
  x,y,z
_cell_length_a	14.971506
_cell_length_b	14.044220
_cell_length_c	14.048226
_cell_angle_alpha	90.004491
_cell_angle_beta	90.005155
_cell_angle_gamma	88.405633
loop_
_atom_site_label
_atom_site_type_symbol
_atom_site_fract_x
_atom_site_fract_y
_atom_site_fract_z
O1	O	1.196673	0.123626	0.079170
O2	O	0.937439	0.138400	0.079171
O3	O	1.063165	-0.006976	0.079161
O4	O	1.070947	0.269002	0.079180
O5	O	1.063152	-0.006977	-0.079160
O6	O	0.937426	0.138399	-0.079150
O7	O	1.196660	0.123625	-0.079151
Zn8	Zn	1.067041	0.131012	-0.104288
Zn9	Zn	1.067058	0.131013	0.104307
O10	O	1.070934	0.269001	-0.079141
C11	C	0.904056	0.137735	0.000010
C12	C	0.804603	0.135745	0.000010
C13	C	1.059752	-0.042295	0.000000
C14	C	1.049591	-0.147533	-0.000001
C15	C	0.372450	0.213556	0.000025
C16	C	0.465897	0.215418	0.000030
C17	C	0.516388	0.130004	0.000019
C18	C	0.473428	0.042722	0.000015
C19	C	0.379983	0.040860	0.000017
C20	C	0.668197	0.046608	0.000007
C21	C	0.761649	0.048469	0.000003
C22	C	0.754112	0.221166	0.000019
C23	C	0.660666	0.219305	0.000022
C24	C	0.617712	0.132022	0.000015
C25	C	1.031014	-0.340217	0.000013
C26	C	1.103081	-0.397763	0.000015
C27	C	1.092745	-0.504979	0.000023
C28	C	1.041349	-0.232991	0.000005
C29	C	1.230043	0.124290	0.000012
C30	C	1.329496	0.126280	0.000018
C31	C	1.074347	0.304320	0.000022
C32	C	1.084508	0.409558	0.000029
N33	N	1.067035	0.131010	-0.246648
C34	C	1.125875	0.188606	-0.296458
C35	C	1.125886	0.188602	-0.396116
C36	C	1.067053	0.131006	-0.445962
C37	C	1.008211	0.073403	-0.396145
C38	C	1.008205	0.073403	-0.296489
C39	C	1.008226	0.073410	-0.603859
C40	C	1.008231	0.073411	-0.703522
C41	C	1.125907	0.188609	-0.703486
C42	C	1.125901	0.188609	-0.603830
C43	C	1.067058	0.131007	-0.554020
N44	N	1.067070	0.131007	0.246668
H45	H	0.331347	0.283110	0.000026
Br46	Br	0.830173	-0.067451	-0.000005
Br47	Br	1.205743	0.266772	-0.463712
H48	H	0.789089	0.292235	0.000024
H49	H	1.172542	-0.366508	0.000079
H50	H	0.633227	-0.024467	0.000007
Br51	Br	1.205768	0.266782	-0.771084
H52	H	0.961559	-0.371471	0.000015
H53	H	1.173779	0.235514	-0.255881
Br54	Br	0.928368	-0.004768	-0.463792
H55	H	0.514545	-0.026824	0.000012
H56	H	1.173805	0.235513	-0.563248
Br57	Br	0.321687	-0.077590	0.000011
H58	H	0.960323	0.026512	-0.744104
H59	H	0.960291	0.026502	-0.255935
Br60	Br	0.524189	0.333869	0.000049
Br61	Br	0.928383	-0.004784	-0.536260
Br62	Br	0.592142	0.335225	0.000027
