data_functionalizedCrystal
_audit_creation_method	'MofGen! by Chris Wilmer'
_symmetry_space_group_name_H-M	'P1'
_symmetry_Int_Tables_number	1
_symmetry_cell_setting	triclinic
loop_
_symmetry_equiv_pos_as_xyz
  x,y,z
_cell_length_a	14.044220
_cell_length_b	11.792254
_cell_length_c	10.868271
_cell_angle_alpha	89.995741
_cell_angle_beta	90.003917
_cell_angle_gamma	91.306262
loop_
_atom_site_label
_atom_site_type_symbol
_atom_site_fract_x
_atom_site_fract_y
_atom_site_fract_z
O1	O	-0.130045	1.519108	-0.102319
O2	O	0.203289	1.852441	0.231015
O3	O	0.536622	2.185775	0.564348
O4	O	-0.143429	1.190025	-0.102321
O5	O	0.189905	1.523359	0.231012
O6	O	0.523238	1.856692	0.564346
O7	O	0.001274	1.349627	-0.102314
O8	O	0.334607	1.682960	0.231019
O9	O	0.667940	2.016294	0.564352
O10	O	-0.274747	1.359506	-0.102325
O11	O	0.058587	1.692839	0.231008
O12	O	0.391920	2.026173	0.564341
O13	O	0.001279	1.349612	0.102330
O14	O	0.334613	1.682946	0.435664
O15	O	0.667946	2.016279	0.768997
O16	O	-0.143423	1.190010	0.102324
O17	O	0.189910	1.523344	0.435657
O18	O	0.523244	1.856677	0.768990
O19	O	-0.130039	1.519093	0.102326
O20	O	0.203294	1.852426	0.435659
O21	O	0.536628	2.185760	0.768993
Zn22	Zn	-0.136730	1.354549	0.134817
Zn23	Zn	0.196603	1.687883	0.468150
Zn24	Zn	0.529937	2.021216	0.801483
Zn25	Zn	-0.136737	1.354569	-0.134812
Zn26	Zn	0.196596	1.687902	0.198522
Zn27	Zn	0.529929	2.021236	0.531855
O28	O	-0.274741	1.359491	0.102319
O29	O	0.058592	1.692825	0.435653
O30	O	0.391926	2.026158	0.768986
C31	C	-0.142583	1.147648	0.000001
C32	C	0.190751	1.480981	0.333334
C33	C	0.524084	1.814315	0.666668
C34	C	-0.140059	1.021398	0.000000
C35	C	0.193274	1.354731	0.333333
C36	C	0.526608	1.688065	0.666667
C37	C	-0.138009	0.918869	-0.000005
C38	C	0.195325	1.252202	0.333328
C39	C	0.528658	1.585536	0.666662
C40	C	-0.135445	0.790242	-0.000006
C41	C	0.197888	1.123575	0.333328
C42	C	0.531222	1.456908	0.666661
C43	C	-0.310081	1.363823	-0.000004
C44	C	0.023253	1.697156	0.333329
C45	C	0.356586	2.030490	0.666662
C46	C	-0.415373	1.376722	-0.000009
C47	C	-0.082040	1.710055	0.333325
C48	C	0.251293	2.043389	0.666658
C49	C	-0.608157	1.400304	-0.000003
C50	C	-0.274823	1.733637	0.333330
C51	C	0.058510	2.066971	0.666664
C52	C	-0.665316	1.308819	-0.000003
C53	C	-0.331983	1.642153	0.333331
C54	C	0.001350	1.975486	0.666664
C55	C	-0.772588	1.321941	0.000000
C56	C	-0.439254	1.655274	0.333334
C57	C	-0.105921	1.988607	0.666667
C58	C	-0.500875	1.387184	-0.000006
C59	C	-0.167542	1.720518	0.333327
C60	C	0.165791	2.053851	0.666660
C61	C	0.036613	1.345295	0.000007
C62	C	0.369947	1.678629	0.333340
C63	C	0.703280	2.011962	0.666673
C64	C	0.141906	1.332396	0.000003
C65	C	0.475239	1.665730	0.333336
C66	C	0.808572	1.999063	0.666670
C67	C	-0.130885	1.561470	0.000001
C68	C	0.202448	1.894804	0.333335
C69	C	0.535782	2.228137	0.666668
C70	C	-0.133408	1.687720	-0.000006
C71	C	0.199925	2.021054	0.333327
C72	C	0.533258	2.354387	0.666661
N73	N	-0.136724	1.354544	0.318831
N74	N	0.196609	1.687878	0.652164
N75	N	0.529942	2.021211	0.985497
N76	N	-0.136736	1.354582	-0.318826
N77	N	0.196598	1.687916	0.014508
N78	N	0.529931	2.021249	0.347841
C79	C	-0.136735	1.354563	0.569837
C80	C	0.196598	1.687896	0.903170
C81	C	0.529931	2.021230	1.236503
C82	C	-0.136732	1.354549	0.430159
C83	C	0.196601	1.687882	0.763492
C84	C	0.529935	2.021216	1.096826
H85	H	-0.633689	1.220642	-0.000003
H86	H	-0.300355	1.553976	0.333331
H87	H	0.032978	1.887309	0.666664
H88	H	-0.639782	1.488474	0.000002
H89	H	-0.306449	1.821807	0.333336
H90	H	0.026884	2.155141	0.666669
