data_functionalizedCrystal
_audit_creation_method	'MofGen! by Chris Wilmer'
_symmetry_space_group_name_H-M	'P1'
_symmetry_Int_Tables_number	1
_symmetry_cell_setting	triclinic
loop_
_symmetry_equiv_pos_as_xyz
  x,y,z
_cell_length_a	18.050591
_cell_length_b	21.295417
_cell_length_c	21.295420
_cell_angle_alpha	90.017552
_cell_angle_beta	90.021462
_cell_angle_gamma	90.026512
loop_
_atom_site_label
_atom_site_type_symbol
_atom_site_fract_x
_atom_site_fract_y
_atom_site_fract_z
Zn1	Zn	1.135285	-0.250773	0.356012
Zn2	Zn	1.468618	0.082560	0.689345
Zn3	Zn	1.801951	0.415893	1.022678
Zn4	Zn	1.135189	-0.356018	0.250737
Zn5	Zn	1.468523	-0.022684	0.584071
Zn6	Zn	1.801856	0.310649	0.917404
Zn7	Zn	1.011103	-0.250759	0.250746
Zn8	Zn	1.344436	0.082574	0.584079
Zn9	Zn	1.677769	0.415908	0.917413
Zn10	Zn	1.011047	-0.356001	0.355958
Zn11	Zn	1.344380	-0.022668	0.689291
Zn12	Zn	1.677714	0.310665	1.022625
O13	O	1.073156	-0.303388	0.303363
O14	O	1.406489	0.029945	0.636697
O15	O	1.739823	0.363279	0.970030
O16	O	1.239197	-0.264747	0.342066
O17	O	1.572530	0.068586	0.675399
O18	O	1.905863	0.401919	1.008733
O19	O	1.118712	-0.342056	0.162649
O20	O	1.452046	-0.008722	0.495982
O21	O	1.785379	0.324611	0.829316
O22	O	1.027639	-0.162672	0.264736
O23	O	1.360972	0.170662	0.598069
O24	O	1.694306	0.503995	0.931402
O25	O	1.239126	-0.342070	0.264721
O26	O	1.572460	-0.008736	0.598054
O27	O	1.905793	0.324597	0.931388
O28	O	1.118875	-0.162682	0.342074
O29	O	1.452208	0.170651	0.675408
O30	O	1.785542	0.503985	1.008741
O31	O	1.027546	-0.264723	0.162655
O32	O	1.360880	0.068611	0.495989
O33	O	1.694213	0.401944	0.829322
O34	O	0.907171	-0.264707	0.264684
O35	O	1.240504	0.068627	0.598017
O36	O	1.573837	0.401960	0.931350
O37	O	1.027544	-0.342042	0.444054
O38	O	1.360877	-0.008708	0.777388
O39	O	1.694211	0.324625	1.110721
O40	O	0.907130	-0.342028	0.341982
O41	O	1.240463	-0.008695	0.675316
O42	O	1.573796	0.324639	1.008649
O43	O	1.118821	-0.264731	0.444094
O44	O	1.452154	0.068602	0.777427
O45	O	1.785487	0.401935	1.110761
O46	O	1.118658	-0.444105	0.264669
O47	O	1.451992	-0.110772	0.598002
O48	O	1.785325	0.222562	0.931336
O49	O	1.027451	-0.444093	0.341974
O50	O	1.360785	-0.110760	0.675307
O51	O	1.694118	0.222574	1.008641
C52	C	0.880204	-0.303364	0.303328
C53	C	1.213537	0.029969	0.636662
C54	C	1.546870	0.363302	0.969995
C55	C	0.797658	-0.303370	0.303328
C56	C	1.130991	0.029964	0.636662
C57	C	1.464325	0.363297	0.969995
C58	C	0.598208	-0.261274	0.261390
C59	C	0.931541	0.072060	0.594724
C60	C	1.264875	0.405393	0.928057
C61	C	0.548785	-0.318686	0.245895
C62	C	0.882119	0.014647	0.579228
C63	C	1.215452	0.347981	0.912561
C64	C	0.646528	-0.303389	0.303357
C65	C	0.979861	0.029945	0.636690
C66	C	1.313194	0.363278	0.970024
C67	C	0.548868	-0.245996	0.318851
C68	C	0.882202	0.087337	0.652184
C69	C	1.215535	0.420670	0.985517
C70	C	0.500542	-0.303402	0.303383
C71	C	0.833876	0.029931	0.636717
C72	C	1.167209	0.363265	0.970050
C73	C	0.598192	-0.360831	0.287831
C74	C	0.931526	-0.027498	0.621165
C75	C	1.264859	0.305835	0.954498
C76	C	0.598280	-0.288103	0.360814
C77	C	0.931613	0.045231	0.694148
C78	C	1.264946	0.378564	1.027481
C79	C	0.548879	-0.345555	0.345341
C80	C	0.882213	-0.012221	0.678674
C81	C	1.215546	0.321112	1.012007
C82	C	0.730626	-0.303380	0.303340
C83	C	1.063959	0.029953	0.636673
C84	C	1.397293	0.363287	0.970007
C85	C	0.416446	-0.303417	0.303400
C86	C	0.749779	0.029916	0.636733
C87	C	1.083113	0.363250	0.970067
C88	C	1.073058	-0.466940	0.303328
C89	C	1.406392	-0.133606	0.636662
C90	C	1.739725	0.199727	0.969995
C91	C	1.073085	-0.536908	0.303335
C92	C	1.406418	-0.203574	0.636668
C93	C	1.739751	0.129759	0.970001
C94	C	1.120618	-0.569760	0.263123
C95	C	1.453952	-0.236426	0.596456
C96	C	1.787285	0.096907	0.929790
C97	C	1.120653	-0.635502	0.263137
C98	C	1.453987	-0.302169	0.596470
C99	C	1.787320	0.031165	0.929804
C100	C	1.073141	-0.668390	0.303356
C101	C	1.406474	-0.335057	0.636690
C102	C	1.739808	-0.001723	0.970023
C103	C	1.025604	-0.635530	0.343576
C104	C	1.358938	-0.302197	0.676909
C105	C	1.692271	0.031137	1.010242
C106	C	1.025576	-0.569789	0.343565
C107	C	1.358909	-0.236456	0.676898
C108	C	1.692243	0.096878	1.010231
N109	N	1.008174	-0.771653	0.308143
N110	N	1.341508	-0.438320	0.641477
N111	N	1.674841	-0.104987	0.974810
N112	N	1.008203	-0.834105	0.308150
N113	N	1.341536	-0.500771	0.641483
N114	N	1.674870	-0.167438	0.974817
C115	C	1.073224	-0.866465	0.303392
C116	C	1.406558	-0.533131	0.636726
C117	C	1.739891	-0.199798	0.970059
N118	N	1.138217	-0.834014	0.298615
N119	N	1.471550	-0.500681	0.631949
N120	N	1.804884	-0.167348	0.965282
N121	N	1.138187	-0.771557	0.298605
N122	N	1.471521	-0.438224	0.631939
N123	N	1.804854	-0.104890	0.965272
C124	C	1.073167	-0.739675	0.303373
C125	C	1.406500	-0.406342	0.636706
C126	C	1.739833	-0.073009	0.970039
C127	C	1.120800	-0.970602	0.263194
C128	C	1.454133	-0.637269	0.596527
C129	C	1.787466	-0.303936	0.929861
C130	C	1.120836	-1.036346	0.263213
C131	C	1.454169	-0.703013	0.596546
C132	C	1.787502	-0.369679	0.929879
C133	C	1.025780	-1.036373	0.343648
C134	C	1.359113	-0.703039	0.676981
C135	C	1.692447	-0.369706	1.010314
C136	C	1.025751	-0.970630	0.343632
C137	C	1.359084	-0.637297	0.676966
C138	C	1.692417	-0.303964	1.010299
C139	C	1.073259	-0.937749	0.303402
C140	C	1.406593	-0.604416	0.636736
C141	C	1.739926	-0.271082	0.970069
C142	C	1.266861	-0.303412	0.303399
C143	C	1.600195	0.029921	0.636732
C144	C	1.933528	0.363255	0.970065
C145	C	1.349407	-0.303422	0.303414
C146	C	1.682741	0.029911	0.636747
C147	C	2.016074	0.363245	0.970080
C148	C	1.073187	-0.303386	0.467553
C149	C	1.406520	0.029947	0.800887
C150	C	1.739853	0.363280	1.134220
C151	C	1.073200	-0.303386	0.537522
C152	C	1.406533	0.029948	0.870855
C153	C	1.739867	0.363281	1.204188
C154	C	1.073274	-0.139198	0.303412
C155	C	1.406607	0.194136	0.636745
C156	C	1.739940	0.527469	0.970079
C157	C	1.073324	-0.069229	0.303433
C158	C	1.406657	0.264104	0.636766
C159	C	1.739991	0.597437	0.970099
C160	C	1.025737	-0.263121	0.570382
C161	C	1.359070	0.070212	0.903715
C162	C	1.692404	0.403545	1.237048
C163	C	1.025724	-0.263125	0.636124
C164	C	1.359057	0.070209	0.969457
C165	C	1.692390	0.403542	1.302791
C166	C	1.073186	-0.303386	0.669004
C167	C	1.406519	0.029948	1.002337
C168	C	1.739853	0.363281	1.335671
C169	C	1.120652	-0.343658	0.636136
C170	C	1.453986	-0.010325	0.969469
C171	C	1.787319	0.323009	1.302803
C172	C	1.120659	-0.343658	0.570395
C173	C	1.453993	-0.010325	0.903728
C174	C	1.787326	0.323009	1.237062
N175	N	1.138179	-0.308221	0.772248
N176	N	1.471513	0.025113	1.105581
N177	N	1.804846	0.358446	1.438915
N178	N	1.138171	-0.308217	0.834699
N179	N	1.471504	0.025116	1.168033
N180	N	1.804837	0.358449	1.501366
C181	C	1.073167	-0.303389	0.867079
C182	C	1.406500	0.029944	1.200412
C183	C	1.739834	0.363277	1.533745
N184	N	1.008171	-0.298553	0.834647
N185	N	1.341504	0.034781	1.167981
N186	N	1.674838	0.368114	1.501314
N187	N	1.008181	-0.298553	0.772190
N188	N	1.341514	0.034780	1.105524
N189	N	1.674847	0.368114	1.438857
C190	C	1.073184	-0.303391	0.740289
C191	C	1.406517	0.029943	1.073623
C192	C	1.739850	0.363276	1.406956
C193	C	1.025685	-0.263126	0.971224
C194	C	1.359019	0.070207	1.304558
C195	C	1.692352	0.403540	1.637891
C196	C	1.025671	-0.263134	1.036968
C197	C	1.359004	0.070199	1.370301
C198	C	1.692337	0.403533	1.703635
C199	C	1.120606	-0.343664	1.036979
C200	C	1.453939	-0.010331	1.370312
C201	C	1.787273	0.323003	1.703645
C202	C	1.120614	-0.343660	0.971236
C203	C	1.453948	-0.010326	1.304570
C204	C	1.787281	0.323007	1.637903
C205	C	1.073155	-0.303387	0.938363
C206	C	1.406488	0.029946	1.271696
C207	C	1.739822	0.363279	1.605030
C208	C	1.073126	-0.303402	1.139812
C209	C	1.406460	0.029932	1.473145
C210	C	1.739793	0.363265	1.806478
C211	C	1.073133	-0.303396	1.069844
C212	C	1.406466	0.029937	1.403177
C213	C	1.739799	0.363270	1.736510
H214	H	1.159305	-0.542990	0.230367
H215	H	1.492638	-0.209656	0.563700
H216	H	1.825971	0.123677	0.897033
F217	F	0.974982	-0.534824	0.386365
F218	F	1.308315	-0.201491	0.719699
F219	F	1.641649	0.131842	1.053032
F220	F	1.171162	-0.386509	0.671130
F221	F	1.504496	-0.053176	1.004463
F222	F	1.837829	0.280158	1.337797
H223	H	1.159312	-0.376445	0.543641
H224	H	1.492646	-0.043112	0.876974
H225	H	1.825979	0.290221	1.210307
H226	H	0.987041	-0.943880	0.376374
H227	H	1.320375	-0.610547	0.709707
H228	H	1.653708	-0.277214	1.043041
H229	H	0.987098	-1.063150	0.376398
H230	H	1.320432	-0.729816	0.709731
H231	H	1.653765	-0.396483	1.043064
F232	F	0.520369	-0.335599	0.182399
F233	F	0.853703	-0.002265	0.515732
F234	F	1.187036	0.331068	0.849066
F235	F	0.626391	-0.424297	0.270643
F236	F	0.959724	-0.090964	0.603977
F237	F	1.293057	0.242369	0.937310
F238	F	0.520745	-0.392166	0.391744
F239	F	0.854079	-0.058832	0.725077
F240	F	1.187412	0.274501	1.058410
H241	H	1.159487	-0.943829	0.230438
H242	H	1.492820	-0.610496	0.563771
H243	H	1.826153	-0.277163	0.897105
H244	H	0.987015	-0.230348	1.063722
H245	H	1.320349	0.102985	1.397055
H246	H	1.653682	0.436319	1.730388
H247	H	1.159548	-1.063093	0.230469
H248	H	1.492881	-0.729760	0.563802
H249	H	1.826215	-0.396426	0.897135
H250	H	0.987089	-0.230331	0.543620
H251	H	1.320423	0.103003	0.876954
H252	H	1.653756	0.436336	1.210287
F253	F	1.171116	-0.386517	1.071968
F254	F	1.504449	-0.053183	1.405301
F255	F	1.837782	0.280150	1.738634
H256	H	0.987075	-0.230333	0.662884
H257	H	1.320408	0.103000	0.996217
H258	H	1.653741	0.436333	1.329551
F259	F	0.975173	-0.220269	0.936236
F260	F	1.308506	0.113065	1.269569
F261	F	1.641839	0.446398	1.602903
H262	H	0.527163	-0.197461	0.331923
H263	H	0.860496	0.135872	0.665256
H264	H	1.193830	0.469206	0.998590
H265	H	1.159265	-0.376446	0.944481
H266	H	1.492599	-0.043112	1.277815
H267	H	1.825932	0.290221	1.611148
H268	H	0.620036	-0.275146	0.409379
H269	H	0.953370	0.058187	0.742712
H270	H	1.286703	0.391520	1.076046
H271	H	1.159363	-0.662255	0.230392
H272	H	1.492697	-0.328922	0.563726
H273	H	1.826030	0.004411	0.897059
F274	F	0.975041	-0.670533	0.386382
F275	F	1.308375	-0.337199	0.719715
F276	F	1.641708	-0.003866	1.053049
H277	H	0.619867	-0.225697	0.225862
H278	H	0.953200	0.107637	0.559195
H279	H	1.286534	0.440970	0.892529
