data_functionalizedCrystal
_audit_creation_method	'MofGen! by Chris Wilmer'
_symmetry_space_group_name_H-M	'P1'
_symmetry_Int_Tables_number	1
_symmetry_cell_setting	triclinic
loop_
_symmetry_equiv_pos_as_xyz
  x,y,z
_cell_length_a	27.440280
_cell_length_b	20.875641
_cell_length_c	27.440280
_cell_angle_alpha	57.589928
_cell_angle_beta	90.007570
_cell_angle_gamma	62.438438
loop_
_atom_site_label
_atom_site_type_symbol
_atom_site_fract_x
_atom_site_fract_y
_atom_site_fract_z
Zr1	Zr	0.489070	0.702042	-0.083463
O2	O	0.414975	0.835880	-0.165021
O3	O	0.509197	0.568217	-0.055875
O4	O	0.512918	0.702045	-0.161278
O5	O	0.411262	0.702044	0.020583
O6	O	0.593121	0.702033	-0.161267
O7	O	0.411254	0.702052	-0.059618
O8	O	0.586464	0.462639	0.027278
O9	O	0.417918	0.941438	-0.167963
O10	O	0.580761	0.623247	-0.047227
O11	O	0.520913	0.623251	0.012619
O12	O	0.525294	0.780816	-0.111479
O13	O	0.465446	0.780820	-0.051633
Zr14	Zr	0.616996	0.702010	0.044465
Zr15	Zr	0.616984	0.702022	-0.083447
Zr16	Zr	0.489083	0.702030	0.044448
Zr17	Zr	0.493764	0.870395	-0.088156
Zr18	Zr	0.612302	0.533657	0.049157
O19	O	0.596870	0.835835	0.016877
O20	O	0.596852	0.835851	-0.164997
O21	O	0.414993	0.835863	0.016853
O22	O	0.691091	0.568172	0.126022
O23	O	0.691074	0.568189	-0.055852
O24	O	0.509215	0.568201	0.125998
O25	O	0.694805	0.702008	-0.059582
O26	O	0.593148	0.702007	0.122279
O27	O	0.512946	0.702019	0.122269
O28	O	0.694813	0.702000	0.020620
O29	O	0.519593	0.941422	-0.167949
O30	O	0.586474	0.462630	0.128951
O31	O	0.688148	0.462614	0.128964
O32	O	0.688138	0.462623	0.027291
O33	O	0.417928	0.941429	-0.066290
O34	O	0.519603	0.941413	-0.066277
O35	O	0.580773	0.623236	0.072480
O36	O	0.640621	0.623232	0.012634
O37	O	0.585154	0.780801	-0.051618
O38	O	0.525306	0.780805	0.008228
C39	C	0.547161	0.491441	-0.013630
C40	C	0.545169	0.419971	-0.011638
C41	C	0.575471	0.386392	-0.041941
C42	C	0.573600	0.319233	-0.040064
C43	C	0.541423	0.285659	-0.007887
C44	C	0.511120	0.319241	0.022420
C45	C	0.512994	0.386394	0.020546
C46	C	0.532469	0.084816	0.001072
C47	C	0.530595	0.017660	0.002942
C48	C	0.593077	0.017656	-0.059541
C49	C	0.594946	0.084814	-0.061415
C50	C	0.564645	0.118387	-0.031106
N51	N	0.539508	0.217014	-0.005968
N52	N	0.566564	0.187026	-0.033021
C53	C	0.393033	0.702051	-0.019520
C54	C	0.338730	0.702059	-0.019527
C55	C	0.030984	0.619762	0.014056
C56	C	-0.020034	0.619757	0.014062
O57	O	-0.021799	0.549807	0.042604
N58	N	-0.074504	0.702005	-0.019478
C59	C	-0.077955	0.784264	-0.053020
O60	O	-0.128970	0.854222	-0.081547
C61	C	-0.026937	0.784268	-0.053021
C62	C	0.027532	0.702014	-0.019485
C63	C	0.085451	0.537515	0.047591
C64	C	0.136466	0.537520	0.047585
C65	C	0.133014	0.619772	0.014043
C66	C	0.078547	0.702020	-0.019491
C67	C	-0.030388	0.866526	-0.086560
C68	C	0.020636	0.866523	-0.086558
C69	C	0.075105	0.784269	-0.053021
C70	C	0.126110	0.784277	-0.053039
N71	N	0.180580	0.702029	-0.019499
C72	C	0.184032	0.619776	0.014042
C73	C	-0.185094	0.784249	-0.053013
C74	C	-0.236111	0.784246	-0.053016
C75	C	-0.178187	0.619738	0.014067
C76	C	-0.127169	0.619742	0.014066
C77	C	-0.130624	0.702001	-0.019474
C78	C	0.291165	0.619794	0.014025
C79	C	0.342182	0.619807	0.014014
C80	C	0.284254	0.784314	-0.053066
C81	C	0.233241	0.784302	-0.053057
C82	C	0.236701	0.702034	-0.019507
O83	O	0.127920	0.854192	-0.081564
O84	O	0.235050	0.549830	0.042571
C85	C	0.713034	0.702001	-0.019479
C86	C	0.767336	0.701993	-0.019472
C87	C	0.553018	0.702041	-0.179497
C88	C	0.553012	0.702046	-0.233799
C89	C	0.558905	0.912611	-0.025369
C90	C	0.560898	0.984081	-0.027361
C91	C	0.508846	0.702020	-0.468491
C92	C	0.508843	0.702022	-0.417472
O93	O	0.471277	0.701998	-0.391075
N94	N	0.553025	0.702022	-0.391953
C95	C	0.597216	0.702011	-0.417453
O96	O	0.634796	0.702010	-0.391062
C97	C	0.597221	0.702002	-0.468469
C98	C	0.553032	0.702012	-0.493988
C99	C	0.464661	0.702029	-0.494011
C100	C	0.464664	0.702028	-0.545027
C101	C	0.508850	0.702020	-0.570525
C102	C	0.553035	0.702011	-0.545005
C103	C	0.641413	0.701985	-0.493965
C104	C	0.641414	0.701975	-0.544984
C105	C	0.597226	0.701985	-0.570504
C106	C	0.597224	0.702002	-0.621519
N107	N	0.553041	0.702003	-0.647038
C108	C	0.508855	0.702011	-0.621541
C109	C	0.597204	0.702027	-0.310315
C110	C	0.597198	0.702042	-0.259303
C111	C	0.508825	0.702052	-0.259324
C112	C	0.508829	0.702043	-0.310340
C113	C	0.553022	0.702027	-0.335834
C114	C	0.508863	0.702011	-0.728680
C115	C	0.508868	0.702015	-0.779703
C116	C	0.597242	0.702000	-0.779674
C117	C	0.597235	0.702002	-0.728658
C118	C	0.553043	0.702004	-0.703161
O119	O	0.634772	0.702023	-0.647947
O120	O	0.471285	0.702000	-0.647933
C121	C	0.553049	0.702011	0.140498
C122	C	0.553054	0.702006	0.194800
C123	C	0.707162	0.491417	-0.013609
C124	C	0.759472	0.419938	-0.011610
C125	C	0.547177	0.491427	0.146368
C126	C	0.545190	0.419951	0.202661
C127	C	0.707178	0.491402	0.146388
C128	C	0.759493	0.419918	0.202689
C129	C	0.398889	0.912650	-0.185387
C130	C	0.346574	0.984134	-0.241688
C131	C	0.398905	0.912635	-0.025389
C132	C	0.346595	0.984114	-0.027388
C133	C	0.558889	0.912625	-0.185366
C134	C	0.560877	0.984101	-0.241660
C135	C	0.752791	0.386378	-0.041924
C136	C	0.801937	0.319226	-0.040058
C137	C	0.857763	0.285629	-0.007874
C138	C	0.864443	0.319195	0.022440
C139	C	0.815298	0.386351	0.020570
C140	C	0.575503	0.386378	0.260350
C141	C	0.573633	0.319229	0.313248
C142	C	0.541454	0.285649	0.308457
C143	C	0.511137	0.319229	0.250763
C144	C	0.513004	0.386382	0.197865
C145	C	0.815306	0.386347	0.197890
C146	C	0.864467	0.319189	0.250785
C147	C	0.857813	0.285600	0.308479
C148	C	0.801994	0.319178	0.313277
C149	C	0.752834	0.386339	0.260382
C150	C	0.290761	1.017714	-0.236889
C151	C	0.241600	1.084892	-0.289785
C152	C	0.248254	1.118484	-0.347479
C153	C	0.304073	1.084902	-0.352277
C154	C	0.353232	1.017730	-0.299382
C155	C	0.353276	1.017681	0.002920
C156	C	0.304130	1.084852	0.001039
C157	C	0.248304	1.118451	-0.031146
C158	C	0.241624	1.084881	-0.061458
C159	C	0.290769	1.017716	-0.059581
C160	C	0.593062	1.017659	-0.236850
C161	C	0.594941	1.084809	-0.289738
C162	C	0.564631	1.118404	-0.347437
C163	C	0.532445	1.084839	-0.352247
C164	C	0.530570	1.017686	-0.299358
H165	H	0.504390	-0.009672	0.029145
C166	C	0.311385	1.121857	-0.415744
C167	C	0.284624	1.112637	-0.459153
C168	C	0.291933	1.149590	-0.522622
C169	C	0.326004	1.195762	-0.542682
C170	C	0.352767	1.204984	-0.499273
C171	C	0.345458	1.168031	-0.435804
H172	H	0.259401	1.078456	-0.444303
H173	H	0.272121	1.142764	-0.554756
H174	H	0.331414	1.223117	-0.589666
H175	H	0.377990	1.239165	-0.514122
H176	H	0.365270	1.174857	-0.403670
C177	C	0.499134	0.121737	0.034411
C178	C	0.513654	0.057085	0.104080
C179	C	0.480316	0.094006	0.137421
C180	C	0.432459	0.195579	0.101094
C181	C	0.417936	0.260237	0.031421
C182	C	0.451274	0.223316	-0.001921
H183	H	0.549084	-0.018111	0.130975
H184	H	0.491067	0.046141	0.188998
H185	H	0.407780	0.222910	0.125776
H186	H	0.382507	0.335433	0.004526
H187	H	0.440523	0.271181	-0.053497
C188	C	0.499105	1.121801	-0.415719
C189	C	0.463698	1.084898	-0.421022
C190	C	0.430355	1.121866	-0.484495
C191	C	0.432420	1.195736	-0.542665
C192	C	0.467828	1.232643	-0.537364
C193	C	0.501171	1.195676	-0.473890
H194	H	0.462168	1.030211	-0.377959
H195	H	0.404144	1.094544	-0.488420
H196	H	0.407738	1.223102	-0.589652
H197	H	0.469358	1.287330	-0.580427
H198	H	0.527382	1.222997	-0.469966
C199	C	0.479660	0.423335	0.053878
C200	C	0.444264	0.386409	0.089272
C201	C	0.410932	0.423346	0.122608
C202	C	0.412995	0.497208	0.120551
C203	C	0.448392	0.534138	0.085156
C204	C	0.481725	0.497201	0.051820
H205	H	0.442736	0.331729	0.090796
H206	H	0.384728	0.396008	0.148810
H207	H	0.388320	0.524551	0.145228
H208	H	0.449920	0.588819	0.083632
H209	H	0.507928	0.524539	0.025618
C210	C	0.475744	0.282281	0.245501
C211	C	0.506425	0.180702	0.274835
C212	C	0.471035	0.143747	0.269576
C213	C	0.404964	0.208370	0.234984
C214	C	0.374280	0.309955	0.205648
C215	C	0.409670	0.346911	0.210907
H216	H	0.555337	0.132858	0.300444
H217	H	0.493750	0.068546	0.291293
H218	H	0.378767	0.181014	0.231092
H219	H	0.325368	0.357799	0.180039
H220	H	0.386955	0.422111	0.189190
C221	C	0.630343	1.121726	-0.284439
C222	C	0.632415	1.195589	-0.342607
C223	C	0.667816	1.232504	-0.337306
C224	C	0.701145	1.195558	-0.273836
C225	C	0.699074	1.121691	-0.215664
C226	C	0.663673	1.084776	-0.220965
H227	H	0.607742	1.222943	-0.389594
H228	H	0.669349	1.287185	-0.380369
H229	H	0.727351	1.222885	-0.269912
H230	H	0.723747	1.094337	-0.168676
H231	H	0.662140	1.030095	-0.177902
C232	C	0.180212	1.121835	-0.096852
C233	C	0.126159	1.195703	-0.098903
C234	C	0.064746	1.232651	-0.134290
C235	C	0.057385	1.195731	-0.167627
C236	C	0.111439	1.121859	-0.165577
C237	C	0.172853	1.084911	-0.130190
H238	H	0.131606	1.223037	-0.074224
H239	H	0.024731	1.287336	-0.135807
H240	H	0.011923	1.223082	-0.193823
H241	H	0.105992	1.094525	-0.190256
H242	H	0.212868	1.030226	-0.128673
C243	C	0.610900	0.423310	0.265630
C244	C	0.644235	0.386375	0.329093
C245	C	0.679630	0.423306	0.334380
C246	C	0.681691	0.497173	0.276203
C247	C	0.648355	0.534112	0.212736
C248	C	0.612959	0.497181	0.207449
H249	H	0.642710	0.331691	0.372163
H250	H	0.704308	0.395961	0.381363
H251	H	0.707893	0.524511	0.280117
H252	H	0.649880	0.588796	0.169666
H253	H	0.588282	0.524526	0.160466
H254	H	0.820735	0.413685	0.150917
C255	C	0.794580	0.282304	-0.073399
C256	C	0.818235	0.180733	-0.037070
C257	C	0.810877	0.143812	-0.070411
C258	C	0.779865	0.208463	-0.140080
C259	C	0.756208	0.310041	-0.176413
C260	C	0.763565	0.346961	-0.143073
H261	H	0.841195	0.132869	0.014506
H262	H	0.828390	0.068618	-0.043514
H263	H	0.774418	0.181133	-0.164761
H264	H	0.733248	0.357905	-0.227990
H265	H	0.746053	0.422156	-0.169969
C266	C	0.311488	1.121760	0.034391
C267	C	0.345582	1.167893	0.016806
C268	C	0.352942	1.204797	0.050159
C269	C	0.326207	1.195566	0.101097
C270	C	0.292110	1.149430	0.118684
C271	C	0.284751	1.112527	0.085331
H272	H	0.365375	1.174728	-0.020903
H273	H	0.378182	1.238950	0.037140
H274	H	0.331655	1.222884	0.125787
H275	H	0.272317	1.142595	0.156394
H276	H	0.259510	1.078374	0.098351
H277	H	0.398677	0.990390	-0.303296
H278	H	0.285331	0.990366	-0.189916
C279	C	0.925863	0.282258	0.245498
C280	C	0.933176	0.319199	0.182034
C281	C	0.994570	0.282270	0.176746
C282	C	1.048650	0.208401	0.234921
C283	C	1.041339	0.171456	0.298389
C284	C	0.979945	0.208384	0.303678
H285	H	0.893141	0.373886	0.138966
H286	H	0.999982	0.309620	0.129762
H287	H	1.094098	0.181064	0.231006
H288	H	1.081374	0.116769	0.341458
H289	H	0.974533	0.181035	0.350662
H290	H	0.208292	1.173141	-0.032670
H291	H	0.601670	0.413728	-0.068146
C292	C	0.911892	0.211717	0.366662
C293	C	0.954562	0.119385	0.380106
C294	C	1.008644	0.045500	0.438285
C295	C	1.020055	0.063946	0.483021
C296	C	0.977383	0.156281	0.469578
C297	C	0.923302	0.230167	0.411398
H298	H	0.946116	0.105727	0.346989
H299	H	1.040232	-0.022853	0.448236
H300	H	1.060089	0.009251	0.526089
H301	H	0.985829	0.169939	0.502695
H302	H	0.891714	0.298519	0.401447
C303	C	0.566693	1.192279	-0.405612
C304	C	0.625457	1.173802	-0.415957
C305	C	0.627520	1.247679	-0.474129
C306	C	0.570820	1.340034	-0.521955
C307	C	0.512052	1.358515	-0.511611
C308	C	0.509989	1.284638	-0.453439
H309	H	0.667433	1.105432	-0.380552
H310	H	0.671024	1.233997	-0.481786
H311	H	0.572347	1.394722	-0.565017
H312	H	0.470075	1.426885	-0.547016
H313	H	0.466485	1.298319	-0.445782
H314	H	0.208221	1.173180	-0.390545
H315	H	0.484924	0.291895	0.048623
H316	H	0.285321	0.990388	-0.084260
H317	H	0.598275	0.291893	-0.064738
C318	C	0.539407	0.211775	0.366649
C319	C	0.572757	0.174847	0.430103
C320	C	0.570715	0.100972	0.488297
C321	C	0.535323	0.064025	0.483036
C322	C	0.501970	0.100953	0.419580
C323	C	0.504013	0.174828	0.361386
H324	H	0.598959	0.202197	0.433999
H325	H	0.595405	0.073635	0.535272
H326	H	0.533811	0.009338	0.526115
H327	H	0.475769	0.073603	0.415683
H328	H	0.479323	0.202165	0.314411
H329	H	0.633175	0.702049	-0.238534
C330	C	0.690024	0.701966	-0.465897
C331	C	0.754057	0.623610	-0.440969
C332	C	0.802671	0.623588	-0.412900
C333	C	0.787254	0.701921	-0.409758
C334	C	0.723218	0.780283	-0.434687
C335	C	0.674603	0.780305	-0.462756
H336	H	0.765472	0.565618	-0.443294
H337	H	0.850075	0.565580	-0.394446
H338	H	0.823241	0.701905	-0.388979
H339	H	0.711803	0.838275	-0.432362
H340	H	0.627200	0.838313	-0.481210
H341	H	0.386533	0.552823	0.041326
H342	H	0.796585	0.291820	0.360259
C343	C	0.925856	0.282225	0.057845
C344	C	0.946438	0.346828	0.039744
C345	C	1.007852	0.309849	0.075153
C346	C	1.048684	0.208265	0.128663
C347	C	1.028102	0.143655	0.146767
C348	C	0.966688	0.180635	0.111358
H349	H	0.916211	0.422032	0.000130
H350	H	1.023087	0.357678	0.061751
H351	H	1.094146	0.180891	0.154875
H352	H	1.058329	0.068452	0.186381
H353	H	0.951453	0.132806	0.124760
H354	H	0.472882	0.702025	-0.800480
C355	C	0.180204	1.121814	-0.284497
C356	C	0.162744	1.167950	-0.252975
C357	C	0.101351	1.204869	-0.247686
C358	C	0.057417	1.195652	-0.273918
C359	C	0.074876	1.149514	-0.305442
C360	C	0.136270	1.112596	-0.310732
H361	H	0.195267	1.174775	-0.233555
H362	H	0.088426	1.239023	-0.224349
H363	H	0.011970	1.222981	-0.270002
H364	H	0.042353	1.142690	-0.324862
H365	H	0.149194	1.078442	-0.334068
H366	H	0.621147	0.112149	-0.087616
C367	C	0.911820	0.211750	-0.005816
C368	C	0.904464	0.174835	-0.039158
C369	C	0.958518	0.100953	-0.037099
C370	C	1.019929	0.063986	-0.001698
C371	C	1.027288	0.100901	0.031647
C372	C	0.973234	0.174783	0.029588
H373	H	0.859002	0.202201	-0.065366
H374	H	0.953070	0.073627	-0.061784
H375	H	1.059943	0.009294	-0.000174
H376	H	1.072750	0.073535	0.057855
H377	H	0.978681	0.202109	0.054273
H378	H	0.677403	0.701959	-0.565737
H379	H	0.633217	0.701997	-0.800444
H380	H	0.398728	0.990330	0.029132
H381	H	0.488321	0.413708	0.150895
H382	H	0.428683	0.702032	-0.565801
H383	H	0.428679	0.702032	-0.473254
C384	C	-0.188899	0.874741	-0.089918
C385	C	-0.219816	0.942593	-0.159678
C386	C	-0.223624	1.033084	-0.196582
C387	C	-0.196516	1.055723	-0.163726
C388	C	-0.165597	0.987869	-0.093962
C389	C	-0.161789	0.897378	-0.057058
H390	H	-0.239885	0.925836	-0.184004
H391	H	-0.246513	1.083314	-0.248226
H392	H	-0.199335	1.122709	-0.191045
H393	H	-0.145528	1.004625	-0.069637
H394	H	-0.138900	0.847148	-0.005414
H395	H	0.504359	0.990370	-0.303284
H396	H	0.293991	0.552804	0.041346
H397	H	0.617747	-0.009686	-0.084216
C398	C	0.645840	0.701999	-0.700588
C399	C	0.685579	0.623638	-0.633562
C400	C	0.734189	0.623625	-0.605493
C401	C	0.743059	0.701974	-0.644450
C402	C	0.703319	0.780341	-0.711481
C403	C	0.654709	0.780354	-0.739550
H404	H	0.679014	0.565634	-0.604719
H405	H	0.763607	0.565612	-0.555872
H406	H	0.779043	0.701964	-0.623672
H407	H	0.709884	0.838345	-0.740323
H408	H	0.625291	0.838367	-0.789170
C409	C	0.196378	0.447037	0.084482
C410	C	0.239412	0.424401	0.051623
C411	C	0.299321	0.333912	0.088524
C412	C	0.316195	0.266057	0.158285
C413	C	0.273160	0.288691	0.191147
C414	C	0.213251	0.379181	0.154246
H415	H	0.226922	0.474632	-0.000022
H416	H	0.331179	0.317157	0.064196
H417	H	0.360544	0.199072	0.185601
H418	H	0.285650	0.238460	0.242792
H419	H	0.181393	0.395935	0.178574
C420	C	0.089260	0.447025	0.084492
C421	C	0.120167	0.379179	0.070067
C422	C	0.123983	0.288682	0.106968
C423	C	0.096893	0.266031	0.158293
C424	C	0.065984	0.333879	0.172720
C425	C	0.062167	0.424376	0.135819
H426	H	0.140222	0.395944	0.032071
H427	H	0.146864	0.238456	0.096288
H428	H	0.099718	0.199039	0.185609
H429	H	0.045928	0.317113	0.210716
H430	H	0.039286	0.474602	0.146499
H431	H	-0.082821	0.552764	0.041380
H432	H	0.707390	0.413664	0.264299
C433	C	0.460221	0.702052	-0.231267
C434	C	0.475658	0.623700	-0.164240
C435	C	0.427057	0.623701	-0.136181
C436	C	0.363021	0.702054	-0.175148
C437	C	0.347581	0.780412	-0.242178
C438	C	0.396181	0.780411	-0.270238
H439	H	0.523064	0.565693	-0.135391
H440	H	0.438487	0.565695	-0.086560
H441	H	0.327044	0.702055	-0.154377
H442	H	0.300174	0.838419	-0.271028
H443	H	0.384751	0.838417	-0.319858
H444	H	0.707339	0.413732	-0.068139
H445	H	-0.280459	0.851225	-0.080332
C446	C	0.016834	0.957011	-0.123455
C447	C	-0.014084	1.024873	-0.193215
C448	C	-0.017887	1.115359	-0.230112
C449	C	0.009230	1.137982	-0.197250
C450	C	0.040150	1.070118	-0.127487
C451	C	0.043953	0.979632	-0.090589
H452	H	-0.034159	1.008127	-0.217545
H453	H	-0.040776	1.165596	-0.281756
H454	H	0.006415	1.204966	-0.224564
H455	H	0.060225	1.086864	-0.103157
H456	H	0.066842	0.929395	-0.038945
H457	H	0.598323	0.291896	0.360220
H458	H	-0.175384	0.552764	0.041376
H459	H	-0.074731	0.933506	-0.113868
H460	H	0.281453	0.851281	-0.080376
C461	C	0.460225	0.702045	-0.338406
C462	C	0.451355	0.623698	-0.299438
C463	C	0.402749	0.623697	-0.327500
C464	C	0.363013	0.702044	-0.394529
C465	C	0.371882	0.780396	-0.433501
C466	C	0.420488	0.780397	-0.405439
H467	H	0.480770	0.565696	-0.249815
H468	H	0.396183	0.565695	-0.298650
H469	H	0.327032	0.702043	-0.415302
H470	H	0.342466	0.838398	-0.483124
H471	H	0.427053	0.838399	-0.434289
H472	H	0.188889	0.851279	-0.080374
H473	H	0.472878	0.702012	-0.707925
H474	H	0.633190	0.702021	-0.331072
H475	H	0.820746	0.413667	0.045258
H476	H	0.617744	0.990316	-0.189873
