data_functionalizedCrystal
_audit_creation_method	'MofGen! by Chris Wilmer'
_symmetry_space_group_name_H-M	'P1'
_symmetry_Int_Tables_number	1
_symmetry_cell_setting	triclinic
loop_
_symmetry_equiv_pos_as_xyz
  x,y,z
_cell_length_a	12.837943
_cell_length_b	15.944493
_cell_length_c	11.295483
_cell_angle_alpha	94.100278
_cell_angle_beta	85.461227
_cell_angle_gamma	89.151992
loop_
_atom_site_label
_atom_site_type_symbol
_atom_site_fract_x
_atom_site_fract_y
_atom_site_fract_z
O1	O	1.382393	0.213269	-0.098973
O2	O	1.080590	0.202482	-0.098982
O3	O	1.239765	0.086258	-0.098987
O4	O	1.223218	0.329492	-0.098968
O5	O	1.225784	0.096449	0.099064
O6	O	1.066609	0.212672	0.099070
O7	O	1.368412	0.223459	0.099078
Cu8	Cu	1.216234	0.218996	0.117158
Cu9	Cu	1.232768	0.206945	-0.117061
O10	O	1.209237	0.339683	0.099084
C11	C	1.034980	0.203933	0.000043
C12	C	0.919905	0.193065	0.000039
C13	C	0.678920	0.323719	0.000066
C14	C	0.570796	0.313512	0.000063
C15	C	0.595531	0.162443	0.000039
C16	C	0.703655	0.172650	0.000041
C17	C	0.745345	0.253291	0.000053
C18	C	0.853471	0.263498	0.000048
C19	C	0.878203	0.112430	0.000032
C20	C	0.770080	0.102222	0.000029
C21	C	1.232098	0.060004	0.000034
C22	C	1.230072	-0.033407	0.000018
C23	C	1.323764	-0.261670	0.000044
C24	C	1.280132	-0.321305	-0.097607
C25	C	1.226314	-0.204428	0.000033
C26	C	1.266325	-0.311236	0.097656
C27	C	1.222692	-0.369626	0.000052
C28	C	1.182714	-0.262836	-0.097698
C29	C	1.168916	-0.252758	0.097653
C30	C	1.125213	-0.312366	-0.000022
C31	C	1.228404	-0.109261	0.000021
C32	C	1.220595	-0.464791	0.000056
C33	C	1.414022	0.222008	0.000051
C34	C	1.529098	0.232876	0.000048
C35	C	1.216903	0.365936	0.000061
C36	C	1.218930	0.459348	0.000068
N37	N	1.204613	0.227473	0.281894
N38	N	1.244397	0.198462	-0.281798
C39	C	1.328055	0.137396	0.531180
C40	C	1.319280	0.143808	0.655844
C41	C	1.178283	0.246705	0.655888
C42	C	1.187058	0.240293	0.531225
C43	C	1.261947	0.185637	0.468874
C44	C	1.270727	0.179230	0.344208
C45	C	1.129726	0.282122	0.344255
C46	C	1.120951	0.288534	0.468919
H47	H	0.736119	0.036567	0.000033
Cl48	Cl	1.084131	0.315401	0.734283
Cl49	Cl	1.128222	-0.229992	-0.225299
Cl50	Cl	0.731336	0.425092	0.000065
Cl51	Cl	1.026806	0.357239	0.547311
H52	H	1.407712	-0.239332	-0.000052
Cl53	Cl	0.905882	0.364873	0.000060
Cl54	Cl	1.364874	0.110523	0.265828
H55	H	1.075900	0.321406	0.293512
H56	H	0.516716	0.370862	0.000077
H57	H	1.301673	-0.332625	0.180207
H58	H	1.389039	0.092899	0.480413
H59	H	1.041211	-0.334556	-0.000078
Cl60	Cl	1.096454	-0.206539	0.225118
Cl61	Cl	0.543100	0.061075	0.000039
Cl62	Cl	1.402388	0.083157	0.734167
Cl63	Cl	1.352667	-0.367474	-0.225063
Cl64	Cl	0.961718	0.023885	-0.000003
