data_functionalizedCrystal
_audit_creation_method	'MofGen! by Chris Wilmer'
_symmetry_space_group_name_H-M	'P1'
_symmetry_Int_Tables_number	1
_symmetry_cell_setting	triclinic
loop_
_symmetry_equiv_pos_as_xyz
  x,y,z
_cell_length_a	16.992701
_cell_length_b	12.811415
_cell_length_c	15.455313
_cell_angle_alpha	87.254642
_cell_angle_beta	87.136501
_cell_angle_gamma	87.340280
loop_
_atom_site_label
_atom_site_type_symbol
_atom_site_fract_x
_atom_site_fract_y
_atom_site_fract_z
O1	O	1.045352	0.217283	-0.089226
O2	O	1.545352	0.717283	0.410774
O3	O	0.817050	0.214855	-0.089035
O4	O	1.317050	0.714855	0.410965
O5	O	0.936378	0.064470	-0.077202
O6	O	1.436378	0.564470	0.422798
O7	O	0.926024	0.367669	-0.101059
O8	O	1.426024	0.867669	0.398941
O9	O	0.929554	0.073032	0.066386
O10	O	1.429554	0.573032	0.566386
O11	O	0.810226	0.223417	0.054553
O12	O	1.310226	0.723417	0.554553
O13	O	1.038528	0.225845	0.054362
O14	O	1.538528	0.725845	0.554362
Cu15	Cu	0.923754	0.225413	0.067568
Cu16	Cu	1.423754	0.725413	0.567568
Cu17	Cu	0.931824	0.215288	-0.102241
Cu18	Cu	1.431824	0.715288	0.397759
O19	O	0.919200	0.376230	0.042529
O20	O	1.419200	0.876230	0.542529
C21	C	0.784403	0.216009	-0.016995
C22	C	1.284403	0.716009	0.483005
C23	C	0.697294	0.206680	-0.016262
C24	C	1.197294	0.706680	0.483738
C25	C	0.207895	0.143993	-0.011332
C26	C	0.707895	0.643993	0.488668
C27	C	0.289742	0.152768	-0.012017
C28	C	0.789742	0.652768	0.487983
C29	C	0.321979	0.251570	-0.019796
C30	C	0.821979	0.751570	0.480204
C31	C	0.272362	0.341604	-0.026880
C32	C	0.772362	0.841604	0.473120
C33	C	0.190516	0.332829	-0.026189
C34	C	0.690516	0.832829	0.473811
C35	C	0.565831	0.287938	-0.022655
C36	C	1.065831	0.787938	0.477345
C37	C	0.647684	0.296707	-0.023348
C38	C	1.147684	0.796707	0.476652
C39	C	0.665058	0.107870	-0.008484
C40	C	1.165058	0.607870	0.491516
C41	C	0.583210	0.099103	-0.007798
C42	C	1.083210	0.599103	0.492202
C43	C	0.533600	0.189137	-0.014878
C44	C	1.033600	0.689137	0.485122
N45	N	0.405640	0.260541	-0.020499
N46	N	0.905640	0.760541	0.479501
N47	N	0.449940	0.180166	-0.014169
N48	N	0.949940	0.680166	0.485831
C49	C	0.932177	0.029776	-0.002343
C50	C	1.432177	0.529776	0.497657
C51	C	0.929816	-0.086359	0.006790
C52	C	1.429816	0.413641	0.506790
C53	C	0.932805	-0.313914	-0.132607
C54	C	1.432805	0.186086	0.367393
C55	C	0.930587	-0.423034	-0.124031
C56	C	1.430587	0.076966	0.375969
C57	C	0.923155	-0.413719	0.032519
C58	C	1.423155	0.086281	0.532519
C59	C	0.925373	-0.304600	0.023942
C60	C	1.425373	0.195400	0.523942
C61	C	0.930200	-0.254702	-0.058624
C62	C	1.430200	0.245298	0.441376
C63	C	0.932424	-0.145581	-0.067200
C64	C	1.432424	0.354419	0.432800
C65	C	0.924986	-0.136268	0.089349
C66	C	1.424986	0.363732	0.589349
C67	C	0.922768	-0.245387	0.097926
C68	C	1.422768	0.254613	0.597926
C69	C	1.071175	0.224691	-0.017680
C70	C	1.571175	0.724691	0.482320
C71	C	1.158285	0.234020	-0.018419
C72	C	1.658285	0.734020	0.481581
C73	C	0.923401	0.410925	-0.032332
C74	C	1.423401	0.910925	0.467668
C75	C	0.925763	0.527059	-0.041470
C76	C	1.425763	1.027059	0.458530
N77	N	0.918084	0.232534	0.187004
N78	N	1.418084	0.732534	0.687004
N79	N	0.937501	0.208158	-0.221676
N80	N	1.437501	0.708158	0.278324
C81	C	0.968796	0.168672	0.237423
C82	C	1.468796	0.668672	0.737423
C83	C	0.964515	0.174068	0.327806
C84	C	1.464515	0.674068	0.827806
C85	C	0.909525	0.243332	0.367768
C86	C	1.409525	0.743332	0.867768
C87	C	0.858807	0.307197	0.317342
C88	C	1.358807	0.807197	0.817342
C89	C	0.863084	0.301795	0.226961
C90	C	1.363084	0.801795	0.726961
C91	C	0.891060	0.266621	0.637517
C92	C	1.391060	0.766621	1.137517
C93	C	0.886788	0.272021	0.727905
C94	C	1.386788	0.772021	1.227905
C95	C	0.992496	0.138889	0.738363
C96	C	1.492496	0.638889	1.238363
C97	C	0.996772	0.133498	0.647979
C98	C	1.496772	0.633498	1.147979
C99	C	0.946051	0.197359	0.597561
C100	C	1.446051	0.697359	1.097561
N101	N	0.905149	0.248852	0.460154
N102	N	1.405149	0.748852	0.960154
N103	N	0.950424	0.191833	0.505177
N104	N	1.450424	0.691833	1.005177
H105	H	0.525448	0.361251	-0.028424
H106	H	1.025448	0.861251	0.471576
H107	H	0.918835	-0.286029	0.165149
H108	H	1.418835	0.213971	0.665149
H109	H	0.849763	0.318621	0.596474
H110	H	1.349763	0.818621	1.096474
H111	H	0.932705	-0.471241	-0.184276
H112	H	1.432705	0.028759	0.315724
H113	H	0.919219	-0.454365	0.099740
H114	H	1.419219	0.045635	0.599740
H115	H	0.705459	0.034570	-0.002718
H116	H	1.205459	0.534570	0.497282
H117	H	0.673926	0.377168	-0.029670
H118	H	1.173926	0.877168	0.470330
H119	H	1.041550	0.077097	0.615444
H120	H	1.541550	0.577097	1.115444
H121	H	0.814028	0.363590	0.349885
H122	H	1.314028	0.863590	0.849885
H123	H	0.821788	0.353797	0.185910
H124	H	1.321788	0.853797	0.685910
H125	H	0.298615	0.422051	-0.033208
H126	H	0.798615	0.922051	0.466792
H127	H	0.922868	-0.088045	0.149592
H128	H	1.422868	0.411955	0.649592
H129	H	0.556969	0.018648	-0.001464
H130	H	1.056969	0.518648	0.498536
H131	H	0.181655	0.063538	-0.005004
H132	H	0.681655	0.563538	0.494996
H133	H	1.013579	0.112274	0.204892
H134	H	1.513579	0.612274	0.704892
H135	H	0.330132	0.079458	-0.006243
H136	H	0.830132	0.579458	0.493757
H137	H	1.005809	0.122066	0.368858
H138	H	1.505809	0.622066	0.868858
H139	H	0.842006	0.328428	0.760437
H140	H	1.342006	0.828428	1.260437
H141	H	1.033790	0.086896	0.779421
H142	H	1.533790	0.586896	1.279421
H143	H	0.150123	0.406139	-0.031957
H144	H	0.650123	0.906139	0.468043
H145	H	0.936742	-0.273287	-0.199836
H146	H	1.436742	0.226713	0.300164
H147	H	0.936356	-0.104955	-0.134429
H148	H	1.436356	0.395045	0.365571
