data_functionalizedCrystal
_audit_creation_method	'MofGen! by Chris Wilmer'
_symmetry_space_group_name_H-M	'P1'
_symmetry_Int_Tables_number	1
_symmetry_cell_setting	triclinic
loop_
_symmetry_equiv_pos_as_xyz
  x,y,z
_cell_length_a	10.489716
_cell_length_b	19.188930
_cell_length_c	18.266242
_cell_angle_alpha	90.006796
_cell_angle_beta	90.006008
_cell_angle_gamma	83.836959
loop_
_atom_site_label
_atom_site_type_symbol
_atom_site_fract_x
_atom_site_fract_y
_atom_site_fract_z
O1	O	1.691875	0.098418	0.060884
O2	O	2.191875	0.598418	0.560884
O3	O	1.320468	0.107681	0.060888
O4	O	1.820468	0.607681	0.560888
O5	O	1.516890	0.001465	0.060872
O6	O	2.016890	0.501465	0.560872
O7	O	1.495454	0.204634	0.060901
O8	O	1.995454	0.704634	0.560901
O9	O	1.516865	0.001468	-0.060890
O10	O	2.016865	0.501468	0.439110
O11	O	1.320443	0.107685	-0.060874
O12	O	1.820443	0.607685	0.439126
O13	O	1.691850	0.098421	-0.060878
O14	O	2.191850	0.598421	0.439122
Zn15	Zn	1.506143	0.103053	-0.080208
Zn16	Zn	2.006143	0.603053	0.419792
Zn17	Zn	1.506176	0.103049	0.080218
Zn18	Zn	2.006176	0.603049	0.580218
O19	O	1.495429	0.204637	-0.060861
O20	O	1.995429	0.704637	0.439139
C21	C	1.272939	0.106987	0.000007
C22	C	1.772939	0.606987	0.500007
C23	C	1.131355	0.104905	0.000008
C24	C	1.631355	0.604905	0.500008
C25	C	1.032224	0.170040	0.000019
C26	C	1.532224	0.670040	0.500019
C27	C	0.955636	0.135623	-0.060024
C28	C	1.455636	0.635623	0.439976
C29	C	0.955667	0.135604	0.060023
C30	C	1.455667	0.635604	0.560023
C31	C	1.056631	0.070515	-0.060085
C32	C	1.556631	0.570515	0.439915
C33	C	1.056668	0.070506	0.060017
C34	C	1.556668	0.570506	0.560017
C35	C	0.980129	0.036041	-0.000041
C36	C	1.480129	0.536041	0.499959
C37	C	1.516183	-0.024549	-0.000011
C38	C	2.016183	0.475451	0.499989
C39	C	1.514099	-0.102067	-0.000018
C40	C	2.014099	0.397933	0.499982
C41	C	1.629353	-0.146225	-0.000022
C42	C	2.129353	0.353775	0.499978
C43	C	1.627395	-0.219061	-0.000011
C44	C	2.127395	0.280939	0.499989
C45	C	1.510177	-0.247738	-0.000009
C46	C	2.010177	0.252262	0.499991
C47	C	1.394908	-0.203571	-0.000000
C48	C	1.894908	0.296429	0.500000
C49	C	1.396869	-0.130735	-0.000005
C50	C	1.896869	0.369265	0.499995
N51	N	1.420570	-0.356337	-0.041446
N52	N	1.920570	0.143663	0.458554
N53	N	1.418715	-0.425528	-0.041443
N54	N	1.918715	0.074472	0.458557
C55	C	1.504262	-0.467186	0.000006
C56	C	2.004262	0.032814	0.500006
N57	N	1.591754	-0.437039	0.041443
N58	N	2.091754	0.062961	0.541443
N59	N	1.593613	-0.367842	0.041438
N60	N	2.093613	0.132158	0.541438
C61	C	1.508038	-0.326714	-0.000004
C62	C	2.008038	0.173286	0.499996
C63	C	1.617401	-0.590321	0.000015
C64	C	2.117401	-0.090321	0.500015
C65	C	1.615438	-0.663159	0.000031
C66	C	2.115438	-0.163159	0.500031
C67	C	1.382948	-0.647667	0.000035
C68	C	1.882948	-0.147667	0.500035
C69	C	1.384914	-0.574831	0.000026
C70	C	1.884914	-0.074831	0.500026
C71	C	1.502144	-0.546163	0.000012
C72	C	2.002144	-0.046163	0.500012
C73	C	1.739379	0.099115	0.000005
C74	C	2.239379	0.599115	0.500005
C75	C	1.880964	0.101198	0.000009
C76	C	2.380964	0.601198	0.500009
C77	C	1.496135	0.230651	0.000023
C78	C	1.996135	0.730651	0.500023
C79	C	1.498219	0.308170	0.000034
C80	C	1.998219	0.808170	0.500034
N81	N	1.506129	0.103056	-0.189695
N82	N	2.006129	0.603056	0.310305
C83	C	1.583316	0.145789	-0.771966
C84	C	2.083316	0.645789	-0.271966
C85	C	1.583302	0.145796	-0.695321
C86	C	2.083302	0.645796	-0.195321
C87	C	1.506188	0.103042	-0.657008
C88	C	2.006188	0.603042	-0.157008
C89	C	1.429056	0.060291	-0.695345
C90	C	1.929056	0.560291	-0.195345
C91	C	1.429062	0.060290	-0.771989
C92	C	1.929062	0.560290	-0.271989
N93	N	1.503098	0.041861	-0.536678
N94	N	2.003098	0.541861	-0.036678
N95	N	1.503100	0.041863	-0.463870
N96	N	2.003100	0.541863	0.036130
C97	C	1.506163	0.103042	-0.426085
C98	C	2.006163	0.603042	0.073915
N99	N	1.509249	0.164219	-0.463859
N100	N	2.009249	0.664219	0.036141
N101	N	1.509254	0.164216	-0.536674
N102	N	2.009254	0.664216	-0.036674
C103	C	1.506172	0.103038	-0.573901
C104	C	2.006172	0.603038	-0.073901
C105	C	1.583269	0.145802	-0.304650
C106	C	2.083269	0.645802	0.195350
C107	C	1.583246	0.145810	-0.228003
C108	C	2.083246	0.645810	0.271997
C109	C	1.429007	0.060298	-0.228029
C110	C	1.929007	0.560298	0.271971
C111	C	1.429022	0.060296	-0.304674
C112	C	1.929022	0.560296	0.195326
C113	C	1.506160	0.103047	-0.342980
C114	C	2.006160	0.603047	0.157020
N115	N	1.506199	0.103041	0.189705
N116	N	2.006199	0.603041	0.689705
H117	H	1.100551	0.043036	-0.110897
H118	H	1.600551	0.543036	0.389103
H119	H	1.299469	-0.226923	0.000003
H120	H	1.799469	0.273077	0.500003
N121	N	1.272553	-0.083105	-0.000017
N122	N	1.772553	0.416895	0.499983
H123	H	1.291583	-0.032614	-0.000025
H124	H	1.791583	0.467386	0.499975
H125	H	1.221451	-0.092441	0.045122
H126	H	1.721451	0.407559	0.545122
N127	N	1.755796	-0.115312	-0.000031
N128	N	2.255796	0.384688	0.499969
H129	H	1.806280	-0.131371	0.045106
H130	H	2.306280	0.368629	0.545106
H131	H	1.739457	-0.062475	-0.000061
H132	H	2.239457	0.437525	0.499939
H133	H	1.646098	0.180610	-0.664108
H134	H	2.146098	0.680610	-0.164108
H135	H	1.366232	0.025482	-0.335881
H136	H	1.866232	0.525482	0.164119
H137	H	1.721252	-0.255021	-0.000011
H138	H	2.221252	0.244979	0.499989
N139	N	0.949440	-0.039061	-0.000090
N140	N	1.449440	0.460939	0.499910
H141	H	0.986541	-0.063572	-0.045458
H142	H	1.486541	0.436428	0.454542
H143	H	0.853367	-0.040021	0.000366
H144	H	1.353367	0.459979	0.500366
N145	N	1.739759	-0.710786	0.000024
N146	N	2.239759	-0.210786	0.500024
H147	H	1.744106	-0.741359	-0.045110
H148	H	2.244106	-0.241359	0.454890
H149	H	1.744074	-0.741297	0.045195
H150	H	2.244074	-0.241297	0.545195
H151	H	1.287507	-0.671014	0.000039
H152	H	1.787507	-0.171014	0.500039
N153	N	0.897190	0.172037	-0.127251
N154	N	1.397190	0.672037	0.372749
H155	H	0.935347	0.147953	-0.172596
H156	H	1.435347	0.647953	0.327404
H157	H	0.915687	0.222615	-0.127136
H158	H	1.415687	0.722615	0.372864
N159	N	1.743833	-0.559394	0.000004
N160	N	2.243833	-0.059394	0.500004
H161	H	1.816552	-0.598423	0.000009
H162	H	2.316552	-0.098423	0.500009
H163	H	1.749719	-0.529501	0.045139
H164	H	2.249719	-0.029501	0.545139
H165	H	1.291062	-0.538877	0.000025
H166	H	1.791062	-0.038877	0.500025
N167	N	1.666556	0.191872	-0.813281
N168	N	2.166556	0.691872	-0.313281
H169	H	1.715423	0.218946	-0.777365
H170	H	2.215423	0.718946	-0.277365
H171	H	1.610807	0.225720	-0.845096
H172	H	2.110807	0.725720	-0.345096
N173	N	1.345884	0.014174	-0.654027
N174	N	1.845884	0.514174	-0.154027
H175	H	1.357588	0.020657	-0.599657
H176	H	1.857588	0.520657	-0.099657
H177	H	1.371375	-0.036470	-0.667433
H178	H	1.871375	0.463530	-0.167433
H179	H	1.646073	0.180615	-0.335840
H180	H	2.146073	0.680615	0.164160
N181	N	1.063229	0.245087	-0.000036
N182	N	1.563229	0.745087	0.499964
H183	H	1.026266	0.269614	-0.045426
H184	H	1.526266	0.769614	0.454574
H185	H	1.159328	0.245931	0.000460
H186	H	1.659328	0.745931	0.500460
N187	N	1.345897	0.014173	-0.813335
N188	N	1.845897	0.514173	-0.313335
H189	H	1.297042	-0.012913	-0.777436
H190	H	1.797042	0.487087	-0.277436
H191	H	1.401716	-0.019663	-0.845127
H192	H	1.901716	0.480337	-0.345127
N193	N	1.115115	0.034104	0.127245
N194	N	1.615115	0.534104	0.627245
H195	H	1.078199	0.058763	0.172575
H196	H	1.578199	0.558763	0.672575
H197	H	1.211101	0.035404	0.126429
H198	H	1.711101	0.535404	0.626429
H199	H	0.911579	0.163112	0.110778
H200	H	1.411579	0.663112	0.610778
H201	H	1.646041	0.180625	-0.196797
H202	H	2.146041	0.680625	0.303203
N203	N	1.345821	0.014188	-0.186717
N204	N	1.845821	0.514188	0.313283
H205	H	1.357514	0.020676	-0.132347
H206	H	1.857514	0.520676	0.367653
H207	H	1.371303	-0.036458	-0.200116
H208	H	1.871303	0.463542	0.299884
