data_functionalizedCrystal
_audit_creation_method	'MofGen! by Chris Wilmer'
_symmetry_space_group_name_H-M	'P1'
_symmetry_Int_Tables_number	1
_symmetry_cell_setting	triclinic
loop_
_symmetry_equiv_pos_as_xyz
  x,y,z
_cell_length_a	9.065215
_cell_length_b	9.065218
_cell_length_c	8.140239
_cell_angle_alpha	89.998670
_cell_angle_beta	89.999269
_cell_angle_gamma	85.015325
loop_
_atom_site_label
_atom_site_type_symbol
_atom_site_fract_x
_atom_site_fract_y
_atom_site_fract_z
O1	O	-1.960398	-0.216335	0.136579
O2	O	-1.627064	0.116999	0.469912
O3	O	-1.293731	0.450332	0.803246
O4	O	-1.531112	-0.234085	0.136588
O5	O	-1.197779	0.099248	0.469921
O6	O	-0.864446	0.432581	0.803254
O7	O	-1.754628	-0.010568	0.136580
O8	O	-1.421295	0.322766	0.469913
O9	O	-1.087962	0.656099	0.803246
O10	O	-1.736882	-0.439853	0.136587
O11	O	-1.403548	-0.106519	0.469920
O12	O	-1.070215	0.226814	0.803254
O13	O	-1.754621	-0.010566	-0.136647
O14	O	-1.421288	0.322767	0.196686
O15	O	-1.087954	0.656101	0.530019
O16	O	-1.531105	-0.234084	-0.136639
O17	O	-1.197772	0.099250	0.196694
O18	O	-0.864438	0.432583	0.530027
O19	O	-1.960390	-0.216333	-0.136648
O20	O	-1.627057	0.117000	0.196685
O21	O	-1.293724	0.450334	0.530019
Zn22	Zn	-1.745747	-0.225208	-0.180024
Zn23	Zn	-1.412413	0.108125	0.153309
Zn24	Zn	-1.079080	0.441458	0.486642
Zn25	Zn	-1.745756	-0.225210	0.179964
Zn26	Zn	-1.412423	0.108123	0.513297
Zn27	Zn	-1.079089	0.441456	0.846631
O28	O	-1.736874	-0.439851	-0.136640
O29	O	-1.403541	-0.106518	0.196693
O30	O	-1.070208	0.226816	0.530026
C31	C	-1.476122	-0.232380	-0.000025
C32	C	-1.142789	0.100954	0.333309
C33	C	-0.809455	0.434287	0.666642
C34	C	-1.312279	-0.227282	-0.000021
C35	C	-0.978946	0.106052	0.333312
C36	C	-0.645612	0.439385	0.666645
C37	C	-1.752919	0.044420	-0.000031
C38	C	-1.419586	0.377753	0.333302
C39	C	-1.086252	0.711086	0.666636
C40	C	-1.747819	0.208263	-0.000023
C41	C	-1.414486	0.541596	0.333310
C42	C	-1.081153	0.874929	0.666644
C43	C	-1.015381	-0.218039	-0.000031
C44	C	-0.682047	0.115295	0.333302
C45	C	-0.348714	0.448628	0.666636
C46	C	-1.179224	-0.223136	-0.000021
C47	C	-0.845890	0.110197	0.333313
C48	C	-0.512557	0.443530	0.666646
C49	C	-1.738584	-0.494838	-0.000026
C50	C	-1.405250	-0.161505	0.333308
C51	C	-1.071917	0.171828	0.666641
C52	C	-1.743683	-0.658681	-0.000023
C53	C	-1.410350	-0.325348	0.333310
C54	C	-1.077017	0.007985	0.666644
N55	N	-1.745751	-0.225206	-0.425707
N56	N	-1.412417	0.108127	-0.092374
N57	N	-1.079084	0.441461	0.240960
N58	N	-1.745763	-0.225201	0.425647
N59	N	-1.412430	0.108132	0.758980
N60	N	-1.079097	0.441466	1.092313
