data_functionalizedCrystal
_audit_creation_method	'MofGen! by Chris Wilmer'
_symmetry_space_group_name_H-M	'P1'
_symmetry_Int_Tables_number	1
_symmetry_cell_setting	triclinic
loop_
_symmetry_equiv_pos_as_xyz
  x,y,z
_cell_length_a	10.686220
_cell_length_b	12.759394
_cell_length_c	10.685986
_cell_angle_alpha	85.590100
_cell_angle_beta	99.031303
_cell_angle_gamma	94.396533
loop_
_atom_site_label
_atom_site_type_symbol
_atom_site_fract_x
_atom_site_fract_y
_atom_site_fract_z
Zn1	Zn	1.885524	-0.261256	-0.569023
Zn2	Zn	1.901657	-0.449507	-0.356784
Zn3	Zn	1.689524	-0.286369	-0.373053
Zn4	Zn	1.673254	-0.449433	-0.585228
O5	O	1.787489	-0.361641	-0.471022
O6	O	2.065278	-0.275749	-0.527279
O7	O	1.887077	-0.438408	-0.181323
O8	O	1.715581	-0.136012	-0.399076
O9	O	2.077131	-0.414057	-0.371347
O10	O	1.859581	-0.117561	-0.543054
O11	O	1.731224	-0.318551	-0.193276
O12	O	1.509751	-0.318479	-0.414789
O13	O	1.687851	-0.413929	-0.760697
O14	O	1.497798	-0.438281	-0.570673
O15	O	1.843805	-0.275677	-0.748792
O16	O	1.871301	-0.596524	-0.387061
O17	O	1.703495	-0.596469	-0.554897
C18	C	1.457721	-0.381098	-0.496255
C19	C	1.316643	-0.389445	-0.507080
C20	C	1.787416	-0.634615	-0.470997
C21	C	1.787497	-0.751385	-0.471020
C22	C	1.962346	-0.751375	-0.296364
C23	C	2.049803	-0.806227	-0.209048
C24	C	2.049875	-0.915942	-0.209077
C25	C	1.962483	-0.970807	-0.296433
C26	C	1.875026	-0.915954	-0.383749
C27	C	1.874962	-0.806237	-0.383708
C28	C	1.700185	-0.915964	-0.558409
C29	C	1.700105	-0.806250	-0.558376
C30	C	1.612793	-0.970829	-0.645765
C31	C	1.525328	-0.915977	-0.733077
C32	C	1.525259	-0.806255	-0.733044
C33	C	1.612648	-0.751397	-0.645692
C34	C	2.118545	-0.342110	-0.445691
C35	C	2.259622	-0.333787	-0.434896
C36	C	1.762214	-0.341993	-0.802087
C37	C	1.751443	-0.333620	-0.943167
C38	C	1.787596	-0.087598	-0.471072
C39	C	1.787641	0.029183	-0.471093
C40	C	1.812740	-0.381133	-0.141239
C41	C	1.823757	-0.389195	-0.000141
H42	H	1.318733	-0.279750	-0.364813
H43	H	1.962282	-0.662041	-0.296316
H44	H	1.257525	-0.443492	-0.577159
H45	H	2.120959	-0.761547	-0.137925
H46	H	2.121095	-0.960603	-0.137982
H47	H	1.893917	-0.443175	-0.940982
Cl48	Cl	1.612387	-1.108820	-0.645306
Cl49	Cl	1.962080	-1.108798	-0.295970
Cl50	Cl	1.612910	-0.613426	-0.645984
Cl51	Cl	1.643138	-0.250269	-1.034490
H52	H	1.454186	-0.960656	-0.804201
H53	H	1.454046	-0.761600	-0.804152
