data_functionalizedCrystal
_audit_creation_method	'MofGen! by Chris Wilmer'
_symmetry_space_group_name_H-M	'P1'
_symmetry_Int_Tables_number	1
_symmetry_cell_setting	triclinic
loop_
_symmetry_equiv_pos_as_xyz
  x,y,z
_cell_length_a	25.639242
_cell_length_b	25.639240
_cell_length_c	10.686551
_cell_angle_alpha	85.582913
_cell_angle_beta	85.601385
_cell_angle_gamma	90.025061
loop_
_atom_site_label
_atom_site_type_symbol
_atom_site_fract_x
_atom_site_fract_y
_atom_site_fract_z
Zn1	Zn	0.821989	-0.185543	-0.713451
Zn2	Zn	0.815194	-0.279700	-0.502397
Zn3	Zn	0.727840	-0.192267	-0.502452
Zn4	Zn	0.734516	-0.272941	-0.713343
O5	O	0.774885	-0.232613	-0.607911
O6	O	0.894254	-0.198048	-0.685476
O7	O	0.797968	-0.273745	-0.325820
O8	O	0.740378	-0.118208	-0.530509
O9	O	0.889261	-0.267225	-0.530416
O10	O	0.809550	-0.113268	-0.685529
O11	O	0.733789	-0.209508	-0.325860
O12	O	0.655559	-0.202954	-0.530405
O13	O	0.751758	-0.255705	-0.889942
O14	O	0.660465	-0.262225	-0.685345
O15	O	0.816024	-0.191494	-0.890021
O16	O	0.804442	-0.351971	-0.530312
O17	O	0.745169	-0.347005	-0.685292
C18	C	0.639041	-0.232586	-0.607870
C19	C	0.580927	-0.232586	-0.607882
C20	C	0.332347	-0.196647	-0.688798
C21	C	0.386951	-0.196642	-0.688790
O22	O	0.417409	-0.166063	-0.757578
N23	N	0.411655	-0.232607	-0.607925
C24	C	0.381752	-0.268581	-0.527071
O25	O	0.407778	-0.299171	-0.458289
C26	C	0.327149	-0.268588	-0.527085
C27	C	0.302448	-0.232618	-0.607947
C28	C	0.307646	-0.160681	-0.769654
C29	C	0.253045	-0.160685	-0.769659
C30	C	0.223146	-0.196656	-0.688808
C31	C	0.247847	-0.232623	-0.607952
C32	C	0.297247	-0.304565	-0.446238
C33	C	0.242640	-0.304569	-0.446260
C34	C	0.217940	-0.268599	-0.527122
C35	C	0.163348	-0.268598	-0.527106
N36	N	0.138644	-0.232634	-0.607972
C37	C	0.168543	-0.196663	-0.688823
C38	C	0.496421	-0.268565	-0.527048
C39	C	0.551023	-0.268556	-0.527026
C40	C	0.556219	-0.196617	-0.688748
C41	C	0.501616	-0.196624	-0.688762
C42	C	0.471718	-0.232601	-0.607913
C43	C	0.053878	-0.196675	-0.688827
C44	C	-0.000727	-0.196681	-0.688821
C45	C	-0.005918	-0.268621	-0.527104
C46	C	0.048683	-0.268613	-0.527105
C47	C	0.078580	-0.232638	-0.607976
O48	O	0.132856	-0.299163	-0.458357
O49	O	0.142510	-0.166083	-0.757605
C50	C	0.774808	-0.368459	-0.607812
C51	C	0.774824	-0.426573	-0.607812
C52	C	0.810924	-0.784317	-0.688775
C53	C	0.810940	-0.838921	-0.688801
O54	O	0.841542	-0.864934	-0.757537
N55	N	0.774961	-0.868848	-0.608033
C56	C	0.738961	-0.844169	-0.527243
O57	O	0.708359	-0.874639	-0.458546
C58	C	0.738942	-0.789567	-0.527224
C59	C	0.774927	-0.759642	-0.607989
C60	C	0.846905	-0.754393	-0.769534
C61	C	0.846889	-0.699793	-0.769506
C62	C	0.810892	-0.675118	-0.688720
C63	C	0.774911	-0.705042	-0.607961
C64	C	0.702940	-0.764888	-0.446442
C65	C	0.702924	-0.710282	-0.446431
C66	C	0.738909	-0.680357	-0.527195
C67	C	0.738898	-0.625767	-0.527147
N68	N	0.774877	-0.595840	-0.607915
C69	C	0.810874	-0.620515	-0.688701
C70	C	0.739001	-0.958838	-0.527289
C71	C	0.739021	-1.013440	-0.527300
C72	C	0.811000	-1.008188	-0.688860
C73	C	0.810982	-0.953585	-0.688842
C74	C	0.774980	-0.928911	-0.608057
C75	C	0.810838	-0.505852	-0.688637
C76	C	0.810821	-0.451248	-0.688598
C77	C	0.738840	-0.456505	-0.527043
C78	C	0.738860	-0.511105	-0.527076
C79	C	0.774861	-0.535776	-0.607883
O80	O	0.708311	-0.599718	-0.458449
O81	O	0.841466	-0.590039	-0.757398
C82	C	0.911259	-0.232640	-0.607952
C83	C	0.969374	-0.232652	-0.607970
C84	C	0.785394	-0.222095	-0.937048
C85	C	0.789872	-0.217613	-1.077307
C86	C	0.774977	-0.096236	-0.608038
C87	C	0.775017	-0.038120	-0.608092
C88	C	0.764447	-0.243052	-0.280053
C89	C	0.760070	-0.247387	-0.139795
H90	H	0.078214	-0.167380	-0.754679
H91	H	0.472081	-0.297860	-0.461200
C92	C	-0.038813	-0.308189	-0.438173
C93	C	-0.031006	-0.367312	-0.448200
C94	C	-0.063901	-0.406884	-0.359274
C95	C	-0.104603	-0.387332	-0.260321
C96	C	-0.112411	-0.328206	-0.250290
C97	C	-0.079516	-0.288635	-0.339215
H98	H	-0.000874	-0.381788	-0.521455
H99	H	-0.058121	-0.450652	-0.366701
H100	H	-0.128954	-0.416625	-0.194493
H101	H	-0.142543	-0.313731	-0.177035
H102	H	-0.085297	-0.244866	-0.331789
H103	H	0.876189	-0.675432	-0.835275
C104	C	0.324407	-0.344139	-0.357297
C105	C	0.312301	-0.344375	-0.213866
C106	C	0.339459	-0.383953	-0.124922
C107	C	0.378722	-0.423295	-0.179409
C108	C	0.390830	-0.423061	-0.322847
C109	C	0.363672	-0.383482	-0.411791
H110	H	0.283234	-0.315250	-0.173524
H111	H	0.330496	-0.384126	-0.018739
H112	H	0.398826	-0.452593	-0.113567
H113	H	0.419896	-0.452185	-0.363189
H114	H	0.372635	-0.383309	-0.517974
C115	C	0.850441	-0.532986	-0.777518
C116	C	0.830934	-0.567349	-0.876572
C117	C	0.870539	-0.594482	-0.965446
C118	C	0.929652	-0.587252	-0.955266
C119	C	0.949162	-0.552888	-0.856208
C120	C	0.909557	-0.525754	-0.767334
H121	H	0.787173	-0.572702	-0.884111
H122	H	0.856096	-0.619921	-1.038775
H123	H	0.958970	-0.607338	-1.021056
H124	H	0.992923	-0.547534	-0.848669
H125	H	0.924000	-0.500315	-0.694005
H126	H	0.731131	-0.276307	-1.085992
H127	H	0.876218	-0.774477	-0.835327
H128	H	0.673605	-0.690195	-0.380648
C129	C	0.225884	-0.121125	-0.858638
C130	C	0.191516	-0.140693	-0.957622
C131	C	0.164361	-0.101134	-1.046619
C132	C	0.171574	-0.042008	-1.036633
C133	C	0.205943	-0.022437	-0.937645
C134	C	0.233098	-0.061996	-0.848648
H135	H	0.186175	-0.184464	-0.965018
H136	H	0.138919	-0.115621	-1.119896
H137	H	0.151472	-0.012724	-1.102514
H138	H	0.211284	0.021334	-0.930249
H139	H	0.258541	-0.047509	-0.775371
C140	C	0.209753	-0.344143	-0.357318
C141	C	0.212673	-0.344368	-0.213885
C142	C	0.179787	-0.383940	-0.124941
C143	C	0.143979	-0.423287	-0.179431
C144	C	0.141057	-0.423064	-0.322872
C145	C	0.173943	-0.383492	-0.411815
H146	H	0.239182	-0.315239	-0.173541
H147	H	0.181950	-0.384105	-0.018757
H148	H	0.119634	-0.452581	-0.113590
H149	H	0.114548	-0.452193	-0.363215
H150	H	0.171780	-0.383327	-0.518000
H151	H	0.840310	-1.028288	-0.754643
H152	H	0.709685	-0.938752	-0.461494
C153	C	0.340528	-0.121108	-0.858600
C154	C	0.381226	-0.140650	-0.957575
C155	C	0.414102	-0.101071	-1.046523
C156	C	0.406281	-0.041950	-1.036495
C157	C	0.365581	-0.022405	-0.937516
C158	C	0.332705	-0.061984	-0.848569
H159	H	0.387017	-0.184417	-0.965002
H160	H	0.444231	-0.115540	-1.119794
H161	H	0.430618	-0.012651	-1.102340
H162	H	0.359790	0.021363	-0.930090
H163	H	0.302576	-0.047515	-0.775298
C164	C	0.828973	-0.178542	-1.149988
C165	C	0.824179	-0.119671	-1.132040
C166	C	0.863279	-0.080600	-1.204721
C167	C	0.907174	-0.100402	-1.295349
C168	C	0.911970	-0.159276	-1.313301
C169	C	0.872870	-0.198346	-1.240620
H170	H	0.791683	-0.105010	-1.064948
H171	H	0.859728	-0.037018	-1.191431
H172	H	0.936119	-0.071479	-1.349152
H173	H	0.944466	-0.173937	-1.380393
H174	H	0.876421	-0.241929	-1.253910
C175	C	0.850404	-0.418331	-0.777450
C176	C	0.889996	-0.445478	-0.866319
C177	C	0.929576	-0.412564	-0.955171
C178	C	0.929564	-0.352503	-0.955153
C179	C	0.889970	-0.325353	-0.866280
C180	C	0.850390	-0.358267	-0.777429
H181	H	0.890006	-0.489942	-0.866335
H182	H	0.958885	-0.432662	-1.020960
H183	H	0.958864	-0.328138	-1.020926
H184	H	0.889960	-0.280889	-0.866264
H185	H	0.821081	-0.338169	-0.711640
H186	H	-0.020836	-0.167388	-0.754668
H187	H	0.709724	-1.037801	-0.461520
H188	H	0.840283	-0.929224	-0.754607
C189	C	0.589114	-0.157052	-0.777704
C190	C	0.629809	-0.176616	-0.876654
C191	C	0.662704	-0.137054	-0.965607
C192	C	0.654904	-0.077929	-0.955610
C193	C	0.614206	-0.058362	-0.856656
C194	C	0.581311	-0.097924	-0.767702
H195	H	0.635585	-0.220387	-0.884058
H196	H	0.692832	-0.151539	-1.038860
H197	H	0.679255	-0.048643	-1.021458
H198	H	0.608430	-0.014592	-0.849251
H199	H	0.551184	-0.083439	-0.694450
C200	C	0.578190	-0.308120	-0.438068
C201	C	0.545294	-0.347685	-0.349139
C202	C	0.572459	-0.387253	-0.260184
C203	C	0.632520	-0.387256	-0.260158
C204	C	0.665419	-0.347689	-0.349091
C205	C	0.638254	-0.308121	-0.438046
H206	H	0.500831	-0.347685	-0.349155
H207	H	0.548105	-0.416543	-0.194350
H208	H	0.652629	-0.416546	-0.194309
H209	H	0.709883	-0.347690	-0.349075
H210	H	0.662609	-0.278831	-0.503879
H211	H	0.068795	-0.297899	-0.461250
C212	C	0.663348	-0.797793	-0.357610
C213	C	0.663067	-0.794892	-0.214164
C214	C	0.623471	-0.827794	-0.125331
C215	C	0.584155	-0.863598	-0.179946
C216	C	0.584434	-0.866500	-0.323400
C217	C	0.624031	-0.833598	-0.412232
H218	H	0.692173	-0.768387	-0.173728
H219	H	0.623264	-0.825646	-0.019137
H220	H	0.554843	-0.887954	-0.114187
H221	H	0.555329	-0.893005	-0.363836
H222	H	0.624238	-0.835746	-0.518427
H223	H	0.481508	-0.167334	-0.754606
C224	C	0.699284	-0.544028	-0.438225
C225	C	0.699020	-0.541138	-0.294778
C226	C	0.659442	-0.574058	-0.205933
C227	C	0.620127	-0.609867	-0.260535
C228	C	0.620390	-0.612758	-0.403990
C229	C	0.659968	-0.579838	-0.492835
H230	H	0.728124	-0.514629	-0.254352
H231	H	0.659248	-0.571918	-0.099738
H232	H	0.590829	-0.634236	-0.194767
H233	H	0.591286	-0.639267	-0.444417
H234	H	0.660162	-0.581978	-0.599030
H235	H	0.709534	-0.436406	-0.461264
