data_functionalizedCrystal
_audit_creation_method	'MofGen! by Chris Wilmer'
_symmetry_space_group_name_H-M	'P1'
_symmetry_Int_Tables_number	1
_symmetry_cell_setting	triclinic
loop_
_symmetry_equiv_pos_as_xyz
  x,y,z
_cell_length_a	10.654559
_cell_length_b	10.489741
_cell_length_c	9.730223
_cell_angle_alpha	90.001080
_cell_angle_beta	90.000437
_cell_angle_gamma	84.513929
loop_
_atom_site_label
_atom_site_type_symbol
_atom_site_fract_x
_atom_site_fract_y
_atom_site_fract_z
O1	O	1.667911	0.179213	0.114297
O2	O	1.302442	0.196270	0.114298
O3	O	1.493493	0.002140	0.114289
O4	O	1.476861	0.373343	0.114305
O5	O	1.493491	0.002144	-0.114291
O6	O	1.302440	0.196275	-0.114282
O7	O	1.667909	0.179217	-0.114283
Zn8	Zn	1.485174	0.187747	-0.150575
Zn9	Zn	1.485177	0.187740	0.150589
O10	O	1.476858	0.373348	-0.114275
C11	C	1.255643	0.195017	0.000008
C12	C	1.116198	0.191263	0.000008
C13	C	1.492235	-0.045389	-0.000000
C14	C	1.488477	-0.187017	0.000002
C15	C	1.064603	0.073433	-0.000001
C16	C	0.933579	0.069913	0.000009
C17	C	0.905756	0.302063	0.000031
C18	C	1.036777	0.305582	0.000031
C19	C	1.080666	-0.060597	-0.000019
C20	C	0.949642	-0.064117	-0.000009
C21	C	1.366917	-0.255102	0.000013
C22	C	1.424340	-0.347248	-0.112689
C23	C	1.424371	-0.347228	0.112673
C24	C	1.545950	-0.277297	-0.112793
C25	C	1.545964	-0.277267	0.112670
C26	C	1.603475	-0.369386	-0.000059
C27	C	1.714708	0.180470	0.000010
C28	C	1.854153	0.184224	0.000018
C29	C	1.478116	0.420876	0.000018
C30	C	1.481874	0.562504	0.000024
N31	N	1.485181	0.187750	-0.356111
C32	C	1.569800	0.101819	-0.428041
C33	C	1.569797	0.101804	-0.571924
C34	C	1.400551	0.273662	-0.571934
C35	C	1.400550	0.273670	-0.428054
C36	C	1.667517	0.002601	-0.428036
C37	C	1.667514	0.002586	-0.571919
N38	N	1.485180	0.187727	0.356126
H39	H	0.841076	0.395137	0.000050
O40	O	1.614032	-0.236504	-0.239144
H41	H	1.563863	-0.265195	-0.332487
H42	H	1.122391	-0.111108	0.095633
O43	O	1.141115	-0.114228	-0.130749
H44	H	1.190748	-0.039169	-0.182419
H45	H	1.078780	0.401530	0.000061
H46	H	1.372904	-0.378235	-0.207970
H47	H	0.913994	-0.106808	0.098685
O48	O	1.735974	-0.434935	-0.000133
H49	H	1.786113	-0.406924	-0.093777
H50	H	0.920247	-0.116524	-0.095673
O51	O	1.627051	-0.120131	-0.631063
H52	H	1.704279	-0.167048	-0.695258
H53	H	1.764035	0.024445	-0.610969
H54	H	1.266972	-0.205406	-0.000101
H55	H	1.597356	-0.246248	0.207957
O56	O	1.639114	-0.127286	-0.376302
H57	H	1.639169	-0.127206	-0.262230
H58	H	1.372922	-0.378171	0.207962
O59	O	1.309277	0.366346	-0.350466
H60	H	1.250440	0.426095	-0.424668
O61	O	1.309296	0.366356	-0.649528
H62	H	1.211244	0.349184	-0.621923
O63	O	1.788323	0.043729	-0.368901
H64	H	1.852373	0.065523	-0.453907
