data_functionalizedCrystal
_audit_creation_method	'MofGen! by Chris Wilmer'
_symmetry_space_group_name_H-M	'P1'
_symmetry_Int_Tables_number	1
_symmetry_cell_setting	triclinic
loop_
_symmetry_equiv_pos_as_xyz
  x,y,z
_cell_length_a	12.827893
_cell_length_b	29.839131
_cell_length_c	12.827885
_cell_angle_alpha	89.963179
_cell_angle_beta	89.980728
_cell_angle_gamma	90.041391
loop_
_atom_site_label
_atom_site_type_symbol
_atom_site_fract_x
_atom_site_fract_y
_atom_site_fract_z
Zn1	Zn	1.597481	-0.178832	-0.590798
Zn2	Zn	1.597295	-0.253969	-0.416036
Zn3	Zn	1.422722	-0.178854	-0.416071
Zn4	Zn	1.422628	-0.253936	-0.590736
O5	O	1.510031	-0.216398	-0.503410
O6	O	1.743692	-0.188804	-0.567626
O7	O	1.574100	-0.244028	-0.269805
O8	O	1.446021	-0.115984	-0.439289
O9	O	1.743556	-0.244007	-0.439230
O10	O	1.574415	-0.115968	-0.567660
O11	O	1.445841	-0.188841	-0.269830
O12	O	1.276473	-0.188809	-0.439230
O13	O	1.445861	-0.243950	-0.736981
O14	O	1.276404	-0.243971	-0.567556
O15	O	1.574324	-0.188771	-0.737026
O16	O	1.574008	-0.316832	-0.439170
O17	O	1.445681	-0.316807	-0.567522
C18	C	1.238522	-0.216389	-0.503390
C19	C	1.122368	-0.216396	-0.503407
C20	C	1.070577	-0.243735	-0.566808
C21	C	0.950527	-0.243743	-0.566827
C22	C	1.509843	-0.333120	-0.503359
C23	C	1.509858	-0.383055	-0.503371
C24	C	1.576973	-0.692698	-0.436675
C25	C	1.577102	-0.880371	-0.436716
O26	O	1.634016	-0.904636	-0.379969
N27	N	1.510248	-0.903840	-0.503489
C28	C	1.443362	-0.880387	-0.570262
O29	O	1.386509	-0.904655	-0.627065
C30	C	1.443239	-0.692715	-0.570226
C31	C	1.510090	-0.669249	-0.503441
C32	C	1.643819	-0.669232	-0.369897
C33	C	1.643782	-0.622317	-0.369883
C34	C	1.576899	-0.598867	-0.436648
C35	C	1.510053	-0.622333	-0.503427
C36	C	1.376359	-0.669263	-0.637003
C37	C	1.376336	-0.622342	-0.636990
C38	C	1.443187	-0.598876	-0.570205
C39	C	1.443133	-0.551969	-0.570179
N40	N	1.509987	-0.528500	-0.503406
C41	C	1.576870	-0.551949	-0.436641
C42	C	1.443430	-0.978918	-0.570274
C43	C	1.443459	-1.025835	-0.570282
C44	C	1.577201	-1.025816	-0.436738
C45	C	1.577165	-0.978898	-0.436725
C46	C	1.510284	-0.955449	-0.503501
C47	C	1.576787	-0.453424	-0.436617
C48	C	1.576741	-0.406504	-0.436606
C49	C	1.443004	-0.406527	-0.570154
C50	C	1.443045	-0.453443	-0.570161
C51	C	1.509945	-0.476890	-0.503389
O52	O	1.386257	-0.527675	-0.626905
O53	O	1.633731	-0.527674	-0.379862
C54	C	1.577010	-0.739614	-0.436689
C55	C	1.510164	-0.763080	-0.503468
C56	C	1.443281	-0.739630	-0.570233
C57	C	1.510193	-0.809997	-0.503476
C58	C	1.577076	-0.833447	-0.436710
C59	C	1.643930	-0.809978	-0.369937
C60	C	1.643893	-0.763063	-0.369924
C61	C	1.376427	-0.763099	-0.637006
C62	C	1.376468	-0.810014	-0.637013
C63	C	1.443351	-0.833464	-0.570248
C64	C	1.782602	-0.216407	-0.503431
C65	C	1.898755	-0.216410	-0.503440
C66	C	1.510103	-0.216354	-0.775981
C67	C	1.510133	-0.216336	-0.892134
C68	C	1.510249	-0.099219	-0.503485
C69	C	1.510342	-0.049285	-0.503517
C70	C	1.573708	-0.189027	-0.943941
C71	C	1.573740	-0.189007	-1.063991
C72	C	1.510021	-0.216408	-0.231900
C73	C	1.510193	-0.216300	-0.115748
H74	H	0.943287	-0.193005	-0.449153
H75	H	1.698386	-0.829079	-0.315572
H76	H	1.628108	-0.165659	-0.899418
H77	H	1.388545	-0.387427	-0.624511
H78	H	1.698289	-0.688320	-0.315528
H79	H	0.905987	-0.267150	-0.621104
C80	C	1.649865	-0.953503	-0.364180
C81	C	1.708454	-0.984087	-0.305732
C82	C	1.775449	-0.960713	-0.238901
H83	H	1.610023	-0.935229	-0.318515
H84	H	1.695426	-0.935180	-0.404166
H85	H	1.662899	-1.002403	-0.265749
H86	H	1.748317	-1.002362	-0.351370
H87	H	1.821010	-0.942390	-0.278887
H88	H	1.735599	-0.942440	-0.193243
H89	H	1.815217	-0.981461	-0.199243
C90	C	1.437472	-0.247512	-0.951301
C91	C	1.378796	-0.272703	-0.880240
C92	C	1.311838	-0.301423	-0.934702
H93	H	1.477344	-0.267103	-0.993876
H94	H	1.391964	-0.230311	-0.993864
H95	H	1.424298	-0.289902	-0.837695
H96	H	1.338902	-0.253123	-0.837662
H97	H	1.266330	-0.284222	-0.977265
H98	H	1.351719	-0.321011	-0.977276
H99	H	1.272012	-0.318515	-0.886496
C100	C	1.303741	-0.694651	-0.709634
C101	C	1.245195	-0.664064	-0.768117
C102	C	1.178296	-0.687434	-0.835050
H103	H	1.258140	-0.712989	-0.669753
H104	H	1.343682	-0.712911	-0.755264
H105	H	1.205257	-0.645812	-0.722492
H106	H	1.290769	-0.645725	-0.808019
H107	H	1.218237	-0.705693	-0.880681
H108	H	1.132702	-0.705771	-0.795161
H109	H	1.138572	-0.666684	-0.874746
C110	C	1.303830	-0.596803	-0.709450
C111	C	1.318117	-0.550691	-0.695172
C112	C	1.251352	-0.527152	-0.761911
H113	H	1.233588	-0.604476	-0.694165
H114	H	1.319106	-0.604438	-0.779701
H115	H	1.302834	-0.543060	-0.624937
H116	H	1.388345	-0.543005	-0.710465
H117	H	1.266628	-0.534787	-0.832161
H118	H	1.181114	-0.534829	-0.746620
H119	H	1.261044	-0.495863	-0.752239
C120	C	1.304011	-0.835464	-0.709705
C121	C	1.326732	-0.824010	-0.813111
C122	C	1.260025	-0.847448	-0.880108
H123	H	1.233761	-0.827831	-0.694491
H124	H	1.313614	-0.866771	-0.700232
H125	H	1.317120	-0.792710	-0.822579
H126	H	1.396969	-0.831644	-0.828357
H127	H	1.269628	-0.878754	-0.870636
H128	H	1.189779	-0.839812	-0.864885
H129	H	1.275438	-0.839682	-0.950277
H130	H	1.628173	-0.165628	-1.108544
H131	H	1.115113	-0.267133	-0.621079
C132	C	1.062947	-0.185271	-0.430901
C133	C	1.000246	-0.210707	-0.363863
C134	C	0.945509	-0.182051	-0.297040
H135	H	1.020324	-0.165724	-0.470870
H136	H	1.110981	-0.168128	-0.391059
H137	H	0.952218	-0.227842	-0.403701
H138	H	1.042843	-0.230253	-0.323871
H139	H	0.993543	-0.164908	-0.257198
H140	H	0.902892	-0.162505	-0.337017
H141	H	0.902968	-0.199305	-0.251541
H142	H	1.631178	-0.387399	-0.382218
C143	C	1.649854	-1.051362	-0.364438
C144	C	1.635614	-1.097472	-0.378799
C145	C	1.702567	-1.121020	-0.312267
H146	H	1.634742	-1.043775	-0.294138
H147	H	1.720052	-1.043649	-0.379881
H148	H	1.565432	-1.105182	-0.363349
H149	H	1.650733	-1.105072	-0.449086
H150	H	1.772765	-1.113307	-0.327710
H151	H	1.687450	-1.113430	-0.241971
H152	H	1.692921	-1.152308	-0.322009
H153	H	1.631265	-0.472509	-0.382247
H154	H	1.389013	-1.044938	-0.624656
C155	C	1.716492	-0.596924	-0.297346
C156	C	1.775088	-0.627510	-0.238910
C157	C	1.842098	-0.604138	-0.172089
H158	H	1.676661	-0.578650	-0.251673
H159	H	1.762048	-0.578601	-0.337338
H160	H	1.729538	-0.645825	-0.198920
H161	H	1.814941	-0.645785	-0.284555
H162	H	1.887654	-0.585815	-0.212081
H163	H	1.802258	-0.585865	-0.126423
H164	H	1.881870	-0.624887	-0.132439
H165	H	1.455765	-0.239683	-1.071202
C166	C	1.370685	-0.953544	-0.642810
C167	C	1.312130	-0.984144	-0.701257
C168	C	1.245092	-0.960789	-0.768071
H169	H	1.410494	-0.935207	-0.688476
H170	H	1.325105	-0.935284	-0.602812
H171	H	1.357704	-1.002396	-0.741252
H172	H	1.272299	-1.002482	-0.655618
H173	H	1.199511	-0.942529	-0.728074
H174	H	1.284909	-0.942453	-0.813731
H175	H	1.205347	-0.981547	-0.807729
H176	H	1.388613	-0.472550	-0.624546
H177	H	1.698329	-0.743960	-0.315541
H178	H	1.321964	-0.744010	-0.691376
