data_functionalizedCrystal
_audit_creation_method	'MofGen! by Chris Wilmer'
_symmetry_space_group_name_H-M	'P1'
_symmetry_Int_Tables_number	1
_symmetry_cell_setting	triclinic
loop_
_symmetry_equiv_pos_as_xyz
  x,y,z
_cell_length_a	21.395362
_cell_length_b	16.120297
_cell_length_c	16.120484
_cell_angle_alpha	95.614431
_cell_angle_beta	92.942400
_cell_angle_gamma	92.858092
loop_
_atom_site_label
_atom_site_type_symbol
_atom_site_fract_x
_atom_site_fract_y
_atom_site_fract_z
Zn1	Zn	0.925602	-0.489856	-0.356427
Zn2	Zn	0.925523	-0.357167	-0.489117
Zn3	Zn	0.826421	-0.350059	-0.349397
Zn4	Zn	0.815203	-0.496841	-0.496196
O5	O	0.873187	-0.423481	-0.422784
O6	O	1.013268	-0.472306	-0.374008
O7	O	0.917038	-0.239264	-0.464678
O8	O	0.844305	-0.362706	-0.233363
O9	O	1.013210	-0.374820	-0.471494
O10	O	0.917173	-0.465414	-0.238528
O11	O	0.844229	-0.234042	-0.362027
O12	O	0.737256	-0.369479	-0.368891
O13	O	0.825186	-0.612875	-0.483560
O14	O	0.729014	-0.477319	-0.476744
O15	O	0.906295	-0.607743	-0.380872
O16	O	0.906161	-0.381593	-0.607023
O17	O	0.825109	-0.484211	-0.612224
C18	C	0.710401	-0.423386	-0.422824
C19	C	0.640759	-0.423367	-0.422862
C20	C	0.864498	-0.641483	-0.433790
C21	C	0.860795	-0.734383	-0.438480
C22	C	0.603772	-0.479443	-0.479087
C23	C	0.538335	-0.479479	-0.479068
C24	C	0.509890	-0.423425	-0.422832
C25	C	0.546886	-0.367344	-0.366596
C26	C	0.612321	-0.367315	-0.366611
C27	C	0.409452	-0.347840	-0.412294
C28	C	0.344018	-0.347868	-0.412285
C29	C	0.308068	-0.423514	-0.422782
C30	C	0.337559	-0.499136	-0.433306
C31	C	0.402993	-0.499107	-0.433321
C32	C	0.438938	-0.423450	-0.422810
C33	C	0.200126	-0.479634	-0.478991
C34	C	0.134689	-0.479671	-0.478966
C35	C	0.143242	-0.367530	-0.366498
C36	C	0.208677	-0.367500	-0.366519
C37	C	0.237116	-0.423551	-0.422769
C38	C	0.854013	-0.904470	-0.447024
C39	C	0.892495	-0.943331	-0.398294
C40	C	0.888721	-1.037974	-0.403048
C41	C	0.857786	-0.809819	-0.442271
C42	C	1.036608	-0.423577	-0.422745
C43	C	1.106248	-0.423617	-0.422729
C44	C	0.864425	-0.434449	-0.639952
C45	C	0.860733	-0.439170	-0.732859
C46	C	0.881881	-0.206324	-0.411761
C47	C	0.885714	-0.113413	-0.406835
C48	C	0.853995	-0.447805	-0.902962
C49	C	0.892490	-0.399171	-0.941767
C50	C	0.888741	-0.403976	-1.036418
C51	C	0.857743	-0.443001	-0.808302
C52	C	0.881999	-0.412488	-0.204769
C53	C	0.885754	-0.407804	-0.111864
H54	H	0.626922	-0.525085	-0.524890
O55	O	0.935203	-0.898359	-0.344195
C56	C	1.018662	-0.902039	-0.238625
C57	C	0.970315	-0.953074	-0.299834
H58	H	1.047071	-0.946255	-0.202755
H59	H	0.993298	-0.858954	-0.192855
H60	H	1.051439	-0.863117	-0.275001
H61	H	0.937524	-0.992045	-0.263527
H62	H	0.995719	-0.996106	-0.345604
O63	O	0.811387	-0.949694	-0.501036
C64	C	0.768682	-1.086634	-0.555017
C65	C	0.816990	-1.035507	-0.493824
H66	H	0.773186	-1.156022	-0.549195
H67	H	0.777630	-1.073013	-0.621592
H68	H	0.719429	-1.068706	-0.539523
H69	H	0.866262	-1.053406	-0.509242
H70	H	0.807987	-1.049133	-0.427267
O71	O	0.935108	-0.345206	-0.896476
C72	C	0.977783	-0.291210	-0.759474
C73	C	0.929485	-0.352348	-0.810667
H74	H	0.973263	-0.296976	-0.690089
H75	H	0.968838	-0.224632	-0.773163
H76	H	1.027041	-0.306803	-0.777283
H77	H	0.880209	-0.336832	-0.792889
H78	H	0.938486	-0.418908	-0.796973
H79	H	0.818226	-0.493046	-0.940822
H80	H	0.508214	-0.525146	-0.524854
H81	H	0.427002	-0.560680	-0.441887
O82	O	0.302672	-0.572645	-0.443639
C83	C	0.274502	-0.699219	-0.532788
C84	C	0.314033	-0.615989	-0.521206
H85	H	0.283683	-0.734295	-0.595490
H86	H	0.222655	-0.686311	-0.531021
H87	H	0.287935	-0.738696	-0.480387
H88	H	0.300654	-0.576471	-0.573592
H89	H	0.365870	-0.628958	-0.522938
O90	O	0.098850	-0.534176	-0.533669
C91	C	0.097275	-0.645418	-0.645202
C92	C	0.137939	-0.583725	-0.583309
H93	H	0.128862	-0.685506	-0.685341
H94	H	0.066386	-0.609230	-0.686952
H95	H	0.066468	-0.687233	-0.609088
H96	H	0.168784	-0.541895	-0.619355
H97	H	0.168788	-0.619965	-0.541559
O98	O	0.115517	-0.313089	-0.311969
C99	C	0.018501	-0.263425	-0.262109
C100	C	0.049821	-0.325122	-0.323913
H101	H	-0.034618	-0.273144	-0.271733
H102	H	0.033384	-0.196730	-0.273312
H103	H	0.033558	-0.274767	-0.195481
H104	H	0.034780	-0.313857	-0.390565
H105	H	0.034940	-0.391796	-0.312638
O106	O	0.315444	-0.274353	-0.402169
C107	C	0.298264	-0.142322	-0.455460
C108	C	0.330667	-0.225538	-0.467005
H109	H	0.310549	-0.102839	-0.507880
H110	H	0.314887	-0.107201	-0.392760
H111	H	0.245324	-0.155350	-0.457221
H112	H	0.383610	-0.212585	-0.465284
H113	H	0.313993	-0.260634	-0.529696
O114	O	0.244583	-0.312904	-0.311989
C115	C	0.271816	-0.168731	-0.263992
C116	C	0.231127	-0.230467	-0.325812
H117	H	0.260942	-0.102067	-0.275133
H118	H	0.323480	-0.178264	-0.273660
H119	H	0.261118	-0.180165	-0.197367
H120	H	0.241770	-0.219071	-0.392460
H121	H	0.179475	-0.220919	-0.316071
O122	O	0.444435	-0.274403	-0.402217
C123	C	0.519373	-0.183804	-0.461309
C124	C	0.479799	-0.267000	-0.472820
H125	H	0.547964	-0.177785	-0.518389
H126	H	0.552363	-0.182229	-0.403281
H127	H	0.487049	-0.129775	-0.453756
H128	H	0.512074	-0.321076	-0.480409
H129	H	0.446803	-0.268504	-0.530833
H130	H	0.523722	-0.321706	-0.320807
O131	O	0.648228	-0.312721	-0.312078
C132	C	0.675461	-0.168547	-0.264083
C133	C	0.634769	-0.230284	-0.325899
H134	H	0.664585	-0.101884	-0.275224
H135	H	0.727125	-0.178080	-0.273757
H136	H	0.664768	-0.179981	-0.197457
H137	H	0.645408	-0.218888	-0.392549
H138	H	0.583118	-0.220737	-0.316152
H139	H	0.223282	-0.525278	-0.524789
