data_functionalizedCrystal
_audit_creation_method	'MofGen! by Chris Wilmer'
_symmetry_space_group_name_H-M	'P1'
_symmetry_Int_Tables_number	1
_symmetry_cell_setting	triclinic
loop_
_symmetry_equiv_pos_as_xyz
  x,y,z
_cell_length_a	19.288856
_cell_length_b	14.044220
_cell_length_c	17.766277
_cell_angle_alpha	89.993125
_cell_angle_beta	90.011354
_cell_angle_gamma	91.839180
loop_
_atom_site_label
_atom_site_type_symbol
_atom_site_fract_x
_atom_site_fract_y
_atom_site_fract_z
O1	O	-0.928950	0.118176	-0.062631
O2	O	-0.727713	0.134131	-0.062625
O3	O	-0.825311	-0.011818	-0.062621
O4	O	-0.831352	0.264125	-0.062636
O5	O	-0.825292	-0.011826	0.062568
O6	O	-0.727694	0.134124	0.062563
O7	O	-0.928931	0.118168	0.062558
Cu8	Cu	-0.828311	0.126145	0.073991
Cu9	Cu	-0.828333	0.126154	-0.074059
O10	O	-0.831333	0.264118	0.062553
C11	C	-0.701794	0.133615	-0.000030
C12	C	-0.624592	0.132078	-0.000028
C13	C	-0.065385	0.207316	-0.000021
C14	C	-0.137925	0.208769	-0.000027
C15	C	-0.177129	0.123133	-0.000021
C16	C	-0.143788	0.036038	-0.000030
C17	C	-0.071249	0.034587	-0.000032
C18	C	-0.294289	0.059262	0.043841
C19	C	-0.366826	0.060716	0.043848
C20	C	-0.400862	0.127602	-0.000019
C21	C	-0.362352	0.193050	-0.043882
C22	C	-0.289813	0.191600	-0.043884
C23	C	-0.255785	0.124696	-0.000020
C24	C	-0.512851	0.216266	-0.000021
C25	C	-0.585392	0.217715	-0.000032
C26	C	-0.591254	0.044981	-0.000027
C27	C	-0.518714	0.043535	-0.000025
C28	C	-0.479517	0.129180	-0.000018
C29	C	-0.822657	-0.047125	-0.000026
C30	C	-0.814769	-0.152317	-0.000025
C31	C	-0.800349	-0.344916	-0.000035
C32	C	-0.856292	-0.402790	-0.000039
C33	C	-0.848268	-0.509959	-0.000045
C34	C	-0.808372	-0.237737	-0.000029
C35	C	0.045150	0.118687	-0.000034
C36	C	-0.032052	0.120233	-0.000025
C37	C	-0.833987	0.299424	-0.000043
C38	C	-0.841875	0.404616	-0.000050
N39	N	-0.828300	0.126139	0.178121
N40	N	-0.828349	0.126153	-0.178189
C41	C	-0.871533	0.061544	0.217510
C42	C	-0.871537	0.061539	0.296312
C43	C	-0.828315	0.126146	0.335722
C44	C	-0.785073	0.190746	0.296324
C45	C	-0.785065	0.190742	0.217523
C46	C	-0.824564	0.212489	0.460555
C47	C	-0.824576	0.212494	0.539354
C48	C	-0.828334	0.126158	0.578768
C49	C	-0.832094	0.039812	0.539374
C50	C	-0.832087	0.039808	0.460574
C51	C	-0.828318	0.126157	0.421168
C52	C	-0.871574	0.061553	0.703603
C53	C	-0.871573	0.061547	0.782406
C54	C	-0.785112	0.190762	0.782416
C55	C	-0.785110	0.190759	0.703615
C56	C	-0.828344	0.126156	0.664213
H57	H	-0.266583	0.004791	0.079564
O58	O	-0.927717	-0.361813	-0.000040
H59	H	-0.967462	-0.420744	-0.000049
O60	O	-0.820501	0.305625	0.418059
H61	H	-0.773374	0.307968	0.382184
H62	H	-0.480935	0.286004	-0.000018
H63	H	-0.746432	-0.375853	-0.000036
H64	H	-0.612530	0.288632	-0.000034
O65	O	-0.633527	-0.047388	-0.000019
H66	H	-0.689569	-0.031752	-0.000012
H67	H	-0.906735	0.008938	0.185432
O68	O	-0.820530	0.305624	0.581834
H69	H	-0.773422	0.307970	0.617760
H70	H	-0.749908	0.243362	0.671542
O71	O	-0.399049	0.265193	-0.091207
H72	H	-0.455959	0.255200	-0.083848
H73	H	-0.749917	0.243362	0.814503
H74	H	-0.906744	0.008937	0.328389
O75	O	-0.836129	-0.053312	0.418080
H76	H	-0.838738	-0.113352	0.458719
O77	O	-0.918172	-0.008152	0.661090
H78	H	-0.954396	0.031598	0.625166
O79	O	-0.482755	-0.050391	-0.000011
H80	H	-0.522201	-0.109698	0.000000
O81	O	-0.248280	0.262182	-0.091195
H82	H	-0.192122	0.249938	-0.083820
O83	O	-0.836151	-0.053326	0.581862
H84	H	-0.789393	-0.059260	0.617771
H85	H	-0.749879	0.243348	0.328415
H86	H	-0.398176	0.007429	0.079569
H87	H	-0.175713	-0.033688	-0.000028
O88	O	-0.035291	-0.059342	-0.000024
H89	H	-0.074735	-0.118649	-0.000016
H90	H	-0.906776	0.008941	0.814478
H91	H	-0.749859	0.243344	0.185452
H92	H	-0.033474	0.277056	-0.000019
H93	H	-0.165069	0.279685	-0.000016
