data_functionalizedCrystal
_audit_creation_method	'MofGen! by Chris Wilmer'
_symmetry_space_group_name_H-M	'P1'
_symmetry_Int_Tables_number	1
_symmetry_cell_setting	triclinic
loop_
_symmetry_equiv_pos_as_xyz
  x,y,z
_cell_length_a	33.510554
_cell_length_b	33.509711
_cell_length_c	33.506470
_cell_angle_alpha	60.004186
_cell_angle_beta	60.008358
_cell_angle_gamma	59.994760
loop_
_atom_site_label
_atom_site_type_symbol
_atom_site_fract_x
_atom_site_fract_y
_atom_site_fract_z
O1	O	0.055430	-0.583081	0.487524
O2	O	0.555430	-0.083081	0.987524
O3	O	0.020931	-0.453975	0.392819
O4	O	0.520931	0.046025	0.892819
O5	O	0.102693	-0.535652	0.392731
O6	O	0.602693	-0.035652	0.892731
O7	O	-0.026332	-0.501404	0.487613
O8	O	0.473668	-0.001404	0.987613
O9	O	0.129823	-0.508526	0.419767
O10	O	0.629823	-0.008526	0.919767
O11	O	0.048062	-0.426850	0.419856
O12	O	0.548062	0.073150	0.919856
O13	O	0.082561	-0.555956	0.514561
O14	O	0.582561	-0.055956	1.014561
Cu15	Cu	0.067789	-0.488926	0.469677
Cu16	Cu	0.567789	0.011074	0.969677
Cu17	Cu	0.035703	-0.521005	0.437703
Cu18	Cu	0.535703	-0.021005	0.937703
O19	O	0.000799	-0.474279	0.514649
O20	O	0.500799	0.025721	1.014649
N21	N	0.090357	-0.466366	0.492168
N22	N	0.590357	0.033634	0.992168
N23	N	0.013139	-0.543569	0.415212
N24	N	0.513139	-0.043569	0.915212
C25	C	0.143028	-0.279707	0.544737
C26	C	0.643028	0.220293	1.044737
C27	C	0.143165	-0.413746	0.678712
C28	C	0.643165	0.086254	1.178712
C29	C	0.143043	-0.413725	0.544739
C30	C	0.643043	0.086275	1.044739
C31	C	0.277090	-0.413694	0.544637
C32	C	0.777090	0.086306	1.044637
C33	C	0.157791	-0.323929	0.559462
C34	C	0.657791	0.176071	1.059462
C35	C	0.157869	-0.398994	0.634489
C36	C	0.657869	0.101006	1.134489
C37	C	0.232865	-0.398963	0.559407
C38	C	0.732865	0.101037	1.059407
C39	C	0.157801	-0.398982	0.559463
C40	C	0.657801	0.101018	1.059463
C41	C	0.124237	-0.223419	0.525994
C42	C	0.624237	0.276581	1.025994
C43	C	0.124262	-0.432490	0.525997
C44	C	0.624262	0.067510	1.025997
C45	C	0.176583	-0.380217	0.578205
C46	C	0.676583	0.119783	1.078205
C47	C	0.358938	-0.399566	0.501510
C48	C	0.858938	0.100434	1.001510
C49	C	0.410104	-0.416609	0.484423
C50	C	0.910104	0.083391	0.984423
C51	C	0.410135	-0.499402	0.515995
C52	C	0.910135	0.000598	1.015995
C53	C	0.358969	-0.482358	0.533084
C54	C	0.858969	0.017642	1.033084
C55	C	0.136554	-0.197822	0.475693
C56	C	0.636554	0.302178	0.975693
C57	C	0.119469	-0.146653	0.458657
C58	C	0.619469	0.353347	0.958657
C59	C	0.077755	-0.146680	0.542223
C60	C	0.577755	0.353320	1.042223
C61	C	0.094840	-0.197850	0.559260
C62	C	0.594840	0.302150	1.059260
C63	C	0.073954	-0.420144	0.538396
C64	C	0.573954	0.079856	1.038396
C65	C	0.056884	-0.437203	0.521352
C66	C	0.556884	0.062797	1.021352
C67	C	0.140427	-0.478952	0.479524
C68	C	0.640427	0.021048	0.979524
C69	C	0.157498	-0.461894	0.496561
C70	C	0.657498	0.038106	0.996561
C71	C	0.074158	-0.420182	0.760618
C72	C	0.574158	0.079818	1.260618
C73	C	0.057149	-0.437256	0.811786
C74	C	0.557149	0.062744	1.311786
C75	C	0.140732	-0.479014	0.811717
C76	C	0.640732	0.020986	1.311717
C77	C	0.157740	-0.461942	0.760547
C78	C	0.657740	0.038058	1.260547
C79	C	0.124452	-0.432525	0.734999
C80	C	0.624452	0.067475	1.234999
C81	C	0.333372	-0.432439	0.525839
C82	C	0.833372	0.067561	1.025839
C83	C	-0.020612	-0.577650	0.170305
C84	C	0.479388	-0.077650	0.670305
C85	C	-0.020943	-0.788098	0.380897
C86	C	0.479057	-0.288098	0.880897
C87	C	-0.020912	-0.577638	0.380991
C88	C	0.479088	-0.077638	0.880991
C89	C	-0.231336	-0.577418	0.380585
C90	C	0.268664	-0.077418	0.880585
C91	C	-0.129735	-0.611383	0.346870
C92	C	0.370265	-0.111383	0.846870
C93	C	-0.054722	-0.611464	0.347017
C94	C	0.445278	-0.111464	0.847017
C95	C	-0.073450	-0.630202	0.328195
C96	C	0.426550	-0.130202	0.828195
C97	C	-0.087616	-0.712029	0.371239
C98	C	0.412384	-0.212029	0.871239
C99	C	-0.070599	-0.763199	0.388315
C100	C	0.429401	-0.263199	0.888315
C101	C	0.012191	-0.763282	0.356872
C102	C	0.512191	-0.263282	0.856872
C103	C	-0.004828	-0.712113	0.339795
C104	C	0.495172	-0.212113	0.839795
C105	C	-0.155381	-0.623711	0.397158
C106	C	0.344619	-0.123711	0.897158
C107	C	-0.206547	-0.606601	0.414133
C108	C	0.293453	-0.106601	0.914133
C109	C	-0.206417	-0.564839	0.330529
C110	C	0.293583	-0.064839	0.830529
C111	C	-0.155251	-0.581949	0.313554
C112	C	0.344749	-0.081949	0.813554
C113	C	-0.067051	-0.561160	0.334643
C114	C	0.432949	-0.061160	0.834643
C115	C	-0.050026	-0.544131	0.351759
C116	C	0.449974	-0.044131	0.851759
C117	C	-0.008343	-0.627704	0.393612
C118	C	0.491657	-0.127704	0.893612
C119	C	-0.025368	-0.644736	0.376502
C120	C	0.474632	-0.144736	0.876502
C121	C	-0.066922	-0.561168	0.246303
C122	C	0.433078	-0.061168	0.746303
C123	C	-0.049794	-0.544141	0.195134
C124	C	0.450206	-0.044141	0.695134
C125	C	-0.008048	-0.627719	0.195183
C126	C	0.491952	-0.127719	0.695183
C127	C	-0.025175	-0.644745	0.246352
C128	C	0.474825	-0.144745	0.746352
C129	C	-0.054614	-0.611468	0.271911
C130	C	0.445386	-0.111468	0.771911
C131	C	-0.054732	-0.686488	0.346980
C132	C	0.445268	-0.186488	0.846980
C133	C	-0.002117	-0.558258	0.114025
C134	C	0.497883	-0.058258	0.614025
C135	C	-0.002879	-0.844379	0.399940
C136	C	0.497121	-0.344379	0.899940
C137	C	-0.002504	-0.558243	0.399473
C138	C	0.497496	-0.058243	0.899473
C139	C	-0.287615	-0.558285	0.398601
C140	C	0.212385	-0.058285	0.898601
N141	N	0.434975	-0.466279	0.491900
N142	N	0.934975	0.033721	0.991900
O143	O	0.591199	-0.470749	0.375150
O144	O	1.091199	0.029251	0.875150
O145	O	0.591395	-0.565767	0.504116
O146	O	1.091395	-0.065767	1.004116
O147	O	0.591311	-0.565550	0.422329
O148	O	1.091311	-0.065550	0.922329
O149	O	0.591283	-0.470966	0.456937
O150	O	1.091283	0.029034	0.956937
O151	O	0.510024	-0.538522	0.449509
O152	O	1.010024	-0.038522	0.949509
O153	O	0.510108	-0.538739	0.531297
O154	O	1.010108	-0.038739	1.031297
O155	O	0.509913	-0.443721	0.402330
O156	O	1.009913	0.056279	0.902330
Cu157	Cu	0.502588	-0.488762	0.469295
Cu158	Cu	1.002588	0.011238	0.969295
Cu159	Cu	0.598719	-0.520726	0.437151
Cu160	Cu	1.098719	-0.020726	0.937151
O161	O	0.509997	-0.443938	0.484117
O162	O	1.009997	0.056062	0.984117
N163	N	0.666332	-0.543209	0.414541
N164	N	1.166332	-0.043209	0.914541
N165	N	0.090323	-0.121809	0.492157
N166	N	0.590323	0.378191	0.992157
O167	O	-0.026342	0.034503	0.487582
O168	O	0.473658	0.534503	0.987582
O169	O	0.102626	0.034543	0.392540
O170	O	0.602626	0.534543	0.892540
O171	O	0.020797	0.034507	0.392812
O172	O	0.520797	0.534507	0.892812
O173	O	0.055487	0.034539	0.487310
O174	O	0.555487	0.534539	0.987310
O175	O	0.047933	-0.046785	0.419900
O176	O	0.547933	0.453215	0.919900
O177	O	0.129763	-0.046749	0.419628
O178	O	0.629763	0.453251	0.919628
O179	O	0.000794	-0.046789	0.514670
O180	O	0.500794	0.453211	1.014670
Cu181	Cu	0.067756	-0.054192	0.469623
Cu182	Cu	0.567756	0.445808	0.969623
Cu183	Cu	0.035664	0.041946	0.437588
Cu184	Cu	0.535664	0.541946	0.937588
O185	O	0.082623	-0.046753	0.514399
O186	O	0.582623	0.453247	1.014399
N187	N	0.013091	0.109564	0.415054
N188	N	0.513091	0.609564	0.915054
N189	N	0.090671	-0.466416	0.836606
N190	N	0.590671	0.033584	1.336606
O191	O	0.086120	-0.583065	0.992910
O192	O	0.586120	-0.083065	1.492910
O193	O	-0.008880	-0.454051	0.992954
O194	O	0.491120	0.045949	1.492954
O195	O	-0.008658	-0.535864	0.992931
O196	O	0.491342	-0.035864	1.492931
O197	O	0.085897	-0.501252	0.992933
O198	O	0.585897	-0.001252	1.492933
O199	O	0.018407	-0.508749	0.911642
O200	O	0.518407	-0.008749	1.411642
O201	O	0.018185	-0.426936	0.911665
O202	O	0.518185	0.073064	1.411665
O203	O	0.113185	-0.555949	0.911621
O204	O	0.613185	-0.055949	1.411621
Cu205	Cu	0.068156	-0.488967	0.904221
Cu206	Cu	0.568156	0.011033	1.404221
Cu207	Cu	0.036148	-0.521034	1.000355
Cu208	Cu	0.536148	-0.021034	1.500355
O209	O	0.112963	-0.474136	0.911644
O210	O	0.612963	0.025864	1.411644
N211	N	0.013633	-0.543590	1.067970
N212	N	0.513633	-0.043590	1.567970
C213	C	0.031262	-0.424144	0.393290
C214	C	0.531262	0.075856	0.893290
C215	C	0.132513	-0.525291	0.393180
C216	C	0.632513	-0.025291	0.893180
C217	C	0.072229	-0.585787	0.514090
C218	C	0.572229	-0.085787	1.014090
C219	C	-0.029022	-0.484640	0.514200
C220	C	0.470978	0.015360	1.014200
C221	C	0.550775	-0.565338	0.533954
C222	C	1.050775	-0.065338	1.033954
C223	C	0.550672	-0.565070	0.432670
C224	C	1.050672	-0.065070	0.932670
C225	C	0.550530	-0.444149	0.372492
C226	C	1.050530	0.055851	0.872492
C227	C	0.550635	-0.444418	0.473776
C228	C	1.050635	0.055582	0.973776
C229	C	0.132408	-0.005998	0.392963
C230	C	0.632408	0.494002	0.892963
C231	C	0.031106	-0.006142	0.393333
C232	C	0.531106	0.493858	0.893333
C233	C	-0.029021	-0.006147	0.514213
C234	C	0.470979	0.493853	1.014213
C235	C	0.072314	-0.006104	0.513878
C236	C	0.572314	0.493896	1.013878
C237	C	-0.008430	-0.424240	0.952316
C238	C	0.491570	0.075760	1.452316
C239	C	-0.008150	-0.525550	0.952271
C240	C	0.491850	-0.025550	1.452271
C241	C	0.112735	-0.585760	0.952260
C242	C	0.612735	-0.085760	1.452260
C243	C	0.112461	-0.484444	0.952286
C244	C	0.612461	0.015556	1.452286
H245	H	0.016194	-0.427197	0.832639
H246	H	0.516194	0.072803	1.332639
C247	C	0.550378	-0.403823	0.322480
C248	C	1.050378	0.096177	0.822480
N249	N	0.550238	-0.373441	0.284818
N250	N	1.050238	0.126559	0.784818
C251	C	-0.079067	-0.006133	0.554512
C252	C	0.420933	0.493867	1.054512
N253	N	-0.116765	-0.006112	0.584862
N254	N	0.383235	0.493888	1.084862
C255	C	0.550620	-0.404276	0.483779
C256	C	1.050620	0.095724	0.983779
N257	N	0.550606	-0.374041	0.491315
N258	N	1.050606	0.125959	0.991315
H259	H	0.550826	-0.595166	0.570996
H260	H	1.050826	-0.095166	1.070996
C261	C	0.082351	-0.006095	0.553988
C262	C	0.582351	0.493905	1.053988
N263	N	0.089911	-0.006089	0.584199
N264	N	0.589911	0.493911	1.084199
C265	C	-0.048264	-0.535538	0.952223
C266	C	0.451736	-0.035538	1.452223
N267	N	-0.078478	-0.543060	0.952186
N268	N	0.421522	-0.043060	1.452186
C269	C	-0.048723	-0.374184	0.952332
C270	C	0.451277	0.125816	1.452332
N271	N	-0.079072	-0.336481	0.952344
N272	N	0.420928	0.163519	1.452344
H273	H	0.142562	-0.622811	0.952240
H274	H	0.642562	-0.122811	1.452240
C275	C	0.182576	-0.535148	0.352928
C276	C	0.682576	-0.035148	0.852928
N277	N	0.220284	-0.542573	0.322611
N278	N	0.720284	-0.042573	0.822611
H279	H	0.142166	-0.477036	0.952281
H280	H	0.642166	0.022964	1.452281
H281	H	0.023675	-0.006147	0.363643
H282	H	0.523675	0.493853	0.863643
C283	C	-0.127038	-0.568388	0.258232
C284	C	0.372962	-0.068388	0.758232
N285	N	-0.105789	-0.558173	0.216563
N286	N	0.394211	-0.058173	0.716563
C287	C	0.082187	-0.635891	0.554275
C288	C	0.582187	-0.135891	1.054275
N289	N	0.089687	-0.673630	0.584542
N290	N	0.589687	-0.173630	1.084542
C291	C	-0.079085	-0.474783	0.554451
C292	C	0.420915	0.025217	1.054451
N293	N	-0.116793	-0.467358	0.584769
N294	N	0.383207	0.032642	1.084769
H295	H	0.550685	-0.594783	0.425263
H296	H	1.050685	-0.094783	0.925263
H297	H	-0.227429	-0.616637	0.455084
H298	H	0.272571	-0.116637	0.955084
H299	H	0.167840	-0.502959	0.832516
H300	H	0.667840	-0.002959	1.332516
C301	C	0.037535	-0.387795	0.732519
C302	C	0.537535	0.112205	1.232519
N303	N	0.009951	-0.363394	0.711355
N304	N	0.509951	0.136606	1.211355
C305	C	0.213069	-0.475520	0.732371
C306	C	0.713069	0.024480	1.232371
N307	N	0.254742	-0.485745	0.711149
N308	N	0.754742	0.014255	1.211149
C309	C	0.182340	-0.005674	0.352552
C310	C	0.682340	0.494326	0.852552
N311	N	0.219949	-0.005429	0.322114
N312	N	0.719949	0.494571	0.822114
H313	H	0.023891	-0.387055	0.363546
H314	H	0.523891	0.112945	0.863546
H315	H	0.046887	-0.396202	0.562361
H316	H	0.546887	0.103798	1.062361
H317	H	0.160490	-0.218637	0.448603
H318	H	0.660490	0.281363	0.948603
H319	H	0.015920	-0.427139	0.531437
H320	H	0.515920	0.072861	1.031437
H321	H	0.167497	-0.502899	0.455559
H322	H	0.667497	-0.002899	0.955559
H323	H	0.198463	-0.471942	0.486461
H324	H	0.698463	0.028058	0.986461
H325	H	0.338156	-0.509129	0.552896
H326	H	0.838156	-0.009129	1.052896
H327	H	0.430920	-0.389838	0.464614
H328	H	0.930920	0.110162	0.964614
C329	C	0.438290	-0.554315	0.523966
C330	C	0.938290	-0.054315	1.023966
N331	N	0.459498	-0.595676	0.529971
N332	N	0.959498	-0.095676	1.029971
H333	H	0.129496	-0.125810	0.417697
H334	H	0.629496	0.374190	0.917697
C335	C	0.330782	-0.344652	0.493542
C336	C	0.830782	0.155348	0.993542
N337	N	0.309577	-0.303290	0.487539
N338	N	0.809577	0.196710	0.987539
H339	H	0.084809	-0.218687	0.600218
H340	H	0.584809	0.281313	1.100218
C341	C	-0.063347	-0.488804	0.166973
C342	C	0.436653	0.011196	0.666973
N343	N	-0.073555	-0.447125	0.145760
N344	N	0.426445	0.052875	0.645760
C345	C	0.045436	-0.118553	0.578818
C346	C	0.545436	0.381447	1.078818
N347	N	0.021096	-0.097369	0.606382
N348	N	0.521096	0.402631	1.106382
H349	H	0.015913	-0.654818	0.174378
H350	H	0.515913	-0.154818	0.674378
C351	C	-0.099307	-0.524558	0.274415
C352	C	0.400693	-0.024558	0.774415
N353	N	-0.123698	-0.496984	0.295589
N354	N	0.376302	0.003016	0.795589
H355	H	-0.090949	-0.534065	0.310634
H356	H	0.409051	-0.034065	0.810634
C357	C	-0.063585	-0.488795	0.338147
C358	C	0.436415	0.011205	0.838147
N359	N	-0.073796	-0.447116	0.327892
N360	N	0.426204	0.052884	0.827892
C361	C	0.023965	-0.664308	0.426025
C362	C	0.523965	-0.164308	0.926025
N363	N	0.048305	-0.691880	0.450434
N364	N	0.548305	-0.191880	0.950434
C365	C	-0.011631	-0.700081	0.274518
C366	C	0.488369	-0.200081	0.774518
N367	N	-0.001430	-0.741760	0.295731
N368	N	0.498570	-0.241760	0.795731
H369	H	-0.015331	-0.685697	0.386578
H370	H	0.484669	-0.185697	0.886578
H371	H	0.021953	-0.691318	0.320042
H372	H	0.521953	-0.191318	0.820042
H373	H	0.052828	-0.784146	0.351024
H374	H	0.552828	-0.284146	0.851024
H375	H	-0.097376	-0.783993	0.408060
H376	H	0.402624	-0.283993	0.908060
H377	H	-0.128252	-0.691169	0.377093
H378	H	0.371748	-0.191169	0.877093
H379	H	-0.134607	-0.647683	0.424287
H380	H	0.365393	-0.147683	0.924287
H381	H	-0.227194	-0.540877	0.303400
H382	H	0.272806	-0.040877	0.803400
