data_functionalizedCrystal
_audit_creation_method	'MofGen! by Chris Wilmer'
_symmetry_space_group_name_H-M	'P1'
_symmetry_Int_Tables_number	1
_symmetry_cell_setting	triclinic
loop_
_symmetry_equiv_pos_as_xyz
  x,y,z
_cell_length_a	19.288859
_cell_length_b	11.892083
_cell_length_c	19.288865
_cell_angle_alpha	93.867455
_cell_angle_beta	96.865014
_cell_angle_gamma	93.889739
loop_
_atom_site_label
_atom_site_type_symbol
_atom_site_fract_x
_atom_site_fract_y
_atom_site_fract_z
O1	O	0.925811	0.094038	-0.082174
O2	O	0.723550	0.094037	-0.093867
O3	O	0.830524	0.094015	0.013109
O4	O	0.818837	0.094060	-0.189150
O5	O	0.821598	-0.093991	0.004209
O6	O	0.714624	-0.093969	-0.102768
O7	O	0.916885	-0.093968	-0.091074
Zn8	Zn	0.814337	-0.123818	-0.098334
Zn9	Zn	0.826097	0.123888	-0.086607
O10	O	0.809911	-0.093946	-0.198050
C11	C	0.693210	0.000034	-0.097942
C12	C	0.616106	0.000032	-0.096814
C13	C	0.052066	0.000046	-0.151957
C14	C	0.124513	0.000052	-0.153022
C15	C	0.169219	0.000036	-0.090254
C16	C	0.141474	0.000043	-0.026414
C17	C	0.069029	0.000048	-0.025350
C18	C	0.287362	-0.065845	-0.046560
C19	C	0.359805	-0.065857	-0.047626
C20	C	0.392664	0.000026	-0.093532
C21	C	0.353070	0.065906	-0.138383
C22	C	0.280625	0.065911	-0.137319
C23	C	0.247775	0.000032	-0.091400
C24	C	0.498956	0.000033	-0.158522
C25	C	0.571405	0.000047	-0.159584
C26	C	0.588365	0.000026	-0.032974
C27	C	0.515918	0.000024	-0.031914
C28	C	0.471217	0.000023	-0.094689
N29	N	0.806317	-0.292871	-0.106337
C30	C	0.750546	-0.470398	-0.162097
C31	C	0.756140	-0.352057	-0.156492
C32	C	0.850902	-0.352035	-0.061782
C33	C	0.845308	-0.470376	-0.067387
C34	C	0.795129	-0.529553	-0.117546
C35	C	0.789539	-0.647896	-0.123154
C36	C	0.884297	-0.647872	-0.028441
C37	C	0.889891	-0.529531	-0.022836
C38	C	0.947225	0.000038	-0.086999
C39	C	1.024329	0.000047	-0.088126
C40	C	0.825684	0.000009	0.034535
C41	C	0.824555	-0.000001	0.111638
N42	N	0.834124	0.292940	-0.078599
C43	C	0.814750	0.000063	-0.219476
C44	C	0.815880	0.000080	-0.296579
C45	C	0.887323	-0.000006	0.156336
C46	C	0.886263	0.000012	0.228784
C47	C	0.822431	0.000012	0.256530
C48	C	0.759655	0.000024	0.211823
C49	C	0.760717	0.000017	0.139377
C50	C	0.769124	-0.065843	0.361698
C51	C	0.768065	-0.065843	0.434143
C52	C	0.819152	0.000037	0.479976
C53	C	0.871311	0.065903	0.453358
C54	C	0.872373	0.065897	0.380912
C55	C	0.821272	0.000020	0.335084
C56	C	0.880775	0.000053	0.603231
C57	C	0.879713	0.000078	0.675680
C58	C	0.753103	0.000079	0.658717
C59	C	0.754167	0.000065	0.586270
C60	C	0.818005	0.000047	0.558531
H61	H	0.147101	0.000041	-0.205003
H62	H	0.709602	0.000021	0.102983
H63	H	0.719835	-0.303896	-0.192768
C64	C	0.190652	0.000019	0.042631
N65	N	0.227693	0.000001	0.094638
C66	C	0.906068	-0.286919	-0.006584
N67	N	0.947611	-0.237873	0.034999
C68	C	0.950998	0.000050	0.572717
N69	N	1.003891	0.000052	0.549735
H70	H	0.930829	0.000080	0.712073
C71	C	0.712923	-0.138326	0.311287
N72	N	0.670594	-0.192921	0.273319
C73	C	0.038517	0.000035	0.044871
N74	N	0.015535	0.000019	0.097763
C75	C	0.689439	0.000016	0.242344
N76	N	0.636550	0.000011	0.265333
C77	C	0.237075	0.138390	-0.186647
N78	N	0.204274	0.192988	-0.223798
C79	C	0.945075	-0.464422	0.032347
N80	N	0.986639	-0.415384	0.073913
C81	C	0.933342	-0.712952	0.020568
N82	N	0.970282	-0.761972	0.057479
C83	C	0.449784	0.000053	-0.227575
N84	N	0.412750	0.000072	-0.279586
H85	H	0.939305	-0.000017	0.133756
C86	C	0.389210	0.138387	-0.188881
N87	N	0.416434	0.192977	-0.226915
H88	H	0.015675	0.000050	-0.203074
C89	C	0.685116	0.000065	0.537100
N90	N	0.633104	0.000069	0.500065
H91	H	0.593987	0.000056	-0.211564
H92	H	0.624764	0.000022	0.018134
C93	C	0.955315	-0.000001	0.277959
N94	N	1.007325	-0.000014	0.314996
C95	C	0.485405	0.000001	0.038305
N96	N	0.462423	-0.000019	0.091197
H97	H	0.912911	0.119550	0.490675
C98	C	0.403351	-0.138329	0.001709
N99	N	0.436149	-0.192915	0.038871
C100	C	0.251224	-0.138323	0.003945
N101	N	0.224006	-0.192910	0.041984
C102	C	0.734340	-0.712989	-0.178328
N103	N	0.692760	-0.762015	-0.219885
H104	H	0.709693	-0.518581	-0.202943
H105	H	0.914841	0.119530	0.359242
C106	C	0.682886	0.000083	0.689234
N107	N	0.629997	0.000089	0.712222
H108	H	0.725591	-0.119469	0.455809
