data_functionalizedCrystal
_audit_creation_method	'MofGen! by Chris Wilmer'
_symmetry_space_group_name_H-M	'P1'
_symmetry_Int_Tables_number	1
_symmetry_cell_setting	triclinic
loop_
_symmetry_equiv_pos_as_xyz
  x,y,z
_cell_length_a	18.050591
_cell_length_b	18.050589
_cell_length_c	18.050582
_cell_angle_alpha	90.018005
_cell_angle_beta	89.980240
_cell_angle_gamma	89.968854
loop_
_atom_site_label
_atom_site_type_symbol
_atom_site_fract_x
_atom_site_fract_y
_atom_site_fract_z
Zn1	Zn	1.135259	0.295777	-0.420032
Zn2	Zn	1.468592	0.629110	-0.086699
Zn3	Zn	1.801926	0.962444	0.246635
Zn4	Zn	1.135156	0.419960	-0.295852
Zn5	Zn	1.468489	0.753294	0.037482
Zn6	Zn	1.801822	1.086627	0.370815
Zn7	Zn	1.011078	0.295781	-0.295846
Zn8	Zn	1.344412	0.629114	0.037488
Zn9	Zn	1.677745	0.962448	0.370821
Zn10	Zn	1.011012	0.419922	-0.419990
Zn11	Zn	1.344346	0.753255	-0.086657
Zn12	Zn	1.677679	1.086589	0.246677
O13	O	1.073126	0.357860	-0.357930
O14	O	1.406460	0.691193	-0.024596
O15	O	1.739793	1.024527	0.308737
O16	O	1.239170	0.312265	-0.403579
O17	O	1.572503	0.645598	-0.070246
O18	O	1.905837	0.978931	0.263087
O19	O	1.118681	0.403505	-0.191926
O20	O	1.452014	0.736839	0.141407
O21	O	1.785348	1.070172	0.474740
O22	O	1.027622	0.191856	-0.312334
O23	O	1.360955	0.525189	0.020999
O24	O	1.694289	0.858522	0.354333
O25	O	1.239094	0.403502	-0.312345
O26	O	1.572427	0.736835	0.020989
O27	O	1.905761	1.070168	0.354322
O28	O	1.118857	0.191853	-0.403573
O29	O	1.452190	0.525186	-0.070240
O30	O	1.785524	0.858520	0.263093
O31	O	1.027522	0.312271	-0.191922
O32	O	1.360855	0.645605	0.141412
O33	O	1.694188	0.978938	0.474745
O34	O	0.907145	0.312234	-0.312293
O35	O	1.240478	0.645567	0.021040
O36	O	1.573812	0.978901	0.354373
O37	O	1.027509	0.403436	-0.523920
O38	O	1.360843	0.736770	-0.190587
O39	O	1.694176	1.070103	0.142747
O40	O	0.907096	0.403440	-0.403502
O41	O	1.240430	0.736773	-0.070168
O42	O	1.573763	1.070107	0.263165
O43	O	1.118793	0.312227	-0.523951
O44	O	1.452126	0.645561	-0.190618
O45	O	1.785460	0.978894	0.142716
O46	O	1.118617	0.523880	-0.312304
O47	O	1.451950	0.857213	0.021029
O48	O	1.785284	1.190546	0.354363
O49	O	1.027409	0.523852	-0.403508
O50	O	1.360743	0.857185	-0.070174
O51	O	1.694076	1.190518	0.263159
C52	C	0.880174	0.357834	-0.357893
C53	C	1.213508	0.691167	-0.024559
C54	C	1.546841	1.024501	0.308774
C55	C	0.797628	0.357841	-0.357894
C56	C	1.130962	0.691174	-0.024561
C57	C	1.464295	1.024507	0.308772
C58	C	1.073015	0.550812	-0.357918
C59	C	1.406348	0.884146	-0.024585
C60	C	1.739682	1.217479	0.308749
C61	C	1.073035	0.633358	-0.357938
C62	C	1.406368	0.966691	-0.024605
C63	C	1.739702	1.300025	0.308729
C64	C	0.548808	0.308192	-0.308413
C65	C	0.882141	0.641525	0.024921
C66	C	1.215474	0.974858	0.358254
C67	C	0.598242	0.290110	-0.376187
C68	C	0.931575	0.623444	-0.042854
C69	C	1.264908	0.956777	0.290479
C70	C	0.500508	0.357879	-0.357955
C71	C	0.833841	0.691212	-0.024622
C72	C	1.167175	1.024545	0.308712
C73	C	0.598156	0.375906	-0.290154
C74	C	0.931489	0.709239	0.043179
C75	C	1.264822	1.042573	0.376512
C76	C	0.646493	0.357858	-0.357922
C77	C	0.979826	0.691191	-0.024588
C78	C	1.313160	1.024525	0.308745
C79	C	0.548855	0.339763	-0.425766
C80	C	0.882188	0.673096	-0.092433
C81	C	1.215522	1.006429	0.240901
C82	C	0.548764	0.425589	-0.339687
C83	C	0.882098	0.758923	-0.006354
C84	C	1.215431	1.092256	0.326979
C85	C	0.598176	0.407534	-0.407509
C86	C	0.931510	0.740867	-0.074175
C87	C	1.264843	1.074201	0.259158
C88	C	0.416410	0.357888	-0.357973
C89	C	0.749743	0.691222	-0.024640
C90	C	1.083076	1.024555	0.308693
C91	C	0.730590	0.357848	-0.357911
C92	C	1.063923	0.691182	-0.024578
C93	C	1.397256	1.024515	0.308756
C94	C	1.023463	0.832820	-0.407518
C95	C	1.356796	1.166154	-0.074185
C96	C	1.690129	1.499487	0.259149
C97	C	1.005359	0.882253	-0.339749
C98	C	1.338692	1.215586	-0.006416
C99	C	1.672026	1.548920	0.326917
C100	C	1.073091	0.784488	-0.357948
C101	C	1.406424	1.117822	-0.024615
C102	C	1.739758	1.451155	0.308718
C103	C	1.091214	0.882137	-0.425725
C104	C	1.424548	1.215471	-0.092392
C105	C	1.757881	1.548804	0.240942
C106	C	1.073144	0.930473	-0.357964
C107	C	1.406477	1.263807	-0.024631
C108	C	1.739810	1.597140	0.308703
C109	C	1.054952	0.832834	-0.290144
C110	C	1.388285	1.166167	0.043190
C111	C	1.721619	1.499501	0.376523
C112	C	1.140839	0.832714	-0.376165
C113	C	1.474172	1.166047	-0.042832
C114	C	1.807505	1.499380	0.290501
C115	C	1.122761	0.882124	-0.308350
C116	C	1.456094	1.215458	0.024983
C117	C	1.789428	1.548791	0.358317
C118	C	1.073059	0.700390	-0.357940
C119	C	1.406392	1.033723	-0.024607
C120	C	1.739725	1.367057	0.308727
C121	C	1.073176	1.014570	-0.357965
C122	C	1.406509	1.347903	-0.024631
C123	C	1.739843	1.681237	0.308702
C124	C	1.266832	0.357887	-0.357968
C125	C	1.600165	0.691220	-0.024634
C126	C	1.933499	1.024554	0.308699
C127	C	1.349378	0.357898	-0.357984
C128	C	1.682711	0.691232	-0.024650
C129	C	2.016044	1.024565	0.308683
C130	C	1.073155	0.357827	-0.551635
C131	C	1.406489	0.691160	-0.218302
C132	C	1.739822	1.024494	0.115031
C133	C	1.073168	0.357813	-0.634181
C134	C	1.406501	0.691146	-0.300848
C135	C	1.739834	1.024480	0.032485
C136	C	1.073230	1.164154	-0.357959
C137	C	1.406563	1.497488	-0.024625
C138	C	1.739897	1.830821	0.308708
C139	C	1.073202	1.081609	-0.357973
C140	C	1.406535	1.414942	-0.024640
C141	C	1.739868	1.748275	0.308694
C142	C	1.023566	0.407345	-0.833615
C143	C	1.356899	0.740678	-0.500282
C144	C	1.690232	1.074011	-0.166949
C145	C	1.091319	0.425502	-0.883014
C146	C	1.424652	0.758836	-0.549680
C147	C	1.757986	1.092169	-0.216347
C148	C	1.073204	0.357756	-0.785312
C149	C	1.406538	0.691090	-0.451978
C150	C	1.739871	1.024423	-0.118645
C151	C	1.005489	0.339578	-0.882995
C152	C	1.338822	0.672911	-0.549662
C153	C	1.672155	1.006245	-0.216328
C154	C	1.073234	0.357703	-0.931297
C155	C	1.406567	0.691036	-0.597964
C156	C	1.739901	1.024370	-0.264630
C157	C	1.140993	0.375950	-0.833623
C158	C	1.474327	0.709283	-0.500290
C159	C	1.807660	1.042616	-0.166956
C160	C	1.055117	0.289994	-0.833600
C161	C	1.388450	0.623327	-0.500267
C162	C	1.721784	0.956661	-0.166933
C163	C	1.122917	0.308126	-0.882976
C164	C	1.456250	0.641459	-0.549643
C165	C	1.789584	0.974792	-0.216309
C166	C	1.073187	0.357789	-0.701213
C167	C	1.406520	0.691122	-0.367880
C168	C	1.739853	1.024456	-0.034547
C169	C	1.073259	0.357670	-1.015394
C170	C	1.406593	0.691004	-0.682060
C171	C	1.739926	1.024337	-0.348727
C172	C	1.073140	0.357839	-0.164978
C173	C	1.406473	0.691173	0.168356
C174	C	1.739807	1.024506	0.501689
C175	C	1.073272	0.357644	-0.082432
C176	C	1.406605	0.690977	0.250901
C177	C	1.739938	1.024311	0.584234
H178	H	0.527133	0.266150	-0.266582
H179	H	0.860466	0.599483	0.066751
H180	H	1.193799	0.932816	0.400085
H181	H	0.527016	0.482844	-0.324226
H182	H	0.860350	0.816177	0.009108
H183	H	1.193683	1.149510	0.342441
Cl184	Cl	0.631788	0.201689	-0.400035
Cl185	Cl	0.965121	0.535023	-0.066702
Cl186	Cl	1.298455	0.868356	0.266632
H187	H	0.527289	0.324440	-0.483106
H188	H	0.860622	0.657773	-0.149773
H189	H	1.193955	0.991106	0.183560
H190	H	0.619715	0.449544	-0.449439
H191	H	0.953049	0.782878	-0.116106
H192	H	1.286382	1.116211	0.217227
H193	H	1.039781	0.232728	-0.811879
H194	H	1.373114	0.566061	-0.478545
H195	H	1.706448	0.899394	-0.145212
Cl196	Cl	0.631595	0.399461	-0.201652
Cl197	Cl	0.964928	0.732795	0.131682
Cl198	Cl	1.298261	1.066128	0.465015
H199	H	0.981439	0.811171	-0.449378
H200	H	1.314772	1.144504	-0.116044
H201	H	1.648105	1.477837	0.217289
Cl202	Cl	1.031216	0.799541	-0.201633
Cl203	Cl	1.364550	1.132874	0.131701
Cl204	Cl	1.697883	1.466207	0.465034
Cl205	Cl	0.958816	0.472170	-0.800150
Cl206	Cl	1.292150	0.805504	-0.466816
Cl207	Cl	1.625483	1.138837	-0.133483
H208	H	0.948092	0.904030	-0.324355
H209	H	1.281426	1.237363	0.008978
H210	H	1.614759	1.570696	0.342311
Cl211	Cl	0.917056	0.315873	-0.916480
Cl212	Cl	1.250389	0.649206	-0.583146
Cl213	Cl	1.583722	0.982539	-0.249813
H214	H	1.164956	0.266168	-0.904513
H215	H	1.498289	0.599501	-0.571179
H216	H	1.831623	0.932834	-0.237846
H217	H	1.164753	0.903636	-0.266389
H218	H	1.498086	1.236970	0.066945
H219	H	1.831419	1.570303	0.400278
H220	H	1.106635	0.482785	-0.904719
H221	H	1.439969	0.816118	-0.571385
H222	H	1.773302	1.149452	-0.238052
Cl223	Cl	1.229235	0.799091	-0.399983
Cl224	Cl	1.562568	1.132425	-0.066649
Cl225	Cl	1.895901	1.465758	0.266684
H226	H	1.106522	0.903794	-0.483037
H227	H	1.439856	1.237127	-0.149704
H228	H	1.773189	1.570461	0.183630
H229	H	1.198289	0.391368	-0.812027
H230	H	1.531622	0.724701	-0.478693
H231	H	1.864955	1.058034	-0.145360
