data_functionalizedCrystal
_audit_creation_method	'MofGen! by Chris Wilmer'
_symmetry_space_group_name_H-M	'P1'
_symmetry_Int_Tables_number	1
_symmetry_cell_setting	triclinic
loop_
_symmetry_equiv_pos_as_xyz
  x,y,z
_cell_length_a	15.995343
_cell_length_b	14.971486
_cell_length_c	14.472311
_cell_angle_alpha	90.001103
_cell_angle_beta	90.001161
_cell_angle_gamma	83.551657
loop_
_atom_site_label
_atom_site_type_symbol
_atom_site_fract_x
_atom_site_fract_y
_atom_site_fract_z
O1	O	0.109105	1.186820	0.076745
O2	O	0.609105	1.686820	0.576745
O3	O	0.122171	0.926405	0.076771
O4	O	0.622171	1.426405	0.576771
O5	O	-0.006243	1.063735	0.076740
O6	O	0.493757	1.563735	0.576740
O7	O	0.237519	1.049490	0.076776
O8	O	0.737519	1.549490	0.576776
O9	O	-0.006226	1.063716	-0.076942
O10	O	0.493774	1.563716	0.423058
O11	O	0.122188	0.926386	-0.076911
O12	O	0.622188	1.426386	0.423089
O13	O	0.109121	1.186802	-0.076937
O14	O	0.609121	1.686802	0.423063
Cu15	Cu	0.115656	1.056592	-0.090957
Cu16	Cu	0.615656	1.556592	0.409043
Cu17	Cu	0.115636	1.056614	0.090790
Cu18	Cu	0.615636	1.556614	0.590790
O19	O	0.237536	1.049472	-0.076906
O20	O	0.737536	1.549472	0.423094
C21	C	0.121595	0.893071	-0.000067
C22	C	0.621595	1.393071	0.499933
C23	C	0.119844	0.793776	-0.000058
C24	C	0.619844	1.293776	0.499942
C25	C	0.195284	0.736463	-0.000048
C26	C	0.695284	1.236463	0.499952
C27	C	0.193634	0.643165	-0.000062
C28	C	0.693634	1.143165	0.499938
C29	C	0.116543	0.607183	-0.000079
C30	C	0.616543	1.107183	0.499921
C31	C	0.041097	0.664504	-0.000092
C32	C	0.541097	1.164504	0.499908
C33	C	0.042748	0.757800	-0.000084
C34	C	0.542748	1.257800	0.499916
C35	C	0.037660	0.470046	-0.000105
C36	C	0.537660	0.970046	0.499895
C37	C	0.036009	0.376744	-0.000110
C38	C	0.536009	0.876744	0.499890
C39	C	0.188546	0.355411	-0.000082
C40	C	0.688546	0.855411	0.499918
C41	C	0.190197	0.448707	-0.000075
C42	C	0.690197	0.948707	0.499925
C43	C	0.114751	0.506021	-0.000086
C44	C	0.614751	1.006021	0.499914
C45	C	-0.037430	1.063138	-0.000103
C46	C	0.462570	1.563138	0.499897
C47	C	-0.130383	1.061376	-0.000111
C48	C	0.369617	1.561376	0.499889
C49	C	-0.300572	1.058178	-0.000089
C50	C	0.199428	1.558178	0.499911
C51	C	-0.324017	0.959047	-0.000077
C52	C	0.175983	1.459047	0.499923
C53	C	-0.420697	0.957182	0.000282
C54	C	0.079303	1.457182	0.500282
C55	C	-0.468135	1.055028	-0.000069
C56	C	0.031865	1.555028	0.499931
C57	C	-0.438996	1.104884	0.087509
C58	C	0.061004	1.604884	0.587509
C59	C	-0.342202	1.106059	0.087572
C60	C	0.157798	1.606059	0.587572
C61	C	-0.342286	1.107490	-0.087199
C62	C	0.157714	1.607490	0.412801
C63	C	-0.438784	1.103830	-0.088340
C64	C	0.061216	1.603830	0.411660
C65	C	-0.562835	1.053253	-0.000055
C66	C	-0.062835	1.553253	0.499945
C67	C	-0.205872	1.059956	-0.000097
C68	C	0.294128	1.559956	0.499903
C69	C	0.268723	1.050069	-0.000061
C70	C	0.768723	1.550069	0.499939
C71	C	0.361675	1.051830	-0.000048
C72	C	0.861675	1.551830	0.499952
C73	C	0.109697	1.220135	-0.000097
C74	C	0.609697	1.720135	0.499903
C75	C	0.111448	1.319430	-0.000101
C76	C	0.611448	1.819430	0.499899
N77	N	0.115670	1.056583	-0.218787
N78	N	0.615670	1.556583	0.281213
C79	C	0.115651	1.056599	-0.407288
C80	C	0.615651	1.556599	0.092712
C81	C	0.184338	0.983105	-0.446501
C82	C	0.684338	1.483105	0.053499
C83	C	0.184151	0.982853	-0.553589
C84	C	0.684151	1.482853	-0.053589
C85	C	0.115635	1.056614	-0.592879
C86	C	0.615635	1.556614	-0.092879
C87	C	0.028143	1.036614	-0.553999
C88	C	0.528143	1.536614	-0.053999
C89	C	0.028556	1.036077	-0.446878
C90	C	0.528556	1.536077	0.053122
C91	C	0.133667	1.150320	-0.446753
C92	C	0.633667	1.650320	0.053247
C93	C	0.135642	1.149700	-0.553881
C94	C	0.635642	1.649700	-0.053881
C95	C	0.115620	1.056625	-0.697767
C96	C	0.615620	1.556625	-0.197767
C97	C	0.115661	1.056587	-0.302400
C98	C	0.615661	1.556587	0.197600
N99	N	0.115616	1.056630	0.218621
N100	N	0.615616	1.556630	0.718621
H101	H	0.258061	0.765751	-0.000033
H102	H	0.758061	1.265751	0.499967
H103	H	0.255065	0.596503	-0.000053
H104	H	0.755065	1.096503	0.499947
F105	F	-0.042639	0.531043	-0.000119
F106	F	0.457361	1.031043	0.499881
H107	H	-0.327556	1.178756	0.091298
H108	H	0.172444	1.678756	0.591298
F109	F	-0.287454	0.908809	-0.082153
F110	F	0.212546	1.408809	0.417847
H111	H	-0.024115	1.087592	-0.420936
H112	H	0.475885	1.587592	0.079064
F113	F	-0.323872	1.202861	-0.088317
F114	F	0.176128	1.702861	0.411683
H115	H	-0.024223	1.088743	-0.579446
H116	H	0.475777	1.588743	-0.079446
H117	H	-0.026766	0.347451	-0.000126
H118	H	0.473234	0.847451	0.499874
F119	F	-0.040950	0.626207	-0.000116
F120	F	0.459050	1.126207	0.499884
H121	H	0.083584	1.205009	-0.421387
H122	H	0.583584	1.705009	0.078613
H123	H	-0.439174	0.918358	0.063442
H124	H	0.060826	1.418358	0.563442
H125	H	0.011950	0.969069	-0.580846
H126	H	0.511950	1.469069	-0.080846
H127	H	-0.315452	1.071951	0.153295
H128	H	0.184548	1.571951	0.653295
F129	F	0.272246	0.486999	-0.000047
F130	F	0.772246	0.986999	0.499953
H131	H	0.249977	0.308740	-0.000078
H132	H	0.749977	0.808740	0.499922
H133	H	-0.018683	0.804465	-0.000092
H134	H	0.481317	1.304465	0.499908
F135	F	-0.465303	1.060195	0.173037
F136	F	0.034697	1.560195	0.673037
H137	H	0.172946	0.913940	-0.419596
H138	H	0.672946	1.413940	0.080404
H139	H	-0.470770	1.176896	0.090514
H140	H	0.029230	1.676896	0.590514
H141	H	-0.439753	0.918148	-0.062479
H142	H	0.060247	1.418148	0.437521
F143	F	0.074529	1.224510	-0.588837
F144	F	0.574529	1.724510	-0.088837
F145	F	-0.305376	1.066599	-0.173997
F146	F	0.194624	1.566599	0.326003
F147	F	-0.286186	0.909649	0.081899
F148	F	0.213814	1.409649	0.581899
H149	H	0.200013	1.164877	-0.579278
H150	H	0.700013	1.664877	-0.079278
F151	F	-0.463085	1.056376	-0.173030
F152	F	0.036915	1.556376	0.326970
H153	H	0.249172	0.994709	-0.579878
H154	H	0.749172	1.494709	-0.079878
H155	H	-0.471661	1.175228	-0.093899
H156	H	0.028339	1.675228	0.406101
H157	H	0.249581	0.994757	-0.420744
H158	H	0.749581	1.494757	0.079256
H159	H	0.172589	0.913303	-0.579229
H160	H	0.672589	1.413303	-0.079229
F161	F	0.215311	1.175554	-0.411441
F162	F	0.715311	1.675554	0.088559
F163	F	0.007896	0.946754	-0.414233
F164	F	0.507896	1.446754	0.085767
