data_functionalizedCrystal
_audit_creation_method	'MofGen! by Chris Wilmer'
_symmetry_space_group_name_H-M	'P1'
_symmetry_Int_Tables_number	1
_symmetry_cell_setting	triclinic
loop_
_symmetry_equiv_pos_as_xyz
  x,y,z
_cell_length_a	11.026607
_cell_length_b	11.792254
_cell_length_c	10.066323
_cell_angle_alpha	98.856302
_cell_angle_beta	79.309054
_cell_angle_gamma	96.392307
loop_
_atom_site_label
_atom_site_type_symbol
_atom_site_fract_x
_atom_site_fract_y
_atom_site_fract_z
O1	O	1.595645	0.488980	0.113499
O2	O	1.241980	0.434788	0.113499
O3	O	1.427389	0.298416	0.113489
O4	O	1.410237	0.625352	0.113509
O5	O	1.462714	0.272273	-0.113486
O6	O	1.277305	0.408645	-0.113476
O7	O	1.630970	0.462837	-0.113477
Zn8	Zn	1.459746	0.431590	-0.149514
Zn9	Zn	1.413204	0.466035	0.149536
O10	O	1.445562	0.599209	-0.113467
C11	C	1.214365	0.411719	0.000011
C12	C	1.079454	0.381917	0.000011
C13	C	1.443971	0.242839	0.000002
C14	C	1.440737	0.116185	0.000003
C15	C	1.006193	0.464208	0.000017
C16	C	0.866754	0.433407	0.000017
C17	C	1.438109	0.013327	0.000008
C18	C	1.434822	-0.115711	0.000021
C19	C	1.658584	0.485906	0.000014
C20	C	1.793495	0.515710	0.000023
C21	C	1.428979	0.654786	0.000023
C22	C	1.432211	0.781442	0.000031
N23	N	1.491519	0.408084	-0.353608
C24	C	1.424243	0.457854	-0.421412
C25	C	1.448727	0.439757	-0.578570
N26	N	1.381441	0.489535	0.353630
H27	H	1.046703	0.557462	0.000015
C28	C	1.024735	0.255930	0.000004
N29	N	0.983522	0.161034	0.000000
H30	H	0.833997	0.608971	0.000019
C31	C	1.551034	0.364087	-0.657318
N32	N	1.628089	0.307092	-0.716633
C33	C	1.321940	0.533520	-0.342658
N34	N	1.244882	0.590511	-0.283343
H35	H	1.305716	0.545551	-0.588077
H36	H	1.567248	0.352081	-0.411906
H37	H	0.826246	0.340150	0.000047
