data_functionalizedCrystal
_audit_creation_method	'MofGen! by Chris Wilmer'
_symmetry_space_group_name_H-M	'P1'
_symmetry_Int_Tables_number	1
_symmetry_cell_setting	triclinic
loop_
_symmetry_equiv_pos_as_xyz
  x,y,z
_cell_length_a	31.640171
_cell_length_b	14.560432
_cell_length_c	14.560432
_cell_angle_alpha	90.000321
_cell_angle_beta	59.994797
_cell_angle_gamma	59.981092
loop_
_atom_site_label
_atom_site_type_symbol
_atom_site_fract_x
_atom_site_fract_y
_atom_site_fract_z
Zr1	Zr	0.462791	-0.120984	0.884490
O2	O	0.550997	-0.267723	0.737792
O3	O	0.374586	-0.075938	0.929496
O4	O	0.462791	-0.267630	0.929447
O5	O	0.462792	0.075108	0.737839
O6	O	0.462791	-0.267627	1.080587
O7	O	0.462792	-0.076031	0.737841
O8	O	0.305008	0.075275	1.080675
O9	O	0.620575	-0.267794	0.737751
O10	O	0.410866	-0.056800	1.061441
O11	O	0.410867	0.055992	0.948646
O12	O	0.514717	-0.169701	0.948588
O13	O	0.514717	-0.056910	0.835792
Zr14	Zr	0.462792	0.120069	1.125536
Zr15	Zr	0.462791	-0.120980	1.125540
Zr16	Zr	0.462792	0.120065	0.884486
Zr17	Zr	0.573761	-0.121097	0.884424
Zr18	Zr	0.351823	0.120183	1.125602
O19	O	0.550998	0.075023	1.080530
O20	O	0.550997	-0.267718	1.080535
O21	O	0.550998	0.075018	0.737787
O22	O	0.374587	0.266809	1.272234
O23	O	0.374585	-0.075932	1.272239
O24	O	0.374587	0.266803	0.929491
O25	O	0.462791	-0.076022	1.272187
O26	O	0.462793	0.266715	1.080579
O27	O	0.462793	0.266713	0.929439
O28	O	0.462792	0.075117	1.272185
O29	O	0.620575	-0.267791	0.929354
O30	O	0.305008	0.266877	1.080672
O31	O	0.305008	0.266880	1.272275
O32	O	0.305008	0.075278	1.272278
O33	O	0.620576	-0.076192	0.737748
O34	O	0.620576	-0.076189	0.929351
O35	O	0.410867	0.168787	1.061438
O36	O	0.410866	0.055995	1.174234
O37	O	0.514717	-0.056906	1.061380
O38	O	0.514718	0.055885	0.948585
C39	C	0.462792	-0.000462	0.703496
C40	C	0.462792	-0.000464	0.601164
C41	C	0.323986	-0.000315	1.005095
C42	C	0.276876	-0.000267	1.005123
C43	C	0.462791	-0.301973	1.005017
C44	C	0.462790	-0.404305	1.005019
C45	C	-0.059346	0.058429	0.946135
C46	C	0.117608	0.058528	0.946195
O47	O	0.140470	0.108648	0.896167
N48	N	0.139736	-0.000337	1.005081
C49	C	0.117620	-0.059225	1.063963
O50	O	0.140498	-0.109281	1.114060
C51	C	-0.059336	-0.059316	1.063909
C52	C	-0.081457	-0.000457	1.005009
C53	C	-0.081468	0.117284	0.887241
C54	C	-0.125702	0.117254	0.887222
C55	C	-0.147813	0.058368	0.946096
C56	C	-0.125691	-0.000487	1.004990
C57	C	-0.081453	-0.118197	1.122796
C58	C	-0.125696	-0.118212	1.122780
C59	C	-0.147818	-0.059353	1.063880
C60	C	-0.192035	-0.059404	1.063845
N61	N	-0.214164	-0.000539	1.004958
C62	C	-0.192053	0.058347	0.946084
C63	C	0.210526	-0.059174	1.063985
C64	C	0.254765	-0.059153	1.063997
C65	C	0.254748	0.058602	0.946231
C66	C	0.210511	0.058573	0.946213
C67	C	0.188397	-0.000309	1.005099
C68	C	-0.284946	0.058278	0.946047
C69	C	-0.329181	0.058238	0.946029
C70	C	-0.329163	-0.059511	1.063800
C71	C	-0.284929	-0.059477	1.063813
C72	C	-0.262823	-0.000574	1.004935
O73	O	-0.214929	-0.109487	1.113857
O74	O	-0.214947	0.108416	0.896015
C75	C	-0.015113	0.058459	0.946154
C76	C	0.007010	-0.000396	1.005048
C77	C	-0.015102	-0.059282	1.063922
C78	C	0.051249	-0.000375	1.005060
C79	C	0.073360	0.058511	0.946186
C80	C	0.051232	0.117375	0.887299
C81	C	0.006999	0.117345	0.887280
C82	C	0.007027	-0.118147	1.122808
C83	C	0.051261	-0.118113	1.122822
C84	C	0.073372	-0.059227	1.063948
C85	C	0.601598	-0.000599	1.004931
C86	C	0.648708	-0.000647	1.004903
C87	C	0.462786	-0.596594	0.838480
C88	C	0.462786	-0.548515	0.755215
C89	C	0.462787	-0.452367	0.755214
C90	C	0.462787	-0.404294	0.838489
C91	C	0.462788	-0.452373	0.921755
C92	C	0.462789	-0.548526	0.921744
C93	C	0.462791	-0.452384	1.088284
C94	C	0.462794	-0.548537	1.088282
C95	C	0.462791	-0.404311	1.171560
C96	C	0.462796	-0.452395	1.254822
C97	C	0.462796	-0.548550	1.254819
C98	C	0.462795	-0.596617	1.171548
C99	C	0.462793	0.301058	1.005009
C100	C	0.462794	0.403390	1.005007
C101	C	0.354370	0.117408	0.526685
C102	C	0.300159	0.176341	0.633671
C103	C	0.300157	0.176341	0.729823
C104	C	0.354372	0.117400	0.718985
C105	C	0.408583	0.058468	0.611998
C106	C	0.408579	0.058477	0.515850
C107	C	0.517003	-0.059396	0.494177
C108	C	0.517007	-0.059392	0.398024
C109	C	0.571218	-0.118337	0.483338
C110	C	0.625431	-0.177264	0.376350
C111	C	0.625430	-0.177261	0.280195
C112	C	0.571218	-0.118324	0.291037
C113	C	0.462792	-0.000452	1.306530
C114	C	0.462792	-0.000451	1.408862
C115	C	0.323986	-0.000310	1.306612
C116	C	0.276876	-0.000260	1.408972
C117	C	0.323987	0.301201	1.005090
C118	C	0.276878	0.403580	1.005117
C119	C	0.323987	0.301205	1.306608
C120	C	0.276878	0.403587	1.408966
C121	C	0.601597	-0.302120	0.703418
C122	C	0.648706	-0.404501	0.601060
C123	C	0.601598	-0.000604	0.703414
C124	C	0.648708	-0.000654	0.601054
C125	C	0.601597	-0.302115	1.004935
C126	C	0.648706	-0.404495	1.004909
C127	C	0.254753	-0.059125	1.398165
C128	C	0.210494	-0.059101	1.494334
C129	C	0.188357	-0.000204	1.601309
C130	C	0.210485	0.058662	1.612114
C131	C	0.254745	0.058630	1.515946
C132	C	0.254755	0.510547	1.064005
C133	C	0.210497	0.606753	1.064026
C134	C	0.188360	0.595990	1.005164
C135	C	0.210487	0.489012	0.946268
C136	C	0.254747	0.392808	0.946241
C137	C	0.254755	0.392790	1.515923
C138	C	0.210497	0.488980	1.612109
C139	C	0.188360	0.595964	1.601335
C140	C	0.210487	0.606758	1.494367
C141	C	0.254747	0.510570	1.398184
C142	C	0.670835	-0.393705	0.494103
C143	C	0.715106	-0.489894	0.397917
C144	C	0.737246	-0.596879	0.408690
C145	C	0.715115	-0.607673	0.515659
C146	C	0.670847	-0.511485	0.611842
C147	C	0.670836	0.058200	0.611861
C148	C	0.715106	0.058150	0.515692
C149	C	0.737245	-0.000750	0.408717
C150	C	0.715115	-0.059612	0.397912
C151	C	0.670848	-0.059567	0.494080
C152	C	0.670829	-0.393696	1.063783
C153	C	0.715087	-0.489883	1.063780
C154	C	0.737224	-0.596869	1.004896
C155	C	0.715097	-0.607666	0.946021
C156	C	0.670836	-0.511479	0.946031
H157	H	-0.347190	0.106168	0.898061
H158	H	0.733147	-0.107566	0.310801
H159	H	0.462797	-0.674910	1.171534
H160	H	0.462781	-0.325997	0.838491
Cl161	Cl	0.132716	0.716877	1.722264
Cl162	Cl	0.462792	-0.608979	1.359508
H163	H	0.733117	0.106086	0.524511
H164	H	0.354365	0.117395	0.797282
Cl165	Cl	0.282553	0.132630	0.872218
H166	H	0.652811	-0.306601	0.485309
Cl167	Cl	0.643016	0.132249	0.746332
H168	H	0.192457	0.693878	1.485612
H169	H	0.192502	0.106502	0.898252
H170	H	0.462793	-0.413244	1.322623
Cl171	Cl	0.132717	0.716945	1.005210
H172	H	0.272753	0.106571	1.524761
Cl173	Cl	0.282574	0.524108	1.138016
Cl174	Cl	0.282575	-0.133181	1.263694
Cl175	Cl	0.182646	0.132703	1.746605
Cl176	Cl	0.282551	0.524163	1.263728
H177	H	0.652831	-0.520289	0.698928
H178	H	0.733099	-0.481070	1.111722
Cl179	Cl	0.792869	-0.717779	1.004891
H180	H	0.192487	0.693850	1.111990
Cl181	Cl	0.742938	-0.742171	0.871988
H182	H	0.192456	0.480265	0.898343
Cl183	Cl	0.282550	0.258340	0.872209
H184	H	0.272772	0.305687	1.524716
H185	H	0.192483	-0.107036	1.485514
Cl186	Cl	0.182686	0.475384	1.746569
H187	H	0.733117	-0.481083	0.310829
Cl188	Cl	0.792896	-0.717792	0.287761
H189	H	0.733147	-0.694791	0.524417
H190	H	0.152317	-0.000187	1.679606
Cl191	Cl	0.571213	-0.118311	0.170168
Cl192	Cl	0.354369	0.117427	0.405812
H193	H	0.773290	-0.000777	0.330420
Cl194	Cl	0.462781	-0.391917	0.650541
H195	H	0.652833	-0.107490	0.485265
Cl196	Cl	0.643008	-0.259211	1.137820
Cl197	Cl	0.643035	-0.525075	0.871998
Cl198	Cl	0.232007	0.250431	0.647289
H199	H	-0.266951	0.106239	0.898100
H200	H	-0.143711	0.165188	0.839264
Cl201	Cl	0.693586	-0.251361	0.145701
Cl202	Cl	0.462796	-0.717480	0.838460
Cl203	Cl	0.282579	-0.133170	1.138026
Cl204	Cl	-0.053680	0.191325	0.813219
H205	H	0.192524	-0.107126	1.111938
H206	H	-0.143701	-0.166160	1.170736
Cl207	Cl	-0.257113	-0.133483	1.137848
Cl208	Cl	-0.053654	-0.192197	1.196846
Cl209	Cl	0.232006	0.250421	0.864324
H210	H	-0.347171	-0.107459	1.111731
Cl211	Cl	0.571216	-0.118346	0.604216
H212	H	0.069245	0.165318	0.839357
Cl213	Cl	0.079068	-0.192122	1.196869
Cl214	Cl	-0.020806	0.191346	0.813233
H215	H	-0.010974	-0.166098	1.170753
H216	H	0.462789	-0.326018	1.171559
Cl217	Cl	0.462782	-0.608947	0.650533
Cl218	Cl	0.693578	-0.251351	0.362737
