data_functionalizedCrystal
_audit_creation_method	'MofGen! by Chris Wilmer'
_symmetry_space_group_name_H-M	'P1'
_symmetry_Int_Tables_number	1
_symmetry_cell_setting	triclinic
loop_
_symmetry_equiv_pos_as_xyz
  x,y,z
_cell_length_a	10.723022
_cell_length_b	10.723023
_cell_length_c	14.586319
_cell_angle_alpha	89.997215
_cell_angle_beta	89.996795
_cell_angle_gamma	84.467387
loop_
_atom_site_label
_atom_site_type_symbol
_atom_site_fract_x
_atom_site_fract_y
_atom_site_fract_z
O1	O	1.657188	0.175016	-0.076232
O2	O	1.294035	0.191772	-0.076235
O3	O	1.483988	0.001818	-0.076230
O4	O	1.467234	0.364970	-0.076238
O5	O	1.483975	0.001815	0.076251
O6	O	1.294022	0.191769	0.076246
O7	O	1.657174	0.175013	0.076249
Cu8	Cu	1.475597	0.183391	0.090170
Cu9	Cu	1.475612	0.183394	-0.090156
O10	O	1.467221	0.364967	0.076243
C11	C	1.247529	0.190551	0.000005
C12	C	1.108974	0.186904	0.000004
C13	C	1.060414	0.077365	0.000006
C14	C	0.917211	0.073593	0.000004
C15	C	1.482763	-0.044683	0.000010
C16	C	1.479115	-0.183238	0.000007
C17	C	1.477496	-0.245002	-0.078984
C18	C	1.473727	-0.388205	-0.078989
C19	C	1.703681	0.176234	0.000007
C20	C	1.842235	0.179881	0.000002
C21	C	1.468446	0.411469	0.000002
C22	C	1.472094	0.550023	-0.000001
N23	N	1.475595	0.183388	0.217002
N24	N	1.475624	0.183388	-0.216988
C25	C	1.559734	0.099305	0.452010
C26	C	1.559738	0.099302	0.547992
C27	C	1.391475	0.267475	0.547996
C28	C	1.391467	0.267471	0.452017
C29	C	1.475603	0.183387	0.404026
C30	C	1.475616	0.183388	0.595987
C31	C	1.475619	0.183386	0.700054
C32	C	1.475599	0.183388	0.299953
H33	H	0.884038	0.273673	0.000005
H34	H	1.322951	0.335941	0.412946
H35	H	1.628242	0.030837	0.412939
H36	H	0.875399	-0.020195	-0.000017
H37	H	1.322975	0.335935	0.587080
C38	C	1.021935	0.309831	-0.000004
H39	H	1.070971	0.379045	-0.000012
H40	H	0.970564	0.313152	0.053166
H41	H	0.970586	0.313145	-0.053187
H42	H	1.477703	-0.236375	0.067630
C43	C	1.652287	0.006816	0.600770
H44	H	1.702396	-0.043251	0.558439
H45	H	1.606963	-0.045544	0.638219
H46	H	1.704620	0.052192	0.638204
H47	H	1.124856	-0.013624	0.000003
H48	H	1.472340	-0.441321	-0.146616
H49	H	1.473492	-0.396870	0.067629
C50	C	1.479396	-0.173228	-0.170341
H51	H	1.481689	-0.086396	-0.158353
H52	H	1.406197	-0.185607	-0.204518
H53	H	1.551495	-0.203394	-0.204510
