data_functionalizedCrystal
_audit_creation_method	'MofGen! by Chris Wilmer'
_symmetry_space_group_name_H-M	'P1'
_symmetry_Int_Tables_number	1
_symmetry_cell_setting	triclinic
loop_
_symmetry_equiv_pos_as_xyz
  x,y,z
_cell_length_a	10.967926
_cell_length_b	15.944551
_cell_length_c	10.065875
_cell_angle_alpha	98.788968
_cell_angle_beta	93.120479
_cell_angle_gamma	84.118690
loop_
_atom_site_label
_atom_site_type_symbol
_atom_site_fract_x
_atom_site_fract_y
_atom_site_fract_z
O1	O	1.612902	0.146475	0.265847
O2	O	2.112902	0.646475	0.765847
O3	O	1.262859	0.148873	0.183516
O4	O	1.762859	0.648873	0.683516
O5	O	1.447438	0.025699	0.226942
O6	O	1.947438	0.525699	0.726942
O7	O	1.428323	0.269648	0.222422
O8	O	1.928323	0.769648	0.722422
O9	O	1.412241	0.049286	0.445650
O10	O	1.912241	0.549286	0.945650
O11	O	1.227662	0.172459	0.402224
O12	O	1.727662	0.672459	0.902224
O13	O	1.577706	0.170061	0.484555
O14	O	2.077706	0.670061	0.984555
Zn15	Zn	1.397096	0.175005	0.478114
Zn16	Zn	1.897096	0.675005	0.978114
Zn17	Zn	1.443469	0.143929	0.189957
Zn18	Zn	1.943469	0.643929	0.689957
O19	O	1.393127	0.293234	0.441130
O20	O	1.893127	0.793234	0.941130
C21	C	1.200467	0.158709	0.282335
C22	C	1.700467	0.658709	0.782335
C23	C	1.066996	0.152869	0.250943
C24	C	1.566996	0.652869	0.750943
C25	C	0.989257	0.162483	0.350244
C26	C	1.489257	0.662483	0.850244
C27	C	0.851308	0.156447	0.317801
C28	C	1.351308	0.656447	0.817801
C29	C	1.429045	0.006174	0.336109
C30	C	1.929045	0.506174	0.836109
C31	C	1.426666	-0.087147	0.335551
C32	C	1.926666	0.412853	0.835551
C33	C	1.306570	-0.305765	0.307285
C34	C	1.806570	0.194235	0.807285
C35	C	1.344986	-0.353407	0.428238
C36	C	1.844986	0.146593	0.928238
C37	C	1.422363	-0.258008	0.334528
C38	C	1.922363	0.241992	0.834528
C39	C	1.379714	-0.376644	0.212616
C40	C	1.879714	0.123356	0.712616
C41	C	1.418199	-0.423053	0.333533
C42	C	1.918199	0.076947	0.833533
C43	C	1.460796	-0.304412	0.455578
C44	C	1.960796	0.195588	0.955578
C45	C	1.495524	-0.327653	0.239855
C46	C	1.995524	0.172347	0.739855
C47	C	1.534020	-0.375272	0.360854
C48	C	2.034020	0.124728	0.860854
C49	C	1.424758	-0.162930	0.335102
C50	C	1.924758	0.337070	0.835102
C51	C	1.415811	-0.518129	0.332970
C52	C	1.915811	-0.018129	0.832970
C53	C	1.640098	0.160224	0.385734
C54	C	2.140098	0.660224	0.885734
C55	C	1.773570	0.166063	0.417117
C56	C	2.273570	0.666063	0.917117
C57	C	1.411519	0.312760	0.331959
C58	C	1.911519	0.812760	0.831959
C59	C	1.413900	0.406079	0.332509
C60	C	1.913900	0.906079	0.832509
N61	N	1.365456	0.196213	0.674776
N62	N	1.865456	0.696213	1.174776
N63	N	1.475118	0.122714	-0.006702
N64	N	1.975118	0.622714	0.493298
C65	C	1.432453	0.151302	0.758317
C66	C	1.932453	0.651302	1.258317
C67	C	1.408111	0.167632	0.909758
C68	C	1.908111	0.667632	1.409758
H69	H	0.815741	0.143744	0.208760
H70	H	1.315741	0.643744	0.708760
Cl71	Cl	1.158152	-0.258968	0.272540
Cl72	Cl	1.658152	0.241032	0.772540
Cl73	Cl	1.513676	-0.255992	0.614258
Cl74	Cl	2.013676	0.244008	1.114258
H75	H	1.031423	0.140167	0.141909
H76	H	1.531423	0.640167	0.641909
H77	H	0.809136	0.178761	0.526159
H78	H	1.309136	0.678761	1.026159
Cl79	Cl	1.246722	-0.371641	0.551210
Cl80	Cl	1.746722	0.128359	1.051210
Cl81	Cl	1.682527	-0.421812	0.395875
Cl82	Cl	2.182527	0.078188	0.895875
H83	H	1.345395	-0.408087	0.109919
H84	H	1.845395	0.091913	0.609919
Cl85	Cl	1.593730	-0.309385	0.116862
Cl86	Cl	2.093730	0.190615	0.616862
Cl87	Cl	1.548565	0.073076	0.695594
Cl88	Cl	2.048565	0.573076	1.195594
Cl89	Cl	1.291717	0.245660	0.972410
Cl90	Cl	1.791717	0.745660	1.472410
Cl91	Cl	1.591764	0.044867	0.930708
Cl92	Cl	2.091764	0.544867	1.430708
Cl93	Cl	1.249066	0.274239	0.737435
Cl94	Cl	1.749066	0.774239	1.237435
H95	H	1.024831	0.175179	0.459278
H96	H	1.524831	0.675179	0.959278
