data_functionalizedCrystal
_audit_creation_method	'MofGen! by Chris Wilmer'
_symmetry_space_group_name_H-M	'P1'
_symmetry_Int_Tables_number	1
_symmetry_cell_setting	triclinic
loop_
_symmetry_equiv_pos_as_xyz
  x,y,z
_cell_length_a	10.686220
_cell_length_b	19.121063
_cell_length_c	10.685880
_cell_angle_alpha	96.950877
_cell_angle_beta	89.641569
_cell_angle_gamma	96.652836
loop_
_atom_site_label
_atom_site_type_symbol
_atom_site_fract_x
_atom_site_fract_y
_atom_site_fract_z
Zn1	Zn	1.956641	-0.220680	-0.580432
Zn2	Zn	1.932645	-0.330611	-0.379675
Zn3	Zn	1.730668	-0.222121	-0.386872
Zn4	Zn	1.737791	-0.348580	-0.606918
O5	O	1.839436	-0.280498	-0.488474
O6	O	2.129575	-0.227140	-0.539705
O7	O	1.892829	-0.309303	-0.204523
O8	O	1.767706	-0.122999	-0.404476
O9	O	2.111945	-0.307906	-0.392210
O10	O	1.933727	-0.121941	-0.546683
O11	O	1.744438	-0.229595	-0.209810
O12	O	1.555496	-0.247019	-0.430158
O13	O	1.779845	-0.338531	-0.779511
O14	O	1.560729	-0.339928	-0.591825
O15	O	1.940633	-0.244563	-0.760052
O16	O	1.899736	-0.431925	-0.417892
O17	O	1.756577	-0.445127	-0.584846
C18	C	1.512447	-0.295580	-0.514647
C19	C	1.372560	-0.302051	-0.525875
C20	C	1.826362	-0.464177	-0.503487
C21	C	1.820886	-0.542752	-0.509942
C22	C	1.892917	-0.572770	-0.426113
C23	C	1.887775	-0.646600	-0.432191
C24	C	1.810596	-0.690411	-0.522093
C25	C	1.738563	-0.660389	-0.605932
C26	C	1.743712	-0.586560	-0.599859
C27	C	1.791323	-0.913671	-0.544781
C28	C	1.786177	-0.987505	-0.550846
C29	C	1.935391	-0.973711	-0.377105
C30	C	1.940528	-0.899881	-0.371035
C31	C	1.868500	-0.869865	-0.454878
C32	C	1.805336	-0.765877	-0.528306
C33	C	1.873768	-0.794400	-0.448670
C34	C	2.167702	-0.265357	-0.462200
C35	C	2.307590	-0.258905	-0.451004
C36	C	1.863710	-0.293391	-0.816721
C37	C	1.874054	-0.298885	-0.956601
C38	C	1.852598	-0.096101	-0.473428
C39	C	1.858207	-0.017522	-0.467016
C40	C	1.815333	-0.267601	-0.161494
C41	C	1.805247	-0.261896	-0.021580
H42	H	1.358983	-0.217017	-0.378312
N43	N	1.308092	-0.354598	-0.617087
N44	N	1.331609	-0.353901	-0.731692
H45	H	1.286078	-0.391011	-0.796111
H46	H	1.936612	-0.758727	-0.375476
H47	H	1.738414	-0.226027	-0.970201
N48	N	1.957902	-0.343880	-1.021074
N49	N	2.045237	-0.318152	-1.085996
H50	H	2.104455	-0.349928	-1.131534
N51	N	1.971750	-0.528031	-0.334260
N52	N	2.036056	-0.554846	-0.259420
H53	H	2.091736	-0.523252	-0.194547
H54	H	1.946429	-0.671036	-0.363927
H55	H	2.003373	-0.864211	-0.297829
N56	N	2.008951	-1.004384	-0.291476
N57	N	2.004346	-1.070302	-0.296903
H58	H	2.056303	-1.091966	-0.236426
N59	N	1.707319	-1.032248	-0.642683
N60	N	1.643009	-1.005441	-0.717529
H61	H	1.587313	-1.037040	-0.782383
N62	N	1.659705	-0.705140	-0.697746
N63	N	1.543527	-0.701978	-0.697919
H64	H	1.487826	-0.733583	-0.762760
N65	N	1.717743	-0.883028	-0.630430
N66	N	1.648837	-0.922156	-0.710690
H67	H	1.596866	-0.900513	-0.771184
H68	H	1.742494	-0.801557	-0.601502
H69	H	1.685059	-0.562121	-0.668123
