data_functionalizedCrystal
_audit_creation_method	'MofGen! by Chris Wilmer'
_symmetry_space_group_name_H-M	'P1'
_symmetry_Int_Tables_number	1
_symmetry_cell_setting	triclinic
loop_
_symmetry_equiv_pos_as_xyz
  x,y,z
_cell_length_a	17.077404
_cell_length_b	19.077432
_cell_length_c	17.077396
_cell_angle_alpha	92.327207
_cell_angle_beta	90.019501
_cell_angle_gamma	87.727210
loop_
_atom_site_label
_atom_site_type_symbol
_atom_site_fract_x
_atom_site_fract_y
_atom_site_fract_z
Zn1	Zn	1.212589	-0.280193	0.431292
Zn2	Zn	1.545923	0.053140	0.764626
Zn3	Zn	1.879256	0.386474	1.097959
Zn4	Zn	1.217762	-0.397895	0.294754
Zn5	Zn	1.551095	-0.064561	0.628087
Zn6	Zn	1.884429	0.268772	0.961421
Zn7	Zn	1.081322	-0.280218	0.300039
Zn8	Zn	1.414656	0.053116	0.633372
Zn9	Zn	1.747989	0.386449	0.966706
Zn10	Zn	1.086553	-0.397853	0.425980
Zn11	Zn	1.419886	-0.064520	0.759313
Zn12	Zn	1.753220	0.268814	1.092646
O13	O	1.149557	-0.339040	0.363016
O14	O	1.482890	-0.005706	0.696350
O15	O	1.816223	0.327627	1.029683
O16	O	1.323123	-0.295813	0.413192
O17	O	1.656456	0.037520	0.746525
O18	O	1.989789	0.370853	1.079858
O19	O	1.199639	-0.382312	0.185607
O20	O	1.532972	-0.048979	0.518940
O21	O	1.866305	0.284354	0.852274
O22	O	1.094381	-0.181725	0.321885
O23	O	1.427715	0.151609	0.655219
O24	O	1.761048	0.484942	0.988552
O25	O	1.326923	-0.382289	0.312878
O26	O	1.660256	-0.048955	0.646211
O27	O	1.993590	0.284378	0.979544
O28	O	1.190823	-0.181707	0.418316
O29	O	1.524156	0.151627	0.751650
O30	O	1.857489	0.484960	1.084983
O31	O	1.099397	-0.295855	0.189490
O32	O	1.432730	0.037478	0.522823
O33	O	1.766064	0.370811	0.856156
O34	O	0.972169	-0.295815	0.316734
O35	O	1.305502	0.037518	0.650067
O36	O	1.638836	0.370852	0.983400
O37	O	1.103296	-0.382217	0.536533
O38	O	1.436630	-0.048884	0.869866
O39	O	1.769963	0.284449	1.203199
O40	O	0.976012	-0.382241	0.409262
O41	O	1.309345	-0.048908	0.742595
O42	O	1.642679	0.284425	1.075928
O43	O	1.195895	-0.295773	0.540436
O44	O	1.529228	0.037560	0.873769
O45	O	1.862561	0.370894	1.207102
O46	O	1.204711	-0.496379	0.307726
O47	O	1.538044	-0.163046	0.641060
O48	O	1.871377	0.170288	0.974393
O49	O	1.108312	-0.496348	0.404137
O50	O	1.441645	-0.163015	0.737470
O51	O	1.774979	0.170319	1.070804
C52	C	0.945608	-0.339027	0.362995
C53	C	1.278942	-0.005693	0.696328
C54	C	1.612275	0.327640	1.029662
C55	C	0.858359	-0.339038	0.363004
C56	C	1.191692	-0.005705	0.696337
C57	C	1.525026	0.327628	1.029671
C58	C	0.819393	-0.384108	0.411100
C59	C	1.152727	-0.050775	0.744433
C60	C	1.486060	0.282558	1.077766
C61	C	0.737413	-0.384110	0.411112
C62	C	1.070746	-0.050777	0.744446
C63	C	1.404080	0.282557	1.077779
C64	C	0.694400	-0.339044	0.363024
C65	C	1.027733	-0.005711	0.696358
C66	C	1.361067	0.327622	1.029691
C67	C	0.733371	-0.293969	0.314927
C68	C	1.066704	0.039364	0.648260
C69	C	1.400038	0.372697	0.981593
C70	C	0.815350	-0.293965	0.314919
C71	C	1.148683	0.039369	0.648252
C72	C	1.482016	0.372702	0.981585
C73	C	0.562502	-0.293983	0.314945
C74	C	0.895835	0.039350	0.648278
C75	C	1.229168	0.372683	0.981611
C76	C	0.480517	-0.293988	0.314951
C77	C	0.813851	0.039345	0.648285
C78	C	1.147184	0.372678	0.981618
C79	C	0.484565	-0.384128	0.411138
C80	C	0.817898	-0.050795	0.744472
C81	C	1.151232	0.282538	1.077805
C82	C	0.566544	-0.384124	0.411130
C83	C	0.899877	-0.050790	0.744464
C84	C	1.233210	0.282543	1.077797
C85	C	0.605509	-0.339049	0.363031
C86	C	0.938842	-0.005716	0.696365
C87	C	1.272176	0.327617	1.029698
C88	C	1.157661	-0.521901	0.354799
C89	C	1.490995	-0.188567	0.688132
C90	C	1.824328	0.144766	1.021465
C91	C	1.161201	-0.600130	0.351310
C92	C	1.494534	-0.266796	0.684643
C93	C	1.827867	0.066537	1.017976
C94	C	1.112639	-0.636891	0.399825
C95	C	1.445972	-0.303558	0.733158
C96	C	1.779306	0.029775	1.066491
C97	C	1.115968	-0.710395	0.396543
C98	C	1.449301	-0.377062	0.729876
C99	C	1.782635	-0.043729	1.063210
C100	C	1.167862	-0.747137	0.344750
C101	C	1.501196	-0.413803	0.678083
C102	C	1.834529	-0.080470	1.011416
C103	C	1.216426	-0.710370	0.296229
C104	C	1.549759	-0.377036	0.629562
C105	C	1.883093	-0.043703	0.962896
C106	C	1.213093	-0.636867	0.299507
C107	C	1.546426	-0.303534	0.632841
C108	C	1.879759	0.029800	0.966174
C109	C	1.183214	-0.966966	0.329563
C110	C	1.516547	-0.633632	0.662897
C111	C	1.849880	-0.300299	0.996230
C112	C	1.186545	-1.040474	0.326291
C113	C	1.519878	-0.707141	0.659624
C114	C	1.853212	-0.373807	0.992957
C115	C	1.086085	-1.040494	0.426604
C116	C	1.419419	-0.707161	0.759937
C117	C	1.752752	-0.373828	1.093271
C118	C	1.082760	-0.966990	0.429881
C119	C	1.416093	-0.633657	0.763214
C120	C	1.749427	-0.300323	1.096548
C121	C	1.131321	-0.930230	0.381358
C122	C	1.464654	-0.596896	0.714691
C123	C	1.797987	-0.263563	1.048024
N124	N	1.171268	-0.822270	0.341396
N125	N	1.504601	-0.488936	0.674729
N126	N	1.837935	-0.155603	1.008062
N127	N	1.127911	-0.855098	0.384708
N128	N	1.461244	-0.521765	0.718041
N129	N	1.794577	-0.188431	1.051375
C130	C	1.354302	-0.339053	0.363038
C131	C	1.687635	-0.005720	0.696371
C132	C	2.020968	0.327614	1.029705
C133	C	1.441552	-0.339059	0.363047
C134	C	1.774885	-0.005725	0.696380
C135	C	2.108218	0.327608	1.029714
C136	C	1.149602	-0.338988	0.567763
C137	C	1.482935	-0.005654	0.901096
C138	C	1.816269	0.327679	1.234430
C139	C	1.149621	-0.338966	0.655014
C140	C	1.482954	-0.005632	0.988347
C141	C	1.816288	0.327701	1.321680
C142	C	1.141442	-0.155464	0.371283
C143	C	1.474775	0.177869	0.704616
C144	C	1.808108	0.511202	1.037950
C145	C	1.137984	-0.077236	0.374806
C146	C	1.471317	0.256098	0.708139
C147	C	1.804650	0.589431	1.041472
C148	C	1.149555	-0.339040	0.159068
C149	C	1.482888	-0.005707	0.492402
C150	C	1.816221	0.327626	0.825735
C151	C	1.149679	-0.338864	0.071827
C152	C	1.483012	-0.005531	0.405160
C153	C	1.816345	0.327802	0.738494
C154	C	1.197839	-0.293950	0.698038
C155	C	1.531172	0.039383	1.031371
C156	C	1.864505	0.372716	1.364704
C157	C	1.197847	-0.293927	0.780019
C158	C	1.531181	0.039407	1.113353
C159	C	1.864514	0.372740	1.446686
C160	C	1.149641	-0.338923	0.818975
C161	C	1.482975	-0.005589	1.152309
C162	C	1.816308	0.327744	1.485642
C163	C	1.101418	-0.383940	0.775945
C164	C	1.434752	-0.050607	1.109279
C165	C	1.768085	0.282726	1.442612
C166	C	1.101406	-0.383960	0.693966
C167	C	1.434740	-0.050626	1.027299
C168	C	1.768073	0.282707	1.360632
C169	C	1.101448	-0.383898	0.946817
C170	C	1.434781	-0.050565	1.280151
C171	C	1.768115	0.282769	1.613484
C172	C	1.101461	-0.383880	1.028803
C173	C	1.434794	-0.050546	1.362136
C174	C	1.768128	0.282787	1.695470
C175	C	1.197889	-0.293865	1.032871
C176	C	1.531222	0.039468	1.366205
C177	C	1.864556	0.372802	1.699538
C178	C	1.197877	-0.293884	0.950891
C179	C	1.531210	0.039449	1.284225
C180	C	1.864544	0.372782	1.617558
C181	C	1.149655	-0.338903	0.907867
C182	C	1.482988	-0.005570	1.241200
C183	C	1.816321	0.327764	1.574534
H184	H	0.601563	-0.420824	0.450283
H185	H	0.934896	-0.087491	0.783617
H186	H	1.268230	0.245843	1.116950
H187	H	1.258676	-0.740290	0.254054
H188	H	1.592009	-0.406957	0.587387
H189	H	1.925343	-0.073624	0.920721
H190	H	1.062165	-0.420574	0.807670
H191	H	1.395499	-0.087241	1.141003
H192	H	1.728832	0.246093	1.474337
H193	H	0.452835	-0.420827	0.450305
H194	H	0.786169	-0.087494	0.783638
H195	H	1.119502	0.245839	1.116971
H196	H	0.445497	-0.257284	0.275804
H197	H	0.778831	0.076050	0.609137
H198	H	1.112164	0.409383	0.942470
H199	H	1.237096	-0.257311	0.666326
H200	H	1.570429	0.076022	0.999659
H201	H	1.903763	0.409355	1.332993
H202	H	1.046549	-1.070433	0.466108
H203	H	1.379883	-0.737099	0.799441
H204	H	1.713216	-0.403766	1.132775
H205	H	0.594224	-0.257273	0.275785
H206	H	0.927558	0.076061	0.609118
H207	H	1.260891	0.409394	0.942451
H208	H	1.228809	-1.070387	0.284114
H209	H	1.562142	-0.737053	0.617448
H210	H	1.895475	-0.403720	0.950781
H211	H	1.237135	-0.257249	0.919176
H212	H	1.570468	0.076085	1.252509
H213	H	1.903802	0.409418	1.585842
H214	H	1.252635	-0.606936	0.260000
H215	H	1.585969	-0.273603	0.593333
H216	H	1.919302	0.059730	0.926667
H217	H	1.062134	-0.420609	0.658937
H218	H	1.395468	-0.087275	0.992270
H219	H	1.728801	0.246058	1.325603
H220	H	0.705691	-0.420811	0.450276
H221	H	1.039024	-0.087478	0.783609
H222	H	1.372358	0.245856	1.116942
H223	H	0.698343	-0.257273	0.275776
H224	H	1.031676	0.076060	0.609109
H225	H	1.365010	0.409393	0.942443
H226	H	1.237113	-0.257272	0.815046
H227	H	1.570446	0.076061	1.148379
H228	H	1.903780	0.409394	1.481713
H229	H	1.222755	-0.937041	0.290055
H230	H	1.556088	-0.603708	0.623389
H231	H	1.889422	-0.270375	0.956722
H232	H	0.854409	-0.420808	0.450256
H233	H	1.187743	-0.087475	0.783589
H234	H	1.521076	0.245858	1.116923
H235	H	1.237152	-0.257208	1.067906
H236	H	1.570485	0.076125	1.401239
H237	H	1.903819	0.409458	1.734572
H238	H	1.062168	-0.420546	0.911790
H239	H	1.395501	-0.087212	1.245123
H240	H	1.728834	0.246121	1.578457
H241	H	0.847074	-0.257260	0.275759
H242	H	1.180407	0.076073	0.609092
H243	H	1.513741	0.409406	0.942425
H244	H	1.070384	-0.606981	0.442004
H245	H	1.403718	-0.273648	0.775337
H246	H	1.737051	0.059685	1.108671
H247	H	1.076417	-0.740324	0.436042
H248	H	1.409750	-0.406990	0.769376
H249	H	1.743084	-0.073657	1.102709
H250	H	1.040503	-0.937077	0.472055
H251	H	1.373837	-0.603744	0.805389
H252	H	1.707170	-0.270410	1.138722
H253	H	1.062206	-0.420518	1.060518
H254	H	1.395539	-0.087184	1.393852
H255	H	1.728872	0.246149	1.727185
