data_functionalizedCrystal
_audit_creation_method	'MofGen! by Chris Wilmer'
_symmetry_space_group_name_H-M	'P1'
_symmetry_Int_Tables_number	1
_symmetry_cell_setting	triclinic
loop_
_symmetry_equiv_pos_as_xyz
  x,y,z
_cell_length_a	6.817900
_cell_length_b	7.190339
_cell_length_c	17.982968
_cell_angle_alpha	88.794059
_cell_angle_beta	102.451960
_cell_angle_gamma	60.611724
loop_
_atom_site_label
_atom_site_type_symbol
_atom_site_fract_x
_atom_site_fract_y
_atom_site_fract_z
V1	V	-4.102841	0.297088	-0.237006
O2	O	-3.999212	-0.012220	-0.233049
O3	O	-4.140103	0.587098	-0.234852
O4	O	-4.048265	0.293420	-0.340616
O5	O	-4.091685	0.283491	-0.126553
V6	V	-4.576170	0.259985	-0.223860
O7	O	-4.386462	0.378477	-0.265844
O8	O	-4.742746	0.178595	-0.195022
O9	O	-4.315702	-0.030026	-0.226014
O10	O	-4.797196	0.569293	-0.227817
O11	O	-4.704723	0.273582	-0.334313
O12	O	-4.407539	0.263652	-0.120250
C13	C	-3.888993	0.283150	-0.365887
C14	C	-3.926221	0.282070	-0.450585
C15	C	-4.128788	0.292251	-0.494238
C16	C	-4.163756	0.291234	-0.573821
C17	C	-3.996161	0.280053	-0.609749
C18	C	-3.793574	0.269866	-0.566090
C19	C	-3.758602	0.270867	-0.486508
C20	C	-3.934609	0.265827	-0.887034
C21	C	-3.969601	0.264833	-0.966623
C22	C	-4.339763	0.286195	-0.974347
C23	C	-4.304790	0.287196	-0.894765
C24	C	-4.102202	0.276997	-0.851112
C25	C	-4.064286	0.278094	-0.764820
C26	C	-4.034082	0.278971	-0.696041
C27	C	-4.006159	0.657771	-0.230979
C28	C	-4.119971	0.899321	-0.229891
C29	C	-4.230156	0.273929	-0.094975
C30	C	-4.172163	0.274998	-0.010276
H31	H	-4.441272	0.296311	-0.865517
Cl32	Cl	-3.503926	0.258048	-0.431629
Cl33	Cl	-4.594446	0.299005	-1.029229
Cl34	Cl	-4.418436	0.304062	-0.628697
Cl35	Cl	-4.339504	0.306322	-0.449080
Cl36	Cl	-3.758890	0.250772	-1.011789
Cl37	Cl	-3.679959	0.253064	-0.832170
H38	H	-3.657112	0.260749	-0.595349
