data_functionalizedCrystal
_audit_creation_method	'MofGen! by Chris Wilmer'
_symmetry_space_group_name_H-M	'P1'
_symmetry_Int_Tables_number	1
_symmetry_cell_setting	triclinic
loop_
_symmetry_equiv_pos_as_xyz
  x,y,z
_cell_length_a	19.188900
_cell_length_b	12.837942
_cell_length_c	17.666332
_cell_angle_alpha	90.000789
_cell_angle_beta	90.014953
_cell_angle_gamma	88.980715
loop_
_atom_site_label
_atom_site_type_symbol
_atom_site_fract_x
_atom_site_fract_y
_atom_site_fract_z
O1	O	-0.935024	-0.129224	-0.063096
O2	O	-0.435024	0.370776	0.436904
O3	O	-0.732907	-0.146673	-0.063066
O4	O	-0.232907	0.353327	0.436934
O5	O	-0.829484	0.012934	-0.063076
O6	O	-0.329484	0.512934	0.436924
O7	O	-0.838447	-0.288830	-0.063086
O8	O	-0.338447	0.211170	0.436914
O9	O	-0.829470	0.012928	0.062821
O10	O	-0.329470	0.512928	0.562821
O11	O	-0.732893	-0.146678	0.062831
O12	O	-0.232893	0.353322	0.562831
O13	O	-0.935010	-0.129229	0.062801
O14	O	-0.435010	0.370771	0.562801
Cu15	Cu	-0.833950	-0.137954	0.074311
Cu16	Cu	-0.333950	0.362046	0.574311
Cu17	Cu	-0.833967	-0.137948	-0.074576
Cu18	Cu	-0.333967	0.362052	0.425424
O19	O	-0.838433	-0.288835	0.062810
O20	O	-0.338433	0.211165	0.562810
C21	C	-0.706850	-0.146115	-0.000113
C22	C	-0.206850	0.353885	0.499887
C23	C	-0.629229	-0.144435	-0.000102
C24	C	-0.129229	0.355565	0.499898
C25	C	-0.592789	-0.143625	-0.068729
C26	C	-0.092789	0.356375	0.431271
C27	C	-0.519856	-0.142034	-0.068737
C28	C	-0.019856	0.357966	0.431263
C29	C	-0.483366	-0.141233	-0.000113
C30	C	0.016634	0.358767	0.499887
C31	C	-0.519815	-0.142049	0.068524
C32	C	-0.019815	0.357951	0.568524
C33	C	-0.592746	-0.143650	0.068529
C34	C	-0.092746	0.356350	0.568529
N35	N	-0.370123	-0.079748	0.050961
N36	N	0.129877	0.420252	0.550961
N37	N	-0.300841	-0.078225	0.050951
N38	N	0.199159	0.421775	0.550951
C39	C	-0.263629	-0.136411	-0.000126
C40	C	0.236371	0.363589	0.499874
N41	N	-0.298315	-0.196165	-0.051204
N42	N	0.201685	0.303835	0.448796
N43	N	-0.367603	-0.197683	-0.051196
N44	N	0.132397	0.302317	0.448804
C45	C	-0.404285	-0.139497	-0.000111
C46	C	0.095715	0.360503	0.499889
C47	C	-0.148107	-0.133877	-0.068766
C48	C	0.351893	0.366123	0.431234
C49	C	-0.075172	-0.132293	-0.068771
C50	C	0.424828	0.367707	0.431229
C51	C	-0.075132	-0.132298	0.068491
C52	C	0.424868	0.367702	0.568491
C53	C	-0.148065	-0.133892	0.068494
C54	C	0.351935	0.366108	0.568494
C55	C	-0.184548	-0.134677	-0.000137
C56	C	0.315452	0.365323	0.499863
C57	C	0.038933	-0.129793	-0.000148
C58	C	0.538933	0.370207	0.499852
C59	C	-0.038687	-0.131494	-0.000146
C60	C	0.461313	0.368506	0.499854
C61	C	-0.826449	0.051537	-0.000127
C62	C	-0.326449	0.551537	0.499873
C63	C	-0.817418	0.166572	-0.000127
C64	C	-0.317418	0.666572	0.499873
C65	C	-0.841468	-0.327439	-0.000140
C66	C	-0.341468	0.172561	0.499860
C67	C	-0.850499	-0.442474	-0.000145
C68	C	-0.350499	0.057526	0.499855
N69	N	-0.833944	-0.137958	0.179031
N70	N	-0.333944	0.362042	0.679031
C71	C	-0.925986	0.408040	-0.000159
C72	C	-0.425986	0.908040	0.499841
C73	C	-0.917504	0.516126	-0.000159
C74	C	-0.417504	1.016126	0.499841
C75	C	-0.791972	0.490832	-0.000132
C76	C	-0.291972	0.990832	0.499868
C77	C	-0.800454	0.382746	-0.000132
C78	C	-0.300454	0.882746	0.499868
C79	C	-0.867463	0.341354	-0.000145
C80	C	-0.367463	0.841354	0.499855
C81	C	-0.875945	0.233266	-0.000139
C82	C	-0.375945	0.733266	0.499861
C83	C	-0.750414	0.207975	-0.000118
C84	C	-0.250414	0.707975	0.499882
C85	C	-0.741932	0.316061	-0.000118
C86	C	-0.241932	0.816061	0.499882
N87	N	-0.833978	-0.137936	-0.179296
N88	N	-0.333978	0.362064	0.320704
C89	C	-0.880492	-0.200616	0.781071
C90	C	-0.380492	0.299384	1.281071
C91	C	-0.880486	-0.200627	0.701823
C92	C	-0.380486	0.299373	1.201823
C93	C	-0.833972	-0.137937	0.662212
C94	C	-0.333972	0.362063	1.162212
C95	C	-0.787449	-0.075252	0.701855
C96	C	-0.287449	0.424748	1.201855
C97	C	-0.787452	-0.075252	0.781101
C98	C	-0.287452	0.424748	1.281101
N99	N	-0.826055	-0.047161	0.537791
N100	N	-0.326055	0.452839	1.037791
N101	N	-0.826057	-0.047164	0.462511
N102	N	-0.326057	0.452836	0.962511
C103	C	-0.833960	-0.137937	0.423448
C104	C	-0.333960	0.362063	0.923448
N105	N	-0.841875	-0.228707	0.462509
N106	N	-0.341875	0.271293	0.962509
N107	N	-0.841877	-0.228702	0.537797
N108	N	-0.341877	0.271298	1.037797
C109	C	-0.833964	-0.137931	0.576283
C110	C	-0.333964	0.362069	1.076283
C111	C	-0.880470	-0.200634	0.297885
C112	C	-0.380470	0.299366	0.797885
C113	C	-0.880459	-0.200647	0.218636
C114	C	-0.380459	0.299353	0.718636
C115	C	-0.787425	-0.075263	0.218670
C116	C	-0.287425	0.424737	0.718670
C117	C	-0.787433	-0.075260	0.297917
C118	C	-0.287433	0.424740	0.797917
C119	C	-0.833959	-0.137944	0.337520
C120	C	-0.333959	0.362056	0.837520
H121	H	-0.622415	-0.144311	0.124416
H122	H	-0.122415	0.355689	0.624416
H123	H	-0.702760	0.153667	-0.000100
H124	H	-0.202760	0.653667	0.499900
H125	H	-0.918351	-0.251680	0.330132
H126	H	-0.418351	0.248320	0.830132
H127	H	-0.965159	0.570419	-0.000174
H128	H	-0.465159	1.070419	0.499826
Br129	Br	-0.470295	-0.140973	0.161657
Br130	Br	0.029705	0.359027	0.661657
Br131	Br	-0.197623	-0.134950	-0.161905
Br132	Br	0.302377	0.365050	0.338095
H133	H	-0.687374	0.349777	-0.000111
H134	H	-0.187374	0.849777	0.499889
H135	H	-0.622489	-0.144264	-0.124614
H136	H	-0.122489	0.355736	0.375386
Br137	Br	-0.943573	-0.285750	0.164846
Br138	Br	-0.443573	0.214250	0.664846
H139	H	-0.918376	-0.251661	0.813311
H140	H	-0.418376	0.248339	1.313311
H141	H	-0.045504	-0.131640	-0.124658
H142	H	0.454496	0.368360	0.375342
H143	H	-0.918363	-0.251673	0.669547
H144	H	-0.418363	0.248327	1.169547
H145	H	-0.749576	-0.024212	0.669599
H146	H	-0.249576	0.475788	1.169599
H147	H	-0.749549	-0.024226	0.186419
H148	H	-0.249549	0.475774	0.686419
H149	H	-0.749559	-0.024213	0.330187
H150	H	-0.249559	0.475787	0.830187
Br151	Br	-0.724320	0.009820	0.834893
Br152	Br	-0.224320	0.509820	1.334893
Br153	Br	-0.966884	0.177092	-0.000148
Br154	Br	-0.466884	0.677092	0.499852
H155	H	-0.045423	-0.131652	0.124366
H156	H	0.454577	0.368348	0.624366
H157	H	-0.177735	-0.134545	0.124378
H158	H	0.322265	0.365455	0.624378
Br159	Br	-0.470391	-0.140937	-0.161880
Br160	Br	0.029609	0.359063	0.338120
H161	H	-0.980547	0.374339	-0.000162
H162	H	-0.480547	0.874339	0.499838
H163	H	-0.737416	0.524553	-0.000131
H164	H	-0.237416	1.024553	0.499869
