data_functionalizedCrystal
_audit_creation_method	'MofGen! by Chris Wilmer'
_symmetry_space_group_name_H-M	'P1'
_symmetry_Int_Tables_number	1
_symmetry_cell_setting	triclinic
loop_
_symmetry_equiv_pos_as_xyz
  x,y,z
_cell_length_a	13.339070
_cell_length_b	12.811453
_cell_length_c	11.892095
_cell_angle_alpha	99.334023
_cell_angle_beta	94.950121
_cell_angle_gamma	80.233851
loop_
_atom_site_label
_atom_site_type_symbol
_atom_site_fract_x
_atom_site_fract_y
_atom_site_fract_z
O1	O	0.119853	-1.444863	-0.242117
O2	O	0.136809	-1.142001	-0.211071
O3	O	-0.018834	-1.258673	-0.223028
O4	O	0.275496	-1.328191	-0.230161
O5	O	-0.005877	-1.248939	-0.034023
O6	O	0.149767	-1.132267	-0.022067
O7	O	0.132810	-1.435129	-0.053112
Zn8	Zn	0.143346	-1.282153	-0.007581
Zn9	Zn	0.126274	-1.294977	-0.256603
O10	O	0.288454	-1.318457	-0.041156
C11	C	0.142734	-1.097579	-0.112514
C12	C	0.141071	-0.979714	-0.100432
C13	C	0.123837	-0.768847	-0.283804
C14	C	0.122274	-0.658103	-0.272457
C15	C	0.136390	-0.647481	-0.066392
C16	C	0.137952	-0.758225	-0.077739
C17	C	0.131674	-0.818904	-0.186449
C18	C	0.133230	-0.929649	-0.197795
C19	C	0.147352	-0.919026	0.008269
C20	C	0.145790	-0.808282	0.019616
C21	C	-0.050012	-1.242063	-0.127323
C22	C	-0.162215	-1.207061	-0.123740
C23	C	-0.527776	-1.479223	-0.151638
C24	C	-0.422355	-1.512113	-0.154999
C25	C	-0.357315	-1.435853	-0.147185
C26	C	-0.397706	-1.326697	-0.136008
C27	C	-0.503136	-1.293804	-0.132638
C28	C	-0.332676	-1.250433	-0.128185
C29	C	-0.373066	-1.141278	-0.117009
C30	C	-0.478487	-1.108390	-0.113640
C31	C	-0.543527	-1.184650	-0.121454
C32	C	-0.227245	-1.283326	-0.131555
C33	C	-0.202606	-1.097907	-0.112556
C34	C	-0.308026	-1.065017	-0.109195
C35	C	0.319631	-1.335067	-0.136863
C36	C	0.431834	-1.370070	-0.140454
N37	N	0.154996	-1.273408	0.162370
C38	C	0.126886	-0.479551	-0.151670
C39	C	0.128549	-0.597416	-0.163755
N40	N	0.114615	-1.303728	-0.426554
C41	C	0.033488	-1.364562	0.389676
C42	C	0.041639	-1.358460	0.508643
C43	C	0.179443	-1.255093	0.519274
C44	C	0.171292	-1.261196	0.400307
C45	C	0.098313	-1.315934	0.335512
C46	C	0.090168	-1.322043	0.216542
C47	C	0.227967	-1.218670	0.227175
C48	C	0.236118	-1.212567	0.346143
H49	H	0.141510	-0.598059	0.022114
H50	H	0.118720	-0.818253	-0.372319
Br51	Br	-0.008869	-1.396335	0.128606
H52	H	-0.511368	-1.019508	-0.104531
Br53	Br	-0.367547	-1.660247	-0.170189
H54	H	-0.025927	-1.409141	0.336918
Br55	Br	0.111645	-0.590172	-0.404587
H56	H	0.150905	-0.758863	0.108124
Br57	Br	0.157967	-0.986962	0.140403
Br58	Br	-0.114345	-0.994402	-0.101937
H59	H	-0.340928	-0.976141	-0.100094
Br60	Br	0.278467	-1.180792	0.607223
Br61	Br	-0.046346	-1.424452	0.582151
Br62	Br	-0.214242	-1.480490	-0.151749
Br63	Br	-0.616044	-1.582705	-0.162214
H64	H	-0.194370	-1.372201	-0.140654
Br65	Br	-0.686615	-1.140025	-0.117047
Br66	Br	0.335152	-1.138277	0.434086
Br67	Br	0.315957	-1.152684	0.153655
H68	H	0.128117	-0.979053	-0.286311
