data_functionalizedCrystal
_audit_creation_method	'MofGen! by Chris Wilmer'
_symmetry_space_group_name_H-M	'P1'
_symmetry_Int_Tables_number	1
_symmetry_cell_setting	triclinic
loop_
_symmetry_equiv_pos_as_xyz
  x,y,z
_cell_length_a	17.699083
_cell_length_b	17.699103
_cell_length_c	13.448316
_cell_angle_alpha	89.988434
_cell_angle_beta	89.999267
_cell_angle_gamma	83.287038
loop_
_atom_site_label
_atom_site_type_symbol
_atom_site_fract_x
_atom_site_fract_y
_atom_site_fract_z
O1	O	1.004085	0.095712	-0.082563
O2	O	0.783707	0.108164	-0.082597
O3	O	0.900115	-0.008250	-0.082560
O4	O	0.887678	0.212126	-0.082600
O5	O	0.900100	-0.008257	0.082823
O6	O	0.783693	0.108157	0.082786
O7	O	1.004070	0.095705	0.082820
Cu8	Cu	0.893880	0.101930	0.097904
Cu9	Cu	0.893897	0.101939	-0.097681
O10	O	0.887663	0.212119	0.082783
C11	C	0.755503	0.107715	0.000090
C12	C	0.671485	0.106376	0.000078
C13	C	0.622869	0.174709	0.000066
C14	C	0.543925	0.173447	0.000079
C15	C	0.513600	0.103851	0.000097
C16	C	0.562222	0.035513	0.000113
C17	C	0.641164	0.036776	0.000107
C18	C	0.243859	0.030418	0.000138
C19	C	0.164910	0.029160	0.000141
C20	C	0.146620	0.167088	0.000111
C21	C	0.225562	0.168351	0.000105
C22	C	0.274177	0.100014	0.000125
C23	C	0.359777	0.101383	0.000113
C24	C	0.428002	0.102480	0.000103
C25	C	0.899659	-0.036450	0.000134
C26	C	0.898315	-0.120468	0.000142
C27	C	0.890098	-0.636175	-0.090075
C28	C	0.891361	-0.557232	-0.090066
C29	C	0.891982	-0.517777	0.000091
C30	C	0.891349	-0.557271	0.090245
C31	C	0.890092	-0.636214	0.090235
C32	C	0.896419	-0.238905	0.090287
C33	C	0.897674	-0.159956	0.090290
C34	C	0.897687	-0.159923	-0.090013
C35	C	0.896430	-0.238865	-0.090023
C36	C	0.895802	-0.278353	0.000130
C37	C	0.894434	-0.363952	0.000119
C38	C	0.893344	-0.432178	0.000103
C39	C	1.032275	0.096155	0.000130
C40	C	1.116293	0.097493	0.000136
C41	C	0.888119	0.240320	0.000087
C42	C	0.889463	0.324337	0.000072
N43	N	0.893874	0.101924	0.235469
N44	N	0.893910	0.101939	-0.235246
C45	C	0.945435	0.050397	0.287525
C46	C	0.945439	0.050396	0.391629
C47	C	0.893886	0.101927	0.443673
C48	C	0.842320	0.153457	0.391609
C49	C	0.842312	0.153453	0.287508
C50	C	0.842341	0.153462	0.608589
C51	C	0.842349	0.153466	0.712698
C52	C	0.945468	0.050405	0.712710
C53	C	0.945460	0.050401	0.608609
C54	C	0.893895	0.101932	0.556552
H55	H	0.283432	-0.025227	0.000155
O56	O	0.892010	-0.518794	-0.177571
C57	C	0.958200	-0.481725	-0.183028
H58	H	1.003710	-0.511609	-0.132011
H59	H	0.980102	-0.483621	-0.262813
H60	H	0.944310	-0.419969	-0.158676
O61	O	0.889355	-0.674519	-0.177624
C62	C	0.823112	-0.711508	-0.183014
H63	H	0.777692	-0.681652	-0.131860
H64	H	0.801109	-0.709477	-0.262753
H65	H	0.836970	-0.773305	-0.158790
O66	O	0.135325	-0.038384	0.000121
C67	C	0.055224	-0.024840	0.000142
H68	H	0.036586	0.034257	-0.031187
H69	H	0.031061	-0.069364	-0.047858
H70	H	0.033255	-0.028463	0.079487
H71	H	0.537525	-0.021153	0.000141
O72	O	0.099501	0.233544	0.000057
C73	C	0.143197	0.295240	0.000059
H74	H	0.202150	0.275918	-0.031252
H75	H	0.113990	0.343110	-0.047967
H76	H	0.148785	0.316579	0.079396
O77	O	0.792268	0.203616	0.442050
C78	C	0.804440	0.278525	0.416601
H79	H	0.833609	0.278392	0.341014
H80	H	0.747481	0.315866	0.413031
H81	H	0.842070	0.301889	0.475178
O82	O	0.255051	0.235940	-0.000098
C83	C	0.300175	0.240790	-0.085747
H84	H	0.281575	0.201269	-0.145598
H85	H	0.292974	0.301799	-0.114518
H86	H	0.362464	0.223223	-0.066385
H87	H	0.898176	-0.127834	0.163711
H88	H	0.889575	-0.668364	0.163642
H89	H	0.895920	-0.270985	-0.163438
H90	H	0.800348	0.195421	0.566208
O91	O	0.688284	-0.029673	0.000069
C92	C	0.644592	-0.091371	0.000108
H93	H	0.585637	-0.072053	-0.031202
H94	H	0.673798	-0.139239	-0.047899
H95	H	0.639012	-0.112715	0.079456
O96	O	0.898195	-0.121472	-0.177533
C97	C	0.833385	-0.067139	-0.182934
H98	H	0.811735	-0.052426	-0.104658
H99	H	0.848997	-0.013575	-0.221100
H100	H	0.787016	-0.091480	-0.227413
H101	H	0.504345	0.229090	0.000068
O102	O	0.891922	-0.518826	0.177735
C103	C	0.893184	-0.440683	0.158416
H104	H	0.869410	-0.426710	0.080934
H105	H	0.856926	-0.405825	0.215991
H106	H	0.954236	-0.426327	0.162702
O107	O	0.895770	-0.277134	0.177947
C108	C	0.896603	-0.225381	0.257519
H109	H	0.873548	-0.165929	0.231086
H110	H	0.859503	-0.243331	0.320564
H111	H	0.957429	-0.225035	0.285251
H112	H	0.987418	0.008438	0.245157
O113	O	0.995607	0.000323	0.442042
C114	C	1.041102	-0.045165	0.373783
H115	H	1.041884	-0.014138	0.299564
H116	H	1.101568	-0.056772	0.403852
H117	H	1.016644	-0.101368	0.362739
O118	O	0.792331	0.203540	0.236827
C119	C	0.832771	0.250194	0.176605
H120	H	0.892047	0.219976	0.161011
H121	H	0.801153	0.262202	0.103402
H122	H	0.837812	0.306128	0.216704
O123	O	0.995529	0.000242	0.763160
C124	C	0.983358	-0.074669	0.737763
H125	H	0.954177	-0.074542	0.662185
H126	H	1.040318	-0.112007	0.734199
H127	H	0.945739	-0.098034	0.796367
O128	O	0.792160	0.203437	0.763217
C129	C	0.717265	0.191222	0.737782
H130	H	0.717017	0.130626	0.709173
H131	H	0.679277	0.199959	0.806252
H132	H	0.694940	0.233202	0.677356
O133	O	0.652198	0.242382	0.000091
C134	C	0.592356	0.302422	0.000060
H135	H	0.538767	0.281301	0.031379
H136	H	0.608767	0.351020	0.048065
H137	H	0.581143	0.323497	-0.079286
O138	O	0.995357	0.000161	0.558056
C139	C	0.954760	-0.046477	0.498045
H140	H	0.895558	-0.016117	0.482344
H141	H	0.986355	-0.058735	0.424881
H142	H	0.949539	-0.102289	0.538380
