data_functionalizedCrystal
_audit_creation_method	'MofGen! by Chris Wilmer'
_symmetry_space_group_name_H-M	'P1'
_symmetry_Int_Tables_number	1
_symmetry_cell_setting	triclinic
loop_
_symmetry_equiv_pos_as_xyz
  x,y,z
_cell_length_a	12.594517
_cell_length_b	12.594516
_cell_length_c	12.594509
_cell_angle_alpha	90.026548
_cell_angle_beta	90.007751
_cell_angle_gamma	90.020372
loop_
_atom_site_label
_atom_site_type_symbol
_atom_site_fract_x
_atom_site_fract_y
_atom_site_fract_z
Zn1	Zn	-1.627188	0.423891	-0.601487
Zn2	Zn	-1.627046	0.601901	-0.423514
Zn3	Zn	-1.449192	0.423917	-0.423558
Zn4	Zn	-1.449141	0.601808	-0.601486
O5	O	-1.538141	0.512879	-0.512511
O6	O	-1.776115	0.447532	-0.577860
O7	O	-1.603415	0.578341	-0.274574
O8	O	-1.472884	0.274968	-0.447180
O9	O	-1.776010	0.578316	-0.447104
O10	O	-1.603657	0.274949	-0.577903
O11	O	-1.472746	0.447577	-0.274606
O12	O	-1.300239	0.447487	-0.447178
O13	O	-1.472797	0.578157	-0.750432
O14	O	-1.300202	0.578182	-0.577901
O15	O	-1.603608	0.447442	-0.750433
O16	O	-1.603365	0.750835	-0.447103
O17	O	-1.472659	0.750766	-0.577858
C18	C	-1.261601	0.512828	-0.512545
C19	C	-1.143295	0.512832	-0.512585
C20	C	-1.074052	0.584054	-0.583552
C21	C	-1.003262	0.487005	-0.609732
C22	C	-1.003287	0.609953	-0.486395
C23	C	-1.074063	0.415732	-0.538816
C24	C	-1.074094	0.538745	-0.415434
C25	C	-1.003335	0.441629	-0.441577
C26	C	-1.538020	0.789420	-0.512499
C27	C	-1.538066	0.907726	-0.512529
C28	C	-0.815762	0.512921	-0.512494
C29	C	-0.934068	0.512914	-0.512528
C30	C	-1.466955	0.976980	-0.583597
C31	C	-1.441008	1.047843	-0.486479
C32	C	-1.564070	1.047662	-0.609662
C33	C	-1.512068	0.977030	-0.415360
C34	C	-1.635175	0.976843	-0.538609
C35	C	-1.609265	1.047674	-0.441424
C36	C	-1.538213	0.512786	-0.790132
C37	C	-1.538243	0.512746	-0.908438
C38	C	-1.538245	1.235258	-0.512545
C39	C	-1.538170	1.116953	-0.512555
C40	C	-1.467118	0.583802	-0.977690
C41	C	-1.564233	0.609819	-1.048458
C42	C	-1.441203	0.486665	-1.048468
C43	C	-1.635410	0.538814	-0.977647
C44	C	-1.512314	0.415616	-0.977651
C45	C	-1.609497	0.441596	-1.048388
C46	C	-1.538132	0.512895	-0.235970
C47	C	-1.538308	0.512635	-0.117665
H48	H	-0.972480	0.381365	-0.381538
O49	O	-1.115368	0.567777	-0.306678
H50	H	-1.087080	0.648438	-0.285142
O51	O	-1.743951	0.935739	-0.567875
H52	H	-1.738029	0.886007	-0.640411
O53	O	-1.744182	0.568101	-0.936620
H54	H	-1.798258	0.582566	-1.004685
H55	H	-1.586200	0.691913	-1.079561
O56	O	-1.387180	0.935848	-0.663083
H57	H	-1.407983	0.965362	-0.743462
H58	H	-1.359111	0.464652	-1.079577
H59	H	-1.586023	1.078688	-0.691796
H60	H	-0.972192	0.692051	-0.464271
H61	H	-1.358935	1.079053	-0.464443
H62	H	-1.669446	1.078518	-0.381267
H63	H	-1.407016	0.643984	-0.946649
H64	H	-1.669742	0.381459	-1.079234
H65	H	-1.490319	0.333545	-0.946526
H66	H	-1.490020	0.946132	-0.333204
H67	H	-1.105106	0.644171	-0.643638
O68	O	-0.961966	0.457962	-0.718483
H69	H	-0.873848	0.457518	-0.717165
H70	H	-1.105022	0.333608	-0.561036
