data_functionalizedCrystal
_audit_creation_method	'MofGen! by Chris Wilmer'
_symmetry_space_group_name_H-M	'P1'
_symmetry_Int_Tables_number	1
_symmetry_cell_setting	triclinic
loop_
_symmetry_equiv_pos_as_xyz
  x,y,z
_cell_length_a	14.519709
_cell_length_b	16.109301
_cell_length_c	14.586319
_cell_angle_alpha	90.002176
_cell_angle_beta	90.006913
_cell_angle_gamma	96.429187
loop_
_atom_site_label
_atom_site_type_symbol
_atom_site_fract_x
_atom_site_fract_y
_atom_site_fract_z
O1	O	0.118543	-1.103332	0.076184
O2	O	0.618543	-0.603332	0.576184
O3	O	0.133295	-0.861296	0.076199
O4	O	0.633295	-0.361296	0.576199
O5	O	-0.008333	-0.988731	0.076183
O6	O	0.491667	-0.488731	0.576183
O7	O	0.260171	-0.975897	0.076200
O8	O	0.760171	-0.475897	0.576200
O9	O	-0.008342	-0.988730	-0.076298
O10	O	0.491658	-0.488730	0.423702
O11	O	0.133287	-0.861295	-0.076282
O12	O	0.633287	-0.361295	0.423718
O13	O	0.118534	-1.103331	-0.076296
O14	O	0.618534	-0.603331	0.423704
Cu15	Cu	0.125910	-0.982313	-0.090212
Cu16	Cu	0.625910	-0.482313	0.409788
Cu17	Cu	0.125920	-0.982314	0.090114
Cu18	Cu	0.625920	-0.482314	0.590114
O19	O	0.260163	-0.975896	-0.076280
O20	O	0.760163	-0.475896	0.423720
C21	C	0.132693	-0.830319	-0.000039
C22	C	0.632693	-0.330319	0.499961
C23	C	0.130902	-0.738021	-0.000034
C24	C	0.630902	-0.238021	0.499966
C25	C	-0.042696	-0.988132	-0.000057
C26	C	0.457304	-0.488132	0.499943
C27	C	-0.145073	-0.986340	-0.000058
C28	C	0.354927	-0.486340	0.499942
N29	N	0.125921	-0.982315	0.216946
N30	N	0.625921	-0.482315	0.716946
C31	C	-0.519955	-0.979741	-0.000034
C32	C	-0.019955	-0.479741	0.499966
C33	C	-0.415651	-0.981574	-0.000041
C34	C	0.084349	-0.481574	0.499959
C35	C	-0.332517	-0.983041	-0.000047
C36	C	0.167483	-0.483041	0.499953
C37	C	-0.228207	-0.984873	-0.000052
C38	C	0.271793	-0.484873	0.499948
C39	C	0.294526	-0.976494	-0.000038
C40	C	0.794526	-0.476494	0.499962
C41	C	0.396903	-0.978287	-0.000031
C42	C	0.896903	-0.478287	0.499969
C43	C	0.119136	-1.134307	-0.000056
C44	C	0.619136	-0.634307	0.499944
C45	C	0.120928	-1.226606	-0.000055
C46	C	0.620928	-0.726606	0.499945
C47	C	0.210775	-0.515887	-0.000040
C48	C	0.710775	-0.015887	0.499960
C49	C	0.209085	-0.429163	-0.000046
C50	C	0.709085	0.070837	0.499954
C51	C	0.041048	-0.448747	-0.000053
C52	C	0.541048	0.051253	0.499947
C53	C	0.042739	-0.535468	-0.000053
C54	C	0.542739	-0.035468	0.499947
C55	C	0.127606	-0.569036	-0.000042
C56	C	0.627606	-0.069036	0.499958
C57	C	0.124224	-0.395591	-0.000047
C58	C	0.624224	0.104409	0.499953
C59	C	0.122390	-0.301562	-0.000054
C60	C	0.622390	0.198438	0.499946
C61	C	0.129440	-0.663071	-0.000037
C62	C	0.629440	-0.163071	0.499963
N63	N	0.125902	-0.982318	-0.217044
N64	N	0.625902	-0.482318	0.282956
C65	C	0.063329	-1.038853	0.451946
C66	C	0.563329	-0.538853	0.951946
C67	C	0.063327	-1.038856	0.547927
C68	C	0.563327	-0.538856	1.047927
C69	C	0.188500	-0.925777	0.547950
C70	C	0.688500	-0.425777	1.047950
C71	C	0.188506	-0.925780	0.451971
C72	C	0.688506	-0.425780	0.951971
C73	C	0.125915	-0.982317	0.403971
C74	C	0.625915	-0.482317	0.903971
C75	C	0.125907	-0.982317	0.595932
C76	C	0.625907	-0.482317	1.095932
C77	C	0.125905	-0.982319	0.699999
C78	C	0.625905	-0.482319	1.199999
C79	C	0.125918	-0.982316	0.299897
C80	C	0.625918	-0.482316	0.799897
H81	H	0.279879	-0.543214	-0.000037
H82	H	0.779879	-0.043214	0.499963
H83	H	0.239475	-0.879740	0.412907
H84	H	0.739475	-0.379740	0.912907
Br85	Br	0.321963	-0.357035	-0.000047
Br86	Br	0.821963	0.142965	0.499953
H87	H	0.012366	-1.084890	0.412866
H88	H	0.512366	-0.584890	0.912866
H89	H	-0.024991	-0.578745	-0.000058
H90	H	0.475009	-0.078745	0.499942
Br91	Br	-0.021610	-1.115591	0.613032
Br92	Br	0.478390	-0.615591	1.113032
Br93	Br	-0.074122	-0.403185	-0.000064
Br94	Br	0.425878	0.096815	0.499936
H95	H	0.239458	-0.879745	0.587042
H96	H	0.739458	-0.379745	1.087042
