data_functionalizedCrystal
_audit_creation_method	'MofGen! by Chris Wilmer'
_symmetry_space_group_name_H-M	'P1'
_symmetry_Int_Tables_number	1
_symmetry_cell_setting	triclinic
loop_
_symmetry_equiv_pos_as_xyz
  x,y,z
_cell_length_a	23.532407
_cell_length_b	15.944551
_cell_length_c	22.010155
_cell_angle_alpha	89.996282
_cell_angle_beta	90.003085
_cell_angle_gamma	83.173708
loop_
_atom_site_label
_atom_site_type_symbol
_atom_site_fract_x
_atom_site_fract_y
_atom_site_fract_z
O1	O	-0.755659	-0.101952	-0.050451
O2	O	-0.589852	-0.116706	-0.050469
O3	O	-0.677283	0.012984	-0.050454
O4	O	-0.668228	-0.231642	-0.050466
O5	O	-0.677267	0.012964	0.050597
O6	O	-0.589836	-0.116726	0.050582
O7	O	-0.755643	-0.101973	0.050600
Cu8	Cu	-0.672738	-0.109351	0.059817
Cu9	Cu	-0.672757	-0.109327	-0.059686
O10	O	-0.668212	-0.231662	0.050585
C11	C	-0.568627	-0.116340	0.000054
C12	C	-0.505406	-0.115211	0.000048
C13	C	-0.676899	0.044265	0.000072
C14	C	-0.675772	0.137501	0.000072
C15	C	-0.776868	-0.102338	0.000075
C16	C	-0.840090	-0.103468	0.000078
C17	C	-0.106572	-0.184874	0.000072
C18	C	-0.047168	-0.183824	0.000075
O19	O	-0.010674	-0.248403	0.000094
N20	N	-0.024243	-0.106724	0.000078
C21	C	-0.060726	-0.030668	0.000083
O22	O	-0.035772	0.035009	0.000087
C23	C	-0.120129	-0.031718	0.000084
C24	C	-0.143051	-0.108823	0.000075
C25	C	-0.129494	-0.261973	0.000063
C26	C	-0.188894	-0.263022	0.000059
C27	C	-0.225373	-0.186971	0.000062
C28	C	-0.202451	-0.109872	0.000070
C29	C	-0.156611	0.044337	0.000093
C30	C	-0.216018	0.043281	0.000094
C31	C	-0.238939	-0.033825	0.000086
C32	C	-0.298329	-0.034871	0.000069
N33	N	-0.321254	-0.111971	0.000066
C34	C	-0.284776	-0.188022	0.000062
C35	C	0.064025	-0.028468	0.000083
C36	C	0.123427	-0.027417	0.000078
C37	C	0.136981	-0.180574	0.000072
C38	C	0.077578	-0.181624	0.000072
C39	C	0.041100	-0.105569	0.000080
C40	C	-0.409521	-0.190219	0.000052
C41	C	-0.468927	-0.191261	0.000044
C42	C	-0.482476	-0.038104	0.000054
C43	C	-0.423075	-0.037062	0.000058
C44	C	-0.386599	-0.113126	0.000059
O45	O	-0.334859	0.029673	0.000052
O46	O	-0.309738	-0.253687	0.000067
C47	C	-0.668596	-0.262943	0.000058
C48	C	-0.669723	-0.356179	0.000054
N49	N	-0.672729	-0.109368	0.143870
C50	C	-0.618885	0.351879	0.000057
C51	C	-0.645294	0.413108	0.049884
C52	C	-0.673733	0.308210	0.000067
C53	C	-0.645322	0.413112	-0.049744
C54	C	-0.671760	0.473106	0.000060
C55	C	-0.700157	0.368212	0.049935
C56	C	-0.700178	0.368209	-0.049738
C57	C	-0.726627	0.429421	0.000101
C58	C	-0.674869	0.213217	0.000072
C59	C	-0.670629	0.568097	0.000059
C60	C	-0.711473	-0.051915	0.563656
C61	C	-0.711476	-0.051910	0.627263
O62	O	-0.744395	-0.003069	0.660161
N63	N	-0.672756	-0.109317	0.659077
C64	C	-0.634027	-0.166727	0.627280
O65	O	-0.601093	-0.215555	0.660180
C66	C	-0.634022	-0.166728	0.563673
C67	C	-0.672749	-0.109322	0.531863
C68	C	-0.750196	0.005486	0.531846
C69	C	-0.750194	0.005480	0.468242
C70	C	-0.711469	-0.051928	0.436449
C71	C	-0.672747	-0.109329	0.468260
C72	C	-0.595292	-0.224133	0.531877
C73	C	-0.595290	-0.224128	0.468266
C74	C	-0.634016	-0.166723	0.436456
C75	C	-0.634020	-0.166743	0.372864
N76	N	-0.672740	-0.109336	0.341050
C77	C	-0.711464	-0.051928	0.372843
C78	C	-0.634040	-0.166721	0.760857
C79	C	-0.634047	-0.166725	0.824463
C80	C	-0.711495	-0.051906	0.824442
C81	C	-0.711490	-0.051907	0.760836
C82	C	-0.672759	-0.109314	0.729044
C83	C	-0.711457	-0.051946	0.239272
C84	C	-0.711454	-0.051960	0.175663
C85	C	-0.634004	-0.166775	0.175689
C86	C	-0.634010	-0.166765	0.239292
C87	C	-0.672738	-0.109343	0.271082
O88	O	-0.601116	-0.215556	0.339926
O89	O	-0.744388	-0.003101	0.339935
N90	N	-0.672770	-0.109314	0.856261
H91	H	-0.379828	-0.252157	0.000054
O92	O	-0.596399	-0.222580	0.730071
C93	C	-0.519563	-0.336434	0.736818
C94	C	-0.562169	-0.273235	0.771754
H95	H	-0.491869	-0.377394	0.770503
H96	H	-0.544118	-0.378275	0.707056
H97	H	-0.491134	-0.300374	0.707024
H98	H	-0.590609	-0.309226	0.801581
H99	H	-0.537579	-0.231396	0.801477
O100	O	-0.557745	-0.279932	0.437318
C101	C	-0.545614	-0.394786	0.365549
C102	C	-0.588193	-0.331622	0.400547
H103	H	-0.570215	-0.436605	0.335821
H104	H	-0.517172	-0.358781	0.335728
H105	H	-0.517929	-0.435771	0.399226
H106	H	-0.615916	-0.290620	0.366914
H107	H	-0.616596	-0.367678	0.430377
O108	O	-0.557616	-0.279928	0.562673
C109	C	-0.480815	-0.393833	0.555952
C110	C	-0.523445	-0.330675	0.521002
H111	H	-0.453185	-0.434890	0.522277
H112	H	-0.452326	-0.357824	0.585714
H113	H	-0.505406	-0.435582	0.585748
H114	H	-0.498901	-0.288909	0.491173
H115	H	-0.551934	-0.366736	0.491279
O116	O	0.028534	0.045363	0.000000
C117	C	-0.046371	0.133107	-0.052373
C118	C	-0.006225	0.049456	-0.052348
H119	H	-0.074475	0.136451	-0.094698
H120	H	-0.074559	0.136459	-0.010114
H121	H	-0.019764	0.188372	-0.052343
H122	H	-0.032786	-0.005857	-0.052399
H123	H	0.021966	0.046177	-0.094604
H124	H	-0.573358	0.318187	0.000102
H125	H	-0.781726	0.052226	0.442346
O126	O	-0.211061	-0.337996	0.000084
C127	C	-0.191326	-0.489794	0.000050
C128	C	-0.166152	-0.404940	0.000031
H129	H	-0.155029	-0.543940	-0.000006
H130	H	-0.218773	-0.494183	0.042350
H131	H	-0.218820	-0.494073	-0.042229
H132	H	-0.138632	-0.400605	0.042281
H133	H	-0.138738	-0.400588	-0.042297
H134	H	-0.772194	0.462964	0.000134
O135	O	-0.596472	-0.222615	0.270221
C136	C	-0.584338	-0.337383	0.342072
C137	C	-0.626918	-0.274199	0.307081
H138	H	-0.608936	-0.379093	0.371892
H139	H	-0.556671	-0.378474	0.308445
H140	H	-0.555877	-0.301308	0.371819
H141	H	-0.655416	-0.310205	0.277334
H142	H	-0.654544	-0.233108	0.340741
H143	H	-0.723330	0.348408	0.092106
H144	H	-0.099799	-0.323906	0.000063
O145	O	-0.727756	0.344451	-0.100049
C146	C	-0.730049	0.340152	-0.209449
C147	C	-0.698761	0.367088	-0.152517
H148	H	-0.706626	0.358460	-0.251883
H149	H	-0.730985	0.268835	-0.208764
H150	H	-0.775730	0.373275	-0.209843
H151	H	-0.653066	0.334025	-0.152085
H152	H	-0.697872	0.438413	-0.153224
O153	O	-0.134450	0.119313	0.000135
C154	C	-0.154189	0.271110	0.000126
C155	C	-0.179360	0.186255	0.000090
H156	H	-0.190487	0.325254	0.000077
H157	H	-0.126739	0.275477	0.042429
H158	H	-0.126698	0.275412	-0.042150
H159	H	-0.206877	0.181895	0.042337
H160	H	-0.206778	0.181923	-0.042241
H161	H	-0.622123	0.433002	-0.091871
O162	O	-0.251474	0.117142	0.000207
C163	C	-0.326430	0.204817	0.052541
C164	C	-0.286301	0.121149	0.052498
H165	H	-0.354606	0.208076	0.094807
H166	H	-0.299866	0.260132	0.052586
H167	H	-0.354553	0.208157	0.010230
H168	H	-0.258169	0.117726	0.094802
H169	H	-0.312899	0.065873	0.052421
O170	O	-0.749094	0.003889	0.144857
C171	C	-0.825934	0.117739	0.151562
C172	C	-0.783332	0.054551	0.186521
H173	H	-0.853634	0.158704	0.185232
H174	H	-0.801378	0.159575	0.121798
H175	H	-0.854358	0.081670	0.121767
H176	H	-0.754897	0.090552	0.216349
H177	H	-0.807924	0.012716	0.216247
H178	H	-0.742993	-0.005188	0.265148
H179	H	-0.781730	0.052238	0.557726
O180	O	-0.749126	0.003941	0.730032
C181	C	-0.825968	0.117789	0.736743
C182	C	-0.783366	0.054595	0.771699
H183	H	-0.853670	0.158747	0.770415
H184	H	-0.801411	0.159631	0.706984
H185	H	-0.854390	0.081724	0.706943
H186	H	-0.754933	0.090591	0.801531
H187	H	-0.807959	0.012754	0.801419
O188	O	-0.596445	-0.222652	0.144825
C189	C	-0.563042	-0.368951	0.125388
C190	C	-0.605622	-0.305770	0.160371
H191	H	-0.570438	-0.436165	0.137953
H192	H	-0.569694	-0.359158	0.074457
H193	H	-0.517436	-0.358296	0.137888
H194	H	-0.651244	-0.316387	0.147921
H195	H	-0.598919	-0.315579	0.211293
O196	O	-0.617521	0.436803	0.100087
C197	C	-0.529358	0.423780	0.156866
C198	C	-0.560741	0.396898	0.099982
H199	H	-0.483450	0.391516	0.156807
H200	H	-0.529089	0.495232	0.156613
H201	H	-0.552319	0.404450	0.199318
H202	H	-0.537804	0.416172	0.057500
H203	H	-0.561015	0.325449	0.100289
O204	O	-0.400900	0.037910	0.000086
C205	C	-0.420621	0.189709	0.000051
C206	C	-0.445804	0.104863	0.000029
H207	H	-0.456913	0.243863	-0.000007
H208	H	-0.393172	0.194083	0.042355
H209	H	-0.393127	0.193991	-0.042224
H210	H	-0.473324	0.100524	0.042276
H211	H	-0.473220	0.100526	-0.042302
H212	H	-0.487586	-0.254052	0.000037
H213	H	0.058920	-0.244410	0.000068
H214	H	-0.743026	-0.005161	0.850340
H215	H	0.166693	-0.242498	0.000072
H216	H	0.142084	0.035370	0.000076
O217	O	-0.517976	0.035711	-0.000022
C218	C	-0.592900	0.123437	-0.052380
C219	C	-0.552737	0.039802	-0.052368
H220	H	-0.621007	0.126779	-0.094703
H221	H	-0.621087	0.126763	-0.010119
H222	H	-0.566308	0.178717	-0.052343
H223	H	-0.579285	-0.015526	-0.052426
H224	H	-0.524549	0.036549	-0.094625
H225	H	-0.602519	-0.213478	0.850358
