data_functionalizedCrystal
_audit_creation_method	'MofGen! by Chris Wilmer'
_symmetry_space_group_name_H-M	'P1'
_symmetry_Int_Tables_number	1
_symmetry_cell_setting	triclinic
loop_
_symmetry_equiv_pos_as_xyz
  x,y,z
_cell_length_a	16.992694
_cell_length_b	15.995350
_cell_length_c	16.053802
_cell_angle_alpha	92.567808
_cell_angle_beta	87.249047
_cell_angle_gamma	87.080299
loop_
_atom_site_label
_atom_site_type_symbol
_atom_site_fract_x
_atom_site_fract_y
_atom_site_fract_z
O1	O	1.043694	0.174244	-0.069318
O2	O	0.815410	0.172295	-0.069342
O3	O	0.935792	0.051799	-0.069329
O4	O	0.923312	0.294739	-0.069332
O5	O	0.929166	0.058403	0.069530
O6	O	0.808784	0.178898	0.069516
O7	O	1.037068	0.180847	0.069540
Zn8	Zn	0.921874	0.180921	0.091575
Zn9	Zn	0.930604	0.172221	-0.091377
O10	O	0.916685	0.301343	0.069527
C11	C	0.782884	0.173091	0.000083
C12	C	0.695841	0.165614	0.000074
C13	C	0.931963	0.023872	0.000099
C14	C	0.930417	-0.069182	0.000094
C15	C	0.645600	0.237749	0.000074
C16	C	0.563813	0.230720	0.000085
C17	C	0.532268	0.151555	0.000091
C18	C	0.582515	0.079414	0.000094
C19	C	0.664300	0.086444	0.000088
C20	C	0.288669	0.122417	0.000114
C21	C	0.206878	0.115392	0.000117
C22	C	0.188181	0.266699	0.000110
C23	C	0.269969	0.273722	0.000099
C24	C	0.320209	0.201582	0.000106
N25	N	0.448669	0.144368	0.000100
N26	N	0.403806	0.208770	0.000103
C27	C	0.924861	-0.407302	0.000096
C28	C	0.839142	-0.365620	-0.000225
C29	C	0.840674	-0.268811	0.000089
C30	C	0.927617	-0.239557	0.000095
C31	C	0.966120	-0.274034	0.079392
C32	C	0.963963	-0.370810	0.079459
C33	C	0.973269	-0.378559	-0.078449
C34	C	0.973299	-0.281665	-0.079497
C35	C	0.929179	-0.144755	0.000096
C36	C	0.923302	-0.502103	0.000100
C37	C	1.069593	0.180051	0.000113
C38	C	1.156637	0.187528	0.000117
C39	C	0.920515	0.329270	0.000097
C40	C	0.922061	0.422324	0.000097
N41	N	0.915921	0.186859	0.216434
N42	N	0.936563	0.166277	-0.216236
C43	C	0.967163	0.135608	0.260134
C44	C	0.963006	0.139770	0.347541
C45	C	0.907611	0.195187	0.391245
C46	C	0.856364	0.246439	0.347539
C47	C	0.860518	0.242273	0.260135
C48	C	0.889469	0.213363	0.652653
C49	C	0.885321	0.217528	0.740064
C50	C	0.991962	0.110857	0.740059
C51	C	0.996114	0.106699	0.652652
C52	C	0.944864	0.157948	0.608954
N53	N	0.903363	0.199444	0.480589
N54	N	0.949109	0.153686	0.519612
H55	H	0.671277	0.302214	0.000068
C56	C	0.796507	-0.397415	-0.077043
N57	N	0.764393	-0.421371	-0.134903
H58	H	0.818790	0.284005	0.224555
C59	C	0.132912	0.346049	0.000112
N60	N	0.091282	0.405818	0.000119
H61	H	0.295647	0.338187	0.000085
H62	H	0.522910	0.289461	0.000084
H63	H	0.181198	0.050923	0.000121
C64	C	0.799425	-0.237068	-0.076702
N65	N	0.768351	-0.213163	-0.134540
C66	C	1.057049	0.045731	0.604583
N67	N	1.102946	-0.000190	0.568378
C68	C	0.824377	0.278491	0.788137
N69	N	0.778477	0.324406	0.824347
C70	C	0.343923	0.043059	0.000116
N71	N	0.385543	-0.016717	0.000117
C72	C	0.935352	-0.251366	-0.158751
N73	N	0.906763	-0.228548	-0.218443
H74	H	1.026736	-0.398675	0.083061
C75	C	1.028102	0.074644	0.212067
N76	N	1.074000	0.028722	0.175865
H77	H	0.556824	0.014956	0.000111
C78	C	0.833194	0.269855	0.604596
N79	N	0.790841	0.312449	0.568397
C80	C	1.019358	0.083369	0.395606
N81	N	1.061797	0.040876	0.431809
H82	H	0.811257	0.291558	0.383129
H83	H	0.705206	0.027704	0.000088
H84	H	0.802329	-0.384808	0.056318
C85	C	1.048327	0.054480	0.788134
N86	N	1.090780	0.012010	0.824344
C87	C	0.791798	-0.230531	0.077006
N88	N	0.754983	-0.201699	0.134945
H89	H	0.930299	-0.388357	0.138731
H90	H	0.933934	-0.244811	0.138399
C91	C	1.052216	-0.248970	0.083396
N92	N	1.117062	-0.230085	0.086413
H93	H	0.948107	-0.403833	-0.138552
C94	C	1.059265	-0.255494	-0.085957
N95	N	1.124019	-0.235785	-0.090814
H96	H	1.036506	-0.406115	-0.078977
