data_functionalizedCrystal
_audit_creation_method	'MofGen! by Chris Wilmer'
_symmetry_space_group_name_H-M	'P1'
_symmetry_Int_Tables_number	1
_symmetry_cell_setting	triclinic
loop_
_symmetry_equiv_pos_as_xyz
  x,y,z
_cell_length_a	17.077404
_cell_length_b	12.645330
_cell_length_c	17.077396
_cell_angle_alpha	89.975096
_cell_angle_beta	89.982756
_cell_angle_gamma	90.017917
loop_
_atom_site_label
_atom_site_type_symbol
_atom_site_fract_x
_atom_site_fract_y
_atom_site_fract_z
Zn1	Zn	1.200065	-0.422024	-0.443867
Zn2	Zn	1.199990	-0.599312	-0.312611
Zn3	Zn	1.068802	-0.422064	-0.312615
Zn4	Zn	1.068777	-0.599247	-0.443834
O5	O	1.134409	-0.510662	-0.378232
O6	O	1.309902	-0.445553	-0.426467
O7	O	1.182566	-0.575844	-0.202764
O8	O	1.086257	-0.273711	-0.330041
O9	O	1.309847	-0.575805	-0.330034
O10	O	1.182695	-0.273682	-0.426471
O11	O	1.086184	-0.445620	-0.202767
O12	O	0.958952	-0.445557	-0.330009
O13	O	1.086214	-0.575694	-0.553686
O14	O	0.958934	-0.575732	-0.426416
O15	O	1.182671	-0.445489	-0.553709
O16	O	1.182542	-0.747651	-0.330003
O17	O	1.086140	-0.747603	-0.426412
C18	C	0.930461	-0.510643	-0.378210
C19	C	0.843211	-0.510660	-0.378219
C20	C	0.802232	-0.578545	-0.428338
C21	C	0.720251	-0.578547	-0.428350
C22	C	0.679252	-0.510669	-0.378240
C23	C	0.720237	-0.442777	-0.328119
C24	C	0.802216	-0.442770	-0.328111
C25	C	0.549367	-0.442798	-0.328138
C26	C	0.467382	-0.442806	-0.328145
C27	C	0.467402	-0.578575	-0.428377
C28	C	0.549381	-0.578568	-0.428369
C29	C	0.590361	-0.510677	-0.378247
C30	C	1.134351	-0.786092	-0.378221
C31	C	1.134399	-0.903922	-0.378242
C32	C	1.074003	-1.071499	-0.439080
C33	C	1.073694	-0.948940	-0.438885
C34	C	1.112010	-0.948516	-0.295515
C35	C	1.111642	-1.071114	-0.295885
C36	C	1.217553	-1.071010	-0.399460
C37	C	1.217043	-0.948404	-0.401269
C38	C	1.339153	-0.510682	-0.378254
C39	C	1.426403	-0.510690	-0.378263
C40	C	1.134448	-0.510580	-0.582976
C41	C	1.134465	-0.510545	-0.670226
C42	C	1.134488	-0.234157	-0.378260
C43	C	1.134521	-0.116327	-0.378272
C44	C	1.084294	-0.442729	-0.711217
C45	C	1.084307	-0.442705	-0.793197
C46	C	1.134495	-0.510492	-0.834185
C47	C	1.184668	-0.578315	-0.793189
C48	C	1.184651	-0.578344	-0.711210
C49	C	1.184702	-0.578249	-0.964059
C50	C	1.184721	-0.578219	-1.046043
C51	C	1.084358	-0.442610	-1.046047
C52	C	1.084341	-0.442639	-0.964068
C53	C	1.134515	-0.510461	-0.923076
C54	C	1.134415	-0.510667	-0.174284
C55	C	1.134550	-0.510404	-0.087034
H56	H	0.686890	-0.633826	-0.469161
O57	O	0.992971	-1.112413	-0.420719
H58	H	0.992946	-1.200091	-0.423749
H59	H	1.153808	-1.100771	-0.249033
H60	H	0.582729	-0.387504	-0.287331
O61	O	1.030191	-0.369567	-0.837413
H62	H	1.065346	-0.315634	-0.874783
H63	H	1.043476	-0.387436	-0.930697
O64	O	0.992161	-0.910197	-0.420288
H65	H	0.993716	-0.861689	-0.366158
O66	O	1.238846	-0.651342	-1.090252
H67	H	1.278812	-0.603889	-1.127606
O68	O	0.593604	-0.651779	-0.482416
H69	H	0.630982	-0.604391	-0.522401
H70	H	1.225529	-0.633514	-0.826568
O71	O	1.030234	-0.369462	-1.090251
H72	H	1.038668	-0.380837	-1.154142
H73	H	1.225567	-0.633467	-0.930686
H74	H	0.434033	-0.633851	-0.469191
H75	H	0.686848	-0.387505	-0.287322
H76	H	1.154692	-0.919357	-0.248970
O77	O	0.846446	-0.651741	-0.482402
H78	H	0.910336	-0.640335	-0.473979
H79	H	1.050945	-1.099806	-0.277936
O80	O	1.238771	-0.651476	-0.666991
H81	H	1.273681	-0.698599	-0.709264
H82	H	1.233927	-0.919253	-0.462152
O83	O	0.423178	-0.369604	-0.274076
H84	H	0.385824	-0.417004	-0.234075
O85	O	1.032449	-0.907979	-0.271302
H86	H	0.988002	-0.933869	-0.314660
O87	O	0.846421	-0.369565	-0.274047
H88	H	0.804141	-0.322376	-0.239195
H89	H	1.087701	-0.918786	-0.500226
H90	H	1.087881	-1.100911	-0.500623
H91	H	1.264506	-0.917753	-0.360204
O92	O	1.244610	-1.111848	-0.478012
H93	H	1.199174	-1.164906	-0.502830
H94	H	1.043429	-0.387523	-0.677850
O95	O	1.277322	-1.109643	-0.340927
H96	H	1.248079	-1.160840	-0.296939
