data_functionalizedCrystal
_audit_creation_method	'MofGen! by Chris Wilmer'
_symmetry_space_group_name_H-M	'P1'
_symmetry_Int_Tables_number	1
_symmetry_cell_setting	triclinic
loop_
_symmetry_equiv_pos_as_xyz
  x,y,z
_cell_length_a	29.839134
_cell_length_b	17.077402
_cell_length_c	29.839125
_cell_angle_alpha	90.009476
_cell_angle_beta	90.023632
_cell_angle_gamma	90.017744
loop_
_atom_site_label
_atom_site_type_symbol
_atom_site_fract_x
_atom_site_fract_y
_atom_site_fract_z
Zn1	Zn	0.686785	-0.312773	0.254132
Zn2	Zn	0.686739	-0.444001	0.179004
Zn3	Zn	0.611665	-0.312742	0.179001
Zn4	Zn	0.611640	-0.443989	0.254093
O5	O	0.649207	-0.378376	0.216558
O6	O	0.749646	-0.330199	0.244184
O7	O	0.676772	-0.426582	0.116137
O8	O	0.621660	-0.202899	0.188982
O9	O	0.749612	-0.426612	0.188988
O10	O	0.676850	-0.202922	0.244180
O11	O	0.621616	-0.330146	0.116135
O12	O	0.548795	-0.330134	0.188945
O13	O	0.621616	-0.426591	0.316965
O14	O	0.548776	-0.426561	0.244114
O15	O	0.676825	-0.330187	0.316994
O16	O	0.676747	-0.553847	0.188950
O17	O	0.621572	-0.553838	0.244117
C18	C	0.649164	-0.582324	0.216540
C19	C	0.649186	-0.669574	0.216547
C20	C	0.532485	-0.378343	0.216525
C21	C	0.482550	-0.378348	0.216522
C22	C	0.677946	-0.710543	0.187852
C23	C	0.677968	-0.792523	0.187864
C24	C	0.649228	-0.833533	0.216568
C25	C	0.620467	-0.792559	0.245266
C26	C	0.620448	-0.710580	0.245256
C27	C	0.620509	-0.963429	0.245283
C28	C	0.620528	-1.045413	0.245292
C29	C	0.678028	-1.045372	0.187890
C30	C	0.678009	-0.963393	0.187881
C31	C	0.649248	-0.922424	0.216578
C32	C	0.172906	-0.428660	0.245249
C33	C	-0.014767	-0.428682	0.245269
O34	O	-0.039032	-0.471422	0.269675
N35	N	-0.038235	-0.378405	0.216591
C36	C	-0.014782	-0.328115	0.187909
O37	O	-0.039049	-0.285347	0.163520
C38	C	0.172890	-0.328090	0.187891
C39	C	0.196356	-0.378376	0.216568
C40	C	0.196372	-0.478941	0.273923
C41	C	0.243288	-0.478938	0.273916
C42	C	0.266737	-0.428654	0.245235
C43	C	0.243272	-0.378373	0.216561
C44	C	0.196342	-0.277797	0.159211
C45	C	0.243263	-0.277794	0.159210
C46	C	0.266729	-0.328079	0.187887
C47	C	0.313637	-0.328086	0.187872
N48	N	0.337105	-0.378363	0.216550
C49	C	0.313655	-0.428647	0.245231
C50	C	-0.113313	-0.328133	0.187919
C51	C	-0.160230	-0.328141	0.187923
C52	C	-0.160212	-0.428707	0.245284
C53	C	-0.113293	-0.428703	0.245278
C54	C	-0.089844	-0.378410	0.216597
C55	C	0.412181	-0.428637	0.245214
C56	C	0.459101	-0.428632	0.245203
C57	C	0.459078	-0.328063	0.187844
C58	C	0.412162	-0.328071	0.187853
C59	C	0.388715	-0.378361	0.216542
O60	O	0.337931	-0.285361	0.163483
O61	O	0.337931	-0.471397	0.269623
C62	C	0.125991	-0.428663	0.245256
C63	C	0.102525	-0.378382	0.216582
C64	C	0.125975	-0.328098	0.187900
C65	C	0.055607	-0.378389	0.216585
C66	C	0.032158	-0.428673	0.245267
C67	C	0.055626	-0.478950	0.273945
C68	C	0.102541	-0.478947	0.273937
C69	C	0.102507	-0.277821	0.159223
C70	C	0.055591	-0.277828	0.159232
C71	C	0.032141	-0.328113	0.187913
C72	C	0.766386	-0.378410	0.216590
C73	C	0.816320	-0.378425	0.216604
C74	C	0.649223	-0.378391	0.333736
C75	C	0.649229	-0.378397	0.383670
C76	C	0.649263	-0.173632	0.216585
C77	C	0.649287	-0.086382	0.216597
C78	C	0.649218	-0.378305	0.099835
C79	C	0.649298	-0.378078	0.049901
C80	C	0.620513	-0.428415	0.740243
C81	C	0.620497	-0.428505	0.552570
O82	O	0.596038	-0.471180	0.528293
N83	N	0.649239	-0.378325	0.529116
C84	C	0.677986	-0.328114	0.552583
O85	O	0.702429	-0.285429	0.528327
C86	C	0.677999	-0.328020	0.740255
C87	C	0.649258	-0.378210	0.763707
C88	C	0.591774	-0.478600	0.763695
C89	C	0.591780	-0.478579	0.810610
C90	C	0.620525	-0.428375	0.834074
C91	C	0.649264	-0.378190	0.810622
C92	C	0.706743	-0.277807	0.763721
C93	C	0.706743	-0.277786	0.810642
C94	C	0.678002	-0.327976	0.834094
C95	C	0.678015	-0.327965	0.881001
N96	N	0.649273	-0.378145	0.904455
C97	C	0.620528	-0.428350	0.880992
C98	C	0.677977	-0.328168	0.454052
C99	C	0.677974	-0.328193	0.407134
C100	C	0.620485	-0.428583	0.407124
C101	C	0.620491	-0.428562	0.454043
C102	C	0.649235	-0.378349	0.477506
C103	C	0.620543	-0.428305	0.979518
C104	C	0.620553	-0.428282	1.026437
C105	C	0.678040	-0.327890	1.026443
C106	C	0.678032	-0.327915	0.979527
C107	C	0.649280	-0.378125	0.956066
O108	O	0.702458	-0.285307	0.905307
O109	O	0.596081	-0.471017	0.905255
C110	C	0.620507	-0.428435	0.693327
C111	C	0.649246	-0.378250	0.669876
C112	C	0.677991	-0.328045	0.693339
C113	C	0.649243	-0.378274	0.622958
C114	C	0.620498	-0.428479	0.599494
C115	C	0.591756	-0.478660	0.622948
C116	C	0.591762	-0.478640	0.669864
C117	C	0.706733	-0.277865	0.669885
C118	C	0.706725	-0.277890	0.622970
C119	C	0.677980	-0.328094	0.599506
H120	H	0.701386	-0.825876	0.164497
O121	O	0.592680	-0.477120	0.956680
C122	C	0.618245	-0.527850	0.929562
H123	H	0.652295	-0.500169	0.922539
H124	H	0.623173	-0.586010	0.947651
C125	C	0.551698	-0.576088	0.893614
C126	C	0.593517	-0.542087	0.884986
H127	H	0.536444	-0.584874	0.866119
H128	H	0.534474	-0.541913	0.911885
H129	H	0.555811	-0.624552	0.908690
H130	H	0.589404	-0.493621	0.869916
H131	H	0.610740	-0.576255	0.866711
H132	H	0.568358	-0.519509	0.688954
H133	H	0.701409	-0.930003	0.164506
O134	O	0.481874	-0.477396	0.273127
C135	C	0.470426	-0.460378	0.317920
H136	H	0.457542	-0.397675	0.320252
H137	H	0.443190	-0.502495	0.329623
C138	C	0.527943	-0.546612	0.345025
C139	C	0.512121	-0.469596	0.347891
H140	H	0.553661	-0.552301	0.363514
H141	H	0.535655	-0.558080	0.314848
H142	H	0.505242	-0.581701	0.354777
H143	H	0.534820	-0.434509	0.338134
H144	H	0.504414	-0.458122	0.378068
O145	O	0.592528	-0.477336	0.476753
C146	C	0.567168	-0.521666	0.445976
H147	H	0.565622	-0.489528	0.412529
H148	H	0.583605	-0.581289	0.440997
C149	C	0.521249	-0.572435	0.505346
C150	C	0.519347	-0.532959	0.464267
H151	H	0.491751	-0.579405	0.516628
H152	H	0.538335	-0.542572	0.526081
H153	H	0.534949	-0.622117	0.501190
H154	H	0.505653	-0.483276	0.468423
H155	H	0.502257	-0.562815	0.443532
H156	H	0.701386	-0.287278	0.473151
H157	H	0.730147	-0.236937	0.744635
O158	O	0.706002	-1.085286	0.160104
C159	C	0.699877	-1.166436	0.166285
H160	H	0.685081	-1.177602	0.200918
H161	H	0.676039	-1.189822	0.139579
C162	C	0.763546	-1.194694	0.119795
C163	C	0.745377	-1.208408	0.162332
H164	H	0.791612	-1.220586	0.117354
H165	H	0.767671	-1.140022	0.115629
H166	H	0.743677	-1.214182	0.097544
H167	H	0.765243	-1.188911	0.184581
H168	H	0.741256	-1.263079	0.166502
O169	O	0.032784	-0.229098	0.131316
C170	C	0.005617	-0.273708	0.102262
H171	H	0.019740	-0.335528	0.099431
H172	H	-0.029938	-0.276440	0.116144
C173	C	-0.012452	-0.159311	0.059071
C174	C	0.004896	-0.235238	0.055592
H175	H	-0.012899	-0.135579	0.030283
H176	H	0.005849	-0.129255	0.078646
H177	H	-0.042080	-0.161597	0.070642
H178	H	0.034525	-0.232949	0.044027
H179	H	-0.013400	-0.265292	0.036013
O180	O	0.266060	-0.228856	0.131411
C181	C	0.293230	-0.178238	0.157034
H182	H	0.279114	-0.173493	0.192425
H183	H	0.328786	-0.202506	0.158548
C184	C	0.311283	-0.102400	0.091702
C185	C	0.293944	-0.096567	0.135169
H186	H	0.311725	-0.052022	0.078214
H187	H	0.292980	-0.136504	0.074439
H188	H	0.340912	-0.122626	0.092970
H189	H	0.264314	-0.076350	0.133900
H190	H	0.312242	-0.062457	0.152432
H191	H	0.597134	-1.078802	0.268674
O192	O	0.734709	-0.228984	0.833364
C193	C	0.760064	-0.184681	0.802600
H194	H	0.761607	-0.216851	0.769158
H195	H	0.743624	-0.125065	0.797601
C196	C	0.805988	-0.133851	0.861995
C197	C	0.807886	-0.173366	0.820923
H198	H	0.835487	-0.126868	0.873298
H199	H	0.788905	-0.163696	0.882722
H200	H	0.792286	-0.084175	0.857824
H201	H	0.821583	-0.223045	0.825095
H202	H	0.824973	-0.143529	0.800197
O203	O	0.125382	-0.527681	0.301819
C204	C	0.152532	-0.483071	0.330889
H205	H	0.159568	-0.423541	0.315103
H206	H	0.134464	-0.474536	0.364189
C207	C	0.188452	-0.599404	0.358371
C208	C	0.197096	-0.526290	0.338981
H209	H	0.215941	-0.626063	0.363364
H210	H	0.170159	-0.629459	0.338787
H211	H	0.173394	-0.592281	0.386119
H212	H	0.212149	-0.533414	0.311231
H213	H	0.215393	-0.496236	0.358560
O214	O	0.173548	-0.527832	0.301723
C215	C	0.146401	-0.578481	0.276096
H216	H	0.139352	-0.550697	0.242082
H217	H	0.164479	-0.636629	0.271094
C218	C	0.110507	-0.626914	0.342585
C219	C	0.101846	-0.592787	0.300810
H220	H	0.083024	-0.635743	0.357830
H221	H	0.128797	-0.592793	0.359851
H222	H	0.125573	-0.675367	0.338411
H223	H	0.086785	-0.544331	0.304985
H224	H	0.083551	-0.626900	0.283545
H225	H	0.597069	-0.825956	0.268639
O226	O	0.592531	-0.923752	0.273176
C227	C	0.567177	-0.977525	0.298522
H228	H	0.565644	-1.035975	0.280125
H229	H	0.583610	-0.986205	0.332659
C230	C	0.521234	-0.873794	0.327542
C231	C	0.519349	-0.945582	0.304944
H232	H	0.491733	-0.854089	0.331505
H233	H	0.538317	-0.837565	0.310467
H234	H	0.534931	-0.881037	0.355987
H235	H	0.505658	-0.938337	0.276497
H236	H	0.502263	-0.981809	0.322014
H237	H	0.568353	-0.519541	0.603836
H238	H	0.701439	-0.287052	0.960432
O239	O	-0.090570	-0.477570	0.273179
C240	C	-0.121334	-0.521966	0.298483
H241	H	-0.154773	-0.489821	0.300070
H242	H	-0.126339	-0.581537	0.281971
C243	C	-0.061936	-0.572894	0.344337
C244	C	-0.103006	-0.533410	0.346289
H245	H	-0.050630	-0.579957	0.373826
H246	H	-0.041209	-0.542986	0.327288
H247	H	-0.066113	-0.622533	0.330575
H248	H	-0.098828	-0.483769	0.360046
H249	H	-0.123732	-0.563309	0.363341
H250	H	-0.179312	-0.469650	0.268638
O251	O	0.563836	-0.527449	0.740976
C252	C	0.538467	-0.571716	0.771745
H253	H	0.556874	-0.574405	0.805194
H254	H	0.504353	-0.542964	0.776721
C255	C	0.509365	-0.651972	0.712365
C256	C	0.531974	-0.655281	0.753447
H257	H	0.505358	-0.703518	0.701078
H258	H	0.526455	-0.622147	0.691635
H259	H	0.480939	-0.628009	0.716518
H260	H	0.560401	-0.679235	0.749293
H261	H	0.514888	-0.685112	0.774176
H262	H	0.597030	-0.677224	0.268623
H263	H	-0.179332	-0.287201	0.164567
O264	O	0.481913	-0.279329	0.159963
C265	C	0.509023	-0.323937	0.130892
H266	H	0.516045	-0.383473	0.146673
H267	H	0.490927	-0.332459	0.097590
C268	C	0.544973	-0.207605	0.103425
C269	C	0.553600	-0.280726	0.122809
H270	H	0.572469	-0.180950	0.098436
H271	H	0.526707	-0.177551	0.123009
H272	H	0.529892	-0.214717	0.075675
H273	H	0.568675	-0.273613	0.150561
H274	H	0.571869	-0.310778	0.103229
O275	O	0.389360	-0.477529	0.273019
C276	C	0.362209	-0.528176	0.247395
H277	H	0.355158	-0.500394	0.213380
H278	H	0.380284	-0.586327	0.242392
C279	C	0.326318	-0.576601	0.313888
C280	C	0.317655	-0.542475	0.272112
H281	H	0.298836	-0.585425	0.329135
H282	H	0.344612	-0.542482	0.331152
H283	H	0.341382	-0.625056	0.309713
H284	H	0.302597	-0.494017	0.276287
H285	H	0.299358	-0.576588	0.254850
H286	H	0.701347	-0.677158	0.164476
H287	H	-0.094225	-0.287179	0.164562
O288	O	0.173624	-0.228870	0.131343
C289	C	0.204392	-0.184503	0.106026
H290	H	0.237845	-0.181850	0.124430
H291	H	0.209360	-0.213144	0.071874
C292	C	0.145012	-0.104193	0.077040
C293	C	0.186098	-0.100929	0.099646
H294	H	0.133727	-0.052642	0.073102
H295	H	0.124283	-0.134085	0.094095
H296	H	0.149158	-0.128064	0.048582
H297	H	0.181951	-0.077068	0.128105
H298	H	0.206826	-0.071031	0.082596
O299	O	0.032863	-0.527906	0.301760
C300	C	0.044314	-0.606117	0.291874
H301	H	0.057193	-0.609989	0.255980
H302	H	0.071555	-0.626703	0.315939
C303	C	-0.013192	-0.653757	0.341142
C304	C	0.002623	-0.658514	0.297055
H305	H	-0.038909	-0.686079	0.344339
H306	H	-0.020906	-0.601066	0.347804
H307	H	0.009512	-0.670911	0.361191
H308	H	-0.020080	-0.641351	0.277007
H309	H	0.010331	-0.711204	0.290389
O310	O	0.705911	-0.279371	0.384425
C311	C	0.731288	-0.235070	0.415202
H312	H	0.712887	-0.232337	0.448639
H313	H	0.765401	-0.263821	0.420206
C314	C	0.760383	-0.154890	0.355824
C315	C	0.737781	-0.151528	0.396891
H316	H	0.764391	-0.103358	0.344529
H317	H	0.743288	-0.184737	0.335089
H318	H	0.788808	-0.178852	0.360000
H319	H	0.709355	-0.127575	0.392713
H320	H	0.754872	-0.121674	0.417625
O321	O	0.592590	-0.477062	1.049148
C322	C	0.567225	-0.521389	1.018374
H323	H	0.565676	-0.489248	0.984928
H324	H	0.583661	-0.581012	1.013390
C325	C	0.521313	-0.572161	1.077747
C326	C	0.519407	-0.532681	1.036670
H327	H	0.491817	-0.579131	1.089033
H328	H	0.538403	-0.542300	1.098481
H329	H	0.535012	-0.621843	1.073589
H330	H	0.505714	-0.482998	1.040829
H331	H	0.502314	-0.562535	1.015937
H332	H	0.568376	-0.519447	0.829700
O333	O	0.734661	-0.229058	0.600261
C334	C	0.760038	-0.184759	0.631038
H335	H	0.741640	-0.182034	0.664476
H336	H	0.794153	-0.213505	0.636038
C337	C	0.789124	-0.104565	0.571661
C338	C	0.766526	-0.101212	0.612730
H339	H	0.793128	-0.053030	0.560368
H340	H	0.772029	-0.134412	0.550926
H341	H	0.817551	-0.128523	0.575834
H342	H	0.738098	-0.077263	0.608556
H343	H	0.783617	-0.071359	0.633465
H344	H	0.262390	-0.519884	0.297269
H345	H	0.393056	-0.287126	0.164502
H346	H	0.121594	-0.236872	0.135866
H347	H	0.597081	-0.469462	0.388012
H348	H	0.701445	-0.287017	1.045555
H349	H	0.730141	-0.236981	0.688985
