data_functionalizedCrystal
_audit_creation_method	'MofGen! by Chris Wilmer'
_symmetry_space_group_name_H-M	'P1'
_symmetry_Int_Tables_number	1
_symmetry_cell_setting	triclinic
loop_
_symmetry_equiv_pos_as_xyz
  x,y,z
_cell_length_a	17.699083
_cell_length_b	10.489741
_cell_length_c	16.176319
_cell_angle_alpha	89.993511
_cell_angle_beta	89.998611
_cell_angle_gamma	83.911094
loop_
_atom_site_label
_atom_site_type_symbol
_atom_site_fract_x
_atom_site_fract_y
_atom_site_fract_z
O1	O	1.005134	0.161296	-0.068630
O2	O	0.784893	0.182281	-0.068657
O3	O	0.900025	-0.013903	-0.068638
O4	O	0.890002	0.357479	-0.068649
O5	O	0.900009	-0.013915	0.068855
O6	O	0.784877	0.182268	0.068836
O7	O	1.005118	0.161283	0.068863
Cu8	Cu	0.894996	0.171775	0.081404
Cu9	Cu	0.895015	0.171789	-0.081198
O10	O	0.889986	0.357467	0.068844
C11	C	0.756683	0.181523	0.000086
C12	C	0.672650	0.179267	0.000076
C13	C	0.899260	-0.061427	0.000108
C14	C	0.896995	-0.203014	0.000106
C15	C	0.624782	0.294422	0.000073
C16	C	0.545825	0.292295	0.000083
C17	C	0.514737	0.175011	0.000091
C18	C	0.562611	0.059847	0.000097
C19	C	0.641567	0.061975	0.000092
C20	C	0.244192	0.051260	0.000118
C21	C	0.165230	0.049140	0.000120
C22	C	0.148450	0.281580	0.000109
C23	C	0.227406	0.283709	0.000104
C24	C	0.275273	0.168545	0.000114
C25	C	0.360887	0.170853	0.000104
C26	C	0.429124	0.172702	0.000096
C27	C	0.823740	-0.269793	0.000091
C28	C	0.858337	-0.362565	0.067887
C29	C	0.858370	-0.362527	-0.067671
C30	C	0.931622	-0.293921	0.067958
C31	C	0.931645	-0.293874	-0.067661
C32	C	0.966296	-0.386619	0.000151
C33	C	1.033328	0.162042	0.000118
C34	C	1.117361	0.164297	0.000123
C35	C	0.890751	0.404991	0.000096
C36	C	0.893016	0.546578	0.000093
N37	N	0.894988	0.171764	0.195769
N38	N	0.895029	0.171790	-0.195563
C39	C	0.945984	0.084929	0.239042
C40	C	0.945988	0.084928	0.325589
C41	C	0.894999	0.171768	0.368862
C42	C	0.843997	0.258607	0.325583
C43	C	0.843990	0.258601	0.239037
C44	C	0.844023	0.258631	0.674611
C45	C	0.844036	0.258632	0.761163
C46	C	0.946021	0.084957	0.761162
C47	C	0.946014	0.084951	0.674617
C48	C	0.895010	0.171785	0.631346
C49	C	0.895006	0.171784	0.537502
C50	C	0.895006	0.171776	0.462704
H51	H	0.506854	0.386067	0.000080
H52	H	0.802495	0.329336	0.639387
H53	H	1.026580	-0.437163	0.000196
C54	C	0.798727	0.335744	0.458249
C55	C	0.787950	0.354067	0.373147
H56	H	0.764129	0.394688	0.487610
H57	H	0.790045	0.250648	0.472441
H58	H	0.849316	0.349492	0.472414
H59	H	0.737362	0.340310	0.358981
H60	H	0.796626	0.439184	0.358950
C61	C	0.935002	-0.286939	-0.215957
C62	C	0.973461	-0.252716	-0.145027
H63	H	0.960812	-0.261518	-0.263723
H64	H	0.933467	-0.377166	-0.216789
H65	H	0.884647	-0.245322	-0.215467
H66	H	1.023814	-0.294341	-0.145514
H67	H	0.975005	-0.162472	-0.144195
H68	H	0.827372	-0.392910	-0.124992
H69	H	0.802511	0.329350	0.796394
H70	H	0.283156	-0.042514	0.000127
C71	C	0.743186	0.430288	0.247725
C72	C	0.787937	0.354058	0.191469
H73	H	0.708583	0.489223	0.218357
H74	H	0.715679	0.377255	0.281488
H75	H	0.774948	0.476102	0.281473
H76	H	0.756175	0.308238	0.157724
H77	H	0.815446	0.407098	0.157691
H78	H	0.252713	0.379213	0.000094
H79	H	0.650088	0.389929	0.000065
C80	C	1.046791	-0.086755	0.247744
C81	C	1.002033	-0.010533	0.191480
H82	H	1.081389	-0.145697	0.218381
H83	H	1.074304	-0.033718	0.281487
H84	H	1.015032	-0.132560	0.281510
H85	H	1.033791	0.035279	0.157717
H86	H	0.974518	-0.063577	0.157722
C87	C	0.019964	0.381549	0.000122
C88	C	0.095832	0.408174	0.000109
H89	H	-0.012517	0.459702	0.000125
H90	H	0.010472	0.333458	-0.047818
H91	H	0.010482	0.333445	0.048077
H92	H	0.105315	0.456270	-0.047849
H93	H	0.105328	0.456286	0.048054
C94	C	0.991281	0.007808	0.458257
C95	C	1.002045	-0.010523	0.373155
H96	H	1.025886	-0.051130	0.487620
H97	H	0.999962	0.092907	0.472429
H98	H	0.940695	-0.005945	0.472437
H99	H	1.052629	0.003239	0.358973
H100	H	0.993370	-0.095642	0.358977
C101	C	0.189744	-0.180423	0.000151
C102	C	0.131057	-0.079788	0.000138
H103	H	0.168644	-0.260011	0.000166
H104	H	0.220189	-0.174769	-0.047795
H105	H	0.220191	-0.174748	0.048100
H106	H	0.100612	-0.085458	-0.047815
H107	H	0.100598	-0.085445	0.048088
C108	C	0.935301	-0.288579	0.216281
C109	C	0.973419	-0.253099	0.145423
H110	H	0.961106	-0.263381	0.264104
H111	H	0.884820	-0.247518	0.216079
H112	H	0.934136	-0.378906	0.216722
H113	H	0.974580	-0.162770	0.144979
H114	H	1.023913	-0.294156	0.145626
C115	C	1.046821	-0.086736	0.683312
C116	C	1.002060	-0.010510	0.627052
H117	H	1.081416	-0.145677	0.653947
H118	H	1.074336	-0.033701	0.717055
H119	H	1.015063	-0.132541	0.717080
H120	H	1.033817	0.035303	0.593288
H121	H	0.974543	-0.063552	0.593295
C122	C	0.449030	-0.046629	0.000102
C123	C	0.528441	-0.069076	0.000104
H124	H	0.427938	-0.126224	0.000100
H125	H	0.432647	0.000761	0.048045
H126	H	0.432650	0.000781	-0.047849
H127	H	0.544821	-0.116479	0.048059
H128	H	0.544831	-0.116487	-0.047843
H129	H	0.680540	-0.031796	0.000094
H130	H	0.763510	-0.219023	0.000152
H131	H	0.827334	-0.393005	0.125195
H132	H	0.987549	0.014248	0.796403
