data_functionalizedCrystal
_audit_creation_method	'MofGen! by Chris Wilmer'
_symmetry_space_group_name_H-M	'P1'
_symmetry_Int_Tables_number	1
_symmetry_cell_setting	triclinic
loop_
_symmetry_equiv_pos_as_xyz
  x,y,z
_cell_length_a	6.817900
_cell_length_b	10.943574
_cell_length_c	10.943624
_cell_angle_alpha	91.772393
_cell_angle_beta	108.838799
_cell_angle_gamma	108.837846
loop_
_atom_site_label
_atom_site_type_symbol
_atom_site_fract_x
_atom_site_fract_y
_atom_site_fract_z
V1	V	-4.115492	-0.178596	-0.402524
O2	O	-4.073204	0.008617	-0.394890
O3	O	-4.093439	-0.354160	-0.399743
O4	O	-4.093454	-0.175834	-0.578091
O5	O	-4.073188	-0.170944	-0.215308
V6	V	-4.592290	-0.156205	-0.380134
O7	O	-4.391502	-0.227713	-0.451636
O8	O	-4.766477	-0.107089	-0.331022
O9	O	-4.391136	0.019358	-0.382915
O10	O	-4.751974	-0.343419	-0.387769
O11	O	-4.751990	-0.163858	-0.567350
O12	O	-4.391120	-0.158968	-0.204568
C13	C	-3.943996	-0.396959	-0.393386
C14	C	-4.007427	-0.540485	-0.392284
C15	C	-3.890258	-0.703489	-0.384276
C16	C	-4.003635	-0.637681	-0.495234
C17	C	-3.893183	-0.604393	-0.281389
C18	C	-4.233990	-0.730421	-0.501411
C19	C	-4.123465	-0.697124	-0.287470
C20	C	-4.237013	-0.631364	-0.398458
C21	C	-3.944014	-0.169485	-0.620884
C22	C	-4.007454	-0.168388	-0.764411
C23	C	-3.852284	-0.161001	-0.841560
C24	C	-4.041640	-0.270645	-0.947533
C25	C	-3.931163	-0.056802	-0.914179
C26	C	-4.196021	-0.278135	-0.868507
C27	C	-4.085464	-0.064194	-0.835130
C28	C	-4.274957	-0.173870	-0.941074
C29	C	-4.203921	0.062151	-0.389268
C30	C	-4.119730	0.205675	-0.390379
C31	C	-4.203902	-0.165321	-0.161767
C32	C	-4.119700	-0.166411	-0.018239
H33	H	-3.748452	-0.549682	-0.188433
C34	C	-4.609463	-0.879267	-0.594622
C35	C	-4.429194	-0.804046	-0.627057
H36	H	-4.729961	-0.924725	-0.672192
H37	H	-4.652192	-0.823783	-0.548218
H38	H	-4.568495	-0.940323	-0.541476
H39	H	-4.470157	-0.742982	-0.680196
H40	H	-4.386460	-0.859535	-0.673483
H41	H	-3.673084	-0.155707	-0.798112
C42	C	-4.372355	-0.453523	-0.406486
C43	C	-4.434342	-0.588626	-0.406596
H44	H	-4.494175	-0.427139	-0.411505
H45	H	-4.328880	-0.432087	-0.479559
H46	H	-4.251991	-0.409717	-0.328307
H47	H	-4.554696	-0.632433	-0.484780
H48	H	-4.477848	-0.610074	-0.333516
H49	H	-3.819816	0.036718	-0.934956
C50	C	-3.796926	-0.381561	-0.963107
C51	C	-4.017537	-0.388464	-1.013610
H52	H	-3.782037	-0.454290	-1.003904
H53	H	-3.754857	-0.382682	-0.871632
H54	H	-3.704273	-0.303034	-0.979557
H55	H	-4.110188	-0.466987	-0.997152
H56	H	-4.059631	-0.387355	-1.105107
H57	H	-3.744387	-0.735399	-0.378404
C58	C	-4.567016	-0.411671	-0.892308
C59	C	-4.346384	-0.404556	-0.840764
H60	H	-4.659830	-0.489714	-0.875169
H61	H	-4.608548	-0.411710	-0.983934
H62	H	-4.582303	-0.338422	-0.852757
H63	H	-4.331093	-0.477800	-0.880321
H64	H	-4.304840	-0.404529	-0.749120
C65	C	-4.014600	-0.668725	-0.053770
C66	C	-4.192576	-0.733012	-0.168864
H67	H	-4.057252	-0.690889	0.019458
H68	H	-3.973180	-0.577026	-0.053141
H69	H	-3.892675	-0.694682	-0.049564
H70	H	-4.314496	-0.707048	-0.173075
H71	H	-4.234026	-0.824731	-0.169493
H72	H	-4.454271	-0.179337	-0.984317
C73	C	-3.969748	0.169387	-0.791234
C74	C	-4.109456	0.053632	-0.769005
H75	H	-3.984537	0.242134	-0.750399
H76	H	-4.009258	0.171414	-0.882503
H77	H	-3.820694	0.173124	-0.755853
H78	H	-4.258513	0.049890	-0.804394
H79	H	-4.069960	0.051604	-0.677717
H80	H	-3.952392	-0.611143	-0.583092
