data_functionalizedCrystal
_audit_creation_method	'MofGen! by Chris Wilmer'
_symmetry_space_group_name_H-M	'P1'
_symmetry_Int_Tables_number	1
_symmetry_cell_setting	triclinic
loop_
_symmetry_equiv_pos_as_xyz
  x,y,z
_cell_length_a	11.169416
_cell_length_b	12.759401
_cell_length_c	11.169409
_cell_angle_alpha	90.020807
_cell_angle_beta	89.968635
_cell_angle_gamma	89.991937
loop_
_atom_site_label
_atom_site_type_symbol
_atom_site_fract_x
_atom_site_fract_y
_atom_site_fract_z
Zn1	Zn	-0.477777	-1.606304	-0.678582
Zn2	Zn	-0.678517	-1.606208	-0.477903
Zn3	Zn	-0.477840	-1.430601	-0.477913
Zn4	Zn	-0.678409	-1.430609	-0.678544
O5	O	-0.578136	-1.518430	-0.578236
O6	O	-0.504424	-1.753312	-0.651973
O7	O	-0.651968	-1.582870	-0.309954
O8	O	-0.309881	-1.453946	-0.504553
O9	O	-0.651908	-1.753242	-0.504535
O10	O	-0.309835	-1.583034	-0.651984
O11	O	-0.504531	-1.453853	-0.309962
O12	O	-0.504427	-1.283581	-0.504516
O13	O	-0.651723	-1.453958	-0.846499
O14	O	-0.651784	-1.283587	-0.651918
O15	O	-0.504320	-1.583041	-0.846527
O16	O	-0.846453	-1.582877	-0.504498
O17	O	-0.846373	-1.453865	-0.651908
C18	C	-0.578101	-1.245463	-0.578215
C19	C	-0.578116	-1.128686	-0.578234
C20	C	-0.654965	-1.073855	-0.654859
C21	C	-0.654975	-0.964131	-0.654870
C22	C	-0.501283	-0.964080	-0.501622
C23	C	-0.501268	-1.073802	-0.501618
C24	C	-0.731813	-1.128739	-0.731476
C25	C	-0.808670	-1.073907	-0.808106
C26	C	-0.808680	-0.964183	-0.808117
C27	C	-0.731833	-0.909291	-0.731498
C28	C	-0.889960	-1.518390	-0.578224
C29	C	-1.023360	-1.518468	-0.578259
C30	C	-0.265093	-1.518500	-0.578274
C31	C	-0.131693	-1.518530	-0.578290
C32	C	-0.578002	-1.518511	-0.891278
C33	C	-0.577946	-1.518545	-1.024678
C34	C	-0.578160	-0.792464	-0.578253
C35	C	-0.578141	-0.909240	-0.578250
C36	C	-0.578182	-1.518411	-0.266411
C37	C	-0.577901	-1.518580	-0.133011
H38	H	-0.871227	-1.118608	-0.870493
H39	H	-0.731815	-1.218082	-0.731473
H40	H	-0.438681	-1.118447	-0.439232
C41	C	-0.416765	-0.903706	-0.417341
H42	H	-0.370986	-0.952078	-0.371711
H43	H	-0.462621	-0.860884	-0.364973
H44	H	-0.364527	-0.860922	-0.463351
C45	C	-0.893207	-0.903871	-0.892414
H46	H	-0.938972	-0.952276	-0.938036
H47	H	-0.847360	-0.861091	-0.944789
H48	H	-0.945457	-0.861048	-0.846414
C49	C	-0.731819	-0.788597	-0.731539
H50	H	-0.788590	-0.763800	-0.788152
H51	H	-0.654389	-0.763808	-0.752430
H52	H	-0.752490	-0.763725	-0.654059
