data_functionalizedCrystal
_audit_creation_method	'MofGen! by Chris Wilmer'
_symmetry_space_group_name_H-M	'P1'
_symmetry_Int_Tables_number	1
_symmetry_cell_setting	triclinic
loop_
_symmetry_equiv_pos_as_xyz
  x,y,z
_cell_length_a	17.019311
_cell_length_b	17.038272
_cell_length_c	16.098538
_cell_angle_alpha	92.920305
_cell_angle_beta	83.390489
_cell_angle_gamma	87.245400
loop_
_atom_site_label
_atom_site_type_symbol
_atom_site_fract_x
_atom_site_fract_y
_atom_site_fract_z
O1	O	1.060282	0.092293	-0.145296
O2	O	1.393616	0.425627	0.188037
O3	O	1.726949	0.758960	0.521371
O4	O	0.830686	0.105819	-0.128832
O5	O	1.164019	0.439152	0.204501
O6	O	1.497352	0.772486	0.537834
O7	O	0.944119	-0.014753	-0.136960
O8	O	1.277452	0.318581	0.196374
O9	O	1.610786	0.651914	0.529707
O10	O	0.946849	0.212865	-0.137169
O11	O	1.280182	0.546199	0.196165
O12	O	1.613516	0.879532	0.529498
O13	O	0.937491	-0.007737	0.002028
O14	O	1.270824	0.325596	0.335361
O15	O	1.604158	0.658930	0.668695
O16	O	0.824057	0.112835	0.010156
O17	O	1.157391	0.446168	0.343489
O18	O	1.490724	0.779502	0.676822
O19	O	1.053654	0.099309	-0.006308
O20	O	1.386988	0.432643	0.327025
O21	O	1.720321	0.765976	0.660358
Zn22	Zn	0.937804	0.107186	0.023991
Zn23	Zn	1.271137	0.440519	0.357324
Zn24	Zn	1.604470	0.773853	0.690658
Zn25	Zn	0.946536	0.097942	-0.159131
Zn26	Zn	1.279870	0.431276	0.174202
Zn27	Zn	1.613203	0.764609	0.507535
O28	O	0.940221	0.219881	0.001819
O29	O	1.273554	0.553214	0.335153
O30	O	1.606887	0.886548	0.668486
C31	C	0.797849	0.108952	-0.057221
C32	C	1.131183	0.442285	0.276112
C33	C	1.464516	0.775618	0.609445
C34	C	0.709882	0.107823	-0.050913
C35	C	1.043215	0.441157	0.282420
C36	C	1.376548	0.774490	0.615754
C37	C	0.212171	0.101659	-0.011436
C38	C	0.545505	0.434993	0.321897
C39	C	0.878838	0.768326	0.655230
C40	C	0.294826	0.102719	-0.017365
C41	C	0.628160	0.436053	0.315968
C42	C	0.961493	0.769386	0.649301
C43	C	0.339767	0.099419	-0.096093
C44	C	0.673101	0.432752	0.237240
C45	C	1.006434	0.766086	0.570573
C46	C	0.302049	0.095067	-0.168897
C47	C	0.635382	0.428400	0.164436
C48	C	0.968716	0.761733	0.497770
C49	C	0.219395	0.094012	-0.162967
C50	C	0.552728	0.427346	0.170366
C51	C	0.886062	0.760679	0.503699
C52	C	0.589509	0.102416	-0.117787
C53	C	0.922843	0.435750	0.215546
C54	C	1.256176	0.769083	0.548879
C55	C	0.672169	0.103469	-0.123711
C56	C	1.005502	0.436802	0.209622
C57	C	1.338836	0.770135	0.542955
C58	C	0.664940	0.111123	0.027821
C59	C	0.998274	0.444456	0.361154
C60	C	1.331607	0.777790	0.694488
C61	C	0.582286	0.110063	0.033744
C62	C	0.915619	0.443397	0.367077
C63	C	1.248952	0.776730	0.700411
C64	C	0.544574	0.105715	-0.039060
C65	C	0.877907	0.439048	0.294273
C66	C	1.211241	0.772382	0.627607
C67	C	0.424254	0.100500	-0.102155
C68	C	0.757588	0.433833	0.231178
C69	C	1.090921	0.767167	0.564511
C70	C	0.460088	0.104640	-0.032997
C71	C	0.793422	0.437973	0.300336
C72	C	1.126755	0.771306	0.633670
C73	C	0.938323	-0.040362	-0.067288
C74	C	1.271656	0.292971	0.266045
C75	C	1.604990	0.626305	0.599379
C76	C	0.930917	-0.127122	-0.066757
C77	C	1.264251	0.206211	0.266576
C78	C	1.597584	0.539545	0.599910
C79	C	0.998910	-0.177539	-0.071632
C80	C	1.332243	0.155795	0.261702
C81	C	1.665576	0.489128	0.595035
C82	C	0.991947	-0.259059	-0.071140
C83	C	1.325280	0.074275	0.262193
C84	C	1.658613	0.407608	0.595526
C85	C	0.916991	-0.290160	-0.065768
C86	C	1.250324	0.043173	0.267565
C87	C	1.583657	0.376507	0.600898
C88	C	0.848994	-0.239737	-0.060896
C89	C	1.182327	0.093596	0.272438
C90	C	1.515660	0.426930	0.605771
C91	C	0.855957	-0.158219	-0.061393
C92	C	1.189291	0.175114	0.271940
C93	C	1.522624	0.508448	0.605274
C94	C	0.892389	-0.535809	-0.064016
C95	C	1.225723	-0.202476	0.269318
C96	C	1.559056	0.130858	0.602651
C97	C	0.885431	-0.617333	-0.063516
C98	C	1.218764	-0.284000	0.269817
C99	C	1.552097	0.049333	0.603151
C100	C	1.028385	-0.636649	-0.073762
C101	C	1.361718	-0.303316	0.259571
C102	C	1.695051	0.030017	0.592904
C103	C	1.035342	-0.555129	-0.074254
C104	C	1.368675	-0.221795	0.259079
C105	C	1.702008	0.111538	0.592412
C106	C	0.967345	-0.504713	-0.069386
C107	C	1.300678	-0.171380	0.263947
C108	C	1.634011	0.161954	0.597281
C109	C	0.909872	-0.373486	-0.065263
C110	C	1.243205	-0.040153	0.268070
C111	C	1.576539	0.293180	0.601403
C112	C	0.974464	-0.421389	-0.069897
C113	C	1.307798	-0.088056	0.263436
C114	C	1.641131	0.245278	0.596770
C115	C	1.086491	0.096177	-0.077921
C116	C	1.419824	0.429510	0.255412
C117	C	1.753157	0.762843	0.588746
C118	C	1.174459	0.097305	-0.084235
C119	C	1.507792	0.430638	0.249099
C120	C	1.841125	0.763971	0.582432
C121	C	0.946017	0.245490	-0.067854
C122	C	1.279350	0.578824	0.265479
C123	C	1.612684	0.912157	0.598812
C124	C	0.953423	0.332250	-0.068391
C125	C	1.286756	0.665583	0.264943
C126	C	1.620090	0.998917	0.598276
N127	N	0.931849	0.113494	0.148967
N128	N	1.265183	0.446827	0.482300
N129	N	1.598516	0.780161	0.815633
N130	N	0.952496	0.091628	-0.284108
N131	N	1.285830	0.424962	0.049226
N132	N	1.619163	0.758295	0.382559
C133	C	0.980015	0.062336	0.189101
C134	C	1.313349	0.395670	0.522434
C135	C	1.646682	0.729003	0.855767
C136	C	0.975858	0.066756	0.276588
C137	C	1.309191	0.400090	0.609921
C138	C	1.642524	0.733423	0.943254
C139	C	0.923538	0.122338	0.323939
C140	C	1.256871	0.455672	0.657272
C141	C	1.590205	0.789005	0.990605
C142	C	0.875367	0.173498	0.283799
C143	C	1.208700	0.506831	0.617132
C144	C	1.542034	0.840165	0.950466
C145	C	0.879521	0.169074	0.196314
C146	C	1.212854	0.502407	0.529647
C147	C	1.546188	0.835740	0.862981
C148	C	0.908479	0.138364	0.588268
C149	C	1.241812	0.471697	0.921601
C150	C	1.575146	0.805030	1.254934
C151	C	0.904331	0.142786	0.675758
C152	C	1.237664	0.476119	1.009092
C153	C	1.570997	0.809452	1.342425
C154	C	1.004821	0.036043	0.668541
C155	C	1.338154	0.369376	1.001874
C156	C	1.671487	0.702709	1.335208
C157	C	1.008973	0.031626	0.581054
C158	C	1.342307	0.364960	0.914388
C159	C	1.675640	0.698293	1.247721
C160	C	0.960799	0.082783	0.540923
C161	C	1.294133	0.416117	0.874256
C162	C	1.627466	0.749450	1.207589
C163	C	0.919289	0.126859	0.413364
C164	C	1.252623	0.460193	0.746698
C165	C	1.585956	0.793526	1.080031
C166	C	0.965045	0.078258	0.451499
C167	C	1.298378	0.411591	0.784832
C168	C	1.631711	0.744925	1.118166
H169	H	0.558815	0.098873	-0.177070
H170	H	0.892148	0.432206	0.156264
H171	H	1.225482	0.765539	0.489597
O172	O	0.705612	0.115826	0.106343
O173	O	1.038945	0.449159	0.439677
O174	O	1.372278	0.782493	0.773010
H175	H	0.770636	0.116013	0.088998
H176	H	1.103969	0.449347	0.422331
H177	H	1.437302	0.782680	0.755665
H178	H	0.188691	0.090468	-0.222248
H179	H	0.522024	0.423802	0.111086
H180	H	0.855357	0.757135	0.444419
H181	H	0.708758	0.100787	-0.187825
H182	H	1.042091	0.434121	0.145509
H183	H	1.375424	0.767454	0.478842
H184	H	1.022623	0.017079	0.150553
H185	H	1.355956	0.350412	0.483886
H186	H	1.689289	0.683746	0.817219
H187	H	1.051576	-0.013633	0.542503
H188	H	1.384910	0.319700	0.875836
H189	H	1.718243	0.653034	1.209169
H190	H	0.423493	0.107331	0.031103
H191	H	0.756827	0.440664	0.364436
H192	H	1.090160	0.773998	0.697770
O193	O	0.782619	-0.103841	-0.056127
O194	O	1.115953	0.229493	0.277207
O195	O	1.449286	0.562826	0.610540
H196	H	0.785069	-0.069099	-0.112761
H197	H	1.118402	0.264234	0.220573
H198	H	1.451736	0.597567	0.553906
H199	H	1.044041	-0.005608	0.701225
H200	H	1.377374	0.327725	1.034558
H201	H	1.710708	0.661059	1.367891
H202	H	0.832763	0.218752	0.322358
H203	H	1.166096	0.552085	0.655691
H204	H	1.499430	0.885418	0.989024
H205	H	0.848842	-0.398818	-0.060887
H206	H	1.182176	-0.065485	0.272446
H207	H	1.515509	0.267849	0.605779
H208	H	0.861723	0.188050	0.714308
H209	H	1.195057	0.521384	1.047642
H210	H	1.528390	0.854717	1.380975
O211	O	0.827556	0.224241	0.153028
O212	O	1.160889	0.557574	0.486361
O213	O	1.494222	0.890908	0.819694
H214	H	0.839222	0.211817	0.084240
H215	H	1.172555	0.545151	0.417574
H216	H	1.505889	0.878484	0.750907
H217	H	0.545701	0.112734	0.097852
H218	H	0.879034	0.446067	0.431186
H219	H	1.212367	0.779400	0.764519
O220	O	1.021462	0.018306	0.400422
O221	O	1.354796	0.351640	0.733755
O222	O	1.688129	0.684973	1.067089
H223	H	1.083041	0.028849	0.412713
H224	H	1.416374	0.362183	0.746047
H225	H	1.749707	0.695516	1.079380
H226	H	0.876691	0.172117	0.451925
H227	H	1.210024	0.505450	0.785258
H228	H	1.543358	0.838783	1.118591
H229	H	0.175586	0.104350	0.052673
H230	H	0.508919	0.437684	0.386006
H231	H	0.842252	0.771017	0.719339
O232	O	0.472736	0.096919	-0.187065
O233	O	0.806069	0.430252	0.146268
O234	O	1.139402	0.763586	0.479602
H235	H	0.507112	0.150481	-0.193151
H236	H	0.840445	0.483815	0.140182
H237	H	1.173778	0.817148	0.473516
H238	H	0.869255	0.180019	0.555599
H239	H	1.202589	0.513353	0.888932
H240	H	1.535922	0.846686	1.222266
H241	H	0.787963	-0.265067	-0.056527
H242	H	1.121296	0.068267	0.276806
H243	H	1.454630	0.401600	0.610140
O244	O	0.335504	0.107447	0.061152
O245	O	0.668837	0.440780	0.394486
O246	O	1.002170	0.774114	0.727819
H247	H	0.290367	0.109566	0.116892
H248	H	0.623701	0.442900	0.450226
H249	H	0.957034	0.776233	0.783559
O250	O	0.350514	0.091509	-0.253815
O251	O	0.683847	0.424842	0.079518
O252	O	1.017180	0.758175	0.412852
H253	H	0.339834	0.036202	-0.289249
H254	H	0.673168	0.369535	0.044085
H255	H	1.006501	0.702869	0.377418
O256	O	1.027823	0.011594	0.319877
O257	O	1.361156	0.344927	0.653211
O258	O	1.694489	0.678261	0.986544
H259	H	1.064914	-0.027787	0.272253
H260	H	1.398247	0.305546	0.605586
H261	H	1.731580	0.638880	0.938919
H262	H	1.059946	-0.152222	-0.076001
H263	H	1.393280	0.181111	0.257332
H264	H	1.726613	0.514444	0.590665
H265	H	1.047314	-0.300105	-0.075108
H266	H	1.380647	0.033228	0.258225
H267	H	1.713980	0.366562	0.591559
O268	O	1.116192	-0.521593	-0.080067
O269	O	1.449526	-0.188260	0.253266
O270	O	1.782859	0.145073	0.586599
H271	H	1.146436	-0.539022	-0.025788
H272	H	1.479769	-0.205689	0.307546
H273	H	1.813103	0.127645	0.640879
O274	O	1.101723	-0.691024	-0.079018
O275	O	1.435056	-0.357690	0.254315
O276	O	1.768390	-0.024357	0.587648
H277	H	1.084292	-0.752934	-0.077776
H278	H	1.417626	-0.419601	0.255558
H279	H	1.750959	-0.086268	0.588891
H280	H	0.824389	-0.642652	-0.059128
H281	H	1.157722	-0.309318	0.274206
H282	H	1.491056	0.024015	0.607539
H283	H	0.837021	-0.494770	-0.060051
H284	H	1.170354	-0.161437	0.273282
H285	H	1.503688	0.171897	0.606615
H286	H	1.035494	-0.396063	-0.074290
H287	H	1.368828	-0.062730	0.259044
H288	H	1.702161	0.270603	0.592377
