data_functionalizedCrystal
_audit_creation_method	'MofGen! by Chris Wilmer'
_symmetry_space_group_name_H-M	'P1'
_symmetry_Int_Tables_number	1
_symmetry_cell_setting	triclinic
loop_
_symmetry_equiv_pos_as_xyz
  x,y,z
_cell_length_a	18.760492
_cell_length_b	17.052862
_cell_length_c	17.052862
_cell_angle_alpha	61.493569
_cell_angle_beta	89.998412
_cell_angle_gamma	50.257566
loop_
_atom_site_label
_atom_site_type_symbol
_atom_site_fract_x
_atom_site_fract_y
_atom_site_fract_z
Zr1	Zr	-0.031450	0.564455	1.017429
O2	O	-0.188775	0.767275	0.902894
O3	O	0.029099	0.392356	1.032474
O4	O	-0.137377	0.550880	1.061412
O5	O	0.095005	0.608748	0.873954
O6	O	-0.110847	0.505226	1.209280
O7	O	-0.022300	0.608751	0.873956
O8	O	0.186947	0.221656	1.157514
O9	O	-0.202789	0.892318	0.925720
O10	O	0.059837	0.417694	1.173485
O11	O	0.127581	0.451763	1.063132
O12	O	-0.068422	0.638404	1.097203
O13	O	-0.000678	0.672472	0.986850
Zr14	Zr	0.197950	0.491638	1.253257
Zr15	Zr	0.010863	0.491643	1.253260
Zr16	Zr	0.155638	0.564450	1.017426
Zr17	Zr	-0.053800	0.763884	1.053833
Zr18	Zr	0.220301	0.292209	1.216853
O19	O	0.137402	0.663737	1.238212
O20	O	-0.128612	0.663745	1.238216
O21	O	0.077239	0.767267	0.902890
O22	O	0.355276	0.288818	1.367792
O23	O	0.089262	0.288826	1.367795
O24	O	0.295113	0.392348	1.032470
O25	O	0.071496	0.447345	1.396732
O26	O	0.303878	0.505214	1.209274
O27	O	0.277347	0.550867	1.061406
O28	O	0.188801	0.447342	1.396730
O29	O	-0.169156	0.834442	1.113174
O30	O	0.335657	0.221652	1.157511
O31	O	0.369290	0.163776	1.344966
O32	O	0.220580	0.163780	1.344968
O33	O	-0.054079	0.892313	0.925718
O34	O	-0.020447	0.834437	1.113172
O35	O	0.234923	0.417689	1.173482
O36	O	0.167179	0.383621	1.283835
O37	O	0.038920	0.604330	1.207554
O38	O	0.106664	0.638399	1.097201
C39	C	0.111207	0.278592	1.089807
C40	C	0.120696	0.193929	1.074352
C41	C	0.005981	-0.115845	1.261198
C42	C	-0.002940	-0.036295	1.275716
C43	C	0.027968	0.021264	1.225377
C44	C	0.067799	-0.000733	1.160516
C45	C	0.076714	-0.080283	1.145991
C46	C	0.098701	0.056826	1.110170
C47	C	0.138533	0.034829	1.045309
C48	C	0.147447	-0.044715	1.030787
C49	C	0.116538	-0.102274	1.081126
C50	C	0.089786	0.136376	1.124695
C51	C	0.160519	0.171938	1.009487
C52	C	0.169441	0.092388	0.994970
C53	C	-0.150768	0.528054	1.135346
C54	C	-0.230191	0.528056	1.135347
C55	C	-0.551384	0.502886	1.216805
C56	C	-0.580605	0.553190	1.053875
C57	C	-0.505987	0.553197	1.053874
C58	C	-0.454063	0.528046	1.135341
C59	C	-0.476757	0.502888	1.216809
C60	C	-0.483280	0.578341	0.972413
C61	C	-0.408658	0.578347	0.972410
C62	C	-0.356738	0.553205	1.053874
C63	C	-0.379436	0.528048	1.135345
C64	C	-0.327512	0.502896	1.216811
C65	C	-0.350214	0.477748	1.298279
C66	C	-0.424837	0.477746	1.298273
C67	C	-0.282115	0.553207	1.053881
C68	C	-0.252885	0.502898	1.216815
C69	C	0.317268	0.528040	1.135340
C70	C	0.396692	0.528037	1.135338
C71	C	0.030324	0.619124	0.840354
C72	C	0.012361	0.650034	0.740237
C73	C	0.055293	0.777502	1.180879
C74	C	0.045805	0.862164	1.196334
C75	C	0.229530	0.276323	0.617301
C76	C	0.246403	0.247277	0.711367
C77	C	0.187895	0.347963	0.718590
C78	C	0.112508	0.477702	0.631736
C79	C	0.095627	0.506751	0.537661
C80	C	0.053992	0.578391	0.638950
C81	C	-0.021394	0.708130	0.552096
C82	C	-0.038271	0.737173	0.458031
C83	C	0.020237	0.636487	0.450808
C84	C	0.070874	0.549342	0.733025
C85	C	-0.063029	0.779770	0.653385
C86	C	-0.079903	0.808816	0.559319
C87	C	0.136177	0.436970	1.430332
C88	C	0.154140	0.406059	1.530449
C89	C	0.164134	0.187515	1.384796
C90	C	0.191585	0.071941	1.469458
C91	C	0.345226	0.278585	1.089803
C92	C	0.434138	0.193920	1.074348
C93	C	0.398152	0.187508	1.384793
C94	C	0.505027	0.071932	1.469453
C95	C	-0.231651	0.868586	0.885893
C96	C	-0.338526	0.984161	0.801232
C97	C	0.002367	0.868579	0.885890
C98	C	-0.025084	0.984152	0.801228
C99	C	-0.178725	0.777509	1.180882
C100	C	-0.267637	0.862174	1.196338
C101	C	0.148437	0.035453	1.451614
C102	C	0.174210	-0.073127	1.531156
C103	C	0.243137	-0.145222	1.628540
C104	C	0.286285	-0.108725	1.646383
C105	C	0.260506	-0.000142	1.566843
C106	C	0.531931	0.136374	1.124691
C107	C	0.615478	0.056835	1.110167
C108	C	0.601232	0.034835	1.045304
C109	C	0.503428	0.092391	0.994955
C110	C	0.419881	0.171936	1.009474
C111	C	0.519856	-0.000130	1.566824
C112	C	0.620270	-0.108718	1.646383
C113	C	0.705853	-0.145246	1.628568
C114	C	0.691019	-0.073173	1.531188
C115	C	0.590606	0.035417	1.451632
C116	C	-0.353357	1.056233	0.703863
C117	C	-0.453773	1.164845	0.624309
C118	C	-0.539356	1.201378	0.642125
C119	C	-0.524522	1.129300	0.739504
C120	C	-0.424108	1.020695	0.819057
C121	C	0.018055	1.020649	0.819073
C122	C	-0.007741	1.129251	0.739535
C123	C	-0.076671	1.201348	0.642152
C124	C	-0.119815	1.164847	0.624308
C125	C	-0.094025	1.056253	0.703846
C126	C	-0.253357	0.884145	1.261208
C127	C	-0.336887	0.963679	1.275750
C128	C	-0.434698	1.021249	1.225416
C129	C	-0.448975	0.999271	1.160543
C130	C	-0.365444	0.919730	1.146007
H131	H	0.123806	-0.167059	1.069314
Cl132	Cl	0.738422	-0.015511	1.173476
H133	H	0.491842	0.074466	0.942142
H134	H	0.139068	-0.102827	1.516609
Cl135	Cl	-0.548546	0.609946	0.870006
H136	H	0.179870	-0.062610	0.977965
Cl137	Cl	0.638894	-0.199308	1.768792
Cl138	Cl	0.296945	0.244263	0.946181
H139	H	0.787610	-0.233671	1.693357
H140	H	-0.175940	1.223565	0.545008
Cl141	Cl	-0.053016	-0.008640	1.357248
Cl142	Cl	-0.109080	1.337863	0.542170
H143	H	-0.465832	1.223516	0.545025
Cl144	Cl	-0.380126	0.609967	0.869994
Cl145	Cl	0.039716	0.164019	1.206232
Cl146	Cl	0.798621	-0.119114	1.508808
H147	H	-0.110673	0.861757	0.659262
H148	H	-0.129155	1.026544	0.689302
Cl149	Cl	0.046513	1.175108	0.761988
Cl150	Cl	-0.130405	0.811783	1.324499
H151	H	-0.594216	1.159059	0.753999
H152	H	-0.622878	0.573658	0.987550
Cl153	Cl	0.061778	0.126070	1.329198
H154	H	0.578545	0.094080	1.372350
H155	H	-0.210615	0.482424	1.283153
H156	H	-0.528623	1.046156	1.119564
H157	H	-0.099664	0.842815	0.387314
Cl158	Cl	-0.253572	0.584808	0.951475
H159	H	-0.141284	0.914450	0.488590
Cl160	Cl	-0.383416	0.892135	1.064441
Cl161	Cl	-0.245782	1.010331	0.681441
Cl162	Cl	-0.405480	0.930094	0.941461
Cl163	Cl	0.275537	-0.281728	1.728523
Cl164	Cl	0.412281	0.045773	1.589247
H165	H	0.669270	-0.029939	1.033490
Cl166	Cl	0.165643	0.386248	0.842200
H167	H	0.201639	0.324306	0.795185
H168	H	-0.325244	0.981564	1.328573
H169	H	0.342407	-0.167440	1.725683
Cl170	Cl	-0.539700	1.121246	1.243697
H171	H	0.201871	0.074467	0.942159
H172	H	0.295652	0.029552	1.581385
Cl173	Cl	-0.579924	0.471279	1.319215
H174	H	-0.621114	1.289813	0.577338
Cl175	Cl	0.104708	0.930037	0.941491
H176	H	0.020702	0.086037	1.237201
H177	H	0.185684	0.218808	0.968494
Cl178	Cl	-0.032883	-0.188192	1.324464
H179	H	-0.307924	0.457262	1.364613
H180	H	-0.443325	0.457269	1.364602
Cl181	Cl	0.341171	0.084185	0.820546
Cl182	Cl	0.303066	0.149763	0.608213
H183	H	0.006507	0.660129	0.374215
Cl184	Cl	0.549868	0.164008	1.206242
