data_functionalizedCrystal
_audit_creation_method	'MofGen! by Chris Wilmer'
_symmetry_space_group_name_H-M	'P1'
_symmetry_Int_Tables_number	1
_symmetry_cell_setting	triclinic
loop_
_symmetry_equiv_pos_as_xyz
  x,y,z
_cell_length_a	8.559649
_cell_length_b	10.654551
_cell_length_c	7.681187
_cell_angle_alpha	84.210906
_cell_angle_beta	94.921204
_cell_angle_gamma	77.132013
loop_
_atom_site_label
_atom_site_type_symbol
_atom_site_fract_x
_atom_site_fract_y
_atom_site_fract_z
O1	O	2.134611	-0.055883	0.146408
O2	O	1.670126	0.008903	0.146414
O3	O	1.913047	-0.207333	0.146412
O4	O	1.891690	0.160352	0.146410
O5	O	1.883110	-0.180680	-0.146458
O6	O	1.640189	0.035555	-0.146456
O7	O	2.104674	-0.029231	-0.146462
Zn8	Zn	1.867679	0.007394	-0.192959
Zn9	Zn	1.907122	-0.027722	0.192910
O10	O	1.861753	0.187004	-0.146460
C11	C	1.595682	0.027139	-0.000020
C12	C	1.418465	0.041753	-0.000018
C13	C	1.896511	-0.240643	-0.000019
C14	C	1.891819	-0.379602	-0.000007
C15	C	1.905936	-0.459415	0.159633
C16	C	1.901512	-0.589977	0.159625
C17	C	1.868860	-0.560904	-0.159678
C18	C	1.873273	-0.430341	-0.159668
C19	C	1.924483	-0.408676	0.319294
C20	C	1.938603	-0.488490	0.478947
C21	C	1.934179	-0.619053	0.478939
C22	C	1.915635	-0.669801	0.319278
C23	C	2.179119	-0.047467	-0.000024
C24	C	2.356338	-0.062082	-0.000015
C25	C	1.878290	0.220314	-0.000025
C26	C	1.882983	0.359273	-0.000025
N27	N	1.840771	0.031357	-0.456304
N28	N	1.934042	-0.051697	0.456256
H29	H	1.438726	-0.162161	-0.000006
Cl30	Cl	1.693829	0.162217	-0.572460
H31	H	2.029209	-0.136465	-0.468499
H32	H	1.336069	0.141836	-0.000009
Cl33	Cl	1.961909	-0.424692	0.679652
Cl34	Cl	1.930053	-0.244543	0.319315
Cl35	Cl	1.855535	-0.330001	-0.360363
H36	H	1.945659	-0.684031	0.608936
Cl37	Cl	1.910058	-0.833936	0.319274
Cl38	Cl	1.845554	-0.624705	-0.360380
