data_functionalizedCrystal
_audit_creation_method	'MofGen! by Chris Wilmer'
_symmetry_space_group_name_H-M	'P1'
_symmetry_Int_Tables_number	1
_symmetry_cell_setting	triclinic
loop_
_symmetry_equiv_pos_as_xyz
  x,y,z
_cell_length_a	33.428889
_cell_length_b	33.428139
_cell_length_c	33.424847
_cell_angle_alpha	60.004234
_cell_angle_beta	60.008465
_cell_angle_gamma	59.994972
loop_
_atom_site_label
_atom_site_type_symbol
_atom_site_fract_x
_atom_site_fract_y
_atom_site_fract_z
O1	O	0.055565	-0.584504	0.488714
O2	O	0.020982	-0.455083	0.393778
O3	O	0.102943	-0.536959	0.393689
O4	O	-0.026396	-0.502628	0.488803
O5	O	0.130140	-0.509767	0.420792
O6	O	0.048179	-0.427891	0.420881
O7	O	0.082762	-0.557312	0.515817
Cu8	Cu	0.067954	-0.490119	0.470823
Cu9	Cu	0.035790	-0.522276	0.438771
O10	O	0.000801	-0.475436	0.515906
N11	N	0.090577	-0.467504	0.493370
N12	N	0.013171	-0.544895	0.416225
C13	C	0.143377	-0.280390	0.546067
C14	C	0.143515	-0.414755	0.680369
C15	C	0.143392	-0.414735	0.546069
C16	C	0.277766	-0.414702	0.545966
C17	C	0.158177	-0.324719	0.560828
C18	C	0.158255	-0.399967	0.636038
C19	C	0.233434	-0.399936	0.560773
C20	C	0.158186	-0.399955	0.560829
C21	C	0.124540	-0.223964	0.527278
C22	C	0.124565	-0.433545	0.527281
C23	C	0.177014	-0.381145	0.579617
C24	C	0.359814	-0.400540	0.502735
C25	C	0.411105	-0.417624	0.485606
C26	C	0.411136	-0.500620	0.517255
C27	C	0.359845	-0.483534	0.534385
C28	C	0.136887	-0.198305	0.476855
C29	C	0.119761	-0.147011	0.459777
C30	C	0.077945	-0.147038	0.543547
C31	C	0.095072	-0.198332	0.560625
C32	C	0.074134	-0.421169	0.539710
C33	C	0.057023	-0.438269	0.522625
C34	C	0.140770	-0.480120	0.480694
C35	C	0.157883	-0.463020	0.497773
C36	C	0.074339	-0.421208	0.762475
C37	C	0.057288	-0.438323	0.813768
C38	C	0.141075	-0.480183	0.813699
C39	C	0.158125	-0.463069	0.762404
C40	C	0.124756	-0.433580	0.736794
C41	C	0.334186	-0.433494	0.527123
C42	C	-0.173769	-0.597444	0.363037
C43	C	-0.039302	-0.597595	0.228856
C44	C	-0.039496	-0.597587	0.363300
C45	C	-0.039512	-0.731889	0.363237
C46	C	-0.129442	-0.612265	0.348329
C47	C	-0.054138	-0.612351	0.273187
C48	C	-0.054257	-0.687554	0.348440
C49	C	-0.054247	-0.612346	0.348477
C50	C	-0.230191	-0.578579	0.381758
C51	C	-0.020722	-0.578803	0.382168
C52	C	-0.073020	-0.631130	0.329609
C53	C	-0.053713	-0.813916	0.406386
C54	C	-0.036654	-0.865210	0.423504
C55	C	0.046338	-0.865293	0.391984
C56	C	0.029278	-0.813999	0.374865
C57	C	-0.255900	-0.590938	0.432169
C58	C	-0.307191	-0.573786	0.449185
C59	C	-0.307060	-0.531922	0.365377
C60	C	-0.255769	-0.549074	0.348360
C61	C	-0.033081	-0.528377	0.369764
C62	C	-0.016014	-0.511306	0.386922
C63	C	0.025770	-0.595083	0.428877
C64	C	0.008703	-0.612156	0.411725
C65	C	-0.032755	-0.528393	0.146761
C66	C	-0.015585	-0.511324	0.095468
C67	C	0.026262	-0.595106	0.095516
C68	C	0.009094	-0.612174	0.146811
C69	C	-0.020417	-0.578816	0.172432
C70	C	-0.020748	-0.788312	0.382068
N71	N	0.436037	-0.467415	0.493101
O72	O	0.592642	-0.471896	0.376066
O73	O	0.592838	-0.567146	0.505347
O74	O	0.592754	-0.566928	0.423360
O75	O	0.592727	-0.472113	0.458053
O76	O	0.511269	-0.539835	0.450606
O77	O	0.511353	-0.540052	0.532594
O78	O	0.511157	-0.444802	0.403312
Cu79	Cu	0.503815	-0.489954	0.470441
Cu80	Cu	0.600180	-0.521995	0.438219
O81	O	0.511242	-0.445020	0.485300
N82	N	0.667959	-0.544533	0.415554
N83	N	0.090544	-0.122107	0.493359
O84	O	-0.026406	0.034587	0.488773
O85	O	0.102877	0.034627	0.393499
O86	O	0.020848	0.034591	0.393771
O87	O	0.055623	0.034623	0.488500
O88	O	0.048051	-0.046899	0.420925
O89	O	0.130080	-0.046864	0.420653
O90	O	0.000796	-0.046903	0.515927
Cu91	Cu	0.067922	-0.054324	0.470769
Cu92	Cu	0.035752	0.042048	0.438656
O93	O	0.082825	-0.046867	0.515655
N94	N	0.013123	0.109830	0.416068
N95	N	0.090892	-0.467554	0.838649
O96	O	0.086330	-0.584488	0.995334
O97	O	-0.008902	-0.455160	0.995379
O98	O	-0.008679	-0.537172	0.995355
O99	O	0.086107	-0.502475	0.995358
O100	O	0.018452	-0.509990	0.913868
O101	O	0.018230	-0.427978	0.913891
O102	O	0.113461	-0.557306	0.913847
Cu103	Cu	0.068323	-0.490160	0.906429
Cu104	Cu	0.036237	-0.522306	1.002797
O105	O	0.113239	-0.475293	0.913870
N106	N	0.013667	-0.544916	1.070577
C107	C	0.031339	-0.425179	0.394250
C108	C	0.132837	-0.526572	0.394139
C109	C	0.072405	-0.587216	0.515344
C110	C	-0.029093	-0.485823	0.515455
C111	C	0.552119	-0.566716	0.535258
C112	C	0.552016	-0.566447	0.433726
C113	C	0.551873	-0.445232	0.373402
C114	C	0.551980	-0.445502	0.474933
C115	C	0.132731	-0.006013	0.393923
C116	C	0.031182	-0.006158	0.394293
C117	C	-0.029092	-0.006163	0.515469
C118	C	0.072491	-0.006119	0.515133
C119	C	-0.008451	-0.425276	0.954641
C120	C	-0.008170	-0.526833	0.954596
C121	C	0.113010	-0.587190	0.954585
C122	C	0.112735	-0.485627	0.954611
H123	H	0.016234	-0.428240	0.834672
H124	H	-0.038348	-0.388133	0.954654
H125	H	0.552170	-0.596617	0.572390
C126	C	-0.079249	-0.006176	0.555877
C127	C	-0.089009	-0.006171	0.606043
C128	C	-0.139165	-0.006184	0.646451
C129	C	-0.179562	-0.006203	0.636692
C130	C	-0.169803	-0.006208	0.586524
C131	C	-0.119646	-0.006195	0.546116
H132	H	-0.059104	-0.006157	0.613269
H133	H	-0.146390	-0.006180	0.683589
H134	H	-0.216691	-0.006213	0.666605
H135	H	-0.199707	-0.006222	0.579298
H136	H	-0.112422	-0.006199	0.508978
H137	H	0.023949	-0.388000	0.364433
H138	H	0.142910	-0.624330	0.954565
C139	C	0.058142	-0.631775	0.461387
C140	C	0.107616	-0.668718	0.441825
C141	C	0.139986	-0.705408	0.474335
C142	C	0.122883	-0.705154	0.526407
C143	C	0.073407	-0.668209	0.545972
C144	C	0.041036	-0.631520	0.513462
H145	H	0.120279	-0.668907	0.403275
H146	H	0.176612	-0.732756	0.459851
H147	H	0.146846	-0.732313	0.550473
H148	H	0.060744	-0.668020	0.584522
H149	H	0.004411	-0.604171	0.527946
C150	C	0.183019	-0.536450	0.353788
C151	C	0.214608	-0.504640	0.332665
C152	C	0.264791	-0.514518	0.292314
C153	C	0.283384	-0.556207	0.273084
C154	C	0.251794	-0.588020	0.294207
C155	C	0.201612	-0.578142	0.334558
H156	H	0.200845	-0.473777	0.346900
H157	H	0.288175	-0.490968	0.276677
H158	H	0.320532	-0.563520	0.243213
H159	H	0.265558	-0.618883	0.279972
H160	H	0.178227	-0.601693	0.350195
H161	H	0.079796	-0.624394	0.545162
H162	H	0.169783	-0.005775	0.363939
H163	H	0.079939	-0.006110	0.544893
H164	H	0.551811	-0.415327	0.336274
C165	C	0.021125	-0.006168	0.354084
C166	C	-0.029128	-0.006188	0.364143
C167	C	-0.039185	-0.006199	0.323935
C168	C	0.001011	-0.006190	0.273667
C169	C	0.051268	-0.006170	0.263606
C170	C	0.061325	-0.006159	0.303815
H171	H	-0.058887	-0.006195	0.401356
H172	H	-0.076389	-0.006214	0.331383
H173	H	-0.006433	-0.006198	0.243902
H174	H	0.081027	-0.006163	0.226393
H175	H	0.098529	-0.006145	0.296367
C176	C	0.152967	-0.475599	0.954604
C177	C	0.142936	-0.425348	0.954616
C178	C	0.183168	-0.415320	0.954608
C179	C	0.233432	-0.455545	0.954589
C180	C	0.243465	-0.505800	0.954578
C181	C	0.203233	-0.515827	0.954585
H182	H	0.105726	-0.395568	0.954630
H183	H	0.175741	-0.378118	0.954617
H184	H	0.263214	-0.448122	0.954584
H185	H	0.280675	-0.535580	0.954564
H186	H	0.210661	-0.553030	0.954577
H187	H	-0.037935	-0.534246	0.954563
H188	H	0.047163	-0.397193	0.741627
C189	C	0.169301	-0.226499	0.440172
C190	C	0.188142	-0.282921	0.458957
C191	C	0.220557	-0.311117	0.422275
C192	C	0.234132	-0.282891	0.366809
C193	C	0.215291	-0.226466	0.348022
C194	C	0.182876	-0.198270	0.384704
H195	H	0.178093	-0.303818	0.500018
H196	H	0.234504	-0.352887	0.436183
H197	H	0.258127	-0.303764	0.339655
H198	H	0.225340	-0.205569	0.306960
H199	H	0.168929	-0.156501	0.370796
C200	C	0.045533	-0.118840	0.580228
C201	C	0.031959	-0.147066	0.635694
C202	C	-0.000455	-0.118870	0.672376
C203	C	-0.019295	-0.062448	0.653592
C204	C	-0.005721	-0.034219	0.598123
C205	C	0.026693	-0.062415	0.561441
H206	H	0.045906	-0.188836	0.649602
H207	H	-0.010503	-0.139767	0.713438
H208	H	-0.043289	-0.041576	0.680746
H209	H	-0.019667	0.007550	0.584216
H210	H	0.036741	-0.041518	0.520380
C211	C	0.177781	-0.512612	0.841873
C212	C	0.214679	-0.492970	0.834793
C213	C	0.251383	-0.525402	0.862968
C214	C	0.251188	-0.577475	0.898222
C215	C	0.214289	-0.597120	0.905303
C216	C	0.177585	-0.564688	0.877128
H217	H	0.214824	-0.454420	0.808694
H218	H	0.278699	-0.510860	0.857725
H219	H	0.278359	-0.601483	0.919078
H220	H	0.214143	-0.635670	0.931401
H221	H	0.150269	-0.579230	0.882370
C222	C	0.213587	-0.476679	0.734157
C223	C	0.245797	-0.461743	0.741181
C224	C	0.301258	-0.475352	0.712935
C225	C	0.324510	-0.503896	0.677664
C226	C	0.292300	-0.518834	0.670637
C227	C	0.236839	-0.505225	0.698884
H228	H	0.228585	-0.440612	0.767292
H229	H	0.325102	-0.464294	0.718136
H230	H	0.365566	-0.513970	0.656754
H231	H	0.309512	-0.539965	0.644526
H232	H	0.212995	-0.516283	0.693682
C233	C	0.037483	-0.388742	0.572162
C234	C	0.000614	-0.408383	0.621648
C235	C	-0.036039	-0.375954	0.654102
C236	C	-0.035823	-0.323885	0.637069
C237	C	0.001047	-0.304242	0.587580
C238	C	0.037700	-0.336670	0.555127
H239	H	0.000453	-0.446930	0.634259
H240	H	-0.063333	-0.390496	0.690736
H241	H	-0.062956	-0.299880	0.661093
H242	H	0.001208	-0.265695	0.574969
H243	H	0.064994	-0.322129	0.518492
C244	C	0.001550	-0.424662	0.536292
C245	C	-0.030609	-0.439614	0.590476
C246	C	-0.086081	-0.426007	0.604141
C247	C	-0.109395	-0.397448	0.563622
C248	C	-0.077237	-0.382494	0.509434
C249	C	-0.021764	-0.396101	0.495769
H250	H	-0.013351	-0.460756	0.620474
H251	H	-0.109887	-0.437076	0.644255
H252	H	-0.150459	-0.387375	0.573737
H253	H	-0.094495	-0.361352	0.479436
H254	H	0.002042	-0.385032	0.455655
C255	C	0.551966	-0.405261	0.484957
C256	C	0.552025	-0.415293	0.535191
C257	C	0.552012	-0.375053	0.545215
C258	C	0.551938	-0.324780	0.505004
C259	C	0.551879	-0.314745	0.454767
C260	C	0.551893	-0.354986	0.444743
H261	H	0.552080	-0.452511	0.564960
H262	H	0.552056	-0.382481	0.582404
H263	H	0.551928	-0.294991	0.512425
H264	H	0.551825	-0.277528	0.424998
H265	H	0.551848	-0.347557	0.407554
C266	C	0.177423	-0.512547	0.448238
C267	C	0.177209	-0.564617	0.465270
C268	C	0.213860	-0.597042	0.432813
C269	C	0.250724	-0.577398	0.383325
C270	C	0.250939	-0.525326	0.366290
C271	C	0.214289	-0.492900	0.398747
H272	H	0.149918	-0.579161	0.501906
H273	H	0.213700	-0.635589	0.445423
H274	H	0.277855	-0.601401	0.359298
H275	H	0.278230	-0.510781	0.329654
H276	H	0.214448	-0.454353	0.386137
H277	H	0.198948	-0.473094	0.487648
C278	C	-0.079277	-0.475946	0.555806
C279	C	-0.119622	-0.425747	0.545944
C280	C	-0.169806	-0.415870	0.586294
C281	C	-0.179644	-0.456191	0.636507
C282	C	-0.139297	-0.506394	0.646371
C283	C	-0.089113	-0.516271	0.606020
H284	H	-0.112341	-0.395895	0.508771
H285	H	-0.199673	-0.378706	0.578992
H286	H	-0.216793	-0.448880	0.666377
H287	H	-0.146579	-0.536245	0.683543
H288	H	-0.059246	-0.553434	0.613323
H289	H	0.338981	-0.510371	0.554246
H290	H	0.552029	-0.596233	0.426301
H291	H	0.431972	-0.390789	0.465748
C292	C	0.439362	-0.555664	0.525241
C293	C	0.432358	-0.592968	0.577577
C294	C	0.460586	-0.648013	0.585562
C295	C	0.495819	-0.665754	0.541211
C296	C	0.502825	-0.628449	0.488871
C297	C	0.474596	-0.573404	0.480886
H298	H	0.406275	-0.579836	0.610412
H299	H	0.455400	-0.675628	0.624308
H300	H	0.516715	-0.706501	0.547122
H301	H	0.528907	-0.641581	0.456037
H302	H	0.479782	-0.545789	0.442140
C303	C	0.331587	-0.345494	0.494748
C304	C	0.359781	-0.309247	0.467923
C305	C	0.331556	-0.254201	0.459934
C306	C	0.275138	-0.235402	0.478770
C307	C	0.246941	-0.271650	0.505598
C308	C	0.275166	-0.326695	0.513586
H309	H	0.401548	-0.323162	0.453977
H310	H	0.352430	-0.227368	0.440074
H311	H	0.254245	-0.194654	0.472857
H312	H	0.205175	-0.257734	0.519543
H313	H	0.254292	-0.353528	0.533446
C314	C	0.133339	-0.118780	0.404309
C315	C	0.161869	-0.083498	0.381023
C316	C	0.175447	-0.055269	0.325555
C317	C	0.160494	-0.062321	0.293373
C318	C	0.131962	-0.097604	0.316659
C319	C	0.118385	-0.125833	0.372127
H320	H	0.172940	-0.078277	0.404846
H321	H	0.196568	-0.029150	0.308317
H322	H	0.170545	-0.041424	0.252313
H323	H	0.120892	-0.102825	0.292836
H324	H	0.097263	-0.151952	0.389365
H325	H	0.085016	-0.219221	0.601683
H326	H	-0.056788	-0.501226	0.167618
C327	C	-0.029169	-0.455856	0.067235
C328	C	0.011407	-0.432629	0.032036
C329	C	-0.002174	-0.377160	0.003803
C330	C	-0.056331	-0.344918	0.010769
C331	C	-0.096910	-0.368144	0.045969
C332	C	-0.083329	-0.423613	0.074202
H333	H	0.051501	-0.456497	0.026878
H334	H	0.027866	-0.359966	-0.022255
H335	H	-0.066384	-0.303856	-0.010131
H336	H	-0.137004	-0.344276	0.051127
H337	H	-0.113369	-0.440806	0.100259
C338	C	0.058715	-0.631799	0.067331
C339	C	0.110806	-0.631623	0.032143
C340	C	0.143262	-0.668314	0.003957
C341	C	0.123627	-0.705181	0.010959
C342	C	0.071533	-0.705357	0.046149
C343	C	0.039078	-0.668666	0.074335
H344	H	0.125343	-0.604331	0.026958
H345	H	0.181825	-0.668183	-0.022093
H346	H	0.147652	-0.732342	-0.009905
H347	H	0.056996	-0.732649	0.051334
H348	H	0.000514	-0.668797	0.100385
C349	C	0.022666	-0.667644	0.175047
C350	C	0.076820	-0.699896	0.168082
C351	C	0.090391	-0.755364	0.196317
C352	C	0.049808	-0.778581	0.231518
C353	C	-0.004350	-0.746328	0.238485
C354	C	-0.017921	-0.690860	0.210249
H355	H	0.106866	-0.682710	0.142023
H356	H	0.130483	-0.779239	0.191160
H357	H	0.059854	-0.819642	0.252419
H358	H	-0.034396	-0.763514	0.264543
H359	H	-0.058013	-0.666985	0.215407
C360	C	-0.065453	-0.491687	0.337258
C361	C	-0.045762	-0.454815	0.287803
C362	C	-0.078135	-0.418122	0.255296
C363	C	-0.130198	-0.418302	0.272243
C364	C	-0.149891	-0.455175	0.321700
C365	C	-0.117519	-0.491868	0.354207
H366	H	-0.007220	-0.454680	0.275256
H367	H	-0.063557	-0.390826	0.218684
H368	H	-0.154162	-0.391140	0.248179
H369	H	-0.188434	-0.455310	0.334247
H370	H	-0.132097	-0.519164	0.390818
C371	C	-0.029603	-0.455838	0.373281
C372	C	-0.014593	-0.423666	0.319108
C373	C	-0.028181	-0.368199	0.305468
C374	C	-0.056779	-0.344903	0.346001
C375	C	-0.071791	-0.377074	0.400179
C376	C	-0.058203	-0.432542	0.413818
H377	H	0.006579	-0.440911	0.289099
H378	H	-0.017067	-0.344383	0.265362
H379	H	-0.066838	-0.303842	0.335904
H380	H	-0.092963	-0.359829	0.430187
H381	H	-0.069317	-0.456357	0.453924
H382	H	0.056124	-0.793157	0.355062
C383	C	0.022304	-0.667626	0.425360
C384	C	0.054676	-0.704313	0.457865
C385	C	0.068281	-0.759782	0.471497
C386	C	0.049513	-0.778564	0.452624
C387	C	0.017139	-0.741876	0.420116
C388	C	0.003534	-0.686407	0.406485
H389	H	0.068571	-0.690411	0.471838
H390	H	0.092246	-0.786941	0.495561
H391	H	0.059584	-0.819625	0.462715
H392	H	0.003244	-0.755779	0.406143
H393	H	-0.020432	-0.659248	0.382421
H394	H	-0.063498	-0.886058	0.443304
C395	C	0.101366	-0.893550	0.384064
C396	C	0.119045	-0.928818	0.428454
C397	C	0.174074	-0.957077	0.420534
C398	C	0.211424	-0.950068	0.368224
C399	C	0.193747	-0.914798	0.323830
C400	C	0.138718	-0.886539	0.331750
H401	H	0.091395	-0.934008	0.467180
H402	H	0.187160	-0.983186	0.453398
H403	H	0.252160	-0.970987	0.362362
H404	H	0.221397	-0.909608	0.285104
H405	H	0.125632	-0.860430	0.298887
C406	C	-0.108743	-0.785657	0.414303
C407	C	-0.135166	-0.792681	0.392699
C408	C	-0.190195	-0.764425	0.400618
C409	C	-0.218801	-0.729144	0.430141
C410	C	-0.192379	-0.722119	0.451747
C411	C	-0.137350	-0.750375	0.443828
H412	H	-0.113989	-0.818799	0.370843
H413	H	-0.209754	-0.769625	0.384623
H414	H	-0.259537	-0.708227	0.436002
H415	H	-0.213555	-0.696001	0.473603
H416	H	-0.117790	-0.745174	0.459823
C417	C	-0.227765	-0.623392	0.468907
C418	C	-0.192513	-0.606399	0.468744
C419	C	-0.164376	-0.638853	0.505481
C420	C	-0.171491	-0.688300	0.542381
C421	C	-0.206744	-0.705295	0.542544
C422	C	-0.234881	-0.672841	0.505807
H423	H	-0.187245	-0.569794	0.441428
H424	H	-0.138279	-0.626272	0.505360
H425	H	-0.150662	-0.712324	0.569576
H426	H	-0.212013	-0.741900	0.569861
H427	H	-0.260978	-0.685422	0.505929
C428	C	-0.335479	-0.587370	0.504639
C429	C	-0.328473	-0.572452	0.536880
C430	C	-0.356761	-0.586031	0.592334
C431	C	-0.392055	-0.614528	0.615546
C432	C	-0.399063	-0.629447	0.583305
C433	C	-0.370775	-0.615869	0.527851
H434	H	-0.302345	-0.551355	0.519697
H435	H	-0.351573	-0.574986	0.616201
H436	H	-0.412996	-0.624580	0.656596
H437	H	-0.425192	-0.650544	0.600488
H438	H	-0.375963	-0.626913	0.503984
H439	H	-0.327887	-0.507903	0.338181
H440	H	-0.234840	-0.539009	0.307312
