data_functionalizedCrystal
_audit_creation_method	'MofGen! by Chris Wilmer'
_symmetry_space_group_name_H-M	'P1'
_symmetry_Int_Tables_number	1
_symmetry_cell_setting	triclinic
loop_
_symmetry_equiv_pos_as_xyz
  x,y,z
_cell_length_a	10.908937
_cell_length_b	11.026607
_cell_length_c	14.048226
_cell_angle_alpha	89.996210
_cell_angle_beta	89.991348
_cell_angle_gamma	84.335986
loop_
_atom_site_label
_atom_site_type_symbol
_atom_site_fract_x
_atom_site_fract_y
_atom_site_fract_z
O1	O	1.662452	-0.179057	-0.079190
O2	O	2.162452	0.320943	0.420810
O3	O	1.309520	-0.088520	-0.079185
O4	O	1.809520	0.411480	0.420815
O5	O	1.456735	-0.304539	-0.079183
O6	O	1.956735	0.195461	0.420817
O7	O	1.515236	0.036962	-0.079191
O8	O	2.015236	0.536962	0.420809
O9	O	1.456710	-0.304545	0.079138
O10	O	1.956710	0.195455	0.579138
O11	O	1.309495	-0.088526	0.079137
O12	O	1.809495	0.411474	0.579137
O13	O	1.662427	-0.179063	0.079132
O14	O	2.162427	0.320937	0.579132
Zn15	Zn	1.485957	-0.133795	0.104271
Zn16	Zn	1.985957	0.366205	0.604271
Zn17	Zn	1.485990	-0.133788	-0.104324
Zn18	Zn	1.985990	0.366212	0.395676
O19	O	1.515211	0.036956	0.079130
O20	O	2.015211	0.536956	0.579130
C21	C	1.263622	-0.080062	-0.000023
C22	C	1.763622	0.419938	0.499977
C23	C	1.126895	-0.054865	-0.000021
C24	C	1.626895	0.445135	0.499979
C25	C	0.915317	-0.120775	-0.000037
C26	C	1.415317	0.379225	0.499963
C27	C	1.056631	-0.146820	-0.000024
C28	C	1.556631	0.353180	0.499976
C29	C	1.445930	-0.347575	-0.000024
C30	C	1.945930	0.152425	0.499976
C31	C	1.413757	-0.475796	-0.000026
C32	C	1.913757	0.024204	0.499974
C33	C	1.502592	-0.567529	-0.000029
C34	C	2.002592	-0.067529	0.499971
C35	C	1.469342	-0.700053	-0.000032
C36	C	1.969342	-0.200053	0.499968
C37	C	1.708325	-0.187521	-0.000032
C38	C	2.208325	0.312479	0.499968
C39	C	1.845052	-0.212718	-0.000040
C40	C	2.345052	0.287282	0.499960
C41	C	1.526016	0.079992	-0.000031
C42	C	2.026016	0.579992	0.499969
C43	C	1.558189	0.208213	-0.000035
C44	C	2.058189	0.708213	0.499965
N45	N	1.485943	-0.133803	0.246632
N46	N	1.985943	0.366197	0.746632
N47	N	1.486011	-0.133791	-0.246685
N48	N	1.986011	0.366209	0.253315
C49	C	1.551164	-0.229429	0.296450
C50	C	2.051164	0.270571	0.796450
C51	C	1.551172	-0.229431	0.396108
C52	C	2.051172	0.270569	0.896108
C53	C	1.485966	-0.133802	0.445945
C54	C	1.985966	0.366198	0.945945
C55	C	1.420737	-0.038171	0.396120
C56	C	1.920737	0.461829	0.896120
C57	C	1.420722	-0.038174	0.296464
C58	C	1.920722	0.461826	0.796464
C59	C	1.420774	-0.038170	0.603834
C60	C	1.920774	0.461830	1.103834
C61	C	1.420790	-0.038165	0.703497
C62	C	1.920790	0.461835	1.203497
C63	C	1.551224	-0.229427	0.703478
C64	C	2.051224	0.270573	1.203478
C65	C	1.551209	-0.229430	0.603822
C66	C	2.051209	0.270570	1.103822
C67	C	1.485982	-0.133797	0.554004
C68	C	1.985982	0.366203	1.054004
H69	H	0.889514	-0.310715	-0.000040
H70	H	1.389514	0.189285	0.499960
H71	H	1.603262	-0.547952	-0.000025
H72	H	2.103262	-0.047952	0.499975
H73	H	1.604312	-0.307294	0.563245
H74	H	2.104312	0.192706	1.063245
H75	H	1.082440	0.043139	-0.000030
H76	H	1.582440	0.543139	0.499970
H77	H	1.604268	-0.307297	0.255880
H78	H	2.104268	0.192703	0.755880
H79	H	1.368665	-0.719623	-0.000037
H80	H	1.868665	-0.219623	0.499963
Br81	Br	1.725994	-0.759184	-0.000045
Br82	Br	2.225994	-0.259184	0.499955
Br83	Br	1.245961	-0.508410	-0.000038
Br84	Br	1.745961	-0.008410	0.499962
H85	H	1.604333	-0.307294	0.744046
H86	H	2.104333	0.192706	1.244046
H87	H	1.367691	0.039705	0.744069
H88	H	1.867691	0.539705	1.244069
H89	H	1.367654	0.039702	0.563275
H90	H	1.867654	0.539702	1.063275
H91	H	1.367638	0.039689	0.436703
H92	H	1.867638	0.539689	0.936703
H93	H	0.870855	-0.022779	-0.000049
H94	H	1.370855	0.477221	0.499951
H95	H	1.604278	-0.307298	0.436670
H96	H	2.104278	0.192702	0.936670
Br97	Br	1.332195	0.091604	0.228853
Br98	Br	1.832195	0.591604	0.728853
H99	H	1.101088	-0.244824	-0.000024
H100	H	1.601088	0.255176	0.499976
