data_functionalizedCrystal
_audit_creation_method	'MofGen! by Chris Wilmer'
_symmetry_space_group_name_H-M	'P1'
_symmetry_Int_Tables_number	1
_symmetry_cell_setting	triclinic
loop_
_symmetry_equiv_pos_as_xyz
  x,y,z
_cell_length_a	33.592126
_cell_length_b	33.591377
_cell_length_c	33.588093
_cell_angle_alpha	60.004089
_cell_angle_beta	60.008299
_cell_angle_gamma	59.994549
loop_
_atom_site_label
_atom_site_type_symbol
_atom_site_fract_x
_atom_site_fract_y
_atom_site_fract_z
O1	O	0.055297	-0.581666	0.486338
O2	O	0.555297	-0.081666	0.986338
O3	O	0.020882	-0.452873	0.391864
O4	O	0.520882	0.047127	0.891864
O5	O	0.102445	-0.534352	0.391775
O6	O	0.602445	-0.034352	0.891775
O7	O	-0.026266	-0.500187	0.486427
O8	O	0.473734	-0.000187	0.986427
O9	O	0.129510	-0.507292	0.418747
O10	O	0.629510	-0.007292	0.918747
O11	O	0.047947	-0.425814	0.418835
O12	O	0.547947	0.074186	0.918835
O13	O	0.082362	-0.554606	0.513309
O14	O	0.582362	-0.054606	1.013309
Cu15	Cu	0.067626	-0.487739	0.468535
Cu16	Cu	0.567626	0.012261	0.968535
Cu17	Cu	0.035618	-0.519740	0.436638
Cu18	Cu	0.535618	-0.019740	0.936638
O19	O	0.000799	-0.473128	0.513398
O20	O	0.500799	0.026872	1.013398
N21	N	0.090139	-0.465235	0.490972
N22	N	0.590139	0.034765	0.990972
N23	N	0.013110	-0.542249	0.414202
N24	N	0.513110	-0.042249	0.914202
C25	C	0.124394	-0.431229	0.734914
C26	C	0.624394	0.068771	1.234914
C27	C	0.334265	-0.431145	0.524799
C28	C	0.834265	0.068855	1.024799
C29	C	0.124204	-0.431200	0.524965
C30	C	0.624204	0.068800	1.024965
C31	C	0.124184	-0.221175	0.524955
C32	C	0.624184	0.278825	1.024955
C33	C	0.158017	-0.322536	0.558710
C34	C	0.658017	0.177464	1.058710
C35	C	0.158027	-0.397406	0.558711
C36	C	0.658027	0.102594	1.058711
C37	C	0.176763	-0.378688	0.577408
C38	C	0.676763	0.121312	1.077408
C39	C	0.258412	-0.364594	0.534386
C40	C	0.758412	0.135406	1.034386
C41	C	0.309454	-0.381596	0.517340
C42	C	0.809454	0.118404	1.017340
C43	C	0.309485	-0.464188	0.548836
C44	C	0.809485	0.035812	1.048836
C45	C	0.258444	-0.447186	0.565883
C46	C	0.758444	0.052814	1.065883
C47	C	0.170304	-0.297002	0.508532
C48	C	0.670304	0.202998	1.008532
C49	C	0.153260	-0.245956	0.491537
C50	C	0.653260	0.254044	0.991537
C51	C	0.111648	-0.245983	0.574901
C52	C	0.611648	0.254017	1.074901
C53	C	0.128691	-0.297029	0.591896
C54	C	0.628691	0.202971	1.091896
C55	C	0.107841	-0.385091	0.571080
C56	C	0.607841	0.114909	1.071080
C57	C	0.090813	-0.402108	0.554078
C58	C	0.590813	0.097892	1.054078
C59	C	0.174153	-0.443755	0.512351
C60	C	0.674153	0.056245	1.012351
C61	C	0.191183	-0.426739	0.529347
C62	C	0.691183	0.073261	1.029347
C63	C	0.107923	-0.385106	0.659111
C64	C	0.607923	0.114894	1.159111
C65	C	0.090955	-0.402138	0.710156
C66	C	0.590955	0.097862	1.210156
C67	C	0.174335	-0.443795	0.710087
C68	C	0.674335	0.056205	1.210087
C69	C	0.191302	-0.426764	0.659041
C70	C	0.691302	0.073236	1.159041
C71	C	0.158095	-0.397418	0.633555
C72	C	0.658095	0.102582	1.133555
C73	C	0.232909	-0.397388	0.558656
C74	C	0.732909	0.102612	1.058656
C75	C	0.105069	-0.449619	0.791057
C76	C	0.605069	0.050381	1.291057
C77	C	0.390406	-0.449193	0.505789
C78	C	0.890406	0.050807	1.005789
C79	C	0.104813	-0.449599	0.506607
C80	C	0.604813	0.050401	1.006607
C81	C	0.105125	-0.165028	0.506915
C82	C	0.605125	0.334972	1.006915
C83	C	-0.020560	-0.576246	0.169890
C84	C	0.479440	-0.076246	0.669890
C85	C	-0.020889	-0.786183	0.379970
C86	C	0.479111	-0.286183	0.879970
C87	C	-0.020859	-0.576235	0.380063
C88	C	0.479141	-0.076235	0.880063
C89	C	-0.230772	-0.576015	0.379658
C90	C	0.269228	-0.076015	0.879658
C91	C	-0.129417	-0.609898	0.346025
C92	C	0.370583	-0.109898	0.846025
C93	C	-0.054587	-0.609979	0.346172
C94	C	0.445413	-0.109979	0.846172
C95	C	-0.073269	-0.628671	0.327396
C96	C	0.426731	-0.128671	0.827396
C97	C	-0.087401	-0.710299	0.370335
C98	C	0.412599	-0.210299	0.870335
C99	C	-0.070424	-0.761345	0.387369
C100	C	0.429576	-0.261345	0.887369
C101	C	0.012165	-0.761428	0.356003
C102	C	0.512165	-0.261428	0.856003
C103	C	-0.004813	-0.710383	0.338967
C104	C	0.495187	-0.210383	0.838967
C105	C	-0.155001	-0.622196	0.396191
C106	C	0.344999	-0.122196	0.896191
C107	C	-0.206043	-0.605128	0.413125
C108	C	0.293957	-0.105128	0.913125
C109	C	-0.205914	-0.563467	0.329724
C110	C	0.294086	-0.063467	0.829724
C111	C	-0.154872	-0.580535	0.312790
C112	C	0.345128	-0.080535	0.812790
C113	C	-0.066886	-0.559797	0.333828
C114	C	0.433114	-0.059797	0.833828
C115	C	-0.049903	-0.542809	0.350903
C116	C	0.450097	-0.042809	0.850903
C117	C	-0.008321	-0.626180	0.392654
C118	C	0.491679	-0.126180	0.892654
C119	C	-0.025304	-0.643170	0.375585
C120	C	0.474696	-0.143170	0.875585
C121	C	-0.066758	-0.559805	0.245702
C122	C	0.433242	-0.059805	0.745702
C123	C	-0.049671	-0.542819	0.194658
C124	C	0.450329	-0.042819	0.694658
C125	C	-0.008026	-0.626194	0.194706
C126	C	0.491974	-0.126194	0.694706
C127	C	-0.025111	-0.643179	0.245752
C128	C	0.474889	-0.143179	0.745752
C129	C	-0.054479	-0.609983	0.271248
C130	C	0.445521	-0.109983	0.771248
C131	C	-0.054597	-0.684821	0.346135
C132	C	0.445403	-0.184821	0.846135
C133	C	-0.002109	-0.556901	0.113746
C134	C	0.497891	-0.056901	0.613746
C135	C	-0.002869	-0.842328	0.398966
C136	C	0.497131	-0.342328	0.898966
C137	C	-0.002496	-0.556887	0.398501
C138	C	0.497504	-0.056887	0.898501
C139	C	-0.286914	-0.556929	0.397631
C140	C	0.213086	-0.056929	0.897631
N141	N	0.436349	-0.465146	0.490703
N142	N	0.936349	0.034854	0.990703
O143	O	0.592194	-0.469605	0.374236
O144	O	1.092194	0.030395	0.874236
O145	O	0.592389	-0.564393	0.502890
O146	O	1.092389	-0.064393	1.002890
O147	O	0.592305	-0.564176	0.421300
O148	O	1.092305	-0.064176	0.921300
O149	O	0.592277	-0.469822	0.455826
O150	O	1.092277	0.030178	0.955826
O151	O	0.511216	-0.537214	0.448415
O152	O	1.011216	-0.037214	0.948415
O153	O	0.511300	-0.537431	0.530004
O154	O	1.011300	-0.037431	1.030004
O155	O	0.511104	-0.442643	0.401350
O156	O	1.011104	0.057357	0.901350
Cu157	Cu	0.503798	-0.487575	0.468153
Cu158	Cu	1.003798	0.012425	0.968153
Cu159	Cu	0.599695	-0.519461	0.436087
Cu160	Cu	1.099695	-0.019461	0.936087
O161	O	0.511188	-0.442860	0.482940
O162	O	1.011188	0.057140	0.982940
N163	N	0.667145	-0.541890	0.413532
N164	N	1.167145	-0.041890	0.913532
N165	N	0.090108	-0.119085	0.490958
N166	N	0.590108	0.380915	0.990958
O167	O	-0.026275	0.036848	0.486394
O168	O	0.473725	0.536848	0.986394
O169	O	0.102381	0.036888	0.391584
O170	O	0.602381	0.536888	0.891584
O171	O	0.020751	0.036852	0.391854
O172	O	0.520751	0.536852	0.891854
O173	O	0.055356	0.036884	0.486124
O174	O	0.555356	0.536884	0.986124
O175	O	0.047821	-0.044242	0.418876
O176	O	0.547821	0.455758	0.918876
O177	O	0.129452	-0.044207	0.418606
O178	O	0.629452	0.455793	0.918606
O179	O	0.000796	-0.044246	0.513417
O180	O	0.500796	0.455754	1.013417
Cu181	Cu	0.067596	-0.051631	0.468479
Cu182	Cu	0.567596	0.448369	0.968479
Cu183	Cu	0.035582	0.044273	0.436522
Cu184	Cu	0.535582	0.544273	0.936522
O185	O	0.082426	-0.044211	0.513146
O186	O	0.582426	0.455789	1.013146
N187	N	0.013063	0.111726	0.414043
N188	N	0.513063	0.611726	0.914043
N189	N	0.090453	-0.465282	0.837001
N190	N	0.590453	0.034718	1.337001
O191	O	0.085913	-0.581648	0.992925
O192	O	0.585913	-0.081648	1.492925
O193	O	-0.008857	-0.452947	0.992970
O194	O	0.491143	0.047053	1.492970
O195	O	-0.008635	-0.534562	0.992946
O196	O	0.491365	-0.034562	1.492946
O197	O	0.085691	-0.500033	0.992949
O198	O	0.585691	-0.000033	1.492949
O199	O	0.018365	-0.507512	0.911855
O200	O	0.518365	-0.007512	1.411855
O201	O	0.018143	-0.425898	0.911878
O202	O	0.518143	0.074102	1.411878
O203	O	0.112912	-0.554598	0.911834
O204	O	0.612912	-0.054598	1.411834
Cu205	Cu	0.067993	-0.487778	0.904452
Cu206	Cu	0.567993	0.012222	1.404452
Cu207	Cu	0.036063	-0.519767	1.000352
Cu208	Cu	0.536063	-0.019767	1.500352
O209	O	0.112691	-0.472984	0.911857
O210	O	0.612691	0.027016	1.411857
N211	N	0.013602	-0.542269	1.067803
N212	N	0.513602	-0.042269	1.567803
C213	C	0.031188	-0.423114	0.392334
C214	C	0.531188	0.076886	0.892334
C215	C	0.132194	-0.524016	0.392223
C216	C	0.632194	-0.024016	0.892223
C217	C	0.072056	-0.584366	0.512840
C218	C	0.572056	-0.084366	1.012840
C219	C	-0.028950	-0.483464	0.512950
C220	C	0.471050	0.016536	1.012950
C221	C	0.551868	-0.563965	0.532655
C222	C	1.051868	-0.063965	1.032655
C223	C	0.551766	-0.563697	0.431617
C224	C	1.051766	-0.063697	0.931617
C225	C	0.551623	-0.443070	0.371586
C226	C	1.051623	0.056930	0.871586
C227	C	0.551728	-0.443339	0.472623
C228	C	1.051728	0.056661	0.972623
C229	C	0.132090	-0.003555	0.392006
C230	C	0.632090	0.496445	0.892006
C231	C	0.031035	-0.003698	0.392374
C232	C	0.531035	0.496302	0.892374
C233	C	-0.028947	-0.003703	0.512961
C234	C	0.471053	0.496297	1.012961
C235	C	0.072143	-0.003661	0.512626
C236	C	0.572143	0.496339	1.012626
C237	C	-0.008408	-0.423209	0.952430
C238	C	0.491592	0.076791	1.452430
C239	C	-0.008128	-0.524272	0.952385
C240	C	0.491872	-0.024272	1.452385
C241	C	0.112464	-0.584336	0.952374
C242	C	0.612464	-0.084336	1.452374
C243	C	0.112190	-0.483267	0.952401
C244	C	0.612190	0.016733	1.452401
H245	H	0.080878	-0.361206	0.638363
H246	H	0.580878	0.138794	1.138363
O247	O	0.551848	-0.599456	0.576755
O248	O	1.051848	-0.099456	1.076755
C249	C	0.509957	-0.652849	0.648312
C250	C	1.009957	-0.152849	1.148312
C251	C	0.509911	-0.612648	0.598386
C252	C	1.009911	-0.112648	1.098386
H253	H	0.476060	-0.663535	0.665811
H254	H	0.976060	-0.163535	1.165811
H255	H	0.509941	-0.638734	0.672928
H256	H	1.009941	-0.138734	1.172928
H257	H	0.543930	-0.686068	0.643142
H258	H	1.043930	-0.186068	1.143142
H259	H	0.475944	-0.579416	0.603510
H260	H	0.975944	-0.079416	1.103510
H261	H	0.509953	-0.626803	0.573787
H262	H	1.009953	-0.126803	1.073787
O263	O	0.176259	-0.532623	0.356702
O264	O	0.676259	-0.032623	0.856702
C265	C	0.226273	-0.500502	0.274503
C266	C	0.726273	-0.000502	0.774503
C267	C	0.176345	-0.490693	0.314684
C268	C	0.676345	0.009307	0.814684
H269	H	0.226363	-0.466605	0.240526
H270	H	0.726363	0.033395	0.740526
H271	H	0.233398	-0.532380	0.265310
H272	H	0.733398	-0.032380	0.765310
H273	H	0.256038	-0.509777	0.287943
H274	H	0.756038	-0.009777	0.787943
H275	H	0.146548	-0.481397	0.301278
H276	H	0.646548	0.018603	0.801278
H277	H	0.169262	-0.458828	0.323871
H278	H	0.669262	0.041172	0.823871
O279	O	0.147533	-0.474507	0.952479
O280	O	0.647533	0.025493	1.452479
C281	C	0.200769	-0.497979	0.994455
C282	C	0.700769	0.002021	1.494455
C283	C	0.160737	-0.507944	0.994433
C284	C	0.660737	-0.007944	1.494433
H285	H	0.211464	-0.525013	1.028366
H286	H	0.711464	-0.025013	1.528366
H287	H	0.186486	-0.459248	0.994497
H288	H	0.686486	0.040752	1.494497
H289	H	0.234020	-0.502317	0.960494
H290	H	0.734020	-0.002317	1.460494
H291	H	0.127472	-0.503633	1.028388
H292	H	0.627472	-0.003633	1.528388
H293	H	0.175059	-0.546671	0.994366
H294	H	0.675059	-0.046671	1.494366
O295	O	0.080898	-0.628537	0.548180
O296	O	0.580898	-0.128537	1.048180
C297	C	0.138777	-0.708791	0.570601
C298	C	0.638777	-0.208791	1.070601
C299	C	0.128825	-0.658794	0.530532
C300	C	0.628825	-0.158794	1.030532
H301	H	0.177528	-0.733265	0.556351
H302	H	0.677528	-0.233265	1.056351
H303	H	0.111791	-0.726402	0.581274
H304	H	0.611791	-0.226402	1.081274
H305	H	0.134387	-0.703707	0.603859
H306	H	0.634387	-0.203707	1.103859
H307	H	0.133221	-0.663836	0.497248
H308	H	0.633221	-0.163836	0.997248
H309	H	0.155809	-0.641200	0.519900
H310	H	0.655809	-0.141200	1.019900
H311	H	0.551722	-0.413701	0.480010
H312	H	1.051722	0.086299	0.980010
H313	H	-0.065919	-0.476185	0.542670
H314	H	0.434081	0.023815	1.042670
H315	H	0.551779	-0.593338	0.424228
H316	H	1.051779	-0.093338	0.924228
H317	H	0.551560	-0.413310	0.334638
H318	H	1.051560	0.086690	0.834638
O319	O	0.176096	-0.003249	0.356452
O320	O	0.676096	0.496751	0.856452
C321	C	0.256295	-0.002847	0.333617
C322	C	0.756295	0.497153	0.833617
C323	C	0.206477	-0.003182	0.373920
C324	C	0.706477	0.496818	0.873920
H325	H	0.280875	-0.002804	0.347729
H326	H	0.780875	0.497196	0.847729
H327	H	0.250982	0.031174	0.300474
H328	H	0.750982	0.531174	0.800474
H329	H	0.273918	-0.036702	0.322819
H330	H	0.773918	0.463298	0.822819
H331	H	0.188826	0.030649	0.384759
H332	H	0.688826	0.530649	0.884759
H333	H	0.211821	-0.037225	0.407037
H334	H	0.711821	0.462775	0.907037
O335	O	0.022212	-0.003805	0.357083
O336	O	0.522212	0.496195	0.857083
C337	C	0.000723	-0.045848	0.333872
C338	C	0.500723	0.454152	0.833872
C339	C	0.010708	-0.045787	0.373877
C340	C	0.510708	0.454213	0.873877
H341	H	-0.008590	-0.079782	0.347439
H342	H	0.491410	0.420218	0.847439
H343	H	0.034528	-0.045876	0.299807
H344	H	0.534528	0.454124	0.799807
H345	H	-0.031196	-0.011907	0.324764
H346	H	0.468804	0.488093	0.824764
H347	H	0.042611	-0.079722	0.383026
H348	H	0.542611	0.420278	0.883026
H349	H	-0.023122	-0.045734	0.407916
H350	H	0.476878	0.454266	0.907916
O351	O	0.042199	-0.390105	0.734901
O352	O	0.542199	0.109895	1.234901
C353	C	-0.038710	-0.347003	0.729576
C354	C	0.461290	0.152997	1.229576
C355	C	0.016491	-0.360583	0.701491
C356	C	0.516491	0.139417	1.201491
H357	H	-0.059511	-0.323141	0.702577
H358	H	0.440489	0.176859	1.202577
H359	H	-0.048765	-0.326197	0.753460
H360	H	0.451235	0.173803	1.253460
H361	H	-0.048721	-0.381653	0.753491
H362	H	0.451279	0.118347	1.253491
H363	H	0.026541	-0.325958	0.677550
H364	H	0.526541	0.174042	1.177550
H365	H	0.026516	-0.381408	0.677638
H366	H	0.526516	0.118592	1.177638
H367	H	-0.065895	-0.003715	0.542725
H368	H	0.434105	0.496285	1.042725
H369	H	0.079554	-0.003651	0.542242
H370	H	0.579554	0.496349	1.042242
O371	O	-0.043859	-0.379094	0.952467
O372	O	0.456141	0.120906	1.452467
C373	C	-0.066521	-0.298760	0.952460
C374	C	0.433479	0.201240	1.452460
C375	C	-0.026334	-0.348701	0.952430
C376	C	0.473666	0.151299	1.452430
H377	H	-0.052364	-0.274170	0.952421
H378	H	0.447636	0.225830	1.452421
H379	H	-0.099767	-0.303858	0.986409
H380	H	0.400233	0.196142	1.486409
H381	H	-0.077174	-0.281270	0.918536
H382	H	0.422826	0.218730	1.418536
H383	H	-0.015639	-0.366219	0.986332
H384	H	0.484361	0.133781	1.486332
H385	H	0.006886	-0.343571	0.918459
H386	H	0.506886	0.156429	1.418459
H387	H	-0.037749	-0.531650	0.952352
H388	H	0.462251	-0.031650	1.452352
O389	O	0.147946	-0.628428	0.952292
O390	O	0.647946	-0.128428	1.452292
C391	C	0.199513	-0.687129	0.910237
C392	C	0.699513	-0.187129	1.410237
C393	C	0.159320	-0.637193	0.910276
C394	C	0.659320	-0.137193	1.410276
H395	H	0.208729	-0.694226	0.876266
H396	H	0.708729	-0.194226	1.376266
H397	H	0.186127	-0.716931	0.944144
H398	H	0.686127	-0.216931	1.444144
H399	H	0.233466	-0.687182	0.910258
H400	H	0.733466	-0.187182	1.410258
H401	H	0.125353	-0.637092	0.910239
H402	H	0.625353	-0.137092	1.410239
H403	H	0.172746	-0.607412	0.876372
H404	H	0.672746	-0.107412	1.376372
O405	O	0.206613	-0.472362	0.734818
O406	O	0.706613	0.027638	1.234818
C407	C	0.272719	-0.547459	0.750349
C408	C	0.772719	-0.047459	1.250349
C409	C	0.236181	-0.515160	0.722319
C410	C	0.736181	-0.015160	1.222319
H411	H	0.296641	-0.582064	0.740246
H412	H	0.796641	-0.082064	1.240246
H413	H	0.252003	-0.557560	0.791227
H414	H	0.752003	-0.057560	1.291227
H415	H	0.296585	-0.526645	0.740298
H416	H	0.796585	-0.026645	1.240298
H417	H	0.212306	-0.535945	0.732329
H418	H	0.712306	-0.035945	1.232329
H419	H	0.256927	-0.505058	0.681448
H420	H	0.756927	-0.005058	1.181448
O421	O	0.075567	-0.356584	0.599579
O422	O	0.575567	0.143416	1.099579
C423	C	-0.008895	-0.317092	0.639197
C424	C	0.491105	0.182908	1.139197
C425	C	0.027602	-0.349370	0.606906
C426	C	0.527602	0.150630	1.106906
H427	H	-0.047682	-0.311259	0.645139
H428	H	0.452318	0.188741	1.145139
H429	H	-0.003069	-0.280351	0.620503
H430	H	0.496931	0.219649	1.120503
H431	H	-0.002949	-0.335803	0.675886
H432	H	0.497051	0.164197	1.175886
H433	H	0.021678	-0.330702	0.570211
H434	H	0.521678	0.169298	1.070211
H435	H	0.021767	-0.386110	0.625638
H436	H	0.521767	0.113890	1.125638
H437	H	0.049948	-0.392069	0.564138
H438	H	0.549948	0.107931	1.064138
O439	O	0.206388	-0.472174	0.483757
O440	O	0.706388	0.027826	0.983757
C441	C	0.272405	-0.478662	0.408614
C442	C	0.772405	0.021338	0.908614
C443	C	0.235913	-0.446426	0.440947
C444	C	0.735913	0.053574	0.940947
H445	H	0.296293	-0.457861	0.373999
H446	H	0.796293	0.042139	0.873999
H447	H	0.251652	-0.488705	0.398537
H448	H	0.751652	0.011295	0.898537
H449	H	0.296311	-0.513304	0.429390
H450	H	0.796311	-0.013304	0.929390
H451	H	0.211998	-0.411764	0.420200
H452	H	0.711998	0.088236	0.920200
H453	H	0.256697	-0.436422	0.451026
H454	H	0.756697	0.063578	0.951026
O455	O	0.233744	-0.479106	0.589429
O456	O	0.733744	0.020894	1.089429
C457	C	0.239164	-0.562825	0.618891
C458	C	0.739164	-0.062825	1.118891
C459	C	0.267196	-0.526727	0.592207
C460	C	0.767196	-0.026727	1.092207
H461	H	0.266197	-0.601336	0.621155
H462	H	0.766197	-0.101336	1.121155
H463	H	0.215255	-0.552619	0.598045
H464	H	0.715255	-0.052619	1.098045
H465	H	0.215282	-0.561245	0.657264
H466	H	0.715282	-0.061245	1.157264
H467	H	0.291104	-0.528288	0.553834
H468	H	0.791104	-0.028288	1.053834
H469	H	0.291075	-0.536945	0.613091
H470	H	0.791075	-0.036945	1.113091
H471	H	0.330277	-0.504737	0.554712
H472	H	0.830277	-0.004737	1.054712
O473	O	0.334154	-0.349672	0.493754
O474	O	0.834154	0.150328	0.993754
C475	C	0.328738	-0.265961	0.464335
C476	C	0.828738	0.234039	0.964335
C477	C	0.300704	-0.302060	0.491045
C478	C	0.800704	0.197940	0.991045
H479	H	0.301707	-0.227460	0.462145
H480	H	0.801707	0.272540	0.962145
H481	H	0.352595	-0.267477	0.425938
H482	H	0.852595	0.232523	0.925938
H483	H	0.352673	-0.276229	0.485182
H484	H	0.852673	0.223771	0.985182
H485	H	0.276743	-0.291817	0.470239
H486	H	0.776743	0.208183	0.970239
H487	H	0.276878	-0.300538	0.529444
H488	H	0.776878	0.199462	1.029444
O489	O	-0.230824	-0.617140	0.461875
O490	O	0.269176	-0.117140	0.961875
C491	C	-0.225568	-0.660248	0.542813
C492	C	0.274432	-0.160248	1.042813
C493	C	-0.197445	-0.646687	0.487618
C494	C	0.302555	-0.146687	0.987618
H495	H	-0.198594	-0.684130	0.563642
H496	H	0.301406	-0.184130	1.063642
H497	H	-0.249456	-0.681028	0.552833
H498	H	0.250544	-0.181028	1.052833
H499	H	-0.249480	-0.625592	0.552824
H500	H	0.250520	-0.125592	1.052824
H501	H	-0.173507	-0.681318	0.477568
H502	H	0.326493	-0.181318	0.977568
H503	H	-0.173589	-0.625889	0.477627
H504	H	0.326411	-0.125889	0.977627
H505	H	0.232159	-0.436796	0.638236
H506	H	0.732159	0.063204	1.138236
O507	O	-0.130036	-0.568651	0.264052
O508	O	0.369964	-0.068651	0.764052
C509	C	-0.114332	-0.572535	0.187566
C510	C	0.385668	-0.072535	0.687566
C511	C	-0.142479	-0.586035	0.242756
C512	C	0.357521	-0.086035	0.742756
H513	H	-0.124389	-0.586575	0.170330
H514	H	0.375611	-0.086575	0.670330
H515	H	-0.073473	-0.589793	0.181145
H516	H	0.426527	-0.089793	0.681145
H517	H	-0.124322	-0.531207	0.170360
H518	H	0.375678	-0.031207	0.670360
H519	H	-0.132530	-0.627357	0.259999
H520	H	0.367470	-0.127357	0.759999
H521	H	-0.183331	-0.568743	0.249143
H522	H	0.316669	-0.068743	0.749143
O523	O	0.233556	-0.316241	0.527452
O524	O	0.733556	0.183759	1.027452
C525	C	0.175968	-0.254484	0.565079
C526	C	0.675968	0.245516	1.065079
C527	C	0.204079	-0.309259	0.573001
C528	C	0.704079	0.190741	1.073001
H529	H	0.152137	-0.248820	0.601899
H530	H	0.652137	0.251180	1.101899
H531	H	0.152011	-0.240098	0.542685
H532	H	0.652011	0.259902	1.042685
H533	H	0.202976	-0.233975	0.544782
H534	H	0.702976	0.266025	1.044782
H535	H	0.177106	-0.329807	0.593310
H536	H	0.677106	0.170193	1.093310
H537	H	0.228043	-0.323607	0.595375
H538	H	0.728043	0.176393	1.095375
O539	O	0.022470	-0.378958	0.356944
O540	O	0.522470	0.121042	0.856944
C541	C	0.046012	-0.307281	0.303651
C542	C	0.546012	0.192719	0.803651
C543	C	0.055931	-0.357273	0.343735
C544	C	0.555931	0.142727	0.843735
H545	H	0.073065	-0.289739	0.292952
H546	H	0.573065	0.210261	0.792952
H547	H	0.007292	-0.282748	0.317885
H548	H	0.507292	0.217252	0.817885
H549	H	0.050355	-0.312365	0.270413
H550	H	0.550355	0.187635	0.770413
H551	H	0.051614	-0.352236	0.376987
H552	H	0.551614	0.147764	0.876987
H553	H	0.094646	-0.381789	0.329462
H554	H	0.594646	0.118211	0.829462
O555	O	0.198765	-0.321705	0.476232
O556	O	0.698765	0.178295	0.976232
C557	C	0.238253	-0.316290	0.391752
C558	C	0.738253	0.183710	0.891752
C559	C	0.206009	-0.288254	0.428280
C560	C	0.706009	0.211746	0.928280
H561	H	0.244129	-0.289257	0.352974
H562	H	0.744129	0.210743	0.852974
H563	H	0.219559	-0.340182	0.397614
H564	H	0.719559	0.159818	0.897614
H565	H	0.274974	-0.340192	0.397629
H566	H	0.774974	0.159808	0.897629
H567	H	0.169282	-0.264325	0.422425
H568	H	0.669282	0.235675	0.922425
H569	H	0.224741	-0.264392	0.422408
H570	H	0.724741	0.235608	0.922408
O571	O	0.027047	-0.685609	0.315382
O572	O	0.527047	-0.185609	0.815382
C573	C	0.061212	-0.628012	0.241265
C574	C	0.561212	-0.128012	0.741265
C575	C	0.025121	-0.656045	0.267915
C576	C	0.525121	-0.156045	0.767915
H577	H	0.059660	-0.604094	0.202887
H578	H	0.559660	-0.104094	0.702887
H579	H	0.099724	-0.655030	0.239030
H580	H	0.599724	-0.155030	0.739030
H581	H	0.050945	-0.604131	0.262167
H582	H	0.550945	-0.104131	0.762167
H583	H	0.035343	-0.679926	0.247036
H584	H	0.535343	-0.179926	0.747036
H585	H	-0.013381	-0.629001	0.270155
H586	H	0.486619	-0.129001	0.770155
O587	O	0.165109	-0.221126	0.442796
O588	O	0.665109	0.278874	0.942796
C589	C	0.135707	-0.163462	0.375258
C590	C	0.635707	0.336538	0.875258
C591	C	0.122220	-0.191559	0.430460
C592	C	0.622220	0.308441	0.930460
H593	H	0.101039	-0.139543	0.365268
H594	H	0.601039	0.360457	0.865268
H595	H	0.159571	-0.190438	0.354433
H596	H	0.659571	0.309562	0.854433
H597	H	0.156500	-0.139577	0.365211
H598	H	0.656500	0.360423	0.865211
H599	H	0.101409	-0.215445	0.440551
H600	H	0.601409	0.284555	0.940551
H601	H	0.098379	-0.164557	0.451254
H602	H	0.598379	0.335443	0.951254
H603	H	0.087777	-0.225214	0.601924
H604	H	0.587777	0.274786	1.101924
O605	O	0.116730	-0.321761	0.640658
O606	O	0.616730	0.178239	1.140658
C607	C	0.073631	-0.316404	0.721552
C608	C	0.573631	0.183596	1.221552
C609	C	0.087151	-0.288335	0.666344
C610	C	0.587151	0.211665	1.166344
H611	H	0.049707	-0.289392	0.742335
H612	H	0.549707	0.210608	1.242335
H613	H	0.108270	-0.340281	0.731600
H614	H	0.608270	0.159719	1.231600
H615	H	0.052879	-0.340325	0.731591
H616	H	0.552879	0.159675	1.231591
H617	H	0.107891	-0.264388	0.656265
H618	H	0.607891	0.235612	1.156265
H619	H	0.052495	-0.264489	0.656325
H620	H	0.552495	0.235511	1.156325
H621	H	0.232048	-0.436761	0.519270
H622	H	0.732048	0.063239	1.019270
H623	H	-0.059677	-0.501957	0.173865
H624	H	0.440323	-0.001957	0.673865
H625	H	-0.090673	-0.532769	0.266460
H626	H	0.409327	-0.032769	0.766460
H627	H	0.015526	-0.653210	0.416597
H628	H	0.515526	-0.153210	0.916597
O629	O	0.020506	-0.658507	0.170018
O630	O	0.520506	-0.158507	0.670018
C631	C	0.059973	-0.742999	0.175460
C632	C	0.559973	-0.242999	0.675460
C633	C	0.027666	-0.706456	0.203480
C634	C	0.527666	-0.206456	0.703480
H635	H	0.065764	-0.781773	0.202502
H636	H	0.565764	-0.281773	0.702502
H637	H	0.096730	-0.737201	0.151632
H638	H	0.596730	-0.237201	0.651632
H639	H	0.041314	-0.737070	0.151497
H640	H	0.541314	-0.237070	0.651497
H641	H	0.046283	-0.712362	0.227469
H642	H	0.546283	-0.212362	0.727469
H643	H	-0.009088	-0.712262	0.227278
H644	H	0.490912	-0.212262	0.727278
H645	H	-0.015108	-0.684041	0.266548
H646	H	0.484892	-0.184041	0.766548
H647	H	-0.059919	-0.501948	0.340854
H648	H	0.440081	-0.001948	0.840854
O649	O	-0.095346	-0.527489	0.305282
O650	O	0.404654	-0.027489	0.805282
C651	C	-0.134776	-0.443002	0.265650
C652	C	0.365224	0.056998	0.765650
C653	C	-0.102552	-0.479538	0.297993
C654	C	0.397448	0.020462	0.797993
H655	H	-0.140604	-0.404225	0.259738
H656	H	0.359396	0.095775	0.759738
H657	H	-0.171521	-0.448806	0.284285
H658	H	0.328479	0.051194	0.784285
H659	H	-0.116028	-0.448931	0.228951
H660	H	0.383972	0.051069	0.728951
H661	H	-0.121257	-0.473630	0.334698
H662	H	0.378743	0.026370	0.834698
H663	H	-0.065808	-0.473724	0.279320
H664	H	0.434192	0.026276	0.779320
H665	H	-0.015291	-0.684031	0.385637
H666	H	0.484709	-0.184031	0.885637
H667	H	0.052703	-0.782242	0.350169
H668	H	0.552703	-0.282242	0.850169
H669	H	-0.127938	-0.689491	0.376175
H670	H	0.372062	-0.189491	0.876175
O671	O	-0.102367	-0.786021	0.410943
O672	O	0.397633	-0.286021	0.910943
C673	C	-0.186091	-0.780554	0.440366
C674	C	0.313909	-0.280554	0.940366
C675	C	-0.149965	-0.752547	0.413633
C676	C	0.350035	-0.252547	0.913633
H677	H	-0.224580	-0.753502	0.442541
H678	H	0.275420	-0.253502	0.942541
H679	H	-0.184581	-0.804398	0.478770
H680	H	0.315419	-0.304398	0.978770
H681	H	-0.175847	-0.804503	0.419546
H682	H	0.324153	-0.304503	0.919546
H683	H	-0.160184	-0.728572	0.434413
H684	H	0.339816	-0.228572	0.934413
H685	H	-0.151481	-0.728734	0.375228
H686	H	0.348519	-0.228734	0.875228
H687	H	-0.134277	-0.646110	0.423254
H688	H	0.365723	-0.146110	0.923254
H689	H	-0.226640	-0.539563	0.302661
H690	H	0.273360	-0.039563	0.802661
