data_functionalizedCrystal
_audit_creation_method	'MofGen! by Chris Wilmer'
_symmetry_space_group_name_H-M	'P1'
_symmetry_Int_Tables_number	1
_symmetry_cell_setting	triclinic
loop_
_symmetry_equiv_pos_as_xyz
  x,y,z
_cell_length_a	6.817900
_cell_length_b	9.464759
_cell_length_c	8.686293
_cell_angle_alpha	89.964659
_cell_angle_beta	95.702220
_cell_angle_gamma	90.066633
loop_
_atom_site_label
_atom_site_type_symbol
_atom_site_fract_x
_atom_site_fract_y
_atom_site_fract_z
V1	V	3.871429	-0.186162	0.453694
O2	O	3.910626	-0.335146	0.301537
O3	O	3.777145	-0.038192	0.588624
O4	O	3.776663	-0.334280	0.588591
O5	O	3.911111	-0.037009	0.301570
V6	V	4.367010	-0.186142	0.418731
O7	O	4.106236	-0.186204	0.530390
O8	O	4.582400	-0.186100	0.342036
O9	O	4.238088	-0.334112	0.283801
O10	O	4.445210	-0.037158	0.570888
O11	O	4.444725	-0.335295	0.570855
O12	O	4.238570	-0.038024	0.283834
C13	C	3.612497	0.002593	0.617090
C14	C	3.616460	0.124842	0.730404
V15	V	3.887929	0.313912	0.923914
O16	O	3.937969	0.462958	1.081129
O17	O	3.783780	0.165820	0.777720
O18	O	3.783578	0.461908	0.777688
O19	O	3.938173	0.164821	1.081161
V20	V	4.387887	0.314456	1.015451
O21	O	4.118345	0.314211	0.873656
O22	O	4.609443	0.314666	1.116976
O23	O	4.267950	0.462295	1.136226
O24	O	4.455706	0.165543	0.871604
O25	O	4.455503	0.463680	0.871572
O26	O	4.268152	0.166208	1.136258
C27	C	3.616215	0.502536	0.730367
C28	C	3.612056	0.624916	0.617056
C29	C	4.080463	0.002800	1.256156
C30	C	4.097551	0.125192	1.145241
C31	C	4.097299	0.502881	1.145216
C32	C	4.080052	0.625117	1.256107
