data_functionalizedCrystal
_audit_creation_method	'MofGen! by Chris Wilmer'
_symmetry_space_group_name_H-M	'P1'
_symmetry_Int_Tables_number	1
_symmetry_cell_setting	triclinic
loop_
_symmetry_equiv_pos_as_xyz
  x,y,z
_cell_length_a	17.000371
_cell_length_b	17.038272
_cell_length_c	15.072220
_cell_angle_alpha	89.999202
_cell_angle_beta	89.987368
_cell_angle_gamma	83.355402
loop_
_atom_site_label
_atom_site_type_symbol
_atom_site_fract_x
_atom_site_fract_y
_atom_site_fract_z
O1	O	1.058011	0.028037	-0.073786
O2	O	0.828191	0.056282	-0.073788
O3	O	0.941735	-0.071563	-0.073780
O4	O	0.944467	0.155881	-0.073794
O5	O	0.941705	-0.071554	0.073785
O6	O	0.828161	0.056290	0.073777
O7	O	1.057981	0.028045	0.073779
Zn8	Zn	0.943066	0.042169	0.097207
Zn9	Zn	0.943105	0.042158	-0.097216
O10	O	0.944437	0.155890	0.073771
C11	C	0.798625	0.057803	-0.000005
C12	C	0.710572	0.062314	-0.000006
C13	C	0.673845	-0.007108	0.000000
C14	C	0.591110	-0.002864	-0.000006
C15	C	0.545102	0.070802	-0.000013
C16	C	0.581834	0.140229	-0.000021
C17	C	0.664568	0.135985	-0.000021
C18	C	0.295066	0.087196	-0.000020
C19	C	0.212327	0.091434	-0.000017
C20	C	0.221608	-0.051659	-0.000004
C21	C	0.304344	-0.055897	0.000001
C22	C	0.341068	0.013530	-0.000012
C23	C	0.460533	0.075141	-0.000017
C24	C	0.425636	0.009190	-0.000014
C25	C	0.939235	-0.100516	0.000002
C26	C	0.931823	-0.186802	0.000002
C27	C	0.999881	-0.241577	0.000003
C28	C	0.992911	-0.322650	-0.000005
C29	C	0.917882	-0.348946	-0.000009
C30	C	0.849819	-0.294164	-0.000012
C31	C	0.856789	-0.213093	-0.000010
C32	C	0.893256	-0.593018	-0.000021
C33	C	0.886291	-0.674096	-0.000020
C34	C	1.029384	-0.702577	-0.000015
C35	C	1.036348	-0.621502	-0.000007
C36	C	0.968285	-0.566727	-0.000016
C37	C	0.910756	-0.431816	-0.000014
C38	C	0.975411	-0.483859	-0.000016
C39	C	1.087547	0.026524	-0.000006
C40	C	1.175600	0.022013	-0.000011
C41	C	0.946936	0.184843	-0.000013
C42	C	0.954349	0.271129	-0.000019
N43	N	0.943046	0.042176	0.229896
N44	N	0.943132	0.042144	-0.229905
C45	C	0.943104	0.042155	0.589097
C46	C	0.882115	0.110362	0.551486
C47	C	0.882281	0.110585	0.448661
C48	C	0.943074	0.042166	0.410893
C49	C	1.026939	0.054218	0.448184
C50	C	1.026604	0.054696	0.551042
C51	C	0.920951	-0.038345	0.551203
C52	C	0.919091	-0.037670	0.448339
C53	C	0.943063	0.042170	0.310180
C54	C	0.943121	0.042152	0.689811
H55	H	0.324957	0.143728	-0.000036
H56	H	1.073635	0.005623	0.423718
Cl57	Cl	1.078475	-0.391509	-0.000001
Cl58	Cl	0.175435	-0.138933	0.000007
H59	H	0.544368	0.200209	-0.000032
H60	H	1.097445	-0.600099	-0.000004
Cl61	Cl	1.055444	0.145068	0.588066
Cl62	Cl	1.099138	-0.019614	0.589456
Cl63	Cl	0.710738	0.223261	-0.000032
H64	H	1.084797	-0.747183	-0.000009
Cl65	Cl	1.056254	0.143505	0.408396
H66	H	0.825190	-0.695502	-0.000009
H67	H	0.801369	-0.168494	-0.000012
H68	H	1.060978	-0.220174	0.000012
Cl69	Cl	0.786297	0.100845	0.409734
Cl70	Cl	0.755496	-0.327222	-0.000028
Cl71	Cl	0.828108	-0.058400	0.591300
H72	H	0.965363	-0.089036	0.575524
Cl73	Cl	0.823800	-0.051999	0.410713
Cl74	Cl	0.982574	-0.119030	0.408667
H75	H	0.711300	-0.067095	0.000009
Cl76	Cl	0.402688	0.167747	-0.000025
Cl77	Cl	0.904586	0.202268	0.591352
H78	H	0.463099	-0.050788	-0.000014
Cl79	Cl	0.807689	-0.524168	-0.000034
H80	H	0.849667	-0.453235	-0.000015
Cl81	Cl	0.544943	-0.090142	-0.000024
H82	H	1.036500	-0.462446	-0.000033
H83	H	0.341798	-0.115883	0.000010
H84	H	0.819767	0.104207	0.576248
H85	H	0.174868	0.151425	-0.000018
Cl86	Cl	0.904973	0.203008	0.410646
