data_functionalizedCrystal
_audit_creation_method	'MofGen! by Chris Wilmer'
_symmetry_space_group_name_H-M	'P1'
_symmetry_Int_Tables_number	1
_symmetry_cell_setting	triclinic
loop_
_symmetry_equiv_pos_as_xyz
  x,y,z
_cell_length_a	10.686220
_cell_length_b	16.120484
_cell_length_c	10.686551
_cell_angle_alpha	88.707809
_cell_angle_beta	90.308082
_cell_angle_gamma	97.070967
loop_
_atom_site_label
_atom_site_type_symbol
_atom_site_fract_x
_atom_site_fract_y
_atom_site_fract_z
Zn1	Zn	1.957921	-0.203137	-0.579045
Zn2	Zn	2.291254	0.130196	-0.245712
Zn3	Zn	2.624587	0.463530	0.087621
Zn4	Zn	1.931025	-0.353948	-0.381655
Zn5	Zn	2.264359	-0.020615	-0.048322
Zn6	Zn	2.597692	0.312718	0.285012
Zn7	Zn	1.730532	-0.224452	-0.387111
Zn8	Zn	2.063865	0.108882	-0.053778
Zn9	Zn	2.397198	0.442215	0.279556
Zn10	Zn	1.737575	-0.352260	-0.607294
Zn11	Zn	2.070908	-0.018926	-0.273961
Zn12	Zn	2.404242	0.314407	0.059372
O13	O	1.839263	-0.283449	-0.488776
O14	O	2.172597	0.049884	-0.155443
O15	O	2.505930	0.383218	0.177890
O16	O	2.130476	-0.214929	-0.538756
O17	O	2.463809	0.118405	-0.205422
O18	O	2.797142	0.451738	0.127911
O19	O	1.890226	-0.346397	-0.207623
O20	O	2.223559	-0.013064	0.125711
O21	O	2.556893	0.320270	0.459044
O22	O	1.769004	-0.105021	-0.403033
O23	O	2.102337	0.228312	-0.069699
O24	O	2.435670	0.561646	0.263634
O25	O	2.110716	-0.325729	-0.393734
O26	O	2.444049	0.007604	-0.060400
O27	O	2.777383	0.340937	0.272933
O28	O	1.936065	-0.089361	-0.544046
O29	O	2.269399	0.243972	-0.210713
O30	O	2.602732	0.577305	0.122621
O31	O	1.742924	-0.251257	-0.211631
O32	O	2.076258	0.082077	0.121702
O33	O	2.409591	0.415410	0.455035
O34	O	1.555343	-0.249619	-0.430424
O35	O	1.888677	0.083714	-0.097091
O36	O	2.222010	0.417047	0.236242
O37	O	1.781008	-0.322851	-0.778303
O38	O	2.114341	0.010482	-0.444970
O39	O	2.447674	0.343815	-0.111636
O40	O	1.560518	-0.343519	-0.592192
O41	O	1.893851	-0.010186	-0.258859
O42	O	2.227185	0.323147	0.074475
O43	O	1.942895	-0.213292	-0.757549
O44	O	2.276228	0.120042	-0.424215
O45	O	2.609561	0.453375	-0.090882
O46	O	1.897056	-0.470327	-0.421125
O47	O	2.230389	-0.136994	-0.087792
O48	O	2.563722	0.196339	0.245541
O49	O	1.754928	-0.469087	-0.586902
O50	O	2.088262	-0.135753	-0.253568
O51	O	2.421595	0.197580	0.079765
C52	C	1.512264	-0.298700	-0.514966
C53	C	1.845597	0.034634	-0.181633
C54	C	2.178931	0.367967	0.151700
C55	C	1.372373	-0.305242	-0.526202
C56	C	1.705706	0.028091	-0.192868
C57	C	2.039040	0.361425	0.140465
C58	C	1.823874	-0.499938	-0.506511
C59	C	2.157207	-0.166605	-0.173178
C60	C	2.490541	0.166729	0.160155
C61	C	1.817409	-0.592545	-0.514131
C62	C	2.150742	-0.259212	-0.180798
C63	C	2.484076	0.074122	0.152536
C64	C	1.805615	-0.762098	-0.528067
C65	C	2.138948	-0.428764	-0.194734
C66	C	2.472282	-0.095431	0.138599
C67	C	1.873138	-0.803948	-0.449488
C68	C	2.206472	-0.470615	-0.116155
C69	C	2.539805	-0.137282	0.217179
C70	C	1.866576	-0.898293	-0.457242
C71	C	2.199910	-0.564960	-0.123909
C72	C	2.533243	-0.231627	0.209424
C73	C	1.812176	-0.667744	-0.520315
C74	C	2.145509	-0.334411	-0.186981
C75	C	2.478842	-0.001078	0.146352
C76	C	2.167539	-0.268140	-0.462485
C77	C	2.500873	0.065194	-0.129152
C78	C	2.834206	0.398527	0.204182
C79	C	2.307431	-0.261616	-0.451281
C80	C	2.640764	0.071718	-0.117948
C81	C	2.974098	0.405051	0.215385
C82	C	1.865737	-0.265505	-0.814505
C83	C	2.199070	0.067828	-0.481172
C84	C	2.532404	0.401161	-0.147838
C85	C	1.877019	-0.257859	-0.953311
C86	C	2.210352	0.075474	-0.619978
C87	C	2.543685	0.408808	-0.286645
C88	C	1.854749	-0.066112	-0.470997
C89	C	2.188082	0.267221	-0.137664
C90	C	2.521416	0.600555	0.195670
C91	C	1.861348	0.026504	-0.463420
C92	C	2.194681	0.359838	-0.130087
C93	C	2.528015	0.693171	0.203246
C94	C	1.812969	-0.301259	-0.164304
C95	C	2.146302	0.032074	0.169029
C96	C	2.479636	0.365407	0.502362
C97	C	1.801948	-0.308660	-0.025460
C98	C	2.135281	0.024673	0.307873
C99	C	2.468615	0.358007	0.641207
H100	H	1.358852	-0.219261	-0.378542
H101	H	1.692185	0.114072	-0.045209
H102	H	2.025519	0.447406	0.288125
H103	H	1.729049	-0.358005	-0.981039
H104	H	2.062383	-0.024671	-0.647705
H105	H	2.395716	0.308662	-0.314372
C106	C	1.951631	-0.111701	-0.977247
C107	C	2.284964	0.221632	-0.643913
C108	C	2.618298	0.554966	-0.310580
C109	C	1.975446	-0.191240	-1.013268
C110	C	2.308779	0.142093	-0.679934
C111	C	2.642113	0.475426	-0.346601
H112	H	2.012401	-0.070576	-1.014256
H113	H	2.345734	0.262757	-0.680922
H114	H	2.679067	0.596091	-0.347589
H115	H	1.869661	-0.102295	-1.004351
H116	H	2.202995	0.231038	-0.671018
H117	H	2.536328	0.564371	-0.337685
H118	H	1.956702	-0.108287	-0.888702
H119	H	2.290035	0.225047	-0.555369
H120	H	2.623368	0.558380	-0.222035
H121	H	1.970366	-0.194657	-1.101812
H122	H	2.303700	0.138677	-0.768479
H123	H	2.637033	0.472010	-0.435146
H124	H	2.057436	-0.200649	-0.986170
H125	H	2.390770	0.132684	-0.652837
H126	H	2.724103	0.466018	-0.319503
C127	C	1.173165	-0.358063	-0.616904
C128	C	1.506499	-0.024729	-0.283570
C129	C	1.839832	0.308604	0.049763
C130	C	1.302960	-0.362428	-0.624404
C131	C	1.636293	-0.029094	-0.291071
C132	C	1.969627	0.304239	0.042263
H133	H	1.130316	-0.393362	-0.677535
H134	H	1.463650	-0.060029	-0.344201
H135	H	1.796983	0.273304	-0.010868
H136	H	1.143994	-0.375792	-0.535675
H137	H	1.477328	-0.042458	-0.202342
H138	H	1.810661	0.290875	0.130992
H139	H	1.157161	-0.302073	-0.632436
H140	H	1.490494	0.031260	-0.299103
H141	H	1.823827	0.364594	0.034230
H142	H	1.318966	-0.418417	-0.608862
H143	H	1.652299	-0.085083	-0.275529
H144	H	1.985633	0.248250	0.057805
H145	H	1.332141	-0.344703	-0.705651
H146	H	1.665474	-0.011370	-0.372318
H147	H	1.998807	0.321964	-0.038985
H148	H	1.935874	-0.768923	-0.376390
H149	H	2.269208	-0.435589	-0.043056
H150	H	2.602541	-0.102256	0.290277
C151	C	1.730724	-0.895040	-0.615397
C152	C	2.064057	-0.561707	-0.282063
C153	C	2.397390	-0.228374	0.051270
C154	C	1.720913	-0.809376	-0.626731
C155	C	2.054246	-0.476042	-0.293398
C156	C	2.387580	-0.142709	0.039935
H157	H	1.678423	-0.924234	-0.676300
H158	H	2.011756	-0.590901	-0.342966
H159	H	2.345090	-0.257567	-0.009633
H160	H	1.815788	-0.904232	-0.628124
H161	H	2.149121	-0.570899	-0.294791
H162	H	2.482454	-0.237566	0.038543
H163	H	1.704592	-0.914753	-0.534081
H164	H	2.037925	-0.581420	-0.200748
H165	H	2.371259	-0.248087	0.132585
H166	H	1.747053	-0.789661	-0.708044
H167	H	2.080387	-0.456328	-0.374711
H168	H	2.413720	-0.122995	-0.041378
H169	H	1.635831	-0.800178	-0.614014
H170	H	1.969164	-0.466845	-0.280681
H171	H	2.302497	-0.133512	0.052653
