data_functionalizedCrystal
_audit_creation_method	'MofGen! by Chris Wilmer'
_symmetry_space_group_name_H-M	'P1'
_symmetry_Int_Tables_number	1
_symmetry_cell_setting	triclinic
loop_
_symmetry_equiv_pos_as_xyz
  x,y,z
_cell_length_a	10.685976
_cell_length_b	18.050589
_cell_length_c	10.686551
_cell_angle_alpha	85.596139
_cell_angle_beta	89.651515
_cell_angle_gamma	85.664809
loop_
_atom_site_label
_atom_site_type_symbol
_atom_site_fract_x
_atom_site_fract_y
_atom_site_fract_z
Zn1	Zn	1.972066	-0.359105	-0.561901
Zn2	Zn	1.955785	-0.492056	-0.352154
Zn3	Zn	1.746194	-0.357711	-0.368277
Zn4	Zn	1.762231	-0.473076	-0.577980
O5	O	1.859069	-0.420487	-0.465078
O6	O	2.145437	-0.385268	-0.520602
O7	O	1.914458	-0.481594	-0.178751
O8	O	1.776258	-0.253975	-0.393980
O9	O	2.133476	-0.482946	-0.366501
O10	O	1.942205	-0.255000	-0.536235
O11	O	1.760472	-0.382891	-0.190596
O12	O	1.572790	-0.364487	-0.409570
O13	O	1.803591	-0.450598	-0.751389
O14	O	1.584572	-0.449246	-0.563639
O15	O	1.957756	-0.366864	-0.739576
O16	O	1.930008	-0.593459	-0.382092
O17	O	1.787804	-0.579514	-0.548006
C18	C	1.533168	-0.404656	-0.490100
C19	C	1.393748	-0.397900	-0.500834
C20	C	1.858916	-0.613433	-0.465069
C21	C	1.858969	-0.695979	-0.465098
C22	C	1.781718	-0.887879	-0.555286
C23	C	1.742349	-0.940618	-0.443168
C24	C	1.859093	-0.847115	-0.465105
C25	C	1.898525	-0.941460	-0.577232
C26	C	1.859212	-0.993105	-0.465122
C27	C	1.819659	-0.898766	-0.352930
C28	C	1.975894	-0.899604	-0.487068
C29	C	1.936562	-0.952325	-0.374867
C30	C	1.859022	-0.763014	-0.465097
C31	C	1.859282	-1.077205	-0.465117
C32	C	2.186243	-0.436380	-0.439959
C33	C	2.325665	-0.443153	-0.429255
C34	C	1.884278	-0.406769	-0.792271
C35	C	1.895021	-0.400924	-0.931701
C36	C	1.859259	-0.226788	-0.465112
C37	C	1.859340	-0.144245	-0.465127
C38	C	1.834030	-0.434101	-0.139152
C39	C	1.823531	-0.439749	0.000296
H40	H	1.374041	-0.487072	-0.359761
H41	H	1.716173	-0.859829	-0.631457
O42	O	1.611580	-0.964672	-0.418544
H43	H	1.547477	-0.938649	-0.493514
O44	O	1.986980	-0.350965	-0.995889
H45	H	2.083510	-0.369521	-0.963265
O46	O	1.329691	-0.339725	-0.592889
H47	H	1.226565	-0.343362	-0.587152
O48	O	1.775383	-0.873905	-0.227308
H49	H	1.775632	-0.812383	-0.228304
H50	H	1.931829	-0.960322	-0.672049
H51	H	2.074595	-0.881429	-0.505683
O52	O	2.023304	-0.989309	-0.273761
H53	H	1.969195	-1.024571	-0.206813
O54	O	1.731558	-0.489702	-0.935545
H55	H	1.737260	-0.486604	-0.832428
