data_functionalizedCrystal
_audit_creation_method	'MofGen! by Chris Wilmer'
_symmetry_space_group_name_H-M	'P1'
_symmetry_Int_Tables_number	1
_symmetry_cell_setting	triclinic
loop_
_symmetry_equiv_pos_as_xyz
  x,y,z
_cell_length_a	6.817900
_cell_length_b	10.943632
_cell_length_c	17.110486
_cell_angle_alpha	95.128976
_cell_angle_beta	99.060439
_cell_angle_gamma	108.838880
loop_
_atom_site_label
_atom_site_type_symbol
_atom_site_fract_x
_atom_site_fract_y
_atom_site_fract_z
V1	V	-4.004183	-0.178245	-0.246701
O2	O	-3.964002	0.008961	-0.242025
O3	O	-3.982903	-0.353811	-0.244995
O4	O	-3.933594	-0.175330	-0.354305
O5	O	-4.013652	-0.170756	-0.131958
V6	V	-4.487172	-0.155874	-0.232979
O7	O	-4.266613	-0.227319	-0.276801
O8	O	-4.674939	-0.106800	-0.202879
O9	O	-4.285245	0.019692	-0.234685
O10	O	-4.644749	-0.343080	-0.237656
O11	O	-4.595099	-0.163364	-0.347722
O12	O	-4.334553	-0.158789	-0.125376
C13	C	-3.835219	-0.396616	-0.241099
C14	C	-3.898959	-0.540142	-0.240421
C15	C	-3.745839	-0.617302	-0.235914
C16	C	-3.853497	-0.690048	-0.172035
C17	C	-3.904898	-0.723136	-0.303101
C18	C	-4.005757	-0.610984	-0.176497
C19	C	-4.057150	-0.644079	-0.307620
C20	C	-4.164924	-0.716787	-0.243728
C21	C	-3.772320	-0.168944	-0.380533
C22	C	-3.796069	-0.167722	-0.468499
C23	C	-3.989509	-0.173591	-0.513856
C24	C	-4.011811	-0.172442	-0.596510
C25	C	-3.840676	-0.165433	-0.633805
C26	C	-3.647219	-0.159559	-0.588441
C27	C	-3.624915	-0.160699	-0.505789
C28	C	-3.898898	-0.161661	-0.883160
C29	C	-3.921220	-0.160526	-0.965819
C30	C	-4.285810	-0.173406	-0.973882
C31	C	-4.263492	-0.174554	-0.891228
C32	C	-4.070035	-0.168673	-0.845871
C33	C	-3.863471	-0.164263	-0.718290
C34	C	-4.047239	-0.169834	-0.761386
C35	C	-4.096272	0.062490	-0.238580
C36	C	-4.011770	0.206015	-0.239263
C37	C	-4.159171	-0.165180	-0.099144
C38	C	-4.114660	-0.166395	-0.011177
H39	H	-3.862844	-0.771973	-0.356587
Br40	Br	-4.461229	-0.788830	-0.249203
Br41	Br	-4.199421	-0.609271	-0.403178
H42	H	-4.128874	-0.179308	-0.483497
H43	H	-3.768058	-0.710895	-0.114704
Br44	Br	-4.075717	-0.529846	-0.087216
Br45	Br	-3.414959	-0.150044	-0.639055
Br46	Br	-4.274354	-0.180423	-0.658065
Br47	Br	-4.495764	-0.184077	-0.840619
Br48	Br	-4.548346	-0.181385	-1.035441
H49	H	-3.781849	-0.154814	-0.996182
H50	H	-3.724138	-0.158561	-0.748666
Br51	Br	-3.636368	-0.153715	-0.821618
H52	H	-4.186572	-0.175537	-0.731016
Br53	Br	-3.449518	-0.544831	-0.230289
Br54	Br	-3.362371	-0.152714	-0.444229
