data_functionalizedCrystal
_audit_creation_method	'MofGen! by Chris Wilmer'
_symmetry_space_group_name_H-M	'P1'
_symmetry_Int_Tables_number	1
_symmetry_cell_setting	triclinic
loop_
_symmetry_equiv_pos_as_xyz
  x,y,z
_cell_length_a	15.297475
_cell_length_b	16.625545
_cell_length_c	15.296720
_cell_angle_alpha	99.644199
_cell_angle_beta	91.617114
_cell_angle_gamma	80.328138
loop_
_atom_site_label
_atom_site_type_symbol
_atom_site_fract_x
_atom_site_fract_y
_atom_site_fract_z
Zn1	Zn	1.253363	-0.627520	-0.726586
Zn2	Zn	1.278618	-0.743622	-0.580099
Zn3	Zn	1.132243	-0.582224	-0.554827
Zn4	Zn	1.106845	-0.735696	-0.701227
O5	O	1.192767	-0.672265	-0.640685
O6	O	1.379290	-0.665194	-0.728342
O7	O	1.280400	-0.706572	-0.454172
O8	O	1.148370	-0.475415	-0.577648
O9	O	1.397845	-0.750494	-0.620719
O10	O	1.237356	-0.508694	-0.703838
O11	O	1.172859	-0.587994	-0.435605
O12	O	1.006298	-0.580309	-0.553059
O13	O	1.105082	-0.736986	-0.827166
O14	O	0.987638	-0.693064	-0.660618
O15	O	1.212728	-0.657509	-0.845796
O16	O	1.255773	-0.855388	-0.596131
O17	O	1.129571	-0.849565	-0.685123
C18	C	0.965185	-0.630912	-0.601345
C19	C	0.867820	-0.613243	-0.584536
C20	C	0.554663	-0.798555	-0.760823
C21	C	0.646142	-0.815162	-0.776613
C22	C	0.701566	-0.764684	-0.728595
C23	C	0.665502	-0.697596	-0.664784
C24	C	0.574015	-0.680991	-0.648987
C25	C	0.720918	-0.647119	-0.616760
C26	C	0.684854	-0.580032	-0.552949
C27	C	0.593375	-0.563430	-0.537156
C28	C	0.537951	-0.613908	-0.585173
C29	C	0.812405	-0.663724	-0.632557
C30	C	0.831757	-0.546160	-0.520722
C31	C	0.740278	-0.529553	-0.504932
C32	C	1.192677	-0.881735	-0.640641
C33	C	1.192713	-0.971366	-0.640665
C34	C	1.192744	-1.044157	-0.640688
C35	C	1.192792	-1.135477	-0.640716
C36	C	1.192836	-1.208263	-0.640735
C37	C	1.192883	-1.299589	-0.640762
C38	C	1.421239	-0.713781	-0.680178
C39	C	1.518599	-0.731472	-0.697008
C40	C	1.153255	-0.701416	-0.869152
C41	C	1.136417	-0.713838	-0.966510
C42	C	1.192879	-0.461984	-0.640752
C43	C	1.192926	-0.372375	-0.640781
C44	C	1.313143	-0.583346	-1.279750
C45	C	1.328969	-0.571677	-1.188278
C46	C	1.280832	-0.607216	-1.132831
C47	C	1.216867	-0.654427	-1.168867
C48	C	1.201045	-0.666102	-1.260349
C49	C	1.168734	-0.689972	-1.113430
C50	C	1.104769	-0.737183	-1.149465
C51	C	1.088949	-0.748856	-1.240939
C52	C	1.137086	-0.713317	-1.296385
C53	C	1.184556	-0.678297	-1.021948
C54	C	1.072458	-0.761053	-1.002547
C55	C	1.056633	-0.772722	-1.094019
C56	C	1.232177	-0.643179	-0.413115
C57	C	1.249184	-0.630560	-0.315786
H58	H	0.876884	-0.505057	-0.481621
H59	H	1.293721	-0.597712	-1.058351
H60	H	0.710901	-0.474930	-0.452976
C61	C	0.519117	-0.935436	-0.798359
C62	C	0.493745	-0.854035	-0.813604
H63	H	0.481505	-0.969686	-0.830947
H64	H	0.578754	-0.954918	-0.816901
H65	H	0.514285	-0.936907	-0.736891
H66	H	0.498584	-0.852562	-0.875072
H67	H	0.434094	-0.834547	-0.795068
H68	H	1.381051	-0.533240	-1.158945
C69	C	0.417439	-0.526111	-0.501665
C70	C	0.437392	-0.595652	-0.567816
H71	H	0.355356	-0.514840	-0.490957
H72	H	0.447889	-0.536516	-0.448690
H73	H	0.435527	-0.479812	-0.520495
H74	H	0.419310	-0.641953	-0.548984
H75	H	0.406930	-0.585252	-0.620802
H76	H	0.841759	-0.718347	-0.684513
C77	C	0.621693	-0.448886	-0.428202
C78	C	0.553733	-0.489689	-0.467012
H79	H	0.597218	-0.403359	-0.384903
H80	H	0.663160	-0.486154	-0.400786
H81	H	0.650783	-0.429459	-0.472600
H82	H	0.524647	-0.509121	-0.422615
H83	H	0.512251	-0.452414	-0.494428
C84	C	1.136704	-0.810784	-1.431265
C85	C	1.119692	-0.726145	-1.396937
H86	H	1.125961	-0.818700	-1.493341
H87	H	1.196796	-0.832347	-1.420340
H88	H	1.098878	-0.838703	-1.403401
H89	H	1.157522	-0.698226	-1.424797
H90	H	1.059590	-0.704572	-1.407869
C91	C	1.232160	-0.545944	-1.001219
C92	C	1.254856	-0.626396	-0.982344
H93	H	1.275560	-0.513899	-0.976766
H94	H	1.229628	-0.547821	-1.063628
H95	H	1.175905	-0.521547	-0.976051
H96	H	1.311108	-0.650796	-1.007518
H97	H	1.257398	-0.624523	-0.919923
C98	C	0.822071	-0.852472	-0.812108
C99	C	0.802121	-0.782931	-0.745957
H100	H	0.884151	-0.863733	-0.822833
H101	H	0.803999	-0.898769	-0.793276
H102	H	0.791603	-0.842069	-0.865085
H103	H	0.832584	-0.793337	-0.692979
H104	H	0.820203	-0.736624	-0.764786
C105	C	1.307580	-0.490254	-1.384775
C106	C	1.366052	-0.544288	-1.340697
H107	H	1.340250	-0.466139	-1.422398
H108	H	1.267232	-0.520046	-1.419322
H109	H	1.275612	-0.447923	-1.342497
H110	H	1.398015	-0.586623	-1.382975
H111	H	1.406415	-0.514495	-1.306148
C112	C	0.648683	-0.878679	-0.929720
C113	C	0.685779	-0.888897	-0.846755
H114	H	0.673158	-0.924200	-0.973026
H115	H	0.586277	-0.876016	-0.927179
H116	H	0.661471	-0.828895	-0.945226
H117	H	0.672985	-0.938678	-0.831246
H118	H	0.748199	-0.891569	-0.849295
C119	C	0.979728	-0.829479	-1.212571
C120	C	1.018642	-0.800753	-1.280551
H121	H	0.936320	-0.861514	-1.237026
H122	H	1.024044	-0.862700	-1.183480
H123	H	0.952416	-0.783702	-1.171110
H124	H	1.045960	-0.846531	-1.322009
H125	H	0.974319	-0.767531	-1.309656
C126	C	1.046928	-0.779897	-0.853706
C127	C	1.019538	-0.800119	-0.941608
H128	H	1.014256	-0.804010	-0.816083
H129	H	1.108360	-0.800479	-0.848887
H130	H	1.036728	-0.721484	-0.836529
H131	H	1.029744	-0.858531	-0.958787
H132	H	0.958091	-0.779541	-0.946430
H133	H	1.004552	-0.811161	-1.123372
