data_functionalizedCrystal
_audit_creation_method	'MofGen! by Chris Wilmer'
_symmetry_space_group_name_H-M	'P1'
_symmetry_Int_Tables_number	1
_symmetry_cell_setting	triclinic
loop_
_symmetry_equiv_pos_as_xyz
  x,y,z
_cell_length_a	8.597340
_cell_length_b	10.540510
_cell_length_c	9.016244
_cell_angle_alpha	90.003508
_cell_angle_beta	82.300897
_cell_angle_gamma	84.924190
loop_
_atom_site_label
_atom_site_type_symbol
_atom_site_fract_x
_atom_site_fract_y
_atom_site_fract_z
O1	O	2.084503	0.189482	-0.143058
O2	O	1.627737	0.204020	-0.084683
O3	O	1.866565	0.012095	-0.115206
O4	O	1.845675	0.381407	-0.112535
O5	O	1.866552	0.012084	-0.361885
O6	O	1.627723	0.204009	-0.331362
O7	O	2.084490	0.189470	-0.389737
Cu8	Cu	1.856105	0.196739	-0.383074
Cu9	Cu	1.856121	0.196752	-0.091347
O10	O	1.845661	0.381396	-0.359214
C11	C	1.569242	0.202454	-0.200548
C12	C	1.394966	0.197788	-0.178275
C13	C	2.142984	0.191037	-0.273869
C14	C	2.317260	0.195703	-0.296132
C15	C	1.865002	-0.035222	-0.238344
C16	C	1.860344	-0.176196	-0.237740
C17	C	2.026257	-0.392809	-0.259508
C18	C	2.031225	-0.246188	-0.259580
C19	C	1.772877	-0.221392	-0.085698
C20	C	1.769119	-0.368172	-0.085107
C21	C	1.765545	-0.368011	-0.365172
C22	C	1.773650	-0.221629	-0.368062
C23	C	1.847225	0.428713	-0.236074
C24	C	1.851882	0.569686	-0.236668
N25	N	1.856105	0.196729	-0.588260
C26	C	1.983934	0.094074	-0.667521
C27	C	1.984410	0.094363	-0.839472
C28	C	1.892688	0.329816	-0.828404
C29	C	1.893592	0.329203	-0.656575
C30	C	1.691351	0.167510	-0.630593
C31	C	1.692436	0.164528	-0.802688
N32	N	1.856133	0.196752	0.113838
H33	H	1.328159	0.196002	-0.060320
H34	H	2.099663	-0.216502	-0.369300
Cl35	Cl	2.129043	-0.457069	-0.428614
Cl36	Cl	1.544468	0.283042	-0.548992
H37	H	1.384061	0.197480	-0.414080
H38	H	1.647077	-0.174641	-0.064382
Cl39	Cl	2.128465	-0.459448	-0.117485
Cl40	Cl	2.137512	-0.201776	-0.116989
H41	H	2.013770	0.354562	-0.631818
Cl42	Cl	1.861437	-0.429792	0.065659
Cl43	Cl	1.571800	-0.404682	-0.050007
Cl44	Cl	1.752826	0.450775	-0.873605
Cl45	Cl	1.866678	-0.173279	0.064170
H46	H	1.592797	0.234264	-0.832891
Cl47	Cl	1.848813	-0.433218	-0.540658
Cl48	Cl	1.871896	-0.176951	-0.541516
H49	H	1.648893	-0.173196	-0.360625
Cl50	Cl	1.567464	-0.403216	-0.341328
H51	H	1.962527	-0.004467	-0.878888
H52	H	1.962412	-0.005081	-0.623406
H53	H	2.105486	0.112738	-0.639816
Cl54	Cl	2.173152	0.123615	-0.927097
H55	H	1.803809	0.407828	-0.603473
Cl56	Cl	2.076133	0.369838	-0.918311
Cl57	Cl	1.637415	0.020680	-0.556782
H58	H	1.664716	0.066628	-0.839950
