data_functionalizedCrystal
_audit_creation_method	'MofGen! by Chris Wilmer'
_symmetry_space_group_name_H-M	'P1'
_symmetry_Int_Tables_number	1
_symmetry_cell_setting	triclinic
loop_
_symmetry_equiv_pos_as_xyz
  x,y,z
_cell_length_a	8.497374
_cell_length_b	8.497374
_cell_length_c	17.640112
_cell_angle_alpha	78.776723
_cell_angle_beta	78.811801
_cell_angle_gamma	90.004389
loop_
_atom_site_label
_atom_site_type_symbol
_atom_site_fract_x
_atom_site_fract_y
_atom_site_fract_z
Zn1	Zn	0.405273	0.140113	1.208303
Zn2	Zn	0.141542	0.403865	1.208296
Zn3	Zn	0.194739	0.193478	1.076168
Zn4	Zn	0.458516	0.457240	1.076150
O5	O	0.300017	0.298674	1.142229
O6	O	0.325744	0.130429	1.318904
O7	O	-0.072166	0.375953	1.190773
O8	O	0.222647	-0.034368	1.093707
O9	O	0.131981	0.324207	1.318899
O10	O	0.377326	-0.073575	1.190785
O11	O	-0.033082	0.221382	1.093700
O12	O	0.274274	0.273137	0.965564
O13	O	0.672217	0.415176	1.093676
O14	O	0.468070	0.466922	0.965550
O15	O	0.633100	0.182184	1.190768
O16	O	0.183608	0.631712	1.190756
O17	O	0.416488	0.670926	1.093669
C18	C	0.382723	0.381614	0.936879
C19	C	0.418142	0.417133	0.849030
C20	C	0.890136	0.298698	1.142234
C21	C	0.711495	0.298693	1.142226
C22	C	0.300044	0.708558	1.142219
C23	C	0.300010	0.887193	1.142240
C24	C	0.030954	0.028806	0.560028
C25	C	0.064257	0.062214	0.477480
C26	C	0.265709	0.264280	0.477520
C27	C	0.232428	0.230883	0.560070
C28	C	0.115048	0.113145	0.601317
C29	C	0.316522	0.315223	0.601360
C30	C	0.283237	0.281834	0.683902
C31	C	0.165859	0.164105	0.725155
C32	C	0.081763	0.079757	0.683860
C33	C	0.433894	0.432967	0.560111
C34	C	0.517987	0.517307	0.601400
C35	C	0.484711	0.483911	0.683944
C36	C	0.367333	0.366182	0.725197
C37	C	0.568807	0.568260	0.725240
C38	C	0.535523	0.534871	0.807782
C39	C	0.334049	0.332794	0.807740
C40	C	0.216990	0.215412	1.348381
C41	C	0.181608	0.179930	1.436231
H42	H	0.238489	0.236897	0.841326
C43	C	0.709273	0.709177	0.598724
C44	C	0.697824	0.697677	0.679894
H45	H	0.788931	0.789069	0.570733
H46	H	0.608708	0.737577	0.585198
H47	H	0.737974	0.608686	0.585193
H48	H	0.669111	0.798165	0.693426
H49	H	0.798411	0.669286	0.693426
C50	C	0.738034	0.737946	0.799540
C51	C	0.627968	0.627564	0.853174
H52	H	0.795110	0.795165	0.827565
H53	H	0.682200	0.811212	0.767347
H54	H	0.811456	0.682311	0.767341
H55	H	0.554539	0.683200	0.885369
H56	H	0.683806	0.554287	0.885380
H57	H	0.138758	0.136926	0.792367
H58	H	-0.013796	-0.016140	0.717446
C59	C	0.352436	0.541792	0.452142
C60	C	0.394745	0.393682	0.432180
H61	H	0.432102	0.621674	0.424149
H62	H	0.344650	0.533965	0.507205
H63	H	0.251870	0.570195	0.438598
H64	H	0.495305	0.365273	0.445730
H65	H	0.402549	0.401507	0.377105
C66	C	-0.109509	-0.112115	0.686545
C67	C	-0.098062	-0.100626	0.605376
H68	H	-0.189147	-0.192024	0.714540
H69	H	-0.138221	-0.011640	0.700074
H70	H	-0.008923	-0.140501	0.700070
H71	H	-0.198645	-0.072228	0.591850
H72	H	-0.069359	-0.201122	0.591842
C73	C	-0.138233	-0.140899	0.485732
C74	C	-0.028182	-0.030510	0.432093
H75	H	-0.195293	-0.198143	0.457711
H76	H	-0.211656	-0.085279	0.517925
H77	H	-0.082377	-0.214158	0.517930
H78	H	-0.084040	0.042756	0.399900
H79	H	0.045251	-0.086133	0.399887
H80	H	0.460989	0.460148	0.492899
H81	H	0.613554	0.613173	0.567806
