data_functionalizedCrystal
_audit_creation_method	'MofGen! by Chris Wilmer'
_symmetry_space_group_name_H-M	'P1'
_symmetry_Int_Tables_number	1
_symmetry_cell_setting	triclinic
loop_
_symmetry_equiv_pos_as_xyz
  x,y,z
_cell_length_a	17.077404
_cell_length_b	21.295417
_cell_length_c	17.077396
_cell_angle_alpha	90.032144
_cell_angle_beta	90.019501
_cell_angle_gamma	90.029927
loop_
_atom_site_label
_atom_site_type_symbol
_atom_site_fract_x
_atom_site_fract_y
_atom_site_fract_z
Zn1	Zn	1.200017	-0.250605	0.443823
Zn2	Zn	1.533351	0.082728	0.777156
Zn3	Zn	1.866684	0.416061	1.110489
Zn4	Zn	1.199909	-0.355878	0.312548
Zn5	Zn	1.533242	-0.022545	0.645882
Zn6	Zn	1.866576	0.310788	0.979215
Zn7	Zn	1.068749	-0.250628	0.312571
Zn8	Zn	1.402083	0.082706	0.645904
Zn9	Zn	1.735416	0.416039	0.979237
Zn10	Zn	1.068702	-0.355841	0.443772
Zn11	Zn	1.402035	-0.022508	0.777105
Zn12	Zn	1.735368	0.310826	1.110439
O13	O	1.134344	-0.303238	0.378178
O14	O	1.467678	0.030095	0.711512
O15	O	1.801011	0.363429	1.044845
O16	O	1.309850	-0.264577	0.426421
O17	O	1.643183	0.068757	0.759754
O18	O	1.976517	0.402090	1.093087
O19	O	1.182485	-0.341942	0.202704
O20	O	1.515818	-0.008608	0.536038
O21	O	1.849151	0.324725	0.869371
O22	O	1.086228	-0.162535	0.330012
O23	O	1.419561	0.170798	0.663345
O24	O	1.752894	0.504131	0.996679
O25	O	1.309770	-0.341920	0.329974
O26	O	1.643104	-0.008587	0.663307
O27	O	1.976437	0.324746	0.996641
O28	O	1.182670	-0.162519	0.426442
O29	O	1.516003	0.170814	0.759776
O30	O	1.849336	0.504148	1.093109
O31	O	1.086122	-0.264614	0.202721
O32	O	1.419456	0.068719	0.536054
O33	O	1.752789	0.402053	0.869387
O34	O	0.958896	-0.264578	0.329963
O35	O	1.292229	0.068755	0.663296
O36	O	1.625563	0.402089	0.996630
O37	O	1.086146	-0.341856	0.553626
O38	O	1.419480	-0.008523	0.886959
O39	O	1.752813	0.324810	1.220292
O40	O	0.958861	-0.341878	0.426356
O41	O	1.292194	-0.008545	0.759689
O42	O	1.625528	0.324789	1.093023
O43	O	1.182624	-0.264540	0.553663
O44	O	1.515957	0.068793	0.886996
O45	O	1.849290	0.402126	1.220330
O46	O	1.182439	-0.443963	0.329925
O47	O	1.515772	-0.110630	0.663258
O48	O	1.849105	0.222704	0.996591
O49	O	1.086041	-0.443935	0.426334
O50	O	1.419375	-0.110602	0.759668
O51	O	1.752708	0.222731	1.093001
C52	C	0.930396	-0.303227	0.378157
C53	C	1.263730	0.030107	0.711490
C54	C	1.597063	0.363440	1.044823
C55	C	0.843147	-0.303237	0.378166
C56	C	1.176480	0.030096	0.711499
C57	C	1.509813	0.363430	1.044833
C58	C	0.802159	-0.343548	0.428277
C59	C	1.135492	-0.010215	0.761611
C60	C	1.468825	0.323119	1.094944
C61	C	0.720178	-0.343549	0.428290
C62	C	1.053512	-0.010216	0.761623
C63	C	1.386845	0.323117	1.094957
C64	C	0.679187	-0.303242	0.378187
C65	C	1.012521	0.030091	0.711520
C66	C	1.345854	0.363424	1.044853
C67	C	0.720181	-0.262927	0.328073
C68	C	1.053514	0.070406	0.661406
C69	C	1.386847	0.403739	0.994740
C70	C	0.802160	-0.262923	0.328065
C71	C	1.135493	0.070410	0.661398
C72	C	1.468826	0.403744	0.994732
C73	C	0.549311	-0.262940	0.328092
C74	C	0.882644	0.070394	0.661425
C75	C	1.215977	0.403727	0.994759
C76	C	0.467326	-0.262944	0.328099
C77	C	0.800660	0.070389	0.661432
C78	C	1.133993	0.403722	0.994765
C79	C	0.467329	-0.343566	0.428317
C80	C	0.800663	-0.010232	0.761650
C81	C	1.133996	0.323101	1.094984
C82	C	0.549308	-0.343562	0.428309
C83	C	0.882642	-0.010228	0.761642
C84	C	1.215975	0.323105	1.094976
C85	C	0.590296	-0.303247	0.378194
C86	C	0.923630	0.030086	0.711527
C87	C	1.256963	0.363420	1.044861
C88	C	1.134244	-0.466790	0.378139
C89	C	1.467578	-0.133456	0.711472
C90	C	1.800911	0.199877	1.044805
C91	C	1.134273	-0.536758	0.378148
C92	C	1.467607	-0.203425	0.711481
C93	C	1.800940	0.129909	1.044815
C94	C	1.184462	-0.569559	0.428395
C95	C	1.517795	-0.236226	0.761728
C96	C	1.851129	0.097108	1.095062
C97	C	1.184490	-0.635301	0.428414
C98	C	1.517823	-0.301968	0.761748
C99	C	1.851156	0.031365	1.095081
C100	C	1.134337	-0.668240	0.378173
C101	C	1.467670	-0.334907	0.711506
C102	C	1.801004	-0.001574	1.044839
C103	C	1.084138	-0.635431	0.327922
C104	C	1.417472	-0.302098	0.661255
C105	C	1.750805	0.031235	0.994589
C106	C	1.084107	-0.569690	0.327910
C107	C	1.417440	-0.236357	0.661243
C108	C	1.750773	0.096977	0.994576
N109	N	1.128408	-0.771504	0.309474
N110	N	1.461741	-0.438170	0.642808
N111	N	1.795074	-0.104837	0.976141
N112	N	1.128443	-0.833955	0.309488
N113	N	1.461776	-0.500622	0.642822
N114	N	1.795109	-0.167289	0.976155
C115	C	1.134429	-0.866315	0.378208
C116	C	1.467762	-0.532982	0.711541
C117	C	1.801095	-0.199648	1.044875
N118	N	1.140394	-0.833864	0.446915
N119	N	1.473727	-0.500531	0.780248
N120	N	1.807060	-0.167197	1.113581
N121	N	1.140363	-0.771407	0.446900
N122	N	1.473696	-0.438074	0.780233
N123	N	1.807030	-0.104740	1.113567
C124	C	1.134366	-0.739526	0.378181
C125	C	1.467699	-0.406192	0.711514
C126	C	1.801032	-0.072859	1.044847
C127	C	1.184650	-0.970402	0.428480
C128	C	1.517983	-0.637068	0.761814
C129	C	1.851317	-0.303735	1.095147
C130	C	1.184672	-1.036145	0.428501
C131	C	1.518006	-0.702812	0.761834
C132	C	1.851339	-0.369479	1.095168
C133	C	1.084325	-1.036274	0.328002
C134	C	1.417658	-0.702941	0.661335
C135	C	1.750992	-0.369607	0.994668
C136	C	1.084299	-0.970532	0.327988
C137	C	1.417632	-0.637198	0.661321
C138	C	1.750965	-0.303865	0.994655
C139	C	1.134465	-0.937599	0.378226
C140	C	1.467799	-0.604266	0.711560
C141	C	1.801132	-0.270933	1.044893
C142	C	1.339089	-0.303250	0.378201
C143	C	1.672422	0.030083	0.711534
C144	C	2.005755	0.363417	1.044867
C145	C	1.426338	-0.303255	0.378210
C146	C	1.759672	0.030078	0.711543
C147	C	2.093005	0.363412	1.044877
C148	C	1.134392	-0.303192	0.582923
C149	C	1.467725	0.030142	0.916256
C150	C	1.801058	0.363475	1.249589
C151	C	1.134412	-0.303172	0.670173
C152	C	1.467745	0.030161	1.003506
C153	C	1.801079	0.363495	1.336839
C154	C	1.134466	-0.139048	0.378235
C155	C	1.467799	0.194285	0.711569
C156	C	1.801133	0.527619	1.044902
C157	C	1.134518	-0.069080	0.378260
C158	C	1.467851	0.264254	0.711593
C159	C	1.801185	0.597587	1.044926
C160	C	1.134342	-0.303239	0.174231
C161	C	1.467676	0.030094	0.507564
C162	C	1.801009	0.363428	0.840897
C163	C	1.134474	-0.303081	0.086981
C164	C	1.467807	0.030252	0.420315
C165	C	1.801141	0.363585	0.753648
C166	C	1.184650	-0.262910	0.711183
C167	C	1.517983	0.070423	1.044517
C168	C	1.851316	0.403757	1.377850
C169	C	1.184659	-0.262889	0.793164
C170	C	1.517992	0.070444	1.126497
C171	C	1.851326	0.403778	1.459831
C172	C	1.134434	-0.303134	0.834132
C173	C	1.467768	0.030200	1.167465
C174	C	1.801101	0.363533	1.500799
C175	C	1.084191	-0.343397	0.793116
C176	C	1.417525	-0.010064	1.126449
C177	C	1.750858	0.323269	1.459782
C178	C	1.084178	-0.343415	0.711137
C179	C	1.417512	-0.010081	1.044470
C180	C	1.750845	0.323252	1.377803
C181	C	1.084223	-0.343360	0.963986
C182	C	1.417556	-0.010026	1.297319
C183	C	1.750890	0.323307	1.630652
C184	C	1.084237	-0.343343	1.045970
C185	C	1.417570	-0.010010	1.379304
C186	C	1.750903	0.323323	1.712637
C187	C	1.184703	-0.262834	1.046013
C188	C	1.518037	0.070499	1.379346
C189	C	1.851370	0.403833	1.712680
C190	C	1.184691	-0.262851	0.964034
C191	C	1.518024	0.070482	1.297367
C192	C	1.851357	0.403815	1.630701
C193	C	1.134448	-0.303116	0.923023
C194	C	1.467782	0.030217	1.256357
C195	C	1.801115	0.363551	1.589690
H196	H	0.433953	-0.376389	0.469124
H197	H	0.767286	-0.043056	0.802458
H198	H	1.100620	0.290277	1.135791
Cl199	Cl	0.853688	-0.212243	0.265067
Cl200	Cl	1.187021	0.121090	0.598401
Cl201	Cl	1.520354	0.454424	0.931734
H202	H	0.433953	-0.230115	0.287310
H203	H	0.767287	0.103218	0.620643
H204	H	1.100620	0.436551	0.953976
Cl205	Cl	1.247523	-0.528162	0.491557
Cl206	Cl	1.580856	-0.194828	0.824891
Cl207	Cl	1.914190	0.138505	1.158224
H208	H	1.043338	-0.376113	1.079324
H209	H	1.376671	-0.042779	1.412658
H210	H	1.710004	0.290554	1.745991
H211	H	1.043236	-0.542983	0.286992
H212	H	1.376569	-0.209650	0.620325
H213	H	1.709903	0.123684	0.953658
Cl214	Cl	0.600837	-0.212257	0.265090
Cl215	Cl	0.934171	0.121076	0.598423
Cl216	Cl	1.267504	0.454409	0.931756
H217	H	1.225542	-1.062851	0.469422
H218	H	1.558875	-0.729517	0.802755
H219	H	1.892208	-0.396184	1.136089
H220	H	1.225496	-0.943587	0.469390
H221	H	1.558830	-0.610254	0.802723
H222	H	1.892163	-0.276920	1.136057
Cl223	Cl	0.668649	-0.212251	0.265091
Cl224	Cl	1.001982	0.121082	0.598424
Cl225	Cl	1.335316	0.454415	0.931757
Cl226	Cl	0.600839	-0.394238	0.491291
Cl227	Cl	0.934172	-0.060905	0.824625
Cl228	Cl	1.267506	0.272429	1.157958
Cl229	Cl	1.247594	-0.676546	0.491582
Cl230	Cl	1.580927	-0.343212	0.824915
Cl231	Cl	1.914261	-0.009879	1.158249
H232	H	1.043485	-1.063092	0.287099
H233	H	1.376818	-0.729759	0.620432
H234	H	1.710151	-0.396426	0.953765
Cl235	Cl	1.021201	-0.929294	0.264816
Cl236	Cl	1.354534	-0.595960	0.598149
Cl237	Cl	1.687868	-0.262627	0.931483
Cl238	Cl	1.247797	-0.212317	0.659689
Cl239	Cl	1.581130	0.121016	0.993022
Cl240	Cl	1.914464	0.454350	1.326355
H241	H	1.043302	-0.662255	0.287017
H242	H	1.376635	-0.328921	0.620350
H243	H	1.709969	0.004412	0.953683
Cl244	Cl	1.247852	-0.212300	0.844717
Cl245	Cl	1.581186	0.121034	1.178050
Cl246	Cl	1.914519	0.454367	1.511384
Cl247	Cl	1.021059	-0.393978	0.912430
Cl248	Cl	1.354393	-0.060645	1.245764
Cl249	Cl	1.687726	0.272689	1.579097
Cl250	Cl	1.247836	-0.212261	0.912532
Cl251	Cl	1.581169	0.121072	1.245866
Cl252	Cl	1.914502	0.454406	1.579199
H253	H	1.225611	-0.230048	1.079408
H254	H	1.558945	0.103285	1.412742
H255	H	1.892278	0.436619	1.746075
H256	H	1.043295	-0.376163	0.826478
H257	H	1.376628	-0.042830	1.159812
H258	H	1.709961	0.290504	1.493145
Cl259	Cl	1.021018	-0.394030	0.659580
Cl260	Cl	1.354351	-0.060697	0.992913
Cl261	Cl	1.687684	0.272637	1.326246
H262	H	0.835528	-0.376372	0.469075
H263	H	1.168861	-0.043039	0.802408
H264	H	1.502195	0.290294	1.135741
H265	H	0.686810	-0.376375	0.469095
H266	H	1.020143	-0.043042	0.802428
H267	H	1.353476	0.290292	1.135762
