data_functionalizedCrystal
_audit_creation_method	'MofGen! by Chris Wilmer'
_symmetry_space_group_name_H-M	'P1'
_symmetry_Int_Tables_number	1
_symmetry_cell_setting	triclinic
loop_
_symmetry_equiv_pos_as_xyz
  x,y,z
_cell_length_a	17.077404
_cell_length_b	16.959454
_cell_length_c	17.077383
_cell_angle_alpha	89.913786
_cell_angle_beta	89.941178
_cell_angle_gamma	90.020300
loop_
_atom_site_label
_atom_site_type_symbol
_atom_site_fract_x
_atom_site_fract_y
_atom_site_fract_z
Zn1	Zn	1.200375	-0.314197	-0.443864
Zn2	Zn	1.700375	0.185803	0.056136
Zn3	Zn	1.200198	-0.446527	-0.312606
Zn4	Zn	1.700198	0.053473	0.187394
Zn5	Zn	1.069016	-0.314367	-0.312612
Zn6	Zn	1.569016	0.185633	0.187388
Zn7	Zn	1.069081	-0.446338	-0.443830
Zn8	Zn	1.569081	0.053662	0.056170
O9	O	1.134668	-0.380357	-0.378228
O10	O	1.634668	0.119643	0.121772
O11	O	1.310198	-0.331759	-0.426464
O12	O	1.810198	0.168241	0.073536
O13	O	1.182696	-0.429145	-0.202760
O14	O	1.682696	0.070855	0.297240
O15	O	1.086488	-0.203733	-0.330039
O16	O	1.586488	0.296267	0.169961
O17	O	1.310068	-0.428981	-0.330030
O18	O	1.810068	0.071019	0.169970
O19	O	1.182997	-0.203609	-0.426470
O20	O	1.682997	0.296391	0.073530
O21	O	1.086317	-0.332048	-0.202764
O22	O	1.586317	0.167952	0.297236
O23	O	0.959178	-0.331865	-0.330006
O24	O	1.459178	0.168135	0.169994
O25	O	1.086598	-0.428659	-0.553682
O26	O	1.586598	0.071341	-0.053682
O27	O	0.959225	-0.428824	-0.426412
O28	O	1.459225	0.071176	0.073588
O29	O	1.183059	-0.331576	-0.553707
O30	O	1.683059	0.168424	-0.053707
O31	O	1.182758	-0.557113	-0.329997
O32	O	1.682758	-0.057113	0.170003
O33	O	1.086427	-0.556974	-0.426407
O34	O	1.586427	-0.056974	0.073593
C35	C	0.930720	-0.380343	-0.378207
C36	C	1.430720	0.119657	0.121793
C37	C	0.843470	-0.380356	-0.378216
C38	C	1.343470	0.119644	0.121784
C39	C	0.802525	-0.430919	-0.428334
C40	C	1.302525	0.069081	0.071666
C41	C	0.720544	-0.430920	-0.428346
C42	C	1.220544	0.069080	0.071654
C43	C	0.679511	-0.380363	-0.378236
C44	C	1.179511	0.119637	0.121764
C45	C	0.720461	-0.329794	-0.328116
C46	C	1.220461	0.170206	0.171884
C47	C	0.802440	-0.329789	-0.328108
C48	C	1.302440	0.170211	0.171892
C49	C	0.549591	-0.329810	-0.328135
C50	C	1.049591	0.170190	0.171865
C51	C	0.467607	-0.329816	-0.328142
C52	C	0.967607	0.170184	0.171858
C53	C	0.467696	-0.430941	-0.428373
C54	C	0.967696	0.069059	0.071627
C55	C	0.549674	-0.430936	-0.428365
C56	C	1.049674	0.069064	0.071635
C57	C	0.590620	-0.380368	-0.378244
C58	C	1.090620	0.119632	0.121756
C59	C	1.134602	-0.585723	-0.378215
C60	C	1.634602	-0.085723	0.121785
C61	C	1.134645	-0.673580	-0.378235
C62	C	1.634645	-0.173580	0.121765
C63	C	1.084581	-1.045013	-0.428423
C64	C	1.584581	-0.545013	0.071577
C65	C	1.184973	-1.045098	-0.328113
C66	C	1.684973	-0.545098	0.171887
C67	C	1.184946	-0.962552	-0.328106
C68	C	1.684946	-0.462552	0.171894
C69	C	1.134734	-0.921233	-0.378257
C70	C	1.634734	-0.421233	0.121743
C71	C	1.084550	-0.962460	-0.428416
C72	C	1.584550	-0.462460	0.071584
C73	C	1.235123	-0.921319	-0.277942
C74	C	1.735123	-0.421319	0.222058
C75	C	1.235097	-0.838768	-0.277933
C76	C	1.735097	-0.338768	0.222067
C77	C	1.184889	-0.797447	-0.328089
C78	C	1.684889	-0.297447	0.171911
C79	C	1.134704	-0.838679	-0.378250
C80	C	1.634704	-0.338679	0.121750
C81	C	1.084492	-0.797360	-0.428401
C82	C	1.584492	-0.297360	0.071599
C83	C	1.034310	-0.838591	-0.478567
C84	C	1.534310	-0.338591	0.021433
C85	C	1.034342	-0.921139	-0.478572
C86	C	1.534342	-0.421139	0.021428
C87	C	1.184857	-0.714899	-0.328084
C88	C	1.684857	-0.214899	0.171916
C89	C	1.084461	-0.714807	-0.428394
C90	C	1.584461	-0.214807	0.071606
C91	C	1.339412	-0.380372	-0.378250
C92	C	1.839412	0.119628	0.121750
C93	C	1.426662	-0.380378	-0.378260
C94	C	1.926662	0.119622	0.121740
C95	C	1.134856	-0.380078	-0.582973
C96	C	1.634856	0.119922	-0.082973
C97	C	1.134936	-0.379959	-0.670223
C98	C	1.634936	0.120041	-0.170223
C99	C	1.134755	-0.174189	-0.378259
C100	C	1.634755	0.325811	0.121741
C101	C	1.134792	-0.086332	-0.378272
C102	C	1.634792	0.413668	0.121728
C103	C	1.134525	-0.380579	-0.174280
C104	C	1.634525	0.119421	0.325720
C105	C	1.134597	-0.380475	-0.087030
C106	C	1.634597	0.119525	0.412970
C107	C	1.084776	-0.431337	-0.045814
C108	C	1.584776	0.068663	0.454186
C109	C	1.084839	-0.431233	0.036166
C110	C	1.584839	0.068767	0.536166
C111	C	1.134727	-0.380270	0.076929
C112	C	1.634727	0.119730	0.576929
C113	C	1.184551	-0.329402	0.035706
C114	C	1.684551	0.170598	0.535706
C115	C	1.184484	-0.329503	-0.046272
C116	C	1.684484	0.170497	0.453728
C117	C	1.184689	-0.329197	0.206576
C118	C	1.684689	0.170803	0.706576
C119	C	1.184757	-0.329097	0.288560
C120	C	1.684757	0.170903	0.788560
C121	C	1.085044	-0.430926	0.289015
C122	C	1.585044	0.069074	0.789015
C123	C	1.084977	-0.431027	0.207036
C124	C	1.584977	0.068973	0.707036
C125	C	1.134801	-0.380160	0.165819
C126	C	1.634801	0.119840	0.665819
H127	H	0.582926	-0.288625	-0.287328
H128	H	1.082926	0.211375	0.212672
N129	N	0.980214	-0.965605	-0.532670
N130	N	1.480214	-0.465605	-0.032670
H131	H	1.012127	-0.999778	-0.569078
H132	H	1.512127	-0.499778	-0.069078
H133	H	0.943857	-0.999882	-0.500677
H134	H	1.443857	-0.499882	-0.000677
N135	N	0.676202	-0.275279	-0.274057
N136	N	1.176202	0.224721	0.225943
H137	H	0.642224	-0.238657	-0.306011
H138	H	1.142224	0.261343	0.193989
H139	H	0.642194	-0.307471	-0.237647
H140	H	1.142194	0.192529	0.262353
H141	H	1.225168	-0.287904	0.068902
H142	H	1.725168	0.212096	0.568902
H143	H	1.043726	-1.078587	-0.469269
H144	H	1.543726	-0.578587	0.030731
N145	N	0.846606	-0.275248	-0.274058
N146	N	1.346606	0.224752	0.225942
H147	H	0.808174	-0.243221	-0.242315
H148	H	1.308174	0.256779	0.257685
H149	H	0.880573	-0.307409	-0.237673
H150	H	1.380573	0.192591	0.262327
H151	H	0.993424	-0.804940	-0.519398
H152	H	1.493424	-0.304940	-0.019398
N153	N	1.289261	-0.965881	-0.223838
N154	N	1.789261	-0.465881	0.276162
H155	H	1.281664	-1.024431	-0.231455
H156	H	1.781664	-0.524431	0.268545
H157	H	1.345323	-0.951397	-0.236091
H158	H	1.845323	-0.451397	0.263909
N159	N	1.238218	-0.274639	-0.090725
N160	N	1.738218	0.225361	0.409275
H161	H	1.294399	-0.286488	-0.076532
H162	H	1.794399	0.213512	0.423468
H163	H	1.230539	-0.282455	-0.148829
H164	H	1.730539	0.217545	0.351171
N165	N	1.239131	-1.089651	-0.274022
N166	N	1.739131	-0.589651	0.225978
H167	H	1.226929	-1.075380	-0.217924
H168	H	1.726929	-0.575380	0.282076
H169	H	1.231514	-1.148189	-0.281698
H170	H	1.731514	-0.648189	0.218302
N171	N	0.423348	-0.275312	-0.274069
N172	N	0.923348	0.224688	0.225931
H173	H	0.365202	-0.283005	-0.281668
H174	H	0.865202	0.216995	0.218332
H175	H	0.437630	-0.287630	-0.217996
H176	H	0.937630	0.212370	0.282004
H177	H	1.275959	-0.805203	-0.237086
H178	H	1.775959	-0.305203	0.262914
H179	H	0.835929	-0.472091	-0.469137
H180	H	1.335929	0.027909	0.030863
H181	H	0.687211	-0.472094	-0.469157
H182	H	1.187211	0.027906	0.030843
H183	H	1.225711	-0.681333	-0.287236
H184	H	1.725711	-0.181333	0.212764
N185	N	0.423537	-0.485485	-0.482430
N186	N	0.923537	0.014515	0.017570
H187	H	0.437873	-0.473230	-0.538537
H188	H	0.937873	0.026770	-0.038537
H189	H	0.437795	-0.541933	-0.470063
H190	H	0.937795	-0.041933	0.029937
H191	H	1.044278	-0.472658	0.069721
H192	H	1.544278	0.027342	0.569721
N193	N	1.030972	-0.486309	-0.089776
N194	N	1.530972	0.013691	0.410224
H195	H	0.999419	-0.518513	-0.051223
H196	H	1.499419	-0.018513	0.448777
H197	H	0.994399	-0.454441	-0.123809
H198	H	1.494399	0.045559	0.376191
N199	N	1.030307	-0.670243	-0.482490
N200	N	1.530307	-0.170243	0.017510
H201	H	0.998525	-0.708890	-0.514268
H202	H	1.498525	-0.208890	-0.014268
H203	H	0.993962	-0.636074	-0.450501
H204	H	1.493962	-0.136074	0.049499
N205	N	1.031174	-0.485993	0.163064
N206	N	1.531174	0.014007	0.663064
H207	H	1.043759	-0.542363	0.177459
H208	H	1.543759	-0.042363	0.677459
H209	H	0.975037	-0.474040	0.177416
H210	H	1.475037	0.025960	0.677416
H211	H	1.044474	-0.472343	0.322577
H212	H	1.544474	0.027657	0.822577
H213	H	0.583082	-0.472109	-0.469165
H214	H	1.083082	0.027891	0.030835
H215	H	1.225377	-0.287594	0.321747
H216	H	1.725377	0.212406	0.821747
H217	H	1.225256	-0.287770	0.173020
H218	H	1.725256	0.212230	0.673020
