data_functionalizedCrystal
_audit_creation_method	'MofGen! by Chris Wilmer'
_symmetry_space_group_name_H-M	'P1'
_symmetry_Int_Tables_number	1
_symmetry_cell_setting	triclinic
loop_
_symmetry_equiv_pos_as_xyz
  x,y,z
_cell_length_a	16.120530
_cell_length_b	12.759394
_cell_length_c	12.759387
_cell_angle_alpha	90.031660
_cell_angle_beta	87.079824
_cell_angle_gamma	92.889523
loop_
_atom_site_label
_atom_site_type_symbol
_atom_site_fract_x
_atom_site_fract_y
_atom_site_fract_z
Zn1	Zn	1.274636	0.499763	-0.675420
Zn2	Zn	1.274549	0.675475	-0.499733
Zn3	Zn	1.135210	0.490895	-0.490851
Zn4	Zn	1.135204	0.666480	-0.666471
O5	O	1.204900	0.583153	-0.583119
O6	O	1.391292	0.530547	-0.659578
O7	O	1.256032	0.651043	-0.351531
O8	O	1.153744	0.345053	-0.515363
O9	O	1.391228	0.659642	-0.530501
O10	O	1.256180	0.351568	-0.650965
O11	O	1.153660	0.515433	-0.345006
O12	O	1.018542	0.506711	-0.506685
O13	O	1.153733	0.644311	-0.814681
O14	O	1.018537	0.635712	-0.635712
O15	O	1.256174	0.521825	-0.821257
O16	O	1.256026	0.821300	-0.521822
O17	O	1.153649	0.814692	-0.644324
C18	C	1.204850	0.856117	-0.583090
C19	C	1.204905	0.972898	-0.583118
C20	C	0.988289	0.569274	-0.569264
C21	C	0.895622	0.563362	-0.563362
C22	C	1.204963	0.583054	-0.857156
C23	C	1.204990	0.583012	-0.973935
C24	C	0.725959	0.552543	-0.552595
C25	C	0.684681	0.613840	-0.613719
C26	C	0.590274	0.607821	-0.607728
C27	C	0.820374	0.558562	-0.558584
C28	C	1.422356	0.597087	-0.597028
C29	C	1.515023	0.603025	-0.602956
C30	C	1.204973	0.309124	-0.583172
C31	C	1.205004	0.192350	-0.583194
C32	C	1.311589	0.979731	-0.455663
C33	C	1.364953	1.038010	-0.391949
C34	C	1.365002	1.147734	-0.391980
C35	C	1.311683	1.199182	-0.455735
C36	C	1.258319	1.140904	-0.519449
C37	C	1.258274	1.031177	-0.519408
C38	C	1.151640	1.134071	-0.646908
C39	C	1.151585	1.024346	-0.646873
C40	C	1.098321	1.185519	-0.710663
C41	C	1.044951	1.127240	-0.774373
C42	C	1.044904	1.017509	-0.774338
C43	C	1.098221	0.966067	-0.710586
C44	C	1.311668	0.455477	-0.980802
C45	C	1.365019	0.391694	-1.039097
C46	C	1.365039	0.391657	-1.148820
C47	C	1.311701	0.455407	-1.200250
C48	C	1.258350	0.519190	-1.141955
C49	C	1.258338	0.519222	-1.032230
C50	C	1.151669	0.646718	-1.135087
C51	C	1.151651	0.646762	-1.025365
C52	C	1.098331	0.710468	-1.186517
C53	C	1.044983	0.774258	-1.128222
C54	C	1.044965	0.774293	-1.018493
C55	C	1.098300	0.710545	-0.967069
C56	C	1.204885	0.583179	-0.310150
C57	C	1.205020	0.582936	-0.193383
H58	H	0.720243	0.670838	-0.670550
C59	C	0.986204	0.953411	-0.844438
N60	N	0.941992	0.905136	-0.897241
C61	C	0.677918	0.475550	-0.475820
N62	N	0.641724	0.417563	-0.417992
C63	C	1.311656	0.455519	-0.860104
N64	N	1.311649	0.455548	-0.769193
H65	H	1.098368	1.274863	-0.710689
H66	H	1.311544	0.890387	-0.455616
H67	H	1.408367	0.996111	-0.340042
C68	C	1.423705	1.211843	-0.321892
N69	N	1.467918	1.260129	-0.269100
H70	H	1.001555	0.826152	-1.170105
H71	H	1.311735	1.288527	-0.455765
H72	H	1.001547	1.169138	-0.826282
H73	H	1.098182	0.876724	-0.710544
C74	C	1.423687	0.321571	-0.982516
N75	N	1.467875	0.268753	-0.939902
C76	C	1.098285	0.710576	-0.846372
N77	N	1.098273	0.710592	-0.755460
C78	C	1.311727	0.455363	-1.320949
N79	N	1.311749	0.455335	-1.411860
C80	C	1.098361	0.710435	-1.307216
N81	N	1.098389	0.710418	-1.398128
H82	H	1.001511	0.826221	-0.971034
H83	H	1.408477	0.339713	-1.196284
