data_functionalizedCrystal
_audit_creation_method	'MofGen! by Chris Wilmer'
_symmetry_space_group_name_H-M	'P1'
_symmetry_Int_Tables_number	1
_symmetry_cell_setting	triclinic
loop_
_symmetry_equiv_pos_as_xyz
  x,y,z
_cell_length_a	17.038275
_cell_length_b	15.500227
_cell_length_c	10.654541
_cell_angle_alpha	87.144157
_cell_angle_beta	92.202144
_cell_angle_gamma	86.957127
loop_
_atom_site_label
_atom_site_type_symbol
_atom_site_fract_x
_atom_site_fract_y
_atom_site_fract_z
O1	O	-1.042490	0.071818	0.267433
O2	O	-0.542490	0.571818	0.767433
O3	O	-0.814837	0.071847	0.263098
O4	O	-0.314837	0.571847	0.763098
O5	O	-0.933899	0.071827	0.083013
O6	O	-0.433899	0.571827	0.583013
O7	O	-0.923429	0.071839	0.447518
O8	O	-0.423429	0.571839	0.947518
O9	O	-0.926673	-0.072061	0.093895
O10	O	-0.426673	0.427939	0.593895
O11	O	-0.807612	-0.072040	0.273980
O12	O	-0.307612	0.427960	0.773980
O13	O	-1.035265	-0.072069	0.278315
O14	O	-0.535265	0.427931	0.778315
Cu15	Cu	-0.920779	-0.085193	0.277141
Cu16	Cu	-0.420779	0.414807	0.777141
Cu17	Cu	-0.929323	0.084971	0.264272
Cu18	Cu	-0.429323	0.584971	0.764272
O19	O	-0.916203	-0.072049	0.458401
O20	O	-0.416203	0.427951	0.958401
C21	C	-0.782074	-0.000093	0.264598
C22	C	-0.282074	0.499907	0.764598
C23	C	-0.695216	-0.000082	0.252839
C24	C	-0.195216	0.499918	0.752839
N25	N	-0.914775	-0.204877	0.286193
N26	N	-0.414775	0.295123	0.786193
C27	C	-0.645705	-0.000078	0.360783
C28	C	-0.145705	0.499922	0.860783
C29	C	-0.564092	-0.000089	0.349729
C30	C	-0.064092	0.499911	0.849729
C31	C	-0.531993	-0.000098	0.230730
C32	C	-0.031993	0.499902	0.730730
C33	C	-0.581511	-0.000104	0.122778
C34	C	-0.081511	0.499896	0.622778
C35	C	-0.663121	-0.000099	0.133834
C36	C	-0.163121	0.499901	0.633834
C37	C	-0.286016	-0.000118	0.191673
C38	C	0.213984	0.499882	0.691673
C39	C	-0.204399	-0.000120	0.180625
C40	C	0.295601	0.499880	0.680625
C41	C	-0.186986	-0.000107	0.407577
C42	C	0.313014	0.499893	0.907577
C43	C	-0.268599	-0.000097	0.418622
C44	C	0.231401	0.499903	0.918622
C45	C	-0.318110	-0.000108	0.310671
C46	C	0.181890	0.499892	0.810671
C47	C	-0.448572	-0.000106	0.219428
C48	C	0.051428	0.499894	0.719428
C49	C	-0.401529	-0.000106	0.321974
C50	C	0.098471	0.499894	0.821974
C51	C	-0.965243	-0.250162	0.209916
C52	C	-0.465243	0.249838	0.709916
C53	C	-0.960709	-0.340734	0.216774
C54	C	-0.460709	0.159266	0.716774
C55	C	-0.905711	-0.386019	0.299916
C56	C	-0.405711	0.113981	0.799916
C57	C	-0.855237	-0.340727	0.376195
C58	C	-0.355237	0.159273	0.876195
C59	C	-0.859767	-0.250157	0.369330
C60	C	-0.359767	0.249843	0.869330
C61	C	-0.889390	-0.659483	0.324625
C62	C	-0.389390	-0.159483	0.824625
C63	C	-0.884865	-0.750060	0.331488
C64	C	-0.384865	-0.250060	0.831488
C65	C	-0.990337	-0.750060	0.172064
C66	C	-0.490337	-0.250060	0.672064
C67	C	-0.994866	-0.659488	0.165212
C68	C	-0.494866	-0.159488	0.665212
C69	C	-0.944389	-0.614204	0.241486
C70	C	-0.444389	-0.114204	0.741486
C71	C	-0.901077	-0.478598	0.306930
C72	C	-0.401077	0.021402	0.806930
C73	C	-0.949020	-0.521627	0.234465
C74	C	-0.449020	-0.021627	0.734465
C75	C	-0.068028	-0.000123	0.276814
C76	C	0.431972	0.499877	0.776814
C77	C	-0.154887	-0.000117	0.288569
C78	C	0.345113	0.499883	0.788569
C79	C	-0.929518	-0.000116	0.041584
C80	C	-0.429518	0.499884	0.541584
C81	C	-0.927219	-0.000115	-0.098073
C82	C	-0.427219	0.499885	0.401927
N83	N	-0.935334	0.204655	0.255211
N84	N	-0.435334	0.704655	0.755211
C85	C	-1.069589	-0.000144	-0.112821
C86	C	-0.569589	0.499856	0.387179
C87	C	-1.139691	-0.000160	-0.185805
C88	C	-0.639691	0.499840	0.314195
C89	C	-1.137526	-0.000157	-0.317024
C90	C	-0.637526	0.499843	0.182976
C91	C	-1.065252	-0.000135	-0.375262
C92	C	-0.565252	0.499865	0.124738
C93	C	-0.995150	-0.000119	-0.302279
C94	C	-0.495150	0.499881	0.197721
C95	C	-0.997322	-0.000125	-0.171057
C96	C	-0.497322	0.499875	0.328943
C97	C	-0.852782	-0.000084	-0.287531
C98	C	-0.352782	0.499916	0.212469
C99	C	-0.854945	-0.000093	-0.156311
C100	C	-0.354945	0.499907	0.343689
C101	C	-0.780508	-0.000062	-0.345769
C102	C	-0.280508	0.499938	0.154231
C103	C	-0.710404	-0.000052	-0.272785
C104	C	-0.210404	0.499948	0.227215
C105	C	-0.712572	-0.000056	-0.141558
C106	C	-0.212572	0.499944	0.358442
C107	C	-0.784843	-0.000077	-0.083328
C108	C	-0.284843	0.499923	0.416672
C109	C	-0.920585	-0.000104	0.499829
C110	C	-0.420585	0.499896	0.999829
C111	C	-0.922884	-0.000100	0.639485
C112	C	-0.422884	0.499900	1.139485
H113	H	-0.671833	-0.000071	0.457685
H114	H	-0.171833	0.499929	0.957685
H115	H	-0.326318	-0.000127	0.103770
H116	H	0.173682	0.499873	0.603770
H117	H	-0.993797	-0.484753	0.166766
H118	H	-0.493797	0.015247	0.666766
H119	H	-0.778751	-0.000054	-0.452616
H120	H	-0.278751	0.499946	0.047384
Cl121	Cl	-0.441883	-0.000098	0.471569
Cl122	Cl	0.058117	0.499902	0.971569
Cl123	Cl	-1.034392	-0.193242	0.105396
Cl124	Cl	-0.534392	0.306758	0.605396
H125	H	-0.422426	-0.000137	0.122540
H126	H	0.077574	0.499863	0.622540
Cl127	Cl	-1.062536	-0.000073	-0.540229
Cl128	Cl	-0.562536	0.499927	-0.040229
Cl129	Cl	-1.024156	-0.397666	0.120881
Cl130	Cl	-0.524156	0.102334	0.620881
Cl131	Cl	-0.624438	-0.000029	-0.049819
Cl132	Cl	-0.124438	0.499971	0.450181
H133	H	-1.039650	-0.622619	0.097512
H134	H	-0.539650	-0.122619	0.597512
H135	H	-0.294728	-0.000080	0.515523
H136	H	0.205272	0.499920	1.015523
Cl137	Cl	-1.053787	-0.806992	0.076177
Cl138	Cl	-0.553787	-0.306992	0.576177
Cl139	Cl	-0.815718	-0.806984	0.436021
Cl140	Cl	-0.315718	-0.306984	0.936021
H141	H	-0.848292	-0.622620	0.386734
H142	H	-0.348292	-0.122620	0.886734
Cl143	Cl	-0.786091	-0.397655	0.480711
Cl144	Cl	-0.286091	0.102345	0.980711
H145	H	-0.523782	-0.000085	0.437629
H146	H	-0.023782	0.499915	0.937629
H147	H	-0.786614	-0.000085	0.023517
H148	H	-0.286614	0.499915	0.523517
Cl149	Cl	-1.072315	-0.000167	0.052142
Cl150	Cl	-0.572315	0.499833	0.552142
H151	H	-0.146666	-0.000100	0.495465
H152	H	0.353334	0.499900	0.995465
Cl153	Cl	-0.796315	-0.193228	0.465220
Cl154	Cl	-0.296315	0.306772	0.965220
H155	H	-0.856297	-0.515477	0.374628
H156	H	-0.356297	-0.015477	0.874628
H157	H	-1.198535	-0.000185	-0.138372
H158	H	-0.698535	0.499815	0.361628
Cl159	Cl	-0.164046	-0.000150	0.031016
Cl160	Cl	0.335954	0.499850	0.531016
H161	H	-1.194609	-0.000163	-0.376448
H162	H	-0.694609	0.499837	0.123552
Cl163	Cl	-0.541157	-0.000120	-0.026822
Cl164	Cl	-0.041157	0.499880	0.473178
H165	H	-0.703434	-0.000101	0.045934
H166	H	-0.203434	0.499899	0.545934
Cl167	Cl	-0.619556	-0.000014	-0.346006
Cl168	Cl	-0.119556	0.499986	0.153994
