data_functionalizedCrystal
_audit_creation_method	'MofGen! by Chris Wilmer'
_symmetry_space_group_name_H-M	'P1'
_symmetry_Int_Tables_number	1
_symmetry_cell_setting	triclinic
loop_
_symmetry_equiv_pos_as_xyz
  x,y,z
_cell_length_a	10.654550
_cell_length_b	23.532407
_cell_length_c	9.130313
_cell_angle_alpha	89.994125
_cell_angle_beta	89.996220
_cell_angle_gamma	83.666790
loop_
_atom_site_label
_atom_site_type_symbol
_atom_site_fract_x
_atom_site_fract_y
_atom_site_fract_z
O1	O	1.665300	0.079982	-0.121936
O2	O	1.299580	0.087603	-0.121914
O3	O	1.493468	0.000933	-0.121899
O4	O	1.471412	0.166652	-0.121952
O5	O	1.493466	0.000935	0.121700
O6	O	1.299578	0.087605	0.121684
O7	O	1.665298	0.079985	0.121662
Cu8	Cu	1.482437	0.083795	0.143916
Cu9	Cu	1.482440	0.083792	-0.144168
O10	O	1.471409	0.166655	0.121647
C11	C	1.252799	0.087044	-0.000112
C12	C	1.113408	0.085370	-0.000102
C13	C	1.032306	0.136400	-0.000140
C14	C	0.901335	0.134824	-0.000165
C15	C	0.932582	0.031183	-0.000121
C16	C	1.063550	0.032760	-0.000085
C17	C	1.014265	0.196236	-0.000172
C18	C	0.883294	0.194660	-0.000196
C19	C	1.492905	-0.020286	-0.000096
C20	C	1.491217	-0.083514	-0.000085
C21	C	1.595364	-0.481938	-0.000171
C22	C	1.593795	-0.541349	-0.000182
O23	O	1.690341	-0.577464	-0.000242
N24	N	1.478529	-0.564726	-0.000174
C25	C	1.364824	-0.528689	-0.000170
O26	O	1.266636	-0.554029	-0.000166
C27	C	1.366394	-0.469280	-0.000170
C28	C	1.481668	-0.445906	-0.000163
C29	C	1.710629	-0.458564	-0.000166
C30	C	1.712197	-0.399158	-0.000152
C31	C	1.598500	-0.363126	-0.000144
C32	C	1.483236	-0.386500	-0.000149
C33	C	1.252690	-0.433244	-0.000176
C34	C	1.254270	-0.373832	-0.000177
C35	C	1.369544	-0.350458	-0.000170
C36	C	1.371107	-0.291061	-0.000127
N37	N	1.486374	-0.267684	-0.000135
C38	C	1.600070	-0.303716	-0.000143
C39	C	1.361535	-0.653453	-0.000174
C40	C	1.359964	-0.712861	-0.000164
C41	C	1.588936	-0.725517	-0.000179
C42	C	1.590506	-0.666108	-0.000178
C43	C	1.476802	-0.630076	-0.000182
C44	C	1.603355	-0.178958	-0.000113
C45	C	1.604913	-0.119546	-0.000093
C46	C	1.375942	-0.106896	-0.000086
C47	C	1.374383	-0.166303	-0.000098
C48	C	1.488100	-0.202333	-0.000117
O49	O	1.274613	-0.254911	-0.000073
O50	O	1.698241	-0.278369	-0.000167
C51	C	1.712079	0.080543	-0.000143
C52	C	1.851469	0.082217	-0.000163
C53	C	1.471972	0.187873	-0.000159
C54	C	1.473661	0.251101	-0.000180
N55	N	1.482445	0.083797	0.346539
N56	N	1.482443	0.083786	-0.346791
C57	C	1.568320	0.045432	0.423197
C58	C	1.568317	0.045425	0.576534
C59	C	1.396559	0.122152	0.576540
C60	C	1.396557	0.122156	0.423206
C61	C	1.667487	0.001136	0.423195
C62	C	1.667483	0.001129	0.576532
H63	H	0.840848	0.217204	-0.102157
H64	H	1.647430	-0.042635	0.381590
H65	H	0.837048	0.212744	0.104966
H66	H	1.266096	-0.731887	-0.000144
H67	H	1.763686	0.010887	0.618139
H68	H	1.129581	-0.008793	-0.000034
C69	C	0.745690	-0.017253	-0.000155
C70	C	0.877773	-0.026644	-0.000117
H71	H	0.711859	-0.052955	-0.000163
H72	H	0.717796	0.003776	0.084777
H73	H	0.717840	0.003780	-0.085121
H74	H	0.905624	-0.047674	0.084855
H75	H	0.905678	-0.047683	-0.085057
C76	C	1.829843	-0.185484	-0.000106
C77	C	1.728354	-0.218557	-0.000120
H78	H	1.907009	-0.209932	-0.000094
H79	H	1.825692	-0.162046	-0.085046
H80	H	1.825667	-0.162052	0.084851
H81	H	1.732525	-0.241986	-0.085083
H82	H	1.732507	-0.242005	0.084829
H83	H	1.049317	0.215288	-0.105349
H84	H	1.681514	-0.754865	-0.000191
C85	C	1.809931	-0.555252	-0.000180
C86	C	1.835618	-0.498166	-0.000177
H87	H	1.887102	-0.579696	-0.000190
H88	H	1.762645	-0.562392	0.084763
H89	H	1.762642	-0.562383	-0.085134
H90	H	1.882900	-0.491033	0.084783
H91	H	1.882924	-0.491022	-0.085129
C92	C	0.945293	0.245405	0.220888
C93	C	1.052873	0.227825	0.137448
H94	H	0.969133	0.264902	0.305850
H95	H	0.888256	0.270325	0.164230
H96	H	0.905544	0.212907	0.249192
H97	H	1.092617	0.260324	0.109135
H98	H	1.109931	0.202904	0.194116
H99	H	1.698787	-0.100519	-0.000084
H100	H	1.806065	-0.380133	-0.000153
H101	H	1.684372	-0.647081	-0.000174
C102	C	1.630041	-0.051898	0.793917
C103	C	1.628063	-0.054706	0.640757
H104	H	1.605695	-0.086366	0.833566
H105	H	1.712894	-0.046884	0.826029
H106	H	1.572858	-0.020544	0.826028
H107	H	1.685254	-0.086058	0.608646
H108	H	1.545198	-0.059727	0.608632
H109	H	1.268937	-0.624119	-0.000164
H110	H	1.158822	-0.452264	-0.000190
C111	C	1.059587	-0.344750	-0.125403
C112	C	1.129278	-0.334227	-0.000177
H113	H	0.982421	-0.320303	-0.125393
H114	H	1.106886	-0.337604	-0.210332
H115	H	1.042172	-0.383480	-0.125394
H116	H	1.146700	-0.295498	-0.000191
H117	H	1.081969	-0.341369	0.084775
C118	C	1.148212	-0.147823	-0.000098
C119	C	1.247674	-0.191999	-0.000108
H120	H	1.069988	-0.163685	-0.000126
H121	H	1.153578	-0.124926	0.084860
H122	H	1.153607	-0.124903	-0.085038
H123	H	1.242284	-0.214916	0.084838
H124	H	1.242306	-0.214904	-0.085074
H125	H	1.283373	-0.077548	-0.000074
H126	H	1.326620	0.153390	0.360792
C127	C	1.870442	0.032145	0.473172
C128	C	1.789988	0.019855	0.358964
H129	H	1.946070	0.043698	0.433513
H130	H	1.829834	0.062087	0.531716
H131	H	1.890000	-0.001020	0.531727
H132	H	1.770422	0.053021	0.300414
H133	H	1.830603	-0.010089	0.300395
C134	C	1.178753	0.154666	0.623768
C135	C	1.302156	0.164315	0.660822
H136	H	1.120474	0.180694	0.675808
H137	H	1.166472	0.160164	0.521490
H138	H	1.165619	0.116597	0.648903
H139	H	1.315294	0.202383	0.635678
H140	H	1.314442	0.158822	0.763123
