data_functionalizedCrystal
_audit_creation_method	'MofGen! by Chris Wilmer'
_symmetry_space_group_name_H-M	'P1'
_symmetry_Int_Tables_number	1
_symmetry_cell_setting	triclinic
loop_
_symmetry_equiv_pos_as_xyz
  x,y,z
_cell_length_a	19.288840
_cell_length_b	15.944551
_cell_length_c	18.366186
_cell_angle_alpha	89.992809
_cell_angle_beta	89.983729
_cell_angle_gamma	83.312377
loop_
_atom_site_label
_atom_site_type_symbol
_atom_site_fract_x
_atom_site_fract_y
_atom_site_fract_z
O1	O	0.921640	0.104683	-0.060673
O2	O	0.719414	0.118840	-0.060648
O3	O	0.826049	-0.010535	-0.060654
O4	O	0.815004	0.234059	-0.060666
O5	O	0.826031	-0.010541	0.060445
O6	O	0.719396	0.118834	0.060452
O7	O	0.921621	0.104677	0.060427
Zn8	Zn	0.820506	0.111755	0.079666
Zn9	Zn	0.820530	0.111763	-0.079887
O10	O	0.814986	0.234052	0.060433
C11	C	0.693527	0.118385	-0.000095
C12	C	0.616419	0.117028	-0.000085
C13	C	0.580223	0.116380	-0.066098
C14	C	0.507773	0.115096	-0.066107
C15	C	0.471523	0.114443	-0.000099
C16	C	0.507726	0.115096	0.065923
C17	C	0.580174	0.116389	0.065930
C18	C	0.362052	0.063193	0.050465
C19	C	0.289606	0.061895	0.050455
C20	C	0.248069	0.110459	-0.000118
C21	C	0.278987	0.160311	-0.050693
C22	C	0.351435	0.161603	-0.050686
C23	C	0.392965	0.113042	-0.000099
C24	C	0.133314	0.108420	-0.066145
C25	C	0.060862	0.107140	-0.066151
C26	C	0.060818	0.107132	0.065881
C27	C	0.133267	0.108420	0.065885
C28	C	0.169512	0.109059	-0.000130
C29	C	0.825581	-0.041830	-0.000105
C30	C	0.824207	-0.135071	-0.000104
C31	C	0.754824	-0.349653	-0.000105
C32	C	0.787034	-0.410801	0.059600
C33	C	0.821720	-0.305787	-0.000109
C34	C	0.787068	-0.410778	-0.059795
C35	C	0.819313	-0.470690	-0.000118
C36	C	0.853949	-0.365707	0.059645
C37	C	0.853973	-0.365678	-0.059803
C38	C	0.886232	-0.426808	-0.000083
C39	C	0.823105	-0.210790	-0.000104
C40	C	0.817933	-0.565686	-0.000118
C41	C	0.947508	0.105132	-0.000128
C42	C	1.024617	0.106489	-0.000143
C43	C	0.815454	0.265348	-0.000118
C44	C	0.816828	0.358588	-0.000124
N45	N	0.820494	0.111748	0.188557
N46	N	0.820546	0.111762	-0.188779
C47	C	0.867728	0.054489	0.226655
C48	C	0.867732	0.054485	0.302883
C49	C	0.820510	0.111755	0.341010
C50	C	0.773267	0.169019	0.302903
C51	C	0.773260	0.169015	0.226677
C52	C	0.811413	0.188290	0.461767
C53	C	0.811426	0.188294	0.537992
C54	C	0.820530	0.111766	0.576118
C55	C	0.829636	0.035229	0.538008
C56	C	0.829628	0.035226	0.461782
C57	C	0.820513	0.111765	0.423665
C58	C	0.867771	0.054498	0.696870
C59	C	0.867770	0.054493	0.773099
C60	C	0.773308	0.169034	0.773119
C61	C	0.773306	0.169031	0.696891
C62	C	0.820540	0.111764	0.658771
H63	H	0.609644	0.116918	0.119687
H64	H	0.803987	0.250613	0.430732
H65	H	0.906188	0.007857	0.195620
N66	N	0.725014	0.227501	0.187745
N67	N	0.681902	0.200985	0.145227
H68	H	0.647829	0.242291	0.117728
N69	N	0.725031	0.227508	0.341857
N70	N	0.725044	0.227504	0.409916
H71	H	0.690973	0.268811	0.437428
H72	H	0.376605	0.202196	-0.091865
N73	N	0.470713	0.114418	0.133355
N74	N	0.503043	0.114993	0.192293
H75	H	0.476904	0.114517	0.239921
H76	H	0.941808	-0.460187	-0.000056
N77	N	0.236557	0.209912	-0.102356
N78	N	0.171873	0.208756	-0.102355
H79	H	0.141903	0.243783	-0.138842
H80	H	0.478297	0.114569	-0.119865
N81	N	0.751569	-0.435850	-0.123108
N82	N	0.698371	-0.473100	-0.116466
H83	H	0.673296	-0.490806	-0.161177
N84	N	0.685164	-0.307600	-0.000020
N85	N	0.644671	-0.319299	0.051175
H86	H	0.595474	-0.289599	0.051238
N87	N	0.915925	-0.004067	0.657887
N88	N	0.914871	-0.081687	0.666413
H89	H	0.948848	-0.123071	0.638865
N90	N	0.617234	0.117034	-0.133535
N91	N	0.584902	0.116456	-0.192472
H92	H	0.611041	0.116918	-0.240100
H93	H	0.758732	-0.430800	0.110083
N94	N	0.404481	0.013602	0.102139
N95	N	0.395024	0.025863	0.168808
H96	H	0.424990	-0.009154	0.205304
H97	H	0.906197	0.007856	0.333907
N98	N	0.170331	0.109073	-0.133580
N99	N	0.138001	0.108501	-0.192518
H100	H	0.164142	0.108962	-0.240146
H101	H	0.162739	0.108942	0.119640
H102	H	0.264439	0.021299	0.091633
H103	H	0.031392	0.106618	-0.119909
H104	H	0.837041	-0.027093	0.430757
N105	N	0.023798	0.106490	0.133309
N106	N	-0.023037	0.164973	0.148029
H107	H	-0.049184	0.164526	0.195654
N108	N	0.889406	-0.340767	0.123032
N109	N	0.896160	-0.264645	0.133278
H110	H	0.921199	-0.247028	0.178045
N111	N	0.838916	-0.042954	0.576936
N112	N	0.796576	-0.095825	0.568436
H113	H	0.803129	-0.151042	0.595929
N114	N	0.802112	0.266462	0.576927
N115	N	0.802117	0.266456	0.644986
H116	H	0.795536	0.321663	0.672484
N117	N	0.725053	0.227527	0.657982
N118	N	0.682889	0.278655	0.692030
H119	H	0.648806	0.319969	0.664551
N120	N	0.889444	-0.340567	-0.123141
N121	N	0.866653	-0.354750	-0.185091
H122	H	0.891700	-0.337014	-0.229829
H123	H	0.906231	0.007861	0.804119
H124	H	0.734856	0.215661	0.804161
