data_functionalizedCrystal
_audit_creation_method	'MofGen! by Chris Wilmer'
_symmetry_space_group_name_H-M	'P1'
_symmetry_Int_Tables_number	1
_symmetry_cell_setting	triclinic
loop_
_symmetry_equiv_pos_as_xyz
  x,y,z
_cell_length_a	12.759401
_cell_length_b	12.759400
_cell_length_c	12.759393
_cell_angle_alpha	89.968436
_cell_angle_beta	89.981504
_cell_angle_gamma	90.014845
loop_
_atom_site_label
_atom_site_type_symbol
_atom_site_fract_x
_atom_site_fract_y
_atom_site_fract_z
Zn1	Zn	1.606255	-0.418200	-0.593981
Zn2	Zn	1.606150	-0.593919	-0.418301
Zn3	Zn	1.430557	-0.418255	-0.418321
Zn4	Zn	1.430546	-0.593838	-0.593943
O5	O	1.518377	-0.506053	-0.506137
O6	O	1.753262	-0.441520	-0.570685
O7	O	1.582818	-0.570673	-0.271283
O8	O	1.453913	-0.271226	-0.441647
O9	O	1.753185	-0.570620	-0.441614
O10	O	1.582998	-0.271186	-0.570704
O11	O	1.453811	-0.441614	-0.271297
O12	O	1.283535	-0.441535	-0.441609
O13	O	1.453894	-0.570482	-0.740969
O14	O	1.283527	-0.570536	-0.570638
O15	O	1.582987	-0.441442	-0.740997
O16	O	1.582807	-0.740929	-0.441577
O17	O	1.453791	-0.740870	-0.570620
C18	C	1.245410	-0.506033	-0.506122
C19	C	1.128633	-0.506050	-0.506141
C20	C	1.073794	-0.573328	-0.573215
C21	C	0.964070	-0.573342	-0.573227
C22	C	0.964034	-0.438796	-0.439081
C23	C	1.073756	-0.438778	-0.439075
C24	C	1.128672	-0.640600	-0.640281
C25	C	1.073833	-0.707885	-0.707360
C26	C	0.964109	-0.707898	-0.707371
C27	C	0.909224	-0.640627	-0.640304
C28	C	1.518315	-0.779020	-0.506115
C29	C	1.518384	-0.895797	-0.506140
C30	C	1.585637	-0.950655	-0.439022
C31	C	1.585702	-1.060379	-0.439054
C32	C	1.451252	-1.060377	-0.573327
C33	C	1.451193	-0.950655	-0.573299
C34	C	1.652828	-0.895797	-0.371864
C35	C	1.720086	-0.950655	-0.304739
C36	C	1.720150	-1.060379	-0.304771
C37	C	1.652957	-1.115245	-0.371929
C38	C	1.792410	-0.506073	-0.506152
C39	C	1.909187	-0.506082	-0.506158
C40	C	1.518451	-0.505947	-0.780170
C41	C	1.518482	-0.505902	-0.896947
C42	C	1.518468	-0.232019	-0.506182
C43	C	1.518507	-0.115243	-0.506201
C44	C	1.585710	-0.438704	-0.951825
C45	C	1.585735	-0.438666	-1.061549
C46	C	1.451301	-0.573033	-1.061507
C47	C	1.451272	-0.573064	-0.951785
C48	C	1.652920	-0.371541	-0.896987
C49	C	1.720155	-0.304339	-0.951866
C50	C	1.720180	-0.304301	-1.061590
C51	C	1.652970	-0.371465	-1.116436
C52	C	1.518364	-0.506083	-0.233169
C53	C	1.518537	-0.505832	-0.116393
H54	H	1.218015	-0.640599	-0.640277
N55	N	1.378831	-0.645483	-1.120660
H56	H	1.336237	-0.688059	-1.069244
H57	H	1.330238	-0.602702	-1.166196
N58	N	1.652984	-0.371417	-1.234781
H59	H	1.705768	-0.318651	-1.261227
H60	H	1.672244	-0.443516	-1.261117
H61	H	1.652910	-0.371567	-0.807644
H62	H	1.653024	-1.204589	-0.371958
N63	N	1.378762	-0.645539	-0.892585
H64	H	1.336196	-0.688087	-0.943972
H65	H	1.421501	-0.694174	-0.847049
N66	N	1.133021	-0.780442	-0.779691
H67	H	1.113962	-0.764218	-0.854789
H68	H	1.210832	-0.770196	-0.769417
H69	H	0.919462	-0.762676	-0.761998
H70	H	1.396545	-1.105058	-0.628002
H71	H	1.396431	-0.905989	-0.627954
N72	N	1.792553	-0.891482	-0.232309
H73	H	1.835170	-0.942887	-0.189798
H74	H	1.841124	-0.845881	-0.275104
H75	H	1.774867	-0.249649	-0.907203
N76	N	1.792673	-0.231805	-1.120784
H77	H	1.835239	-0.189263	-1.069391
H78	H	1.841291	-0.274553	-1.166308
N79	N	1.792695	-1.119550	-0.232387
H80	H	1.835249	-1.068145	-0.189842
H81	H	1.749979	-1.165151	-0.183745
H82	H	1.118407	-0.383987	-0.384466
N83	N	0.790878	-0.640628	-0.640313
H84	H	0.764481	-0.621403	-0.712421
H85	H	0.764511	-0.712694	-0.620834
N86	N	0.904838	-0.366265	-0.366730
H87	H	0.859324	-0.317636	-0.409501
H88	H	0.859363	-0.409005	-0.317993
N89	N	1.652752	-0.777453	-0.371823
H90	H	1.705519	-0.751023	-0.319095
H91	H	1.671982	-0.751026	-0.443937
