data_functionalizedCrystal
_audit_creation_method	'MofGen! by Chris Wilmer'
_symmetry_space_group_name_H-M	'P1'
_symmetry_Int_Tables_number	1
_symmetry_cell_setting	triclinic
loop_
_symmetry_equiv_pos_as_xyz
  x,y,z
_cell_length_a	12.645331
_cell_length_b	29.839131
_cell_length_c	12.645324
_cell_angle_alpha	89.960499
_cell_angle_beta	89.978020
_cell_angle_gamma	90.040399
loop_
_atom_site_label
_atom_site_type_symbol
_atom_site_fract_x
_atom_site_fract_y
_atom_site_fract_z
Zn1	Zn	1.620549	-0.178832	-0.599388
Zn2	Zn	1.620360	-0.253973	-0.422104
Zn3	Zn	1.443266	-0.178856	-0.422133
Zn4	Zn	1.443172	-0.253934	-0.599320
O5	O	1.531837	-0.216399	-0.510736
O6	O	1.768871	-0.188805	-0.575888
O7	O	1.596828	-0.244034	-0.273761
O8	O	1.466902	-0.115986	-0.445687
O9	O	1.768732	-0.244011	-0.445638
O10	O	1.597151	-0.115968	-0.575916
O11	O	1.466718	-0.188846	-0.273782
O12	O	1.294906	-0.188809	-0.445620
O13	O	1.466742	-0.243946	-0.747676
O14	O	1.294837	-0.243969	-0.575799
O15	O	1.597060	-0.188768	-0.747727
O16	O	1.596737	-0.316835	-0.445571
O17	O	1.466558	-0.316807	-0.575771
C18	C	1.256407	-0.216388	-0.510706
C19	C	1.138577	-0.216394	-0.510718
C20	C	0.971021	-0.181534	-0.429274
C21	C	1.093581	-0.181624	-0.428915
C22	C	1.094011	-0.263721	-0.480188
C23	C	0.971412	-0.263531	-0.479632
C24	C	0.971438	-0.204378	-0.623006
C25	C	1.094045	-0.203321	-0.622382
C26	C	1.531645	-0.333121	-0.510684
C27	C	1.531660	-0.383056	-0.510697
C28	C	1.599744	-0.692701	-0.443041
C29	C	1.599875	-0.880374	-0.443082
O30	O	1.657610	-0.904641	-0.385518
N31	N	1.532057	-0.903841	-0.510816
C32	C	1.464205	-0.880386	-0.578550
O33	O	1.406532	-0.904652	-0.636171
C34	C	1.464081	-0.692714	-0.578514
C35	C	1.531896	-0.669250	-0.510767
C36	C	1.667555	-0.669237	-0.375300
C37	C	1.667517	-0.622321	-0.375287
C38	C	1.599669	-0.598870	-0.443013
C39	C	1.531859	-0.622334	-0.510753
C40	C	1.396236	-0.669260	-0.646252
C41	C	1.396213	-0.622339	-0.646239
C42	C	1.464028	-0.598875	-0.578492
C43	C	1.463973	-0.551968	-0.578466
N44	N	1.531791	-0.528501	-0.510732
C45	C	1.599640	-0.551952	-0.443005
C46	C	1.464274	-0.978917	-0.578563
C47	C	1.464304	-1.025835	-0.578571
C48	C	1.599975	-1.025819	-0.443104
C49	C	1.599939	-0.978901	-0.443091
C50	C	1.532093	-0.955450	-0.510829
C51	C	1.599555	-0.453427	-0.442981
C52	C	1.599508	-0.406507	-0.442970
C53	C	1.463842	-0.406526	-0.578441
C54	C	1.463884	-0.453442	-0.578448
C55	C	1.531749	-0.476891	-0.510715
O56	O	1.406276	-0.527672	-0.636009
O57	O	1.657320	-0.527678	-0.385409
C58	C	1.599782	-0.739616	-0.443054
C59	C	1.531971	-0.763081	-0.510794
C60	C	1.464123	-0.739630	-0.578521
C61	C	1.532001	-0.809999	-0.510802
C62	C	1.599849	-0.833450	-0.443076
C63	C	1.667667	-0.809983	-0.375341
C64	C	1.667630	-0.763068	-0.375328
C65	C	1.396305	-0.763096	-0.646256
C66	C	1.396347	-0.810012	-0.646263
C67	C	1.464195	-0.833463	-0.578536
C68	C	1.808342	-0.216410	-0.510768
C69	C	1.926172	-0.216414	-0.510781
C70	C	1.531911	-0.216350	-0.787242
C71	C	1.531943	-0.216329	-0.905072
C72	C	1.532058	-0.099220	-0.510812
C73	C	1.532152	-0.049286	-0.510845
C74	C	1.613945	-0.181610	-0.949986
C75	C	1.614297	-0.181700	-1.072546
C76	C	1.561853	-0.263696	-1.072938
C77	C	1.562417	-0.263507	-0.950340
C78	C	1.419890	-0.204072	-0.950246
C79	C	1.420523	-0.203016	-1.072854
C80	C	1.531823	-0.216415	-0.235307
C81	C	1.531997	-0.216309	-0.117477
H82	H	0.940166	-0.189401	-0.346601
F83	F	1.739873	-0.834950	-0.303259
F84	F	0.933527	-0.237584	-0.702385
H85	H	1.654732	-0.387404	-0.387799
H86	H	1.696504	-0.189637	-0.919188
H87	H	1.697343	-0.189821	-1.101885
H88	H	1.341056	-0.744006	-0.701408
H89	H	1.595646	-0.146570	-1.102663
F90	F	1.132143	-0.157802	-0.652484
H91	H	1.124657	-0.274103	-0.399026
F92	F	1.134079	-0.234106	-0.706008
H93	H	1.122852	-0.189580	-0.345753
H94	H	1.392603	-0.170113	-0.919340
F95	F	1.669462	-0.277058	-0.912970
F96	F	1.391639	-0.381560	-0.650520
H97	H	1.654820	-0.472513	-0.387828
F98	F	0.931100	-0.160056	-0.659293
H99	H	0.941591	-0.146333	-0.448207
F100	F	1.486199	-0.298426	-1.110970
F101	F	1.487718	-0.298482	-0.911495
H102	H	0.942758	-0.273738	-0.397590
F103	F	1.324065	-0.694223	-0.718368
H104	H	1.722851	-0.743966	-0.320162
F105	F	0.932626	-0.298652	-0.553836
F106	F	1.324160	-0.834979	-0.718371
H107	H	1.595515	-0.146372	-0.920541
F108	F	1.667741	-0.277475	-1.113077
F109	F	1.336456	-0.233634	-1.112826
H110	H	1.397999	-0.168143	-1.101969
F111	F	1.672117	-0.953932	-0.370987
H112	H	1.358800	-0.229358	-0.921195
F113	F	1.132090	-0.298599	-0.555352
F114	F	1.391688	-0.478415	-0.650532
H115	H	1.655220	-1.044921	-0.387958
F116	F	1.739708	-0.597355	-0.303193
H117	H	1.722810	-0.688326	-0.320149
F118	F	1.392114	-1.050802	-0.650664
H119	H	1.123715	-0.146529	-0.448053
F120	F	1.324001	-0.597385	-0.718339
F121	F	1.392056	-0.953965	-0.650662
