data_functionalizedCrystal
_audit_creation_method	'MofGen! by Chris Wilmer'
_symmetry_space_group_name_H-M	'P1'
_symmetry_Int_Tables_number	1
_symmetry_cell_setting	triclinic
loop_
_symmetry_equiv_pos_as_xyz
  x,y,z
_cell_length_a	17.666332
_cell_length_b	14.044220
_cell_length_c	14.044220
_cell_angle_alpha	93.188878
_cell_angle_beta	89.993013
_cell_angle_gamma	89.995739
loop_
_atom_site_label
_atom_site_type_symbol
_atom_site_fract_x
_atom_site_fract_y
_atom_site_fract_z
O1	O	0.062871	-1.277175	-0.230170
O2	O	0.562871	-0.777175	0.269830
O3	O	0.062890	-1.000503	-0.221864
O4	O	0.562890	-0.500503	0.278136
O5	O	0.062873	-1.134686	-0.087681
O6	O	0.562873	-0.634686	0.412319
O7	O	0.062888	-1.142992	-0.364353
O8	O	0.562888	-0.642992	0.135647
O9	O	-0.063024	-1.134660	-0.087671
O10	O	0.436976	-0.634660	0.412329
O11	O	-0.063007	-1.000477	-0.221854
O12	O	0.436993	-0.500477	0.278146
O13	O	-0.063026	-1.277148	-0.230160
O14	O	0.436974	-0.777148	0.269840
Cu15	Cu	-0.074512	-1.138810	-0.226006
Cu16	Cu	0.425488	-0.638810	0.273994
Cu17	Cu	0.074376	-1.138841	-0.226018
Cu18	Cu	0.574376	-0.638841	0.273982
O19	O	-0.063009	-1.142965	-0.364343
O20	O	0.436991	-0.642965	0.135657
C21	C	-0.000056	-0.964868	-0.218223
C22	C	0.499944	-0.464868	0.281777
C23	C	-0.000049	-0.858725	-0.207379
C24	C	0.499951	-0.358725	0.292621
N25	N	-0.179231	-1.138795	-0.225998
N26	N	0.320769	-0.638795	0.274002
C27	C	-0.000075	-1.131037	-0.052054
C28	C	0.499925	-0.631037	0.447946
C29	C	-0.000075	-1.120193	0.054088
C30	C	0.499925	-0.620193	0.554088
C31	C	-0.218848	-1.198235	-0.166615
C32	C	0.281152	-0.698235	0.333385
C33	C	-0.298096	-1.198240	-0.166611
C34	C	0.201904	-0.698240	0.333389
C35	C	-0.337723	-1.138816	-0.226007
C36	C	0.162277	-0.638816	0.273993
C37	C	-0.298097	-1.079364	-0.285393
C38	C	0.201903	-0.579364	0.214607
C39	C	-0.218851	-1.079354	-0.285389
C40	C	0.281149	-0.579354	0.214611
N41	N	-0.462137	-1.133806	-0.309456
N42	N	0.037863	-0.633806	0.190544
N43	N	-0.537418	-1.133821	-0.309457
N44	N	-0.037418	-0.633821	0.190543
C45	C	-0.576487	-1.138842	-0.226022
C46	C	-0.076487	-0.638842	0.273978
N47	N	-0.537433	-1.143866	-0.142584
N48	N	-0.037433	-0.643866	0.357416
N49	N	-0.462145	-1.143855	-0.142583
N50	N	0.037855	-0.643855	0.357417
C51	C	-0.423652	-1.138820	-0.226018
C52	C	0.076348	-0.638820	0.273982
C53	C	-0.702034	-1.198291	-0.166630
C54	C	-0.202034	-0.698291	0.333370
C55	C	-0.781283	-1.198289	-0.166624
C56	C	-0.281283	-0.698289	0.333376
C57	C	-0.781282	-1.079419	-0.285415
C58	C	-0.281282	-0.579419	0.214585
C59	C	-0.702035	-1.079415	-0.285412
C60	C	-0.202035	-0.579415	0.214588
C61	C	-0.662415	-1.138856	-0.226021
C62	C	-0.162415	-0.638856	0.273979
N63	N	0.179095	-1.138863	-0.226019
N64	N	0.679095	-0.638863	0.273981
C65	C	-0.000078	-1.312783	-0.233800
C66	C	0.499922	-0.812783	0.266200
C67	C	-0.000080	-1.418926	-0.244645
C68	C	0.499920	-0.918926	0.255355
C69	C	-0.000065	-0.664388	-0.187553
C70	C	0.499935	-0.164388	0.312447
C71	C	-0.000064	-0.613258	-0.264467
C72	C	0.499936	-0.113258	0.235533
C73	C	-0.000073	-0.505122	-0.253435
C74	C	0.499927	-0.005122	0.246565
C75	C	-0.000056	-0.772534	-0.198583
C76	C	0.499944	-0.272534	0.301417
C77	C	-0.000059	-1.146614	-0.399969
C78	C	0.499941	-0.646614	0.100031
C79	C	-0.000054	-1.157459	-0.506112
C80	C	0.499946	-0.657459	-0.006112
C81	C	-0.000063	-1.100366	0.248426
C82	C	0.499937	-0.600366	0.748426
C83	C	-0.000066	-1.177281	0.299556
C84	C	0.499934	-0.677281	0.799556
C85	C	-0.000059	-1.166249	0.407692
C86	C	0.499941	-0.666249	0.907692
C87	C	-0.000070	-1.111397	0.140280
C88	C	0.499930	-0.611397	0.640280
H89	H	-0.330358	-1.246645	-0.118252
H90	H	0.169642	-0.746645	0.381748
O91	O	-0.000003	-0.658066	-0.352840
O92	O	0.499997	-0.158066	0.147160
C93	C	-0.000006	-0.757625	-0.344328
C94	C	0.499994	-0.257625	0.155672
H95	H	0.023807	-0.774585	-0.271758
H96	H	0.523807	-0.274585	0.228242
H97	H	0.036573	-0.793037	-0.403066
H98	H	0.536573	-0.293037	0.096934
H99	H	-0.060397	-0.785758	-0.351278
H100	H	0.439603	-0.285758	0.148722
O101	O	-0.000099	-0.619883	-0.099046
O102	O	0.499901	-0.119883	0.400954
C103	C	-0.000072	-0.688714	-0.029692
C104	C	0.499928	-0.188714	0.470308
H105	H	-0.023907	-0.758672	-0.062051
H106	H	0.476093	-0.258672	0.437949
H107	H	-0.036619	-0.662611	0.033380
H108	H	0.463381	-0.162611	0.533380
H109	H	0.060329	-0.700519	-0.004324
H110	H	0.560329	-0.200519	0.495676
H111	H	-0.330365	-1.030978	-0.333752
H112	H	0.169635	-0.530978	0.166248
H113	H	-0.000056	-1.026239	0.285863
H114	H	0.499944	-0.526239	0.785863
H115	H	-0.000020	-1.251414	0.262117
H116	H	0.499980	-0.751414	0.762117
O117	O	-0.180395	-1.255680	-0.108600
O118	O	0.319605	-0.755680	0.391400
C119	C	-0.134754	-1.199331	-0.045335
C120	C	0.365246	-0.699331	0.454665
H121	H	-0.122776	-1.127984	-0.077242
H122	H	0.377224	-0.627984	0.422758
H123	H	-0.079069	-1.237849	-0.033206
H124	H	0.420931	-0.737849	0.466794
H125	H	-0.165508	-1.186594	0.025601
H126	H	0.334492	-0.686594	0.525601
O127	O	-0.180398	-1.021721	-0.343221
O128	O	0.319602	-0.521721	0.156779
C129	C	-0.199765	-1.045213	-0.439050
C130	C	0.300235	-0.545213	0.060950
H131	H	-0.221542	-1.121689	-0.446024
H132	H	0.278458	-0.621689	0.053976
H133	H	-0.147646	-1.038277	-0.486029
H134	H	0.352354	-0.538277	0.013971
H135	H	-0.245767	-0.994668	-0.462586
H136	H	0.254233	-0.494668	0.037414
O137	O	-0.663659	-1.256049	-0.108844
O138	O	-0.163659	-0.756049	0.391156
C139	C	-0.715625	-1.308525	-0.056438
C140	C	-0.215625	-0.808525	0.443562
H141	H	-0.772119	-1.269297	-0.052028
H142	H	-0.272119	-0.769297	0.447972
H143	H	-0.692734	-1.316643	0.018567
H144	H	-0.192734	-0.816643	0.518567
H145	H	-0.724041	-1.382068	-0.093473
H146	H	-0.224041	-0.882068	0.406527
H147	H	-0.813540	-1.246689	-0.118262
H148	H	-0.313540	-0.746689	0.381738
H149	H	-0.813546	-1.031030	-0.333772
H150	H	-0.313546	-0.531030	0.166228
H151	H	-0.669776	-1.031017	-0.333771
H152	H	-0.169776	-0.531017	0.166229
