data_functionalizedCrystal
_audit_creation_method	'MofGen! by Chris Wilmer'
_symmetry_space_group_name_H-M	'P1'
_symmetry_Int_Tables_number	1
_symmetry_cell_setting	triclinic
loop_
_symmetry_equiv_pos_as_xyz
  x,y,z
_cell_length_a	27.440280
_cell_length_b	27.440280
_cell_length_c	17.917567
_cell_angle_alpha	116.963359
_cell_angle_beta	89.992009
_cell_angle_gamma	60.004534
loop_
_atom_site_label
_atom_site_type_symbol
_atom_site_fract_x
_atom_site_fract_y
_atom_site_fract_z
Zr1	Zr	0.472353	0.527760	0.093768
O2	O	0.397937	0.622639	0.207988
O3	O	0.495157	0.428177	0.058755
O4	O	0.499598	0.520967	0.207971
O5	O	0.390002	0.536848	-0.058934
O6	O	0.579800	0.520958	0.207957
O7	O	0.393495	0.529849	0.058772
O8	O	0.571855	0.354974	-0.058965
O9	O	0.397947	0.702832	0.207987
O10	O	0.564747	0.470872	0.043810
O11	O	0.502286	0.476101	-0.044022
O12	O	0.507515	0.585349	0.131661
O13	O	0.445054	0.590579	0.043829
Zr14	Zr	0.594695	0.538908	-0.093983
Zr15	Zr	0.600267	0.527746	0.093745
Zr16	Zr	0.466782	0.538921	-0.093959
Zr17	Zr	0.472370	0.655657	0.093766
Zr18	Zr	0.594679	0.411010	-0.093981
O19	O	0.571892	0.638490	-0.058969
O20	O	0.579814	0.622620	0.207955
O21	O	0.390015	0.638510	-0.058936
O22	O	0.669111	0.444028	-0.208203
O23	O	0.677033	0.428158	0.058721
O24	O	0.487235	0.444047	-0.208169
O25	O	0.677046	0.529819	0.058720
O26	O	0.567450	0.545700	-0.208186
O27	O	0.487248	0.545709	-0.208171
O28	O	0.673553	0.536818	-0.058986
O29	O	0.499622	0.702821	0.207968
O30	O	0.567427	0.363846	-0.208183
O31	O	0.669101	0.363835	-0.208202
O32	O	0.673529	0.354963	-0.058983
O33	O	0.393519	0.711704	0.058769
O34	O	0.495193	0.711693	0.058750
O35	O	0.559533	0.481318	-0.131876
O36	O	0.621994	0.476089	-0.044044
O37	O	0.564762	0.590566	0.043807
O38	O	0.502301	0.595795	-0.044024
C39	C	0.533504	0.373353	-0.000105
C40	C	0.533497	0.319057	-0.000104
C41	C	0.566145	-0.020414	0.045732
C42	C	0.566150	-0.071438	0.045730
O43	O	0.593896	-0.100164	0.084694
N44	N	0.533545	-0.094224	-0.000116
C45	C	0.500938	-0.065989	-0.045969
O46	O	0.473206	-0.090056	-0.084965
C47	C	0.500936	-0.014969	-0.045971
C48	C	0.533538	0.007819	-0.000115
C49	C	0.598744	0.002374	0.091583
C50	C	0.598738	0.053395	0.091587
C51	C	0.566132	0.081628	0.045739
C52	C	0.533532	0.058840	-0.000112
C53	C	0.468333	0.013262	-0.091829
C54	C	0.468334	0.064284	-0.091828
C55	C	0.500936	0.087073	-0.045972
C56	C	0.500919	0.138094	-0.045956
N57	N	0.533524	0.160881	-0.000111
C58	C	0.566130	0.132648	0.045737
C59	C	0.500945	-0.173135	-0.045962
C60	C	0.500943	-0.224150	-0.045955
C61	C	0.566156	-0.229596	0.045742
C62	C	0.566154	-0.178576	0.045740
C63	C	0.533549	-0.150348	-0.000117
C64	C	0.566114	0.239796	0.045742
C65	C	0.566103	0.290824	0.045744
C66	C	0.500893	0.296263	-0.045957
C67	C	0.500901	0.245242	-0.045956
C68	C	0.533516	0.217008	-0.000105
O69	O	0.473190	0.166849	-0.084904
O70	O	0.593863	0.156716	0.084717
C71	C	0.373524	0.533351	-0.000078
C72	C	0.319221	0.533356	-0.000068
C73	C	0.012396	0.473568	-0.045989
C74	C	-0.038623	0.473564	-0.045997
O75	O	-0.039604	0.422746	-0.085024
N76	N	-0.094014	0.533320	-0.000138
C77	C	-0.098386	0.593082	0.045724
O78	O	-0.150185	0.643909	0.084728
C79	C	-0.047368	0.593085	0.045726
C80	C	0.008023	0.533326	-0.000129
C81	C	0.067784	0.413813	-0.091840
C82	C	0.118799	0.413817	-0.091831
C83	C	0.114426	0.473575	-0.045971
C84	C	0.059038	0.533329	-0.000119
C85	C	-0.051740	0.652848	0.091582
C86	C	-0.000716	0.652846	0.091580
C87	C	0.054674	0.593086	0.045725
C88	C	0.105680	0.593091	0.045751
N89	N	0.161071	0.533336	-0.000108
C90	C	0.165444	0.473578	-0.045968
C91	C	-0.205524	0.593072	0.045714
C92	C	-0.256542	0.593069	0.045718
C93	C	-0.196775	0.473551	-0.046004
C94	C	-0.145757	0.473554	-0.046002
C95	C	-0.150133	0.533317	-0.000144
C96	C	0.272577	0.473590	-0.045945
C97	C	0.323594	0.473598	-0.045928
C98	C	0.263823	0.593116	0.045789
C99	C	0.212811	0.593108	0.045777
C100	C	0.217192	0.533339	-0.000096
O101	O	0.106707	0.643884	0.084755
O102	O	0.217245	0.422761	-0.084976
C103	C	0.693524	0.533317	-0.000137
C104	C	0.747827	0.533311	-0.000147
C105	C	0.540493	0.519372	0.234711
C106	C	0.542858	0.514634	0.314406
C107	C	0.533545	0.693314	-0.000110
C108	C	0.533552	0.747610	-0.000111
C109	C	0.519850	0.560675	0.539440
C110	C	0.547188	0.505989	0.460339
C111	C	0.544778	0.510801	0.379135
C112	C	0.522259	0.555865	0.620652
C113	C	0.526553	0.547294	0.765073
C114	C	0.524181	0.552028	0.685375
C115	C	0.693504	0.373336	-0.000134
C116	C	0.747799	0.319034	-0.000143
C117	C	0.526535	0.387314	-0.234923
C118	C	0.524162	0.337757	-0.314617
C119	C	0.686535	0.387297	-0.234952
C120	C	0.738465	0.337734	-0.314657
C121	C	0.380513	0.679370	0.234738
C122	C	0.328583	0.728933	0.314442
C123	C	0.373544	0.693331	-0.000081
C124	C	0.319249	0.747633	-0.000072
C125	C	0.540514	0.679353	0.234708
C126	C	0.542886	0.728910	0.314403
C127	C	0.743415	0.290810	0.045719
C128	C	0.794427	0.239794	0.045728
C129	C	0.849823	0.216999	-0.000131
C130	C	0.854206	0.245229	-0.045994
C131	C	0.803195	0.296247	-0.045998
C132	C	0.552930	0.317207	-0.397909
C133	C	0.550699	0.270650	-0.472798
C134	C	0.519703	0.244640	-0.464392
C135	C	0.490931	0.265194	-0.381092
C136	C	0.493159	0.311754	-0.306205
C137	C	0.795462	0.311729	-0.306239
C138	C	0.844261	0.265166	-0.381123
C139	C	0.836062	0.244605	-0.464423
C140	C	0.779060	0.270615	-0.472838
C141	C	0.730262	0.317181	-0.397956
C142	C	0.271586	0.754944	0.306025
C143	C	0.222787	0.801524	0.380908
C144	C	0.230986	0.822087	0.464208
C145	C	0.287988	0.796074	0.472624
C146	C	0.336786	0.749499	0.397741
C147	C	0.323633	0.775862	-0.045926
C148	C	0.272622	0.826891	-0.045914
C149	C	0.217226	0.849687	-0.000053
C150	C	0.212843	0.821456	0.045807
C151	C	0.263854	0.770431	0.045800
C152	C	0.573887	0.754906	0.305969
C153	C	0.576128	0.801465	0.380843
C154	C	0.547363	0.822030	0.464150
C155	C	0.516360	0.796029	0.472582
C156	C	0.514124	0.749468	0.397708
H157	H	0.625299	-0.020610	0.128917
H158	H	0.294657	0.812823	0.540455
H159	H	0.163897	0.365154	-0.129167
C160	C	0.624534	0.179783	-0.610227
C161	C	0.582331	0.248058	-0.564356
H162	H	0.644058	0.165837	-0.666751
H163	H	0.652417	0.169569	-0.579112
H164	H	0.605745	0.157639	-0.615938
H165	H	0.601120	0.270203	-0.558640
H166	H	0.554443	0.258279	-0.595478
H167	H	0.368696	0.424933	-0.083271
C168	C	0.730203	0.239542	0.136368
C169	C	0.789599	0.208765	0.096135
H170	H	0.727222	0.220383	0.167481
H171	H	0.712782	0.285350	0.175944
H172	H	0.710324	0.233755	0.092961
H173	H	0.809478	0.214556	0.139543
H174	H	0.807028	0.162946	0.056556
H175	H	0.167709	0.641768	0.083127
H176	H	0.264900	0.738204	0.238205
H177	H	0.469734	0.328478	-0.238388
C178	C	0.888218	0.137714	-0.596664
C179	C	0.889703	0.193418	-0.546735
H180	H	0.921333	0.106117	-0.647480
H181	H	0.889219	0.118982	-0.562790
H182	H	0.853097	0.150267	-0.613597
H183	H	0.924822	0.180867	-0.529797
H184	H	0.888708	0.212153	-0.580615
H185	H	0.592702	-0.160026	0.083079
H186	H	0.802148	0.328462	-0.238419
H187	H	0.597312	0.738170	0.238143
C188	C	0.491130	0.221093	-0.596631
C189	C	0.517261	0.193457	-0.546716
H190	H	0.489629	0.189492	-0.647458
H191	H	0.452336	0.258875	-0.562754
H192	H	0.513711	0.233646	-0.613545
H193	H	0.494678	0.180909	-0.529796
H194	H	0.556062	0.155663	-0.580599
H195	H	0.572400	0.455557	0.453604
C196	C	0.460992	0.678394	0.637426
C197	C	0.485808	0.628754	0.548536
H198	H	0.439978	0.720421	0.643032
H199	H	0.434820	0.674215	0.664772
H200	H	0.491351	0.674215	0.664752
H201	H	0.455448	0.632930	0.521211
H202	H	0.511982	0.632935	0.521179
C203	C	0.407377	0.772187	0.452888
C204	C	0.399433	0.720913	0.407016
H205	H	0.446051	0.754542	0.458626
H206	H	0.401999	0.793920	0.421760
H207	H	0.379474	0.802867	0.509395
H208	H	0.427334	0.690235	0.350507
H209	H	0.404818	0.699169	0.438143
H210	H	0.698314	0.309368	0.083074
H211	H	-0.209096	0.641740	0.083062
C212	C	0.377584	0.786377	-0.136577
C213	C	0.384520	0.750813	-0.096342
H214	H	0.415173	0.770918	-0.167697
H215	H	0.355209	0.780371	-0.176147
H216	H	0.357675	0.831962	-0.093171
H217	H	0.404426	0.705228	-0.139749
H218	H	0.406905	0.756813	-0.056769
C219	C	-0.361287	0.646145	0.086451
C220	C	-0.317425	0.658757	0.096133
H221	H	-0.398873	0.686700	0.117578
H222	H	-0.358601	0.624065	0.026130
H223	H	-0.356140	0.619124	0.109093
H224	H	-0.322569	0.685775	0.073484
H225	H	-0.320112	0.680848	0.156466
H226	H	0.276202	0.849869	-0.083263
H227	H	0.806773	0.319221	-0.083349
H228	H	0.578171	0.338380	-0.404770
C229	C	0.147987	0.870565	0.185133
C230	C	0.151948	0.846512	0.096208
H231	H	0.110391	0.886035	0.216242
H232	H	0.177732	0.836140	0.191694
H233	H	0.153142	0.905841	0.207772
H234	H	0.146798	0.811233	0.073567
H235	H	0.122195	0.880940	0.089642
C236	C	0.890338	0.140955	0.049808
C237	C	0.905892	0.160913	-0.000130
H238	H	0.924952	0.106326	0.049803
H239	H	0.869000	0.177289	0.108222
H240	H	0.866521	0.125704	0.025255
H241	H	0.929706	0.176169	0.024427
H242	H	0.927240	0.124572	-0.058555
C243	C	0.518028	0.885779	0.621356
C244	C	0.549822	0.873213	0.546448
H245	H	0.519550	0.917376	0.672160
H246	H	0.478227	0.902510	0.621365
H247	H	0.534752	0.845974	0.621352
H248	H	0.533095	0.913018	0.546449
H249	H	0.589630	0.856485	0.546440
C250	C	0.903798	0.264450	-0.282928
C251	C	0.906914	0.236575	-0.371858
H252	H	0.942476	0.246796	-0.277209
H253	H	0.883414	0.310988	-0.255626
H254	H	0.883398	0.254461	-0.255642
H255	H	0.927310	0.246569	-0.399143
H256	H	0.927306	0.190027	-0.399172
H257	H	0.465694	0.244009	-0.374261
H258	H	0.899316	0.226662	-0.083331
C259	C	0.796136	0.263053	-0.610266
C260	C	0.770059	0.248002	-0.564410
H261	H	0.790584	0.249085	-0.666802
H262	H	0.778449	0.309366	-0.579158
H263	H	0.837063	0.240903	-0.615949
H264	H	0.729130	0.270156	-0.558721
H265	H	0.787744	0.201680	-0.595525
H266	H	0.683854	0.338348	-0.404821
H267	H	0.176378	0.822696	0.374039
C268	C	0.125585	0.891758	0.521525
C269	C	0.177342	0.873278	0.546516
H270	H	0.092467	0.923357	0.572337
H271	H	0.124593	0.910492	0.487656
H272	H	0.124591	0.853959	0.487646
H273	H	0.178338	0.911077	0.580390
H274	H	0.178334	0.854546	0.580399
H275	H	0.175694	0.891235	-0.000054
H276	H	0.260276	0.747448	0.083138
H277	H	0.488876	0.728307	0.404587
C278	C	0.634963	0.802169	0.282627
C279	C	0.610200	0.830046	0.371561
H280	H	0.655993	0.819818	0.276897
H281	H	0.661112	0.755631	0.255323
H282	H	0.604575	0.812163	0.255350
H283	H	0.640588	0.820048	0.398837
H284	H	0.584049	0.876595	0.398875
C285	C	0.020168	0.725829	0.083641
C286	C	-0.005530	0.718541	0.141991
H287	H	0.017192	0.766388	0.114764
H288	H	0.060454	0.690248	0.056346
H289	H	0.000277	0.725805	0.040249
H290	H	0.014364	0.718560	0.185380
H291	H	-0.045823	0.754131	0.169299
C292	C	0.630568	0.280305	0.136380
C293	C	0.601945	0.315869	0.096147
H294	H	0.652698	0.295763	0.167489
H295	H	0.602184	0.286313	0.175959
H296	H	0.656243	0.234719	0.092974
H297	H	0.576267	0.361454	0.139554
H298	H	0.630333	0.309866	0.056564
C299	C	0.643812	0.141240	0.037792
C300	C	0.601963	0.208769	0.096145
H301	H	0.665943	0.122090	0.068913
H302	H	0.624400	0.120365	0.010497
H303	H	0.669482	0.135470	-0.005600
H304	H	0.576290	0.214539	0.139533
H305	H	0.621376	0.229650	0.123454
C306	C	0.630620	-0.229869	0.136384
C307	C	0.602001	-0.260639	0.096136
H308	H	0.652745	-0.249032	0.167497
H309	H	0.656294	-0.235650	0.092993
H310	H	0.602229	-0.184056	0.175970
H311	H	0.630393	-0.306452	0.056545
H312	H	0.576326	-0.254863	0.139533
C313	C	-0.156485	0.705932	0.132308
C314	C	-0.112619	0.718538	0.141984
H315	H	-0.194069	0.746490	0.163430
H316	H	-0.153798	0.683847	0.071987
H317	H	-0.151343	0.678918	0.154960
H318	H	-0.117758	0.745549	0.119326
H319	H	-0.115308	0.740634	0.202317
C320	C	0.485222	-0.273246	-0.185280
C321	C	0.465109	-0.249201	-0.096361
H322	H	0.463104	-0.288717	-0.216404
H323	H	0.480547	-0.238816	-0.191829
H324	H	0.525653	-0.308519	-0.207914
H325	H	0.424678	-0.213925	-0.073725
H326	H	0.469778	-0.283634	-0.089807
C327	C	0.507766	0.764081	0.573845
C328	C	0.484742	0.818642	0.564159
H329	H	0.488246	0.778047	0.630385
H330	H	0.501990	0.732638	0.530476
H331	H	0.548675	0.744563	0.567257
H332	H	0.443834	0.838157	0.570741
H333	H	0.490513	0.850097	0.607541
C334	C	0.390662	-0.002923	-0.083841
C335	C	0.432495	-0.011788	-0.142217
H336	H	0.368534	-0.018387	-0.114946
H337	H	0.410087	-0.027036	-0.056540
H338	H	0.364987	0.042668	-0.040456
H339	H	0.458173	-0.057379	-0.185598
H340	H	0.413069	0.012324	-0.169533
C341	C	0.663203	0.042865	0.182213
C342	C	0.634583	0.078433	0.141982
H343	H	0.685337	0.058317	0.213319
H344	H	0.634816	0.048878	0.221794
H345	H	0.688873	-0.002720	0.138805
H346	H	0.608909	0.124018	0.185391
H347	H	0.662973	0.072426	0.102398
C348	C	0.502943	-0.150626	-0.160330
C349	C	0.465094	-0.142100	-0.096360
H350	H	0.480810	-0.131472	-0.191446
H351	H	0.522353	-0.129749	-0.133029
H352	H	0.531329	-0.196442	-0.199908
H353	H	0.436710	-0.096284	-0.056779
H354	H	0.445675	-0.162975	-0.123662
H355	H	0.071355	0.365148	-0.129190
H356	H	0.441782	0.087267	-0.129169
H357	H	0.474346	0.226694	-0.083284
H358	H	0.474344	0.319261	-0.083282
H359	H	0.276153	0.424920	-0.083300
H360	H	-0.193222	0.424892	-0.083343
C361	C	-0.091819	0.355418	-0.136667
C362	C	-0.084874	0.407866	-0.096416
H363	H	-0.054232	0.314865	-0.167798
H364	H	-0.111728	0.355437	-0.093275
H365	H	-0.114198	0.360380	-0.176238
H366	H	-0.062499	0.402907	-0.056841
H367	H	-0.064956	0.407846	-0.139813
H368	H	0.260273	0.641770	0.083131
