data_functionalizedCrystal
_audit_creation_method	'MofGen! by Chris Wilmer'
_symmetry_space_group_name_H-M	'P1'
_symmetry_Int_Tables_number	1
_symmetry_cell_setting	triclinic
loop_
_symmetry_equiv_pos_as_xyz
  x,y,z
_cell_length_a	15.995343
_cell_length_b	15.995350
_cell_length_c	11.804365
_cell_angle_alpha	101.833003
_cell_angle_beta	78.156274
_cell_angle_gamma	83.490779
loop_
_atom_site_label
_atom_site_type_symbol
_atom_site_fract_x
_atom_site_fract_y
_atom_site_fract_z
O1	O	1.127884	0.091010	-0.098900
O2	O	0.884112	0.104340	-0.098928
O3	O	1.012661	-0.024212	-0.098912
O4	O	0.999334	0.219563	-0.098916
O5	O	0.978819	0.009597	0.099139
O6	O	0.850270	0.138149	0.099124
O7	O	1.094042	0.124819	0.099151
Cu8	Cu	0.969066	0.134571	0.117221
Cu9	Cu	1.009088	0.094588	-0.116998
O10	O	0.965492	0.253372	0.099136
C11	C	0.835997	0.120694	0.000094
C12	C	0.743048	0.119043	0.000083
C13	C	0.995190	-0.038503	0.000111
C14	C	0.993539	-0.131454	0.000104
C15	C	0.572859	0.116052	0.000099
C16	C	0.549513	0.023255	0.000100
C17	C	0.452757	0.021587	0.000557
C18	C	0.405297	0.113106	0.000114
C19	C	0.415101	0.179034	0.112985
C20	C	0.511879	0.180149	0.113073
C21	C	0.550275	0.143060	-0.112157
C22	C	0.454033	0.139382	-0.113633
C23	C	0.310596	0.111446	0.000126
C24	C	0.667558	0.117715	0.000095
C25	C	0.987606	-0.469201	0.000108
C26	C	0.896132	-0.421842	-0.000347
C27	C	0.897708	-0.325076	0.000099
C28	C	0.990549	-0.301641	0.000105
C29	C	1.016380	-0.323413	0.113206
C30	C	1.014064	-0.420032	0.113300
C31	C	1.054440	-0.458838	-0.111922
C32	C	1.054674	-0.362147	-0.113416
C33	C	0.992217	-0.206943	0.000108
C34	C	0.985940	-0.563898	0.000113
C35	C	1.142157	0.108465	0.000127
C36	C	1.235108	0.110115	0.000130
C37	C	0.982964	0.267662	0.000109
C38	C	0.984616	0.360612	0.000109
N39	N	0.940923	0.162692	0.281958
N40	N	1.037238	0.066460	-0.281735
C41	C	1.104820	-0.001085	0.655927
C42	C	1.126110	-0.022362	0.531268
C43	C	1.079815	0.023899	0.468935
C44	C	1.012227	0.091442	0.531272
C45	C	0.990940	0.112726	0.655944
C46	C	0.965934	0.137711	0.468951
C47	C	0.898346	0.205253	0.531289
C48	C	0.877062	0.226533	0.655948
C49	C	0.923357	0.180272	0.718281
C50	C	0.987221	0.116427	0.344280
C51	C	0.873340	0.230238	0.344296
C52	C	0.852051	0.251515	0.468955
H53	H	0.447561	-0.028747	-0.080338
C54	C	0.606036	-0.044009	-0.109219
C55	C	0.594520	-0.139782	-0.127927
C56	C	0.651053	-0.207048	-0.237247
C57	C	0.719102	-0.178542	-0.327859
C58	C	0.730621	-0.082764	-0.309154
C59	C	0.674088	-0.015498	-0.199834
H60	H	0.544143	-0.160888	-0.060848
H61	H	0.642526	-0.277948	-0.251093
H62	H	0.760951	-0.228336	-0.408784
H63	H	0.780998	-0.061658	-0.376233
H64	H	0.682615	0.055402	-0.185988
H65	H	0.564687	0.001669	0.080922
H66	H	0.822034	0.281537	0.706703
H67	H	0.848097	-0.283348	0.081305
H68	H	0.420414	-0.000874	0.081942
C69	C	0.530475	0.273184	0.119576
C70	C	0.481396	0.346874	0.226469
C71	C	0.499992	0.439906	0.232979
C72	C	0.567667	0.459248	0.132595
C73	C	0.616750	0.385556	0.025694
C74	C	0.598154	0.292524	0.019184
H75	H	0.431295	0.332557	0.300787
H76	H	0.463657	0.494457	0.312115
H77	H	0.581433	0.528116	0.137414
H78	H	0.666851	0.399872	-0.048623
H79	H	0.634489	0.237973	-0.059952
C80	C	1.107542	-0.303344	0.118937
C81	C	1.179540	-0.376084	0.118505
C82	C	1.270698	-0.356006	0.124247
C83	C	1.289858	-0.263188	0.130421
C84	C	1.217858	-0.190442	0.130853
C85	C	1.126700	-0.210519	0.125111
H86	H	1.165359	-0.444799	0.113934
H87	H	1.323997	-0.409858	0.123927
H88	H	1.357338	-0.248325	0.134672
H89	H	1.232039	-0.121727	0.135424
H90	H	1.073401	-0.156667	0.125431
H91	H	1.039155	-0.494010	-0.197645
C92	C	0.822408	0.281130	0.275742
C93	C	0.845820	0.257718	0.138616
C94	C	0.794895	0.308607	0.070052
C95	C	0.720559	0.382909	0.138615
C96	C	0.697144	0.406325	0.275748
C97	C	0.748069	0.355435	0.344312
H98	H	0.900851	0.202713	0.087855
H99	H	0.812229	0.291273	-0.031463
H100	H	0.682862	0.420580	0.087860
H101	H	0.642113	0.461330	0.326509
H102	H	0.730735	0.372770	0.445827
C103	C	0.954581	-0.265672	0.226908
C104	C	0.880699	-0.198781	0.217368
C105	C	0.818895	-0.141043	0.331067
C106	C	0.830971	-0.150195	0.454307
C107	C	0.904855	-0.217089	0.463853
C108	C	0.966660	-0.274827	0.350153
H109	H	0.871757	-0.192003	0.126133
H110	H	0.764200	-0.091523	0.324000
H111	H	0.785219	-0.107454	0.538474
H112	H	0.913798	-0.223867	0.555087
H113	H	1.021354	-0.324347	0.357220
H114	H	0.797019	0.306511	0.519726
C115	C	1.103225	0.000491	0.331808
C116	C	1.035245	-0.028326	0.263262
C117	C	1.058655	-0.051741	0.126130
C118	C	1.150045	-0.046338	0.057545
C119	C	1.218032	-0.017519	0.126091
C120	C	1.194621	0.005896	0.263223
H121	H	0.967587	-0.032327	0.314034
H122	H	1.008327	-0.073075	0.075389
H123	H	1.167375	-0.063670	-0.043969
H124	H	1.285690	-0.013518	0.075319
H125	H	1.244950	0.027230	0.313964
H126	H	1.123545	-0.347952	-0.120241
H127	H	0.524192	0.162671	0.197768
H128	H	0.382592	0.247106	0.116865
H129	H	1.122070	-0.490729	-0.112678
C130	C	1.200447	-0.096657	0.462695
C131	C	1.196125	-0.189083	0.479832
C132	C	1.270466	-0.263383	0.411255
C133	C	1.349128	-0.245257	0.325541
C134	C	1.353454	-0.152828	0.308400
C135	C	1.279113	-0.078528	0.376977
H136	H	1.137891	-0.202504	0.543286
H137	H	1.267263	-0.331806	0.423944
H138	H	1.404160	-0.300259	0.274776
H139	H	1.411688	-0.139406	0.244946
H140	H	1.282316	-0.010105	0.364288
H141	H	0.422300	0.204991	-0.120799
C142	C	0.368503	0.155230	0.226901
C143	C	0.270537	0.153046	0.250707
C144	C	0.223942	0.129237	0.364618
C145	C	0.275314	0.107612	0.454724
C146	C	0.373286	0.109795	0.430920
C147	C	0.419881	0.133605	0.317008
H148	H	0.232503	0.169055	0.184003
H149	H	0.151416	0.127621	0.382239
H150	H	0.240822	0.089987	0.539048
H151	H	0.411320	0.093786	0.497623
H152	H	0.492407	0.135221	0.299388
H153	H	1.142512	-0.038741	0.706687
C154	C	1.029455	-0.344562	-0.226457
C155	C	0.951014	-0.275596	-0.215787
C156	C	0.925794	-0.258004	-0.328826
C157	C	0.979015	-0.309378	-0.452533
C158	C	1.057461	-0.378349	-0.463208
C159	C	1.082681	-0.395941	-0.350170
H160	H	0.911612	-0.237561	-0.124207
H161	H	0.867722	-0.206947	-0.320923
H162	H	0.960345	-0.296356	-0.536211
H163	H	1.096863	-0.416384	-0.554789
H164	H	1.140753	-0.446999	-0.358073
H165	H	0.593169	0.099173	-0.197737
H166	H	1.042251	0.061433	0.293535
C167	C	0.569465	0.235077	-0.113647
C168	C	0.635587	0.250368	-0.219115
C169	C	0.654780	0.342383	-0.220596
C170	C	0.607853	0.419108	-0.116610
C171	C	0.541727	0.403820	-0.011135
C172	C	0.522534	0.311804	-0.009654
H173	H	0.670329	0.193569	-0.296098
H174	H	0.703731	0.353700	-0.298676
H175	H	0.622061	0.487223	-0.117707
H176	H	0.506985	0.460618	0.065848
H177	H	0.473583	0.300488	0.068427
H178	H	0.906021	0.197593	0.819789
H179	H	0.966690	-0.423901	0.197840
H180	H	0.876065	-0.310493	-0.080976
H181	H	0.449744	0.091147	-0.197137
H182	H	0.873398	-0.454218	-0.081454
H183	H	0.845921	-0.427668	0.080300
H184	H	1.080403	-0.451406	0.118436
