data_functionalizedCrystal
_audit_creation_method	'MofGen! by Chris Wilmer'
_symmetry_space_group_name_H-M	'P1'
_symmetry_Int_Tables_number	1
_symmetry_cell_setting	triclinic
loop_
_symmetry_equiv_pos_as_xyz
  x,y,z
_cell_length_a	16.120484
_cell_length_b	13.897449
_cell_length_c	13.897441
_cell_angle_alpha	90.022859
_cell_angle_beta	92.865635
_cell_angle_gamma	87.074557
loop_
_atom_site_label
_atom_site_type_symbol
_atom_site_fract_x
_atom_site_fract_y
_atom_site_fract_z
Zn1	Zn	-0.331884	-1.455180	-0.564879
Zn2	Zn	-0.081884	-1.205180	-0.314879
Zn3	Zn	0.168116	-0.955180	-0.064879
Zn4	Zn	0.418116	-0.705180	0.185121
Zn5	Zn	-0.471315	-1.446872	-0.411749
Zn6	Zn	-0.221315	-1.196872	-0.161749
Zn7	Zn	0.028685	-0.946872	0.088251
Zn8	Zn	0.278685	-0.696872	0.338251
Zn9	Zn	-0.331920	-1.293867	-0.403594
Zn10	Zn	-0.081920	-1.043867	-0.153594
Zn11	Zn	0.168080	-0.793867	0.096406
Zn12	Zn	0.418080	-0.543867	0.346406
Zn13	Zn	-0.471257	-1.285653	-0.572993
Zn14	Zn	-0.221257	-1.035653	-0.322993
Zn15	Zn	0.028743	-0.785653	-0.072993
Zn16	Zn	0.278743	-0.535653	0.177007
O17	O	-0.401594	-1.370393	-0.488304
O18	O	-0.151594	-1.120393	-0.238304
O19	O	0.098406	-0.870393	0.011696
O20	O	0.348406	-0.620393	0.261696
O21	O	-0.350389	-1.589059	-0.544584
O22	O	-0.100389	-1.339059	-0.294584
O23	O	0.149611	-1.089059	-0.044584
O24	O	0.399611	-0.839059	0.205416
O25	O	-0.452863	-1.426537	-0.275688
O26	O	-0.202863	-1.176537	-0.025688
O27	O	0.047137	-0.926537	0.224312
O28	O	0.297137	-0.676537	0.474312
O29	O	-0.215249	-1.322180	-0.418180
O30	O	0.034751	-1.072180	-0.168180
O31	O	0.284751	-0.822180	0.081820
O32	O	0.534751	-0.572180	0.331820
O33	O	-0.452828	-1.582956	-0.432080
O34	O	-0.202828	-1.332956	-0.182080
O35	O	0.047172	-1.082956	0.067920
O36	O	0.297172	-0.832956	0.317920
O37	O	-0.215223	-1.440696	-0.536676
O38	O	0.034777	-1.190696	-0.286676
O39	O	0.284777	-0.940696	-0.036676
O40	O	0.534777	-0.690696	0.213324
O41	O	-0.350450	-1.314125	-0.269696
O42	O	-0.100450	-1.064125	-0.019696
O43	O	0.149550	-0.814125	0.230304
O44	O	0.399550	-0.564125	0.480304
O45	O	-0.350394	-1.157797	-0.426047
O46	O	-0.100394	-0.907797	-0.176047
O47	O	0.149606	-0.657797	0.073953
O48	O	0.399606	-0.407797	0.323953
O49	O	-0.452729	-1.308180	-0.706896
O50	O	-0.202729	-1.058180	-0.456896
O51	O	0.047271	-0.808180	-0.206896
O52	O	0.297271	-0.558180	0.043104
O53	O	-0.452764	-1.151761	-0.550504
O54	O	-0.202764	-0.901761	-0.300504
O55	O	0.047236	-0.651761	-0.050504
O56	O	0.297236	-0.401761	0.199496
O57	O	-0.350332	-1.432731	-0.700935
O58	O	-0.100332	-1.182731	-0.450935
O59	O	0.149668	-0.932731	-0.200935
O60	O	0.399668	-0.682731	0.049065
O61	O	-0.587973	-1.418572	-0.439947
O62	O	-0.337973	-1.168572	-0.189947
O63	O	-0.087973	-0.918572	0.060053
O64	O	0.162027	-0.668572	0.310053
O65	O	-0.587930	-1.300124	-0.558412
O66	O	-0.337930	-1.050124	-0.308412
O67	O	-0.087930	-0.800124	-0.058412
O68	O	0.162070	-0.550124	0.191588
C69	C	-0.401577	-1.119780	-0.488272
C70	C	-0.151577	-0.869780	-0.238272
C71	C	0.098423	-0.619780	0.011728
C72	C	0.348423	-0.369780	0.261728
C73	C	-0.401590	-1.012565	-0.488282
C74	C	-0.151590	-0.762565	-0.238282
C75	C	0.098410	-0.512565	0.011718
C76	C	0.348410	-0.262565	0.261718
C77	C	-0.401589	-0.816270	-0.488300
C78	C	-0.151589	-0.566270	-0.238300
C79	C	0.098411	-0.316270	0.011700
C80	C	0.348411	-0.066270	0.261700
C81	C	-0.401587	-0.925503	-0.488287
C82	C	-0.151587	-0.675503	-0.238287
C83	C	0.098413	-0.425503	0.011713
C84	C	0.348413	-0.175503	0.261713
C85	C	-0.618201	-1.357581	-0.500966
C86	C	-0.368201	-1.107581	-0.250966
C87	C	-0.118201	-0.857581	-0.000966
C88	C	0.131799	-0.607581	0.249034
C89	C	-0.710867	-1.352189	-0.506415
C90	C	-0.460867	-1.102189	-0.256415
C91	C	-0.210867	-0.852189	-0.006415
C92	C	0.039133	-0.602189	0.243585
C93	C	-0.880528	-1.342348	-0.516384
C94	C	-0.630528	-1.092348	-0.266384
C95	C	-0.380528	-0.842348	-0.016384
C96	C	-0.130528	-0.592348	0.233616
C97	C	-0.921819	-1.398611	-0.460240
C98	C	-0.671819	-1.148611	-0.210240
C99	C	-0.421819	-0.898611	0.039760
C100	C	-0.171819	-0.648611	0.289760
C101	C	-1.016224	-1.393136	-0.465786
C102	C	-0.766224	-1.143136	-0.215786
C103	C	-0.516224	-0.893136	0.034214
C104	C	-0.266224	-0.643136	0.284214
C105	C	-0.786114	-1.347822	-0.510838
C106	C	-0.536114	-1.097822	-0.260838
C107	C	-0.286114	-0.847822	-0.010838
C108	C	-0.036114	-0.597822	0.239162
C109	C	-0.184140	-1.383281	-0.475613
C110	C	0.065860	-1.133281	-0.225613
C111	C	0.315860	-0.883281	0.024387
C112	C	0.565860	-0.633281	0.274387
C113	C	-0.091475	-1.388774	-0.470205
C114	C	0.158525	-1.138774	-0.220205
C115	C	0.408525	-0.888774	0.029795
C116	C	0.658525	-0.638774	0.279795
C117	C	-0.401520	-1.370466	-0.739893
C118	C	-0.151520	-1.120466	-0.489893
C119	C	0.098480	-0.870466	-0.239893
C120	C	0.348480	-0.620466	0.010107
C121	C	-0.401489	-1.370497	-0.847105
C122	C	-0.151489	-1.120497	-0.597105
C123	C	0.098511	-0.870497	-0.347105
C124	C	0.348511	-0.620497	-0.097105
C125	C	-0.401605	-0.621985	-0.488327
C126	C	-0.151605	-0.371985	-0.238327
C127	C	0.098395	-0.121985	0.011673
C128	C	0.348395	0.128015	0.261673
C129	C	-0.401596	-0.729200	-0.488313
C130	C	-0.151596	-0.479200	-0.238313
C131	C	0.098404	-0.229200	0.011687
C132	C	0.348404	0.020800	0.261687
C133	C	-0.401432	-1.370526	-1.043397
C134	C	-0.151432	-1.120526	-0.793397
C135	C	0.098568	-0.870526	-0.543397
C136	C	0.348568	-0.620526	-0.293397
C137	C	-0.401466	-1.370507	-0.934166
C138	C	-0.151466	-1.120507	-0.684166
C139	C	0.098534	-0.870507	-0.434166
C140	C	0.348534	-0.620507	-0.184166
C141	C	-0.401607	-1.370380	-0.237690
C142	C	-0.151607	-1.120380	0.012310
C143	C	0.098393	-0.870380	0.262310
C144	C	0.348393	-0.620380	0.512310
C145	C	-0.401403	-1.370549	-0.130465
C146	C	-0.151403	-1.120549	0.119535
C147	C	0.098597	-0.870549	0.369535
C148	C	0.348597	-0.620549	0.619535
H149	H	-0.886268	-1.450890	-0.408007
H150	H	-0.636268	-1.200890	-0.158007
H151	H	-0.386268	-0.950890	0.091993
H152	H	-0.136268	-0.700890	0.341993
O153	O	-0.922839	-1.279848	-0.578637
O154	O	-0.672839	-1.029848	-0.328637
O155	O	-0.422839	-0.779848	-0.078637
O156	O	-0.172839	-0.529848	0.171363
C157	C	-0.901742	-1.184922	-0.556227
C158	C	-0.651742	-0.934922	-0.306227
C159	C	-0.401742	-0.684922	-0.056227
C160	C	-0.151742	-0.434922	0.193773
H161	H	-0.838517	-1.186537	-0.515508
H162	H	-0.588517	-0.936537	-0.265508
H163	H	-0.338517	-0.686537	-0.015508
H164	H	-0.088517	-0.436537	0.234492
H165	H	-0.898864	-1.141789	-0.625632
H166	H	-0.648864	-0.891789	-0.375632
H167	H	-0.398864	-0.641789	-0.125632
H168	H	-0.148864	-0.391789	0.124368
H169	H	-0.950786	-1.149679	-0.509422
H170	H	-0.700786	-0.899679	-0.259422
H171	H	-0.450786	-0.649679	-0.009422
H172	H	-0.200786	-0.399679	0.240578
