data_functionalizedCrystal
_audit_creation_method	'MofGen! by Chris Wilmer'
_symmetry_space_group_name_H-M	'P1'
_symmetry_Int_Tables_number	1
_symmetry_cell_setting	triclinic
loop_
_symmetry_equiv_pos_as_xyz
  x,y,z
_cell_length_a	21.395364
_cell_length_b	16.959453
_cell_length_c	21.395355
_cell_angle_alpha	90.017325
_cell_angle_beta	90.024516
_cell_angle_gamma	90.015752
loop_
_atom_site_label
_atom_site_type_symbol
_atom_site_fract_x
_atom_site_fract_y
_atom_site_fract_z
Zn1	Zn	0.957906	-0.314862	0.354266
Zn2	Zn	1.457906	0.185138	0.854266
Zn3	Zn	0.957828	-0.447023	0.249491
Zn4	Zn	1.457828	0.052977	0.749491
Zn5	Zn	0.853121	-0.314853	0.249503
Zn6	Zn	1.353121	0.185147	0.749503
Zn7	Zn	0.853109	-0.446993	0.354231
Zn8	Zn	1.353109	0.053007	0.854231
O9	O	0.905491	-0.380933	0.301873
O10	O	1.405491	0.119067	0.801873
O11	O	1.045573	-0.332410	0.340377
O12	O	1.545573	0.167590	0.840377
O13	O	0.943910	-0.429499	0.161814
O14	O	1.443910	0.070501	0.661814
O15	O	0.867058	-0.204243	0.263420
O16	O	1.367058	0.295757	0.763420
O17	O	1.045516	-0.429508	0.263399
O18	O	1.545516	0.070492	0.763399
O19	O	0.944043	-0.204250	0.340389
O20	O	1.444043	0.295750	0.840389
O21	O	0.866982	-0.332394	0.161823
O22	O	1.366982	0.167606	0.661823
O23	O	0.765441	-0.332365	0.263386
O24	O	1.265441	0.167635	0.763386
O25	O	0.867039	-0.429457	0.441914
O26	O	1.367039	0.070543	0.941914
O27	O	0.765433	-0.429448	0.340329
O28	O	1.265433	0.070552	0.840329
O29	O	0.944032	-0.332381	0.441939
O30	O	1.444032	0.167619	0.941939
O31	O	0.943899	-0.557630	0.263365
O32	O	1.443899	-0.057630	0.763365
O33	O	0.866963	-0.557608	0.340317
O34	O	1.366963	-0.057608	0.840317
C35	C	0.742703	-0.380903	0.301855
C36	C	1.242703	0.119097	0.801855
C37	C	0.673062	-0.380909	0.301863
C38	C	1.173062	0.119091	0.801863
C39	C	0.905439	-0.586299	0.301850
C40	C	1.405439	-0.086299	0.801850
C41	C	0.905474	-0.674156	0.301861
C42	C	1.405474	-0.174156	0.801861
C43	C	0.171295	-0.330493	0.342029
C44	C	0.671295	0.169507	0.842029
C45	C	0.236730	-0.330487	0.342029
C46	C	0.736730	0.169513	0.842029
C47	C	0.269424	-0.380957	0.301887
C48	C	0.769424	0.119043	0.801887
C49	C	0.236676	-0.431451	0.261753
C50	C	0.736676	0.068549	0.761753
C51	C	0.171242	-0.431461	0.261759
C52	C	0.671242	0.068539	0.761759
C53	C	0.373061	-0.387078	0.245420
C54	C	0.873061	0.112922	0.745420
C55	C	0.438494	-0.387062	0.245413
C56	C	0.938494	0.112938	0.745413
C57	C	0.471244	-0.380931	0.301869
C58	C	0.971244	0.119069	0.801869
C59	C	0.438554	-0.374798	0.358334
C60	C	0.938554	0.125202	0.858334
C61	C	0.373120	-0.374808	0.358340
C62	C	0.873120	0.125192	0.858340
C63	C	0.340376	-0.380952	0.301876
C64	C	0.840376	0.119048	0.801876
C65	C	0.574937	-0.330438	0.342004
C66	C	1.074937	0.169562	0.842004
C67	C	0.640373	-0.330438	0.342005
C68	C	1.140373	0.169562	0.842005
C69	C	0.640318	-0.431397	0.261723
C70	C	1.140318	0.068603	0.761723
C71	C	0.574882	-0.431401	0.261727
C72	C	1.074882	0.068599	0.761727
C73	C	0.542196	-0.380918	0.301867
C74	C	1.042196	0.119082	0.801867
C75	C	0.945628	-1.045576	0.342026
C76	C	1.445628	-0.545576	0.842026
C77	C	0.865528	-1.045686	0.261812
C78	C	1.365528	-0.545686	0.761812
C79	C	0.865505	-0.963140	0.261798
C80	C	1.365505	-0.463140	0.761798
C81	C	0.905544	-0.921809	0.301899
C82	C	1.405544	-0.421809	0.801899
C83	C	0.945605	-0.963023	0.342014
C84	C	1.445605	-0.463023	0.842014
C85	C	0.825440	-0.921920	0.221688
C86	C	1.325440	-0.421920	0.721688
C87	C	0.825415	-0.839369	0.221672
C88	C	1.325415	-0.339369	0.721672
C89	C	0.865457	-0.798036	0.261770
C90	C	1.365457	-0.298036	0.761770
C91	C	0.905520	-0.839255	0.301887
C92	C	1.405520	-0.339255	0.801887
C93	C	0.945558	-0.797924	0.341988
C94	C	1.445558	-0.297924	0.841988
C95	C	0.985626	-0.839141	0.382102
C96	C	1.485626	-0.339141	0.882102
C97	C	0.985647	-0.921690	0.382113
C98	C	1.485647	-0.421690	0.882113
C99	C	0.865435	-0.715487	0.261760
C100	C	1.365435	-0.215487	0.761760
C101	C	0.945535	-0.715370	0.341976
C102	C	1.445535	-0.215370	0.841976
C103	C	1.068914	-0.380964	0.301891
C104	C	1.568914	0.119036	0.801891
C105	C	1.138555	-0.380977	0.301898
C106	C	1.638555	0.119023	0.801898
C107	C	0.905543	-0.380917	0.465296
C108	C	1.405543	0.119083	0.965296
C109	C	0.905565	-0.380910	0.534937
C110	C	1.405565	0.119090	1.034937
C111	C	0.905560	-0.174765	0.301909
C112	C	1.405560	0.325235	0.801909
C113	C	0.905590	-0.086908	0.301925
C114	C	1.405590	0.413092	0.801925
C115	C	0.905475	-0.380892	0.139085
C116	C	1.405475	0.119108	0.639085
C117	C	0.905574	-0.380676	0.069444
C118	C	1.405574	0.119324	0.569444
C119	C	0.945654	-0.330361	0.567665
C120	C	1.445654	0.169639	1.067665
C121	C	0.945653	-0.330327	0.633100
C122	C	1.445653	0.169673	1.133100
C123	C	0.905570	-0.380856	0.665806
C124	C	1.405570	0.119144	1.165806
C125	C	0.865473	-0.431409	0.633070
C126	C	1.365473	0.068591	1.133070
C127	C	0.865471	-0.431436	0.567636
C128	C	1.365471	0.068564	1.067636
C129	C	0.900605	-0.452027	0.769472
C130	C	1.400605	0.047973	1.269472
C131	C	0.900611	-0.452001	0.834905
C132	C	1.400611	0.047999	1.334905
C133	C	0.905574	-0.380773	0.867626
C134	C	1.405574	0.119227	1.367626
C135	C	0.910543	-0.309567	0.834907
C136	C	1.410543	0.190433	1.334907
C137	C	0.910540	-0.309594	0.769472
C138	C	1.410540	0.190406	1.269472
C139	C	0.905568	-0.380832	0.736758
C140	C	1.405568	0.119168	1.236758
C141	C	0.945664	-0.330182	0.971307
C142	C	1.445664	0.169818	1.471307
C143	C	0.945659	-0.330147	1.036743
C144	C	1.445659	0.169853	1.536743
C145	C	0.865482	-0.431236	1.036712
C146	C	1.365482	0.068764	1.536712
C147	C	0.865484	-0.431265	0.971277
C148	C	1.365484	0.068735	1.471277
C149	C	0.905578	-0.380739	0.938578
C150	C	1.405578	0.119261	1.438578
H151	H	0.144686	-0.289389	0.374717
H152	H	0.644686	0.210611	0.874717
H153	H	0.978252	-1.079140	0.374684
H154	H	1.478252	-0.579140	0.874684
N155	N	0.988720	-0.670801	0.385234
N156	N	1.488720	-0.170801	0.885234
H157	H	0.963233	-0.636557	0.414242
H158	H	1.463233	-0.136557	0.914242
H159	H	1.017751	-0.636586	0.359752
H160	H	1.517751	-0.136586	0.859752
H161	H	1.018267	-0.955257	0.414772
H162	H	1.518267	-0.455257	0.914772
H163	H	0.978301	-0.289217	0.541045
H164	H	1.478301	0.210783	1.041045
N165	N	0.915901	-0.232735	0.870188
N166	N	1.415901	0.267265	1.370188
H167	H	0.915147	-0.243519	0.916605
H168	H	1.415147	0.256481	1.416605
H169	H	0.879682	-0.197393	0.858733
H170	H	1.379682	0.302607	1.358733
N171	N	0.988903	-0.275688	0.936033
N172	N	1.488903	0.224312	1.436033
H173	H	1.014296	-0.243654	0.966698
H174	H	1.514296	0.256346	1.466698
H175	H	0.963411	-0.239117	0.908870
H176	H	1.463411	0.260883	1.408870
N177	N	0.822237	-0.485970	0.532335
N178	N	1.322237	0.014030	1.032335
H179	H	0.828321	-0.478322	0.485920
H180	H	1.328321	0.021678	0.985920
H181	H	0.777493	-0.473655	0.543751
H182	H	1.277493	0.026345	1.043751
N183	N	0.473755	-0.393681	0.184518
N184	N	0.973755	0.106319	0.684518
H185	H	0.500906	-0.345513	0.178702
H186	H	1.000906	0.154487	0.678702
H187	H	0.443045	-0.397603	0.148789
H188	H	0.943045	0.102397	0.648789
N189	N	0.539565	-0.485847	0.218439
N190	N	1.039565	0.014153	0.718439
H191	H	0.570204	-0.517819	0.193007
H192	H	1.070204	-0.017819	0.693007
H193	H	0.512406	-0.453621	0.189491
H194	H	1.012406	0.046379	0.689491
H195	H	0.832929	-1.079343	0.229166
H196	H	1.332929	-0.579343	0.729166
H197	H	0.346401	-0.392074	0.199443
H198	H	0.846401	0.107926	0.699443
H199	H	0.978303	-0.288979	1.063389
H200	H	1.478303	0.211021	1.563389
H201	H	0.832840	-0.472371	1.063340
H202	H	1.332840	0.027629	1.563340
N203	N	0.895260	-0.528858	0.734183
N204	N	1.395260	-0.028858	1.234183
H205	H	0.892123	-0.573961	0.764838
H206	H	1.392123	-0.073961	1.264838
H207	H	0.933437	-0.536205	0.707054
H208	H	1.433437	-0.036205	1.207054
H209	H	0.667029	-0.289330	0.374689
H210	H	1.167029	0.210670	0.874689
H211	H	0.666936	-0.472496	0.229043
H212	H	1.166936	0.027504	0.729043
N213	N	0.822235	-0.485774	0.935972
N214	N	1.322235	0.014226	1.435972
H215	H	0.796838	-0.517775	0.966618
H216	H	1.296838	-0.017775	1.466618
H217	H	0.847714	-0.522375	0.908827
H218	H	1.347714	-0.022375	1.408827
N219	N	0.782263	-0.966496	0.178434
N220	N	1.282263	-0.466496	0.678434
H221	H	0.788364	-1.025044	0.184524
H222	H	1.288364	-0.525044	0.684524
H223	H	0.792039	-0.952079	0.133696
H224	H	1.292039	-0.452079	0.633696
H225	H	0.792791	-0.805814	0.189009
H226	H	1.292791	-0.305814	0.689009
H227	H	0.832810	-0.681932	0.229103
H228	H	1.332810	-0.181932	0.729103
N229	N	0.988892	-0.275803	0.668410
N230	N	1.488892	0.224197	1.168410
H231	H	1.014290	-0.243799	0.637766
H232	H	1.514290	0.256201	1.137766
H233	H	1.017874	-0.307980	0.695570
H234	H	1.517874	0.192020	1.195570
N235	N	1.028806	-0.794551	0.425350
N236	N	1.528806	-0.294551	0.925350
H237	H	1.073584	-0.808878	0.415663
H238	H	1.573584	-0.308878	0.915663
H239	H	1.019006	-0.808913	0.470094
H240	H	1.519006	-0.308913	0.970094
H241	H	0.914584	-0.251616	0.742835
H242	H	1.414584	0.248384	1.242835
H243	H	0.263299	-0.472545	0.229070
H244	H	0.763299	0.027455	0.729070
N245	N	0.822245	-0.485905	0.668350
N246	N	1.322245	0.014095	1.168350
H247	H	0.831952	-0.542390	0.656969
H248	H	1.331952	-0.042390	1.156969
H249	H	0.777498	-0.473556	0.656936
H250	H	1.277498	0.026444	1.156936
N251	N	0.272053	-0.276036	0.385315
N252	N	0.772053	0.223964	0.885315
H253	H	0.241417	-0.244058	0.410745
H254	H	0.741417	0.255942	0.910745
H255	H	0.299193	-0.239411	0.359854
H256	H	0.799193	0.260589	0.859854
N257	N	0.337992	-0.368536	0.419334
N258	N	0.837992	0.131464	0.919334
H259	H	0.349365	-0.317517	0.440889
H260	H	0.849365	0.182483	0.940889
H261	H	0.349593	-0.414466	0.447040
H262	H	0.849593	0.085534	0.947040
N263	N	0.473867	-0.368174	0.419232
N264	N	0.973867	0.131826	0.919232
H265	H	0.520279	-0.369100	0.410664
H266	H	1.020279	0.130900	0.910664
H267	H	0.462436	-0.413933	0.447185
H268	H	0.962436	0.086067	0.947185
N269	N	0.539676	-0.275995	0.385296
N270	N	1.039676	0.224005	0.885296
H271	H	0.570348	-0.244016	0.410724
H272	H	1.070348	0.255984	0.910724
H273	H	0.512535	-0.308226	0.414248
H274	H	1.012535	0.191774	0.914248
H275	H	0.896569	-0.509981	0.861541
H276	H	1.396569	-0.009981	1.361541
H277	H	0.144586	-0.472572	0.229078
H278	H	0.644586	0.027428	0.729078
