data_functionalizedCrystal
_audit_creation_method	'MofGen! by Chris Wilmer'
_symmetry_space_group_name_H-M	'P1'
_symmetry_Int_Tables_number	1
_symmetry_cell_setting	triclinic
loop_
_symmetry_equiv_pos_as_xyz
  x,y,z
_cell_length_a	14.971486
_cell_length_b	11.792241
_cell_length_c	13.448316
_cell_angle_alpha	89.993264
_cell_angle_beta	89.998199
_cell_angle_gamma	83.903772
loop_
_atom_site_label
_atom_site_type_symbol
_atom_site_fract_x
_atom_site_fract_y
_atom_site_fract_z
O1	O	1.187540	0.147909	-0.082578
O2	O	0.927211	0.165622	-0.082605
O3	O	1.063693	-0.008446	-0.082584
O4	O	1.051058	0.321977	-0.082599
O5	O	1.063676	-0.008456	0.082800
O6	O	0.927194	0.165611	0.082779
O7	O	1.187523	0.147899	0.082806
Cu8	Cu	1.057357	0.156754	0.097893
Cu9	Cu	1.057377	0.156767	-0.097692
O10	O	1.051041	0.321966	0.082785
C11	C	0.893874	0.164824	0.000084
C12	C	0.794568	0.162451	0.000073
C13	C	0.737752	0.264710	0.000070
C14	C	0.644444	0.262473	0.000085
C15	C	0.607953	0.157975	0.000096
C16	C	0.664776	0.055707	0.000102
C17	C	0.758082	0.057946	0.000095
C18	C	0.470294	0.051049	0.000116
C19	C	0.376981	0.048810	0.000122
C20	C	0.356656	0.255577	0.000107
C21	C	0.449963	0.257815	0.000099
C22	C	0.506779	0.155547	0.000103
C23	C	1.062891	-0.050737	0.000108
C24	C	1.060515	-0.176735	0.000107
C25	C	1.056147	-0.407419	0.000089
C26	C	1.058574	-0.279050	0.000099
C27	C	1.220859	0.148696	0.000115
C28	C	1.320166	0.151070	0.000119
C29	C	1.051843	0.364257	0.000091
C30	C	1.054218	0.490256	0.000086
N31	N	1.057349	0.156744	0.235458
N32	N	1.057392	0.156767	-0.235257
C33	C	1.117802	0.079699	0.287507
C34	C	1.117808	0.079698	0.391611
C35	C	1.057363	0.156749	0.443662
C36	C	0.996904	0.233798	0.391605
C37	C	0.996895	0.233792	0.287504
C38	C	0.996929	0.233805	0.608585
C39	C	0.996939	0.233813	0.712694
C40	C	1.117842	0.079711	0.712692
C41	C	1.117832	0.079706	0.608591
C42	C	1.057374	0.156756	0.556541
H43	H	0.347274	-0.036282	0.000133
O44	O	1.176694	0.004976	0.763206
C45	C	1.265318	0.023606	0.737736
H46	H	1.266181	0.114478	0.709104
H47	H	1.291288	-0.039250	0.677316
C48	C	1.324817	-0.105499	0.865374
C49	C	1.325879	0.006115	0.830215
H50	H	1.362175	-0.116293	0.922417
H51	H	1.265110	-0.118054	0.882531
H52	H	1.346456	-0.157866	0.815015
H53	H	1.304229	0.058479	0.880569
H54	H	1.385584	0.018679	0.813068
H55	H	0.516553	-0.032229	0.000121
H56	H	0.598187	0.345744	0.000081
H57	H	0.635057	-0.029377	0.000126
O58	O	0.938150	0.308488	0.442277
C59	C	0.882672	0.247589	0.502495
H60	H	0.917872	0.158850	0.518096
H61	H	0.816527	0.239736	0.462389
C62	C	0.820644	0.420534	0.582213
C63	C	0.863880	0.311547	0.601382
H64	H	0.809048	0.459988	0.643210
H65	H	0.858017	0.461565	0.541641
H66	H	0.765527	0.413975	0.548790
H67	H	0.919000	0.318108	0.634793
H68	H	0.826515	0.270519	0.641962
O69	O	0.938295	0.308684	0.236830
C70	C	0.986524	0.378823	0.176612
H71	H	1.056295	0.333767	0.161013
H72	H	0.993006	0.462724	0.216717
C73	C	0.850509	0.458305	0.096889
C74	C	0.936200	0.402961	0.077723
H75	H	0.819466	0.473200	0.035892
H76	H	0.818015	0.411055	0.137461
H77	H	0.855923	0.528216	0.130312
H78	H	0.930786	0.333046	0.044313
H79	H	0.968692	0.450201	0.037143
H80	H	0.947718	0.296554	0.755069
H81	H	0.767455	0.349805	0.000060
O82	O	1.176429	0.004672	0.237016
C83	C	1.161341	-0.107694	0.262525
H84	H	1.089723	-0.108366	0.291137
H85	H	1.210744	-0.140909	0.322971
C86	C	1.262832	-0.183838	0.134945
C87	C	1.174867	-0.184664	0.170079
H88	H	1.271178	-0.231318	0.077922
H89	H	1.273000	-0.108135	0.117761
H90	H	1.303990	-0.211514	0.185325
H91	H	1.133710	-0.156975	0.119704
H92	H	1.164692	-0.260364	0.187253
H93	H	0.804341	-0.025325	0.000097
H94	H	1.167032	0.016961	0.433989
O95	O	1.176330	0.004583	0.558031
C96	C	1.127915	-0.065532	0.498016
H97	H	1.058234	-0.020264	0.482320
H98	H	1.121223	-0.149251	0.538345
C99	C	1.263783	-0.145782	0.418460
C100	C	1.178201	-0.090178	0.399175
H101	H	1.294803	-0.160990	0.357492
H102	H	1.296402	-0.098548	0.458896
H103	H	1.258194	-0.215541	0.452070
H104	H	1.183792	-0.020415	0.365577
H105	H	1.145585	-0.137402	0.358731
O106	O	0.485264	0.359421	0.000130
C107	C	0.415110	0.449206	0.000105
H108	H	0.351577	0.417309	0.031422
H109	H	0.402060	0.480761	-0.079240
C110	C	0.519964	0.586922	0.026488
C111	C	0.441933	0.547748	0.064961
H112	H	0.536510	0.647710	0.066490
H113	H	0.567229	0.526433	0.026502
H114	H	0.509079	0.613209	-0.039631
H115	H	0.452822	0.521449	0.131074
H116	H	0.394671	0.608235	0.064960
O117	O	0.301341	0.354817	0.000146
C118	C	0.211161	0.330439	0.000133
H119	H	0.207153	0.241290	0.031460
H120	H	0.184199	0.334697	-0.079209
C121	C	0.159413	0.527980	0.026502
C122	C	0.154489	0.418488	0.064987
H123	H	0.124453	0.582295	0.066502
H124	H	0.220169	0.544405	0.026507
H125	H	0.136946	0.531512	-0.039616
H126	H	0.176967	0.414954	0.131098
H127	H	0.093736	0.402064	0.064994
H128	H	0.947693	0.296545	0.566210
