data_functionalizedCrystal
_audit_creation_method	'MofGen! by Chris Wilmer'
_symmetry_space_group_name_H-M	'P1'
_symmetry_Int_Tables_number	1
_symmetry_cell_setting	triclinic
loop_
_symmetry_equiv_pos_as_xyz
  x,y,z
_cell_length_a	14.044220
_cell_length_b	17.038275
_cell_length_c	13.101039
_cell_angle_alpha	93.601678
_cell_angle_beta	93.667477
_cell_angle_gamma	87.850425
loop_
_atom_site_label
_atom_site_type_symbol
_atom_site_fract_x
_atom_site_fract_y
_atom_site_fract_z
O1	O	0.202072	-1.055807	-0.085240
O2	O	0.535405	-0.722474	0.248093
O3	O	0.868738	-0.389140	0.581427
O4	O	0.198788	-0.827946	-0.085237
O5	O	0.532121	-0.494613	0.248096
O6	O	0.865455	-0.161280	0.581429
O7	O	0.062170	-0.938456	-0.085228
O8	O	0.395503	-0.605123	0.248105
O9	O	0.728837	-0.271789	0.581438
O10	O	0.338690	-0.945297	-0.085249
O11	O	0.672023	-0.611964	0.248085
O12	O	1.005356	-0.278631	0.581418
O13	O	0.071990	-0.930528	0.085201
O14	O	0.405323	-0.597195	0.418534
O15	O	0.738656	-0.263862	0.751867
O16	O	0.208608	-0.820019	0.085192
O17	O	0.541941	-0.486685	0.418525
O18	O	0.875274	-0.153352	0.751858
O19	O	0.211891	-1.047879	0.085189
O20	O	0.545225	-0.714546	0.418523
O21	O	0.878558	-0.381213	0.751856
Zn22	Zn	0.211808	-0.932690	0.112250
Zn23	Zn	0.545142	-0.599357	0.445583
Zn24	Zn	0.878475	-0.266024	0.778917
Zn25	Zn	0.198871	-0.943135	-0.112298
Zn26	Zn	0.532204	-0.609802	0.221035
Zn27	Zn	0.865537	-0.276469	0.554369
O28	O	0.348509	-0.937370	0.085180
O29	O	0.681843	-0.604036	0.418514
O30	O	1.015176	-0.270703	0.751847
C31	C	0.200709	-0.794645	-0.000022
C32	C	0.534042	-0.461312	0.333311
C33	C	0.867375	-0.127979	0.666644
C34	C	0.191791	-0.707228	-0.000021
C35	C	0.525124	-0.373895	0.333312
C36	C	0.858457	-0.040562	0.666646
C37	C	0.031524	-0.931498	-0.000013
C38	C	0.364857	-0.598165	0.333320
C39	C	0.698191	-0.264831	0.666653
C40	C	-0.074422	-0.922567	-0.000012
C41	C	0.258912	-0.589233	0.333321
C42	C	0.592245	-0.255900	0.666655
C43	C	-0.268400	-0.906239	-0.000027
C44	C	0.064933	-0.572905	0.333307
C45	C	0.398266	-0.239572	0.666640
C46	C	-0.320927	-0.969584	-0.000030
C47	C	0.012407	-0.636251	0.333303
C48	C	0.345740	-0.302917	0.666636
C49	C	-0.428863	-0.960499	-0.000039
C50	C	-0.095530	-0.627166	0.333295
C51	C	0.237804	-0.293832	0.666628
C52	C	-0.160454	-0.915323	-0.000019
C53	C	0.172879	-0.581989	0.333315
C54	C	0.506213	-0.248656	0.666648
C55	C	0.137004	-0.212983	-0.000015
C56	C	0.470337	0.120350	0.333318
C57	C	0.803670	0.453683	0.666651
C58	C	0.145391	-0.295120	-0.000011
C59	C	0.478724	0.038213	0.333323
C60	C	0.812057	0.371546	0.666656
C61	C	0.235665	-0.332870	-0.000022
C62	C	0.568999	0.000463	0.333311
C63	C	0.902332	0.333797	0.666644
C64	C	0.317559	-0.288478	-0.000028
C65	C	0.650892	0.044856	0.333305
C66	C	0.984226	0.378189	0.666638
C67	C	0.309172	-0.206342	-0.000026
C68	C	0.642505	0.126992	0.333308
C69	C	0.975838	0.460325	0.666641
C70	C	0.265297	-0.580700	-0.000024
C71	C	0.598630	-0.247367	0.333309
C72	C	0.931964	0.085966	0.666642
C73	C	0.273678	-0.662842	-0.000030
C74	C	0.607012	-0.329509	0.333303
C75	C	0.940345	0.003825	0.666637
C76	C	0.101509	-0.669479	-0.000011
C77	C	0.434842	-0.336146	0.333323
C78	C	0.768176	-0.002813	0.666656
C79	C	0.093129	-0.587342	-0.000014
C80	C	0.426462	-0.254009	0.333319
C81	C	0.759796	0.079325	0.666653
C82	C	0.175023	-0.542957	-0.000015
C83	C	0.508356	-0.209623	0.333319
C84	C	0.841690	0.123710	0.666652
C85	C	0.244240	-0.416827	-0.000021
C86	C	0.577574	-0.083494	0.333312
C87	C	0.910907	0.249840	0.666646
C88	C	0.166448	-0.459001	-0.000009
C89	C	0.499781	-0.125667	0.333325
C90	C	0.833114	0.207666	0.666658
C91	C	0.379155	-0.944328	-0.000037
C92	C	0.712488	-0.610995	0.333296
C93	C	1.045822	-0.277661	0.666630
C94	C	0.485101	-0.953260	-0.000045
C95	C	0.818434	-0.619926	0.333288
C96	C	1.151767	-0.286593	0.666622
N97	N	0.220638	-0.925568	0.265498
N98	N	0.553971	-0.592234	0.598831
N99	N	0.887305	-0.258901	0.932164
C100	C	0.209971	-0.081181	-0.000025
C101	C	0.543305	0.252153	0.333308
C102	C	0.876638	0.585486	0.666642
C103	C	0.218891	-0.168597	-0.000024
C104	C	0.552224	0.164736	0.333309
C105	C	0.885558	0.498069	0.666642
N106	N	0.190034	-0.950264	-0.265546
N107	N	0.523368	-0.616931	0.067787
N108	N	0.856701	-0.283597	0.401121
C109	C	0.232660	-0.915877	0.474540
C110	C	0.565993	-0.582544	0.807873
C111	C	0.899326	-0.249211	1.141206
C112	C	0.178016	-0.959952	0.525419
C113	C	0.511349	-0.626619	0.858752
C114	C	0.844682	-0.293285	1.192086
C115	C	0.184705	-0.954560	0.641737
C116	C	0.518038	-0.621227	0.975070
C117	C	0.851371	-0.287893	1.308404
C118	C	0.225972	-0.921268	0.358211
C119	C	0.559305	-0.587935	0.691544
C120	C	0.892638	-0.254601	1.024878
H121	H	-0.284837	-1.030642	-0.000100
H122	H	0.048496	-0.697308	0.333233
H123	H	0.381830	-0.363975	0.666567
H124	H	0.126211	-1.001735	0.481620
H125	H	0.459544	-0.668402	0.814953
H126	H	0.792877	-0.335069	1.148287
C127	C	0.302621	-0.859417	0.533695
C128	C	0.635955	-0.526084	0.867029
C129	C	0.969288	-0.192751	1.200362
H130	H	0.336019	-0.832461	0.486479
H131	H	0.669352	-0.499128	0.819812
H132	H	1.002686	-0.165795	1.153146
H133	H	0.346912	-0.888601	0.575557
H134	H	0.680246	-0.555267	0.908891
H135	H	1.013579	-0.221934	1.242224
H136	H	0.268079	-0.822341	0.575543
H137	H	0.601412	-0.489008	0.908876
H138	H	0.934745	-0.155675	1.242210
C139	C	-0.317153	-0.823764	-0.000017
C140	C	0.016181	-0.490431	0.333316
C141	C	0.349514	-0.157098	0.666649
H142	H	-0.384353	-0.828401	-0.000012
H143	H	-0.051020	-0.495068	0.333321
H144	H	0.282313	-0.161735	0.666655
H145	H	-0.302019	-0.798763	-0.059443
H146	H	0.031314	-0.465430	0.273891
H147	H	0.364648	-0.132097	0.607224
H148	H	-0.295180	-0.793250	0.059430
H149	H	0.038154	-0.459917	0.392763
H150	H	0.371487	-0.126584	0.726096
H151	H	0.375854	-0.170203	-0.000029
H152	H	0.709187	0.163130	0.333304
H153	H	1.042520	0.496464	0.666637
H154	H	0.092946	-0.428262	-0.000011
H155	H	0.426279	-0.094929	0.333322
H156	H	0.759612	0.238405	0.666656
H157	H	0.317742	-0.447572	-0.000033
H158	H	0.651076	-0.114239	0.333300
H159	H	0.984409	0.219095	0.666633
C160	C	0.355377	-0.531887	-0.000034
C161	C	0.688710	-0.198554	0.333299
C162	C	1.022043	0.134780	0.666633
H163	H	0.410339	-0.566136	-0.000053
H164	H	0.743672	-0.232803	0.333281
H165	H	1.077006	0.100531	0.666614
H166	H	0.359116	-0.496944	0.059400
H167	H	0.692449	-0.163611	0.392733
H168	H	1.025783	0.169722	0.726066
H169	H	0.352257	-0.502473	-0.059473
H170	H	0.685590	-0.169139	0.273861
H171	H	1.018924	0.164194	0.607194
C172	C	0.037701	-0.171466	-0.000002
C173	C	0.371034	0.161867	0.333332
C174	C	0.704367	0.495201	0.666665
H175	H	-0.009866	-0.209667	0.000014
H176	H	0.323468	0.123666	0.333347
H177	H	0.656801	0.456999	0.666681
H178	H	0.027419	-0.142326	-0.059432
H179	H	0.360752	0.191007	0.273902
H180	H	0.694085	0.524340	0.607235
H181	H	0.034280	-0.136800	0.059441
H182	H	0.367613	0.196533	0.392774
H183	H	0.700947	0.529867	0.726107
C184	C	0.055314	-0.343942	-0.000002
C185	C	0.388647	-0.010609	0.333331
C186	C	0.721981	0.322725	0.666664
H187	H	0.000348	-0.309697	-0.000007
H188	H	0.333682	0.023637	0.333326
H189	H	0.667015	0.356970	0.666659
H190	H	0.058431	-0.373355	0.059431
H191	H	0.391764	-0.040022	0.392764
H192	H	0.725097	0.293311	0.726097
H193	H	0.051582	-0.378887	-0.059441
H194	H	0.384915	-0.045553	0.273892
H195	H	0.718248	0.287780	0.607225
H196	H	0.034836	-0.705626	-0.000009
H197	H	0.368169	-0.372293	0.333324
H198	H	0.701503	-0.038960	0.666658
C199	C	-0.006173	-0.545822	0.000011
C200	C	0.327161	-0.212489	0.333344
C201	C	0.660494	0.120844	0.666678
H202	H	-0.053741	-0.584021	0.000027
H203	H	0.279592	-0.250688	0.333361
H204	H	0.612925	0.082645	0.666694
H205	H	-0.016455	-0.516681	-0.059417
H206	H	0.316879	-0.183347	0.273916
H207	H	0.650212	0.149986	0.607250
H208	H	-0.009588	-0.511158	0.059455
H209	H	0.323745	-0.177824	0.392789
H210	H	0.657078	0.155509	0.726122
C211	C	0.416861	-0.329996	-0.000044
C212	C	0.750195	0.003337	0.333289
C213	C	1.083528	0.336670	0.666623
H214	H	0.464430	-0.291795	-0.000041
H215	H	0.797763	0.041538	0.333292
H216	H	1.131096	0.374872	0.666626
H217	H	0.420283	-0.364662	-0.059480
H218	H	0.753617	-0.031329	0.273854
H219	H	1.086950	0.302005	0.607187
H220	H	0.427141	-0.359136	0.059393
H221	H	0.760474	-0.025802	0.392726
H222	H	1.093808	0.307531	0.726059
H223	H	0.347195	-0.693574	-0.000025
H224	H	0.680529	-0.360241	0.333309
H225	H	1.013862	-0.026908	0.666642
