data_functionalizedCrystal
_audit_creation_method	'MofGen! by Chris Wilmer'
_symmetry_space_group_name_H-M	'P1'
_symmetry_Int_Tables_number	1
_symmetry_cell_setting	triclinic
loop_
_symmetry_equiv_pos_as_xyz
  x,y,z
_cell_length_a	16.625548
_cell_length_b	21.295417
_cell_length_c	16.625548
_cell_angle_alpha	90.016382
_cell_angle_beta	90.008236
_cell_angle_gamma	90.031575
loop_
_atom_site_label
_atom_site_type_symbol
_atom_site_fract_x
_atom_site_fract_y
_atom_site_fract_z
Zn1	Zn	1.232537	-0.250696	0.455881
Zn2	Zn	1.232451	-0.355938	0.321036
Zn3	Zn	1.097728	-0.250688	0.321061
Zn4	Zn	1.097651	-0.355933	0.455826
O5	O	1.165092	-0.303314	0.388451
O6	O	1.345358	-0.264661	0.438006
O7	O	1.214576	-0.341975	0.208207
O8	O	1.115680	-0.162600	0.338979
O9	O	1.345294	-0.341982	0.338936
O10	O	1.214723	-0.162605	0.438030
O11	O	1.115595	-0.264649	0.208226
O12	O	0.984885	-0.264644	0.338926
O13	O	1.115547	-0.341974	0.568665
O14	O	0.984828	-0.341967	0.437937
O15	O	1.214648	-0.264657	0.568706
O16	O	1.214500	-0.444027	0.338883
O17	O	1.115463	-0.444023	0.437912
C18	C	0.955601	-0.303305	0.388428
C19	C	0.865980	-0.303316	0.388438
C20	C	0.537804	-0.303320	0.388472
C21	C	0.629112	-0.303317	0.388460
C22	C	0.701889	-0.303318	0.388454
C23	C	0.793203	-0.303315	0.388444
C24	C	1.164986	-0.466865	0.388406
C25	C	1.165014	-0.536833	0.388414
C26	C	1.216629	-0.569681	0.336902
C27	C	1.216667	-0.635424	0.336920
C28	C	1.165076	-0.668316	0.388442
C29	C	1.113458	-0.635460	0.439964
C30	C	1.113427	-0.569719	0.439950
N31	N	1.094539	-0.771584	0.394581
N32	N	1.094571	-0.834036	0.394590
C33	C	1.165166	-0.866391	0.388488
N34	N	1.235730	-0.833935	0.382362
N35	N	1.235698	-0.771478	0.382349
C36	C	1.165103	-0.739601	0.388463
C37	C	1.216826	-0.970524	0.336993
C38	C	1.216865	-1.036268	0.337017
C39	C	1.113649	-1.036303	0.440056
C40	C	1.113617	-0.970561	0.440037
C41	C	1.165204	-0.937675	0.388501
C42	C	1.375400	-0.303323	0.388474
C43	C	1.465022	-0.303327	0.388484
C44	C	1.165099	-0.303316	0.598760
C45	C	1.165102	-0.303316	0.688381
C46	C	1.165220	-0.139123	0.388513
C47	C	1.165274	-0.069155	0.388540
C48	C	1.165068	-0.303322	1.016557
C49	C	1.165075	-0.303322	0.925248
C50	C	1.165085	-0.303320	0.852472
C51	C	1.165092	-0.303319	0.761157
C52	C	1.165077	-0.303325	1.178960
C53	C	1.165069	-0.303320	1.089339
H54	H	1.258636	-0.542908	0.294941
H55	H	1.258834	-0.943747	0.295032
Br56	Br	1.286928	-1.080848	0.267110
H57	H	1.071396	-0.542974	0.481898
Br58	Br	1.043639	-1.080935	0.509988
H59	H	1.071584	-0.943814	0.481979
Br60	Br	1.043447	-0.680098	0.509893
H61	H	1.258700	-0.662173	0.294974
