data_functionalizedCrystal
_audit_creation_method	'MofGen! by Chris Wilmer'
_symmetry_space_group_name_H-M	'P1'
_symmetry_Int_Tables_number	1
_symmetry_cell_setting	triclinic
loop_
_symmetry_equiv_pos_as_xyz
  x,y,z
_cell_length_a	18.215407
_cell_length_b	19.077068
_cell_length_c	18.215399
_cell_angle_alpha	92.268164
_cell_angle_beta	89.980167
_cell_angle_gamma	92.327501
loop_
_atom_site_label
_atom_site_type_symbol
_atom_site_fract_x
_atom_site_fract_y
_atom_site_fract_z
Zn1	Zn	1.113288	-0.280200	-0.427869
Zn2	Zn	1.363288	-0.030200	-0.177869
Zn3	Zn	1.613288	0.219800	0.072131
Zn4	Zn	1.863288	0.469800	0.322131
Zn5	Zn	1.108246	-0.397902	-0.309739
Zn6	Zn	1.358246	-0.147902	-0.059739
Zn7	Zn	1.608246	0.102098	0.190261
Zn8	Zn	1.858246	0.352098	0.440261
Zn9	Zn	0.990220	-0.280223	-0.304817
Zn10	Zn	1.240220	-0.030223	-0.054817
Zn11	Zn	1.490220	0.219777	0.195183
Zn12	Zn	1.740220	0.469777	0.445183
Zn13	Zn	0.985238	-0.397863	-0.432763
Zn14	Zn	1.235238	-0.147863	-0.182763
Zn15	Zn	1.485238	0.102137	0.067237
Zn16	Zn	1.735238	0.352137	0.317237
O17	O	1.049248	-0.339047	-0.368797
O18	O	1.299248	-0.089047	-0.118797
O19	O	1.549248	0.160953	0.131203
O20	O	1.799248	0.410953	0.381203
O21	O	1.215603	-0.295821	-0.412210
O22	O	1.465603	-0.045821	-0.162210
O23	O	1.715603	0.204179	0.087790
O24	O	1.965603	0.454179	0.337790
O25	O	1.092565	-0.382318	-0.206103
O26	O	1.342565	-0.132318	0.043897
O27	O	1.592565	0.117682	0.293897
O28	O	1.842565	0.367682	0.543897
O29	O	1.010740	-0.181729	-0.317032
O30	O	1.260740	0.068271	-0.067032
O31	O	1.510740	0.318271	0.182968
O32	O	1.760740	0.568271	0.432968
O33	O	1.211899	-0.382295	-0.325421
O34	O	1.461899	-0.132295	-0.075421
O35	O	1.711899	0.117705	0.174579
O36	O	1.961899	0.367705	0.424579
O37	O	1.101157	-0.181712	-0.407437
O38	O	1.351157	0.068288	-0.157437
O39	O	1.601157	0.318288	0.092563
O40	O	1.851157	0.568288	0.342563
O41	O	1.005851	-0.295860	-0.202487
O42	O	1.255851	-0.045860	0.047513
O43	O	1.505851	0.204140	0.297513
O44	O	1.755851	0.454140	0.547513
O45	O	0.886575	-0.295822	-0.321777
O46	O	1.136575	-0.045822	-0.071777
O47	O	1.386575	0.204178	0.178223
O48	O	1.636575	0.454178	0.428223
O49	O	1.002249	-0.382229	-0.535097
O50	O	1.252249	-0.132229	-0.285097
O51	O	1.502249	0.117771	-0.035097
O52	O	1.752249	0.367771	0.214903
O53	O	0.882915	-0.382251	-0.415778
O54	O	1.132915	-0.132251	-0.165778
O55	O	1.382915	0.117749	0.084222
O56	O	1.632915	0.367749	0.334222
O57	O	1.096327	-0.295783	-0.531501
O58	O	1.346327	-0.045783	-0.281501
O59	O	1.596327	0.204217	-0.031501
O60	O	1.846327	0.454217	0.218499
O61	O	1.087734	-0.496388	-0.330167
O62	O	1.337734	-0.246388	-0.080167
O63	O	1.587734	0.003612	0.169833
O64	O	1.837734	0.253612	0.419833
O65	O	0.997361	-0.496359	-0.420551
O66	O	1.247361	-0.246359	-0.170551
O67	O	1.497361	0.003641	0.079449
O68	O	1.747361	0.253641	0.329449
C69	C	0.858042	-0.339035	-0.368775
C70	C	1.108042	-0.089035	-0.118775
C71	C	1.358042	0.160965	0.131225
C72	C	1.608042	0.410965	0.381225
C73	C	0.776243	-0.339047	-0.368784
C74	C	1.026243	-0.089047	-0.118784
C75	C	1.276243	0.160953	0.131216
C76	C	1.526243	0.410953	0.381216
C77	C	0.586159	-0.384121	-0.417674
C78	C	0.836159	-0.134121	-0.167674
C79	C	1.086159	0.115879	0.082326
C80	C	1.336159	0.365879	0.332326
C81	C	0.509301	-0.384124	-0.417684
C82	C	0.759301	-0.134124	-0.167684
C83	C	1.009301	0.115876	0.082316
C84	C	1.259301	0.365876	0.332316
C85	C	0.513088	-0.293986	-0.319936
C86	C	0.763088	-0.043986	-0.069936
C87	C	1.013088	0.206014	0.180064
C88	C	1.263088	0.456014	0.430064
C89	C	0.589945	-0.293980	-0.319931
C90	C	0.839945	-0.043980	-0.069931
C91	C	1.089945	0.206020	0.180069
C92	C	1.339945	0.456020	0.430069
C93	C	0.626479	-0.339052	-0.368799
C94	C	0.876479	-0.089052	-0.118799
C95	C	1.126479	0.160948	0.131201
C96	C	1.376479	0.410948	0.381201
C97	C	0.472763	-0.339060	-0.368814
C98	C	0.722763	-0.089060	-0.118814
C99	C	0.972763	0.160940	0.131186
C100	C	1.222763	0.410940	0.381186
C101	C	0.389429	-0.339062	-0.368823
C102	C	0.639429	-0.089062	-0.118823
C103	C	0.889429	0.160938	0.131177
C104	C	1.139429	0.410938	0.381177
C105	C	0.709818	-0.339050	-0.368791
C106	C	0.959818	-0.089050	-0.118791
C107	C	1.209818	0.160950	0.131209
C108	C	1.459818	0.410950	0.381209
C109	C	1.041480	-0.521911	-0.376440
C110	C	1.291480	-0.271911	-0.126440
C111	C	1.541480	-0.021911	0.123560
C112	C	1.791480	0.228089	0.373560
C113	C	1.038224	-0.600141	-0.379735
C114	C	1.288224	-0.350141	-0.129735
C115	C	1.538224	-0.100141	0.120265
C116	C	1.788224	0.149859	0.370265
C117	C	1.083783	-0.636886	-0.334263
C118	C	1.333783	-0.386886	-0.084263
C119	C	1.583783	-0.136886	0.165737
C120	C	1.833783	0.113114	0.415737
C121	C	1.080725	-0.710391	-0.337366
C122	C	1.330725	-0.460391	-0.087366
C123	C	1.580725	-0.210391	0.162634
C124	C	1.830725	0.039609	0.412634
C125	C	1.032104	-0.747151	-0.385937
C126	C	1.282104	-0.497151	-0.135937
C127	C	1.532104	-0.247151	0.114063
C128	C	1.782104	0.002849	0.364063
C129	C	0.986542	-0.710401	-0.431414
C130	C	1.236542	-0.460401	-0.181414
C131	C	1.486542	-0.210401	0.068586
C132	C	1.736542	0.039599	0.318586
C133	C	0.989604	-0.636897	-0.428314
C134	C	1.239604	-0.386897	-0.178314
C135	C	1.489604	-0.136897	0.071686
C136	C	1.739604	0.113103	0.321686
C137	C	1.017899	-0.966985	-0.400254
C138	C	1.267899	-0.716985	-0.150254
C139	C	1.517899	-0.466985	0.099746
C140	C	1.767899	-0.216985	0.349746
C141	C	1.014839	-1.040495	-0.403348
C142	C	1.264839	-0.790495	-0.153348
C143	C	1.514839	-0.540495	0.096652
C144	C	1.764839	-0.290495	0.346652
C145	C	1.109023	-1.040479	-0.309301
C146	C	1.359023	-0.790479	-0.059301
C147	C	1.609023	-0.540479	0.190699
C148	C	1.859023	-0.290479	0.440699
C149	C	1.112078	-0.966974	-0.306202
C150	C	1.362078	-0.716974	-0.056202
C151	C	1.612078	-0.466974	0.193798
C152	C	1.862078	-0.216974	0.443798
C153	C	1.066520	-0.930231	-0.351682
C154	C	1.316520	-0.680231	-0.101682
C155	C	1.566520	-0.430231	0.148318
C156	C	1.816520	-0.180231	0.398318
N157	N	1.028975	-0.822285	-0.389109
N158	N	1.278975	-0.572285	-0.139109
N159	N	1.528975	-0.322285	0.110891
N160	N	1.778975	-0.072285	0.360891
N161	N	1.069652	-0.855098	-0.348514
N162	N	1.319652	-0.605098	-0.098514
N163	N	1.569652	-0.355098	0.151486
N164	N	1.819652	-0.105098	0.401486
C165	C	1.241200	-0.339060	-0.368819
C166	C	1.491200	-0.089060	-0.118819
C167	C	1.741200	0.160940	0.131181
C168	C	1.991200	0.410940	0.381181
C169	C	1.322999	-0.339065	-0.368828
C170	C	1.572999	-0.089065	-0.118828
C171	C	1.822999	0.160935	0.131172
C172	C	2.072999	0.410935	0.381172
C173	C	1.049295	-0.338999	-0.560748
C174	C	1.299295	-0.088999	-0.310748
C175	C	1.549295	0.161001	-0.060748
C176	C	1.799295	0.411001	0.189252
C177	C	1.049315	-0.338978	-0.642546
C178	C	1.299315	-0.088978	-0.392546
C179	C	1.549315	0.161022	-0.142546
C180	C	1.799315	0.411022	0.107454
C181	C	1.057067	-0.155469	-0.361140
C182	C	1.307067	0.094531	-0.111140
C183	C	1.557067	0.344531	0.138860
C184	C	1.807067	0.594531	0.388860
C185	C	1.060398	-0.077239	-0.357877
C186	C	1.310398	0.172761	-0.107877
C187	C	1.560398	0.422761	0.142123
C188	C	1.810398	0.672761	0.392123
C189	C	1.098320	-0.293923	-0.828867
C190	C	1.348320	-0.043923	-0.578867
C191	C	1.598320	0.206077	-0.328867
C192	C	1.848320	0.456077	-0.078867
C193	C	1.098329	-0.293903	-0.905725
C194	C	1.348329	-0.043903	-0.655725
C195	C	1.598329	0.206097	-0.405725
C196	C	1.848329	0.456097	-0.155725
C197	C	1.000366	-0.383924	-0.909458
C198	C	1.250366	-0.133924	-0.659458
C199	C	1.500366	0.116076	-0.409458
C200	C	1.750366	0.366076	-0.159458
C201	C	1.000354	-0.383940	-0.832601
C202	C	1.250354	-0.133940	-0.582601
C203	C	1.500354	0.116060	-0.332601
C204	C	1.750354	0.366060	-0.082601
C205	C	1.049335	-0.338941	-0.792308
C206	C	1.299335	-0.088941	-0.542308
C207	C	1.549335	0.161059	-0.292308
C208	C	1.799335	0.411059	-0.042308
C209	C	1.049357	-0.338904	-0.946023
C210	C	1.299357	-0.088904	-0.696023
C211	C	1.549357	0.161096	-0.446023
C212	C	1.799357	0.411096	-0.196023
C213	C	1.049367	-0.338882	-1.029355
C214	C	1.299367	-0.088882	-0.779355
C215	C	1.549367	0.161118	-0.529355
C216	C	1.799367	0.411118	-0.279355
C217	C	1.049324	-0.338962	-0.708970
C218	C	1.299324	-0.088962	-0.458970
C219	C	1.549324	0.161038	-0.208970
C220	C	1.799324	0.411038	0.041030
C221	C	1.049246	-0.339045	-0.177591
C222	C	1.299246	-0.089045	0.072409
C223	C	1.549246	0.160955	0.322409
C224	C	1.799246	0.410955	0.572409
C225	C	1.049377	-0.338867	-0.095785
C226	C	1.299377	-0.088867	0.154215
C227	C	1.549377	0.161133	0.404215
C228	C	1.799377	0.411133	0.654215
H229	H	0.622775	-0.257275	-0.280130
H230	H	0.872775	-0.007275	-0.030130
H231	H	1.122775	0.242725	0.219870
H232	H	1.372775	0.492725	0.469870
H233	H	0.952506	-0.606981	-0.465343
H234	H	1.202506	-0.356981	-0.215343
H235	H	1.452506	-0.106981	0.034657
H236	H	1.702506	0.143019	0.284657
H237	H	1.138201	-0.257280	-0.796062
H238	H	1.388201	-0.007280	-0.546062
H239	H	1.638201	0.242720	-0.296062
H240	H	1.888201	0.492720	-0.046062
H241	H	1.138217	-0.257244	-0.935488
H242	H	1.388217	-0.007244	-0.685488
H243	H	1.638217	0.242756	-0.435488
H244	H	1.888217	0.492756	-0.185488
H245	H	0.960459	-0.420598	-0.802834
H246	H	1.210459	-0.170598	-0.552834
H247	H	1.460459	0.079402	-0.302834
H248	H	1.710459	0.329402	-0.052834
Br249	Br	0.635739	-0.445288	-0.483997
Br250	Br	0.885739	-0.195288	-0.233997
Br251	Br	1.135739	0.054712	0.016003
Br252	Br	1.385739	0.304712	0.266003
Br253	Br	0.454584	-0.445288	-0.484021
Br254	Br	0.704584	-0.195288	-0.234021
Br255	Br	0.954584	0.054712	0.015979
Br256	Br	1.204584	0.304712	0.265979
Br257	Br	0.933898	-0.444994	-0.964146
Br258	Br	1.183898	-0.194994	-0.714146
Br259	Br	1.433898	0.055006	-0.464146
Br260	Br	1.683898	0.305006	-0.214146
H261	H	0.483333	-0.257291	-0.280148
H262	H	0.733333	-0.007291	-0.030148
H263	H	0.983333	0.242709	0.219852
H264	H	1.233333	0.492709	0.469852
H265	H	1.123373	-0.606961	-0.294708
H266	H	1.373373	-0.356961	-0.044708
H267	H	1.623373	-0.106961	0.205292
H268	H	1.873373	0.143039	0.455292
Br269	Br	1.142564	-0.760256	-0.275656
Br270	Br	1.392564	-0.510256	-0.025656
Br271	Br	1.642564	-0.260256	0.224344
Br272	Br	1.892564	-0.010256	0.474344
H273	H	1.151670	-0.937045	-0.266652
H274	H	1.401670	-0.687045	-0.016652
H275	H	1.651670	-0.437045	0.233348
H276	H	1.901670	-0.187045	0.483348
H277	H	0.975254	-1.070422	-0.442914
H278	H	1.225254	-0.820422	-0.192914
H279	H	1.475254	-0.570422	0.057086
H280	H	1.725254	-0.320422	0.307086
Br281	Br	1.170853	-1.090348	-0.247586
Br282	Br	1.420853	-0.840348	0.002414
Br283	Br	1.670853	-0.590348	0.252414
Br284	Br	1.920853	-0.340348	0.502414
Br285	Br	0.956069	-0.917129	-0.461976
Br286	Br	1.206069	-0.667129	-0.211976
Br287	Br	1.456069	-0.417129	0.038024
Br288	Br	1.706069	-0.167129	0.288024
Br289	Br	0.920561	-0.760289	-0.497340
Br290	Br	1.170561	-0.510289	-0.247340
Br291	Br	1.420561	-0.260289	0.002660
Br292	Br	1.670561	-0.010289	0.252660
