data_functionalizedCrystal
_audit_creation_method	'MofGen! by Chris Wilmer'
_symmetry_space_group_name_H-M	'P1'
_symmetry_Int_Tables_number	1
_symmetry_cell_setting	triclinic
loop_
_symmetry_equiv_pos_as_xyz
  x,y,z
_cell_length_a	19.188879
_cell_length_b	10.540510
_cell_length_c	9.016244
_cell_angle_alpha	89.992396
_cell_angle_beta	90.012035
_cell_angle_gamma	96.181306
loop_
_atom_site_label
_atom_site_type_symbol
_atom_site_fract_x
_atom_site_fract_y
_atom_site_fract_z
O1	O	-0.098292	1.683717	-0.123385
O2	O	-0.107584	1.314091	-0.123390
O3	O	-0.001350	1.509604	-0.123341
O4	O	-0.204525	1.488204	-0.123434
O5	O	-0.001353	1.509575	0.123340
O6	O	-0.107586	1.314062	0.123291
O7	O	-0.098294	1.683688	0.123295
Cu8	Cu	-0.102940	1.498873	0.145817
Cu9	Cu	-0.102938	1.498906	-0.145911
O10	O	-0.204528	1.488175	0.123247
C11	C	-0.106893	1.266789	-0.000049
C12	C	-0.104821	1.125885	-0.000048
C13	C	-0.178621	0.906779	-0.000649
C14	C	-0.180831	1.053325	-0.000085
C15	C	-0.065913	1.081979	0.140833
C16	C	-0.064241	0.935256	0.140943
C17	C	-0.062655	0.935517	-0.139579
C18	C	-0.066261	1.081778	-0.141433
C19	C	-0.230543	1.488872	-0.000106
C20	C	-0.308063	1.490920	-0.000142
C21	C	-0.344453	1.491898	0.134331
C22	C	-0.417289	1.493858	0.134357
C23	C	-0.453730	1.494864	-0.000098
C24	C	-0.417331	1.493878	-0.134589
C25	C	-0.344498	1.491906	-0.134611
N26	N	-0.563247	1.570207	-0.100149
N27	N	-0.632435	1.572083	-0.100119
C28	C	-0.673174	1.500803	-0.000040
N29	N	-0.642109	1.427591	0.100031
N30	N	-0.572913	1.425721	0.100006
C31	C	-0.532706	1.497001	-0.000089
C32	C	-0.788541	1.503904	0.134471
C33	C	-0.861379	1.505855	0.134491
C34	C	-0.861420	1.505888	-0.134459
C35	C	-0.788584	1.503924	-0.134475
C36	C	-0.752149	1.502938	-0.000006
C37	C	0.024664	1.508907	0.000008
C38	C	0.102184	1.506859	0.000035
C39	C	-0.098985	1.730991	-0.000048
C40	C	-0.101057	1.871894	-0.000059
N41	N	-0.102942	1.498858	0.351003
N42	N	-0.102931	1.498931	-0.351098
C43	C	-0.159579	1.393959	0.586010
C44	C	-0.159791	1.394184	0.414119
C45	C	-0.119507	1.631213	0.413334
C46	C	-0.119909	1.630638	0.585279
C47	C	-0.029554	1.472726	0.585581
C48	C	-0.030030	1.469670	0.413626
H49	H	-0.208064	0.862602	0.099786
H50	H	-0.013786	1.378340	0.629035
Cl51	Cl	-0.907228	1.507102	-0.303491
H52	H	-0.149766	1.295252	0.627408
H53	H	-0.214231	1.410866	0.372947
Cl54	Cl	0.038183	1.580098	0.347330
Cl55	Cl	0.020484	1.157061	0.148961
H56	H	-0.086625	0.892445	-0.246358
H57	H	-0.208233	0.864175	-0.101684
Cl58	Cl	-0.742735	1.502657	0.303514
Cl59	Cl	-0.907129	1.507062	0.303560
Cl60	Cl	-0.109945	1.125062	-0.302352
H61	H	-0.758954	1.503136	-0.243978
Cl62	Cl	-0.010640	1.319355	0.350735
H63	H	-0.211270	1.082002	-0.101079
H64	H	-0.149825	1.295789	0.371979
Cl65	Cl	-0.228109	1.096114	0.156063
H66	H	-0.080310	1.711167	0.626880
Cl67	Cl	0.019421	1.159440	-0.154525
H68	H	0.012610	1.549281	0.626252
Cl69	Cl	0.025454	0.903292	-0.141006
H70	H	-0.090833	0.894432	0.246228
Cl71	Cl	-0.298653	1.490645	0.303378
H72	H	-0.446925	1.494631	0.243865
H73	H	-0.213710	1.410415	0.629178
Cl74	Cl	-0.463142	1.495149	-0.303618
Cl75	Cl	-0.298747	1.490679	-0.303677
Cl76	Cl	-0.057544	1.754660	0.350219
H77	H	-0.007391	0.913531	0.147368
H78	H	-0.092936	1.112217	0.245651
H79	H	-0.172436	1.654927	0.370232
H80	H	-0.173442	1.653795	0.625343
