data_functionalizedCrystal
_audit_creation_method	'MofGen! by Chris Wilmer'
_symmetry_space_group_name_H-M	'P1'
_symmetry_Int_Tables_number	1
_symmetry_cell_setting	triclinic
loop_
_symmetry_equiv_pos_as_xyz
  x,y,z
_cell_length_a	12.827893
_cell_length_b	12.827892
_cell_length_c	25.639233
_cell_angle_alpha	90.012547
_cell_angle_beta	90.013332
_cell_angle_gamma	90.013601
loop_
_atom_site_label
_atom_site_type_symbol
_atom_site_fract_x
_atom_site_fract_y
_atom_site_fract_z
Zn1	Zn	-1.597589	0.416210	-0.295642
Zn2	Zn	-1.597507	0.590935	-0.208215
Zn3	Zn	-1.422854	0.416203	-0.208219
Zn4	Zn	-1.422815	0.590904	-0.295619
O5	O	-1.510191	0.503563	-0.251924
O6	O	-1.743814	0.439404	-0.284052
O7	O	-1.574320	0.567766	-0.135051
O8	O	-1.446083	0.269968	-0.219827
O9	O	-1.743753	0.567773	-0.219821
O10	O	-1.574460	0.269973	-0.284056
O11	O	-1.446004	0.439391	-0.135053
O12	O	-1.276613	0.439362	-0.219805
O13	O	-1.446017	0.567721	-0.368787
O14	O	-1.276584	0.567714	-0.284017
O15	O	-1.574423	0.439374	-0.368804
O16	O	-1.574283	0.737167	-0.219799
O17	O	-1.445938	0.737144	-0.284013
C18	C	-1.238681	0.503535	-0.251909
C19	C	-1.122528	0.503548	-0.251915
C20	C	-1.070773	0.440137	-0.283748
C21	C	-0.950723	0.440149	-0.283755
C22	C	-1.510126	0.775073	-0.251914
C23	C	-1.510193	0.891226	-0.251928
C24	C	-1.510225	0.503545	-0.388297
C25	C	-1.510239	0.503537	-0.446411
C26	C	-0.782761	0.503584	-0.251934
C27	C	-0.898914	0.503571	-0.251928
C28	C	-1.510285	0.230993	-0.251944
C29	C	-1.510325	0.114840	-0.251953
C30	C	-1.573778	0.942987	-0.220188
C31	C	-1.573849	1.063038	-0.220201
C32	C	-1.577184	0.436508	-0.806788
C33	C	-1.577197	0.436479	-0.861393
O34	O	-1.634032	0.379612	-0.889642
N35	N	-1.510354	0.503292	-0.888693
C36	C	-1.443486	0.570131	-0.861387
O37	O	-1.386632	0.626957	-0.889623
C38	C	-1.443469	0.570153	-0.806784
C39	C	-1.510324	0.503344	-0.779486
C40	C	-1.644033	0.369703	-0.779490
C41	C	-1.644021	0.369734	-0.724890
C42	C	-1.577161	0.436569	-0.697587
C43	C	-1.510312	0.503374	-0.724885
C44	C	-1.376597	0.636986	-0.779478
C45	C	-1.376584	0.637002	-0.724871
C46	C	-1.443439	0.570193	-0.697573
C47	C	-1.443440	0.570240	-0.642982
N48	N	-1.510283	0.503428	-0.615681
C49	C	-1.577143	0.436592	-0.642984
C50	C	-1.443527	0.570076	-0.976058
C51	C	-1.443549	0.570059	-1.030660
C52	C	-1.577258	0.436406	-1.030662
C53	C	-1.577241	0.436429	-0.976059
C54	C	-1.510370	0.503263	-0.948757
C55	C	-1.577114	0.436662	-0.528319
C56	C	-1.577100	0.436701	-0.473713
C57	C	-1.443386	0.570350	-0.473716
C58	C	-1.443404	0.570315	-0.528317
C59	C	-1.510272	0.503462	-0.555617
O60	O	-1.386631	0.627076	-0.614698
O61	O	-1.633979	0.379766	-0.614742
C62	C	-1.510218	0.503506	-0.116081
C63	C	-1.510406	0.503219	-0.057967
H64	H	-0.906214	0.385865	-0.311010
H65	H	-0.943416	0.557868	-0.224677
O66	O	-1.445422	0.944331	-0.284435
C67	C	-1.468130	0.917650	-0.336564
H68	H	-1.551564	0.887504	-0.339253
H69	H	-1.459202	0.989461	-0.362367
H70	H	-1.411988	0.854412	-0.350226
O71	O	-1.642077	0.371698	-0.447278
C72	C	-1.701105	0.312719	-0.483089
H73	H	-1.658308	0.309080	-0.522009
H74	H	-1.712278	0.230392	-0.467313
H75	H	-1.780460	0.350993	-0.488903
H76	H	-1.631698	0.381983	-1.052902
H77	H	-1.115340	0.385837	-0.310994
H78	H	-1.077961	0.557842	-0.224667
O79	O	-1.638511	0.889787	-0.187700
C80	C	-1.578965	0.826709	-0.153935
H81	H	-1.496715	0.859739	-0.150657
H82	H	-1.616813	0.825363	-0.113716
H83	H	-1.575219	0.744019	-0.170130
O84	O	-1.311548	0.701913	-0.805906
C85	C	-1.252554	0.760911	-0.770088
H86	H	-1.248962	0.718118	-0.731167
H87	H	-1.170211	0.772032	-0.785853
H88	H	-1.290782	0.840290	-0.764283
H89	H	-1.628283	1.107551	-0.193026
O90	O	-1.445280	1.061913	-0.284393
C91	C	-1.386252	1.133396	-0.313929
H92	H	-1.382636	1.211249	-0.292556
H93	H	-1.303920	1.101841	-0.319454
H94	H	-1.424467	1.144900	-0.353661
O95	O	-1.378568	0.635428	-0.447207
C96	C	-1.401362	0.739577	-0.460559
H97	H	-1.484839	0.744848	-0.475585
H98	H	-1.392361	0.791212	-0.424645
H99	H	-1.345318	0.766887	-0.492241
H100	H	-1.388976	0.624727	-0.550544
H101	H	-1.631561	0.382221	-0.550540
O102	O	-1.708990	0.304727	-0.698457
C103	C	-1.768013	0.245754	-0.734273
H104	H	-1.725214	0.242129	-0.773193
H105	H	-1.779180	0.163421	-0.718504
H106	H	-1.847370	0.284023	-0.740085
H107	H	-1.698479	0.315272	-0.801714
H108	H	-1.631679	0.382025	-0.953836
O109	O	-1.378516	0.635000	-1.057093
C110	C	-1.319526	0.694012	-1.021279
H111	H	-1.315921	0.651223	-0.982357
H112	H	-1.237188	0.705146	-1.037047
H113	H	-1.357768	0.773385	-1.015475
O114	O	-1.378722	0.635067	-0.949480
C115	C	-1.438188	0.702601	-0.917910
H116	H	-1.517389	0.665752	-0.909729
H117	H	-1.395603	0.716631	-0.879513
H118	H	-1.449659	0.780030	-0.938958
O119	O	-1.311776	0.701982	-0.698291
C120	C	-1.371245	0.769518	-0.666723
H121	H	-1.450451	0.732674	-0.658548
H122	H	-1.328669	0.783539	-0.628322
H123	H	-1.382704	0.846950	-0.687769
