data_functionalizedCrystal
_audit_creation_method	'MofGen! by Chris Wilmer'
_symmetry_space_group_name_H-M	'P1'
_symmetry_Int_Tables_number	1
_symmetry_cell_setting	triclinic
loop_
_symmetry_equiv_pos_as_xyz
  x,y,z
_cell_length_a	13.596369
_cell_length_b	14.519709
_cell_length_c	14.519709
_cell_angle_alpha	96.319855
_cell_angle_beta	90.006934
_cell_angle_gamma	90.000291
loop_
_atom_site_label
_atom_site_type_symbol
_atom_site_fract_x
_atom_site_fract_y
_atom_site_fract_z
O1	O	0.081665	-1.223868	0.120893
O2	O	0.331665	-0.973868	0.370893
O3	O	0.581665	-0.723868	0.620893
O4	O	0.831665	-0.473868	0.870893
O5	O	0.081696	-0.955392	0.135129
O6	O	0.331696	-0.705392	0.385129
O7	O	0.581696	-0.455392	0.635129
O8	O	0.831696	-0.205392	0.885129
O9	O	0.081671	-1.096748	-0.006227
O10	O	0.331671	-0.846748	0.243773
O11	O	0.581671	-0.596748	0.493773
O12	O	0.831671	-0.346748	0.743773
O13	O	0.081690	-1.082512	0.262249
O14	O	0.331690	-0.832512	0.512249
O15	O	0.581690	-0.582512	0.762249
O16	O	0.831690	-0.332512	1.012249
O17	O	-0.081912	-1.096734	-0.006235
O18	O	0.168088	-0.846734	0.243765
O19	O	0.418088	-0.596734	0.493765
O20	O	0.668088	-0.346734	0.743765
O21	O	-0.081887	-0.955377	0.135122
O22	O	0.168113	-0.705377	0.385122
O23	O	0.418113	-0.455377	0.635122
O24	O	0.668113	-0.205377	0.885122
O25	O	-0.081917	-1.223854	0.120885
O26	O	0.168083	-0.973854	0.370885
O27	O	0.418083	-0.723854	0.620885
O28	O	0.668083	-0.473854	0.870885
Zn29	Zn	-0.107875	-1.089614	0.128002
Zn30	Zn	0.142125	-0.839614	0.378002
Zn31	Zn	0.392125	-0.589614	0.628002
Zn32	Zn	0.642125	-0.339614	0.878002
Zn33	Zn	0.107653	-1.089632	0.128012
Zn34	Zn	0.357653	-0.839632	0.378012
Zn35	Zn	0.607653	-0.589632	0.628012
Zn36	Zn	0.857653	-0.339632	0.878012
O37	O	-0.081893	-1.082498	0.262242
O38	O	0.168107	-0.832498	0.512242
O39	O	0.418107	-0.582498	0.762242
O40	O	0.668107	-0.332498	1.012242
C41	C	-0.000092	-0.921025	0.134462
C42	C	0.249908	-0.671025	0.384462
C43	C	0.499908	-0.421025	0.634462
C44	C	0.749908	-0.171025	0.884462
C45	C	-0.000081	-0.818643	0.132474
C46	C	0.249919	-0.568643	0.382474
C47	C	0.499919	-0.318643	0.632474
C48	C	0.749919	-0.068643	0.882474
N49	N	-0.254966	-1.089608	0.127995
N50	N	-0.004966	-0.839608	0.377995
N51	N	0.245034	-0.589608	0.627995
N52	N	0.495034	-0.339608	0.877995
C53	C	-0.000121	-1.096078	-0.040591
C54	C	0.249879	-0.846078	0.209409
C55	C	0.499879	-0.596078	0.459409
C56	C	0.749879	-0.346078	0.709409
C57	C	-0.000121	-1.094090	-0.142972
C58	C	0.249879	-0.844090	0.107028
C59	C	0.499879	-0.594090	0.357028
C60	C	0.749879	-0.344090	0.607028
C61	C	-0.656257	-1.089631	0.128013
C62	C	-0.406257	-0.839631	0.378013
C63	C	-0.156257	-0.589631	0.628013
C64	C	0.093743	-0.339631	0.878013
C65	C	-0.544606	-1.089622	0.128011
C66	C	-0.294606	-0.839622	0.378011
C67	C	-0.044606	-0.589622	0.628011
C68	C	0.205394	-0.339622	0.878011
C69	C	-0.455615	-1.089620	0.128005
C70	C	-0.205615	-0.839620	0.378005
C71	C	0.044385	-0.589620	0.628005
C72	C	0.294385	-0.339620	0.878005
C73	C	-0.343957	-1.089610	0.128001
C74	C	-0.093957	-0.839610	0.378001
C75	C	0.156043	-0.589610	0.628001
C76	C	0.406043	-0.339610	0.878001
N77	N	0.254745	-1.089645	0.128012
N78	N	0.504745	-0.839645	0.378012
N79	N	0.754745	-0.589645	0.628012
N80	N	1.004745	-0.339645	0.878012
C81	C	-0.000128	-1.258221	0.121553
C82	C	0.249872	-1.008221	0.371553
C83	C	0.499872	-0.758221	0.621553
C84	C	0.749872	-0.508221	0.871553
C85	C	-0.000132	-1.360602	0.123541
C86	C	0.249868	-1.110602	0.373541
C87	C	0.499868	-0.860602	0.623541
C88	C	0.749868	-0.610602	0.873541
C89	C	-0.000126	-0.443748	0.125154
C90	C	0.249874	-0.193748	0.375154
C91	C	0.499874	0.056252	0.625154
C92	C	0.749874	0.306252	0.875154
C93	C	-0.000113	-0.548056	0.127187
C94	C	0.249887	-0.298056	0.377187
C95	C	0.499887	-0.048056	0.627187
C96	C	0.749887	0.201944	0.877187
C97	C	-0.000102	-0.631192	0.128814
C98	C	0.249898	-0.381192	0.378814
C99	C	0.499898	-0.131192	0.628814
C100	C	0.749898	0.118808	0.878814
C101	C	-0.000091	-0.735507	0.130847
C102	C	0.249909	-0.485507	0.380847
C103	C	0.499909	-0.235507	0.630847
C104	C	0.749909	0.014493	0.880847
C105	C	-0.000095	-1.086770	-0.517868
C106	C	0.249905	-0.836770	-0.267868
C107	C	0.499905	-0.586770	-0.017868
C108	C	0.749905	-0.336770	0.232132
C109	C	-0.000102	-1.088803	-0.413560
C110	C	0.249898	-0.838803	-0.163560
C111	C	0.499898	-0.588803	0.086440
C112	C	0.749898	-0.338803	0.336440
C113	C	-0.000109	-1.090430	-0.330423
C114	C	0.249891	-0.840430	-0.080423
C115	C	0.499891	-0.590430	0.169577
C116	C	0.749891	-0.340430	0.419577
C117	C	-0.000114	-1.092463	-0.226109
C118	C	0.249886	-0.842463	0.023891
C119	C	0.499886	-0.592463	0.273891
C120	C	0.749886	-0.342463	0.523891
C121	C	-0.000099	-1.083168	0.296605
C122	C	0.249901	-0.833168	0.546605
C123	C	0.499901	-0.583168	0.796605
C124	C	0.749901	-0.333168	1.046605
C125	C	-0.000092	-1.085156	0.398987
C126	C	0.249908	-0.835156	0.648987
C127	C	0.499908	-0.585156	0.898987
C128	C	0.749908	-0.335156	1.148987
