data_functionalizedCrystal
_audit_creation_method	'MofGen! by Chris Wilmer'
_symmetry_space_group_name_H-M	'P1'
_symmetry_Int_Tables_number	1
_symmetry_cell_setting	triclinic
loop_
_symmetry_equiv_pos_as_xyz
  x,y,z
_cell_length_a	17.917603
_cell_length_b	14.446369
_cell_length_c	17.917603
_cell_angle_alpha	90.003104
_cell_angle_beta	60.138055
_cell_angle_gamma	63.032965
loop_
_atom_site_label
_atom_site_type_symbol
_atom_site_fract_x
_atom_site_fract_y
_atom_site_fract_z
Zr1	Zr	0.806818	0.944586	-0.129031
O2	O	0.951856	0.811760	-0.249571
O3	O	0.654589	0.978956	-0.087379
O4	O	0.796440	0.995726	-0.242787
O5	O	0.820699	0.788982	0.023078
O6	O	0.796434	1.148063	-0.242782
O7	O	0.810005	0.794990	-0.094163
O8	O	0.542687	1.118064	0.035214
O9	O	1.074445	0.818981	-0.254918
O10	O	0.719861	1.114971	-0.075290
O11	O	0.727847	0.996800	0.012202
O12	O	0.894858	1.016545	-0.170771
O13	O	0.902844	0.898374	-0.083278
Zr14	Zr	0.823863	1.177962	0.057963
Zr15	Zr	0.806808	1.187545	-0.129024
Zr16	Zr	0.823873	0.935003	0.057955
Zr17	Zr	1.002333	0.956102	-0.137559
Zr18	Zr	0.628348	1.166446	0.066491
O19	O	0.976092	1.143592	0.016310
O20	O	0.951842	1.157217	-0.249561
O21	O	0.976107	0.798135	0.016300
O22	O	0.678825	1.310788	0.178503
O23	O	0.654574	1.324413	-0.087368
O24	O	0.678839	0.965331	0.178492
O25	O	0.809982	1.333566	-0.094147
O26	O	0.834241	1.126821	0.171718
O27	O	0.834247	0.974485	0.171714
O28	O	0.820676	1.327558	0.023095
O29	O	1.074437	1.012101	-0.254912
O30	O	0.556244	1.110447	0.183844
O31	O	0.556236	1.303567	0.183850
O32	O	0.542679	1.311184	0.035220
O33	O	1.088002	0.811364	-0.106289
O34	O	1.087994	1.004484	-0.106283
O35	O	0.735823	1.106003	0.099702
O36	O	0.727837	1.224174	0.012209
O37	O	0.902834	1.125748	-0.083271
O38	O	0.910820	1.007577	0.004222
C39	C	0.570781	1.046869	-0.024867
C40	C	0.487780	1.041980	-0.021247
C41	C	0.335814	1.033048	-0.014636
C42	C	0.294862	1.089497	-0.056431
C43	C	0.210303	1.084527	-0.052752
C44	C	0.420381	1.038017	-0.018313
C45	C	0.815353	0.757369	-0.035544
C46	C	0.815357	0.654227	-0.035547
C47	C	0.925741	0.445468	-0.095487
C48	C	0.925791	0.552721	-0.095800
C49	C	0.754364	0.649589	-0.073298
C50	C	0.755060	0.541884	-0.073733
C51	C	0.765077	0.536144	0.062255
C52	C	0.767239	0.642249	0.062010
C53	C	1.059900	1.075679	-0.046201
C54	C	1.142901	1.080568	-0.049822
C55	C	0.794007	1.073260	-0.269426
C56	C	0.786767	1.077328	-0.348807
C57	C	0.815328	1.365179	-0.035525
C58	C	0.815324	1.468321	-0.035522
C59	C	0.773541	1.084782	-0.494162
C60	C	0.857136	1.037768	-0.576909
C61	C	0.849777	1.041916	-0.657790
C62	C	0.780898	1.080636	-0.413272
C63	C	0.836674	1.049288	0.198358
C64	C	0.843915	1.045220	0.277738
C65	C	0.570769	1.350774	-0.024858
C66	C	0.487763	1.449028	-0.021235
C67	C	0.592115	1.034883	0.209025
C68	C	0.516354	1.025926	0.292026
C69	C	0.592102	1.338788	0.209034
C70	C	0.516337	1.432974	0.292038
C71	C	1.038579	0.783760	-0.280102
C72	C	1.114344	0.689574	-0.363107
C73	C	1.059912	0.771774	-0.046211
C74	C	1.142918	0.673520	-0.049834
C75	C	1.038566	1.087665	-0.280093
C76	C	1.114327	1.096622	-0.363094
C77	C	0.444619	1.438166	-0.065215
C78	C	0.366636	1.530478	-0.061828
C79	C	0.331794	1.633650	-0.014456
C80	C	0.374946	1.644510	0.029526
C81	C	0.452932	1.552199	0.026133
C82	C	0.484940	1.078722	0.376685
C83	C	0.413767	1.070303	0.454680
C84	C	0.374003	1.009092	0.448014
C85	C	0.405424	0.956289	0.363345
C86	C	0.476602	0.964704	0.285352
C87	C	0.476589	1.538898	0.285347
C88	C	0.405410	1.627406	0.363331
C89	C	0.373975	1.609986	0.448005
C90	C	0.413731	1.504051	0.454693
C91	C	0.484914	1.415546	0.376710
C92	C	1.154101	0.583650	-0.356416
C93	C	1.225305	0.495144	-0.434401
C94	C	1.256744	0.512564	-0.519075
C95	C	1.216983	0.618499	-0.525763
C96	C	1.145786	0.707003	-0.447780
C97	C	1.186069	0.684383	-0.005862
C98	C	1.264072	0.592073	-0.009270
C99	C	1.298917	0.488902	-0.056646
C100	C	1.255762	0.478041	-0.100623
C101	C	1.177765	0.570351	-0.097220
C102	C	1.154068	1.157841	-0.356399
C103	C	1.225244	1.166278	-0.434379
C104	C	1.256682	1.113489	-0.519055
C105	C	1.216933	1.052267	-0.525749
C106	C	1.145753	1.043837	-0.447769
H107	H	0.973438	0.552250	-0.070981
Br108	Br	1.303060	0.338014	-0.164912
Br109	Br	0.538885	1.161807	0.385758
H110	H	0.964635	0.556538	-0.168004
H111	H	0.307370	0.980991	0.023905
Br112	Br	1.119207	0.555588	-0.156898
H113	H	0.316013	1.682063	0.511496
H114	H	0.973493	0.392804	-0.070600
Br115	Br	0.351468	1.771162	0.354232
Br116	Br	0.342269	1.176271	-0.120673
Br117	Br	0.990274	0.364213	-0.215117
Br118	Br	1.111420	1.229494	-0.241492
H119	H	1.257601	1.216128	-0.428912
H120	H	0.934230	0.994401	-0.587009
H121	H	0.672936	0.720905	-0.031513
Br122	Br	1.091832	0.850755	-0.456875
H123	H	0.787849	0.657626	-0.144429
H124	H	1.113403	0.993982	-0.453233
Br125	Br	0.511472	1.566959	0.085833
Br126	Br	0.812314	0.467947	-0.193465
H127	H	0.673785	0.561632	-0.032617
H128	H	1.314642	1.120361	-0.582544
Br129	Br	0.371060	1.480428	0.569615
H130	H	1.157706	0.768382	0.032722
Br131	Br	1.259618	0.980621	-0.640674
Br132	Br	0.831734	0.453517	0.115623
H133	H	1.362428	0.413746	-0.059410
H134	H	0.811777	0.642652	0.090257
Br135	Br	0.645051	1.157049	-0.477330
H136	H	0.388193	1.113306	0.523614
Br137	Br	0.538846	1.271792	0.385807
H138	H	0.502168	0.921713	0.216421
H139	H	0.316046	1.002250	0.511528
H140	H	0.687043	0.714172	0.110055
Br141	Br	0.629599	0.570043	0.136970
Br142	Br	0.491890	1.298159	-0.129516
H143	H	0.346566	1.728525	0.068095
Br144	Br	0.308087	1.515714	-0.121520
Br145	Br	0.225952	1.758919	-0.009860
Br146	Br	0.351448	0.873222	0.354313
Br147	Br	0.519240	1.562570	0.170443
H148	H	1.257666	0.408895	-0.428938
Br149	Br	1.111448	0.559979	-0.241512
Br150	Br	1.259658	0.642122	-0.640685
Br151	Br	1.353370	0.392437	-0.624903
Br152	Br	1.322622	0.606837	0.050421
