data_functionalizedCrystal
_audit_creation_method	'MofGen! by Chris Wilmer'
_symmetry_space_group_name_H-M	'P1'
_symmetry_Int_Tables_number	1
_symmetry_cell_setting	triclinic
loop_
_symmetry_equiv_pos_as_xyz
  x,y,z
_cell_length_a	16.992694
_cell_length_b	27.732048
_cell_length_c	15.455313
_cell_angle_alpha	92.637842
_cell_angle_beta	87.142206
_cell_angle_gamma	86.655439
loop_
_atom_site_label
_atom_site_type_symbol
_atom_site_fract_x
_atom_site_fract_y
_atom_site_fract_z
O1	O	1.042606	0.100467	-0.072038
O2	O	0.814336	0.099342	-0.072063
O3	O	0.935560	0.029815	-0.072033
O4	O	0.921382	0.169994	-0.072068
O5	O	0.928628	0.033773	0.072227
O6	O	0.807404	0.103301	0.072197
O7	O	1.035674	0.104425	0.072223
Cu8	Cu	0.920906	0.104225	0.085382
Cu9	Cu	0.929104	0.099543	-0.085222
O10	O	0.914450	0.173953	0.072193
C11	C	0.781675	0.099876	0.000064
C12	C	0.694684	0.095561	0.000055
C13	C	0.643939	0.137184	0.000046
C14	C	0.562201	0.133129	0.000059
C15	C	0.531209	0.087449	0.000075
C16	C	0.581960	0.045823	0.000087
C17	C	0.663696	0.049880	0.000080
C18	C	0.287814	0.070637	0.000102
C19	C	0.206071	0.066583	0.000106
C20	C	0.186318	0.153889	0.000080
C21	C	0.268057	0.157941	0.000068
C22	C	0.318800	0.116315	0.000084
N23	N	0.447660	0.083302	0.000086
N24	N	0.402347	0.120463	0.000080
C25	C	0.931796	0.013774	0.000100
C26	C	0.930900	-0.039919	0.000107
C27	C	0.996895	-0.375882	0.000069
C28	C	0.993571	-0.577686	0.000057
O29	O	1.053919	-0.606333	0.000026
N30	N	0.921689	-0.599917	0.000050
C31	C	0.850634	-0.571695	0.000040
O32	O	0.789419	-0.595235	0.000025
C33	C	0.853960	-0.369892	0.000046
C34	C	0.925846	-0.347663	0.000062
C35	C	1.068775	-0.353652	0.000084
C36	C	1.069605	-0.303204	0.000092
C37	C	0.998556	-0.274986	0.000085
C38	C	0.926676	-0.297215	0.000070
C39	C	0.782906	-0.341671	0.000030
C40	C	0.783744	-0.291218	0.000030
C41	C	0.855630	-0.268989	0.000046
C42	C	0.856457	-0.218549	0.000071
N43	N	0.928338	-0.196317	0.000078
C44	C	0.999387	-0.224535	0.000085
C45	C	0.848893	-0.677644	0.000038
C46	C	0.848061	-0.728095	0.000038
C47	C	0.990998	-0.734082	0.000054
C48	C	0.991829	-0.683630	0.000060
C49	C	0.920775	-0.655413	0.000046
C50	C	1.001126	-0.118591	0.000102
C51	C	1.001949	-0.068138	0.000114
C52	C	0.859013	-0.062155	0.000094
C53	C	0.858189	-0.112603	0.000087
C54	C	0.929251	-0.140820	0.000088
O55	O	0.796141	-0.189872	0.000092
O56	O	1.060595	-0.200987	0.000081
C57	C	0.996065	-0.426330	0.000062
C58	C	0.924185	-0.448559	0.000047
C59	C	0.853136	-0.420341	0.000039
C60	C	0.923354	-0.499010	0.000047
C61	C	0.994403	-0.527228	0.000054
C62	C	1.066285	-0.504997	0.000061
C63	C	1.067115	-0.454549	0.000069
C64	C	0.781254	-0.442573	0.000032
C65	C	0.780430	-0.493021	0.000025
C66	C	0.851480	-0.521240	0.000033
C67	C	1.068335	0.103892	0.000094
C68	C	1.155327	0.108206	0.000097
C69	C	0.918214	0.189993	0.000058
C70	C	0.919111	0.243687	0.000046
N71	N	0.915146	0.107517	0.205376
N72	N	0.934870	0.096247	-0.205217
C73	C	0.966664	0.077992	0.250783
C74	C	0.962315	0.080486	0.341590
C75	C	0.906451	0.112509	0.386988
C76	C	0.854928	0.142036	0.341575
C77	C	0.859274	0.139538	0.250770
C78	C	0.887693	0.123276	0.658565
C79	C	0.883353	0.125773	0.749377
C80	C	0.990739	0.064222	0.749385
C81	C	0.995083	0.061730	0.658578
C82	C	0.943557	0.091254	0.613173
N83	N	0.902006	0.115061	0.479807
N84	N	0.947999	0.088700	0.520356
H85	H	0.180842	0.029383	0.000119
H86	H	0.705012	0.015986	0.000088
H87	H	0.809439	0.168108	0.378544
H88	H	0.724370	-0.359761	0.000012
H89	H	1.060489	-0.050041	0.000129
H90	H	0.801166	-0.039170	0.000091
H91	H	1.126636	-0.376623	0.000087
H92	H	0.791029	-0.654674	0.000027
H93	H	0.329120	0.036742	0.000117
H94	H	1.128142	-0.285110	0.000102
H95	H	1.050364	-0.665535	0.000072
O96	O	1.012451	0.051792	0.385563
C97	C	1.119410	-0.009528	0.375989
C98	C	1.062686	0.022947	0.326082
H99	H	1.160028	-0.032865	0.327921
H100	H	1.156320	0.014009	0.418459
H101	H	1.083830	-0.033797	0.418545
H102	H	1.098203	0.047221	0.283479
H103	H	1.025774	-0.000619	0.283667
H104	H	0.837859	0.151851	0.786336
H105	H	0.799653	-0.130703	0.000098
H106	H	1.040572	0.035654	0.621617
O107	O	1.070224	-0.145923	0.000145
C108	C	1.212086	-0.146524	0.000120
C109	C	1.133891	-0.115513	0.000085
H110	H	1.263581	-0.121951	0.000053
H111	H	1.212427	-0.168632	0.060506
H112	H	1.218137	-0.171955	-0.060240
H113	H	1.127789	-0.090055	0.060405
H114	H	1.133585	-0.093439	-0.060340
H115	H	1.048849	-0.757066	0.000060
O116	O	0.778164	-0.749608	-0.000006
C117	C	0.636478	-0.738330	0.000025
C118	C	0.715583	-0.713907	0.000061
H119	H	0.585859	-0.709476	0.000098
H120	H	0.635359	-0.763436	-0.060364
H121	H	0.629652	-0.760164	0.060382
H122	H	0.722461	-0.692048	-0.060255
H123	H	0.716666	-0.688829	0.060490
H124	H	1.032688	0.040184	0.786363
H125	H	0.725882	-0.268245	0.000017
H126	H	0.669166	0.174382	0.000032
O127	O	0.298060	0.202341	-0.000067
C128	C	0.309769	0.276136	-0.074870
C129	C	0.275736	0.225867	-0.074807
H130	H	0.291747	0.295167	-0.135300
H131	H	0.285909	0.298554	-0.014546
H132	H	0.376902	0.271885	-0.074836
H133	H	0.208604	0.230073	-0.074871
H134	H	0.299657	0.203467	-0.135125
O135	O	1.137016	-0.433038	0.000040
C136	C	1.278698	-0.444318	0.000105
C137	C	1.199587	-0.468737	0.000119
H138	H	1.329306	-0.473170	0.000188
H139	H	1.285621	-0.422516	-0.060281
H140	H	1.279725	-0.419183	0.060465
H141	H	1.198504	-0.493895	-0.060200
H142	H	1.192695	-0.490509	0.060545
H143	H	1.124135	-0.527981	0.000070
O144	O	0.551728	0.001486	0.000066
C145	C	0.434564	-0.043456	0.000137
C146	C	0.468694	0.006786	0.000143
H147	H	0.367427	-0.039187	0.000217
H148	H	0.458345	-0.065852	-0.060245
H149	H	0.452661	-0.062525	0.060501
H150	H	0.450611	0.025896	-0.060180
H151	H	0.444917	0.029147	0.060565
H152	H	0.721887	-0.511115	0.000020
H153	H	0.817322	0.163580	0.213800
O154	O	0.512951	0.173572	-0.000108
C155	C	0.474676	0.244913	-0.074845
C156	C	0.530487	0.199119	-0.074776
H157	H	0.488845	0.265586	-0.135198
H158	H	0.410918	0.234199	-0.074889
H159	H	0.482982	0.268876	-0.014455
H160	H	0.522251	0.175136	-0.135155
H161	H	0.594224	0.209868	-0.074687
O162	O	0.137100	0.194360	0.000185
C163	C	0.091594	0.269777	0.074933
C164	C	0.147386	0.223969	0.074908
H165	H	0.099879	0.293723	0.135349
H166	H	0.105693	0.290479	0.014595
H167	H	0.027860	0.259021	0.074899
H168	H	0.211139	0.234682	0.074973
H169	H	0.133219	0.203278	0.135241
O170	O	0.712159	-0.415235	0.000069
C171	C	0.570301	-0.414635	0.000014
C172	C	0.648499	-0.445648	-0.000015
H173	H	0.518813	-0.439211	-0.000073
H174	H	0.564160	-0.389228	0.060406
H175	H	0.570049	-0.392501	-0.060340
H176	H	0.648805	-0.467812	0.060297
H177	H	0.654610	-0.471024	-0.060447
O178	O	0.837610	0.152007	0.614600
C179	C	0.730611	0.213301	0.624183
C180	C	0.787296	0.180797	0.674085
H181	H	0.689907	0.236579	0.672255
H182	H	0.766141	0.237620	0.581676
H183	H	0.693783	0.189739	0.581665
H184	H	0.824137	0.204322	0.716651
H185	H	0.751719	0.156475	0.716537
H186	H	1.012157	0.051917	0.213826
