data_functionalizedCrystal
_audit_creation_method	'MofGen! by Chris Wilmer'
_symmetry_space_group_name_H-M	'P1'
_symmetry_Int_Tables_number	1
_symmetry_cell_setting	triclinic
loop_
_symmetry_equiv_pos_as_xyz
  x,y,z
_cell_length_a	12.645035
_cell_length_b	12.645331
_cell_length_c	12.759393
_cell_angle_alpha	90.023082
_cell_angle_beta	90.117716
_cell_angle_gamma	89.849968
loop_
_atom_site_label
_atom_site_type_symbol
_atom_site_fract_x
_atom_site_fract_y
_atom_site_fract_z
Zn1	Zn	0.421994	1.619761	0.595162
Zn2	Zn	0.921994	2.119761	1.095162
Zn3	Zn	0.599300	1.619233	0.419936
Zn4	Zn	1.099300	2.119233	0.919936
Zn5	Zn	0.422046	1.442475	0.419490
Zn6	Zn	0.922046	1.942475	0.919490
Zn7	Zn	0.599222	1.442049	0.595567
Zn8	Zn	1.099222	1.942049	1.095567
O9	O	0.510640	1.530880	0.507539
O10	O	1.010640	2.030880	1.007539
O11	O	0.445525	1.768039	0.571935
O12	O	0.945525	2.268039	1.071935
O13	O	0.575841	1.595743	0.272856
O14	O	1.075841	2.095743	0.772856
O15	O	0.273688	1.466391	0.442438
O16	O	0.773688	1.966391	0.942438
O17	O	0.575791	1.767651	0.443197
O18	O	1.075791	2.267651	0.943197
O19	O	0.273649	1.596643	0.571502
O20	O	0.773649	2.096643	1.071502
O21	O	0.445614	1.465880	0.272529
O22	O	0.945614	1.965880	0.772529
O23	O	0.445538	1.294071	0.442830
O24	O	0.945538	1.794071	0.942830
O25	O	0.575657	1.465666	0.742534
O26	O	1.075657	1.965666	1.242534
O27	O	0.575708	1.293758	0.572193
O28	O	1.075708	1.793758	1.072193
O29	O	0.445449	1.596230	0.742236
O30	O	0.945449	2.096230	1.242236
O31	O	0.747641	1.595331	0.443590
O32	O	1.247641	2.095331	0.943590
O33	O	0.747584	1.465154	0.572625
O34	O	1.247584	1.965154	1.072625
C35	C	0.510621	1.255450	0.507508
C36	C	1.010621	1.755450	1.007508
C37	C	0.510639	1.137620	0.507519
C38	C	1.010639	1.637620	1.007519
C39	C	0.428621	1.092900	0.426269
C40	C	0.928621	1.592900	0.926269
C41	C	0.428318	0.970341	0.426546
C42	C	0.928318	1.470341	0.926546
C43	C	0.480837	0.969860	0.618351
C44	C	0.980837	1.469860	1.118351
C45	C	0.480224	1.092459	0.617843
C46	C	0.980224	1.592459	1.117843
C47	C	0.622702	1.092146	0.478985
C48	C	1.122702	1.592146	0.978985
C49	C	0.622117	0.969540	0.476579
C50	C	1.122117	1.469540	0.976579
C51	C	0.234127	1.531624	0.506875
C52	C	0.734127	2.031624	1.006875
C53	C	0.116294	1.531941	0.506592
C54	C	0.616294	2.031941	1.006592
C55	C	-0.051270	1.612045	0.589617
C56	C	0.448730	2.112045	1.089617
C57	C	0.071270	1.613510	0.588248
C58	C	0.571270	2.113510	1.088248
C59	C	0.070176	1.561828	0.396308
C60	C	0.570176	2.061828	0.896308
C61	C	-0.052411	1.561278	0.397910
C62	C	0.447589	2.061278	0.897910
C63	C	-0.049253	1.418209	0.536379
C64	C	0.450747	1.918209	1.036379
C65	C	0.073361	1.419944	0.537693
C66	C	0.573361	1.919944	1.037693
C67	C	0.786078	1.530168	0.508223
C68	C	1.286078	2.030168	1.008223
C69	C	0.903912	1.529960	0.508550
C70	C	1.403912	2.029960	1.008550
C71	C	0.510539	1.530959	0.781572
C72	C	1.010539	2.030959	1.281572
C73	C	0.510495	1.530993	0.898349
C74	C	1.010495	2.030993	1.398349
C75	C	0.510661	1.807385	0.507571
C76	C	1.010661	2.307385	1.007571
C77	C	0.510669	1.925215	0.507584
C78	C	1.010669	2.425215	1.007584
C79	C	0.510665	1.530862	0.234571
C80	C	1.010665	2.030862	0.734571
C81	C	0.510410	1.531034	0.117795
C82	C	1.010410	2.031034	0.617795
C83	C	0.442685	1.598983	0.953057
C84	C	0.942685	2.098983	1.453057
C85	C	0.442639	1.599001	1.062781
C86	C	0.942639	2.099001	1.562781
C87	C	0.578223	1.463036	1.063078
C88	C	1.078223	1.963036	1.563078
C89	C	0.578263	1.463014	0.953356
C90	C	1.078263	1.963014	1.453356
H91	H	0.398323	1.121266	0.641996
H92	H	0.898323	1.621266	1.141996
H93	H	0.537389	1.122042	0.680461
H94	H	1.037389	1.622042	1.180461
H95	H	0.633481	1.407641	0.908811
H96	H	1.133481	1.907641	1.408811
H97	H	0.538757	0.940627	0.680558
H98	H	1.038757	1.440627	1.180558
H99	H	0.387420	1.654364	1.107320
H100	H	0.887420	2.154364	1.607320
H101	H	-0.083263	1.694396	0.571435
H102	H	0.416737	2.194396	1.071435
H103	H	0.633400	1.407692	1.107879
H104	H	1.133400	1.907692	1.607879
H105	H	0.446931	0.940154	0.344419
H106	H	0.946931	1.440154	0.844419
H107	H	0.102517	1.594775	0.670041
H108	H	0.602517	2.094775	1.170041
H109	H	-0.078940	1.390336	0.615989
H110	H	0.421060	1.890336	1.115989
H111	H	0.649939	1.122949	0.399571
H112	H	1.149939	1.622949	0.899571
H113	H	-0.079578	1.593023	0.672230
H114	H	0.420422	2.093023	1.172230
H115	H	0.447019	1.122260	0.343862
H116	H	0.947019	1.622260	0.843862
H117	H	-0.082127	1.504102	0.335410
H118	H	0.417873	2.004102	0.835410
H119	H	0.099397	1.696893	0.569283
H120	H	0.599397	2.196893	1.069283
H121	H	0.104110	1.356126	0.482390
H122	H	0.604110	1.856126	0.982390
H123	H	-0.082249	1.643007	0.374233
H124	H	0.417751	2.143007	0.874233
H125	H	0.346055	1.123917	0.444947
H126	H	0.846055	1.623917	0.944947
H127	H	0.387501	1.654333	0.908273
H128	H	0.887501	2.154333	1.408273
H129	H	0.683803	1.121045	0.538167
H130	H	1.183803	1.621045	1.038167
H131	H	0.345289	0.941223	0.445474
H132	H	0.845289	1.441223	0.945474
H133	H	0.099281	1.504456	0.333689
H134	H	0.599281	2.004456	0.833689
H135	H	0.099636	1.643212	0.371663
H136	H	0.599636	2.143212	0.871663
H137	H	0.644619	0.940349	0.395061
H138	H	1.144619	1.440349	0.895061
H139	H	0.686468	0.938794	0.531433
H140	H	1.186468	1.438794	1.031433
H141	H	0.399845	0.939367	0.642941
H142	H	0.899845	1.439367	1.142941
H143	H	-0.078222	1.357090	0.477302
H144	H	0.421778	1.857090	0.977302
H145	H	0.103644	1.397365	0.618887
H146	H	0.603644	1.897365	1.118887
