data_functionalizedCrystal
_audit_creation_method	'MofGen! by Chris Wilmer'
_symmetry_space_group_name_H-M	'P1'
_symmetry_Int_Tables_number	1
_symmetry_cell_setting	triclinic
loop_
_symmetry_equiv_pos_as_xyz
  x,y,z
_cell_length_a	14.908571
_cell_length_b	19.121063
_cell_length_c	14.908308
_cell_angle_alpha	95.554627
_cell_angle_beta	90.175053
_cell_angle_gamma	89.303906
loop_
_atom_site_label
_atom_site_type_symbol
_atom_site_fract_x
_atom_site_fract_y
_atom_site_fract_z
Zn1	Zn	1.324072	-0.366417	-0.606393
Zn2	Zn	1.824072	0.133583	-0.106393
Zn3	Zn	1.326220	-0.477475	-0.461735
Zn4	Zn	1.826220	0.022525	0.038265
Zn5	Zn	1.183168	-0.352931	-0.446699
Zn6	Zn	1.683168	0.147069	0.053301
Zn7	Zn	1.167296	-0.476641	-0.603344
Zn8	Zn	1.667296	0.023359	-0.103344
O9	O	1.250189	-0.418366	-0.529543
O10	O	1.750189	0.081634	-0.029543
O11	O	1.449836	-0.387142	-0.594773
O12	O	1.949836	0.112858	-0.094773
O13	O	1.314785	-0.455659	-0.333644
O14	O	1.814785	0.044341	0.166356
O15	O	1.207604	-0.256469	-0.462866
O16	O	1.707604	0.243531	0.037134
O17	O	1.451414	-0.468736	-0.488493
O18	O	1.951414	0.031264	0.011507
O19	O	1.311125	-0.266377	-0.580193
O20	O	1.811125	0.233623	-0.080193
O21	O	1.209686	-0.364157	-0.322597
O22	O	1.709686	0.135843	0.177403
O23	O	1.055584	-0.363348	-0.459909
O24	O	1.555584	0.136652	0.040091
O25	O	1.180551	-0.467315	-0.729845
O26	O	1.680551	0.032685	-0.229845
O27	O	1.043922	-0.454238	-0.574995
O28	O	1.543922	0.045762	-0.074995
O29	O	1.295734	-0.386334	-0.732085
O30	O	1.795734	0.113666	-0.232085
O31	O	1.299394	-0.575616	-0.485536
O32	O	1.799394	-0.075616	0.014464
O33	O	1.182633	-0.575003	-0.589576
O34	O	1.682633	-0.075003	-0.089576
C35	C	1.017218	-0.407239	-0.515490
C36	C	1.517218	0.092761	-0.015490
C37	C	0.917550	-0.402497	-0.509501
C38	C	1.417550	0.097503	-0.009501
C39	C	0.718169	-0.488362	-0.617938
C40	C	1.218169	0.011638	-0.117938
C41	C	0.624521	-0.483909	-0.612314
C42	C	1.124521	0.016091	-0.112314
C43	C	0.636605	-0.389134	-0.492633
C44	C	1.136605	0.110866	0.007367
C45	C	0.730253	-0.393588	-0.498257
C46	C	1.230253	0.106412	0.001743
C47	C	0.771031	-0.443204	-0.560911
C48	C	1.271031	0.056796	-0.060911
C49	C	0.864680	-0.447660	-0.566530
C50	C	1.364680	0.052340	-0.066530
C51	C	0.876762	-0.352883	-0.446854
C52	C	1.376762	0.147117	0.053146
C53	C	0.783115	-0.348429	-0.441230
C54	C	1.283115	0.151571	0.058770
C55	C	1.239548	-0.600787	-0.538878
C56	C	1.739548	-0.100787	-0.038878
C57	C	1.235075	-0.678833	-0.542906
C58	C	1.735075	-0.178833	-0.042906
C59	C	1.293807	-0.715799	-0.490682
C60	C	1.793807	-0.215799	0.009318
C61	C	1.289606	-0.789131	-0.494476
C62	C	1.789606	-0.289131	0.005524
C63	C	1.226668	-0.825496	-0.550491
C64	C	1.726668	-0.325496	-0.050491
C65	C	1.167934	-0.788525	-0.602722
C66	C	1.667934	-0.288525	-0.102722
C67	C	1.172140	-0.715194	-0.598932
C68	C	1.672140	-0.215194	-0.098932
C69	C	1.210929	-1.046893	-0.564648
C70	C	1.710929	-0.546893	-0.064648
C71	C	1.206726	-1.120229	-0.568432
C72	C	1.706726	-0.620229	-0.068432
C73	C	1.328400	-1.120830	-0.460187
C74	C	1.828400	-0.620830	0.039813
C75	C	1.332596	-1.047498	-0.456398
C76	C	1.832596	-0.547498	0.043602
C77	C	1.273865	-1.010533	-0.508632
C78	C	1.773865	-0.510533	-0.008632
C79	C	1.222371	-0.900454	-0.554369
C80	C	1.722371	-0.400454	-0.054369
C81	C	1.278168	-0.935578	-0.504758
C82	C	1.778168	-0.435578	-0.004758
C83	C	1.484070	-0.429537	-0.543650
C84	C	1.984070	0.070463	-0.043650
C85	C	1.583736	-0.434297	-0.549662
C86	C	2.083736	0.065703	-0.049662
C87	C	1.236132	-0.428235	-0.764574
C88	C	1.736132	0.071765	-0.264574
C89	C	1.230142	-0.432441	-0.864731
C90	C	1.730142	0.067559	-0.364731
C91	C	1.260895	-0.235235	-0.520192
C92	C	1.760895	0.264765	-0.020192
C93	C	1.265458	-0.157195	-0.516207
C94	C	1.765458	0.342805	-0.016207
C95	C	1.338824	-0.356002	-1.055270
C96	C	1.838824	0.143998	-0.555270
C97	C	1.333199	-0.359951	-1.149376
C98	C	1.833199	0.140049	-0.649376
C99	C	1.213262	-0.444285	-1.147051
C100	C	1.713262	0.055715	-0.647051
C101	C	1.218888	-0.440335	-1.052945
C102	C	1.718888	0.059665	-0.552945
C103	C	1.281672	-0.396193	-1.007057
C104	C	1.781672	0.103807	-0.507057
C105	C	1.287301	-0.392248	-0.912950
C106	C	1.787301	0.107752	-0.412950
C107	C	1.167360	-0.476578	-0.910626
C108	C	1.667360	0.023422	-0.410626
C109	C	1.161735	-0.480527	-1.004732
C110	C	1.661735	0.019473	-0.504732
C111	C	1.264246	-0.408487	-0.295425
C112	C	1.764246	0.091513	0.204575
C113	C	1.270421	-0.404092	-0.195270
C114	C	1.770421	0.095908	0.304730
H115	H	0.751371	-0.528765	-0.668948
H116	H	1.251371	-0.028765	-0.168948
H117	H	0.749900	-0.308032	-0.390222
H118	H	1.249900	0.191968	0.109778
N119	N	1.097588	-0.525601	-1.051602
N120	N	1.597588	-0.025601	-0.551602
N121	N	1.015749	-0.516543	-1.035860
N122	N	1.515749	-0.016543	-0.535860
H123	H	0.970440	-0.548374	-1.068962
H124	H	1.470440	-0.048374	-0.568962
H125	H	1.383845	-1.017891	-0.410786
H126	H	1.883845	-0.517891	0.089214
H127	H	0.581483	-0.520680	-0.658753
H128	H	1.081483	-0.020680	-0.158753
H129	H	1.120825	-0.509307	-0.871362
H130	H	1.620825	-0.009307	-0.371362
H131	H	0.919813	-0.316113	-0.400417
H132	H	1.419813	0.183887	0.099583
N133	N	1.158075	-0.937588	-0.611591
N134	N	1.658075	-0.437588	-0.111591
N135	N	1.159445	-0.933138	-0.694673
N136	N	1.659445	-0.433138	-0.194673
H137	H	1.114036	-0.959364	-0.735088
H138	H	1.614036	-0.459364	-0.235088
H139	H	1.162146	-0.480223	-1.184428
H140	H	1.662146	0.019777	-0.684428
H141	H	0.897880	-0.488061	-0.617545
H142	H	1.397880	0.011939	-0.117545
N143	N	1.349594	-0.826907	-0.441143
N144	N	1.849594	-0.326907	0.058857
N145	N	1.402462	-0.871836	-0.478455
N146	N	1.902462	-0.371836	0.021545
H147	H	1.444831	-0.898518	-0.440789
H148	H	1.944831	-0.398518	0.059211
H149	H	1.345054	-0.686195	-0.445064
H150	H	1.845054	-0.186195	0.054936
H151	H	1.329415	-0.905967	-0.459154
H152	H	1.829415	-0.405967	0.040846
N153	N	1.391567	-0.318887	-1.198624
N154	N	1.891567	0.181113	-0.698624
N155	N	1.390025	-0.253375	-1.184444
N156	N	1.890025	0.246625	-0.684444
H157	H	1.431247	-0.224370	-1.219226
H158	H	1.931247	0.275630	-0.719226
H159	H	1.155484	-1.149837	-0.614063
H160	H	1.655484	-0.649837	-0.114063
N161	N	1.351426	-0.347149	-0.866088
N162	N	1.851426	0.152851	-0.366088
N163	N	1.348625	-0.282520	-0.872934
N164	N	1.848625	0.217480	-0.372934
H165	H	1.393914	-0.250665	-0.839840
H166	H	1.893914	0.249335	-0.339840
H167	H	1.376216	-1.150935	-0.417663
H168	H	1.876216	-0.650935	0.082337
N169	N	0.594938	-0.338445	-0.428656
N170	N	1.094938	0.161555	0.071344
N171	N	0.543392	-0.292594	-0.455037
N172	N	1.043392	0.207406	0.044963
H173	H	0.513963	-0.256793	-0.409854
H174	H	1.013963	0.243207	0.090146
N175	N	1.150932	-1.009153	-0.618007
N176	N	1.650932	-0.509153	-0.118007
N177	N	1.094742	-1.041632	-0.668013
N178	N	1.594742	-0.541632	-0.168013
H179	H	1.052365	-1.014976	-0.705701
H180	H	1.552365	-0.514976	-0.205701
N181	N	1.103644	-0.825681	-0.659929
N182	N	1.603644	-0.325681	-0.159929
N183	N	1.046082	-0.862589	-0.626846
N184	N	1.546082	-0.362589	-0.126846
H185	H	1.000674	-0.888830	-0.667247
H186	H	1.500674	-0.388830	-0.167247
N187	N	1.112158	-0.677433	-0.652290
N188	N	1.612158	-0.177433	-0.152290
N189	N	1.112604	-0.689364	-0.736219
N190	N	1.612604	-0.189364	-0.236219
H191	H	1.070244	-0.662695	-0.773910
H192	H	1.570244	-0.162695	-0.273910
N193	N	1.402965	-0.310918	-1.008406
N194	N	1.902965	0.189082	-0.508406
N195	N	1.453996	-0.275040	-1.051465
N196	N	1.953996	0.224960	-0.551465
H197	H	1.499297	-0.243199	-1.018370
H198	H	1.999297	0.256801	-0.518370
