data_functionalizedCrystal
_audit_creation_method	'MofGen! by Chris Wilmer'
_symmetry_space_group_name_H-M	'P1'
_symmetry_Int_Tables_number	1
_symmetry_cell_setting	triclinic
loop_
_symmetry_equiv_pos_as_xyz
  x,y,z
_cell_length_a	10.540539
_cell_length_b	15.995350
_cell_length_c	9.016244
_cell_angle_alpha	89.999993
_cell_angle_beta	89.994699
_cell_angle_gamma	84.008933
loop_
_atom_site_label
_atom_site_type_symbol
_atom_site_fract_x
_atom_site_fract_y
_atom_site_fract_z
O1	O	1.684271	0.117994	-0.123262
O2	O	1.314706	0.129112	-0.123280
O3	O	1.509591	0.001726	-0.123269
O4	O	1.489386	0.245380	-0.123273
O5	O	1.509562	0.001729	0.123411
O6	O	1.314677	0.129115	0.123401
O7	O	1.684243	0.117997	0.123418
Cu8	Cu	1.499457	0.123556	0.145934
Cu9	Cu	1.499491	0.123553	-0.145795
O10	O	1.489358	0.245383	0.123408
C11	C	1.267400	0.128280	0.000058
C12	C	1.126486	0.125785	0.000051
C13	C	0.944373	0.030202	0.000629
C14	C	1.090956	0.032730	0.000057
C15	C	1.064214	0.170565	-0.140811
C16	C	0.917713	0.167389	-0.140913
C17	C	0.917166	0.169286	0.139609
C18	C	1.064137	0.170143	0.141455
C19	C	1.508741	-0.029472	0.000068
C20	C	1.506237	-0.122438	0.000060
C21	C	1.497244	-0.460239	0.000064
C22	C	1.358450	-0.413635	-0.000496
C23	C	1.360955	-0.316930	0.000061
C24	C	1.501705	-0.292652	0.000061
C25	C	1.570146	-0.333318	0.140929
C26	C	1.566660	-0.429975	0.141046
C27	C	1.569559	-0.430319	-0.139476
C28	C	1.569527	-0.333374	-0.141337
C29	C	1.504233	-0.197939	0.000064
C30	C	1.494719	-0.554952	0.000071
C31	C	1.731549	0.118829	0.000077
C32	C	1.872462	0.121324	0.000074
C33	C	1.490207	0.276581	0.000067
C34	C	1.492711	0.369547	0.000066
N35	N	1.499443	0.123558	0.351120
N36	N	1.499516	0.123544	-0.350981
C37	C	1.394878	0.191473	0.586147
C38	C	1.395104	0.191727	0.414256
C39	C	1.631893	0.143433	0.413464
C40	C	1.631320	0.143914	0.585409
C41	C	1.472879	0.035546	0.585663
C42	C	1.469826	0.036116	0.413709
H43	H	0.868825	0.234313	-0.147308
C44	C	0.906414	-0.019467	0.137085
H45	H	0.950850	-0.074279	0.135345
H46	H	0.817152	-0.023503	0.135215
H47	H	0.927840	0.008734	0.224888
C48	C	1.122329	0.128546	-0.282437
H49	H	1.084032	0.156092	-0.367090
H50	H	1.107216	0.071033	-0.283703
H51	H	1.211598	0.132601	-0.283901
H52	H	1.105536	0.137429	0.245665
H53	H	1.673551	-0.318574	0.146168
C54	C	0.904268	-0.019261	-0.135068
H55	H	0.948150	-0.074242	-0.133878
H56	H	0.924980	0.008815	-0.223283
H57	H	0.814923	-0.022881	-0.131743
C58	C	1.095596	0.261794	0.152950
H59	H	1.147389	0.274264	0.071290
H60	H	1.140083	0.269148	0.242854
H61	H	1.018714	0.298517	0.151762
H62	H	1.133201	-0.002755	-0.101093
C63	C	1.502043	-0.296893	-0.282129
H64	H	1.543511	-0.321772	-0.367287
H65	H	1.505460	-0.237800	-0.284715
H66	H	1.415526	-0.308609	-0.281250
C67	C	0.880228	0.122670	-0.283146
H68	H	0.954502	0.106608	-0.340317
H69	H	0.822666	0.159732	-0.339464
H70	H	0.840413	0.074066	-0.257400
H71	H	1.378402	0.016630	0.629106
C72	C	1.417537	0.279172	0.644481
H73	H	1.490492	0.274571	0.706981
H74	H	1.345080	0.302050	0.699220
H75	H	1.431046	0.314999	0.563219
C76	C	0.852127	0.260084	0.140896
H77	H	0.797983	0.268755	0.056862
H78	H	0.915298	0.298281	0.137795
H79	H	0.802951	0.269223	0.228813
C80	C	1.093148	0.262879	-0.147910
H81	H	1.143589	0.274959	-0.064835
H82	H	1.015397	0.298720	-0.146599
H83	H	1.138337	0.271905	-0.236674
C84	C	1.505903	-0.295371	0.282550
H85	H	1.548004	-0.320382	0.367206
H86	H	1.418851	-0.305863	0.283814
H87	H	1.511239	-0.236455	0.284009
H88	H	1.541081	-0.016861	0.370737
H89	H	1.672168	-0.317398	-0.149842
H90	H	1.711615	0.096432	0.626996
C91	C	1.287761	-0.279713	0.136697
H92	H	1.289031	-0.220413	0.137496
H93	H	1.327111	-0.302957	0.224326
H94	H	1.201966	-0.292797	0.132551
C95	C	1.707798	-0.472396	-0.140770
H96	H	1.751013	-0.454067	-0.225333
H97	H	1.707319	-0.531716	-0.144388
H98	H	1.750351	-0.457352	-0.053382
H99	H	1.303210	-0.433558	0.099956
H100	H	1.296652	0.179768	0.372107
H101	H	1.655918	0.206909	0.370387
C102	C	1.704306	-0.472724	0.149721
H103	H	1.703109	-0.532031	0.149847
H104	H	1.743398	-0.455890	0.238231
H105	H	1.751322	-0.456631	0.066421
H106	H	0.886022	0.139172	0.246381
H107	H	1.307154	-0.288831	-0.100919
H108	H	1.134043	-0.002504	0.101034
C109	C	1.283510	-0.439126	-0.136947
H110	H	1.336188	-0.478424	-0.194797
H111	H	1.257989	-0.390704	-0.194958
H112	H	1.210122	-0.464000	-0.105260
C113	C	1.575949	-0.032758	0.640595
H114	H	1.634935	-0.007814	0.701844
H115	H	1.619578	-0.058934	0.557907
H116	H	1.536916	-0.073654	0.695960
C117	C	1.499192	-0.455104	0.283282
H118	H	1.474163	-0.406260	0.340445
H119	H	1.555893	-0.492735	0.339607
H120	H	1.425871	-0.481805	0.257538
H121	H	1.524193	-0.451131	-0.246245
C122	C	1.338205	0.015762	0.358674
H123	H	1.301449	0.060358	0.297798
H124	H	1.284218	0.009268	0.441338
H125	H	1.347753	-0.034895	0.302901
C126	C	1.418079	0.279921	0.358659
H127	H	1.427323	0.315731	0.441160
H128	H	1.347581	0.302248	0.300183
H129	H	1.493533	0.276195	0.300351
H130	H	1.296115	0.179697	0.627535
H131	H	1.654792	0.208115	0.625498
H132	H	1.711609	0.095309	0.372564
