data_functionalizedCrystal
_audit_creation_method	'MofGen! by Chris Wilmer'
_symmetry_space_group_name_H-M	'P1'
_symmetry_Int_Tables_number	1
_symmetry_cell_setting	triclinic
loop_
_symmetry_equiv_pos_as_xyz
  x,y,z
_cell_length_a	6.817900
_cell_length_b	7.190334
_cell_length_c	9.514072
_cell_angle_alpha	96.947687
_cell_angle_beta	118.843421
_cell_angle_gamma	60.611776
loop_
_atom_site_label
_atom_site_type_symbol
_atom_site_fract_x
_atom_site_fract_y
_atom_site_fract_z
V1	V	-4.307168	0.666652	-0.219636
O2	O	-4.201672	0.652243	0.013190
O3	O	-4.341087	0.663747	-0.438037
O4	O	-4.342594	0.956648	-0.215101
O5	O	-4.200155	0.357314	-0.211289
V6	V	-4.769268	0.629452	-0.191924
O7	O	-4.615421	0.748254	-0.280425
O8	O	-4.911212	0.547850	-0.131136
O9	O	-4.512143	0.632358	0.026476
O10	O	-4.992161	0.643862	-0.424751
O11	O	-4.993678	0.938791	-0.200272
O12	O	-4.510636	0.339456	-0.196459
C13	C	-4.203401	0.653657	-0.491315
C14	C	-4.312979	0.653214	-0.669853
C15	C	-4.205331	1.027279	-0.206930
C16	C	-4.318204	1.268818	-0.204623
C17	C	-4.313172	0.642442	0.079745
C18	C	-4.182837	0.642899	0.258282
H19	H	-4.508285	0.661781	-0.744929
O20	O	-3.949970	0.632929	-0.652374
C21	C	-3.697415	0.800583	-0.607759
C22	C	-3.961259	0.812113	-0.709105
H23	H	-3.706469	0.945458	-0.653565
H24	H	-3.542966	0.645253	-0.619707
H25	H	-3.647528	0.802567	-0.474881
H26	H	-4.011389	0.810216	-0.842021
H27	H	-4.115556	0.967427	-0.697020
