data_functionalizedCrystal
_audit_creation_method	'MofGen! by Chris Wilmer'
_symmetry_space_group_name_H-M	'P1'
_symmetry_Int_Tables_number	1
_symmetry_cell_setting	triclinic
loop_
_symmetry_equiv_pos_as_xyz
  x,y,z
_cell_length_a	10.654550
_cell_length_b	12.837942
_cell_length_c	11.295483
_cell_angle_alpha	85.469583
_cell_angle_beta	85.855213
_cell_angle_gamma	90.343078
loop_
_atom_site_label
_atom_site_type_symbol
_atom_site_fract_x
_atom_site_fract_y
_atom_site_fract_z
O1	O	1.691373	-0.138797	-0.099017
O2	O	1.327409	-0.152681	-0.099021
O3	O	1.501320	0.005221	-0.099011
O4	O	1.517462	-0.296699	-0.099026
O5	O	1.486043	-0.008626	0.099038
O6	O	1.312132	-0.166528	0.099029
O7	O	1.676095	-0.152645	0.099033
Cu8	Cu	1.492719	-0.160851	0.117115
Cu9	Cu	1.510786	-0.144474	-0.117102
O10	O	1.502185	-0.310547	0.099024
C11	C	1.488229	0.036958	0.000013
C12	C	1.471966	0.152152	0.000011
C13	C	1.272862	-0.158585	0.000004
C14	C	1.133086	-0.155535	0.000002
C15	C	1.730643	-0.146740	0.000006
C16	C	1.870420	-0.149790	-0.000000
C17	C	1.939760	-0.056819	-0.000000
C18	C	2.071094	-0.059691	0.000005
C19	C	2.063735	-0.248513	0.000006
C20	C	1.932403	-0.245640	0.000009
C21	C	1.877777	0.039031	-0.000010
C22	C	1.947117	0.132009	-0.000011
C23	C	2.078451	0.129137	-0.000006
C24	C	2.140444	0.033286	0.000002
C25	C	1.515276	-0.342282	-0.000003
C26	C	1.531539	-0.457476	-0.000009
N27	N	1.480020	-0.172368	0.281850
C28	C	1.667472	0.391706	-0.000012
C29	C	1.652199	0.499942	-0.000014
C30	C	1.426146	0.476862	-0.000004
C31	C	1.441420	0.368626	-0.000002
C32	C	1.562087	0.326052	-0.000004
C33	C	1.577359	0.217814	0.000006
C34	C	1.351309	0.194736	0.000008
C35	C	1.336035	0.302972	0.000006
N36	N	1.523494	-0.132949	-0.281838
C37	C	1.614898	-0.049982	0.531147
C38	C	1.605311	-0.058693	0.655810
C39	C	1.451254	-0.198496	0.655842
C40	C	1.460841	-0.189785	0.531179
C41	C	1.542667	-0.115526	0.468836
C42	C	1.552259	-0.106821	0.344170
C43	C	1.398196	-0.246618	0.344205
C44	C	1.388610	-0.255329	0.468868
H45	H	1.770839	0.041381	-0.000017
C46	C	1.293428	0.523706	-0.000003
H47	H	1.299430	0.597570	-0.000000
H48	H	1.254809	0.506051	-0.069062
H49	H	1.244169	0.496408	0.069076
H50	H	2.114221	-0.326550	0.000010
C51	C	1.704905	0.031690	0.462561
H52	H	1.700275	0.027485	0.379391
H53	H	1.681408	0.099613	0.482993
H54	H	1.788573	0.018342	0.482973
H55	H	2.247384	0.030954	0.000017
H56	H	1.875945	-0.321345	0.000014
H57	H	1.675612	0.183152	0.000009
H58	H	1.896635	0.210048	-0.000027
H59	H	1.765723	0.357041	-0.000002
C60	C	2.154723	0.231406	-0.000006
H61	H	2.098995	0.288898	-0.000020
H62	H	2.200783	0.229390	0.069057
H63	H	2.211433	0.239032	-0.069080
H64	H	1.738015	0.553395	-0.000024
H65	H	1.237791	0.337651	0.000003
C66	C	1.642268	-0.025148	0.275589
H67	H	1.637646	-0.029354	0.192418
H68	H	1.618766	0.042774	0.296019
H69	H	1.725934	-0.038494	0.296008
C70	C	1.684769	0.013403	0.724349
H71	H	1.734877	0.058869	0.669361
H72	H	1.630648	0.053538	0.772993
H73	H	1.737825	-0.027722	0.772965
C74	C	1.361253	-0.280169	0.724433
H75	H	1.365895	-0.275968	0.807601
H76	H	1.277588	-0.266838	0.704019
H77	H	1.384769	-0.348095	0.704007
H78	H	1.265495	0.141268	0.000024
H79	H	1.321985	-0.315787	0.519642
H80	H	1.339385	-0.299992	0.293457
