data_functionalizedCrystal
_audit_creation_method	'MofGen! by Chris Wilmer'
_symmetry_space_group_name_H-M	'P1'
_symmetry_Int_Tables_number	1
_symmetry_cell_setting	triclinic
loop_
_symmetry_equiv_pos_as_xyz
  x,y,z
_cell_length_a	6.817900
_cell_length_b	11.168121
_cell_length_c	10.943624
_cell_angle_alpha	91.899023
_cell_angle_beta	108.838799
_cell_angle_gamma	108.508496
loop_
_atom_site_label
_atom_site_type_symbol
_atom_site_fract_x
_atom_site_fract_y
_atom_site_fract_z
V1	V	-4.113777	-0.174672	-0.402562
O2	O	-4.073287	0.008428	-0.394888
O3	O	-4.090038	-0.346377	-0.399819
O4	O	-4.091766	-0.171970	-0.578128
O5	O	-4.071547	-0.167187	-0.215344
V6	V	-4.590790	-0.152773	-0.380168
O7	O	-4.389315	-0.222709	-0.451685
O8	O	-4.765448	-0.104735	-0.331045
O9	O	-4.391322	0.018933	-0.382910
O10	O	-4.748676	-0.335872	-0.387842
O11	O	-4.750416	-0.160257	-0.567385
O12	O	-4.389594	-0.155474	-0.204602
C13	C	-3.940184	-0.388236	-0.393471
C14	C	-4.002237	-0.528607	-0.392399
C15	C	-3.942387	-0.165760	-0.620920
C16	C	-4.005837	-0.164687	-0.764447
C17	C	-4.204801	-0.597299	-0.398045
C18	C	-4.268940	-0.742380	-0.396937
C19	C	-3.850738	-0.157463	-0.841594
C20	C	-4.039042	-0.264697	-0.947591
C21	C	-3.930618	-0.055553	-0.914191
C22	C	-4.193350	-0.272023	-0.868567
C23	C	-4.084847	-0.062784	-0.835144
C24	C	-4.273287	-0.170049	-0.941111
C25	C	-4.204518	0.060785	-0.389255
C26	C	-4.121705	0.201155	-0.390335
C27	C	-4.202315	-0.161688	-0.161802
C28	C	-4.118102	-0.162754	-0.018275
H29	H	-4.442462	-0.801428	-0.401755
H30	H	-4.020340	-0.350059	-0.996545
C31	C	-4.051681	0.049498	-0.634440
C32	C	-4.109947	0.052457	-0.768984
H33	H	-4.067165	0.120649	-0.593592
H34	H	-3.902676	0.053159	-0.599084
H35	H	-4.145718	-0.027316	-0.619399
H36	H	-4.015899	0.129267	-0.784025
H37	H	-4.258976	0.048807	-0.804351
C38	C	-4.572615	-0.175131	-1.134142
C39	C	-4.515274	-0.177254	-0.999502
H40	H	-4.722004	-0.179575	-1.170189
H41	H	-4.555606	-0.246138	-1.174148
H42	H	-4.479140	-0.098227	-1.149399
H43	H	-4.608740	-0.254162	-0.984246
H44	H	-4.532303	-0.106240	-0.959483
H45	H	-4.330742	-0.548702	-0.403706
H46	H	-3.820169	0.035911	-0.934948
H47	H	-3.948169	-0.739802	-0.385498
H48	H	-3.876303	-0.577206	-0.386753
C49	C	-3.550924	-0.150442	-0.647953
C50	C	-3.608895	-0.150468	-0.782919
H51	H	-3.401623	-0.146121	-0.611731
H52	H	-3.644458	-0.226579	-0.631498
H53	H	-3.567345	-0.078593	-0.609098
H54	H	-3.592489	-0.222323	-0.821776
H55	H	-3.515334	-0.074323	-0.799384
C56	C	-4.281218	-0.395605	-0.705775
C57	C	-4.342492	-0.395670	-0.840853
H58	H	-4.373277	-0.471944	-0.688667
H59	H	-4.297254	-0.323985	-0.666229
H60	H	-4.131571	-0.390864	-0.670823
H61	H	-4.492135	-0.400402	-0.875803
H62	H	-4.326476	-0.467310	-0.880414
