data_functionalizedCrystal
_audit_creation_method	'MofGen! by Chris Wilmer'
_symmetry_space_group_name_H-M	'P1'
_symmetry_Int_Tables_number	1
_symmetry_cell_setting	triclinic
loop_
_symmetry_equiv_pos_as_xyz
  x,y,z
_cell_length_a	10.723024
_cell_length_b	14.519709
_cell_length_c	9.798715
_cell_angle_alpha	89.995905
_cell_angle_beta	89.996609
_cell_angle_gamma	84.074007
loop_
_atom_site_label
_atom_site_type_symbol
_atom_site_fract_x
_atom_site_fract_y
_atom_site_fract_z
O1	O	1.655978	0.129347	-0.113485
O2	O	2.155978	0.629347	0.386515
O3	O	1.292710	0.141728	-0.113490
O4	O	1.792710	0.641728	0.386510
O5	O	1.483975	0.001349	-0.113475
O6	O	1.983975	0.501349	0.386525
O7	O	1.464712	0.269727	-0.113500
O8	O	1.964712	0.769727	0.386500
O9	O	1.483961	0.001348	0.113507
O10	O	1.983961	0.501348	0.613507
O11	O	1.292695	0.141728	0.113492
O12	O	1.792695	0.641728	0.613492
O13	O	1.655963	0.129347	0.113497
O14	O	2.155963	0.629347	0.613497
Zn15	Zn	1.474327	0.135537	0.149533
Zn16	Zn	1.974327	0.635537	0.649533
Zn17	Zn	1.474346	0.135538	-0.149526
Zn18	Zn	1.974346	0.635538	0.350474
O19	O	1.464698	0.269727	0.113482
O20	O	1.964698	0.769727	0.613482
C21	C	1.246211	0.140827	0.000000
C22	C	1.746211	0.640827	0.500000
C23	C	1.107682	0.138132	-0.000001
C24	C	1.607682	0.638132	0.499999
C25	C	1.031965	0.216681	-0.000009
C26	C	1.531965	0.716681	0.499991
C27	C	0.888788	0.213896	-0.000011
C28	C	1.388788	0.713896	0.499989
C29	C	1.483070	-0.033016	0.000016
C30	C	1.983070	0.466984	0.500016
C31	C	1.480380	-0.135411	0.000017
C32	C	1.980380	0.364589	0.500017
C33	C	1.470476	-0.510357	-0.000019
C34	C	1.970476	-0.010357	0.499981
C35	C	1.473227	-0.406035	-0.000009
C36	C	1.973227	0.093965	0.499991
C37	C	1.475428	-0.322887	0.000000
C38	C	1.975428	0.177113	0.500000
C39	C	1.478179	-0.218559	0.000008
C40	C	1.978179	0.281441	0.500008
C41	C	1.702462	0.130248	0.000003
C42	C	2.202462	0.630248	0.500003
C43	C	1.840991	0.132944	-0.000004
C44	C	2.340991	0.632944	0.499996
C45	C	1.465603	0.304091	-0.000012
C46	C	1.965603	0.804091	0.499988
C47	C	1.468293	0.406486	-0.000022
C48	C	1.968293	0.906486	0.499978
N49	N	1.474323	0.135537	0.353632
N50	N	1.974323	0.635537	0.853632
N51	N	1.474359	0.135532	-0.353626
N52	N	1.974359	0.635532	0.146374
C53	C	1.554633	0.076335	0.421415
C54	C	2.054633	0.576335	0.921415
C55	C	1.554653	0.076332	0.578578
C56	C	2.054653	0.576332	1.078578
H57	H	1.066508	0.068822	-0.000030
H58	H	1.566508	0.568822	0.499970
H59	H	1.405577	0.186216	0.411951
H60	H	1.905577	0.686216	0.911951
O61	O	0.811232	0.294148	-0.000262
O62	O	1.311232	0.794148	0.499738
C63	C	0.834043	0.345860	-0.117805
C64	C	1.334043	0.845860	0.382195
H65	H	0.878502	0.297489	-0.199964
H66	H	1.378502	0.797489	0.300036
H67	H	0.900335	0.399727	-0.091228
H68	H	1.400335	0.899727	0.408772
C69	C	0.654751	0.454335	-0.070208
C70	C	1.154751	0.954335	0.429792
C71	C	0.709346	0.394923	-0.171122
C72	C	1.209346	0.894923	0.328878
H73	H	0.577833	0.484603	-0.103095
H74	H	1.077833	0.984603	0.396905
H75	H	0.639384	0.419498	0.008985
H76	H	1.139384	0.919498	0.508985
H77	H	0.710006	0.499216	-0.048071
H78	H	1.210006	0.999216	0.451929
H79	H	0.654098	0.350037	-0.193245
H80	H	1.154098	0.850037	0.306755
H81	H	0.724701	0.429754	-0.250321
H82	H	1.224701	0.929754	0.249679
H83	H	1.073139	0.285991	-0.000008
H84	H	1.573139	0.785991	0.499992
O85	O	1.636499	0.015865	0.351673
O86	O	2.136499	0.515865	0.851673
C87	C	1.569278	-0.041294	0.269023
C88	C	2.069278	0.458706	0.769023
H89	H	1.471781	-0.005051	0.247804
H90	H	1.971781	0.494949	0.747804
H91	H	1.560508	-0.109538	0.323965
H92	H	2.060508	0.390462	0.823965
C93	C	1.759147	-0.105016	0.159248
C94	C	2.259147	0.394984	0.659248
C95	C	1.639402	-0.060498	0.133177
C96	C	2.139402	0.439502	0.633177
H97	H	1.802404	-0.116867	0.075454
H98	H	2.302404	0.383133	0.575454
H99	H	1.804436	-0.066510	0.214934
H100	H	2.304436	0.433490	0.714934
H101	H	1.751822	-0.161882	0.205037
H102	H	2.251822	0.338118	0.705037
H103	H	1.646729	-0.003629	0.087406
H104	H	2.146729	0.496371	0.587406
H105	H	1.594115	-0.098996	0.077480
H106	H	2.094115	0.401004	0.577480
O107	O	1.636627	0.015734	0.647960
O108	O	2.136627	0.515734	1.147960
C109	C	1.615793	-0.075650	0.613183
C110	C	2.115793	0.424350	1.113183
H111	H	1.567761	-0.075826	0.509411
H112	H	2.067761	0.424174	1.009411
H113	H	1.553429	-0.104399	0.693588
H114	H	2.053429	0.395601	1.193588
C115	C	1.801155	-0.136186	0.734215
C116	C	2.301155	0.363814	1.234215
C117	C	1.742171	-0.136403	0.606755
C118	C	2.242171	0.363597	1.106755
H119	H	1.879109	-0.173663	0.730255
H120	H	2.379109	0.326337	1.230255
H121	H	1.815190	-0.074619	0.757650
H122	H	2.315190	0.425381	1.257650
H123	H	1.749172	-0.160141	0.801206
H124	H	2.249172	0.339859	1.301206
H125	H	1.794146	-0.112437	0.539770
H126	H	2.294146	0.387563	1.039770
H127	H	1.728148	-0.197968	0.583308
H128	H	2.228148	0.302032	1.083308
O129	O	0.918540	0.052688	-0.000239
O130	O	1.418540	0.552688	0.499761
C131	C	0.895744	0.000977	-0.117773
C132	C	1.395744	0.500977	0.382227
H133	H	0.851295	0.049349	-0.199942
H134	H	1.351295	0.549349	0.300058
H135	H	0.829449	-0.052890	-0.091189
H136	H	1.329449	0.447110	0.408811
C137	C	1.075031	-0.107497	-0.070153
C138	C	1.575031	0.392503	0.429847
C139	C	1.020448	-0.048085	-0.171079
C140	C	1.520448	0.451915	0.328921
H141	H	1.151953	-0.137764	-0.103033
H142	H	1.651953	0.362236	0.396967
H143	H	1.090388	-0.072661	0.009034
H144	H	1.590388	0.427339	0.509034
H145	H	1.019773	-0.152378	-0.048009
H146	H	1.519773	0.347622	0.451991
H147	H	1.075699	-0.003198	-0.193209
H148	H	1.575699	0.496802	0.306791
H149	H	1.005104	-0.082915	-0.250272
H150	H	1.505104	0.417085	0.249728
H151	H	1.405604	0.186222	0.588092
H152	H	1.905604	0.686222	1.088092
