data_functionalizedCrystal
_audit_creation_method	'MofGen! by Chris Wilmer'
_symmetry_space_group_name_H-M	'P1'
_symmetry_Int_Tables_number	1
_symmetry_cell_setting	triclinic
loop_
_symmetry_equiv_pos_as_xyz
  x,y,z
_cell_length_a	15.944499
_cell_length_b	19.288862
_cell_length_c	18.366186
_cell_angle_alpha	89.988026
_cell_angle_beta	90.008117
_cell_angle_gamma	96.693554
loop_
_atom_site_label
_atom_site_type_symbol
_atom_site_fract_x
_atom_site_fract_y
_atom_site_fract_z
O1	O	1.114207	-0.089411	0.060606
O2	O	1.614207	0.410589	0.560606
O3	O	0.869609	-0.100493	0.060599
O4	O	1.369609	0.399507	0.560599
O5	O	0.998977	0.006161	0.060584
O6	O	1.498977	0.506161	0.560584
O7	O	0.984839	-0.196065	0.060621
O8	O	1.484839	0.303935	0.560621
O9	O	0.998963	0.006164	-0.060516
O10	O	1.498963	0.506164	0.439484
O11	O	0.869595	-0.100490	-0.060500
O12	O	1.369595	0.399510	0.439500
O13	O	1.114193	-0.089408	-0.060494
O14	O	1.614193	0.410592	0.439506
Zn15	Zn	0.991892	-0.094949	-0.079724
Zn16	Zn	1.491892	0.405051	0.420276
Zn17	Zn	0.991910	-0.094952	0.079829
Zn18	Zn	1.491910	0.405048	0.579829
O19	O	0.984826	-0.196062	-0.060479
O20	O	1.484826	0.303938	0.439521
C21	C	0.838309	-0.100038	0.000048
C22	C	1.338309	0.399962	0.500048
C23	C	0.745066	-0.098678	0.000045
C24	C	1.245066	0.401322	0.500045
C25	C	0.998515	0.032040	0.000031
C26	C	1.498515	0.532040	0.500031
C27	C	0.997151	0.109147	0.000021
C28	C	1.497151	0.609147	0.500021
N29	N	0.991886	-0.094946	-0.188615
N30	N	1.491886	0.405054	0.311385
C31	C	0.453291	-0.160641	0.000067
C32	C	0.953291	0.339359	0.500067
C33	C	0.514451	-0.128432	0.059771
C34	C	1.014451	0.371568	0.559771
C35	C	0.409448	-0.093736	0.000061
C36	C	0.909448	0.406264	0.500061
C37	C	0.514423	-0.128412	-0.059624
C38	C	1.014423	0.371588	0.440376
C39	C	0.574348	-0.096168	0.000052
C40	C	1.074348	0.403832	0.500052
C41	C	0.469381	-0.061509	0.059814
C42	C	0.969381	0.438491	0.559814
C43	C	0.469347	-0.061497	-0.059634
C44	C	0.969347	0.438503	0.440366
C45	C	0.530490	-0.029240	0.000084
C46	C	1.030490	0.470760	0.500084
C47	C	0.314454	-0.092337	0.000067
C48	C	0.814454	0.407663	0.500067
C49	C	0.669341	-0.097561	0.000051
C50	C	1.169341	0.402439	0.500051
C51	C	1.145493	-0.089863	0.000059
C52	C	1.645493	0.410137	0.500059
C53	C	1.238736	-0.091224	0.000067
C54	C	1.738736	0.408776	0.500067
C55	C	1.073058	0.153655	0.000018
C56	C	1.573058	0.653655	0.500018
C57	C	1.071776	0.226105	0.000027
C58	C	1.571776	0.726105	0.500027
C59	C	0.994583	0.254044	0.000024
C60	C	1.494583	0.754044	0.500024
C61	C	0.918666	0.209526	0.000031
C62	C	1.418666	0.709526	0.500031
C63	C	0.919950	0.137078	0.000030
C64	C	1.419950	0.637078	0.500030
C65	C	0.933896	0.362483	-0.042401
C66	C	1.433896	0.862483	0.457599
C67	C	0.932615	0.434931	-0.042404
C68	C	1.432615	0.934931	0.457596
C69	C	0.990619	0.477500	0.000030
C70	C	1.490619	0.977500	0.500030
C71	C	1.049918	0.447614	0.042459
C72	C	1.549918	0.947614	0.542459
C73	C	1.051202	0.375165	0.042458
C74	C	1.551202	0.875165	0.542458
C75	C	0.993182	0.332602	0.000025
C76	C	1.493182	0.832602	0.500025
C77	C	1.065141	0.600568	0.000038
C78	C	1.565141	1.100568	0.500038
C79	C	1.063856	0.673019	0.000050
C80	C	1.563856	1.173019	0.500050
C81	C	0.910743	0.656438	0.000048
C82	C	1.410743	1.156438	0.500048
C83	C	0.912031	0.583989	0.000042
C84	C	1.412031	1.083989	0.500042
C85	C	0.989232	0.556058	0.000033
C86	C	1.489232	1.056058	0.500033
C87	C	0.985290	0.778059	0.000065
C88	C	1.485290	1.278059	0.500065
C89	C	0.986662	0.700953	0.000049
C90	C	1.486662	1.200953	0.500049
C91	C	1.049208	-0.047736	-0.773173
C92	C	1.549208	0.452264	-0.273173
C93	C	1.049209	-0.047738	-0.696945
C94	C	1.549209	0.452262	-0.196945
C95	C	0.991911	-0.094946	-0.658827
C96	C	1.491911	0.405054	-0.158827
C97	C	0.934621	-0.142168	-0.696943
C98	C	1.434621	0.357832	-0.196943
C99	C	0.934627	-0.142170	-0.773169
C100	C	1.434627	0.357830	-0.273169
C101	C	0.915369	-0.104026	-0.538073
C102	C	1.415369	0.395974	-0.038073
C103	C	0.915362	-0.104019	-0.461849
C104	C	1.415362	0.395981	0.038151
C105	C	0.991891	-0.094945	-0.423719
C106	C	1.491891	0.405055	0.076281
C107	C	1.068431	-0.085862	-0.461824
C108	C	1.568431	0.414138	0.038176
C109	C	1.068438	-0.085863	-0.538051
C110	C	1.568438	0.414137	-0.038051
C111	C	0.991898	-0.094950	-0.576172
C112	C	1.491898	0.405050	-0.076172
C113	C	1.049182	-0.047730	-0.302957
C114	C	1.549182	0.452270	0.197043
C115	C	1.049184	-0.047737	-0.226728
C116	C	1.549184	0.452263	0.273272
C117	C	0.934589	-0.142164	-0.226728
C118	C	1.434589	0.357836	0.273272
C119	C	0.934594	-0.142161	-0.302956
C120	C	1.434594	0.357839	0.197044
C121	C	0.991890	-0.094940	-0.341066
C122	C	1.491890	0.405060	0.158934
N123	N	0.991923	-0.094949	0.188721
N124	N	1.491923	0.405051	0.688721
H125	H	0.419746	-0.216165	0.000135
H126	H	0.919746	0.283835	0.500135
Cl127	Cl	1.125741	0.337595	0.095800
Cl128	Cl	1.625741	0.837595	0.595800
Cl129	Cl	0.582055	0.056559	0.000118
Cl130	Cl	1.082055	0.556559	0.500118
Cl131	Cl	0.545244	-0.172116	-0.137548
Cl132	Cl	1.045244	0.327884	0.362452
H133	H	0.853038	-0.111407	-0.430829
H134	H	1.353038	0.388593	0.069171
Cl135	Cl	0.438443	-0.017841	-0.137582
Cl136	Cl	0.938443	0.482159	0.362418
H137	H	1.095860	-0.009290	-0.665912
H138	H	1.595860	0.490710	-0.165912
Cl139	Cl	1.170111	0.118546	0.000028
Cl140	Cl	1.670111	0.618546	0.500028
Cl141	Cl	0.545312	-0.172122	0.137717
Cl142	Cl	1.045312	0.327878	0.637717
H143	H	1.130749	-0.078477	-0.430781
H144	H	1.630749	0.421523	0.069219
Cl145	Cl	1.122842	0.501121	0.095811
Cl146	Cl	1.622842	1.001121	0.595811
Cl147	Cl	0.824515	0.081121	0.000033
Cl148	Cl	1.324515	0.581121	0.500033
H149	H	0.449517	-0.033238	0.110345
H150	H	0.949517	0.466762	0.610345
Cl151	Cl	1.167209	0.282069	0.000023
Cl152	Cl	1.667209	0.782069	0.500023
H153	H	1.128003	0.577825	0.000034
H154	H	1.628003	1.077825	0.500034
Cl155	Cl	1.164655	-0.074453	-0.585952
Cl156	Cl	1.664655	0.425547	-0.085952
H157	H	0.850219	0.547749	0.000040
H158	H	1.350219	1.047749	0.500040
H159	H	0.887968	-0.180607	-0.665904
H160	H	1.387968	0.319393	-0.165904
Cl161	Cl	1.121240	0.011622	-0.821082
Cl162	Cl	1.621240	0.511622	-0.321082
H163	H	1.125671	0.709257	0.000052
H164	H	1.625671	1.209257	0.500052
Cl165	Cl	0.819151	-0.115438	-0.585999
Cl166	Cl	1.319151	0.384562	-0.085999
H167	H	0.847891	0.679186	0.000049
H168	H	1.347891	1.179186	0.500049
H169	H	1.095839	-0.009282	-0.333988
H170	H	1.595839	0.490718	0.166012
Cl171	Cl	1.121211	0.011618	-0.178819
Cl172	Cl	1.621211	0.511618	0.321181
H173	H	0.887938	-0.180605	-0.195693
H174	H	1.387938	0.319395	0.304307
H175	H	0.887978	-0.180618	-0.804197
H176	H	1.387978	0.319382	-0.304197
H177	H	0.887943	-0.180604	-0.333984
H178	H	1.387943	0.319396	0.166016
H179	H	0.884326	0.459258	-0.076948
H180	H	1.384326	0.959258	0.423052
Cl181	Cl	0.860971	0.308975	-0.095755
Cl182	Cl	1.360971	0.808975	0.404245
Cl183	Cl	0.821622	0.244649	0.000033
Cl184	Cl	1.321622	0.744649	0.500033
