data_functionalizedCrystal
_audit_creation_method	'MofGen! by Chris Wilmer'
_symmetry_space_group_name_H-M	'P1'
_symmetry_Int_Tables_number	1
_symmetry_cell_setting	triclinic
loop_
_symmetry_equiv_pos_as_xyz
  x,y,z
_cell_length_a	18.101395
_cell_length_b	18.101398
_cell_length_c	17.077396
_cell_angle_alpha	89.992101
_cell_angle_beta	89.970929
_cell_angle_gamma	90.026661
loop_
_atom_site_label
_atom_site_type_symbol
_atom_site_fract_x
_atom_site_fract_y
_atom_site_fract_z
Zn1	Zn	-0.294906	1.132107	-0.443656
Zn2	Zn	-0.418758	1.132007	-0.312393
Zn3	Zn	-0.294925	1.008270	-0.312425
Zn4	Zn	-0.418700	1.008217	-0.443637
O5	O	-0.356822	1.070151	-0.378028
O6	O	-0.311351	1.235727	-0.426238
O7	O	-0.402363	1.115574	-0.202550
O8	O	-0.191290	1.024762	-0.329855
O9	O	-0.402345	1.235653	-0.329799
O10	O	-0.191275	1.115744	-0.426270
O11	O	-0.311384	1.024665	-0.202574
O12	O	-0.311328	0.904630	-0.329836
O13	O	-0.402247	1.024671	-0.553487
O14	O	-0.402265	0.904591	-0.426237
O15	O	-0.311295	1.115693	-0.553501
O16	O	-0.522383	1.115522	-0.329781
O17	O	-0.522341	1.024574	-0.426206
C18	C	-0.356793	0.877740	-0.378039
C19	C	-0.356799	0.795426	-0.378062
C20	C	-0.549233	1.070051	-0.378005
C21	C	-0.631547	1.070077	-0.378021
C22	C	-0.356842	0.496335	-0.378029
C23	C	-0.414334	0.527660	-0.438383
C24	C	-0.414154	0.613279	-0.438631
C25	C	-0.356821	0.644718	-0.378046
C26	C	-0.278818	0.613662	-0.400650
C27	C	-0.279163	0.528017	-0.401079
C28	C	-0.376666	0.527885	-0.294926
C29	C	-0.378377	0.613535	-0.295370
C30	C	-0.356805	0.728577	-0.378053
C31	C	-0.356854	0.412475	-0.378023
C32	C	-0.930638	1.070239	-0.378063
C33	C	-0.899317	1.013150	-0.438882
C34	C	-0.813699	1.012879	-0.438692
C35	C	-0.782255	1.070159	-0.378043
C36	C	-0.813407	1.049032	-0.295317
C37	C	-0.899053	1.048664	-0.295681
C38	C	-0.898987	1.148580	-0.399243
C39	C	-0.813336	1.148120	-0.401057
C40	C	-0.698396	1.070114	-0.378027
C41	C	-1.014497	1.070282	-0.378074
C42	C	-0.163660	1.070270	-0.378068
C43	C	-0.081346	1.070321	-0.378085
C44	C	-0.356762	1.070187	-0.582772
C45	C	-0.356737	1.070203	-0.670022
C46	C	-0.356852	1.263312	-0.378017
C47	C	-0.356865	1.345627	-0.378013
C48	C	-0.404023	1.117606	-1.045827
C49	C	-0.404045	1.117588	-0.963846
C50	C	-0.356685	1.070250	-0.922871
C51	C	-0.309304	1.022924	-0.963881
C52	C	-0.309287	1.022939	-1.045860
C53	C	-0.309343	1.022896	-0.793011
C54	C	-0.309359	1.022881	-0.711026
C55	C	-0.404101	1.117544	-0.710997
C56	C	-0.404083	1.117560	-0.792976
C57	C	-0.356702	1.070234	-0.833980
C58	C	-0.356829	1.070157	-0.174080
C59	C	-0.356646	1.070285	-0.086831
H60	H	-0.471998	0.634274	-0.424464
N61	N	-0.258243	0.971849	-0.837239
H62	H	-0.228241	0.941860	-0.798844
H63	H	-0.223971	1.002025	-0.871261
H64	H	-0.334789	0.507628	-0.249957
N65	N	-0.326933	0.641858	-0.232597
H66	H	-0.356193	0.670287	-0.192249
H67	H	-0.288761	0.675427	-0.257029
H68	H	-0.792634	1.026096	-0.500033
H69	H	-0.919864	1.026236	-0.500421
H70	H	-0.261701	0.635125	-0.460742
N71	N	-0.927899	0.936697	-0.420541
H72	H	-0.961048	0.938881	-0.373007
H73	H	-0.884890	0.902699	-0.409643
H74	H	-0.472366	0.507045	-0.424374
N75	N	-0.926521	1.101339	-0.233609
H76	H	-0.907818	1.152764	-0.245227
H77	H	-0.907824	1.084973	-0.180668
N78	N	-0.220529	0.640636	-0.344249
H79	H	-0.233143	0.623600	-0.289530
H80	H	-0.218577	0.696383	-0.345592
N81	N	-0.397171	0.499175	-0.519474
H82	H	-0.386919	0.542190	-0.555560
H83	H	-0.440792	0.470171	-0.539843
N84	N	-0.454409	0.640425	-0.272784
H85	H	-0.467967	0.620193	-0.219561
H86	H	-0.491552	0.622903	-0.312803
H87	H	-0.270746	0.984377	-0.930513
N88	N	-0.455141	1.168634	-0.919622
H89	H	-0.425055	1.202961	-0.885615
H90	H	-0.489455	1.138459	-0.885647
N91	N	-0.786630	0.935966	-0.420102
H92	H	-0.805382	0.900344	-0.461048
H93	H	-0.805544	0.920616	-0.366880
H94	H	-0.432573	0.506272	-0.274383
N95	N	-0.925604	0.972812	-0.271912
H96	H	-0.881673	0.939928	-0.261298
H97	H	-0.956228	0.950926	-0.315555
H98	H	-0.793042	1.089305	-0.248768
N99	N	-0.785077	0.973979	-0.271124
H100	H	-0.801491	0.935765	-0.310543
H101	H	-0.805435	0.960941	-0.217808
H102	H	-0.920535	1.167842	-0.458538
N103	N	-0.455203	1.168591	-0.666773
H104	H	-0.448101	1.161321	-0.608623
H105	H	-0.508084	1.157105	-0.681169
N106	N	-0.258190	0.971896	-1.090090
H107	H	-0.228189	0.941906	-1.051694
H108	H	-0.223917	1.002068	-1.124114
N109	N	-0.258285	0.971820	-0.666829
H110	H	-0.228272	0.941835	-0.705242
H111	H	-0.288441	0.937530	-0.632810
N112	N	-0.256889	0.501532	-0.481535
H113	H	-0.210724	0.470464	-0.477385
H114	H	-0.246970	0.545523	-0.516379
N115	N	-0.786365	1.169231	-0.481700
H116	H	-0.754146	1.128472	-0.503242
H117	H	-0.756823	1.216468	-0.478321
N118	N	-0.396775	0.640433	-0.520192
H119	H	-0.346612	0.621587	-0.536669
H120	H	-0.396627	0.696226	-0.520642
H121	H	-0.791928	1.192904	-0.359988
N122	N	-0.220508	0.500551	-0.345393
H123	H	-0.170563	0.519301	-0.362777
H124	H	-0.220354	0.444757	-0.345269
N125	N	-0.925811	1.204925	-0.340570
H126	H	-0.958305	1.179869	-0.300462
H127	H	-0.955031	1.244430	-0.368554
H128	H	-0.442645	1.156110	-0.826336
N129	N	-0.455102	1.168668	-1.090018
H130	H	-0.485119	1.198641	-1.051599
H131	H	-0.489360	1.138507	-1.124024
