data_functionalizedCrystal
_audit_creation_method	'MofGen! by Chris Wilmer'
_symmetry_space_group_name_H-M	'P1'
_symmetry_Int_Tables_number	1
_symmetry_cell_setting	triclinic
loop_
_symmetry_equiv_pos_as_xyz
  x,y,z
_cell_length_a	17.019282
_cell_length_b	15.500235
_cell_length_c	17.699083
_cell_angle_alpha	92.834394
_cell_angle_beta	96.663816
_cell_angle_gamma	88.951883
loop_
_atom_site_label
_atom_site_type_symbol
_atom_site_fract_x
_atom_site_fract_y
_atom_site_fract_z
O1	O	1.046189	-0.006025	-0.096667
O2	O	0.817369	0.011031	-0.108138
O3	O	0.938243	0.002013	0.007758
O4	O	0.925315	0.002992	-0.212564
O5	O	0.930937	-0.141330	0.000728
O6	O	0.810062	-0.132313	-0.115168
O7	O	1.038883	-0.149368	-0.103698
Cu8	Cu	0.923805	-0.153929	-0.110075
Cu9	Cu	0.932446	0.015591	-0.101761
O10	O	0.918008	-0.140351	-0.219594
C11	C	0.784438	-0.058459	-0.111081
C12	C	0.697201	-0.051957	-0.109368
N13	N	0.917733	-0.273161	-0.115923
C14	C	0.887294	-0.816078	-0.145004
C15	C	0.891903	-0.725849	-0.140596
C16	C	0.947747	-0.684722	-0.087095
C17	C	0.998980	-0.733828	-0.037993
C18	C	0.994366	-0.824055	-0.042398
C19	C	0.964352	-0.412494	-0.071226
C20	C	0.968964	-0.322260	-0.066826
C21	C	0.861885	-0.314288	-0.169429
C22	C	0.857280	-0.404517	-0.173832
C23	C	0.908510	-0.453615	-0.124727
C24	C	0.952462	-0.592493	-0.082590
C25	C	0.903791	-0.545841	-0.129229
C26	C	0.652239	-0.127041	-0.112394
C27	C	0.570272	-0.120934	-0.110773
C28	C	0.533269	-0.039742	-0.106131
C29	C	0.578237	0.035347	-0.103103
C30	C	0.660203	0.029240	-0.104719
C31	C	0.285985	-0.017392	-0.101055
C32	C	0.204013	-0.011289	-0.099441
C33	C	0.196053	-0.167571	-0.107110
C34	C	0.278021	-0.173672	-0.108730
C35	C	0.322983	-0.098582	-0.105698
C36	C	0.449486	-0.033498	-0.104476
C37	C	0.406765	-0.104827	-0.107348
C38	C	1.071813	-0.079877	-0.100754
C39	C	1.159050	-0.086373	-0.102467
C40	C	0.934127	-0.069624	0.032442
C41	C	0.932737	-0.069521	0.116466
N42	N	0.938524	0.134823	-0.095907
C43	C	0.922125	-0.068712	-0.244278
C44	C	0.923515	-0.068809	-0.328302
C45	C	1.003688	-0.074810	0.164783
C46	C	1.002378	-0.074705	0.243732
C47	C	0.930115	-0.069316	0.274363
C48	C	0.859159	-0.064023	0.226040
C49	C	0.860470	-0.064123	0.147093
C50	C	0.853869	-0.063622	0.544427
C51	C	0.852563	-0.063526	0.623380
C52	C	0.995776	-0.074204	0.641066
C53	C	0.997088	-0.074304	0.562118
C54	C	0.926132	-0.069006	0.513803
C55	C	0.927553	-0.069119	0.428197
C56	C	0.928692	-0.069210	0.359967
H57	H	0.841823	-0.849557	-0.188573
H58	H	0.173887	0.054830	-0.095663
C59	C	0.335433	0.065210	-0.097712
N60	N	0.372681	0.127429	-0.095192
H61	H	0.682360	-0.193156	-0.116180
H62	H	0.308143	-0.239787	-0.112507
C63	C	1.080429	-0.080538	0.296876
N64	N	1.139221	-0.084936	0.336905
C65	C	0.779669	-0.058103	0.259737
N66	N	0.719795	-0.053650	0.285116
H67	H	0.548103	0.101455	-0.099318
C68	C	1.013877	-0.547243	-0.023727
N69	N	1.060128	-0.513158	0.020614
C70	C	0.520815	-0.203532	-0.114119
N71	N	0.483563	-0.265750	-0.116645
H72	H	0.159437	-0.228704	-0.109578
C73	C	0.709661	0.111838	-0.101392
N74	N	0.746913	0.174054	-0.098884
C75	C	0.782418	-0.058306	0.093945
N76	N	0.723627	-0.053922	0.053914
C77	C	1.050725	-0.878064	0.011612
N78	N	1.093174	-0.918743	0.052295
H79	H	0.850187	-0.685872	-0.180574
C80	C	1.083184	-0.080739	0.131097
N81	N	1.143062	-0.085200	0.105727
C82	C	1.076582	-0.080232	0.528429
N83	N	1.136459	-0.084693	0.503056
H84	H	0.811807	-0.438000	-0.217396
C85	C	0.805530	-0.260272	-0.223434
N86	N	0.763079	-0.219587	-0.264110
H87	H	0.436897	-0.170933	-0.111123
C88	C	0.842361	-0.591084	-0.188076
N89	N	0.796092	-0.625168	-0.232400
H90	H	0.419348	0.032609	-0.100696
C91	C	0.773065	-0.057590	0.657072
N92	N	0.713190	-0.053119	0.682449
C93	C	1.030397	-0.277023	-0.007966
N94	N	1.076666	-0.242949	0.036365
H95	H	1.006067	-0.452463	-0.031244
C96	C	1.073830	-0.080022	0.694220
N97	N	1.132619	-0.084405	0.734255
C98	C	0.775815	-0.057790	0.491290
N99	N	0.717021	-0.053395	0.451264
H100	H	1.044447	-0.700337	0.005573
