data_functionalizedCrystal
_audit_creation_method	'MofGen! by Chris Wilmer'
_symmetry_space_group_name_H-M	'P1'
_symmetry_Int_Tables_number	1
_symmetry_cell_setting	triclinic
loop_
_symmetry_equiv_pos_as_xyz
  x,y,z
_cell_length_a	6.817900
_cell_length_b	10.773890
_cell_length_c	14.125465
_cell_angle_alpha	96.481673
_cell_angle_beta	100.398878
_cell_angle_gamma	96.645716
loop_
_atom_site_label
_atom_site_type_symbol
_atom_site_fract_x
_atom_site_fract_y
_atom_site_fract_z
V1	V	-3.957265	-0.171528	-0.298419
O2	O	-3.981363	0.009345	-0.294351
O3	O	-3.875342	-0.341173	-0.294827
O4	O	-3.894026	-0.168406	-0.429277
O5	O	-3.962550	-0.164617	-0.158970
V6	V	-4.447159	-0.149951	-0.281928
O7	O	-4.204547	-0.218860	-0.334593
O8	O	-4.650074	-0.102619	-0.245754
O9	O	-4.305874	0.019693	-0.285520
O10	O	-4.540457	-0.330825	-0.285996
O11	O	-4.559270	-0.156862	-0.421377
O12	O	-4.287190	-0.153073	-0.151070
C13	C	-3.712668	-0.382543	-0.289719
C14	C	-3.726875	-0.521227	-0.287654
C15	C	-3.904544	-0.589077	-0.291242
C16	C	-3.919231	-0.732413	-0.289108
C17	C	-3.736501	-0.162161	-0.461223
C18	C	-3.765859	-0.160731	-0.568190
C19	C	-3.819670	-0.158108	-0.764037
C20	C	-4.004123	-0.163369	-0.816310
C21	C	-4.034066	-0.161910	-0.925286
C22	C	-3.789719	-0.159567	-0.655051
C23	C	-4.131889	0.061057	-0.290625
C24	C	-4.096920	0.199739	-0.292696
C25	C	-4.108057	-0.159323	-0.119119
C26	C	-4.057940	-0.160747	-0.012151
H27	H	-4.045780	-0.541050	-0.295899
H28	H	-4.238170	-0.752241	-0.297352
N29	N	-3.539776	-0.584826	-0.281483
H30	H	-3.476510	-0.571345	-0.339552
H31	H	-3.576943	-0.678181	-0.280799
N32	N	-3.640275	-0.150700	-0.813151
H33	H	-3.632990	-0.072215	-0.846007
H34	H	-3.654761	-0.227588	-0.863236
H35	H	-4.139552	-0.168983	-0.779221
N36	N	-3.732120	-0.796008	-0.282943
H37	H	-3.769133	-0.889387	-0.282290
H38	H	-3.633100	-0.758622	-0.221393
