data_functionalizedCrystal
_audit_creation_method	'MofGen! by Chris Wilmer'
_symmetry_space_group_name_H-M	'P1'
_symmetry_Int_Tables_number	1
_symmetry_cell_setting	triclinic
loop_
_symmetry_equiv_pos_as_xyz
  x,y,z
_cell_length_a	17.638336
_cell_length_b	29.839131
_cell_length_c	17.639514
_cell_angle_alpha	78.798717
_cell_angle_beta	109.616347
_cell_angle_gamma	78.805439
loop_
_atom_site_label
_atom_site_type_symbol
_atom_site_fract_x
_atom_site_fract_y
_atom_site_fract_z
Zn1	Zn	1.353557	-0.417513	0.720054
Zn2	Zn	1.325617	-0.473569	0.582237
Zn3	Zn	1.187973	-0.379416	0.554480
Zn4	Zn	1.215678	-0.473538	0.692176
O5	O	1.270706	-0.436009	0.637237
O6	O	1.465158	-0.440905	0.725055
O7	O	1.284070	-0.445149	0.463252
O8	O	1.210037	-0.321620	0.576494
O9	O	1.444630	-0.482089	0.623802
O10	O	1.331691	-0.349609	0.698140
O11	O	1.182944	-0.375975	0.442859
O12	O	1.076341	-0.375945	0.549462
O13	O	1.257256	-0.482036	0.811177
O14	O	1.096696	-0.445096	0.650627
O15	O	1.358555	-0.440875	0.831658
O16	O	1.310935	-0.536415	0.596771
O17	O	1.230163	-0.536392	0.677542
C18	C	1.056621	-0.406383	0.594008
C19	C	0.965038	-0.393723	0.575534
C20	C	0.825352	-0.339843	0.496906
C21	C	0.911409	-0.351743	0.514272
C22	C	0.932623	-0.423820	0.619453
C23	C	0.846565	-0.411927	0.602093
C24	C	0.792936	-0.369937	0.540820
C25	C	0.814150	-0.442021	0.646007
C26	C	0.728100	-0.430128	0.628652
C27	C	0.674466	-0.388139	0.567383
C28	C	0.706886	-0.358043	0.523465
C29	C	0.867782	-0.484009	0.707284
C30	C	0.835366	-0.514104	0.751198
C31	C	0.749314	-0.502212	0.733839
C32	C	0.695680	-0.460224	0.672570
C33	C	0.716894	-0.532308	0.777757
C34	C	0.630844	-0.520414	0.760402
C35	C	0.609630	-0.448330	0.655215
C36	C	1.270549	-0.552705	0.637166
C37	C	1.270563	-0.602643	0.637178
C38	C	1.312875	-0.912332	0.595275
C39	C	1.312983	-1.100024	0.595328
O40	O	1.348834	-1.124307	0.559645
N41	N	1.270890	-1.123483	0.637333
C42	C	1.228770	-1.100018	0.679333
O43	O	1.192977	-1.124279	0.715070
C44	C	1.228668	-0.912328	0.679285
C45	C	1.270757	-0.888870	0.637270
C46	C	1.354962	-0.888874	0.553264
C47	C	1.354931	-0.841953	0.553248
C48	C	1.312813	-0.818490	0.595242
C49	C	1.270726	-0.841949	0.637253
C50	C	1.186554	-0.888865	0.721290
C51	C	1.186534	-0.841940	0.721276
C52	C	1.228623	-0.818481	0.679261
C53	C	1.228577	-0.771565	0.679232
N54	N	1.270670	-0.748106	0.637226
C55	C	1.312788	-0.771568	0.595231
C56	C	1.228826	-1.198557	0.679354
C57	C	1.228850	-1.245479	0.679365
C58	C	1.313065	-1.245482	0.595361
C59	C	1.313035	-1.198558	0.595345
C60	C	1.270920	-1.175098	0.637349
C61	C	1.312719	-0.673031	0.595199
C62	C	1.312681	-0.626105	0.595184
C63	C	1.228471	-0.626107	0.679191
C64	C	1.228504	-0.673028	0.679204
C65	C	1.270635	-0.696489	0.637206
O66	O	1.192752	-0.747254	0.714903
O67	O	1.348592	-0.747302	0.559516
C68	C	1.312907	-0.959253	0.595292
C69	C	1.270820	-0.982711	0.637303
C70	C	1.228702	-0.959249	0.679298
C71	C	1.270844	-1.029633	0.637314
C72	C	1.312962	-1.053096	0.595319
C73	C	1.355056	-1.029637	0.553314
C74	C	1.355025	-0.982716	0.553297
C75	C	1.186608	-0.982708	0.721303
C76	C	1.186642	-1.029629	0.721316
C77	C	1.228760	-1.053092	0.679321
C78	C	1.485628	-0.465750	0.680635
C79	C	1.577215	-0.478424	0.699128
C80	C	1.314113	-0.465702	0.852150
C81	C	1.332610	-0.478355	0.943734
C82	C	1.270890	-0.318862	0.637330
C83	C	1.270968	-0.268941	0.637370
C84	C	1.130216	-0.339919	1.191881
C85	C	1.147616	-0.351821	1.277941
C86	C	1.252907	-0.423844	1.299155
C87	C	1.235519	-0.411947	1.213095
C88	C	1.174172	-0.369984	1.159464
C89	C	1.279476	-0.442012	1.180678
C90	C	1.262086	-0.430117	1.094626
C91	C	1.200740	-0.388157	1.040989
C92	C	1.156783	-0.358089	1.073412
C93	C	1.340818	-0.483977	1.234310
C94	C	1.384775	-0.514042	1.201893
C95	C	1.367389	-0.502145	1.115839
C96	C	1.306043	-0.460185	1.062203
C97	C	1.411347	-0.532213	1.083417
C98	C	1.393957	-0.520318	0.997364
C99	C	1.288654	-0.448290	0.976151
C100	C	1.227458	-0.406438	1.423157
C101	C	1.208947	-0.393776	1.331571
H102	H	1.346955	-0.607006	0.560967
O103	O	1.471028	-0.572928	1.135572
C104	C	1.534333	-0.561606	1.196134
H105	H	1.534244	-0.523354	1.171267
H106	H	1.597916	-0.586761	1.209897
H107	H	1.522031	-0.565549	1.256208
O108	O	1.395791	-0.911714	0.512455
C109	C	1.338219	-0.925062	0.449728
H110	H	1.281583	-0.927470	0.466080
H111	H	1.369608	-0.961176	0.445563
H112	H	1.316912	-0.897334	0.386820
H113	H	1.354977	-0.493659	1.304379
O114	O	1.145741	-1.052351	0.762204
C115	C	1.108547	-1.021571	0.799247
H116	H	1.142856	-0.993168	0.808919
H117	H	1.112831	-1.042861	0.862384
H118	H	1.039882	-1.003794	0.756394
O119	O	0.654724	-0.317300	0.463854
C120	C	0.594123	-0.328578	0.400517
H121	H	0.618965	-0.366812	0.400514
H122	H	0.580334	-0.303380	0.336966
H123	H	0.534066	-0.324660	0.412853
H124	H	0.604452	-0.544919	0.796163
O125	O	1.444364	-0.554774	1.254114
C126	C	1.450271	-0.558834	1.337015
H127	H	1.425712	-0.522066	1.343357
H128	H	1.518594	-0.574940	1.382174
H129	H	1.411286	-0.582780	1.352551
H130	H	1.152276	-0.907955	0.755499
O131	O	1.183839	-0.376682	0.957396
C132	C	1.156778	-0.412817	0.924327
H133	H	1.180839	-0.447490	0.976730
H134	H	1.182293	-0.417982	0.874245
H135	H	1.085323	-0.402199	0.895264
O136	O	1.395764	-0.819200	0.512320
C137	C	1.361233	-0.816856	0.426562
H138	H	1.329216	-0.846316	0.418442
H139	H	1.413285	-0.821579	0.401687
H140	H	1.313276	-0.780777	0.390210
O141	O	0.557468	-0.407586	0.595604
C142	C	0.496867	-0.418864	0.532267
H143	H	0.521709	-0.457099	0.532264
H144	H	0.483078	-0.393666	0.468716
H145	H	0.436810	-0.414947	0.544603
H146	H	1.152240	-0.822841	0.755483
O147	O	0.590908	-0.376592	0.550677
C148	C	0.578160	-0.372053	0.623893
H149	H	0.637329	-0.393189	0.681326
H150	H	0.523504	-0.386368	0.626855
H151	H	0.563340	-0.332933	0.622702
O152	O	1.187606	-0.695755	0.720085
C153	C	1.150405	-0.664977	0.757126
H154	H	1.184707	-0.636571	0.766799
H155	H	1.154688	-0.686268	0.820262
H156	H	1.081739	-0.647203	0.714271
O157	O	1.436754	-0.549566	0.966012
C158	C	1.494613	-0.589160	1.031796
H159	H	1.509901	-0.579639	1.093732
H160	H	1.554496	-0.599499	1.020022
H161	H	1.466230	-0.620358	1.034828
O162	O	0.773310	-0.299073	0.437289
C163	C	0.777684	-0.300373	0.359358
H164	H	0.839788	-0.326025	0.370177
H165	H	0.773197	-0.263237	0.323117
H166	H	0.723604	-0.312907	0.321763
O167	O	0.942983	-0.322579	0.471587
C168	C	0.981934	-0.347619	0.428298
H169	H	1.000638	-0.387466	0.459836
H170	H	1.040246	-0.336162	0.429528
H171	H	0.936416	-0.339475	0.360526
O172	O	0.768883	-0.573100	0.837331
C173	C	0.721816	-0.597119	0.872355
H174	H	0.661080	-0.570650	0.862897
H175	H	0.759795	-0.614370	0.942275
H176	H	0.706514	-0.625760	0.840215
H177	H	1.111820	-0.327334	1.304331
H178	H	1.194175	-0.606996	0.713380
H179	H	1.302853	-0.458011	1.342831
O180	O	1.229116	-0.407533	0.923936
C181	C	1.223181	-0.403491	0.841030
H182	H	1.284371	-0.425377	0.842101
H183	H	1.211043	-0.364557	0.807228
H184	H	1.169332	-0.417268	0.806723
H185	H	0.879043	-0.548291	0.801088
O186	O	1.187847	-1.268254	0.720037
C187	C	1.125207	-1.281601	0.662361
H188	H	1.107051	-1.257815	0.596439
H189	H	1.067781	-1.277494	0.679305
H190	H	1.150133	-1.320286	0.664702
H191	H	1.347028	-0.692128	0.561003
H192	H	1.194529	-1.179458	0.713559
O193	O	1.070571	-0.299149	1.139889
C194	C	1.035516	-0.275153	1.186954
H195	H	1.045030	-0.301630	1.247705
H196	H	0.965579	-0.257944	1.148991
H197	H	1.067591	-0.246481	1.202222
H198	H	1.389298	-0.963619	0.519085
H199	H	0.937849	-0.493689	0.721418
O200	O	0.984821	-0.464563	0.679028
C201	C	1.045387	-0.453283	0.742394
H202	H	1.052459	-0.416998	0.716061
H203	H	1.108100	-0.481470	0.765573
H204	H	1.024580	-0.452261	0.796789
H205	H	1.152311	-0.963609	0.755502
O206	O	1.353996	-1.175850	0.554525
C207	C	1.391150	-1.206621	0.517443
H208	H	1.400806	-1.245114	0.551776
H209	H	1.454309	-1.200810	0.521810
H210	H	1.348382	-1.198823	0.448760
O211	O	1.354145	-1.268323	0.554740
C212	C	1.416808	-1.309263	0.612488
H213	H	1.434866	-1.304756	0.678388
H214	H	1.474278	-1.314425	0.595616
H215	H	1.391951	-1.341714	0.610158
O216	O	1.396104	-1.052480	0.512670
C217	C	1.458768	-1.093427	0.570394
H218	H	1.476873	-1.088924	0.636298
H219	H	1.516214	-1.098596	0.553482
H220	H	1.433891	-1.125871	0.568077
H221	H	1.106836	-0.323916	1.029744
