data_functionalizedCrystal
_audit_creation_method	'MofGen! by Chris Wilmer'
_symmetry_space_group_name_H-M	'P1'
_symmetry_Int_Tables_number	1
_symmetry_cell_setting	triclinic
loop_
_symmetry_equiv_pos_as_xyz
  x,y,z
_cell_length_a	27.732048
_cell_length_b	27.732064
_cell_length_c	22.610064
_cell_angle_alpha	89.999473
_cell_angle_beta	89.999096
_cell_angle_gamma	82.646040
loop_
_atom_site_label
_atom_site_type_symbol
_atom_site_fract_x
_atom_site_fract_y
_atom_site_fract_z
O1	O	0.057549	0.640925	-0.049085
O2	O	0.066286	0.500133	-0.049111
O3	O	-0.008479	0.574902	-0.049086
O4	O	0.132314	0.566156	-0.049110
O5	O	-0.008468	0.574889	0.049283
O6	O	0.066297	0.500120	0.049259
O7	O	0.057560	0.640912	0.049284
Zn8	Zn	0.061930	0.570514	0.064889
Zn9	Zn	0.061915	0.570531	-0.064716
O10	O	0.132325	0.566143	0.049259
C11	C	0.066106	0.482120	0.000071
C12	C	0.065551	0.428465	0.000062
C13	C	0.017583	0.051392	0.000104
C14	C	0.019630	0.253053	0.000088
O15	O	-0.017591	0.284305	0.000116
N16	N	0.063964	0.272180	0.000078
C17	C	0.107790	0.240889	0.000075
O18	O	0.145546	0.261785	0.000072
C19	C	0.105743	0.039230	0.000095
C20	C	0.061406	0.020105	0.000100
C21	C	-0.026750	0.032267	0.000109
C22	C	-0.027261	-0.018145	0.000109
C23	C	0.016561	-0.049432	0.000105
C24	C	0.060895	-0.030307	0.000100
C25	C	0.149568	0.007940	0.000097
C26	C	0.149053	-0.042478	0.000104
C27	C	0.104716	-0.061602	0.000108
C28	C	0.104206	-0.112006	0.000097
N29	N	0.059872	-0.131134	0.000107
C30	C	0.016049	-0.099846	0.000111
C31	C	0.108861	0.346763	0.000064
C32	C	0.109373	0.397178	0.000058
C33	C	0.021213	0.409338	0.000071
C34	C	0.020701	0.358923	0.000073
C35	C	0.064527	0.327636	0.000074
C36	C	0.014979	-0.205716	0.000112
C37	C	0.014472	-0.256133	0.000110
C38	C	0.102632	-0.268289	0.000100
C39	C	0.103140	-0.217876	0.000098
C40	C	0.059309	-0.186590	0.000107
O41	O	0.141407	-0.143287	0.000075
O42	O	-0.021701	-0.120752	0.000127
C43	C	0.018094	0.101804	0.000103
C44	C	0.062428	0.120930	0.000098
C45	C	0.106250	0.089642	0.000094
C46	C	0.062940	0.171344	0.000092
C47	C	0.019117	0.202631	0.000096
C48	C	-0.025217	0.183504	0.000106
C49	C	-0.025728	0.133092	0.000107
C50	C	0.150585	0.108770	0.000084
C51	C	0.151092	0.159183	0.000082
C52	C	0.107270	0.190470	0.000087
C53	C	-0.026481	0.574712	0.000100
C54	C	-0.080136	0.574159	0.000105
C55	C	-0.418948	0.614862	0.000082
C56	C	-0.620608	0.612811	0.000073
O57	O	-0.651862	0.650032	0.000054
N58	N	-0.639735	0.568476	0.000066
C59	C	-0.608442	0.524651	0.000057
O60	O	-0.629338	0.486895	0.000044
C61	C	-0.406784	0.526703	0.000061
C62	C	-0.387660	0.571040	0.000075
C63	C	-0.399824	0.659196	0.000095
C64	C	-0.349412	0.659709	0.000100
C65	C	-0.318124	0.615887	0.000093
C66	C	-0.337248	0.571553	0.000080
C67	C	-0.375493	0.482878	0.000048
C68	C	-0.325075	0.483395	0.000047
C69	C	-0.305952	0.527733	0.000061
C70	C	-0.255548	0.528243	0.000078
N71	N	-0.236422	0.572578	0.000085
C72	C	-0.267710	0.616400	0.000093
C73	C	-0.714317	0.523577	0.000056
C74	C	-0.764731	0.523064	0.000056
C75	C	-0.776893	0.611225	0.000071
C76	C	-0.726478	0.611737	0.000075
C77	C	-0.695190	0.567912	0.000063
C78	C	-0.161841	0.617472	0.000105
C79	C	-0.111424	0.617981	0.000112
C80	C	-0.099266	0.529821	0.000094
C81	C	-0.149679	0.529312	0.000089
C82	C	-0.180965	0.573142	0.000093
O83	O	-0.224267	0.491043	0.000091
O84	O	-0.246805	0.654151	0.000092
C85	C	-0.469360	0.614350	0.000077
C86	C	-0.488484	0.570016	0.000064
C87	C	-0.457196	0.526194	0.000057
C88	C	-0.538899	0.569503	0.000064
C89	C	-0.570187	0.613325	0.000071
C90	C	-0.551060	0.657660	0.000079
C91	C	-0.500648	0.658172	0.000084
C92	C	-0.476323	0.481859	0.000049
C93	C	-0.526735	0.481351	0.000044
C94	C	-0.558023	0.525172	0.000052
C95	C	0.150326	0.566333	0.000072
C96	C	0.203981	0.566886	0.000063
C97	C	0.057739	0.658925	0.000101
C98	C	0.058295	0.712580	0.000106
N99	N	0.061939	0.570505	0.153342
N100	N	0.061902	0.570543	-0.153169
C101	C	0.028814	0.603640	0.561994
C102	C	0.028811	0.603643	0.623914
O103	O	0.000654	0.631795	0.655942
N104	N	0.061905	0.570531	0.654879
C105	C	0.095002	0.537411	0.623921
O106	O	0.123151	0.509247	0.655945
C107	C	0.095003	0.537407	0.562002
C108	C	0.061910	0.570524	0.531040
C109	C	-0.004277	0.636755	0.531032
C110	C	-0.004272	0.636753	0.469117
C111	C	0.028823	0.603636	0.438163
C112	C	0.061914	0.570522	0.469125
C113	C	0.128097	0.504285	0.531045
C114	C	0.128095	0.504283	0.469122
C115	C	0.095002	0.537400	0.438160
C116	C	0.095013	0.537404	0.376255
N117	N	0.061919	0.570516	0.345290
C118	C	0.028824	0.603632	0.376244
C119	C	0.094997	0.537422	0.753954
C120	C	0.094999	0.537429	0.815872
C121	C	0.028807	0.603660	0.815861
C122	C	0.028808	0.603655	0.753942
C123	C	0.061903	0.570534	0.722990
C124	C	0.028836	0.603625	0.246217
C125	C	0.028844	0.603622	0.184296
C126	C	0.095034	0.537389	0.184312
C127	C	0.095027	0.537394	0.246228
C128	C	0.061924	0.570514	0.277179
O129	O	0.123154	0.509265	0.344188
O130	O	0.000676	0.631787	0.344213
H131	H	-0.061832	0.117526	0.000111
H132	H	-0.060899	0.208987	0.000106
N133	N	-0.480025	0.705993	0.000092
H134	H	-0.459381	0.708170	0.036559
H135	H	-0.507527	0.733644	0.000072
H136	H	-0.710911	0.647841	0.000086
N137	N	-0.006862	0.639352	0.279594
H138	H	-0.028147	0.621051	0.305285
H139	H	-0.027787	0.660319	0.250540
N140	N	0.150959	-0.197245	0.000085
H141	H	0.178642	-0.224717	0.000081
H142	H	0.153094	-0.176596	0.036554
H143	H	-0.021634	-0.271701	0.000112
N144	N	0.198917	0.179805	0.000083
H145	H	0.192597	0.216490	0.000085
H146	H	0.218077	0.168336	-0.036384
N147	N	-0.328790	0.707530	0.000112
H148	H	-0.356267	0.735209	0.000115
H149	H	-0.308138	0.709670	-0.036354
H150	H	-0.031221	0.663718	0.443911
H151	H	-0.014469	0.434821	0.000073
N152	N	-0.433569	0.706464	0.000107
H153	H	-0.427452	0.725832	-0.036352
H154	H	-0.427431	0.725775	0.036603
H155	H	0.186271	0.083300	0.000081
N156	N	-0.785354	0.475243	0.000057
H157	H	-0.757879	0.447563	0.000053
H158	H	-0.806007	0.473110	-0.036409
N159	N	-0.680574	0.476306	0.000044
H160	H	-0.700345	0.448146	0.000041
H161	H	-0.659392	0.474592	0.036511
H162	H	0.184742	-0.067950	0.000107
N163	N	-0.006887	0.639383	0.849252
H164	H	-0.041159	0.634079	0.838480
H165	H	-0.001506	0.673628	0.838458
N166	N	-0.090798	0.665804	0.000130
H167	H	-0.118272	0.693486	0.000132
H168	H	-0.070143	0.667944	-0.036333
H169	H	0.138311	-0.293772	0.000093
N170	N	-0.006896	0.639370	0.720559
H171	H	-0.028175	0.621056	0.694877
H172	H	0.011456	0.660628	0.694897
H173	H	-0.299603	0.447706	0.000037
N174	N	0.130693	0.501710	0.849263
H175	H	0.151972	0.520016	0.874954
H176	H	0.151623	0.480741	0.820215
H177	H	-0.062438	0.057737	0.000114
H178	H	0.155044	0.477310	0.443923
H179	H	0.001895	0.630592	0.159089
N180	N	-0.027121	0.338303	0.000087
H181	H	-0.029297	0.317661	0.036557
H182	H	-0.029279	0.317678	-0.036398
N183	N	0.130696	0.501698	0.720572
H184	H	0.151659	0.480725	0.749588
H185	H	0.151943	0.520038	0.694879
H186	H	-0.802377	0.646906	0.000077
N187	N	0.163783	0.468558	0.564429
H188	H	0.184741	0.447577	0.535416
H189	H	0.145413	0.447332	0.590114
H190	H	-0.165249	0.493209	0.000095
N191	N	0.130723	0.501683	0.279632
H192	H	0.164994	0.506993	0.268861
H193	H	0.125350	0.467435	0.268845
N194	N	-0.396115	0.435059	0.000026
H195	H	-0.416762	0.432869	0.036488
H196	H	-0.368615	0.407405	-0.000006
H197	H	-0.073782	0.494142	0.000090
N198	N	-0.584812	0.704925	0.000092
H199	H	-0.619649	0.697868	0.000088
H200	H	-0.578658	0.724270	-0.036371
H201	H	-0.187309	0.653163	0.000105
N202	N	0.130728	0.501672	0.150920
H203	H	0.125705	0.506697	0.106998
H204	H	0.125374	0.467426	0.161745
H205	H	-0.450852	0.446173	0.000042
N206	N	-0.032293	-0.171977	0.000123
H207	H	-0.060452	-0.191749	0.000126
H208	H	-0.034007	-0.150794	-0.036344
H209	H	-0.063365	-0.033711	0.000115
H210	H	-0.542300	0.445243	0.000039
H211	H	-0.031229	0.663722	0.556230
N212	N	0.157193	0.417803	0.000038
H213	H	0.184874	0.390328	0.000036
H214	H	0.159333	0.438457	0.036501
H215	H	0.144551	0.321293	0.000063
H216	H	0.185672	0.023501	0.000091
