data_functionalizedCrystal
_audit_creation_method	'MofGen! by Chris Wilmer'
_symmetry_space_group_name_H-M	'P1'
_symmetry_Int_Tables_number	1
_symmetry_cell_setting	triclinic
loop_
_symmetry_equiv_pos_as_xyz
  x,y,z
_cell_length_a	9.065218
_cell_length_b	10.654550
_cell_length_c	8.140239
_cell_angle_alpha	89.996625
_cell_angle_beta	89.997198
_cell_angle_gamma	84.750408
loop_
_atom_site_label
_atom_site_type_symbol
_atom_site_fract_x
_atom_site_fract_y
_atom_site_fract_z
O1	O	1.959391	0.184157	-0.136617
O2	O	1.530024	0.199263	-0.136620
O3	O	1.754580	0.009010	-0.136608
O4	O	1.734836	0.374410	-0.136629
O5	O	1.754567	0.009008	0.136619
O6	O	1.530011	0.199261	0.136607
O7	O	1.959379	0.184155	0.136610
Zn8	Zn	1.744693	0.191708	0.179989
Zn9	Zn	1.744710	0.191711	-0.179999
O10	O	1.734823	0.374408	0.136598
C11	C	1.475039	0.197810	-0.000006
C12	C	1.311220	0.193469	-0.000007
C13	C	1.753124	-0.037795	0.000005
C14	C	1.748786	-0.177255	0.000002
C15	C	1.881001	-0.256217	0.000002
C16	C	1.876917	-0.387254	-0.000018
C17	C	1.608391	-0.360354	-0.000031
C18	C	1.612477	-0.229320	-0.000023
C19	C	2.032639	-0.582482	-0.095750
C20	C	2.164861	-0.661449	-0.095722
C21	C	2.284719	-0.630803	0.000029
C22	C	2.272361	-0.521192	0.095790
C23	C	2.140137	-0.442232	0.095777
C24	C	2.020284	-0.472876	-0.000012
C25	C	1.456765	-0.034091	0.095723
C26	C	1.324539	0.044872	0.095721
C27	C	1.204668	0.014230	-0.000020
C28	C	1.217011	-0.095383	-0.095757
C29	C	1.349237	-0.174347	-0.095755
C30	C	1.469109	-0.143695	-0.000018
C31	C	2.014364	0.185608	-0.000007
C32	C	2.178183	0.189949	-0.000017
C33	C	1.736279	0.421213	-0.000018
C34	C	1.740616	0.560673	-0.000026
N35	N	1.744693	0.191705	0.425672
N36	N	1.744722	0.191704	-0.425682
H37	H	1.991993	-0.213831	0.000019
C38	C	2.126533	-0.321663	0.201092
C39	C	1.981099	-0.234801	0.201061
C40	C	1.967503	-0.114225	0.306370
C41	C	2.099341	-0.080511	0.411709
C42	C	2.244786	-0.167374	0.411744
C43	C	2.258382	-0.287950	0.306435
H44	H	1.883494	-0.259757	0.123079
H45	H	1.859834	-0.049923	0.306343
H46	H	2.089277	0.008747	0.489665
H47	H	2.342390	-0.142418	0.489726
H48	H	2.366051	-0.352252	0.306462
H49	H	1.935055	-0.607436	-0.173741
H50	H	2.369961	-0.496258	0.173771
H51	H	1.314491	0.134117	0.173696
C52	C	1.362824	-0.294921	-0.201074
C53	C	1.230973	-0.328636	-0.306394
C54	C	1.244561	-0.449208	-0.411710
C55	C	1.390000	-0.536064	-0.411707
C56	C	1.521861	-0.502351	-0.306384
C57	C	1.508273	-0.381779	-0.201067
H58	H	1.123302	-0.264339	-0.306399
H59	H	1.146948	-0.474165	-0.489677
H60	H	1.400059	-0.625319	-0.489669
H61	H	1.629533	-0.566648	-0.306378
H62	H	1.605886	-0.356822	-0.123100
C63	C	1.085162	-0.129099	-0.201090
C64	C	1.015997	-0.253874	-0.171397
C65	C	0.884143	-0.287588	-0.276728
C66	C	0.821455	-0.196527	-0.411752
C67	C	0.890621	-0.071744	-0.441452
C68	C	1.022474	-0.038030	-0.336121
H69	H	1.062402	-0.321290	-0.071438
H70	H	0.832942	-0.379961	-0.254742
H71	H	0.723849	-0.221484	-0.489725
H72	H	0.844215	-0.004328	-0.541410
H73	H	1.073675	0.054343	-0.358107
H74	H	2.392377	-0.695107	0.000049
H75	H	1.096996	0.078524	0.000009
H76	H	1.497413	-0.402762	-0.000049
H77	H	2.174913	-0.750692	-0.173704
H78	H	1.554384	-0.009113	0.173652
