data_functionalizedCrystal
_audit_creation_method	'MofGen! by Chris Wilmer'
_symmetry_space_group_name_H-M	'P1'
_symmetry_Int_Tables_number	1
_symmetry_cell_setting	triclinic
loop_
_symmetry_equiv_pos_as_xyz
  x,y,z
_cell_length_a	14.395555
_cell_length_b	19.377369
_cell_length_c	14.395555
_cell_angle_alpha	72.123253
_cell_angle_beta	90.000325
_cell_angle_gamma	48.635948
loop_
_atom_site_label
_atom_site_type_symbol
_atom_site_fract_x
_atom_site_fract_y
_atom_site_fract_z
Zr1	Zr	0.709612	0.779837	0.064335
O2	O	0.525959	0.928488	-0.048512
O3	O	0.790403	0.631195	0.074319
O4	O	0.755081	0.779843	-0.083993
O5	O	0.561284	0.779833	0.262674
O6	O	0.907956	0.779838	-0.083986
O7	O	0.561281	0.779840	0.109800
O8	O	0.971141	0.513934	0.199205
O9	O	0.498099	1.045736	-0.020517
O10	O	0.909359	0.692327	0.108315
O11	O	0.795272	0.692325	0.222398
O12	O	0.753684	0.867339	0.036006
O13	O	0.639597	0.867337	0.150089
Zr14	Zr	0.953435	0.779817	0.308162
Zr15	Zr	0.953431	0.779829	0.064346
Zr16	Zr	0.709617	0.779825	0.308151
Zr17	Zr	0.665179	0.966835	0.108984
Zr18	Zr	0.997869	0.592819	0.263514
O19	O	0.872644	0.928459	0.298179
O20	O	0.872638	0.928476	-0.048496
O21	O	0.525966	0.928471	0.298163
O22	O	1.137088	0.631166	0.421010
O23	O	1.137082	0.631183	0.074335
O24	O	0.790410	0.631178	0.420994
O25	O	1.101763	0.779821	0.109824
O26	O	0.907966	0.779811	0.456490
O27	O	0.755091	0.779816	0.456483
O28	O	1.101766	0.779814	0.262698
O29	O	0.691902	1.045729	-0.020509
O30	O	0.971145	0.513925	0.393006
O31	O	1.164948	0.513918	0.393015
O32	O	1.164945	0.513927	0.199214
O33	O	0.498103	1.045727	0.173284
O34	O	0.691906	1.045720	0.173293
O35	O	0.909363	0.692315	0.336491
O36	O	1.023450	0.692317	0.222408
O37	O	0.867776	0.867329	0.150099
O38	O	0.753689	0.867327	0.264182
C39	C	0.887103	0.545922	0.130401
C40	C	0.905966	0.466536	0.111446
C41	C	0.670728	0.205134	0.347181
C42	C	0.688608	0.130449	0.329451
C43	C	0.807706	0.130460	0.210357
C44	C	0.789841	0.205143	0.228081
C45	C	0.721349	0.242476	0.296492
C46	C	0.840463	0.242485	0.177392
C47	C	0.822593	0.317166	0.195110
C48	C	0.754101	0.354505	0.263516
C49	C	0.703479	0.317156	0.314210
C50	C	0.908946	0.205156	0.108975
C51	C	0.959568	0.242498	0.058287
C52	C	0.941706	0.317175	0.076010
C53	C	0.873215	0.354514	0.144416
C54	C	0.992328	0.354523	0.025316
C55	C	0.974458	0.429204	0.043034
C56	C	0.855345	0.429195	0.162134
C57	C	0.526544	0.779838	0.186235
C58	C	0.423036	0.779841	0.186230
C59	C	0.277567	0.875265	0.146814
C60	C	0.258065	0.827566	0.090348
C61	C	0.258116	0.827536	0.242687
C62	C	0.404898	0.732142	0.129702
C63	C	0.404942	0.732125	0.282103
C64	C	0.385531	0.684357	0.225647
C65	C	1.136504	0.779816	0.186262
C66	C	1.240011	0.779813	0.186267
C67	C	0.831518	0.779842	-0.118728
C68	C	0.831516	0.779847	-0.222234
C69	C	0.775944	1.013732	0.242097
C70	C	0.757081	1.093118	0.261051
C71	C	0.746640	0.875254	-0.384152
C72	C	0.712873	0.827577	-0.302507
C73	C	0.865225	0.827548	-0.302514
C74	C	0.797702	0.732130	-0.324987
C75	C	0.950111	0.732114	-0.325004
C76	C	0.916387	0.684368	-0.243359
C77	C	0.831529	0.779812	0.491225
C78	C	0.831531	0.779807	0.594732
C79	C	1.192083	0.545911	0.130414
C80	C	1.314454	0.466522	0.111465
C81	C	0.887109	0.545907	0.435377
C82	C	0.905974	0.466516	0.519929
C83	C	1.192089	0.545896	0.435391
C84	C	1.314461	0.466502	0.519947
C85	C	0.470959	1.013758	-0.062893
C86	C	0.348586	1.093152	-0.147450
C87	C	0.470964	1.013743	0.242083
C88	C	0.348594	1.093132	0.261033
C89	C	0.775938	1.013747	-0.062880
C90	C	0.757073	1.093138	-0.147432
C91	C	1.312366	0.429245	0.043000
C92	C	1.427334	0.354661	0.025174
C93	C	1.544390	0.317350	0.075820
C94	C	1.546474	0.354635	0.144288
C95	C	1.431506	0.429222	0.162107
C96	C	0.974388	0.429229	0.619201
C97	C	0.992107	0.354643	0.698659
C98	C	0.941419	0.317342	0.678840
C99	C	0.872996	0.354637	0.579559
C100	C	0.855270	0.429226	0.500105
C101	C	1.431491	0.429219	0.500106
C102	C	1.546480	0.354630	0.579549
C103	C	1.544437	0.317321	0.678832
C104	C	1.427394	0.354611	0.698673
C105	C	1.312407	0.429204	0.619231
C106	C	0.231554	1.130445	-0.127606
C107	C	0.116560	1.205056	-0.207044
C108	C	0.118601	1.242369	-0.306325
C109	C	0.235646	1.205074	-0.326167
C110	C	0.350636	1.130468	-0.246730
C111	C	0.350680	1.130417	0.329489
C112	C	0.235707	1.205021	0.347293
C113	C	0.118650	1.242335	0.296645
C114	C	0.116567	1.205047	0.228180
C115	C	0.231537	1.130449	0.210372
C116	C	0.807778	1.130416	-0.127583
C117	C	0.790077	1.205002	-0.207021
C118	C	0.721663	1.242313	-0.306307
C119	C	0.670957	1.205028	-0.326155
C120	C	0.688667	1.130439	-0.246719
H121	H	0.863468	0.100058	0.154653
C122	C	1.425027	0.313650	-0.050130
H123	H	1.510255	0.263892	-0.053505
H124	H	1.391537	0.284550	-0.027657
H125	H	1.371876	0.367214	-0.115695
C126	C	1.433821	0.470207	0.237433
H127	H	1.520007	0.437291	0.265046
H128	H	1.381629	0.540633	0.202863
H129	H	1.401281	0.457960	0.290878
H130	H	0.232950	0.955955	0.113399
C131	C	1.013356	0.575296	-0.161781
H132	H	1.077380	0.564183	-0.120864
H133	H	0.969264	0.564581	-0.120187
H134	H	1.053263	0.529833	-0.193966
H135	H	1.015667	0.459591	0.635357
C136	C	0.577404	0.882069	-0.288256
H137	H	0.581907	0.836688	-0.233191
H138	H	0.546206	0.937731	-0.274029
H139	H	0.520525	0.905397	-0.348761
H140	H	0.021270	1.235410	-0.190869
H141	H	0.237428	1.235368	0.403045
H142	H	1.047826	0.324286	0.779491
C143	C	0.595610	1.246136	-0.435354
H144	H	0.567921	1.213270	-0.435806
H145	H	0.522545	1.316558	-0.458886
H146	H	0.649866	1.233943	-0.478734
H147	H	1.217122	0.459550	0.635400
H148	H	1.433179	0.459585	0.419271
H149	H	1.637995	0.256615	0.061302
C150	C	0.817264	0.313587	0.557769
H151	H	0.837642	0.263816	0.619310
H152	H	0.726188	0.367123	0.530139
H153	H	0.853612	0.284472	0.510424
H154	H	1.641770	0.324275	0.563376
H155	H	1.638077	0.256583	0.743508
H156	H	0.955862	0.256607	0.743546
C157	C	0.479375	1.089415	-0.268573
H158	H	0.547577	1.039633	-0.207051
H159	H	0.494763	1.060334	-0.315934
H160	H	0.475212	1.142952	-0.296202
C161	C	0.229280	1.089424	-0.018404
H162	H	0.143100	1.122339	-0.017975
H163	H	0.281466	1.019001	0.005209
H164	H	0.261844	1.101654	0.024924
C165	C	0.780024	0.470228	0.390908
H166	H	0.752390	0.437318	0.390493
H167	H	0.706928	0.540653	0.367288
H168	H	0.834343	0.457986	0.347578
H169	H	0.923485	0.144352	0.094546
C170	C	1.425157	0.313568	0.807883
H171	H	1.338990	0.346456	0.808334
H172	H	1.477368	0.243142	0.831480
H173	H	1.457717	0.325800	0.851209
H174	H	0.024960	1.303118	-0.371000
C175	C	0.229236	1.089429	0.135081
H176	H	0.314466	1.039659	0.131717
H177	H	0.195729	1.060342	0.157552
H178	H	0.176099	1.142987	0.069511
C179	C	0.237877	1.246117	-0.435380
H180	H	0.152628	1.295880	-0.479842
H181	H	0.271371	1.275218	-0.436983
H182	H	0.290994	1.192566	-0.456702
C183	C	0.759022	0.677688	-0.339057
H184	H	0.742917	0.654953	-0.278709
H185	H	0.683201	0.722896	-0.394474
H186	H	0.827099	0.621616	-0.352653
C187	C	0.632998	0.089324	0.385267
H188	H	0.589679	0.122237	0.428567
H189	H	0.573806	0.101434	0.336844
H190	H	0.701236	0.018913	0.424857
H191	H	1.641797	0.324245	0.185518
C192	C	-0.007806	1.324388	0.316245
H193	H	0.010214	1.341238	0.364278
H194	H	-0.065641	1.382596	0.254270
H195	H	-0.045993	1.299938	0.342304
H196	H	0.445983	1.100042	0.370743
H197	H	0.021243	1.235439	0.186947
H198	H	0.674798	0.955932	-0.444677
C199	C	0.883042	1.089383	-0.018379
H200	H	0.910710	1.122267	-0.017951
H201	H	0.828740	1.101609	0.024958
H202	H	0.956135	1.018953	0.005219
H203	H	1.050370	0.691806	-0.335577
H204	H	1.015330	0.212096	0.002583
C205	C	0.845841	1.246013	-0.185168
H206	H	0.889098	1.213119	-0.114656
H207	H	0.905117	1.233785	-0.223530
H208	H	0.777694	1.316442	-0.203820
H209	H	0.707251	1.303049	-0.370980
C210	C	1.067658	0.313456	-0.049934
H211	H	1.071053	0.263629	-0.053224
H212	H	1.025515	0.366975	-0.115525
H213	H	1.152897	0.284409	-0.027463
H214	H	0.647369	1.100095	-0.262894
H215	H	0.799572	0.459592	0.217843
C216	C	0.172896	0.882027	0.307176
H217	H	0.176965	0.836644	0.361805
H218	H	0.202990	0.905379	0.333632
H219	H	0.086141	0.937676	0.265869
H220	H	0.739547	0.415319	0.277937
H221	H	0.893728	0.867904	-0.291996
C222	C	0.628144	0.358224	0.389465
H223	H	0.600548	0.325292	0.417117
H224	H	0.682384	0.346083	0.442876
H225	H	0.555001	0.428638	0.354816
H226	H	1.015678	0.459609	0.001758
C227	C	0.172815	0.882049	-0.019158
H228	H	0.133675	0.949852	-0.047082
H229	H	0.224490	0.848815	-0.059524
H230	H	0.107661	0.881112	-0.018419
H231	H	0.614955	0.235532	0.402889
C232	C	0.489902	0.677710	0.065088
H233	H	0.555562	0.678083	0.065440
H234	H	0.528367	0.610103	0.092802
H235	H	0.438212	0.711383	-0.002853
H236	H	0.468033	0.691827	0.363157
C237	C	0.446096	0.575270	0.270665
H238	H	0.497421	0.541538	0.230438
H239	H	0.498627	0.541128	0.338370
H240	H	0.379593	0.575849	0.270936
H241	H	1.217062	0.459623	0.001743
