data_functionalizedCrystal
_audit_creation_method	'MofGen! by Chris Wilmer'
_symmetry_space_group_name_H-M	'P1'
_symmetry_Int_Tables_number	1
_symmetry_cell_setting	triclinic
loop_
_symmetry_equiv_pos_as_xyz
  x,y,z
_cell_length_a	6.817900
_cell_length_b	7.076028
_cell_length_c	14.358977
_cell_angle_alpha	83.264940
_cell_angle_beta	63.445937
_cell_angle_gamma	62.299348
loop_
_atom_site_label
_atom_site_type_symbol
_atom_site_fract_x
_atom_site_fract_y
_atom_site_fract_z
V1	V	4.264069	-0.655562	-0.141789
O2	O	4.179979	-0.652910	0.008513
O3	O	4.278485	-0.641627	-0.282778
O4	O	4.289730	-0.945788	-0.138862
O5	O	4.168655	-0.346644	-0.136399
V6	V	4.729961	-0.619761	-0.123899
O7	O	4.564003	-0.734095	-0.181032
O8	O	4.880225	-0.541229	-0.084657
O9	O	4.492339	-0.633696	0.017090
O10	O	4.931449	-0.622413	-0.274201
O11	O	4.942772	-0.928679	-0.129289
O12	O	4.481094	-0.329536	-0.126826
C13	C	4.181354	-0.656149	0.168895
C14	C	4.297806	-0.646488	0.051474
C15	C	4.136390	-0.628856	-0.317173
C16	C	4.231717	-0.619225	-0.434595
C17	C	4.283436	-0.258481	-0.132099
C18	C	4.157677	-0.016824	-0.133585
V19	V	4.246357	-0.652348	0.359860
O20	O	4.128517	-0.644591	0.512782
O21	O	4.297975	-0.649810	0.213043
O22	O	4.308609	-0.954046	0.356921
O23	O	4.117810	-0.338249	0.367908
V24	V	4.645396	-0.559210	0.407006
O25	O	4.532175	-0.704077	0.334285
O26	O	4.755025	-0.455519	0.459091
O27	O	4.397716	-0.587512	0.540679
O28	O	4.866356	-0.553418	0.260996
O29	O	4.877063	-0.859760	0.405870
O30	O	4.387083	-0.283276	0.396801
C31	C	4.205063	-0.231946	0.381468
C32	C	4.061258	0.007308	0.378765
