data_functionalizedCrystal
_audit_creation_method	'MofGen! by Chris Wilmer'
_symmetry_space_group_name_H-M	'P1'
_symmetry_Int_Tables_number	1
_symmetry_cell_setting	triclinic
loop_
_symmetry_equiv_pos_as_xyz
  x,y,z
_cell_length_a	6.817900
_cell_length_b	10.773890
_cell_length_c	16.255661
_cell_angle_alpha	96.333553
_cell_angle_beta	103.488922
_cell_angle_gamma	96.645716
loop_
_atom_site_label
_atom_site_type_symbol
_atom_site_fract_x
_atom_site_fract_y
_atom_site_fract_z
V1	V	-3.992025	-0.173597	-0.262484
O2	O	-4.015650	0.007305	-0.258906
O3	O	-3.909685	-0.343216	-0.259325
O4	O	-3.944030	-0.171382	-0.377585
O5	O	-3.981067	-0.165719	-0.139827
V6	V	-4.479998	-0.151905	-0.247979
O7	O	-4.243521	-0.221180	-0.294302
O8	O	-4.678700	-0.104323	-0.216161
O9	O	-4.339132	0.017714	-0.251139
O10	O	-4.573770	-0.332807	-0.251557
O11	O	-4.608353	-0.159783	-0.370637
O12	O	-4.304787	-0.154120	-0.132878
C13	C	-3.746415	-0.384552	-0.254832
C14	C	-3.760382	-0.523220	-0.253016
C15	C	-3.938468	-0.591095	-0.256172
C16	C	-3.952907	-0.734417	-0.254295
C17	C	-3.790225	-0.165358	-0.405684
C18	C	-3.832043	-0.164669	-0.499771
C19	C	-3.744244	-0.156440	-0.722655
C20	C	-3.879437	-0.262650	-0.791283
C21	C	-3.908685	-0.163377	-0.672030
C22	C	-3.848025	-0.055952	-0.771049
C23	C	-3.982704	-0.162124	-0.838423
C24	C	-4.043342	-0.269682	-0.739427
C25	C	-4.011886	-0.062890	-0.719178
C26	C	-4.147211	-0.169130	-0.787786
C27	C	-3.866040	-0.164100	-0.576175
C28	C	-4.025364	-0.161410	-0.934278
C29	C	-4.165742	0.059043	-0.255629
C30	C	-4.131013	0.197711	-0.257451
C31	C	-4.121933	-0.160148	-0.104775
C32	C	-4.059355	-0.160831	-0.010688
H33	H	-4.080246	-0.543101	-0.260268
C34	C	-3.593979	-0.369854	-0.800647
C35	C	-3.804460	-0.376655	-0.833698
H36	H	-3.547684	-0.440230	-0.826834
H37	H	-3.565544	-0.370702	-0.740679
H38	H	-3.525961	-0.294026	-0.812027
H39	H	-3.872480	-0.452480	-0.822312
H40	H	-3.832912	-0.375820	-0.893680
C41	C	-3.594059	-0.709025	-0.246214
C42	C	-3.761485	-0.799188	-0.248772
H43	H	-3.475892	-0.749017	-0.242810
H44	H	-3.572940	-0.646882	-0.197564
H45	H	-3.619790	-0.670044	-0.296543
H46	H	-3.735760	-0.838163	-0.198440
H47	H	-3.782605	-0.861354	-0.297427
H48	H	-3.618608	-0.571217	-0.248929
H49	H	-4.272806	-0.754302	-0.261546
H50	H	-3.573534	-0.151212	-0.694216
C51	C	-4.113684	-0.391347	-0.631740
C52	C	-4.154230	-0.391760	-0.720280
H53	H	-4.182125	-0.466718	-0.619921
H54	H	-4.160401	-0.320492	-0.606387
H55	H	-3.971025	-0.386573	-0.608868
H56	H	-4.296888	-0.396525	-0.743152
H57	H	-4.107524	-0.462635	-0.745643
H58	H	-4.318005	-0.174524	-0.816090
C59	C	-3.983677	0.162905	-0.692184
C60	C	-4.086762	0.051122	-0.676732
H61	H	-4.029883	0.233297	-0.665972
H62	H	-4.009896	0.164628	-0.752024
H63	H	-3.841339	0.166607	-0.669021
H64	H	-4.229100	0.047416	-0.699901
H65	H	-4.060559	0.049399	-0.616880
H66	H	-3.765834	0.034351	-0.785380
