data_functionalizedCrystal
_audit_creation_method	'MofGen! by Chris Wilmer'
_symmetry_space_group_name_H-M	'P1'
_symmetry_Int_Tables_number	1
_symmetry_cell_setting	triclinic
loop_
_symmetry_equiv_pos_as_xyz
  x,y,z
_cell_length_a	14.560438
_cell_length_b	18.426585
_cell_length_c	14.560438
_cell_angle_alpha	90.000730
_cell_angle_beta	60.000905
_cell_angle_gamma	60.001046
loop_
_atom_site_label
_atom_site_type_symbol
_atom_site_fract_x
_atom_site_fract_y
_atom_site_fract_z
Zr1	Zr	1.005314	0.699110	-0.120530
O2	O	1.196911	0.583231	-0.267171
O3	O	0.813715	0.734633	-0.075579
O4	O	1.005319	0.734629	-0.267179
O5	O	1.005305	0.583237	0.075571
O6	O	1.005325	0.854055	-0.267183
O7	O	1.005307	0.583234	-0.075570
O8	O	0.662581	0.854061	0.075555
O9	O	1.348049	0.583231	-0.267168
O10	O	0.892528	0.838909	-0.056408
O11	O	0.892521	0.749785	0.056390
O12	O	1.118110	0.749781	-0.169195
O13	O	1.118104	0.660657	-0.056398
Zr14	Zr	1.005320	0.889585	0.120516
Zr15	Zr	1.005324	0.889580	-0.120536
Zr16	Zr	1.005310	0.699115	0.120522
Zr17	Zr	1.246362	0.699110	-0.120525
Zr18	Zr	0.764273	0.889585	0.120512
O19	O	1.196920	0.854062	0.075565
O20	O	1.196926	0.854055	-0.267180
O21	O	1.196905	0.583238	0.075574
O22	O	0.813723	1.005464	0.267158
O23	O	0.813729	1.005457	-0.075587
O24	O	0.813709	0.734640	0.267166
O25	O	1.005330	1.005458	-0.075584
O26	O	1.005316	0.854066	0.267166
O27	O	1.005310	0.734640	0.267170
O28	O	1.005327	1.005461	0.075557
O29	O	1.348057	0.734630	-0.267173
O30	O	0.662577	0.854065	0.267160
O31	O	0.662586	1.005464	0.267155
O32	O	0.662589	1.005460	0.075550
O33	O	1.348046	0.583235	-0.075564
O34	O	1.348054	0.734634	-0.075569
O35	O	0.892524	0.838914	0.169182
O36	O	0.892531	0.928038	0.056384
O37	O	1.118113	0.838910	-0.056403
O38	O	1.118107	0.749786	0.056394
C39	C	0.703804	0.794347	-0.000012
C40	C	0.601473	0.794347	-0.000014
C41	C	0.553400	0.840867	-0.058894
C42	C	0.457241	0.840870	-0.058883
C43	C	0.457239	0.747827	0.058888
C44	C	0.553390	0.747829	0.058883
C45	C	1.005305	0.556098	0.000001
C46	C	1.005300	0.475238	0.000004
C47	C	1.005339	0.179123	-0.000016
C48	C	1.005334	0.261509	-0.000014
C49	C	1.005320	0.327178	-0.000007
C50	C	1.005314	0.409570	-0.000003
C51	C	1.306831	0.794348	-0.000001
C52	C	1.409162	0.794348	0.000001
C53	C	1.005322	0.794341	-0.301526
C54	C	1.005324	0.794339	-0.403859
C55	C	1.005330	1.032597	-0.000014
C56	C	1.005334	1.113457	-0.000017
C57	C	1.123074	0.747816	-0.510809
C58	C	1.123067	0.747827	-0.606958
C59	C	0.887552	0.840884	-0.489193
C60	C	0.887559	0.840879	-0.393046
C61	C	1.005312	0.794354	0.301513
C62	C	1.005311	0.794356	0.403846
C63	C	0.703816	1.032597	-0.000020
C64	C	0.601490	1.113456	-0.000025
C65	C	0.703798	0.794353	0.301507
C66	C	0.601466	0.794355	0.403838
C67	C	0.703811	1.032603	0.301499
C68	C	0.601483	1.113464	0.403828
C69	C	1.306823	0.556092	-0.301513
C70	C	1.409152	0.475231	-0.403841
C71	C	1.306818	0.556098	0.000007
C72	C	1.409145	0.475239	0.000011
C73	C	1.306836	0.794342	-0.301520
C74	C	1.409169	0.794340	-0.403852
C75	C	0.553434	1.104905	-0.058913
C76	C	0.457301	1.180873	-0.058940
C77	C	0.409218	1.265393	-0.000071
C78	C	0.457283	1.273943	0.058819
C79	C	0.553421	1.197975	0.058839
C80	C	0.553432	1.197967	0.393003
C81	C	0.457297	1.273953	0.489142
C82	C	0.409208	1.265433	0.596105
C83	C	0.457268	1.180921	0.606928
C84	C	0.553408	1.104937	0.510790
C85	C	1.457215	0.390728	-0.393017
C86	C	1.553379	0.314742	-0.489156
C87	C	1.601473	0.323262	-0.596119
C88	C	1.553407	0.407774	-0.606941
C89	C	1.457250	0.483758	-0.510803
C90	C	1.457210	0.483790	0.058890
C91	C	1.553370	0.407822	0.058890
C92	C	1.601457	0.323302	0.000017
C93	C	1.553388	0.314752	-0.058868
C94	C	1.457236	0.390720	-0.058874
C95	C	0.553389	0.840879	0.510790
C96	C	0.457246	0.840871	0.606937
C97	C	0.457260	0.747813	0.489167
C98	C	0.553408	0.747817	0.393022
H99	H	0.418101	0.878752	-0.106826
H100	H	0.330935	1.327244	-0.000095
H101	H	1.418118	0.552562	-0.519630
F102	F	0.604584	0.698292	0.279187
F103	F	0.406075	1.171867	0.720775
H104	H	0.418108	0.878754	0.694018
H105	H	0.592572	1.204921	0.305917
F106	F	0.604534	0.890408	0.522304
F107	F	0.762228	0.890396	-0.279212
F108	F	1.248393	0.698312	-0.720782
F109	F	0.406103	0.698288	0.477668
H110	H	0.418119	1.342769	0.106748
F111	F	0.406160	1.363888	0.477601
F112	F	0.604532	1.015005	0.522327
F113	F	1.406044	0.381640	-0.279188
F114	F	0.604548	1.207090	0.121527
H115	H	0.330925	1.327311	0.674378
F116	F	1.604515	0.224807	-0.477614
H117	H	1.679770	0.261384	-0.674391
H118	H	0.592529	0.709946	0.106835
H119	H	0.592545	0.878746	-0.106849
H120	H	0.791672	0.878774	-0.480403
H121	H	1.592577	0.414701	-0.694042
H122	H	1.418066	0.552604	0.106838
H123	H	1.592554	0.245926	-0.106800
F124	F	1.604508	0.416940	0.121570
H125	H	0.418079	0.709953	0.106838
F126	F	1.703790	0.242457	0.000035
F127	F	0.604594	1.014959	-0.121577
F128	F	1.248409	0.698291	-0.522321
H129	H	0.418178	1.173895	-0.106895
F130	F	1.406084	0.381605	-0.121538
