data_functionalizedCrystal
_audit_creation_method	'MofGen! by Chris Wilmer'
_symmetry_space_group_name_H-M	'P1'
_symmetry_Int_Tables_number	1
_symmetry_cell_setting	triclinic
loop_
_symmetry_equiv_pos_as_xyz
  x,y,z
_cell_length_a	10.723024
_cell_length_b	12.996460
_cell_length_c	10.723024
_cell_angle_alpha	89.995038
_cell_angle_beta	95.532131
_cell_angle_gamma	90.005265
loop_
_atom_site_label
_atom_site_type_symbol
_atom_site_fract_x
_atom_site_fract_y
_atom_site_fract_z
O1	O	1.657190	0.085557	-0.175030
O2	O	1.294038	0.085561	-0.191783
O3	O	1.483991	0.085555	-0.001830
O4	O	1.467237	0.085563	-0.364982
O5	O	1.483971	-0.085579	-0.001819
O6	O	1.294018	-0.085573	-0.191772
O7	O	1.657170	-0.085576	-0.175019
Cu8	Cu	1.475592	-0.101201	-0.183395
Cu9	Cu	1.475616	0.101185	-0.183407
O10	O	1.467217	-0.085571	-0.364972
C11	C	1.247528	-0.000006	-0.190558
C12	C	1.108974	-0.000005	-0.186911
C13	C	1.033991	-0.000002	-0.293198
C14	C	0.890788	-0.000000	-0.289431
N15	N	1.475585	-0.243548	-0.183385
C16	C	1.475614	-0.663362	-0.183408
C17	C	1.475602	-0.546557	-0.183406
C18	C	1.475600	-0.453459	-0.183398
C19	C	1.475587	-0.336646	-0.183393
C20	C	1.703680	-0.000008	-0.176243
C21	C	1.842234	-0.000002	-0.179891
C22	C	1.482762	-0.000011	0.044675
C23	C	1.479114	-0.000007	0.183229
N24	N	1.475633	0.243532	-0.183407
C25	C	1.468447	-0.000003	-0.411477
C26	C	1.472094	0.000000	-0.550031
C27	C	1.585401	-0.000006	0.258212
C28	C	1.581634	-0.000003	0.401415
H29	H	1.075814	-0.000006	-0.386984
C30	C	1.352407	-0.000004	0.239713
C31	C	1.318924	-0.088866	0.325455
C32	C	1.192212	-0.088863	0.381935
C33	C	1.098984	0.000003	0.352673
C34	C	1.132465	0.088872	0.266927
C35	C	1.259176	0.088869	0.210448
H36	H	1.387939	-0.154656	0.347120
H37	H	1.167428	-0.154650	0.445409
H38	H	1.005185	0.000005	0.394483
H39	H	1.063449	0.154661	0.245262
H40	H	1.283960	0.154656	0.146973
H41	H	0.906659	0.000002	-0.088896
C42	C	1.052490	-0.000007	-0.060204
C43	C	1.081729	-0.088874	0.033041
C44	C	1.025249	-0.088876	0.159753
C45	C	0.939530	-0.000011	0.193219
C46	C	0.910287	0.088863	0.099972
C47	C	0.966766	0.088865	-0.026739
H48	H	1.145187	-0.154663	0.008269
H49	H	1.046898	-0.154667	0.228780
H50	H	0.897720	-0.000012	0.287019
H51	H	0.846828	0.154652	0.124744
H52	H	0.945118	0.154656	-0.095766
H53	H	0.826355	0.000006	-0.380421
H54	H	1.679187	-0.000014	0.216390
H55	H	1.672624	-0.000007	0.465848
H56	H	1.381099	-0.000007	0.385544
