data_functionalizedCrystal
_audit_creation_method	'MofGen! by Chris Wilmer'
_symmetry_space_group_name_H-M	'P1'
_symmetry_Int_Tables_number	1
_symmetry_cell_setting	triclinic
loop_
_symmetry_equiv_pos_as_xyz
  x,y,z
_cell_length_a	16.625547
_cell_length_b	18.101395
_cell_length_c	16.625539
_cell_angle_alpha	90.027648
_cell_angle_beta	90.024822
_cell_angle_gamma	90.031041
loop_
_atom_site_label
_atom_site_type_symbol
_atom_site_fract_x
_atom_site_fract_y
_atom_site_fract_z
Zn1	Zn	1.232632	-0.294829	0.456005
Zn2	Zn	1.732632	0.205171	0.956005
Zn3	Zn	1.232515	-0.418679	0.321173
Zn4	Zn	1.732515	0.081321	0.821173
Zn5	Zn	1.097794	-0.294855	0.321175
Zn6	Zn	1.597794	0.205145	0.821175
Zn7	Zn	1.097744	-0.418634	0.455953
Zn8	Zn	1.597744	0.081366	0.955953
O9	O	1.165171	-0.356749	0.388576
O10	O	1.665171	0.143251	0.888576
O11	O	1.345449	-0.311266	0.438140
O12	O	1.845449	0.188734	0.938140
O13	O	1.214616	-0.402283	0.208341
O14	O	1.714616	0.097717	0.708341
O15	O	1.115750	-0.191219	0.339083
O16	O	1.615750	0.308781	0.839083
O17	O	1.345363	-0.402258	0.339080
O18	O	1.845363	0.097742	0.839080
O19	O	1.214815	-0.191200	0.438141
O20	O	1.714815	0.308800	0.938141
O21	O	1.115637	-0.311310	0.208342
O22	O	1.615637	0.188690	0.708342
O23	O	0.984955	-0.311267	0.339033
O24	O	1.484955	0.188733	0.839033
O25	O	1.115665	-0.402181	0.568792
O26	O	1.615665	0.097819	1.068792
O27	O	0.984918	-0.402206	0.438054
O28	O	1.484918	0.097794	0.938054
O29	O	1.214767	-0.311223	0.568830
O30	O	1.714767	0.188777	1.068830
O31	O	1.214567	-0.522305	0.339030
O32	O	1.714567	-0.022305	0.839030
O33	O	1.115552	-0.522272	0.438052
O34	O	1.615552	-0.022272	0.938052
C35	C	0.955680	-0.356735	0.388538
C36	C	1.455680	0.143265	0.888538
C37	C	0.866059	-0.356747	0.388541
C38	C	1.366059	0.143253	0.888541
C39	C	0.793277	-0.356748	0.388551
C40	C	1.293277	0.143252	0.888551
C41	C	0.701968	-0.356752	0.388571
C42	C	1.201968	0.143248	0.888571
C43	C	0.629192	-0.356759	0.388592
C44	C	1.129192	0.143241	0.888592
C45	C	0.537878	-0.356764	0.388611
C46	C	1.037878	0.143236	0.888611
C47	C	1.165063	-0.549160	0.388553
C48	C	1.665063	-0.049160	0.888553
C49	C	1.165091	-0.631474	0.388570
C50	C	1.665091	-0.131474	0.888570
C51	C	1.165268	-0.930565	0.388613
C52	C	1.665268	-0.430565	0.888613
C53	C	1.103114	-0.899250	0.451070
C54	C	1.603114	-0.399250	0.951070
C55	C	1.102819	-0.813632	0.450874
C56	C	1.602819	-0.313632	0.950874
C57	C	1.165180	-0.782182	0.388592
C58	C	1.665180	-0.282182	0.888592
C59	C	1.142173	-0.813334	0.303613
C60	C	1.642173	-0.313334	0.803613
C61	C	1.141772	-0.898979	0.303986
C62	C	1.641772	-0.398979	0.803986
C63	C	1.250565	-0.898908	0.410388
C64	C	1.750565	-0.398908	0.910388
C65	C	1.250063	-0.813257	0.412252
C66	C	1.750063	-0.313257	0.912252
C67	C	1.165132	-0.698323	0.388575
C68	C	1.665132	-0.198323	0.888575
C69	C	1.165314	-1.014424	0.388624
C70	C	1.665314	-0.514424	0.888624
C71	C	1.375480	-0.356764	0.388615
C72	C	1.875480	0.143236	0.888615
C73	C	1.465101	-0.356771	0.388632
C74	C	1.965101	0.143229	0.888632
C75	C	1.165224	-0.356694	0.598885
C76	C	1.665224	0.143306	1.098885
C77	C	1.165246	-0.356671	0.688507
C78	C	1.665246	0.143329	1.188507
C79	C	1.165302	-0.163587	0.388618
C80	C	1.665302	0.336413	0.888618
C81	C	1.165357	-0.081273	0.388636
C82	C	1.665357	0.418727	0.888636
C83	C	1.165165	-0.356751	0.179086
C84	C	1.665165	0.143249	0.679086
C85	C	1.165299	-0.356566	0.089465
C86	C	1.665299	0.143434	0.589465
C87	C	1.165283	-0.356588	1.016683
C88	C	1.665283	0.143412	1.516683
C89	C	1.165271	-0.356613	0.925374
C90	C	1.665271	0.143387	1.425374
C91	C	1.165265	-0.356630	0.852597
C92	C	1.665265	0.143370	1.352597
C93	C	1.165252	-0.356654	0.761283
C94	C	1.665252	0.143346	1.261283
H95	H	1.117214	-0.792567	0.513886
H96	H	1.617214	-0.292567	1.013886
C97	C	1.201399	-0.785815	0.239026
C98	C	1.701399	-0.285815	0.739026
C99	C	1.210978	-0.702408	0.223527
C100	C	1.710978	-0.202408	0.723527
C101	C	1.270205	-0.674888	0.158942
C102	C	1.770205	-0.174888	0.658942
C103	C	1.319853	-0.730775	0.109857
C104	C	1.819853	-0.230775	0.609857
C105	C	1.310274	-0.814188	0.125355
C106	C	1.810274	-0.314188	0.625355
C107	C	1.251047	-0.841708	0.189939
C108	C	1.751047	-0.341708	0.689939
H109	H	1.174225	-0.661032	0.259864
H110	H	1.674225	-0.161032	0.759864
H111	H	1.277295	-0.613140	0.147470
H112	H	1.777295	-0.113140	0.647470
H113	H	1.363696	-0.710403	0.062047
H114	H	1.863696	-0.210403	0.562047
H115	H	1.347028	-0.855564	0.089018
H116	H	1.847028	-0.355564	0.589018
H117	H	1.243957	-0.903456	0.201412
H118	H	1.743957	-0.403456	0.701412
C119	C	1.018220	-0.928410	0.431837
C120	C	1.518220	-0.428410	0.931837
C121	C	1.005142	-0.980481	0.359729
C122	C	1.505142	-0.480481	0.859729
C123	C	0.920249	-1.009645	0.340495
C124	C	1.420249	-0.509645	0.840495
C125	C	0.848433	-0.986736	0.393370
C126	C	1.348433	-0.486736	0.893370
C127	C	0.861509	-0.934662	0.465483
C128	C	1.361509	-0.434662	0.965483
C129	C	0.946402	-0.905498	0.484716
C130	C	1.446402	-0.405498	0.984716
H131	H	1.058306	-0.997442	0.320584
H132	H	1.558306	-0.497442	0.820584
H133	H	0.910570	-1.048194	0.287112
H134	H	1.410570	-0.548194	0.787112
H135	H	0.785591	-1.008325	0.379132
H136	H	1.285591	-0.508325	0.879132
H137	H	0.808345	-0.917701	0.504628
H138	H	1.308345	-0.417701	1.004628
H139	H	0.956081	-0.866949	0.538099
H140	H	1.456081	-0.366949	1.038099
C141	C	1.315956	-0.784367	0.355283
C142	C	1.815956	-0.284367	0.855283
C143	C	1.366323	-0.839109	0.305408
C144	C	1.866323	-0.339109	0.805408
C145	C	1.432223	-0.810234	0.248433
C146	C	1.932223	-0.310234	0.748433
C147	C	1.447756	-0.726616	0.241334
C148	C	1.947756	-0.226616	0.741334
C149	C	1.397388	-0.671868	0.291210
C150	C	1.897388	-0.171868	0.791210
C151	C	1.331488	-0.700743	0.348185
C152	C	1.831488	-0.200743	0.848185
H153	H	1.354825	-0.901013	0.310662
H154	H	1.854825	-0.401013	0.810662
H155	H	1.469509	-0.850762	0.211512
H156	H	1.969509	-0.350762	0.711512
H157	H	1.496540	-0.705241	0.199158
H158	H	1.996540	-0.205241	0.699158
H159	H	1.408886	-0.609964	0.285956
H160	H	1.908886	-0.109964	0.785956
H161	H	1.294202	-0.660215	0.385107
H162	H	1.794202	-0.160215	0.885107
H163	H	1.185078	-0.919697	0.255864
H164	H	1.685078	-0.419697	0.755864
C165	C	1.273508	-0.785751	0.496739
C166	C	1.773508	-0.285751	0.996739
C167	C	1.354583	-0.808684	0.533919
C168	C	1.854583	-0.308684	1.033919
C169	C	1.378023	-0.781177	0.618409
C170	C	1.878023	-0.281177	1.118409
C171	C	1.320389	-0.730736	0.665719
C172	C	1.820389	-0.230736	1.165719
C173	C	1.239310	-0.707799	0.628540
C174	C	1.739310	-0.207799	1.128540
C175	C	1.215869	-0.735307	0.544050
C176	C	1.715869	-0.235307	1.044050
H177	H	1.397251	-0.846026	0.498896
H178	H	1.897251	-0.346026	0.998896
H179	H	1.438044	-0.798156	0.645931
H180	H	1.938044	-0.298156	1.145931
H181	H	1.337742	-0.710373	0.728263
H182	H	1.837742	-0.210373	1.228263
H183	H	1.196641	-0.670457	0.663562
H184	H	1.696641	-0.170457	1.163562
H185	H	1.155849	-0.718328	0.516528
H186	H	1.655849	-0.218328	1.016528
C187	C	1.058828	-0.784456	0.278246
C188	C	1.558828	-0.284456	0.778246
C189	C	1.011577	-0.732650	0.334486
C190	C	1.511577	-0.232650	0.834486
C191	C	0.928230	-0.703774	0.309124
C192	C	1.428230	-0.203774	0.809124
C193	C	0.892135	-0.726704	0.227524
C194	C	1.392135	-0.226704	0.727524
C195	C	0.939388	-0.778513	0.171279
C196	C	1.439388	-0.278513	0.671279
C197	C	1.022734	-0.807389	0.196640
C198	C	1.522734	-0.307389	0.696640
H199	H	1.038296	-0.715673	0.394896
H200	H	1.538296	-0.215673	0.894896
H201	H	0.893251	-0.665421	0.350761
H202	H	1.393251	-0.165421	0.850761
H203	H	0.830437	-0.705328	0.208750
H204	H	1.330437	-0.205328	0.708750
H205	H	0.912669	-0.795490	0.110869
H206	H	1.412669	-0.295490	0.610869
H207	H	1.057713	-0.845742	0.155004
H208	H	1.557713	-0.345742	0.655004
H209	H	1.271540	-0.920456	0.471299
H210	H	1.771540	-0.420456	0.971299
C211	C	1.313127	-0.926267	0.348942
C212	C	1.813127	-0.426267	0.848942
C213	C	1.401809	-0.902822	0.357087
C214	C	1.901809	-0.402822	0.857087
C215	C	1.464364	-0.930185	0.295640
C216	C	1.964364	-0.430185	0.795640
C217	C	1.438235	-0.980995	0.226047
C218	C	1.938235	-0.480995	0.726047
C219	C	1.349548	-1.004443	0.217899
C220	C	1.849548	-0.504443	0.717899
C221	C	1.286994	-0.977079	0.279346
C222	C	1.786994	-0.477079	0.779346
H223	H	1.421155	-0.865207	0.408607
H224	H	1.921155	-0.365207	0.908607
H225	H	1.530016	-0.912827	0.301672
H226	H	2.030016	-0.412827	0.801672
H227	H	1.484542	-1.001251	0.180560
H228	H	1.984542	-0.501251	0.680560
H229	H	1.330203	-1.042058	0.166379
H230	H	1.830203	-0.542058	0.666379
H231	H	1.221342	-0.994438	0.273314
H232	H	1.721342	-0.494438	0.773314
C233	C	1.122365	-0.927000	0.536475
C234	C	1.622365	-0.427000	1.036475
C235	C	1.194756	-0.978438	0.550554
C236	C	1.694756	-0.478438	1.050554
C237	C	1.214011	-1.006190	0.635962
C238	C	1.714011	-0.506190	1.135962
C239	C	1.160875	-0.982504	0.707292
C240	C	1.660875	-0.482504	1.207292
C241	C	1.088480	-0.931064	0.693215
C242	C	1.588480	-0.431064	1.193215
C243	C	1.069225	-0.903312	0.607807
C244	C	1.569225	-0.403312	1.107807
H245	H	1.234094	-0.995974	0.497749
H246	H	1.734094	-0.495974	0.997749
H247	H	1.267603	-1.044270	0.646382
H248	H	1.767603	-0.544270	1.146382
H249	H	1.175129	-1.003048	0.770516
H250	H	1.675129	-0.503048	1.270516
H251	H	1.049142	-0.913528	0.746020
H252	H	1.549142	-0.413528	1.246020
H253	H	1.015633	-0.865232	0.597387
H254	H	1.515633	-0.365232	1.097387
H255	H	1.079421	-0.919022	0.285542
H256	H	1.579421	-0.419022	0.785542
C257	C	1.017409	-0.786036	0.431383
C258	C	1.517409	-0.286036	0.931383
C259	C	0.977383	-0.807190	0.351057
C260	C	1.477383	-0.307190	0.851057
C261	C	0.891969	-0.779597	0.331562
C262	C	1.391969	-0.279597	0.831562
C263	C	0.846582	-0.730849	0.392393
C264	C	1.346582	-0.230849	0.892393
C265	C	0.886608	-0.709692	0.472724
C266	C	1.386608	-0.209692	0.972724
C267	C	0.972022	-0.737286	0.492219
C268	C	1.472022	-0.237286	0.992219
H269	H	1.010982	-0.843279	0.306021
H270	H	1.510982	-0.343279	0.806021
H271	H	0.862339	-0.795259	0.272095
H272	H	1.362339	-0.295259	0.772095
H273	H	0.783354	-0.710423	0.377962
H274	H	1.283354	-0.210423	0.877962
H275	H	0.853010	-0.673604	0.517760
H276	H	1.353010	-0.173604	1.017760
H277	H	1.001652	-0.721624	0.551686
H278	H	1.501652	-0.221624	1.051686
