data_functionalizedCrystal
_audit_creation_method	'MofGen! by Chris Wilmer'
_symmetry_space_group_name_H-M	'P1'
_symmetry_Int_Tables_number	1
_symmetry_cell_setting	triclinic
loop_
_symmetry_equiv_pos_as_xyz
  x,y,z
_cell_length_a	11.792241
_cell_length_b	12.811439
_cell_length_c	11.892095
_cell_angle_alpha	99.337459
_cell_angle_beta	93.917705
_cell_angle_gamma	95.882697
loop_
_atom_site_label
_atom_site_type_symbol
_atom_site_fract_x
_atom_site_fract_y
_atom_site_fract_z
O1	O	0.149065	-1.397031	-0.049198
O2	O	0.649065	-0.897031	0.450802
O3	O	0.168116	-1.089300	-0.017652
O4	O	0.668116	-0.589300	0.482348
O5	O	-0.006654	-1.250634	-0.034198
O6	O	0.493346	-0.750634	0.465802
O7	O	0.323835	-1.235697	-0.032651
O8	O	0.823835	-0.735697	0.467349
O9	O	-0.021193	-1.264096	-0.223586
O10	O	0.478807	-0.764096	0.276414
O11	O	0.153577	-1.102762	-0.207040
O12	O	0.653577	-0.602762	0.292960
O13	O	0.134526	-1.410493	-0.238586
O14	O	0.634526	-0.910493	0.261414
Zn15	Zn	0.141743	-1.258765	-0.252882
Zn16	Zn	0.641743	-0.758765	0.247118
Zn17	Zn	0.160899	-1.241028	-0.003355
Zn18	Zn	0.660899	-0.741028	0.496645
O19	O	0.309296	-1.249159	-0.222039
O20	O	0.809296	-0.749159	0.277961
C21	C	0.160226	-1.056635	-0.108307
C22	C	0.660226	-0.556635	0.391693
C23	C	0.158363	-0.939246	-0.096274
C24	C	0.658363	-0.439246	0.403726
C25	C	0.138989	-0.733338	-0.280155
C26	C	0.638989	-0.233338	0.219845
C27	C	0.137238	-0.623041	-0.268854
C28	C	0.637238	-0.123041	0.231146
C29	C	0.153101	-0.608354	-0.062372
C30	C	0.653101	-0.108354	0.437628
C31	C	0.154853	-0.718651	-0.073673
C32	C	0.654853	-0.218651	0.426327
C33	C	0.147798	-0.781139	-0.182568
C34	C	0.647798	-0.281139	0.317432
C35	C	0.149557	-0.891437	-0.193868
C36	C	0.649557	-0.391437	0.306132
C37	C	0.165413	-0.876749	0.012613
C38	C	0.665413	-0.376749	0.512613
C39	C	0.163661	-0.766452	0.023914
C40	C	0.663661	-0.266452	0.523914
C41	C	-0.056205	-1.256427	-0.128796
C42	C	0.443795	-0.756427	0.371204
C43	C	-0.182191	-1.253619	-0.128507
C44	C	0.317809	-0.753619	0.371493
C45	C	-0.412851	-1.248454	-0.127959
C46	C	0.087149	-0.748454	0.372041
C47	C	-0.284495	-1.251323	-0.128263
C48	C	0.215505	-0.751323	0.371737
C49	C	0.358847	-1.243366	-0.127439
C50	C	0.858847	-0.743366	0.372561
C51	C	0.484834	-1.246174	-0.127721
C52	C	0.984834	-0.746174	0.372279
C53	C	0.142420	-0.443158	-0.147931
C54	C	0.642420	0.056842	0.352069
C55	C	0.144295	-0.560546	-0.159966
C56	C	0.644295	-0.060546	0.340034
N57	N	0.173964	-1.228925	0.166940
N58	N	0.673964	-0.728925	0.666940
N59	N	0.128669	-1.270877	-0.423179
N60	N	0.628669	-0.770877	0.076821
C61	C	0.037754	-1.355161	0.390641
C62	C	0.537754	-0.855161	0.890641
C63	C	0.046879	-1.346693	0.509851
C64	C	0.546879	-0.846693	1.009851
C65	C	0.201342	-1.203526	0.524573
C66	C	0.701342	-0.703526	1.024573
C67	C	0.192218	-1.211994	0.405362
C68	C	0.692218	-0.711994	0.905362
C69	C	0.110420	-1.287813	0.338401
C70	C	0.610420	-0.787813	0.838401
C71	C	0.101291	-1.296275	0.219189
C72	C	0.601291	-0.796275	0.719189
C73	C	0.255759	-1.153114	0.233912
C74	C	0.755759	-0.653114	0.733912
C75	C	0.264884	-1.144646	0.353122
C76	C	0.764884	-0.644646	0.853122
H77	H	0.143819	-0.942313	-0.282536
H78	H	0.643819	-0.442313	0.217464
C79	C	0.011320	-1.379670	0.145527
C80	C	0.511320	-0.879670	0.645527
H81	H	0.016283	-1.375063	0.067047
H82	H	0.516283	-0.875063	0.567047
H83	H	0.025112	-1.448877	0.157828
H84	H	0.525112	-0.948877	0.657828
H85	H	-0.062948	-1.366505	0.166253
H86	H	0.437052	-0.866505	0.666253
C87	C	0.131207	-0.802080	-0.399931
C88	C	0.631207	-0.302080	0.100069
H89	H	0.125698	-0.757815	-0.456434
H90	H	0.625698	-0.257815	0.043566
H91	H	0.197718	-0.837742	-0.407859
H92	H	0.697718	-0.337742	0.092141
H93	H	0.065375	-0.853084	-0.409401
H94	H	0.565375	-0.353084	0.090599
C95	C	0.127732	-0.570437	-0.376194
C96	C	0.627732	-0.070437	0.123806
H97	H	0.127745	-0.495793	-0.353870
H98	H	0.627745	0.004207	0.146130
H99	H	0.190991	-0.583895	-0.419570
H100	H	0.690991	-0.083895	0.080430
H101	H	0.058627	-0.599154	-0.421357
H102	H	0.558627	-0.099154	0.078643
H103	H	-0.028856	-1.416889	0.336120
H104	H	0.471144	-0.916889	0.836120
C105	C	0.335696	-1.079029	0.176445
C106	C	0.835696	-0.579029	0.676445
H107	H	0.318553	-1.094932	0.095857
H108	H	0.818553	-0.594932	0.595857
H109	H	0.324897	-1.007047	0.203221
H110	H	0.824897	-0.507047	0.703221
H111	H	0.412956	-1.089420	0.194792
H112	H	0.912956	-0.589420	0.694792
C113	C	-0.033041	-1.420783	0.567317
C114	C	0.466959	-0.920783	1.067317
H115	H	-0.015884	-1.404892	0.647904
H116	H	0.484116	-0.904892	1.147904
H117	H	-0.110302	-1.410414	0.548972
H118	H	0.389698	-0.910414	1.048972
H119	H	-0.022219	-1.492764	0.540538
H120	H	0.477781	-0.992764	1.040538
H121	H	0.158826	-0.557460	0.026285
H122	H	0.658826	-0.057460	0.526285
H123	H	0.172592	-0.915679	0.092076
H124	H	0.672592	-0.415679	0.592076
C125	C	0.171427	-0.697710	0.143689
C126	C	0.671427	-0.197710	0.643689
H127	H	0.169130	-0.625174	0.136445
H128	H	0.669130	-0.125174	0.636445
H129	H	0.108811	-0.720452	0.183477
H130	H	0.608811	-0.220452	0.683477
H131	H	0.241154	-0.705085	0.185034
H132	H	0.741154	-0.205085	0.685034
H133	H	0.267948	-1.141803	0.579108
H134	H	0.767948	-0.641803	1.079108
C135	C	0.354848	-1.061247	0.426786
C136	C	0.854848	-0.561247	0.926786
H137	H	0.349871	-1.065843	0.505266
H138	H	0.849871	-0.565843	1.005266
H139	H	0.429116	-1.074396	0.406064
H140	H	0.929116	-0.574396	0.906064
H141	H	0.341040	-0.992039	0.414483
H142	H	0.841040	-0.492039	0.914483
