data_functionalizedCrystal
_audit_creation_method	'MofGen! by Chris Wilmer'
_symmetry_space_group_name_H-M	'P1'
_symmetry_Int_Tables_number	1
_symmetry_cell_setting	triclinic
loop_
_symmetry_equiv_pos_as_xyz
  x,y,z
_cell_length_a	18.050589
_cell_length_b	13.033304
_cell_length_c	13.032268
_cell_angle_alpha	90.922231
_cell_angle_beta	97.149417
_cell_angle_gamma	82.803053
loop_
_atom_site_label
_atom_site_type_symbol
_atom_site_fract_x
_atom_site_fract_y
_atom_site_fract_z
Zn1	Zn	-0.231083	-1.498396	-0.781529
Zn2	Zn	0.268917	-0.998396	-0.281529
Zn3	Zn	-0.337810	-1.520111	-0.609560
Zn4	Zn	0.162190	-1.020111	-0.109560
Zn5	Zn	-0.227158	-1.348258	-0.587701
Zn6	Zn	0.272842	-0.848258	-0.087701
Zn7	Zn	-0.368766	-1.326354	-0.759595
Zn8	Zn	0.131234	-0.826354	-0.259595
O9	O	-0.291204	-1.423280	-0.684596
O10	O	0.208796	-0.923280	-0.184596
O11	O	-0.233928	-1.645198	-0.777045
O12	O	0.266072	-1.145198	-0.277045
O13	O	-0.308534	-1.515569	-0.462752
O14	O	0.191466	-1.015569	0.037248
O15	O	-0.123750	-1.368253	-0.613444
O16	O	0.376250	-0.868253	-0.113444
O17	O	-0.312340	-1.661151	-0.650699
O18	O	0.187660	-1.161151	-0.150699
O19	O	-0.126634	-1.478559	-0.755849
O20	O	0.373366	-0.978559	-0.255849
O21	O	-0.227239	-1.389309	-0.446692
O22	O	0.272761	-0.889309	0.053308
O23	O	-0.257256	-1.201431	-0.592175
O24	O	0.242744	-0.701431	-0.092175
O25	O	-0.365100	-1.330921	-0.906413
O26	O	0.134900	-0.830921	-0.406413
O27	O	-0.361294	-1.185338	-0.718465
O28	O	0.138706	-0.685338	-0.218465
O29	O	-0.263945	-1.457320	-0.922528
O30	O	0.236055	-0.957320	-0.422528
O31	O	-0.445845	-1.494329	-0.629430
O32	O	0.054155	-0.994329	-0.129430
O33	O	-0.468589	-1.351977	-0.739661
O34	O	0.031411	-0.851977	-0.239661
C35	C	-0.312209	-1.156067	-0.650569
C36	C	0.187791	-0.656067	-0.150569
C37	C	-0.321215	-1.041750	-0.636036
C38	C	0.178785	-0.541750	-0.136036
C39	C	-0.286514	-0.982877	-0.692167
C40	C	0.213486	-0.482877	-0.192167
C41	C	-0.295821	-0.864724	-0.677148
C42	C	0.204179	-0.364724	-0.177148
C43	C	-0.484165	-1.423158	-0.684563
C44	C	0.015835	-0.923158	-0.184563
C45	C	-0.566710	-1.423195	-0.684596
C46	C	-0.066710	-0.923195	-0.184596
C47	C	-0.778548	-1.345855	-0.744524
C48	C	-0.278548	-0.845855	-0.244524
C49	C	-0.820422	-1.332709	-0.647497
C50	C	-0.320422	-0.832709	-0.147497
C51	C	-0.717834	-1.423295	-0.684622
C52	C	-0.217834	-0.923295	-0.184622
C53	C	-0.823038	-1.436490	-0.781666
C54	C	-0.323038	-0.936490	-0.281666
C55	C	-0.863813	-1.423388	-0.684655
C56	C	-0.363813	-0.923388	-0.184655
C57	C	-0.758619	-1.410106	-0.587539
C58	C	-0.258619	-0.910106	-0.087539
C59	C	-0.761235	-1.513922	-0.721777
C60	C	-0.261235	-1.013922	-0.221777
C61	C	-0.803077	-1.500820	-0.624690
C62	C	-0.303077	-1.000820	-0.124690
C63	C	-0.633739	-1.423238	-0.684604
C64	C	-0.133739	-0.923238	-0.184604
C65	C	-0.947905	-1.423445	-0.684663
C66	C	-0.447905	-0.923445	-0.184663
C67	C	-0.097491	-1.423427	-0.684655
C68	C	0.402509	-0.923427	-0.184655
C69	C	-0.014942	-1.423490	-0.684680
C70	C	0.485058	-0.923490	-0.184680
C71	C	-0.318413	-1.389255	-0.952828
C72	C	0.181587	-0.889255	-0.452828
C73	C	-0.330008	-1.374756	-1.067132
C74	C	0.169992	-0.874756	-0.567132
C75	C	-0.270114	-0.691536	-0.718750
C76	C	0.229886	-0.191536	-0.218750
C77	C	-0.261115	-0.805853	-0.733287
C78	C	0.238885	-0.305853	-0.233287
C79	C	-0.285128	-1.430831	-1.126066
C80	C	0.214872	-0.930831	-0.626066
C81	C	-0.297110	-1.415847	-1.244205
C82	C	0.202890	-0.915847	-0.744205
C83	C	-0.264043	-1.457231	-0.417416
C84	C	0.235957	-0.957231	0.082584
C85	C	-0.252224	-1.471930	-0.303138
C86	C	0.247776	-0.971930	0.196862
H87	H	-0.249911	-1.019947	-0.751338
H88	H	0.250089	-0.519947	-0.251338
H89	H	-0.377298	-1.315648	-1.104138
H90	H	0.122702	-0.815648	-0.604138
H91	H	-0.332422	-0.827659	-0.617967
H92	H	0.167578	-0.327659	-0.117967
N93	N	-0.212636	-0.854938	-0.811684
N94	N	0.287364	-0.354938	-0.311684
H95	H	-0.190758	-0.799415	-0.847080
H96	H	0.309242	-0.299415	-0.347080
H97	H	-0.170494	-0.904821	-0.775534
H98	H	0.329506	-0.404821	-0.275534
H99	H	-0.767367	-1.280291	-0.795087
H100	H	-0.267367	-0.780291	-0.295087
N101	N	-0.222493	-1.509144	-1.077063
N102	N	0.277507	-1.009144	-0.577063
H103	H	-0.222819	-1.508760	-0.999616
H104	H	0.277181	-1.008760	-0.499616
H105	H	-0.230188	-1.580218	-1.105150
H106	H	0.269812	-1.080218	-0.605150
H107	H	-0.357813	-1.004681	-0.576859
H108	H	0.142187	-0.504681	-0.076859
H109	H	-0.204922	-1.531030	-1.266136
H110	H	0.295078	-1.031030	-0.766136
H111	H	-0.846276	-1.256111	-0.616097
H112	H	-0.346276	-0.756111	-0.116097
H113	H	-0.730665	-1.398892	-0.505449
H114	H	-0.230665	-0.898892	-0.005449
H115	H	-0.851087	-1.447614	-0.863722
H116	H	-0.351087	-0.947614	-0.363722
H117	H	-0.814109	-1.566357	-0.573981
H118	H	-0.314109	-1.066357	-0.073981
H119	H	-0.735388	-1.590496	-0.753220
H120	H	-0.235388	-1.090496	-0.253220
N121	N	-0.359754	-1.337537	-1.293204
N122	N	0.140246	-0.837537	-0.793204
H123	H	-0.359431	-1.337927	-1.370653
H124	H	0.140569	-0.837927	-0.870653
H125	H	-0.409656	-1.355851	-1.276510
H126	H	0.090344	-0.855851	-0.776510
