data_functionalizedCrystal
_audit_creation_method	'MofGen! by Chris Wilmer'
_symmetry_space_group_name_H-M	'P1'
_symmetry_Int_Tables_number	1
_symmetry_cell_setting	triclinic
loop_
_symmetry_equiv_pos_as_xyz
  x,y,z
_cell_length_a	14.044209
_cell_length_b	26.809956
_cell_length_c	14.044220
_cell_angle_alpha	90.005345
_cell_angle_beta	86.811585
_cell_angle_gamma	89.981697
loop_
_atom_site_label
_atom_site_type_symbol
_atom_site_fract_x
_atom_site_fract_y
_atom_site_fract_z
O1	O	-1.277195	0.041421	0.230158
O2	O	-0.777195	0.541421	0.730158
O3	O	-1.000524	0.041435	0.221855
O4	O	-0.500524	0.541435	0.721855
O5	O	-1.134707	0.041424	0.087671
O6	O	-0.634707	0.541424	0.587671
O7	O	-1.143012	0.041433	0.364342
O8	O	-0.643012	0.541433	0.864342
O9	O	-1.134640	-0.041536	0.087663
O10	O	-0.634640	0.458464	0.587663
O11	O	-1.000457	-0.041524	0.221847
O12	O	-0.500457	0.458476	0.721847
O13	O	-1.277128	-0.041538	0.230151
O14	O	-0.777128	0.458462	0.730151
Zn15	Zn	-1.138782	-0.054703	0.225998
Zn16	Zn	-0.638782	0.445297	0.725998
Zn17	Zn	-1.138870	0.054600	0.226008
Zn18	Zn	-0.638870	0.554600	0.726008
O19	O	-1.142946	-0.041526	0.364335
O20	O	-0.642946	0.458474	0.864335
C21	C	-0.964868	-0.000043	0.218216
C22	C	-0.464868	0.499957	0.718216
C23	C	-0.858726	-0.000037	0.207372
C24	C	-0.358726	0.499963	0.707372
C25	C	-0.664388	-0.000047	0.187547
C26	C	-0.164388	0.499953	0.687547
C27	C	-0.613258	-0.000046	0.264462
C28	C	-0.113258	0.499954	0.764462
C29	C	-0.505122	-0.000051	0.253431
C30	C	-0.005122	0.499949	0.753431
C31	C	-0.772534	-0.000041	0.198576
C32	C	-0.272534	0.499959	0.698576
N33	N	-1.138729	-0.129299	0.225991
N34	N	-0.638729	0.370701	0.725991
C35	C	-1.079386	-0.526177	0.285388
C36	C	-0.579386	-0.026177	0.785388
C37	C	-1.079336	-0.317299	0.285383
C38	C	-0.579336	0.182701	0.785383
O39	O	-1.028759	-0.290294	0.335864
O40	O	-0.528759	0.209706	0.835864
N41	N	-1.138762	-0.291177	0.225991
N42	N	-0.638762	0.208823	0.725991
C43	C	-1.198201	-0.317278	0.166590
C44	C	-0.698201	0.182722	0.666590
O45	O	-1.248738	-0.290267	0.116066
O46	O	-0.748738	0.209733	0.616066
C47	C	-1.198245	-0.526155	0.166590
C48	C	-0.698245	-0.026155	0.666590
C49	C	-1.138821	-0.552274	0.225994
C50	C	-0.638821	-0.052274	0.725994
C51	C	-1.019966	-0.552296	0.344786
C52	C	-0.519966	-0.052296	0.844786
C53	C	-1.019983	-0.604512	0.344790
C54	C	-0.519983	-0.104512	0.844790
C55	C	-1.079419	-0.630609	0.285396
C56	C	-0.579419	-0.130609	0.785396
C57	C	-1.138838	-0.604490	0.225998
C58	C	-0.638838	-0.104490	0.725998
C59	C	-1.257678	-0.552254	0.107185
C60	C	-0.757678	-0.052254	0.607185
C61	C	-1.257682	-0.604477	0.107189
C62	C	-0.757682	-0.104477	0.607189
C63	C	-1.198258	-0.630596	0.166592
C64	C	-0.698258	-0.130596	0.666592
C65	C	-1.198291	-0.682803	0.166608
C66	C	-0.698291	-0.182803	0.666608
N67	N	-1.138865	-0.708925	0.226001
N68	N	-0.638865	-0.208925	0.726001
C69	C	-1.079429	-0.682828	0.285395
C70	C	-0.579429	-0.182828	0.785395
C71	C	-1.198175	-0.207615	0.166596
C72	C	-0.698175	0.292385	0.666596
C73	C	-1.198165	-0.155396	0.166597
C74	C	-0.698165	0.344604	0.666597
C75	C	-1.079299	-0.155420	0.285389
C76	C	-0.579299	0.344580	0.785389
C77	C	-1.079314	-0.207640	0.285392
C78	C	-0.579314	0.292360	0.785392
C79	C	-1.138748	-0.233736	0.225988
C80	C	-0.638748	0.266264	0.725988
C81	C	-1.079469	-0.792486	0.285400
C82	C	-0.579469	-0.292486	0.785400
C83	C	-1.079494	-0.844707	0.285402
C84	C	-0.579494	-0.344707	0.785402
C85	C	-1.198356	-0.844678	0.166606
C86	C	-0.698356	-0.344678	0.666606
C87	C	-1.198336	-0.792461	0.166608
C88	C	-0.698336	-0.292461	0.666608
C89	C	-1.138884	-0.766367	0.226007
C90	C	-0.638884	-0.266367	0.726007
O91	O	-1.248834	-0.709841	0.116146
O92	O	-0.748834	-0.209841	0.616146
O93	O	-1.028883	-0.709848	0.335896
O94	O	-0.528883	-0.209848	0.835896
C95	C	-1.079369	-0.473960	0.285383
C96	C	-0.579369	0.026040	0.785383
C97	C	-1.138788	-0.447841	0.225985
C98	C	-0.638788	0.052159	0.725985
C99	C	-1.198224	-0.473938	0.166591
C100	C	-0.698224	0.026062	0.666591
C101	C	-1.138778	-0.395622	0.225986
C102	C	-0.638778	0.104378	0.725986
C103	C	-1.079342	-0.369525	0.285380
C104	C	-0.579342	0.130475	0.785380
C105	C	-1.019916	-0.395647	0.344773
C106	C	-0.519916	0.104353	0.844773
C107	C	-1.019933	-0.447863	0.344777
C108	C	-0.519933	0.052137	0.844777
C109	C	-1.257650	-0.447816	0.107199
C110	C	-0.757650	0.052184	0.607199
C111	C	-1.257629	-0.395600	0.107200
C112	C	-0.757629	0.104400	0.607200
C113	C	-1.198193	-0.369503	0.166594
C114	C	-0.698193	0.130497	0.666594
C115	C	-0.312784	-0.000058	0.233792
C116	C	0.187216	0.499942	0.733792
C117	C	-0.418926	-0.000055	0.244642
C118	C	0.081074	0.499945	0.744642
C119	C	-1.131038	-0.000056	0.052045
C120	C	-0.631038	0.499944	0.552045
C121	C	-1.120193	-0.000056	-0.054097
C122	C	-0.620193	0.499944	0.445903
N123	N	-1.138930	0.129196	0.226008
N124	N	-0.638930	0.629196	0.726008
C125	C	-1.100367	-0.000048	-0.248435
C126	C	-0.600367	0.499952	0.251565
C127	C	-1.177281	-0.000050	-0.299566
C128	C	-0.677281	0.499950	0.200434
C129	C	-1.166250	-0.000046	-0.407702
C130	C	-0.666250	0.499954	0.092298
C131	C	-1.111397	-0.000053	-0.140289
C132	C	-0.611397	0.499947	0.359711
C133	C	-1.146615	-0.000046	0.399960
C134	C	-0.646615	0.499954	0.899960
C135	C	-1.157459	-0.000042	0.506103
C136	C	-0.657459	0.499958	1.006103
H137	H	-0.650697	-0.000041	0.338595
H138	H	-0.150697	0.499959	0.838595
Cl139	Cl	-0.606588	-0.000051	0.073098
Cl140	Cl	-0.106588	0.499949	0.573098
Cl141	Cl	-0.985917	-0.000040	-0.306234
Cl142	Cl	-0.485917	0.499960	0.193766
H143	H	-1.031105	-0.865972	0.333779
H144	H	-0.531105	-0.365972	0.833779
Cl145	Cl	-1.004731	-0.759690	0.360077
Cl146	Cl	-0.504731	-0.259690	0.860077
Cl147	Cl	-1.272885	-0.122566	0.091929
Cl148	Cl	-0.772885	0.377434	0.591929
H149	H	-0.971593	-0.625775	0.393158
H150	H	-0.471593	-0.125775	0.893158
Cl151	Cl	-0.945224	-0.480692	0.419458
Cl152	Cl	-0.445224	0.019308	0.919458
Cl153	Cl	-1.273052	-0.759627	0.091937
Cl154	Cl	-0.773052	-0.259627	0.591937
Cl155	Cl	-0.945237	-0.519497	0.419462
Cl156	Cl	-0.445237	-0.019497	0.919462
Cl157	Cl	-1.004605	-0.240470	0.360072
Cl158	Cl	-0.504605	0.259530	0.860072
Cl159	Cl	-1.291739	-0.000062	-0.241768
Cl160	Cl	-0.791739	0.499938	0.258232
H161	H	-1.030905	-0.134163	0.333751
H162	H	-0.530905	0.365837	0.833751
H163	H	-1.246576	-0.228859	0.118221
H164	H	-0.746576	0.271141	0.618221
H165	H	-1.306065	-0.530995	0.058813
H166	H	-0.806065	-0.030995	0.558813
H167	H	-1.306079	-0.625722	0.058812
H168	H	-0.806079	-0.125722	0.558812
Cl169	Cl	-1.273074	-0.877494	0.091943
Cl170	Cl	-0.773074	-0.377494	0.591943
Cl171	Cl	-0.945200	-0.362829	0.419442
Cl172	Cl	-0.445200	0.137171	0.919442
H173	H	-1.306027	-0.374337	0.058829
H174	H	-0.806027	0.125663	0.558829
H175	H	-1.306049	-0.469061	0.058832
H176	H	-0.806049	0.030939	0.558832
