data_functionalizedCrystal
_audit_creation_method	'MofGen! by Chris Wilmer'
_symmetry_space_group_name_H-M	'P1'
_symmetry_Int_Tables_number	1
_symmetry_cell_setting	triclinic
loop_
_symmetry_equiv_pos_as_xyz
  x,y,z
_cell_length_a	17.077404
_cell_length_b	13.032721
_cell_length_c	13.034356
_cell_angle_alpha	90.866507
_cell_angle_beta	82.797046
_cell_angle_gamma	97.204757
loop_
_atom_site_label
_atom_site_type_symbol
_atom_site_fract_x
_atom_site_fract_y
_atom_site_fract_z
Zn1	Zn	1.228543	-0.335513	-0.633497
Zn2	Zn	1.728543	0.164487	-0.133497
Zn3	Zn	1.195625	-0.529363	-0.483355
Zn4	Zn	1.695625	-0.029363	0.016645
Zn5	Zn	1.078767	-0.357407	-0.461539
Zn6	Zn	1.578767	0.142593	0.038461
Zn7	Zn	1.082923	-0.507449	-0.655272
Zn8	Zn	1.582923	-0.007449	-0.155272
O9	O	1.146464	-0.432433	-0.558416
O10	O	1.646464	0.067567	-0.058416
O11	O	1.334024	-0.361236	-0.613597
O12	O	1.834024	0.138764	-0.113597
O13	O	1.164608	-0.524887	-0.336548
O14	O	1.664608	-0.024887	0.163452
O15	O	1.110672	-0.210583	-0.466106
O16	O	1.610672	0.289417	0.033894
O17	O	1.309839	-0.503657	-0.503289
O18	O	1.809839	-0.003657	-0.003289
O19	O	1.220712	-0.194497	-0.592443
O20	O	1.720712	0.305503	-0.092443
O21	O	1.078753	-0.398551	-0.320520
O22	O	1.578753	0.101449	0.179480
O23	O	0.969471	-0.377302	-0.487221
O24	O	1.469471	0.122698	0.012779
O25	O	1.117755	-0.466308	-0.796296
O26	O	1.617755	0.033692	-0.296296
O27	O	0.972524	-0.487537	-0.629556
O28	O	1.472524	0.012463	-0.129556
O29	O	1.224741	-0.339987	-0.780298
O30	O	1.724741	0.160013	-0.280298
O31	O	1.168638	-0.670377	-0.524403
O32	O	1.668638	-0.170377	-0.024403
O33	O	1.085836	-0.654277	-0.650710
O34	O	1.585836	-0.154277	-0.150710
C35	C	0.942515	-0.432418	-0.558385
C36	C	1.442515	0.067582	-0.058385
C37	C	0.855265	-0.432433	-0.558399
C38	C	1.355265	0.067567	-0.058399
C39	C	0.815866	-0.489946	-0.632420
C40	C	1.315866	0.010054	-0.132420
C41	C	0.733887	-0.489946	-0.632437
C42	C	1.233887	0.010054	-0.132437
C43	C	0.691308	-0.432439	-0.558427
C44	C	1.191308	0.067561	-0.058427
C45	C	0.730713	-0.374920	-0.484403
C46	C	1.230713	0.125080	0.015597
C47	C	0.812692	-0.374914	-0.484391
C48	C	1.312692	0.125086	0.015609
C49	C	0.559844	-0.374937	-0.484430
C50	C	1.059844	0.125063	0.015570
C51	C	0.477860	-0.374943	-0.484440
C52	C	0.977860	0.125057	0.015560
C53	C	0.481039	-0.489968	-0.632476
C54	C	0.981039	0.010032	-0.132476
C55	C	0.563018	-0.489963	-0.632464
C56	C	1.063018	0.010037	-0.132464
C57	C	0.602417	-0.432445	-0.558438
C58	C	1.102417	0.067555	-0.058438
C59	C	1.124140	-0.699641	-0.592310
C60	C	1.624140	-0.199641	-0.092310
C61	C	1.114665	-0.813949	-0.606844
C62	C	1.614665	-0.313949	-0.106844
C63	C	1.151456	-0.872836	-0.550876
C64	C	1.651456	-0.372836	-0.050876
C65	C	1.141664	-0.990980	-0.565897
C66	C	1.641664	-0.490980	-0.065897
C67	C	1.351210	-0.432449	-0.558447
C68	C	1.851210	0.067551	-0.058447
C69	C	1.438461	-0.432456	-0.558461
C70	C	1.938461	0.067544	-0.058461
C71	C	1.175383	-0.398261	-0.826655
C72	C	1.675383	0.101739	-0.326655
C73	C	1.187707	-0.383699	-0.940963
C74	C	1.687707	0.116301	-0.440963
C75	C	1.168900	-0.164180	-0.524412
C76	C	1.668900	0.335820	-0.024412
C77	C	1.178461	-0.049866	-0.509922
C78	C	1.678461	0.450134	-0.009922
C79	C	1.153001	-0.424663	-1.117985
C80	C	1.653001	0.075337	-0.617985
C81	C	1.140262	-0.439714	-0.999842
C82	C	1.640262	0.060286	-0.499842
C83	C	1.117709	-0.466398	-0.291210
C84	C	1.617709	0.033602	0.208790
C85	C	1.105562	-0.480671	-0.176866
C86	C	1.605562	0.019329	0.323134
H87	H	0.701812	-0.536779	-0.692711
H88	H	1.201812	-0.036779	-0.192711
H89	H	1.090216	-0.498815	-0.962792
H90	H	1.590216	0.001185	-0.462792
H91	H	0.597682	-0.536797	-0.692724
H92	H	1.097682	-0.036797	-0.192724
H93	H	1.237758	-0.324604	-0.978013
H94	H	1.737758	0.175396	-0.478013
C95	C	1.230791	-0.999836	-0.430141
C96	C	1.730791	-0.499836	0.069859
H97	H	1.230497	-0.926995	-0.430495
H98	H	1.730497	-0.426995	0.069505
H99	H	1.283718	-1.015393	-0.447438
H100	H	1.783718	-0.515393	0.052562
H101	H	1.210424	-1.026245	-0.363255
H102	H	1.710424	-0.526245	0.136745
H103	H	0.591923	-0.328089	-0.424158
H104	H	1.091923	0.171911	0.075842
H105	H	1.203049	-0.365574	-1.155041
H106	H	1.703049	0.134426	-0.655041
H107	H	1.075920	-0.850997	-0.665884
H108	H	1.575920	-0.350997	-0.165884
C109	C	0.683883	-0.311659	-0.402993
C110	C	1.183883	0.188341	0.097007
H111	H	0.719093	-0.277398	-0.358914
H112	H	1.219093	0.222602	0.141086
H113	H	0.643778	-0.356647	-0.363104
H114	H	1.143778	0.143353	0.136896
H115	H	0.659898	-0.261887	-0.436742
H116	H	1.159898	0.238113	0.063258
H117	H	1.102917	-1.028024	-0.624941
H118	H	1.602917	-0.528024	-0.124941
H119	H	0.448957	-0.536798	-0.692753
H120	H	0.948957	-0.036798	-0.192753
H121	H	0.844771	-0.328076	-0.424121
H122	H	1.344771	0.171924	0.075879
C123	C	0.431026	-0.311676	-0.403040
C124	C	0.931026	0.188324	0.096960
H125	H	0.466233	-0.277407	-0.358962
H126	H	0.966233	0.222593	0.141038
H127	H	0.390920	-0.356660	-0.363148
H128	H	0.890920	0.143340	0.136852
H129	H	0.407043	-0.261911	-0.436800
H130	H	0.907043	0.238089	0.063200
C131	C	1.037963	-0.560518	-1.126825
C132	C	1.537963	-0.060518	-0.626825
H133	H	1.009859	-0.593715	-1.179088
H134	H	1.509859	-0.093715	-0.679088
H135	H	1.002560	-0.526491	-1.079918
H136	H	1.502560	-0.026491	-0.579918
H137	H	1.059775	-0.610631	-1.090614
H138	H	1.559775	-0.110631	-0.590614
C139	C	0.862698	-0.553210	-0.713824
C140	C	1.362698	-0.053210	-0.213824
H141	H	0.917163	-0.544982	-0.703211
H142	H	1.417163	-0.044982	-0.203211
H143	H	0.857976	-0.529468	-0.781055
H144	H	1.357976	-0.029468	-0.281055
H145	H	0.841851	-0.624223	-0.707411
H146	H	1.341851	-0.124223	-0.207411
C147	C	1.203803	-0.822796	-0.471123
C148	C	1.703803	-0.322796	0.028877
H149	H	1.203514	-0.749955	-0.471486
H150	H	1.703514	-0.249955	0.028514
H151	H	1.256726	-0.838362	-0.488443
H152	H	1.756726	-0.338362	0.011557
H153	H	1.183454	-0.849193	-0.404227
H154	H	1.683454	-0.349193	0.095773
