data_functionalizedCrystal
_audit_creation_method	'MofGen! by Chris Wilmer'
_symmetry_space_group_name_H-M	'P1'
_symmetry_Int_Tables_number	1
_symmetry_cell_setting	triclinic
loop_
_symmetry_equiv_pos_as_xyz
  x,y,z
_cell_length_a	10.685904
_cell_length_b	16.625545
_cell_length_c	16.625539
_cell_angle_alpha	90.023904
_cell_angle_beta	85.608338
_cell_angle_gamma	85.606116
loop_
_atom_site_label
_atom_site_type_symbol
_atom_site_fract_x
_atom_site_fract_y
_atom_site_fract_z
Zn1	Zn	1.929125	0.226561	-0.550542
Zn2	Zn	2.429125	0.726561	-0.050542
Zn3	Zn	1.928970	0.361408	-0.415708
Zn4	Zn	2.428970	0.861408	0.084292
Zn5	Zn	1.718109	0.236917	-0.405373
Zn6	Zn	2.218109	0.736917	0.094627
Zn7	Zn	1.718033	0.371691	-0.540152
Zn8	Zn	2.218033	0.871691	-0.040152
O9	O	1.823559	0.299144	-0.477944
O10	O	2.323559	0.799144	0.022056
O11	O	2.105693	0.235812	-0.541330
O12	O	2.605693	0.735812	-0.041330
O13	O	1.900966	0.344924	-0.301503
O14	O	2.400966	0.844924	0.198497
O15	O	1.746197	0.122706	-0.424653
O16	O	2.246197	0.622706	0.075347
O17	O	2.105579	0.334883	-0.442267
O18	O	2.605579	0.834883	0.057733
O19	O	1.901230	0.115098	-0.531308
O20	O	2.401230	0.615098	-0.031308
O21	O	1.746047	0.253461	-0.293910
O22	O	2.246047	0.753461	0.206090
O23	O	1.541511	0.263433	-0.414578
O24	O	2.041511	0.763433	0.085422
O25	O	1.746068	0.352409	-0.654364
O26	O	2.246068	0.852409	-0.154364
O27	O	1.541455	0.362451	-0.513599
O28	O	2.041455	0.862451	-0.013599
O29	O	1.901156	0.245783	-0.661998
O30	O	2.401156	0.745783	-0.161998
O31	O	1.900892	0.475609	-0.432192
O32	O	2.400892	0.975609	0.067808
O33	O	1.745918	0.483164	-0.523621
O34	O	2.245918	0.983164	-0.023621
C35	C	1.495696	0.315182	-0.461840
C36	C	1.995696	0.815182	0.038160
C37	C	1.355434	0.322062	-0.454970
C38	C	1.855434	0.822062	0.045030
C39	C	1.823414	0.508642	-0.477920
C40	C	2.323414	1.008642	0.022080
C41	C	1.823468	0.598261	-0.477942
C42	C	2.323468	1.098261	0.022058
C43	C	1.823514	0.671041	-0.477963
C44	C	2.323514	1.171041	0.022037
C45	C	1.823584	0.762346	-0.477988
C46	C	2.323584	1.262346	0.022012
C47	C	1.823647	0.835119	-0.478004
C48	C	2.323647	1.335119	0.021996
C49	C	1.823715	0.926430	-0.478028
C50	C	2.323715	1.426430	0.021972
C51	C	2.152704	0.283045	-0.494110
C52	C	2.652704	0.783045	0.005890
C53	C	2.292965	0.276184	-0.501000
C54	C	2.792965	0.776184	-0.001000
C55	C	1.823621	0.299088	-0.688256
C56	C	2.323621	0.799088	-0.188256
C57	C	1.823648	0.299064	-0.777878
C58	C	2.323648	0.799064	-0.277878
C59	C	1.823730	1.088827	-0.477997
C60	C	2.323730	1.588827	0.022003
C61	C	1.823778	0.999204	-0.478044
C62	C	2.323778	1.499204	0.021956
C63	C	1.823668	0.299045	-0.850662
C64	C	2.323668	0.799045	-0.350662
C65	C	1.823698	0.299014	-0.941971
C66	C	2.323698	0.799014	-0.441971
C67	C	1.823727	0.298984	-1.014749
C68	C	2.323727	0.798984	-0.514749
C69	C	1.823759	0.298953	-1.106065
C70	C	2.323759	0.798953	-0.606065
C71	C	1.823570	0.299139	-0.268453
C72	C	2.323570	0.799139	0.231547
C73	C	1.823789	0.298923	-0.178843
C74	C	2.323789	0.798923	0.321157
H75	H	1.346794	0.231638	-0.545661
H76	H	1.846794	0.731638	-0.045661
H77	H	1.301612	0.366600	-0.410306
H78	H	1.801612	0.866600	0.089694
