data_functionalizedCrystal
_audit_creation_method	'MofGen! by Chris Wilmer'
_symmetry_space_group_name_H-M	'P1'
_symmetry_Int_Tables_number	1
_symmetry_cell_setting	triclinic
loop_
_symmetry_equiv_pos_as_xyz
  x,y,z
_cell_length_a	13.897449
_cell_length_b	16.625539
_cell_length_c	13.897448
_cell_angle_alpha	89.972451
_cell_angle_beta	90.018972
_cell_angle_gamma	89.980569
loop_
_atom_site_label
_atom_site_type_symbol
_atom_site_fract_x
_atom_site_fract_y
_atom_site_fract_z
Zn1	Zn	1.474690	-0.455889	-0.383980
Zn2	Zn	1.808024	-0.122556	-0.050647
Zn3	Zn	2.141357	0.210778	0.282686
Zn4	Zn	1.474588	-0.321058	-0.545293
Zn5	Zn	1.807921	0.012275	-0.211960
Zn6	Zn	2.141255	0.345609	0.121373
Zn7	Zn	1.313383	-0.321072	-0.384018
Zn8	Zn	1.646716	0.012261	-0.050684
Zn9	Zn	1.980050	0.345594	0.282649
Zn10	Zn	1.313361	-0.455851	-0.545239
Zn11	Zn	1.646694	-0.122517	-0.211905
Zn12	Zn	1.980028	0.210816	0.121428
O13	O	1.394006	-0.388468	-0.464632
O14	O	1.727339	-0.055134	-0.131299
O15	O	2.060672	0.278199	0.202034
O16	O	1.609658	-0.438014	-0.405386
O17	O	1.942992	-0.104680	-0.072053
O18	O	2.276325	0.228653	0.261281
O19	O	1.453170	-0.208228	-0.523938
O20	O	1.786503	0.125106	-0.190605
O21	O	2.119837	0.458439	0.142728
O22	O	1.334833	-0.338978	-0.249031
O23	O	1.668166	-0.005645	0.084302
O24	O	2.001499	0.327689	0.417636
O25	O	1.609583	-0.338954	-0.523902
O26	O	1.942916	-0.005621	-0.190569
O27	O	2.276250	0.327713	0.142765
O28	O	1.453344	-0.438027	-0.249004
O29	O	1.786678	-0.104694	0.084330
O30	O	2.120011	0.228639	0.417663
O31	O	1.334734	-0.208238	-0.405450
O32	O	1.668067	0.125095	-0.072116
O33	O	2.001400	0.458429	0.261217
O34	O	1.178398	-0.338941	-0.405397
O35	O	1.511732	-0.005607	-0.072063
O36	O	1.845065	0.327726	0.261270
O37	O	1.334795	-0.568688	-0.523809
O38	O	1.668129	-0.235355	-0.190475
O39	O	2.001462	0.097978	0.142858
O40	O	1.178382	-0.437962	-0.523845
O41	O	1.511716	-0.104629	-0.190512
O42	O	1.845049	0.228705	0.142822
O43	O	1.453323	-0.568716	-0.405333
O44	O	1.786657	-0.235383	-0.072000
O45	O	2.119990	0.097950	0.261334
O46	O	1.453149	-0.338917	-0.680268
O47	O	1.786482	-0.005583	-0.346934
O48	O	2.119815	0.327750	-0.013601
O49	O	1.334696	-0.437948	-0.680227
O50	O	1.668029	-0.104615	-0.346894
O51	O	2.001363	0.228719	-0.013561
C52	C	1.143391	-0.388449	-0.464620
C53	C	1.476725	-0.055116	-0.131286
C54	C	1.810058	0.278217	0.202047
C55	C	1.036177	-0.388460	-0.464637
C56	C	1.369511	-0.055127	-0.131304
C57	C	1.702844	0.278206	0.202029
C58	C	0.839882	-0.388482	-0.464641
C59	C	1.173215	-0.055148	-0.131307
C60	C	1.506549	0.278185	0.202026
C61	C	0.949115	-0.388468	-0.464636
C62	C	1.282448	-0.055134	-0.131303
C63	C	1.615781	0.278199	0.202031
C64	C	1.394068	-0.598777	-0.464561
C65	C	1.727402	-0.265443	-0.131227
C66	C	2.060735	0.067890	0.202106
C67	C	1.394095	-0.688398	-0.464530
C68	C	1.727428	-0.355064	-0.131197
C69	C	2.060762	-0.021731	0.202137
C70	C	1.394139	-1.016574	-0.464422
C71	C	1.727473	-0.683240	-0.131089
C72	C	2.060806	-0.349907	0.202245
C73	C	1.394124	-0.925265	-0.464455
C74	C	1.727458	-0.591932	-0.131122
C75	C	2.060791	-0.258598	0.202212
C76	C	1.394118	-0.852489	-0.464477
C77	C	1.727451	-0.519155	-0.131143
C78	C	2.060784	-0.185822	0.202190
C79	C	1.394102	-0.761174	-0.464508
C80	C	1.727435	-0.427841	-0.131175
C81	C	2.060768	-0.094508	0.202158
C82	C	1.645598	-0.388486	-0.464646
C83	C	1.978932	-0.055153	-0.131313
C84	C	2.312265	0.278180	0.202021
C85	C	1.752812	-0.388495	-0.464652
C86	C	2.086146	-0.055161	-0.131319
C87	C	2.419479	0.278172	0.202015
C88	C	1.393935	-0.388444	-0.715247
C89	C	1.727268	-0.055111	-0.381913
C90	C	2.060602	0.278222	-0.048580
C91	C	1.393993	-0.388461	-0.822461
C92	C	1.727327	-0.055128	-0.489127
C93	C	2.060660	0.278205	-0.155794
C94	C	1.393999	-0.178977	-0.464634
C95	C	1.727332	0.154357	-0.131301
C96	C	2.060665	0.487690	0.202032
C97	C	1.394159	-0.089356	-0.464393
C98	C	1.727492	0.243977	-0.131060
C99	C	2.060825	0.577311	0.202273
C100	C	1.394095	-0.388512	-1.018756
C101	C	1.727428	-0.055178	-0.685422
C102	C	2.060761	0.278155	-0.352089
C103	C	1.394036	-0.388486	-0.909523
C104	C	1.727369	-0.055153	-0.576190
C105	C	2.060702	0.278181	-0.242857
C106	C	1.394102	-0.388509	-0.213039
C107	C	1.727436	-0.055175	0.120294
C108	C	2.060769	0.278158	0.453627
C109	C	1.394144	-0.388526	-0.105825
C110	C	1.727477	-0.055193	0.227508
C111	C	2.060810	0.278141	0.560841
