data_functionalizedCrystal
_audit_creation_method	'MofGen! by Chris Wilmer'
_symmetry_space_group_name_H-M	'P1'
_symmetry_Int_Tables_number	1
_symmetry_cell_setting	triclinic
loop_
_symmetry_equiv_pos_as_xyz
  x,y,z
_cell_length_a	14.908979
_cell_length_b	14.908520
_cell_length_c	18.215399
_cell_angle_alpha	93.269364
_cell_angle_beta	93.275137
_cell_angle_gamma	96.420994
loop_
_atom_site_label
_atom_site_type_symbol
_atom_site_fract_x
_atom_site_fract_y
_atom_site_fract_z
Zn1	Zn	1.362991	-0.280443	-0.365225
Zn2	Zn	1.862991	0.219557	0.134775
Zn3	Zn	1.354150	-0.431822	-0.249698
Zn4	Zn	1.854150	0.068178	0.250302
Zn5	Zn	1.211624	-0.289214	-0.249703
Zn6	Zn	1.711624	0.210786	0.250297
Zn7	Zn	1.202858	-0.440510	-0.380246
Zn8	Zn	1.702858	0.059490	0.119754
O9	O	1.282906	-0.360497	-0.311218
O10	O	1.782906	0.139503	0.188782
O11	O	1.488482	-0.293217	-0.343612
O12	O	1.988482	0.206783	0.156388
O13	O	1.335212	-0.412940	-0.146718
O14	O	1.835212	0.087060	0.353282
O15	O	1.239072	-0.161380	-0.258743
O16	O	1.739072	0.338620	0.241257
O17	O	1.481986	-0.404435	-0.258735
O18	O	1.981986	0.095565	0.241265
O19	O	1.350280	-0.154936	-0.343617
O20	O	1.850280	0.345064	0.156383
O21	O	1.230499	-0.308167	-0.146721
O22	O	1.730499	0.191833	0.353279
O23	O	1.083797	-0.316590	-0.273308
O24	O	1.583797	0.183410	0.226692
O25	O	1.224131	-0.419241	-0.481235
O26	O	1.724131	0.080759	0.018765
O27	O	1.077357	-0.427746	-0.369217
O28	O	1.577357	0.072254	0.130783
O29	O	1.341780	-0.301641	-0.470199
O30	O	1.841780	0.198359	0.029801
O31	O	1.326712	-0.559645	-0.273300
O32	O	1.826712	-0.059645	0.226700
O33	O	1.215559	-0.566028	-0.369213
O34	O	1.715559	-0.066028	0.130787
C35	C	1.047734	-0.374063	-0.322893
C36	C	1.547734	0.125937	0.177107
C37	C	0.947126	-0.379889	-0.327906
C38	C	1.447126	0.120111	0.172094
C39	C	0.801988	-0.446061	-0.384827
C40	C	1.301988	0.053939	0.115173
C41	C	0.896519	-0.440588	-0.380123
C42	C	1.396519	0.059412	0.119877
C43	C	0.903196	-0.324661	-0.280389
C44	C	1.403196	0.175339	0.219611
C45	C	0.808665	-0.330134	-0.285093
C46	C	1.308665	0.169866	0.214907
C47	C	0.758065	-0.390835	-0.337314
C48	C	1.258065	0.109165	0.162686
C49	C	0.663533	-0.396303	-0.342021
C50	C	1.163533	0.103697	0.157979
C51	C	0.670210	-0.280382	-0.242284
C52	C	1.170210	0.219618	0.257716
C53	C	0.764741	-0.274909	-0.237580
C54	C	1.264741	0.225091	0.262420
C55	C	1.269249	-0.595680	-0.322901
C56	C	1.769249	-0.095680	0.177099
C57	C	1.263490	-0.696287	-0.327919
C58	C	1.763490	-0.196287	0.172081
C59	C	1.368530	-0.878624	-0.237545
C60	C	1.868530	-0.378624	0.262455
C61	C	1.363122	-0.973154	-0.242258
C62	C	1.863122	-0.473154	0.257742
C63	C	1.247270	-0.979876	-0.342060
C64	C	1.747270	-0.479876	0.157940
C65	C	1.252678	-0.885347	-0.337348
C66	C	1.752678	-0.385347	0.162652
C67	C	1.313310	-0.834724	-0.285088
C68	C	1.813310	-0.334724	0.214912
C69	C	1.318713	-0.740193	-0.280372
C70	C	1.818713	-0.240193	0.219628
C71	C	1.202866	-0.746917	-0.380177
C72	C	1.702866	-0.246917	0.119823
C73	C	1.197457	-0.841446	-0.384890
C74	C	1.697457	-0.341446	0.115110
C75	C	1.518995	-0.346879	-0.299498
C76	C	2.018995	0.153121	0.200502
C77	C	1.619602	-0.341075	-0.294504
C78	C	2.119602	0.158925	0.205496
C79	C	1.282964	-0.360432	-0.503165
C80	C	1.782964	0.139568	-0.003165
C81	C	1.282989	-0.360404	-0.584962
C82	C	1.782989	0.139596	-0.084962
C83	C	1.296640	-0.124395	-0.299505
C84	C	1.796640	0.375605	0.200495
C85	C	1.302493	-0.023783	-0.294513
C86	C	1.802493	0.476217	0.205487
C87	C	1.344273	-0.299114	-0.767407
C88	C	1.844273	0.200886	-0.267407
C89	C	1.344285	-0.299087	-0.844264
C90	C	1.844285	0.200913	-0.344264
C91	C	1.221778	-0.421550	-0.855744
C92	C	1.721778	0.078450	-0.355744
C93	C	1.221762	-0.421572	-0.778889
C94	C	1.721762	0.078428	-0.278889
C95	C	1.283015	-0.360355	-0.734722
C96	C	1.783015	0.139645	-0.234722
C97	C	1.283043	-0.360306	-0.888434
C98	C	1.783043	0.139694	-0.388434
C99	C	1.283056	-0.360277	-0.971766
C100	C	1.783056	0.139723	-0.471766
C101	C	1.283001	-0.360382	-0.651385
C102	C	1.783001	0.139618	-0.151385
C103	C	1.282903	-0.360494	-0.120012
C104	C	1.782903	0.139506	0.379988
C105	C	1.283068	-0.360257	-0.038194
C106	C	1.783068	0.139743	0.461806
H107	H	0.932278	-0.485558	-0.418812
H108	H	1.432278	0.014442	0.081188
C109	C	1.042488	-0.879510	-0.429697
C110	C	1.542488	-0.379510	0.070303
C111	C	1.130812	-0.897092	-0.442333
C112	C	1.630812	-0.397092	0.057667
H113	H	1.001344	-0.913857	-0.465164
H114	H	1.501344	-0.413857	0.034836
H115	H	1.028399	-0.895822	-0.381678
H116	H	1.528399	-0.395822	0.118322
H117	H	1.037818	-0.816925	-0.433692
H118	H	1.537818	-0.316925	0.066308
H119	H	1.135484	-0.959675	-0.438332
H120	H	1.635484	-0.459675	0.061668
H121	H	1.144905	-0.880785	-0.490364
H122	H	1.644905	-0.380785	0.009636
H123	H	1.197913	-1.021108	-0.384612
H124	H	1.697913	-0.521108	0.115388
H125	H	1.394167	-0.249217	-0.870872
H126	H	1.894167	0.250783	-0.370872
C127	C	0.654113	-0.505913	-0.436326
C128	C	1.154113	-0.005913	0.063674
C129	C	0.746362	-0.512774	-0.442230
C130	C	1.246362	-0.012774	0.057770
H131	H	0.619775	-0.547096	-0.471769
H132	H	1.119775	-0.047096	0.028231
H133	H	0.637841	-0.519989	-0.388295
H134	H	1.137841	-0.019989	0.111705
H135	H	0.642162	-0.446003	-0.444923
H136	H	1.142162	0.053997	0.055077
H137	H	0.758315	-0.572683	-0.433628
H138	H	1.258315	-0.072683	0.066372
H139	H	0.762640	-0.498704	-0.490272
H140	H	1.262640	0.001296	0.009728
H141	H	1.171871	-0.471441	-0.752276
H142	H	1.671871	0.028559	-0.252276
H143	H	1.157898	-0.711163	-0.418887
H144	H	1.657898	-0.211163	0.081113
C145	C	1.363903	-0.176653	-0.674317
C146	C	1.863903	0.323347	-0.174317
C147	C	1.411591	-0.231816	-0.718858
C148	C	1.911591	0.268184	-0.218858
H149	H	1.405463	-0.135108	-0.644344
H150	H	1.905463	0.364892	-0.144344
H151	H	1.326490	-0.144304	-0.704540
H152	H	1.826490	0.355696	-0.204540
H153	H	1.327424	-0.213140	-0.643851
H154	H	1.827424	0.286860	-0.143851
H155	H	1.448065	-0.195330	-0.749327
H156	H	1.948065	0.304670	-0.249327
H157	H	1.449020	-0.264168	-0.688632
H158	H	1.949020	0.235832	-0.188632
C159	C	1.051073	-0.264809	-0.228897
C160	C	1.551073	0.235191	0.271103
C161	C	0.958826	-0.257945	-0.222990
C162	C	1.458826	0.242055	0.277010
H163	H	1.085415	-0.223616	-0.193464
H164	H	1.585415	0.276384	0.306536
H165	H	1.063025	-0.324710	-0.220294
H166	H	1.563025	0.175290	0.279706
H167	H	1.067342	-0.250742	-0.276938
H168	H	1.567342	0.249258	0.223062
H169	H	0.942556	-0.272018	-0.174950
H170	H	1.442556	0.227982	0.325050
H171	H	0.946869	-0.198031	-0.231587
H172	H	1.446869	0.301969	0.268413
H173	H	0.622335	-0.445725	-0.384545
H174	H	1.122335	0.054275	0.115455
H175	H	1.171910	-0.471392	-0.891714
H176	H	1.671910	0.028608	-0.391714
H177	H	0.805952	-0.225491	-0.195061
H178	H	1.305952	0.274509	0.304939
H179	H	1.368079	-0.698977	-0.237818
H180	H	1.868079	-0.198977	0.262182
C181	C	0.564637	-0.273838	-0.147936
C182	C	1.064637	0.226162	0.352064
C183	C	0.621947	-0.219690	-0.190024
C184	C	1.121947	0.280310	0.309976
H185	H	0.534852	-0.236372	-0.115665
H186	H	1.034852	0.263628	0.384335
H187	H	0.520960	-0.310744	-0.179707
H188	H	1.020960	0.189256	0.320293
H189	H	0.599237	-0.311111	-0.119883
H190	H	1.099237	0.188889	0.380117
H191	H	0.587346	-0.182421	-0.218081
H192	H	1.087346	0.317579	0.281919
H193	H	0.665630	-0.182769	-0.158249
H194	H	1.165630	0.317231	0.341751
C195	C	1.482492	-0.881471	-0.139360
C196	C	1.982492	-0.381471	0.360640
C197	C	1.435168	-0.822974	-0.180099
C198	C	1.935168	-0.322974	0.319901
H199	H	1.523633	-0.847114	-0.103897
H200	H	2.023633	-0.347114	0.396103
H201	H	1.440962	-0.920673	-0.114985
H202	H	1.940962	-0.420673	0.385015
H203	H	1.514988	-0.916288	-0.171571
H204	H	2.014988	-0.416288	0.328429
H205	H	1.402666	-0.788162	-0.147889
H206	H	1.902666	-0.288162	0.352111
H207	H	1.476704	-0.783757	-0.204475
H208	H	1.976704	-0.283757	0.295525
C209	C	1.478846	-1.072277	-0.231401
C210	C	1.978846	-0.572277	0.268599
C211	C	1.423857	-1.021387	-0.190010
C212	C	1.923857	-0.521387	0.309990
H213	H	1.516357	-1.102042	-0.199147
H214	H	2.016357	-0.602042	0.300853
H215	H	1.441964	-1.115969	-0.263175
H216	H	1.941964	-0.615969	0.236825
H217	H	1.515520	-1.033326	-0.259944
H218	H	2.015520	-0.533326	0.240056
H219	H	1.387178	-1.060339	-0.161471
H220	H	1.887178	-0.560339	0.338529
H221	H	1.460743	-0.977690	-0.158223
H222	H	1.960743	-0.477690	0.341777
