data_functionalizedCrystal
_audit_creation_method	'MofGen! by Chris Wilmer'
_symmetry_space_group_name_H-M	'P1'
_symmetry_Int_Tables_number	1
_symmetry_cell_setting	triclinic
loop_
_symmetry_equiv_pos_as_xyz
  x,y,z
_cell_length_a	27.732048
_cell_length_b	27.732048
_cell_length_c	12.503572
_cell_angle_alpha	93.489054
_cell_angle_beta	86.516589
_cell_angle_gamma	82.642655
loop_
_atom_site_label
_atom_site_type_symbol
_atom_site_fract_x
_atom_site_fract_y
_atom_site_fract_z
O1	O	0.643731	0.054704	-0.089192
O2	O	1.143731	0.554704	0.410808
O3	O	0.502939	0.063448	-0.089227
O4	O	1.002939	0.563448	0.410773
O5	O	0.577707	-0.011320	-0.089188
O6	O	1.077707	0.488680	0.410812
O7	O	0.568963	0.129472	-0.089231
O8	O	1.068963	0.629472	0.410769
O9	O	0.572084	-0.005688	0.089451
O10	O	1.072084	0.494312	0.589451
O11	O	0.497316	0.069080	0.089412
O12	O	0.997316	0.569080	0.589412
O13	O	0.638108	0.060336	0.089447
O14	O	1.138108	0.560336	0.589447
Cu15	Cu	0.567199	0.065222	0.105741
Cu16	Cu	1.067199	0.565222	0.605741
Cu17	Cu	0.573849	0.058562	-0.105521
Cu18	Cu	1.073849	0.558562	0.394479
O19	O	0.563340	0.135104	0.089408
O20	O	1.063340	0.635104	0.589408
C21	C	0.482121	0.066081	0.000089
C22	C	0.982121	0.566081	0.500089
C23	C	0.428466	0.065527	0.000077
C24	C	0.928466	0.565527	0.500077
C25	C	0.574712	-0.026511	0.000134
C26	C	1.074712	0.473489	0.500134
C27	C	0.574159	-0.080165	0.000143
C28	C	1.074159	0.419835	0.500143
C29	C	0.089650	0.106232	0.000111
C30	C	0.589650	0.606232	0.500111
C31	C	-0.112010	0.104182	0.000121
C32	C	0.387990	0.604182	0.500121
O33	O	-0.143267	0.141403	0.000156
O34	O	0.356733	0.641403	0.500156
N35	N	-0.131134	0.059847	0.000133
N36	N	0.368866	0.559847	0.500133
C37	C	-0.099840	0.016022	0.000149
C38	C	0.400160	0.516022	0.500149
O39	O	-0.120734	-0.021735	0.000170
O40	O	0.379266	0.478265	0.500170
C41	C	0.101819	0.018073	0.000146
C42	C	0.601819	0.518073	0.500146
C43	C	0.120940	0.062410	0.000124
C44	C	0.620940	0.562410	0.500124
C45	C	0.108772	0.150566	0.000089
C46	C	0.608772	0.650566	0.500089
C47	C	0.159184	0.151078	0.000081
C48	C	0.659184	0.651078	0.500081
C49	C	0.190475	0.107256	0.000094
C50	C	0.690475	0.607256	0.500094
C51	C	0.171353	0.062922	0.000115
C52	C	0.671353	0.562922	0.500115
C53	C	0.133112	-0.025751	0.000170
C54	C	0.633112	0.474249	0.500170
C55	C	0.183529	-0.025234	0.000172
C56	C	0.683529	0.474766	0.500172
C57	C	0.202651	0.019103	0.000150
C58	C	0.702651	0.519103	0.500150
C59	C	0.253055	0.019613	0.000120
C60	C	0.753055	0.519613	0.500120
N61	N	0.272179	0.063948	0.000108
N62	N	0.772179	0.563948	0.500108
C63	C	0.240889	0.107769	0.000095
C64	C	0.740889	0.607769	0.500095
C65	C	-0.205714	0.014948	0.000148
C66	C	0.294286	0.514948	0.500148
C67	C	-0.256128	0.014435	0.000147
C68	C	0.243872	0.514435	0.500147
C69	C	-0.268295	0.102595	0.000121
C70	C	0.231705	0.602595	0.500121
C71	C	-0.217879	0.103107	0.000115
C72	C	0.282121	0.603107	0.500115
C73	C	-0.186590	0.059283	0.000136
C74	C	0.313410	0.559283	0.500136
C75	C	0.346759	0.108841	0.000077
C76	C	0.846759	0.608841	0.500077
C77	C	0.397176	0.109349	0.000064
C78	C	0.897176	0.609349	0.500064
C79	C	0.409338	0.021189	0.000095
C80	C	0.909338	0.521189	0.500095
C81	C	0.358925	0.020681	0.000102
C82	C	0.858925	0.520681	0.500102
C83	C	0.327636	0.064511	0.000097
C84	C	0.827636	0.564511	0.500097
O85	O	0.284340	-0.017589	0.000097
O86	O	0.784340	0.482411	0.500097
O87	O	0.261791	0.145521	0.000098
O88	O	0.761791	0.645521	0.500098
C89	C	0.039238	0.105720	0.000119
C90	C	0.539238	0.605720	0.500119
C91	C	0.020116	0.061386	0.000141
C92	C	0.520116	0.561386	0.500141
C93	C	0.051406	0.017565	0.000153
C94	C	0.551406	0.517565	0.500153
C95	C	-0.030298	0.060873	0.000139
C96	C	0.469702	0.560873	0.500139
C97	C	-0.061589	0.104695	0.000126
C98	C	0.438411	0.604695	0.500126
C99	C	-0.042465	0.149030	0.000115
C100	C	0.457535	0.649030	0.500115
C101	C	0.007948	0.149542	0.000106
C102	C	0.507948	0.649542	0.500106
C103	C	0.032282	-0.026770	0.000165
C104	C	0.532282	0.473230	0.500165
C105	C	-0.018131	-0.027279	0.000172
C106	C	0.481869	0.472721	0.500172
C107	C	-0.049421	0.016543	0.000159
C108	C	0.450579	0.516543	0.500159
C109	C	0.614864	-0.418982	0.000098
C110	C	1.114864	0.081018	0.500098
C111	C	0.612814	-0.620642	0.000082
C112	C	1.112814	-0.120642	0.500082
O113	O	0.650036	-0.651899	0.000044
O114	O	1.150036	-0.151899	0.500044
N115	N	0.568479	-0.639766	0.000073
N116	N	1.068479	-0.139766	0.500073
C117	C	0.524654	-0.608472	0.000060
C118	C	1.024654	-0.108472	0.500060
O119	O	0.486897	-0.629366	0.000040
O120	O	0.986897	-0.129366	0.500040
C121	C	0.526705	-0.406813	0.000067
C122	C	1.026705	0.093187	0.500067
C123	C	0.571042	-0.387692	0.000088
C124	C	1.071042	0.112308	0.500088
C125	C	0.659198	-0.399860	0.000117
C126	C	1.159198	0.100140	0.500117
C127	C	0.659710	-0.349448	0.000127
C128	C	1.159710	0.150552	0.500127
C129	C	0.615888	-0.318157	0.000117
C130	C	1.115888	0.181843	0.500117
C131	C	0.571554	-0.337279	0.000098
C132	C	1.071554	0.162721	0.500098
C133	C	0.482881	-0.375520	0.000047
C134	C	0.982881	0.124480	0.500047
C135	C	0.483397	-0.325103	0.000046
C136	C	0.983397	0.174897	0.500046
C137	C	0.527735	-0.305981	0.000067
C138	C	1.027735	0.194019	0.500067
C139	C	0.528244	-0.255577	0.000098
C140	C	1.028244	0.244423	0.500098
N141	N	0.572579	-0.236453	0.000108
N142	N	1.072579	0.263547	0.500108
C143	C	0.616401	-0.267743	0.000117
C144	C	1.116401	0.232257	0.500117
C145	C	0.523580	-0.714346	0.000058
C146	C	1.023580	-0.214346	0.500058
C147	C	0.523067	-0.764760	0.000058
C148	C	1.023067	-0.264760	0.500058
C149	C	0.611227	-0.776927	0.000078
C150	C	1.111227	-0.276927	0.500078
C151	C	0.611739	-0.726512	0.000086
C152	C	1.111739	-0.226512	0.500086
C153	C	0.567915	-0.695222	0.000067
C154	C	1.067915	-0.195222	0.500067
C155	C	0.617473	-0.161873	0.000139
C156	C	1.117473	0.338127	0.500139
C157	C	0.617981	-0.111456	0.000153
C158	C	1.117981	0.388544	0.500153
C159	C	0.529821	-0.099294	0.000126
C160	C	1.029821	0.400706	0.500126
C161	C	0.529313	-0.149706	0.000118
C162	C	1.029313	0.350294	0.500118
C163	C	0.573143	-0.180996	0.000120
C164	C	1.073143	0.319004	0.500120
O165	O	0.491043	-0.224292	0.000124
O166	O	0.991043	0.275708	0.500124
O167	O	0.654153	-0.246841	0.000113
O168	O	1.154153	0.253159	0.500113
C169	C	0.614352	-0.469394	0.000088
C170	C	1.114352	0.030606	0.500088
C171	C	0.570018	-0.488516	0.000069
C172	C	1.070018	0.011484	0.500069
C173	C	0.526197	-0.457226	0.000059
C174	C	1.026197	0.042774	0.500059
C175	C	0.569505	-0.538930	0.000069
C176	C	1.069505	-0.038930	0.500069
C177	C	0.613327	-0.570221	0.000078
C178	C	1.113327	-0.070221	0.500078
C179	C	0.657662	-0.551097	0.000088
C180	C	1.157662	-0.051097	0.500088
C181	C	0.658174	-0.500685	0.000098
C182	C	1.158174	-0.000685	0.500098
C183	C	0.481862	-0.476350	0.000049
C184	C	0.981862	0.023650	0.500049
C185	C	0.481353	-0.526763	0.000041
C186	C	0.981353	-0.026763	0.500041
C187	C	0.525175	-0.558053	0.000050
C188	C	1.025175	-0.058053	0.500050
C189	C	0.658927	0.057703	0.000129
C190	C	1.158927	0.557703	0.500129
C191	C	0.712582	0.058256	0.000134
C192	C	1.212582	0.558256	0.500134
C193	C	0.566335	0.150295	0.000083
C194	C	1.066335	0.650295	0.500083
C195	C	0.566889	0.203949	0.000067
C196	C	1.066889	0.703949	0.500067
N197	N	0.562525	0.069907	0.254331
N198	N	1.062525	0.569907	0.754331
N199	N	0.578526	0.053873	-0.254111
N200	N	1.078526	0.553873	0.245889
C201	C	0.555650	0.076802	0.473442
C202	C	1.055650	0.576802	0.973442
C203	C	0.585400	0.046980	0.526785
C204	C	1.085400	0.546980	1.026785
C205	C	0.581574	0.050816	0.648706
C206	C	1.081574	0.550816	1.148706
C207	C	0.559475	0.072966	0.351510
C208	C	1.059475	0.572966	0.851510
H209	H	0.412742	0.145455	0.000045
H210	H	0.912742	0.645455	0.500045
H211	H	0.343357	-0.015423	0.000105
H212	H	0.843357	0.484577	0.500105
H213	H	-0.067950	0.184711	0.000100
H214	H	0.432050	0.684711	0.500100
H215	H	0.527309	0.105214	0.519335
H216	H	1.027309	0.605214	1.019335
H217	H	0.486962	-0.780324	0.000060
H218	H	0.986962	-0.280324	0.500060
Br219	Br	0.671913	-0.700567	0.000116
Br220	Br	1.171913	-0.200567	0.500116
H221	H	0.646909	-0.802413	0.000087
H222	H	1.146909	-0.302413	0.500087
Br223	Br	0.632843	-0.000175	0.450292
Br224	Br	1.132843	0.499825	0.950292
H225	H	0.117552	-0.061855	0.000189
H226	H	0.617552	0.438145	0.500189
H227	H	0.487890	-0.688874	0.000043
H228	H	0.987890	-0.188874	0.500043
Br229	Br	0.451813	-0.038280	0.000115
Br230	Br	0.951813	0.461720	0.500115
Br231	Br	0.718350	-0.474743	0.000119
Br232	Br	1.218350	0.025257	0.500119
H233	H	0.446176	-0.450877	0.000039
H234	H	0.946176	0.049123	0.500039
H235	H	0.321288	0.144532	0.000075
H236	H	0.821288	0.644532	0.500075
H237	H	0.693343	-0.576582	0.000101
H238	H	1.193343	-0.076582	0.500101
Br239	Br	0.185126	0.211254	0.000055
Br240	Br	0.685126	0.711254	0.500055
Br241	Br	0.033890	0.209717	0.000074
Br242	Br	0.533890	0.709717	0.500074
H243	H	0.083300	0.186253	0.000083
H244	H	0.583300	0.686253	0.500083
Br245	Br	-0.191934	0.163281	0.000084
Br246	Br	0.308066	0.663281	0.500084
H247	H	-0.271692	-0.021670	0.000148
H248	H	0.228308	0.478330	0.500148
Br249	Br	-0.310770	0.162067	0.000105
Br250	Br	0.189230	0.662067	0.500105
H251	H	0.446777	-0.391079	0.000024
H252	H	0.946777	0.108921	0.500024
H253	H	0.694885	-0.425332	0.000121
H254	H	1.194885	0.074668	0.500121
H255	H	0.209003	-0.060923	0.000191
H256	H	0.709003	0.439077	0.500191
Br257	Br	-0.163256	-0.044535	0.000178
Br258	Br	0.336744	0.455465	0.500178
Br259	Br	0.678157	-0.085509	0.000182
Br260	Br	1.178157	0.414491	0.500182
H261	H	0.057754	-0.062456	0.000178
H262	H	0.557754	0.437544	0.500178
Br263	Br	-0.044073	-0.087457	0.000185
Br264	Br	0.455927	0.412543	0.500185
H265	H	0.695814	-0.333884	0.000139
H266	H	1.195814	0.166116	0.500139
Br267	Br	0.676957	-0.204329	0.000141
Br268	Br	1.176957	0.295671	0.500141
Br269	Br	0.423918	-0.282641	0.000016
Br270	Br	0.923918	0.217359	0.500016
H271	H	0.445245	-0.542325	0.000033
H272	H	0.945245	-0.042325	0.500033
H273	H	0.493209	-0.165275	0.000131
H274	H	0.993209	0.334725	0.500131
H275	H	0.494142	-0.073808	0.000122
H276	H	0.994142	0.426192	0.500122
