data_functionalizedCrystal
_audit_creation_method	'MofGen! by Chris Wilmer'
_symmetry_space_group_name_H-M	'P1'
_symmetry_Int_Tables_number	1
_symmetry_cell_setting	triclinic
loop_
_symmetry_equiv_pos_as_xyz
  x,y,z
_cell_length_a	10.654550
_cell_length_b	27.732048
_cell_length_c	9.130313
_cell_angle_alpha	89.993840
_cell_angle_beta	89.996220
_cell_angle_gamma	83.563778
loop_
_atom_site_label
_atom_site_type_symbol
_atom_site_fract_x
_atom_site_fract_y
_atom_site_fract_z
O1	O	1.664980	0.067884	-0.121937
O2	O	1.299230	0.074351	-0.121916
O3	O	1.493465	0.000792	-0.121899
O4	O	1.470746	0.141444	-0.121954
O5	O	1.493462	0.000794	0.121700
O6	O	1.299228	0.074353	0.121683
O7	O	1.664978	0.067886	0.121661
Cu8	Cu	1.482103	0.071120	0.143915
Cu9	Cu	1.482105	0.071117	-0.144169
O10	O	1.470743	0.141446	0.121645
C11	C	1.252451	0.073878	-0.000113
C12	C	1.113067	0.072457	-0.000103
C13	C	1.031761	0.115768	-0.000142
C14	C	0.900796	0.114430	-0.000166
C15	C	0.932457	0.026466	-0.000121
C16	C	1.063419	0.027805	-0.000086
C17	C	1.013480	0.166553	-0.000174
C18	C	0.882516	0.165215	-0.000199
C19	C	1.492987	-0.017217	-0.000096
C20	C	1.491551	-0.070881	-0.000084
C21	C	1.597290	-0.409038	-0.000165
C22	C	1.591962	-0.610731	-0.000185
O23	O	1.688653	-0.641384	-0.000255
N24	N	1.476789	-0.630572	-0.000177
C25	C	1.362940	-0.599986	-0.000173
O26	O	1.264856	-0.621490	-0.000182
C27	C	1.368269	-0.398294	-0.000164
C28	C	1.483449	-0.378456	-0.000157
C29	C	1.712461	-0.389199	-0.000160
C30	C	1.713792	-0.338779	-0.000147
C31	C	1.599951	-0.308197	-0.000139
C32	C	1.484780	-0.328036	-0.000144
C33	C	1.254421	-0.367709	-0.000171
C34	C	1.255764	-0.317284	-0.000172
C35	C	1.370944	-0.297446	-0.000165
C36	C	1.372271	-0.247034	-0.000123
N37	N	1.487444	-0.227193	-0.000131
C38	C	1.601284	-0.257775	-0.000139
C39	C	1.360150	-0.705877	-0.000175
C40	C	1.358817	-0.756300	-0.000175
C41	C	1.587840	-0.767041	-0.000190
C42	C	1.589171	-0.716618	-0.000180
C43	C	1.475323	-0.686036	-0.000184
C44	C	1.604070	-0.151888	-0.000111
C45	C	1.605391	-0.101463	-0.000092
C46	C	1.376369	-0.090726	-0.000085
C47	C	1.375047	-0.141147	-0.000096
C48	C	1.488908	-0.171727	-0.000114
O49	O	1.275631	-0.216352	-0.000070
O50	O	1.699354	-0.236261	-0.000163
C51	C	1.595959	-0.459458	-0.000178
C52	C	1.480788	-0.479296	-0.000183
C53	C	1.366948	-0.448715	-0.000175
C54	C	1.479455	-0.529719	-0.000183
C55	C	1.593296	-0.560301	-0.000191
C56	C	1.708469	-0.540460	-0.000199
C57	C	1.709800	-0.490040	-0.000186
C58	C	1.251774	-0.468556	-0.000167
C59	C	1.250453	-0.518976	-0.000178
C60	C	1.364293	-0.549558	-0.000186
C61	C	1.711757	0.068360	-0.000144
C62	C	1.851141	0.069780	-0.000164
C63	C	1.471221	0.159454	-0.000162
C64	C	1.472657	0.213118	-0.000183
N65	N	1.482110	0.071121	0.346538
N66	N	1.482108	0.071112	-0.346792
C67	C	1.568138	0.038560	0.423197
C68	C	1.568135	0.038554	0.576534
C69	C	1.396071	0.103675	0.576538
C70	C	1.396069	0.103678	0.423204
C71	C	1.667482	0.000964	0.423195
C72	C	1.667479	0.000959	0.576532
H73	H	1.048457	0.182723	-0.105352
H74	H	1.129616	-0.007463	-0.000034
C75	C	0.912475	0.200909	0.235015
C76	C	0.819975	0.185936	0.141757
H77	H	0.873860	0.213702	0.322645
H78	H	0.972356	0.173961	0.257861
H79	H	0.953926	0.225225	0.187788
H80	H	0.778530	0.161616	0.188980
H81	H	0.760071	0.212887	0.118912
H82	H	1.801162	-0.565369	-0.000199
H83	H	1.265026	-0.772447	-0.000155
H84	H	1.763642	0.009240	0.618139
C85	C	1.801012	-0.095090	-0.125332
C86	C	1.732005	-0.079657	-0.000096
H87	H	1.879170	-0.081626	-0.125338
H88	H	1.816503	-0.129492	-0.125329
H89	H	1.754166	-0.084610	-0.210264
H90	H	1.778847	-0.090140	0.084836
H91	H	1.716517	-0.045247	-0.000085
H92	H	1.156652	-0.535123	-0.000171
H93	H	0.839980	0.184349	-0.102160
H94	H	1.041976	0.186415	0.101770
H95	H	0.892018	-0.009888	-0.000129
H96	H	1.696787	-0.176781	-0.000131
H97	H	1.807584	-0.322632	-0.000148
C98	C	1.245038	-0.027782	-0.125314
C99	C	1.251239	-0.057104	-0.000086
H100	H	1.167784	-0.007026	-0.125324
H101	H	1.313822	-0.008756	-0.125295
H102	H	1.249282	-0.047678	-0.210251
H103	H	1.247004	-0.037208	0.084852
H104	H	1.182436	-0.076132	-0.000092
C105	C	1.640618	-0.049170	0.213652
C106	C	1.640617	-0.049181	0.367014
H107	H	1.624033	-0.080127	0.178972
H108	H	1.577080	-0.025115	0.178996
H109	H	1.720753	-0.042268	0.178984
H110	H	1.560479	-0.056080	0.401683
H111	H	1.704159	-0.073243	0.401684
H112	H	1.326018	0.130181	0.638977
H113	H	1.159070	-0.443660	-0.000164
H114	H	1.805169	-0.414094	-0.000172
H115	H	1.682961	-0.700469	-0.000176
H116	H	1.680533	-0.791950	-0.000196
C117	C	1.870313	0.027283	0.473172
C118	C	1.789908	0.016851	0.358963
H119	H	1.945895	0.037088	0.433513
H120	H	1.829586	0.052695	0.531715
H121	H	1.890004	-0.000865	0.531727
H122	H	1.770210	0.045001	0.300414
H123	H	1.830643	-0.008563	0.300395
C124	C	1.133637	-0.700336	-0.000140
C125	C	1.234995	-0.672266	-0.000159
H126	H	1.056373	-0.679586	-0.000114
H127	H	1.137882	-0.720220	-0.085087
H128	H	1.137907	-0.720232	0.084811
H129	H	1.230730	-0.652372	-0.085116
H130	H	1.230748	-0.652373	0.084797
C131	C	1.028186	-0.352006	-0.000200
C132	C	1.127809	-0.389506	-0.000191
H133	H	0.950017	-0.365463	-0.000224
H134	H	1.033467	-0.332570	0.084749
H135	H	1.033501	-0.332558	-0.085148
H136	H	1.122499	-0.408952	0.084763
H137	H	1.122525	-0.408950	-0.085149
C138	C	1.630249	-0.044048	0.793918
C139	C	1.628282	-0.046431	0.640758
H140	H	1.606040	-0.073302	0.833567
H141	H	1.713081	-0.039792	0.826030
H142	H	1.572940	-0.017437	0.826028
H143	H	1.685598	-0.073040	0.608647
H144	H	1.545437	-0.050692	0.608633
C145	C	1.124387	-0.254344	-0.125396
C146	C	1.130614	-0.283669	-0.000175
H147	H	1.047122	-0.233595	-0.125397
H148	H	1.193157	-0.235311	-0.125379
H149	H	1.128638	-0.274239	-0.210338
H150	H	1.126372	-0.263775	0.084767
H151	H	1.061825	-0.302704	-0.000179
H152	H	1.281258	-0.157300	-0.000061
H153	H	1.803591	-0.473893	-0.000181
H154	H	1.326007	0.130188	0.360790
