data_functionalizedCrystal
_audit_creation_method	'MofGen! by Chris Wilmer'
_symmetry_space_group_name_H-M	'P1'
_symmetry_Int_Tables_number	1
_symmetry_cell_setting	triclinic
loop_
_symmetry_equiv_pos_as_xyz
  x,y,z
_cell_length_a	19.805405
_cell_length_b	17.077404
_cell_length_c	17.077396
_cell_angle_alpha	89.981638
_cell_angle_beta	89.968350
_cell_angle_gamma	90.024381
loop_
_atom_site_label
_atom_site_type_symbol
_atom_site_fract_x
_atom_site_fract_y
_atom_site_fract_z
Zn1	Zn	-0.269500	1.200035	-0.443802
Zn2	Zn	0.230500	1.700035	0.056198
Zn3	Zn	-0.382693	1.199934	-0.312528
Zn4	Zn	0.117307	1.699934	0.187472
Zn5	Zn	-0.269519	1.068767	-0.312552
Zn6	Zn	0.230481	1.568767	0.187448
Zn7	Zn	-0.382648	1.068727	-0.443754
Zn8	Zn	0.117352	1.568727	0.056246
O9	O	-0.326090	1.134366	-0.378159
O10	O	0.173910	1.634366	0.121841
O11	O	-0.284526	1.309869	-0.426398
O12	O	0.215474	1.809869	0.073602
O13	O	-0.367707	1.182509	-0.202684
O14	O	0.132293	1.682509	0.297316
O15	O	-0.174800	1.086239	-0.329992
O16	O	0.325200	1.586239	0.170008
O17	O	-0.367688	1.309795	-0.329952
O18	O	0.132312	1.809795	0.170048
O19	O	-0.174786	1.182681	-0.426421
O20	O	0.325214	1.682681	0.073579
O21	O	-0.284559	1.086141	-0.202702
O22	O	0.215441	1.586141	0.297298
O23	O	-0.284515	0.958915	-0.329947
O24	O	0.215485	1.458915	0.170053
O25	O	-0.367612	1.086171	-0.553608
O26	O	0.132388	1.586171	-0.053608
O27	O	-0.367631	0.958886	-0.426340
O28	O	0.132369	1.458886	0.073660
O29	O	-0.284482	1.182643	-0.553642
O30	O	0.215518	1.682643	-0.053642
O31	O	-0.477404	1.182470	-0.329906
O32	O	0.022596	1.682470	0.170094
O33	O	-0.477371	1.086073	-0.426317
O34	O	0.022629	1.586073	0.073683
C35	C	-0.326071	0.930418	-0.378141
C36	C	0.173929	1.430418	0.121859
C37	C	-0.326079	0.843168	-0.378153
C38	C	0.173921	1.343168	0.121847
C39	C	-0.282853	0.802218	-0.428449
C40	C	0.217147	1.302218	0.071551
C41	C	-0.282858	0.720237	-0.428452
C42	C	0.217142	1.220237	0.071548
C43	C	-0.326092	0.679209	-0.378163
C44	C	0.173908	1.179209	0.121837
C45	C	-0.369319	0.720165	-0.327862
C46	C	0.130681	1.220165	0.172138
C47	C	-0.369311	0.802144	-0.327855
C48	C	0.130689	1.302144	0.172145
C49	C	-0.369335	0.549295	-0.327881
C50	C	0.130665	1.049295	0.172119
C51	C	-0.369344	0.467311	-0.327889
C52	C	0.130656	0.967311	0.172111
C53	C	-0.282881	0.467388	-0.428479
C54	C	0.217119	0.967388	0.071521
C55	C	-0.282873	0.549367	-0.428472
C56	C	0.217127	1.049367	0.071528
C57	C	-0.326102	0.590318	-0.378171
C58	C	0.173898	1.090318	0.121829
C59	C	-0.501946	1.134278	-0.378121
C60	C	-0.001946	1.634278	0.121879
C61	C	-0.577178	1.134312	-0.378131
C62	C	-0.077178	1.634312	0.121869
C63	C	-0.612517	1.184555	-0.327982
C64	C	-0.112517	1.684555	0.172018
C65	C	-0.683205	1.184588	-0.328000
C66	C	-0.183205	1.684588	0.172000
C67	C	-0.718554	1.134374	-0.378162
C68	C	-0.218554	1.634374	0.121838
C69	C	-0.683210	1.084129	-0.428317
C70	C	-0.183210	1.584129	0.071683
C71	C	-0.612523	1.084100	-0.428303
C72	C	-0.112523	1.584100	0.071697
C73	C	-0.968283	1.084245	-0.428375
C74	C	-0.468283	1.584245	0.071625
C75	C	-1.038975	1.084276	-0.428383
C76	C	-0.538975	1.584276	0.071617
C77	C	-1.038966	1.184733	-0.328072
C78	C	-0.538966	1.684733	0.171928
C79	C	-0.968278	1.184704	-0.328058
C80	C	-0.468278	1.684704	0.171942
C81	C	-0.932941	1.134462	-0.378215
C82	C	-0.432941	1.634462	0.121785
C83	C	-0.856293	1.134427	-0.378196
C84	C	-0.356293	1.634427	0.121804
C85	C	-0.795201	1.134404	-0.378177
C86	C	-0.295201	1.634404	0.121823
C87	C	-0.149547	1.134476	-0.378214
C88	C	0.350453	1.634476	0.121786
C89	C	-0.074315	1.134523	-0.378238
C90	C	0.425685	1.634523	0.121762
C91	C	-0.326040	1.134414	-0.582903
C92	C	0.173960	1.634414	-0.082903
C93	C	-0.326019	1.134434	-0.670153
C94	C	0.173981	1.634434	-0.170153
C95	C	-0.326110	1.339110	-0.378177
C96	C	0.173890	1.839110	0.121823
C97	C	-0.326118	1.426360	-0.378185
C98	C	0.173882	1.926360	0.121815
C99	C	-0.282730	1.184668	-0.711163
C100	C	0.217270	1.684668	-0.211163
C101	C	-0.282707	1.184678	-0.793143
C102	C	0.217293	1.684678	-0.293143
C103	C	-0.325978	1.134456	-0.834113
C104	C	0.174022	1.634456	-0.334113
C105	C	-0.369269	1.084216	-0.793098
C106	C	0.130731	1.584216	-0.293098
C107	C	-0.369287	1.084203	-0.711119
C108	C	0.130713	1.584203	-0.211119
C109	C	-0.369228	1.084247	-0.963968
C110	C	0.130772	1.584247	-0.463968
C111	C	-0.369211	1.084261	-1.045952
C112	C	0.130789	1.584261	-0.545952
C113	C	-0.282648	1.184722	-1.045992
C114	C	0.217352	1.684722	-0.545992
C115	C	-0.282666	1.184709	-0.964013
C116	C	0.217334	1.684709	-0.464013
C117	C	-0.325959	1.134470	-0.923004
C118	C	0.174041	1.634470	-0.423004
C119	C	-0.326091	1.134364	-0.174211
C120	C	0.173909	1.634364	0.325789
C121	C	-0.325921	1.134496	-0.086962
C122	C	0.174079	1.634496	0.413038
H123	H	-0.247672	0.582770	-0.469426
H124	H	0.252328	1.082770	0.030574
H125	H	-0.939517	1.043334	-0.469213
H126	H	-0.439517	1.543334	0.030787
H127	H	-0.404471	1.043325	-0.930580
H128	H	0.095529	1.543325	-0.430580
F129	F	-0.415371	0.423647	-0.274381
F130	F	0.084629	0.923647	0.225619
F131	F	-1.076580	1.238209	-0.274693
F132	F	-0.576580	1.738209	0.225307
H133	H	-0.247682	0.434042	-0.469434
H134	H	0.252318	0.934042	0.030566
F135	F	-0.415329	0.676498	-0.274336
F136	F	0.084671	1.176498	0.225664
H137	H	-0.711975	1.225500	-0.287163
H138	H	-0.211975	1.725500	0.212837
H139	H	-0.247496	1.225567	-0.677811
H140	H	0.252504	1.725567	-0.177811
F141	F	-0.236840	0.845876	-0.481978
F142	F	0.263160	1.345876	0.018022
F143	F	-0.415346	0.592876	-0.274348
F144	F	0.084654	1.092876	0.225652
H145	H	-0.404509	0.835485	-0.286898
H146	H	0.095491	1.335485	0.213102
F147	F	-0.236573	1.238192	-1.089638
F148	F	0.263427	1.738192	-0.589638
H149	H	-0.404498	1.043322	-0.826462
H150	H	0.095502	1.543322	-0.326462
F151	F	-0.574903	1.237995	-0.274586
F152	F	-0.074903	1.737995	0.225414
F153	F	-0.236617	1.238166	-0.920412
F154	F	0.263383	1.738166	-0.420412
F155	F	-0.930662	1.238148	-0.274667
F156	F	-0.430662	1.738148	0.225333
F157	F	-0.720832	1.030691	-0.481709
F158	F	-0.220832	1.530691	0.018291
F159	F	-0.236852	0.676658	-0.481986
F160	F	0.263148	1.176658	0.018014
F161	F	-1.076594	1.030829	-0.481777
F162	F	-0.576594	1.530829	0.018223
F163	F	-0.574913	1.030627	-0.481680
F164	F	-0.074913	1.530627	0.018320
H165	H	-0.247458	1.225586	-0.826530
H166	H	0.252542	1.725586	-0.326530
F167	F	-0.415258	1.030803	-1.089554
F168	F	0.084742	1.530803	-0.589554
F169	F	-0.415360	1.030735	-0.667474
F170	F	0.084640	1.530735	-0.167474
