data_functionalizedCrystal
_audit_creation_method	'MofGen! by Chris Wilmer'
_symmetry_space_group_name_H-M	'P1'
_symmetry_Int_Tables_number	1
_symmetry_cell_setting	triclinic
loop_
_symmetry_equiv_pos_as_xyz
  x,y,z
_cell_length_a	17.699077
_cell_length_b	17.699083
_cell_length_c	16.176319
_cell_angle_alpha	89.992304
_cell_angle_beta	89.993140
_cell_angle_gamma	83.281795
loop_
_atom_site_label
_atom_site_type_symbol
_atom_site_fract_x
_atom_site_fract_y
_atom_site_fract_z
O1	O	1.004082	0.095692	-0.068737
O2	O	1.504082	0.595692	0.431263
O3	O	0.783703	0.108149	-0.068741
O4	O	1.283703	0.608149	0.431259
O5	O	0.900118	-0.008269	-0.068732
O6	O	1.400118	0.491731	0.431268
O7	O	0.887666	0.212110	-0.068747
O8	O	1.387666	0.712110	0.431253
O9	O	0.900102	-0.008277	0.068761
O10	O	1.400102	0.491723	0.568761
O11	O	0.783687	0.108141	0.068752
O12	O	1.283687	0.608141	0.568752
O13	O	1.004066	0.095684	0.068756
O14	O	1.504066	0.595684	0.568756
Cu15	Cu	0.893875	0.101912	0.081308
Cu16	Cu	1.393875	0.601912	0.581308
Cu17	Cu	0.893894	0.101921	-0.081294
Cu18	Cu	1.393894	0.601921	0.418706
O19	O	0.887650	0.212102	0.068746
O20	O	1.387650	0.712102	0.568746
C21	C	0.755498	0.107700	0.000005
C22	C	1.255498	0.607700	0.500005
C23	C	0.671479	0.106363	0.000003
C24	C	1.171479	0.606363	0.500003
C25	C	0.632003	0.105729	0.074952
C26	C	1.132003	0.605729	0.574952
C27	C	0.553061	0.104461	0.074953
C28	C	1.053061	0.604461	0.574953
C29	C	0.513595	0.103832	0.000004
C30	C	1.013595	0.603832	0.500004
C31	C	0.553077	0.104464	-0.074950
C32	C	1.053077	0.604464	0.425050
C33	C	0.632019	0.105726	-0.074950
C34	C	1.132019	0.605726	0.425050
C35	C	0.234714	0.099370	-0.074951
C36	C	0.734714	0.599370	0.425049
C37	C	0.155766	0.098110	-0.074945
C38	C	0.655766	0.598110	0.425055
C39	C	0.155755	0.098105	0.074952
C40	C	0.655755	0.598105	0.574952
C41	C	0.234697	0.099367	0.074951
C42	C	0.734697	0.599367	0.574951
C43	C	0.274173	0.099995	-0.000002
C44	C	0.774173	0.599995	0.499998
C45	C	0.359772	0.101369	-0.000002
C46	C	0.859772	0.601369	0.499998
C47	C	0.427997	0.102464	0.000004
C48	C	0.927997	0.602464	0.500004
C49	C	0.899664	-0.036470	0.000015
C50	C	1.399664	0.463530	0.500015
C51	C	0.898326	-0.120488	0.000015
C52	C	1.398326	0.379512	0.500015
C53	C	0.966659	-0.169110	0.000018
C54	C	1.466659	0.330890	0.500018
C55	C	0.965397	-0.248054	0.000010
C56	C	1.465397	0.251946	0.500010
C57	C	0.895800	-0.278373	0.000006
C58	C	1.395800	0.221627	0.500006
C59	C	0.827461	-0.229744	0.000001
C60	C	1.327461	0.270256	0.500001
C61	C	0.828724	-0.150803	0.000003
C62	C	1.328724	0.349197	0.500003
C63	C	0.822366	-0.548107	-0.000005
C64	C	1.322366	-0.048107	0.499995
C65	C	0.821108	-0.627055	-0.000004
C66	C	1.321108	-0.127055	0.499996
C67	C	0.959039	-0.645358	0.000002
C68	C	1.459039	-0.145358	0.500002
C69	C	0.960302	-0.566417	0.000003
C70	C	1.460302	-0.066417	0.500003
C71	C	0.891963	-0.517795	-0.000006
C72	C	1.391963	-0.017795	0.499994
C73	C	0.893333	-0.432196	0.000000
C74	C	1.393333	0.067804	0.500000
C75	C	0.894430	-0.363971	0.000006
C76	C	1.394430	0.136029	0.500006
C77	C	1.032271	0.096133	0.000008
C78	C	1.532271	0.596133	0.500008
C79	C	1.116289	0.097470	0.000004
C80	C	1.616289	0.597470	0.500004
C81	C	0.888104	0.240303	-0.000002
C82	C	1.388104	0.740303	0.499998
C83	C	0.889443	0.324321	-0.000008
C84	C	1.389443	0.824321	0.499992
N85	N	0.893867	0.101906	0.195673
N86	N	1.393867	0.601906	0.695673
N87	N	0.893907	0.101921	-0.195659
N88	N	1.393907	0.601921	0.304341
C89	C	0.945431	0.050377	0.238942
C90	C	1.445431	0.550377	0.738942
C91	C	0.945435	0.050376	0.325489
C92	C	1.445435	0.550376	0.825489
C93	C	0.893878	0.101908	0.368766
C94	C	1.393878	0.601908	0.868766
C95	C	0.842308	0.153439	0.325491
C96	C	1.342308	0.653439	0.825491
C97	C	0.842301	0.153436	0.238946
C98	C	1.342301	0.653436	0.738946
C99	C	0.842334	0.153454	0.674520
C100	C	1.342334	0.653454	1.174520
C101	C	0.842346	0.153455	0.761071
C102	C	1.342346	0.653455	1.261071
C103	C	0.945468	0.050393	0.761063
C104	C	1.445468	0.550393	1.261063
C105	C	0.945461	0.050390	0.674517
C106	C	1.445461	0.550390	1.174517
C107	C	0.893889	0.101918	0.631250
C108	C	1.393889	0.601918	1.131250
C109	C	0.893884	0.101918	0.537406
C110	C	1.393884	0.601918	1.037406
C111	C	0.893885	0.101913	0.462608
C112	C	1.393885	0.601913	0.962608
H113	H	0.520938	0.103946	-0.135974
H114	H	1.020938	0.603946	0.364026
H115	H	0.987422	0.008417	0.360718
H116	H	1.487422	0.508417	0.860718
O117	O	0.786677	0.209001	0.192267
O118	O	1.286677	0.709001	0.692267
H119	H	0.818454	0.245742	0.152808
H120	H	1.318454	0.745742	0.652808
H121	H	0.987418	0.008416	0.203711
H122	H	1.487418	0.508416	0.703711
O123	O	0.113207	0.097408	-0.155792
O124	O	0.613207	0.597408	0.344208
H125	H	0.121522	0.149206	-0.191755
H126	H	0.621522	0.649206	0.308245
O127	O	1.001061	-0.005197	0.627836
O128	O	1.501061	0.494803	1.127836
H129	H	1.060047	0.004360	0.644429
H130	H	1.560047	0.504360	1.144429
O131	O	0.674568	0.106417	0.155789
O132	O	1.174568	0.606417	0.655789
H133	H	0.633852	0.105759	0.207905
H134	H	1.133852	0.605759	0.707905
H135	H	0.520924	0.103932	0.135983
H136	H	1.020924	0.603932	0.635983
O137	O	1.001089	-0.005194	0.807727
O138	O	1.501089	0.494806	1.307727
H139	H	0.992429	0.003456	0.875179
H140	H	1.492429	0.503456	1.375179
H141	H	0.800343	0.195411	0.639299
H142	H	1.300343	0.695411	1.139299
O143	O	0.746037	-0.659755	-0.000009
O144	O	1.246037	-0.159755	0.499991
H145	H	0.756643	-0.722816	0.000003
H146	H	1.256643	-0.222816	0.500003
H147	H	0.664159	0.106244	-0.135981
H148	H	1.164159	0.606244	0.364019
O149	O	0.755019	-0.098360	0.000008
O150	O	1.255019	0.401640	0.500008
H151	H	0.752296	-0.061953	-0.056035
H152	H	1.252296	0.438047	0.443965
O153	O	1.041725	-0.136409	0.000014
O154	O	1.541725	0.363591	0.500014
H155	H	1.089028	-0.183485	0.000004
H156	H	1.589028	0.316515	0.500004
H157	H	1.021041	-0.287639	0.000014
H158	H	1.521041	0.212361	0.500014
H159	H	0.266826	0.099883	0.135982
H160	H	0.766826	0.599883	0.635982
H161	H	0.766721	-0.508528	-0.000013
H162	H	1.266721	-0.008528	0.499987
H163	H	0.266845	0.099879	-0.135983
H164	H	0.766845	0.599879	0.364017
H165	H	0.800359	0.195420	0.796306
H166	H	1.300359	0.695420	1.296306
H167	H	1.016974	-0.541735	0.000011
H168	H	1.516974	-0.041735	0.500011
H169	H	1.014683	-0.684956	0.000005
H170	H	1.514683	-0.184956	0.500005
H171	H	0.770794	-0.254436	-0.000007
H172	H	1.270794	0.245564	0.499993
H173	H	0.800325	0.195395	0.360733
H174	H	1.300325	0.695395	0.860733
H175	H	0.123605	0.097590	0.135983
H176	H	0.623605	0.597590	0.635983
