data_functionalizedCrystal
_audit_creation_method	'MofGen! by Chris Wilmer'
_symmetry_space_group_name_H-M	'P1'
_symmetry_Int_Tables_number	1
_symmetry_cell_setting	triclinic
loop_
_symmetry_equiv_pos_as_xyz
  x,y,z
_cell_length_a	8.497374
_cell_length_b	8.497374
_cell_length_c	11.169417
_cell_angle_alpha	89.998029
_cell_angle_beta	90.000620
_cell_angle_gamma	90.004389
loop_
_atom_site_label
_atom_site_type_symbol
_atom_site_fract_x
_atom_site_fract_y
_atom_site_fract_z
Zn1	Zn	0.892043	0.628279	1.834812
Zn2	Zn	0.628308	0.892029	1.834801
Zn3	Zn	0.628277	0.628261	1.634165
Zn4	Zn	0.892047	0.892015	1.634138
O5	O	0.760169	0.760146	1.734479
O6	O	0.857069	0.663280	2.002760
O7	O	0.407542	0.857037	1.808193
O8	O	0.663251	0.407501	1.660797
O9	O	0.663305	0.857055	2.002752
O10	O	0.857039	0.407515	1.808212
O11	O	0.407519	0.663248	1.660787
O12	O	0.663255	0.663235	1.466212
O13	O	1.112808	0.857032	1.660751
O14	O	0.857046	0.857014	1.466192
O15	O	1.112805	0.663267	1.808185
O16	O	0.663309	1.112789	1.808167
O17	O	0.857076	1.112779	1.660740
C18	C	0.760148	0.760122	1.422654
C19	C	0.760177	0.760150	1.289254
C20	C	1.350289	0.760172	1.734486
C21	C	1.171645	0.760164	1.734474
C22	C	0.760191	1.170026	1.734464
C23	C	0.760166	1.348670	1.734496
C24	C	0.760190	0.760171	2.047521
C25	C	0.760199	0.760182	2.180921
