data_functionalizedCrystal
_audit_creation_method	'MofGen! by Chris Wilmer'
_symmetry_space_group_name_H-M	'P1'
_symmetry_Int_Tables_number	1
_symmetry_cell_setting	triclinic
loop_
_symmetry_equiv_pos_as_xyz
  x,y,z
_cell_length_a	13.339070
_cell_length_b	8.559649
_cell_length_c	12.376774
_cell_angle_alpha	76.047001
_cell_angle_beta	80.998398
_cell_angle_gamma	92.703979
loop_
_atom_site_label
_atom_site_type_symbol
_atom_site_fract_x
_atom_site_fract_y
_atom_site_fract_z
O1	O	-1.296788	-0.808227	0.094021
O2	O	-1.010157	-0.706584	0.094017
O3	O	-1.178725	-0.535999	0.094018
O4	O	-1.128221	-0.978812	0.094020
O5	O	-1.149384	-0.468294	-0.093987
O6	O	-0.980816	-0.638880	-0.093988
O7	O	-1.267447	-0.740523	-0.093984
Zn8	Zn	-1.119473	-0.678952	-0.123836
Zn9	Zn	-1.158131	-0.768155	0.123869
O10	O	-1.098879	-0.911108	-0.093985
C11	C	-0.959131	-0.655563	0.000014
C12	C	-0.850805	-0.604385	0.000013
C13	C	-1.318473	-0.791545	0.000021
C14	C	-1.426801	-0.842725	0.000030
C15	C	-1.167882	-0.444314	0.000018
C16	C	-1.179276	-0.271987	0.000024
C17	C	-0.455100	-1.002319	0.000032
C18	C	-0.556877	-1.050410	0.000037
C19	C	-0.630364	-0.938907	0.000031
C20	C	-0.602064	-0.779307	0.000020
C21	C	-0.500278	-0.731215	0.000025
C22	C	-0.675542	-0.667803	0.000023
C23	C	-0.647242	-0.508203	0.000012
C24	C	-0.545465	-0.460119	0.000016
C25	C	-0.471978	-0.571621	0.000022
C26	C	-0.777328	-0.715895	0.000019
C27	C	-0.822506	-0.444791	0.000011
C28	C	-0.720728	-0.396701	0.000006
C29	C	-1.109722	-1.002793	0.000018
C30	C	-1.098330	-1.175123	0.000019
N31	N	-1.093097	-0.618075	-0.292887
C32	C	-1.031840	-0.476728	-0.352057
C33	C	-1.013366	-0.434114	-0.470392
C34	C	-1.056152	-0.532837	-0.529570
C35	C	-1.117416	-0.674182	-0.470400
C36	C	-1.135885	-0.716806	-0.352053
C37	C	-1.160197	-0.772916	-0.529566
C38	C	-1.221461	-0.914261	-0.470397
C39	C	-1.239928	-0.956878	-0.352062
C40	C	-1.197142	-0.858154	-0.292884
C41	C	-1.141728	-0.730291	-0.647913
C42	C	-1.245773	-0.970370	-0.647910
C43	C	-1.264247	-1.012984	-0.529575
N44	N	-1.184516	-0.829023	0.292921
H45	H	-0.800358	-0.845840	0.000023
H46	H	-1.257296	-0.223069	0.000016
H47	H	-1.091846	-0.615209	-0.696077
H48	H	-1.041107	-0.498132	-0.625924
C49	C	-0.989404	-0.145178	-0.506839
C50	C	-0.946036	-0.278754	-0.535435
H51	H	-0.947837	-0.049261	-0.547004
H52	H	-0.994270	-0.156429	-0.427903
H53	H	-1.055511	-0.139244	-0.526237
H54	H	-0.879931	-0.284695	-0.516030
H55	H	-0.941157	-0.267501	-0.614389
C56	C	-0.955827	-0.224119	0.096666
C57	C	-0.993005	-0.241133	0.000024
H58	H	-0.890801	-0.264869	0.096664
H59	H	-1.001523	-0.282860	0.162216
H60	H	-0.949930	-0.113079	0.096649
H61	H	-0.998910	-0.352175	0.000046
H62	H	-0.947298	-0.182395	-0.065543
C63	C	-0.751560	-1.155388	0.000026
C64	C	-0.742238	-0.991761	0.000023
H65	H	-0.820627	-1.188014	0.000010
H66	H	-0.730437	-1.218163	0.065591
H67	H	-0.709947	-1.170950	-0.065533
H68	H	-0.783846	-0.976200	0.065586
H69	H	-0.763373	-0.928967	-0.065549
H70	H	-0.997005	-0.396368	-0.303863
C71	C	-1.166958	-0.788489	-0.123365
C72	C	-1.217447	-0.904999	-0.162803
H73	H	-1.179490	-0.817414	-0.043058
H74	H	-1.191332	-0.686243	-0.150135
H75	H	-1.095808	-0.782816	-0.150141
H76	H	-1.288598	-0.910664	-0.136033
H77	H	-1.193078	-1.007273	-0.136021
H78	H	-0.697673	-0.266754	0.000007
C79	C	-1.340925	-1.189898	-0.363947
C80	C	-1.307265	-1.112248	-0.287021
H81	H	-1.382501	-1.285811	-0.323793
H82	H	-1.283803	-1.216576	-0.410102
H83	H	-1.379314	-1.119974	-0.410106
H84	H	-1.268869	-1.182168	-0.240868
H85	H	-1.364396	-1.085575	-0.240847
H86	H	-1.314128	-1.128070	-0.481382
H87	H	-1.280608	-1.050764	-0.696092
C88	C	-0.329512	-1.140278	0.096692
C89	C	-0.374322	-1.124865	0.000043
H90	H	-0.279638	-1.215931	0.096693
H91	H	-0.380391	-1.177020	0.162237
H92	H	-0.298103	-1.038333	0.096679
H93	H	-0.405739	-1.226807	0.000059
H94	H	-0.323435	-1.088129	-0.065520
C95	C	-0.353559	-0.463739	0.096667
C96	C	-0.360099	-0.518761	0.000022
H97	H	-0.284488	-0.431102	0.096662
H98	H	-0.378469	-0.548290	0.162215
H99	H	-0.393272	-0.374489	0.096656
H100	H	-0.320392	-0.608020	0.000038
H101	H	-0.335176	-0.434203	-0.065543
H102	H	-0.882341	-0.353997	0.000010
H103	H	-0.579913	-1.180359	0.000054
H104	H	-0.522430	-0.330167	0.000020
