data_functionalizedCrystal
_audit_creation_method	'MofGen! by Chris Wilmer'
_symmetry_space_group_name_H-M	'P1'
_symmetry_Int_Tables_number	1
_symmetry_cell_setting	triclinic
loop_
_symmetry_equiv_pos_as_xyz
  x,y,z
_cell_length_a	14.044209
_cell_length_b	12.503572
_cell_length_c	14.044209
_cell_angle_alpha	86.158573
_cell_angle_beta	93.187953
_cell_angle_gamma	93.834595
loop_
_atom_site_label
_atom_site_type_symbol
_atom_site_fract_x
_atom_site_fract_y
_atom_site_fract_z
O1	O	-1.282198	-0.089202	-0.225106
O2	O	-0.782198	0.410798	0.274894
O3	O	-1.005528	-0.089232	-0.216801
O4	O	-0.505528	0.410768	0.283199
O5	O	-1.139711	-0.089202	-0.082619
O6	O	-0.639711	0.410798	0.417381
O7	O	-1.148016	-0.089232	-0.359289
O8	O	-0.648016	0.410768	0.140711
O9	O	-1.129621	0.089438	-0.092728
O10	O	-0.629621	0.589438	0.407272
O11	O	-0.995439	0.089408	-0.226911
O12	O	-0.495439	0.589408	0.273089
O13	O	-1.272109	0.089438	-0.235216
O14	O	-0.772109	0.589438	0.264784
Cu15	Cu	-1.132852	0.105734	-0.231986
Cu16	Cu	-0.632852	0.605734	0.268014
Cu17	Cu	-1.144785	-0.105528	-0.220031
Cu18	Cu	-0.644785	0.394472	0.279969
O19	O	-1.137926	0.089408	-0.369398
O20	O	-0.637926	0.589408	0.130602
C21	C	-0.964862	0.000084	-0.218220
C22	C	-0.464862	0.500084	0.281780
C23	C	-0.858720	0.000073	-0.207376
C24	C	-0.358720	0.500073	0.292624
N25	N	-1.124467	0.254324	-0.240395
N26	N	-0.624467	0.754324	0.259605
C27	C	-0.664381	0.000094	-0.187553
C28	C	-0.164381	0.500094	0.312447
C29	C	-0.613251	0.000090	-0.264467
C30	C	-0.113251	0.500090	0.235533
C31	C	-0.505114	0.000102	-0.253437
C32	C	-0.005114	0.500102	0.246563
C33	C	-0.772528	0.000083	-0.198581
C34	C	-0.272528	0.500083	0.301419
C35	C	-1.131031	0.000119	-0.052052
C36	C	-0.631031	0.500119	0.447948
C37	C	-1.120187	0.000123	0.054091
C38	C	-0.620187	0.500123	0.554091
C39	C	-0.312775	0.000116	-0.233798
C40	C	0.187225	0.500116	0.266202
C41	C	-0.418918	0.000111	-0.244648
C42	C	0.081082	0.500111	0.255352
N43	N	-1.153177	-0.254119	-0.211615
N44	N	-0.653177	0.245881	0.288385
C45	C	-1.112132	0.473437	-0.252774
C46	C	-0.612132	0.973437	0.247226
C47	C	-1.165509	0.526776	-0.199240
C48	C	-0.665509	1.026776	0.300760
C49	C	-1.158646	0.648698	-0.206127
C50	C	-0.658646	1.148698	0.293873
C51	C	-1.118994	0.351504	-0.245887
C52	C	-0.618994	0.851504	0.254113
C53	C	-1.100363	0.000112	0.248429
C54	C	-0.600363	0.500112	0.748429
C55	C	-1.177277	0.000119	0.299559
C56	C	-0.677277	0.500119	0.799559
C57	C	-1.166247	0.000112	0.407695
C58	C	-0.666247	0.500112	0.907695
C59	C	-1.111391	0.000118	0.140282
C60	C	-0.611391	0.500118	0.640282
C61	C	-1.146608	0.000093	0.600035
C62	C	-0.646608	0.500093	1.100035
C63	C	-1.157457	0.000107	0.493891
C64	C	-0.657457	0.500107	0.993891
H65	H	-0.650690	0.000077	-0.338600
H66	H	-0.150690	0.500077	0.161400
H67	H	-0.626944	0.000108	-0.113426
H68	H	-0.126944	0.500108	0.386574
H69	H	-1.216363	0.480874	-0.148236
H70	H	-0.716363	0.980874	0.351764
Cl71	Cl	-0.985914	0.000096	0.306229
Cl72	Cl	-0.485914	0.500096	0.806229
Cl73	Cl	-1.033626	0.544299	-0.331520
Cl74	Cl	-0.533626	1.044299	0.168480
H75	H	-1.251414	0.000053	0.262124
H76	H	-0.751414	0.500053	0.762124
