data_functionalizedCrystal
_audit_creation_method	'MofGen! by Chris Wilmer'
_symmetry_space_group_name_H-M	'P1'
_symmetry_Int_Tables_number	1
_symmetry_cell_setting	triclinic
loop_
_symmetry_equiv_pos_as_xyz
  x,y,z
_cell_length_a	16.625547
_cell_length_b	16.625545
_cell_length_c	18.215399
_cell_angle_alpha	89.973113
_cell_angle_beta	89.976077
_cell_angle_gamma	90.025495
loop_
_atom_site_label
_atom_site_type_symbol
_atom_site_fract_x
_atom_site_fract_y
_atom_site_fract_z
Zn1	Zn	1.232656	-0.321011	-0.416202
Zn2	Zn	1.732656	0.178989	0.083798
Zn3	Zn	1.232554	-0.455851	-0.293138
Zn4	Zn	1.732554	0.044149	0.206862
Zn5	Zn	1.097820	-0.321036	-0.293140
Zn6	Zn	1.597820	0.178964	0.206860
Zn7	Zn	1.097781	-0.455805	-0.416154
Zn8	Zn	1.597781	0.044195	0.083846
O9	O	1.165203	-0.388426	-0.354658
O10	O	1.665203	0.111574	0.145342
O11	O	1.345475	-0.338907	-0.399896
O12	O	1.845475	0.161093	0.100104
O13	O	1.214655	-0.437998	-0.190154
O14	O	1.714655	0.062002	0.309846
O15	O	1.115765	-0.208201	-0.309486
O16	O	1.615765	0.291799	0.190514
O17	O	1.345400	-0.437973	-0.309481
O18	O	1.845400	0.062027	0.190519
O19	O	1.214829	-0.208182	-0.399898
O20	O	1.714829	0.291818	0.100102
O21	O	1.115666	-0.338950	-0.190156
O22	O	1.615666	0.161050	0.309844
O23	O	0.984982	-0.338905	-0.309439
O24	O	1.484982	0.161095	0.190561
O25	O	1.115699	-0.437895	-0.519144
O26	O	1.615699	0.062105	-0.019144
O27	O	0.984954	-0.437919	-0.399817
O28	O	1.484954	0.062081	0.100183
O29	O	1.214791	-0.338862	-0.519180
O30	O	1.714791	0.161138	-0.019180
O31	O	1.214617	-0.568678	-0.309435
O32	O	1.714617	-0.068678	0.190565
O33	O	1.115600	-0.568644	-0.399814
O34	O	1.615600	-0.068644	0.100186
C35	C	0.955712	-0.388410	-0.354624
C36	C	1.455712	0.111590	0.145376
C37	C	0.866091	-0.388423	-0.354626
C38	C	1.366091	0.111577	0.145374
C39	C	0.793308	-0.388425	-0.354635
C40	C	1.293308	0.111575	0.145365
C41	C	0.702000	-0.388429	-0.354654
C42	C	1.202000	0.111571	0.145346
C43	C	0.629223	-0.388436	-0.354672
C44	C	1.129223	0.111564	0.145328
C45	C	0.537909	-0.388442	-0.354690
C46	C	1.037909	0.111558	0.145310
C47	C	1.165115	-0.597917	-0.354635
C48	C	1.665115	-0.097917	0.145365
C49	C	1.165151	-0.687538	-0.354650
C50	C	1.665151	-0.187538	0.145350
C51	C	1.165183	-0.760321	-0.354664
C52	C	1.665183	-0.260321	0.145336
C53	C	1.165230	-0.851629	-0.354681
C54	C	1.665230	-0.351629	0.145319
C55	C	1.165272	-0.924405	-0.354690
C56	C	1.665272	-0.424405	0.145310
C57	C	1.165318	-1.015720	-0.354705
C58	C	1.665318	-0.515720	0.145295
C59	C	1.375512	-0.388442	-0.354694
C60	C	1.875512	0.111558	0.145306
C61	C	1.465133	-0.388449	-0.354709
C62	C	1.965133	0.111551	0.145291
C63	C	1.165252	-0.388371	-0.546611
C64	C	1.665252	0.111629	-0.046611
C65	C	1.165273	-0.388347	-0.628410
C66	C	1.665273	0.111653	-0.128410
C67	C	1.165313	-0.178117	-0.354698
C68	C	1.665313	0.321883	0.145302
C69	C	1.165360	-0.088496	-0.354714
C70	C	1.665360	0.411504	0.145286
C71	C	1.216889	-0.336732	-0.816624
C72	C	1.716889	0.163268	-0.316624
C73	C	1.216898	-0.336709	-0.893483
C74	C	1.716898	0.163291	-0.393483
C75	C	1.113714	-0.439837	-0.893435
C76	C	1.613714	0.060163	-0.393435
C77	C	1.113701	-0.439856	-0.816577
C78	C	1.613701	0.060144	-0.316577
C79	C	1.165293	-0.388305	-0.778174
C80	C	1.665293	0.111695	-0.278174
C81	C	1.165316	-0.388262	-0.931890
C82	C	1.665316	0.111738	-0.431890
C83	C	1.165326	-0.388237	-1.015224
C84	C	1.665326	0.111763	-0.515224
C85	C	1.165282	-0.388328	-0.694835
C86	C	1.665282	0.111672	-0.194835
C87	C	1.165200	-0.388423	-0.163452
C88	C	1.665200	0.111577	0.336548
C89	C	1.165336	-0.388220	-0.081654
C90	C	1.665336	0.111780	0.418346
H91	H	1.258896	-0.294754	-0.785358
H92	H	1.758896	0.205246	-0.285358
C93	C	1.273660	-0.279977	-0.935774
C94	C	1.773660	0.220023	-0.435774
N95	N	1.316415	-0.237244	-0.967627
N96	N	1.816415	0.262756	-0.467627
C97	C	1.056936	-0.496589	-0.774280
C98	C	1.556936	0.003411	-0.274280
N99	N	1.014180	-0.539318	-0.742421
N100	N	1.514180	-0.039318	-0.242421
H101	H	1.071712	-0.481809	-0.924712
H102	H	1.571712	0.018191	-0.424712
