data_functionalizedCrystal
_audit_creation_method	'MofGen! by Chris Wilmer'
_symmetry_space_group_name_H-M	'P1'
_symmetry_Int_Tables_number	1
_symmetry_cell_setting	triclinic
loop_
_symmetry_equiv_pos_as_xyz
  x,y,z
_cell_length_a	16.109301
_cell_length_b	10.654550
_cell_length_c	14.586319
_cell_angle_alpha	89.996358
_cell_angle_beta	89.999213
_cell_angle_gamma	83.973206
loop_
_atom_site_label
_atom_site_type_symbol
_atom_site_fract_x
_atom_site_fract_y
_atom_site_fract_z
O1	O	1.104091	0.161419	-0.076182
O2	O	0.862148	0.181507	-0.076197
O3	O	0.988682	-0.011352	-0.076183
O4	O	0.977557	0.354278	-0.076195
O5	O	0.988673	-0.011354	0.076298
O6	O	0.862139	0.181504	0.076284
O7	O	1.104082	0.161416	0.076299
Cu8	Cu	0.983110	0.171460	0.090214
Cu9	Cu	0.983120	0.171463	-0.090112
O10	O	0.977548	0.354275	0.076285
C11	C	0.831164	0.180692	0.000042
C12	C	0.738854	0.178253	0.000037
C13	C	0.517228	0.287019	0.000044
C14	C	0.430494	0.284717	0.000049
C15	C	0.449008	0.055896	0.000053
C16	C	0.535741	0.058199	0.000054
C17	C	0.569848	0.173764	0.000044
C18	C	0.396382	0.169159	0.000050
C19	C	0.302341	0.166662	0.000056
C20	C	0.663895	0.176262	0.000040
C21	C	0.987861	-0.058140	0.000057
C22	C	0.985417	-0.197550	0.000055
C23	C	1.059918	-0.278046	0.000059
C24	C	1.057616	-0.409036	0.000048
C25	C	0.906306	-0.379020	0.000032
C26	C	0.908608	-0.248033	0.000037
C27	C	1.145364	-0.606070	-0.053373
C28	C	1.219869	-0.686572	-0.053353
C29	C	1.287407	-0.657317	0.000086
C30	C	1.280443	-0.547563	0.053528
C31	C	1.205937	-0.467068	0.053516
C32	C	1.138402	-0.496322	0.000056
C33	C	0.820866	-0.050997	0.053465
C34	C	0.746359	0.029500	0.053460
C35	C	0.678814	0.000249	0.000026
C36	C	0.685770	-0.109507	-0.053402
C37	C	0.760277	-0.190004	-0.053397
C38	C	0.827822	-0.160745	0.000036
C39	C	1.135066	0.162231	0.000058
C40	C	1.227376	0.164671	0.000058
C41	C	0.978369	0.401063	0.000043
C42	C	0.980813	0.540473	0.000039
N43	N	0.983108	0.171457	0.217046
N44	N	0.983128	0.171457	-0.216944
C45	C	1.039156	0.086088	0.452058
C46	C	1.039159	0.086084	0.548040
C47	C	0.927074	0.256830	0.548037
C48	C	0.927068	0.256826	0.452058
C49	C	0.983114	0.171456	0.404071
C50	C	0.983122	0.171457	0.596031
C51	C	0.983124	0.171455	0.700099
C52	C	0.983111	0.171457	0.299997
H53	H	0.421227	-0.038193	0.000067
Br54	Br	0.736907	0.178434	0.125997
Br55	Br	0.359084	0.438426	0.000053
Br56	Br	0.607160	-0.095514	0.000067
H57	H	1.122460	-0.236948	0.000072
Br58	Br	0.850999	0.372682	0.386924
H59	H	1.200265	-0.377712	0.097031
Br60	Br	1.372104	-0.507876	0.126067
H61	H	0.630762	-0.133341	-0.096893
Br62	Br	0.912540	-0.011285	0.125981
Br63	Br	1.115217	-0.029773	0.386936
H64	H	1.348071	-0.722871	0.000101
Br65	Br	0.851016	0.372687	0.613165
H66	H	1.084792	0.016568	0.587108
H67	H	1.225535	-0.775931	-0.096872
H68	H	1.090378	-0.629892	-0.096901
H69	H	0.544996	0.381119	0.000043
Br70	Br	0.802071	-0.447541	0.000005
H71	H	0.618142	0.065794	0.000039
Br72	Br	0.769717	-0.338965	-0.125905
