data_functionalizedCrystal
_audit_creation_method	'MofGen! by Chris Wilmer'
_symmetry_space_group_name_H-M	'P1'
_symmetry_Int_Tables_number	1
_symmetry_cell_setting	triclinic
loop_
_symmetry_equiv_pos_as_xyz
  x,y,z
_cell_length_a	12.594517
_cell_length_b	21.295412
_cell_length_c	12.594516
_cell_angle_alpha	90.020623
_cell_angle_beta	89.983990
_cell_angle_gamma	89.983214
loop_
_atom_site_label
_atom_site_type_symbol
_atom_site_fract_x
_atom_site_fract_y
_atom_site_fract_z
Zn1	Zn	1.627293	-0.355842	0.423770
Zn2	Zn	1.627176	-0.250586	0.601763
Zn3	Zn	1.449289	-0.250600	0.423799
Zn4	Zn	1.449279	-0.355830	0.601707
O5	O	1.538259	-0.303215	0.512759
O6	O	1.776223	-0.341879	0.447393
O7	O	1.603534	-0.162499	0.578191
O8	O	1.472955	-0.264571	0.274849
O9	O	1.776137	-0.264548	0.578163
O10	O	1.603733	-0.341892	0.274828
O11	O	1.472842	-0.162509	0.447441
O12	O	1.300342	-0.264559	0.447387
O13	O	1.472938	-0.443921	0.578067
O14	O	1.300335	-0.341872	0.578095
O15	O	1.603724	-0.443930	0.447338
O16	O	1.603525	-0.264536	0.750701
O17	O	1.472824	-0.341859	0.750660
C18	C	1.261718	-0.303216	0.512739
C19	C	1.143413	-0.303232	0.512756
C20	C	1.003423	-0.345204	0.583977
C21	C	1.074189	-0.287753	0.609875
C22	C	1.074218	-0.360676	0.486905
C23	C	1.003394	-0.245732	0.538739
C24	C	1.003416	-0.318693	0.415724
C25	C	1.074151	-0.261203	0.441585
C26	C	1.538343	-0.467405	0.512693
C27	C	1.538378	-0.537373	0.512665
C28	C	1.470344	-0.570235	0.444576
C29	C	1.470341	-0.635978	0.444556
C30	C	1.538389	-0.668856	0.512614
C31	C	1.606428	-0.635986	0.580716
C32	C	1.606422	-0.570245	0.580742
N33	N	1.631565	-0.772088	0.520743
N34	N	1.631567	-0.834540	0.520713
C35	C	1.538409	-0.866930	0.512543
N36	N	1.445246	-0.834510	0.504385
N37	N	1.445245	-0.772053	0.504410
C38	C	1.538403	-0.740141	0.512595
C39	C	1.470366	-0.971078	0.444429
C40	C	1.470360	-1.036822	0.444417
C41	C	1.606457	-1.036829	0.580572
C42	C	1.606453	-0.971086	0.580590
C43	C	1.538409	-0.938215	0.512513
C44	C	1.815880	-0.303214	0.512781
C45	C	1.934186	-0.303213	0.512790
C46	C	1.538190	-0.303208	0.789300
C47	C	1.538257	-0.303227	0.907606
C48	C	1.538238	-0.139663	0.512749
C49	C	1.538408	-0.069695	0.512477
C50	C	1.538358	-0.303235	0.235139
C51	C	1.538401	-0.303243	0.116833
C52	C	1.467162	-0.345253	0.976875
C53	C	1.441225	-0.287814	1.047731
C54	C	1.564292	-0.360675	1.047549
C55	C	1.512268	-0.245758	0.976904
C56	C	1.635380	-0.318658	0.976715
C57	C	1.609480	-0.261179	1.047539
H58	H	1.414934	-0.543475	0.389147
C59	C	0.998667	-0.293037	0.230158
C60	C	0.961405	-0.336386	0.304963
H61	H	0.972733	-0.303968	0.161779
H62	H	0.974456	-0.252194	0.248444
H63	H	1.074085	-0.293558	0.229509
H64	H	0.885987	-0.335862	0.305618
H65	H	0.985610	-0.377239	0.286672
C66	C	1.814354	-0.347760	1.020174
C67	C	1.746142	-0.336296	0.934568
H68	H	1.882732	-0.358658	0.994150
H69	H	1.819495	-0.311067	1.062758
H70	H	1.787103	-0.381337	1.061660
H71	H	1.773390	-0.302716	0.893086
H72	H	1.741005	-0.372994	0.891966
C73	C	1.666880	-0.736767	0.641115
C74	C	1.681235	-0.672123	0.655521
H75	H	1.713068	-0.759074	0.687296
H76	H	1.595371	-0.747528	0.656686
H77	H	1.682484	-0.747539	0.569592
H78	H	1.665623	-0.661350	0.727042
H79	H	1.752761	-0.661357	0.639957
H80	H	1.586254	-0.409252	1.078581
H81	H	1.105328	-0.409264	0.465025
C82	C	0.997214	-0.376712	0.766900
C83	C	0.961486	-0.393070	0.665320
H84	H	0.971316	-0.406258	0.817118
H85	H	1.072623	-0.376784	0.767889
H86	H	0.971918	-0.336001	0.784589
H87	H	0.986789	-0.433779	0.647628
H88	H	0.886061	-0.393003	0.664328
H89	H	1.414941	-0.662739	0.389105
C90	C	1.740946	-0.576856	0.715321
C91	C	1.681217	-0.534119	0.655584
H92	H	1.787127	-0.554551	0.761519
H93	H	1.694559	-0.602484	0.756022
H94	H	1.781676	-0.602511	0.668932
H95	H	1.640482	-0.508467	0.701973
H96	H	1.727611	-0.508480	0.614880
C97	C	1.227333	-0.269725	0.719209
C98	C	1.116166	-0.270081	0.720665
H99	H	1.253241	-0.258814	0.787607
H100	H	1.252617	-0.310248	0.700350
H101	H	1.251532	-0.239862	0.668692
H102	H	1.091966	-0.299947	0.771176
H103	H	1.090872	-0.229552	0.739537
H104	H	0.972414	-0.197130	0.560718
C105	C	1.226995	-0.213985	0.360325
C106	C	1.115824	-0.213227	0.360294
H107	H	1.252721	-0.184368	0.310137
H108	H	1.252292	-0.203339	0.429050
H109	H	1.251365	-0.254762	0.341790
H110	H	1.091454	-0.172451	0.378837
H111	H	1.090516	-0.223869	0.291554
H112	H	1.669663	-0.225605	1.078371
H113	H	1.414959	-0.944313	0.388998
C114	C	1.335856	-1.030207	0.309819
C115	C	1.395573	-1.072946	0.369566
H116	H	1.289691	-1.052511	0.263604
H117	H	1.295121	-1.004556	0.356193
H118	H	1.382261	-1.004576	0.269125
H119	H	1.349168	-1.098575	0.410265
H120	H	1.436311	-1.098608	0.323186
C121	C	1.666917	-1.137605	0.640966
C122	C	1.681272	-1.072961	0.655371
H123	H	1.713113	-1.159912	0.687140
H124	H	1.595410	-1.148367	0.656549
H125	H	1.682510	-1.148377	0.569441
H126	H	1.665671	-1.062188	0.726894
H127	H	1.752795	-1.062195	0.639795
C128	C	1.740986	-0.977699	0.715153
C129	C	1.681253	-0.934960	0.655422
H130	H	1.787170	-0.955395	0.761349
H131	H	1.694602	-1.003327	0.755856
H132	H	1.781713	-1.003353	0.668760
H133	H	1.640520	-0.909309	0.701816
H134	H	1.727644	-0.909321	0.614716
C135	C	1.284278	-0.376853	0.970830
C136	C	1.385861	-0.393160	0.934974
H137	H	1.234086	-0.406425	0.944955
H138	H	1.283328	-0.376925	1.046240
H139	H	1.266522	-0.336151	0.945596
H140	H	1.403620	-0.433860	0.960215
H141	H	1.386813	-0.393094	0.859549
C142	C	1.331952	-0.269840	1.201015
C143	C	1.330434	-0.270198	1.089849
H144	H	1.263554	-0.258964	1.227011
H145	H	1.350879	-0.310354	1.226234
H146	H	1.382442	-0.239952	1.225190
H147	H	1.279949	-0.300090	1.065674
H148	H	1.311494	-0.229678	1.064620
H149	H	1.490211	-0.197168	0.946000
