data_functionalizedCrystal
_audit_creation_method	'MofGen! by Chris Wilmer'
_symmetry_space_group_name_H-M	'P1'
_symmetry_Int_Tables_number	1
_symmetry_cell_setting	triclinic
loop_
_symmetry_equiv_pos_as_xyz
  x,y,z
_cell_length_a	10.723023
_cell_length_b	10.654549
_cell_length_c	9.730223
_cell_angle_alpha	89.997731
_cell_angle_beta	90.002492
_cell_angle_gamma	95.523837
loop_
_atom_site_label
_atom_site_type_symbol
_atom_site_fract_x
_atom_site_fract_y
_atom_site_fract_z
O1	O	-0.175273	1.667812	-0.114252
O2	O	0.324727	2.167812	0.385748
O3	O	-0.191972	1.302331	-0.114261
O4	O	0.308028	1.802331	0.385739
O5	O	-0.002047	1.493503	-0.114254
O6	O	0.497953	1.993503	0.385746
O7	O	-0.365197	1.476641	-0.114259
O8	O	0.134803	1.976641	0.385741
O9	O	-0.002042	1.493490	0.114326
O10	O	0.497958	1.993490	0.614326
O11	O	-0.191967	1.302319	0.114319
O12	O	0.308033	1.802319	0.614319
O13	O	-0.175267	1.667800	0.114328
O14	O	0.324733	2.167800	0.614328
Zn15	Zn	-0.183616	1.485058	0.150615
Zn16	Zn	0.316384	1.985058	0.650615
Zn17	Zn	-0.183623	1.485074	-0.150548
Zn18	Zn	0.316377	1.985074	0.349452
O19	O	-0.365192	1.476629	0.114321
O20	O	0.134808	1.976629	0.614321
C21	C	-0.190743	1.255527	0.000028
C22	C	0.309257	1.755527	0.500028
C23	C	-0.187075	1.116085	0.000024
C24	C	0.312925	1.616085	0.500024
C25	C	-0.295444	0.905553	0.000028
C26	C	0.204556	1.405553	0.500028
C27	C	-0.298900	1.036573	0.000020
C28	C	0.201100	1.536573	0.500020
C29	C	-0.071787	1.064570	0.000023
C30	C	0.428213	1.564570	0.500023
C31	C	-0.068332	0.933552	0.000021
C32	C	0.431668	1.433552	0.500021
C33	C	-0.411694	1.477862	0.000030
C34	C	0.088306	1.977862	0.500030
C35	C	-0.550249	1.481532	0.000028
C36	C	-0.050249	1.981532	0.500028
C37	C	-0.612019	1.483162	0.118438
C38	C	-0.112019	1.983162	0.618438
C39	C	-0.755223	1.486956	0.118439
C40	C	-0.255223	1.986956	0.618439
C41	C	0.044455	1.492270	0.000034
C42	C	0.544455	1.992270	0.500034
C43	C	0.183010	1.488599	0.000027
C44	C	0.683010	1.988599	0.500027
C45	C	-0.176496	1.714604	0.000036
C46	C	0.323504	2.214604	0.500036
C47	C	-0.180164	1.854047	0.000031
C48	C	0.319836	2.354047	0.500031
N49	N	-0.183611	1.485056	0.356152
N50	N	0.316389	1.985056	0.856152
N51	N	-0.183619	1.485086	-0.356085
N52	N	0.316381	1.985086	0.143915
C53	C	-0.099548	1.569735	0.428081
C54	C	0.400452	2.069735	0.928081
C55	C	-0.099548	1.569748	0.571964
C56	C	0.400452	2.069748	1.071964
C57	C	-0.267686	1.400397	0.571976
C58	C	0.232314	1.900397	1.071976
C59	C	-0.267678	1.400379	0.428096
C60	C	0.232322	1.900379	0.928096
H61	H	-0.392772	1.078503	0.000016
H62	H	0.107228	1.578503	0.500016
H63	H	0.019263	1.129319	0.000018
H64	H	0.519263	1.629319	0.500018
H65	H	-0.336133	1.331457	0.630567
H66	H	0.163867	1.831457	1.130567
H67	H	0.025548	0.891616	0.000019
H68	H	0.525548	1.391616	0.500019
Cl69	Cl	-0.529996	1.480964	0.274962
Cl70	Cl	-0.029996	1.980964	0.774962
H71	H	-0.808342	1.488365	0.219814
H72	H	-0.308342	1.988365	0.719814
Cl73	Cl	-0.734990	1.486445	-0.156503
Cl74	Cl	-0.234990	1.986445	0.343497
Cl75	Cl	-0.632276	1.483704	-0.156496
Cl76	Cl	-0.132276	1.983704	0.343504
Cl77	Cl	0.006142	1.676181	0.337643
Cl78	Cl	0.506142	2.176181	0.837643
Cl79	Cl	-0.373359	1.293910	0.337661
Cl80	Cl	0.126641	1.793910	0.837661
H81	H	-0.386505	0.840823	0.000035
H82	H	0.113495	1.340823	0.500035
Cl83	Cl	0.006138	1.676204	0.662385
Cl84	Cl	0.506138	2.176204	1.162385
