data_functionalizedCrystal
_audit_creation_method	'MofGen! by Chris Wilmer'
_symmetry_space_group_name_H-M	'P1'
_symmetry_Int_Tables_number	1
_symmetry_cell_setting	triclinic
loop_
_symmetry_equiv_pos_as_xyz
  x,y,z
_cell_length_a	11.169417
_cell_length_b	11.169416
_cell_length_c	12.759393
_cell_angle_alpha	89.970814
_cell_angle_beta	89.982015
_cell_angle_gamma	90.011398
loop_
_atom_site_label
_atom_site_type_symbol
_atom_site_fract_x
_atom_site_fract_y
_atom_site_fract_z
Zn1	Zn	1.834946	-0.477696	-0.593986
Zn2	Zn	2.334946	0.022304	-0.093986
Zn3	Zn	1.834841	-0.678429	-0.418314
Zn4	Zn	2.334841	-0.178429	0.081686
Zn5	Zn	1.634237	-0.477763	-0.418327
Zn6	Zn	2.134237	0.022237	0.081673
Zn7	Zn	1.634240	-0.678340	-0.593956
Zn8	Zn	2.134240	-0.178340	-0.093956
O9	O	1.734566	-0.578057	-0.506146
O10	O	2.234566	-0.078057	-0.006146
O11	O	2.002882	-0.504333	-0.570689
O12	O	2.502882	-0.004333	-0.070689
O13	O	1.808186	-0.651875	-0.271294
O14	O	2.308186	-0.151875	0.228706
O15	O	1.660904	-0.309804	-0.441646
O16	O	2.160904	0.190196	0.058354
O17	O	2.002805	-0.651810	-0.441624
O18	O	2.502805	-0.151810	0.058376
O19	O	1.808364	-0.309755	-0.570702
O20	O	2.308364	0.190245	-0.070702
O21	O	1.660803	-0.504446	-0.271304
O22	O	2.160803	-0.004446	0.228696
O23	O	1.466288	-0.504360	-0.441618
O24	O	1.966288	-0.004360	0.058382
O25	O	1.660909	-0.651659	-0.740981
O26	O	2.160909	-0.151659	-0.240981
O27	O	1.466290	-0.651724	-0.570652
O28	O	1.966290	-0.151724	-0.070652
O29	O	1.808367	-0.504247	-0.741003
O30	O	2.308367	-0.004247	-0.241003
O31	O	1.808188	-0.846367	-0.441595
O32	O	2.308188	-0.346367	0.058405
O33	O	1.660807	-0.846301	-0.570639
O34	O	2.160807	-0.346301	-0.070639
C35	C	1.422741	-0.578041	-0.506134
C36	C	1.922741	-0.078041	-0.006134
C37	C	1.289341	-0.578063	-0.506153
C38	C	1.789341	-0.078063	-0.006153
C39	C	1.734519	-0.889881	-0.506135
C40	C	2.234519	-0.389881	-0.006135
C41	C	1.734609	-1.023281	-0.506166
C42	C	2.234609	-0.523281	-0.006166
C43	C	2.047608	-0.578074	-0.506158
C44	C	2.547608	-0.078074	-0.006158
C45	C	2.181008	-0.578081	-0.506164
C46	C	2.681008	-0.078081	-0.006164
C47	C	1.734650	-0.577935	-0.780179
C48	C	2.234650	-0.077935	-0.280179
C49	C	1.734685	-0.577884	-0.896956
C50	C	2.234685	-0.077884	-0.396956
C51	C	1.734645	-0.265014	-0.506179
C52	C	2.234645	0.234986	-0.006179
C53	C	1.734679	-0.131614	-0.506193
C54	C	2.234679	0.368386	-0.006193
C55	C	1.657971	-0.501104	-0.951822
C56	C	2.157971	-0.001104	-0.451822
C57	C	1.657999	-0.501067	-1.061547
C58	C	2.157999	-0.001067	-0.561547
C59	C	1.811466	-0.654593	-1.061528
C60	C	2.311466	-0.154593	-0.561528
C61	C	1.811432	-0.654635	-0.951806
C62	C	2.311432	-0.154635	-0.451806
C63	C	1.734552	-0.578091	-0.233178
C64	C	2.234552	-0.078091	0.266822
C65	C	1.734748	-0.577805	-0.116402
C66	C	2.234748	-0.077805	0.383598
H67	H	1.595479	-0.438608	-0.907167
H68	H	2.095479	0.061392	-0.407167
C69	C	1.828019	-0.816129	-0.828393
C70	C	2.328019	-0.316129	-0.328393
C71	C	1.895762	-0.739041	-0.891489
C72	C	2.395762	-0.239041	-0.391489
H73	H	1.880078	-0.868241	-0.791162
H74	H	2.380078	-0.368241	-0.291162
H75	H	1.782316	-0.770429	-0.780030
H76	H	2.282316	-0.270429	-0.280030
H77	H	1.775734	-0.862011	-0.871202
H78	H	2.275734	-0.362011	-0.371202
H79	H	1.948041	-0.693152	-0.848679
H80	H	2.448041	-0.193152	-0.348679
H81	H	1.941486	-0.784745	-0.939858
H82	H	2.441486	-0.284745	-0.439858
C83	C	1.454800	-0.442565	-1.095307
C84	C	1.954800	0.057435	-0.595307
C85	C	1.573670	-0.416663	-1.121850
C86	C	2.073670	0.083337	-0.621850
H87	H	1.402738	-0.390450	-1.132530
H88	H	1.902738	0.109550	-0.632530
H89	H	1.437224	-0.523184	-1.113283
H90	H	1.937224	-0.023184	-0.613283
H91	H	1.443821	-0.431607	-1.022107
H92	H	1.943821	0.068393	-0.522107
H93	H	1.584651	-0.427629	-1.195049
H94	H	2.084651	0.072371	-0.695049
H95	H	1.591253	-0.336024	-1.103881
H96	H	2.091253	0.163976	-0.603881
C97	C	1.879670	-0.722692	-1.229717
C98	C	2.379670	-0.222692	-0.729717
C99	C	1.895832	-0.738946	-1.121823
C100	C	2.395832	-0.238946	-0.621823
H101	H	1.931762	-0.774765	-1.266937
H102	H	2.431762	-0.274765	-0.766937
H103	H	1.799041	-0.740247	-1.247689
H104	H	2.299041	-0.240247	-0.747689
H105	H	1.897265	-0.642044	-1.247699
H106	H	2.397265	-0.142044	-0.747699
H107	H	1.878228	-0.819594	-1.103840
H108	H	2.378228	-0.319594	-0.603840
H109	H	1.976479	-0.721400	-1.103844
H110	H	2.476479	-0.221400	-0.603844
