data_functionalizedCrystal
_audit_creation_method	'MofGen! by Chris Wilmer'
_symmetry_space_group_name_H-M	'P1'
_symmetry_Int_Tables_number	1
_symmetry_cell_setting	triclinic
loop_
_symmetry_equiv_pos_as_xyz
  x,y,z
_cell_length_a	6.817900
_cell_length_b	16.418055
_cell_length_c	17.982968
_cell_angle_alpha	95.668608
_cell_angle_beta	102.451960
_cell_angle_gamma	103.389726
loop_
_atom_site_label
_atom_site_type_symbol
_atom_site_fract_x
_atom_site_fract_y
_atom_site_fract_z
V1	V	-4.014610	-0.116671	-0.237815
O2	O	-4.002841	0.004799	-0.233016
O3	O	-3.965742	-0.230562	-0.236450
O4	O	-3.961123	-0.115230	-0.341414
O5	O	-4.007492	-0.111331	-0.127324
V6	V	-4.498958	-0.102100	-0.224567
O7	O	-4.274059	-0.148634	-0.266874
O8	O	-4.689706	-0.070137	-0.195508
O9	O	-4.324619	0.011792	-0.225932
O10	O	-4.628123	-0.223570	-0.229367
O11	O	-4.623472	-0.107440	-0.335058
O12	O	-4.329238	-0.103540	-0.120968
C13	C	-3.810793	-0.258315	-0.232766
C14	C	-3.852090	-0.351425	-0.232341
C15	C	-3.804901	-0.111197	-0.366658
C16	C	-3.842450	-0.110773	-0.451353
C17	C	-4.167783	-0.657420	-0.234815
C18	C	-4.128991	-0.569931	-0.235202
C19	C	-3.765145	-0.561362	-0.227567
C20	C	-3.803935	-0.648848	-0.227175
C21	C	-4.005261	-0.696875	-0.230802
C22	C	-3.927680	-0.521901	-0.231583
C23	C	-3.885619	-0.427042	-0.232003
C24	C	-4.047324	-0.791740	-0.230381
C25	C	-4.041993	-0.114771	-0.495033
C26	C	-4.077263	-0.114372	-0.574613
C27	C	-3.912989	-0.109981	-0.610512
C28	C	-3.713427	-0.105980	-0.566824
C29	C	-3.678158	-0.106373	-0.487245
C30	C	-3.855661	-0.104394	-0.887758
C31	C	-3.890949	-0.104004	-0.967343
C32	C	-4.254766	-0.112393	-0.975126
C33	C	-4.219497	-0.112786	-0.895547
C34	C	-4.019937	-0.108781	-0.851866
C35	C	-3.981696	-0.109212	-0.765576
C36	C	-3.951231	-0.109556	-0.696800
C37	C	-4.142910	0.039540	-0.229614
C38	C	-4.080850	0.132649	-0.230044
C39	C	-4.148802	-0.107576	-0.095720
C40	C	-4.090492	-0.107996	-0.011025
H41	H	-4.331712	-0.696521	-0.237767
H42	H	-4.261336	-0.537810	-0.238468
Cl43	Cl	-3.512060	-0.500978	-0.223005
Cl44	Cl	-3.599600	-0.698451	-0.222121
Cl45	Cl	-4.248530	-0.120297	-0.449913
H46	H	-4.239745	-0.117623	-0.610174
H47	H	-3.579673	-0.102400	-0.596058
H48	H	-4.353271	-0.116366	-0.866323
Cl49	Cl	-4.505645	-0.117424	-1.030043
H50	H	-3.757164	-0.100426	-0.996568
Cl51	Cl	-3.604802	-0.099382	-0.832859
H52	H	-3.515660	-0.103097	-0.451678
