data_functionalizedCrystal
_audit_creation_method	'MofGen! by Chris Wilmer'
_symmetry_space_group_name_H-M	'P1'
_symmetry_Int_Tables_number	1
_symmetry_cell_setting	triclinic
loop_
_symmetry_equiv_pos_as_xyz
  x,y,z
_cell_length_a	11.792241
_cell_length_b	17.699083
_cell_length_c	16.176319
_cell_angle_alpha	89.999950
_cell_angle_beta	90.001550
_cell_angle_gamma	96.261785
loop_
_atom_site_label
_atom_site_type_symbol
_atom_site_fract_x
_atom_site_fract_y
_atom_site_fract_z
O1	O	-0.143522	1.004843	0.068622
O2	O	0.356478	1.504843	0.568622
O3	O	-0.162195	0.784564	0.068647
O4	O	0.337805	1.284564	0.568647
O5	O	0.012376	0.900049	0.068639
O6	O	0.512376	1.400049	0.568639
O7	O	-0.318093	0.889358	0.068630
O8	O	0.181907	1.389358	0.568630
O9	O	0.012377	0.900035	-0.068854
O10	O	0.512377	1.400035	0.431146
O11	O	-0.162194	0.784550	-0.068846
O12	O	0.337806	1.284550	0.431154
O13	O	-0.143521	1.004829	-0.068872
O14	O	0.356479	1.504829	0.431128
Cu15	Cu	-0.152858	0.894688	-0.081413
Cu16	Cu	0.347142	1.394688	0.418587
Cu17	Cu	-0.152858	0.894704	0.081189
Cu18	Cu	0.347142	1.394704	0.581189
O19	O	-0.318092	0.889344	-0.068863
O20	O	0.181908	1.389344	0.431137
C21	C	-0.161525	0.756356	-0.000096
C22	C	0.338475	1.256356	0.499904
C23	C	-0.159518	0.672328	-0.000085
C24	C	0.340482	1.172328	0.499915
C25	C	-0.261988	0.624253	-0.000088
C26	C	0.238012	1.124253	0.499912
C27	C	-0.260095	0.545299	-0.000099
C28	C	0.239905	1.045299	0.499901
C29	C	-0.155731	0.514422	-0.000101
C30	C	0.344269	1.014422	0.499899
C31	C	-0.053254	0.562503	-0.000100
C32	C	0.446746	1.062503	0.499900
C33	C	-0.055148	0.641455	-0.000096
C34	C	0.444852	1.141455	0.499904
C35	C	-0.045613	0.244099	-0.000121
C36	C	0.454387	0.744099	0.499879
C37	C	-0.043727	0.165141	-0.000123
C38	C	0.456273	0.665141	0.499877
C39	C	-0.250560	0.147944	-0.000124
C40	C	0.249440	0.647944	0.499876
C41	C	-0.252454	0.226896	-0.000119
C42	C	0.247546	0.726896	0.499881
C43	C	-0.149977	0.274970	-0.000123
C44	C	0.350023	0.774970	0.499877
C45	C	-0.152031	0.360580	-0.000113
C46	C	0.347969	0.860580	0.499887
C47	C	-0.153676	0.428814	-0.000105
C48	C	0.346324	0.928814	0.499895
C49	C	-0.360375	0.890022	-0.000118
C50	C	0.139625	1.390022	0.499882
C51	C	-0.486365	0.892032	-0.000122
C52	C	0.013635	1.392032	0.499878
C53	C	-0.717033	0.895729	-0.000101
C54	C	-0.217033	1.395729	0.499899
C55	C	-0.588672	0.893675	-0.000112
C56	C	-0.088672	1.393675	0.499888
C57	C	0.054660	0.899370	-0.000105
C58	C	0.554660	1.399370	0.499895
C59	C	0.180649	0.897360	-0.000095
C60	C	0.680649	1.397360	0.499905
C61	C	-0.144190	1.033036	-0.000127
C62	C	0.355810	1.533036	0.499873
C63	C	-0.146198	1.117065	-0.000132
C64	C	0.353802	1.617065	0.499868
N65	N	-0.152857	0.894682	-0.195778
N66	N	0.347143	1.394682	0.304222
C67	C	-0.221609	0.940864	-0.239046
C68	C	0.278391	1.440864	0.260954
C69	C	-0.221605	0.940872	-0.325593
C70	C	0.278395	1.440872	0.174407
C71	C	-0.152853	0.894694	-0.368871
C72	C	0.347147	1.394694	0.131129
C73	C	-0.084093	0.848511	-0.325596
C74	C	0.415907	1.348511	0.174404
C75	C	-0.084092	0.848507	-0.239051
C76	C	0.415908	1.348507	0.260949
C77	C	-0.084094	0.848525	-0.674625
C78	C	0.415906	1.348525	-0.174625
C79	C	-0.084103	0.848530	-0.761176
C80	C	0.415897	1.348530	-0.261176
C81	C	-0.221607	0.940889	-0.761167
C82	C	0.278393	1.440889	-0.261167
C83	C	-0.221606	0.940886	-0.674622
C84	C	0.278394	1.440886	-0.174622
C85	C	-0.152842	0.894706	-0.631355
C86	C	0.347158	1.394706	-0.131355
C87	C	-0.152846	0.894699	-0.537511
C88	C	0.347154	1.394699	-0.037511
C89	C	-0.152855	0.894697	-0.462713
C90	C	0.347145	1.394697	0.037287
N91	N	-0.152850	0.894716	0.195554
N92	N	0.347150	1.394716	0.695554
H93	H	-0.334002	0.108792	-0.000125
H94	H	0.165998	0.608792	0.499875
H95	H	-0.028113	0.810925	-0.796410
H96	H	0.471887	1.310925	-0.296410
H97	H	-0.346973	0.649386	-0.000086
H98	H	0.153027	1.149386	0.499914
H99	H	-0.028107	0.810902	-0.203823
H100	H	0.471893	1.310902	0.296177
C101	C	0.130101	0.283054	0.070566
C102	C	0.630101	0.783054	0.570566
C103	C	0.067030	0.296934	-0.000116
C104	C	0.567030	0.796934	0.499884
H105	H	0.199643	0.315677	0.070570
H106	H	0.699643	0.815677	0.570570
H107	H	0.146152	0.231619	0.070559
H108	H	0.646152	0.731619	0.570559
H109	H	0.087288	0.292465	0.118506
H110	H	0.587288	0.792465	0.618506
H111	H	0.109840	0.287517	-0.048057
H112	H	0.609840	0.787517	0.451943
H113	H	0.050982	0.348381	-0.000117
H114	H	0.550982	0.848381	0.499883
C115	C	0.068872	0.483697	0.070580
C116	C	0.568872	0.983697	0.570580
C117	C	0.061467	0.528566	-0.000100
C118	C	0.561467	1.028566	0.499900
H119	H	0.139701	0.462751	0.070583
H120	H	0.639701	0.962751	0.570583
H121	H	0.008123	0.443768	0.070572
H122	H	0.508123	0.943768	0.570572
H123	H	0.063833	0.514147	0.118522
H124	H	0.563833	1.014147	0.618522
H125	H	0.066498	0.498114	-0.048042
H126	H	0.566498	0.998114	0.451958
H127	H	0.122232	0.568500	-0.000099
H128	H	0.622232	1.068500	0.499901
H129	H	0.028294	0.680598	-0.000093
H130	H	0.528294	1.180598	0.499907
H131	H	-0.028108	0.810916	-0.360840
H132	H	0.471892	1.310916	0.139160
H133	H	-0.277602	0.978462	-0.203816
H134	H	0.222398	1.478462	0.296184
H135	H	-0.277588	0.978479	-0.360819
H136	H	0.222412	1.478479	0.139181
C137	C	0.051013	0.051748	-0.000124
C138	C	0.551013	0.551748	0.499876
C139	C	0.070997	0.131199	-0.000128
C140	C	0.570997	0.631199	0.499872
H141	H	0.121836	0.030795	-0.000120
H142	H	0.621836	0.530795	0.499880
H143	H	0.008832	0.035282	-0.048066
H144	H	0.508832	0.535282	0.451934
H145	H	0.008832	0.035286	0.047828
H146	H	0.508832	0.535286	0.547828
H147	H	0.113171	0.147662	-0.048083
H148	H	0.613171	0.647662	0.451917
H149	H	0.113196	0.147672	0.047820
H150	H	0.613196	0.647672	0.547820
C151	C	-0.357518	1.032190	-0.683308
C152	C	0.142482	1.532190	-0.183308
C153	C	-0.297176	0.991649	-0.627052
C154	C	0.202824	1.491649	-0.127052
H155	H	-0.404163	1.063534	-0.653940
H156	H	0.095837	1.563534	-0.153940
H157	H	-0.404094	0.997553	-0.717062
H158	H	0.095906	1.497553	-0.217062
H159	H	-0.305215	1.062988	-0.717065
H160	H	0.194785	1.562988	-0.217065
H161	H	-0.349479	0.960846	-0.593299
H162	H	0.150521	1.460846	-0.093299
H163	H	-0.250596	1.026290	-0.593284
H164	H	0.249404	1.526290	-0.093284
H165	H	-0.277596	0.978493	-0.796405
H166	H	0.222404	1.478493	-0.296405
C167	C	0.051813	0.757223	-0.683339
C168	C	0.551813	1.257223	-0.183339
C169	C	-0.008521	0.797757	-0.627073
C170	C	0.491479	1.297757	-0.127073
H171	H	0.098463	0.725876	-0.653978
H172	H	0.598463	1.225876	-0.153978
H173	H	0.098383	0.791864	-0.717091
H174	H	0.598383	1.291864	-0.217091
H175	H	-0.000496	0.726429	-0.717098
H176	H	0.499504	1.226429	-0.217098
H177	H	0.043787	0.828556	-0.593318
H178	H	0.543787	1.328556	-0.093318
H179	H	-0.055095	0.763111	-0.593307
H180	H	0.444905	1.263111	-0.093307
C181	C	-0.464735	0.536230	-0.000087
C182	C	0.035265	1.036230	0.499913
C183	C	-0.372733	0.492455	-0.000098
C184	C	0.127267	0.992455	0.499902
H185	H	-0.534275	0.503605	-0.000083
H186	H	-0.034275	1.003605	0.499917
H187	H	-0.461176	0.567384	-0.048028
H188	H	0.038824	1.067384	0.451972
H189	H	-0.461158	0.567380	0.047866
H190	H	0.038842	1.067380	0.547866
H191	H	-0.376306	0.461309	-0.048055
H192	H	0.123694	0.961309	0.451945
H193	H	-0.376295	0.461288	0.047847
H194	H	0.123705	0.961288	0.547847
H195	H	-0.337438	0.252031	-0.000114
H196	H	0.162562	0.752031	0.499886
