data_functionalizedCrystal
_audit_creation_method	'MofGen! by Chris Wilmer'
_symmetry_space_group_name_H-M	'P1'
_symmetry_Int_Tables_number	1
_symmetry_cell_setting	triclinic
loop_
_symmetry_equiv_pos_as_xyz
  x,y,z
_cell_length_a	21.395362
_cell_length_b	25.639239
_cell_length_c	21.395356
_cell_angle_alpha	89.971496
_cell_angle_beta	89.957023
_cell_angle_gamma	90.054564
loop_
_atom_site_label
_atom_site_type_symbol
_atom_site_fract_x
_atom_site_fract_y
_atom_site_fract_z
Zn1	Zn	0.957819	-0.207942	-0.354582
Zn2	Zn	0.957709	-0.295376	-0.249803
Zn3	Zn	0.853036	-0.207981	-0.249783
Zn4	Zn	0.852988	-0.295373	-0.354508
O5	O	0.905388	-0.251668	-0.302169
O6	O	1.045482	-0.219526	-0.340722
O7	O	0.943797	-0.283800	-0.162122
O8	O	0.867001	-0.134810	-0.263708
O9	O	1.045401	-0.283763	-0.263742
O10	O	0.943985	-0.134782	-0.340703
O11	O	0.866894	-0.219591	-0.162108
O12	O	0.765351	-0.219588	-0.263636
O13	O	0.866921	-0.283758	-0.442196
O14	O	0.765317	-0.283795	-0.340576
O15	O	0.943939	-0.219523	-0.442250
O16	O	0.943751	-0.368541	-0.263669
O17	O	0.866814	-0.368539	-0.340596
C18	C	0.742600	-0.251696	-0.302096
C19	C	0.672959	-0.251720	-0.302080
C20	C	0.640244	-0.285197	-0.342083
C21	C	0.574809	-0.285184	-0.342111
C22	C	0.542091	-0.251700	-0.302125
C23	C	0.574813	-0.218217	-0.262119
C24	C	0.640247	-0.218227	-0.262097
C25	C	0.438368	-0.247496	-0.245720
C26	C	0.372935	-0.247489	-0.245741
C27	C	0.340270	-0.251666	-0.302194
C28	C	0.373046	-0.255860	-0.358627
C29	C	0.438480	-0.255870	-0.358605
C30	C	0.471138	-0.251685	-0.302145
C31	C	0.236603	-0.285130	-0.342231
C32	C	0.171166	-0.285114	-0.342260
C33	C	0.171172	-0.218149	-0.262262
C34	C	0.236607	-0.218163	-0.262239
C35	C	0.269319	-0.251657	-0.302222
C36	C	0.905282	-0.387511	-0.302140
C37	C	0.905295	-0.445625	-0.302149
C38	C	0.945554	-0.805976	-0.262182
C39	C	0.945578	-0.860581	-0.262190
O40	O	0.979698	-0.888808	-0.228177
N41	N	0.905498	-0.887907	-0.302211
C42	C	0.865396	-0.860626	-0.342230
O43	O	0.831307	-0.888884	-0.376271
C44	C	0.865375	-0.806023	-0.342224
C45	C	0.905453	-0.778699	-0.302196
C46	C	0.985629	-0.778653	-0.222158
C47	C	0.985604	-0.724052	-0.222149
C48	C	0.945503	-0.696775	-0.262164
C49	C	0.905428	-0.724099	-0.302187
C50	C	0.825276	-0.778743	-0.382246
C51	C	0.825259	-0.724136	-0.382237
C52	C	0.865337	-0.696813	-0.342209
C53	C	0.865302	-0.642222	-0.342193
N54	N	0.905382	-0.614895	-0.302173
C55	C	0.945483	-0.642172	-0.262158
C56	C	0.865443	-0.975297	-0.342239
C57	C	0.865460	-1.029899	-0.342242
C58	C	0.945643	-1.029850	-0.262204
C59	C	0.945623	-0.975246	-0.262198
C60	C	0.905523	-0.947971	-0.302219
C61	C	0.945426	-0.527507	-0.262142
C62	C	0.945395	-0.472902	-0.262134
C63	C	0.865215	-0.472956	-0.342175
C64	C	0.865243	-0.527556	-0.342180
C65	C	0.905353	-0.554831	-0.302162
O66	O	0.831201	-0.613960	-0.376190
O67	O	0.979571	-0.613908	-0.228128
C68	C	1.068811	-0.251641	-0.302242
C69	C	1.138452	-0.251629	-0.302274
C70	C	0.905437	-0.251636	-0.465592
C71	C	0.905458	-0.251622	-0.535234
C72	C	0.905511	-0.115295	-0.302212
C73	C	0.905563	-0.057181	-0.302230
C74	C	0.865426	-0.218184	-0.567929
C75	C	0.865423	-0.218175	-0.633365
C76	C	0.905465	-0.251597	-0.666102
C77	C	0.945500	-0.285041	-0.633398
C78	C	0.945497	-0.285053	-0.567964
C79	C	0.961916	-0.255694	-0.769807
C80	C	0.961921	-0.255678	-0.835240
C81	C	0.905475	-0.251562	-0.867923
C82	C	0.849024	-0.247450	-0.835164
C83	C	0.849020	-0.247462	-0.769730
C84	C	0.905473	-0.251587	-0.737054
C85	C	0.865437	-0.218112	-0.971571
C86	C	0.865434	-0.218106	-1.037008
C87	C	0.945517	-0.284969	-1.037040
C88	C	0.945514	-0.284978	-0.971605
C89	C	0.905475	-0.251547	-0.938874
C90	C	0.905375	-0.251663	-0.139381
C91	C	0.905475	-0.251529	-0.069741
H92	H	0.346253	-0.244077	-0.199789
C93	C	0.989752	-1.059861	-0.218186
H94	H	0.984024	-1.096294	-0.223928
H95	H	0.980600	-1.050945	-0.176076
H96	H	1.031846	-1.050867	-0.227408
H97	H	0.144533	-0.190884	-0.229707
C98	C	1.024012	-0.260202	-0.871272
H99	H	1.015932	-0.259598	-0.914922
H100	H	1.044013	-0.292032	-0.860552
H101	H	1.050396	-0.231756	-0.860575
H102	H	0.464958	-0.244092	-0.199746
C103	C	0.821370	-1.059949	-0.386268
H104	H	0.797490	-1.035879	-0.410099
H105	H	0.794090	-1.081294	-0.362274
H106	H	0.845336	-1.081207	-0.413606
H107	H	0.465164	-0.259284	-0.404555
H108	H	0.978032	-0.450656	-0.229537
C109	C	0.821323	-0.945298	-0.386258
H110	H	0.797455	-0.969397	-0.410086
H111	H	0.845262	-0.923957	-0.413589
H112	H	0.794023	-0.924040	-0.362250
H113	H	0.832835	-0.190890	-0.944921
H114	H	0.978121	-0.312181	-1.063694
H115	H	0.792637	-0.800981	-0.414837
H116	H	0.832563	-0.450739	-0.374753
H117	H	0.548170	-0.190953	-0.229563
C118	C	0.676238	-0.181404	-0.218091
H119	H	0.719893	-0.186204	-0.223806
H120	H	0.665457	-0.189005	-0.175980
H121	H	0.665575	-0.146281	-0.227347
H122	H	0.832830	-0.190879	-1.063628
C123	C	0.781149	-0.694136	-0.426261
H124	H	0.757283	-0.718233	-0.450096
H125	H	0.805094	-0.672795	-0.453587
H126	H	0.753846	-0.672878	-0.402256
C127	C	0.989542	-0.557501	-0.218118
H128	H	1.013398	-0.533401	-0.194278
H129	H	1.016844	-0.578761	-0.242115
H130	H	0.965593	-0.578840	-0.190787
C131	C	1.029698	-0.694003	-0.178126
H132	H	1.053585	-0.718075	-0.154305
H133	H	1.005744	-0.672740	-0.150789
H134	H	1.056980	-0.672664	-0.202131
H135	H	1.018287	-0.800856	-0.189573
C136	C	0.989713	-0.945195	-0.218173
H137	H	1.013599	-0.969266	-0.194348
H138	H	0.965756	-0.923931	-0.190840
H139	H	1.016997	-0.923857	-0.242177
C140	C	0.337124	-0.260453	-0.420729
H141	H	0.293460	-0.259840	-0.412664
H142	H	0.347824	-0.292306	-0.440692
H143	H	0.347919	-0.232038	-0.447141
H144	H	0.263238	-0.312400	-0.374791
H145	H	0.832825	-0.190943	-0.659991
C146	C	0.135180	-0.321948	-0.386256
H147	H	0.164035	-0.341900	-0.410057
H148	H	0.109707	-0.301983	-0.413614
H149	H	0.109601	-0.344695	-0.362233
C150	C	0.821157	-0.557614	-0.386208
H151	H	0.797274	-0.533546	-0.410040
H152	H	0.793880	-0.578962	-0.362216
H153	H	0.845129	-0.578868	-0.413545
C154	C	0.272595	-0.181345	-0.218227
H155	H	0.243740	-0.161404	-0.194412
H156	H	0.298181	-0.158594	-0.242232
H157	H	0.298061	-0.201325	-0.190873
C158	C	0.821382	-0.181414	-0.531929
H159	H	0.797536	-0.161501	-0.560777
H160	H	0.845369	-0.158635	-0.506427
H161	H	0.794058	-0.201425	-0.506379
C162	C	0.786928	-0.242949	-0.733698
H163	H	0.753309	-0.240499	-0.762529
H164	H	0.787765	-0.212649	-0.708179
H165	H	0.781399	-0.272925	-0.708162
C166	C	0.989553	-0.321755	-0.935635
H167	H	0.983813	-0.316979	-0.891976
H168	H	1.031659	-0.314096	-0.946390
H169	H	0.980347	-0.356886	-0.946341
H170	H	1.007885	-0.259042	-0.743203
H171	H	0.803061	-0.244094	-0.861773
H172	H	0.978102	-0.312254	-0.660057
C173	C	0.989538	-0.321833	-0.531997
H174	H	1.013389	-0.341736	-0.560864
H175	H	0.965551	-0.344621	-0.506444
H176	H	1.016858	-0.301828	-0.506501
H177	H	0.666874	-0.312469	-0.374642
H178	H	0.548167	-0.312445	-0.374689
