data_functionalizedCrystal
_audit_creation_method	'MofGen! by Chris Wilmer'
_symmetry_space_group_name_H-M	'P1'
_symmetry_Int_Tables_number	1
_symmetry_cell_setting	triclinic
loop_
_symmetry_equiv_pos_as_xyz
  x,y,z
_cell_length_a	16.959455
_cell_length_b	16.959454
_cell_length_c	16.959434
_cell_angle_alpha	89.913723
_cell_angle_beta	89.940565
_cell_angle_gamma	90.017022
loop_
_atom_site_label
_atom_site_type_symbol
_atom_site_fract_x
_atom_site_fract_y
_atom_site_fract_z
Zn1	Zn	1.208736	-0.314266	-0.446929
Zn2	Zn	1.708736	0.185734	0.053071
Zn3	Zn	1.208554	-0.446596	-0.314759
Zn4	Zn	1.708554	0.053404	0.185241
Zn5	Zn	1.076460	-0.314428	-0.314767
Zn6	Zn	1.576460	0.185572	0.185233
Zn7	Zn	1.076529	-0.446399	-0.446898
Zn8	Zn	1.576529	0.053601	0.053102
O9	O	1.142570	-0.380422	-0.380838
O10	O	1.642570	0.119578	0.119162
O11	O	1.319323	-0.331834	-0.429407
O12	O	1.819323	0.168166	0.070593
O13	O	1.190927	-0.429213	-0.204149
O14	O	1.690927	0.070787	0.295851
O15	O	1.094054	-0.203796	-0.332315
O16	O	1.594054	0.296204	0.167685
O17	O	1.319189	-0.429056	-0.332302
O18	O	1.819189	0.070944	0.167698
O19	O	1.191236	-0.203676	-0.429414
O20	O	1.691236	0.296324	0.070586
O21	O	1.093878	-0.332110	-0.204154
O22	O	1.593878	0.167890	0.295846
O23	O	0.965858	-0.331920	-0.332284
O24	O	1.465858	0.168080	0.167716
O25	O	1.094171	-0.428721	-0.557513
O26	O	1.594171	0.071279	-0.057513
O27	O	0.965909	-0.428879	-0.429360
O28	O	1.465909	0.071121	0.070640
O29	O	1.191303	-0.331643	-0.557536
O30	O	1.691303	0.168357	-0.057536
O31	O	1.190994	-0.557180	-0.332271
O32	O	1.690994	-0.057180	0.167729
O33	O	1.093995	-0.557036	-0.429353
O34	O	1.593995	-0.057036	0.070647
C35	C	0.937203	-0.380396	-0.380820
C36	C	1.437203	0.119604	0.119180
C37	C	0.849347	-0.380404	-0.380831
C38	C	1.349347	0.119596	0.119169
C39	C	1.142504	-0.585788	-0.380825
C40	C	1.642504	-0.085788	0.119175
C41	C	1.142548	-0.673645	-0.380845
C42	C	1.642548	-0.173645	0.119155
C43	C	0.477821	-0.329894	-0.330396
C44	C	0.977821	0.170106	0.169604
C45	C	0.477922	-0.431015	-0.431325
C46	C	0.977922	0.068985	0.068675
C47	C	0.560468	-0.431004	-0.431321
C48	C	1.060468	0.068996	0.068679
C49	C	0.601694	-0.380438	-0.380852
C50	C	1.101694	0.119562	0.119148
C51	C	0.560374	-0.329883	-0.330388
C52	C	1.060374	0.170117	0.169612
C53	C	0.601794	-0.481563	-0.481778
C54	C	1.101794	0.018437	0.018222
C55	C	0.684345	-0.481554	-0.481774
C56	C	1.184345	0.018446	0.018226
C57	C	0.725572	-0.430984	-0.431309
C58	C	1.225572	0.069016	0.068691
C59	C	0.684247	-0.380426	-0.380844
C60	C	1.184247	0.119574	0.119156
C61	C	0.725474	-0.329860	-0.330375
C62	C	1.225474	0.170140	0.169625
C63	C	0.684150	-0.279299	-0.279913
C64	C	1.184150	0.220701	0.220087
C65	C	0.601602	-0.279312	-0.279923
C66	C	1.101602	0.220688	0.220077
C67	C	0.808121	-0.430970	-0.431300
C68	C	1.308121	0.069030	0.068700
C69	C	0.808027	-0.329849	-0.330367
C70	C	1.308027	0.170151	0.169633
C71	C	1.092136	-1.045075	-0.431383
C72	C	1.592136	-0.545075	0.068617
C73	C	1.193224	-1.045166	-0.330374
C74	C	1.693224	-0.545166	0.169626
C75	C	1.193196	-0.962620	-0.330366
C76	C	1.693196	-0.462620	0.169634
C77	C	1.142637	-0.921298	-0.380867
C78	C	1.642637	-0.421298	0.119133
C79	C	1.092105	-0.962522	-0.431376
C80	C	1.592105	-0.462522	0.068624
C81	C	1.243721	-0.921390	-0.279853
C82	C	1.743721	-0.421390	0.220147
C83	C	1.243695	-0.838839	-0.279843
C84	C	1.743695	-0.338839	0.220157
C85	C	1.193139	-0.797515	-0.330349
C86	C	1.693139	-0.297515	0.169651
C87	C	1.142606	-0.838744	-0.380860
C88	C	1.642606	-0.338744	0.119140
C89	C	1.092047	-0.797422	-0.431361
C90	C	1.592047	-0.297422	0.068639
C91	C	1.041517	-0.838650	-0.481877
C92	C	1.541517	-0.338650	0.018123
C93	C	1.041549	-0.921198	-0.481882
C94	C	1.541549	-0.421198	0.018118
C95	C	1.193107	-0.714967	-0.330344
C96	C	1.693107	-0.214967	0.169656
C97	C	1.092016	-0.714869	-0.431354
C98	C	1.592016	-0.214869	0.068646
C99	C	1.348738	-0.380449	-0.380857
C100	C	1.848738	0.119551	0.119143
C101	C	1.436595	-0.380460	-0.380865
C102	C	1.936595	0.119540	0.119135
C103	C	1.142765	-0.380142	-0.587007
C104	C	1.642765	0.119858	-0.087007
C105	C	1.142848	-0.380023	-0.674864
C106	C	1.642848	0.119977	-0.174864
C107	C	1.142658	-0.174254	-0.380869
C108	C	1.642658	0.325746	0.119131
C109	C	1.142695	-0.086397	-0.380882
C110	C	1.642695	0.413603	0.119118
C111	C	1.142421	-0.380644	-0.175471
C112	C	1.642421	0.119356	0.324529
C113	C	1.142491	-0.380540	-0.087615
C114	C	1.642491	0.119460	0.412385
C115	C	1.193707	-0.430264	0.283903
C116	C	1.693707	0.069736	0.783903
C117	C	1.091918	-0.329887	0.283816
C118	C	1.591918	0.170113	0.783816
C119	C	1.091846	-0.329988	0.201270
C120	C	1.591846	0.170012	0.701270
C121	C	1.142705	-0.380229	0.160037
C122	C	1.642705	0.119771	0.660037
C123	C	1.193636	-0.430369	0.201350
C124	C	1.693636	0.069631	0.701350
C125	C	1.040911	-0.279855	0.159951
C126	C	1.540911	0.220145	0.659951
C127	C	1.040837	-0.279955	0.077400
C128	C	1.540837	0.220045	0.577400
C129	C	1.091700	-0.330193	0.036166
C130	C	1.591700	0.169807	0.536166
C131	C	1.142634	-0.380334	0.077484
C132	C	1.642634	0.119666	0.577484
C133	C	1.193493	-0.430575	0.036251
C134	C	1.693493	0.069425	0.536251
C135	C	1.244430	-0.480713	0.077568
C136	C	1.744430	0.019287	0.577568
C137	C	1.244499	-0.480607	0.160116
C138	C	1.744499	0.019393	0.660116
C139	C	1.091632	-0.330299	-0.046382
C140	C	1.591632	0.169701	0.453618
C141	C	1.193421	-0.430680	-0.046302
C142	C	1.693421	0.069320	0.453698
H143	H	0.841588	-0.288667	-0.289274
H144	H	1.341588	0.211333	0.210726
F145	F	1.247029	-1.089145	-0.276629
F146	F	1.747029	-0.589145	0.223371
F147	F	0.434044	-0.484842	-0.485020
F148	F	0.934044	0.015158	0.014980
H149	H	0.568221	-0.522737	-0.522861
H150	H	1.068221	-0.022737	-0.022861
H151	H	0.841763	-0.472139	-0.472382
H152	H	1.341763	0.027861	0.027618
F153	F	0.986811	-0.226365	0.203837
F154	F	1.486811	0.273635	0.703837
F155	F	1.037805	-0.276408	0.327700
F156	F	1.537805	0.223592	0.827700
F157	F	0.986615	-0.226606	0.033436
F158	F	1.486615	0.273394	0.533436
H159	H	1.285837	-0.521622	0.043985
H160	H	1.785837	-0.021622	0.543985
F161	F	0.728036	-0.225489	-0.226198
F162	F	1.228036	0.274511	0.273802
F163	F	1.037429	-0.276938	-0.090350
F164	F	1.537429	0.223062	0.409650
F165	F	0.987776	-0.965081	-0.535638
F166	F	1.487776	-0.465081	-0.035638
H167	H	0.567949	-0.238149	-0.238839
H168	H	1.067949	0.261851	0.261161
H169	H	1.284878	-0.955040	-0.238732
H170	H	1.784878	-0.455040	0.261268
F171	F	1.297477	-0.794969	-0.226086
F172	F	1.797477	-0.294969	0.273914
H173	H	1.050998	-1.078646	-0.472514
H174	H	1.550998	-0.578646	0.027486
F175	F	1.246873	-0.671093	-0.276578
F176	F	1.746873	-0.171093	0.223422
F177	F	1.298707	-0.533960	0.204093
F178	F	1.798707	-0.033960	0.704093
H179	H	1.234841	-0.471590	-0.079868
H180	H	1.734841	0.028410	0.420132
F181	F	0.433842	-0.276082	-0.276697
F182	F	0.933842	0.223918	0.223303
H183	H	1.235182	-0.471083	0.317547
H184	H	1.735182	0.028917	0.817547
H185	H	0.717983	-0.522725	-0.522864
H186	H	1.217983	-0.022725	-0.022864
H187	H	1.000348	-0.804996	-0.522992
H188	H	1.500348	-0.304996	-0.022992
F189	F	1.038206	-0.670898	-0.485109
F190	F	1.538206	-0.170898	0.014891
