data_functionalizedCrystal
_audit_creation_method	'MofGen! by Chris Wilmer'
_symmetry_space_group_name_H-M	'P1'
_symmetry_Int_Tables_number	1
_symmetry_cell_setting	triclinic
loop_
_symmetry_equiv_pos_as_xyz
  x,y,z
_cell_length_a	14.971486
_cell_length_b	16.109298
_cell_length_c	14.048226
_cell_angle_alpha	89.998962
_cell_angle_beta	89.998499
_cell_angle_gamma	83.537158
loop_
_atom_site_label
_atom_site_type_symbol
_atom_site_fract_x
_atom_site_fract_y
_atom_site_fract_z
O1	O	1.186789	0.108348	-0.079039
O2	O	1.686789	0.608348	0.420961
O3	O	0.926370	0.121323	-0.079064
O4	O	1.426370	0.621323	0.420936
O5	O	1.063735	-0.006187	-0.079058
O6	O	1.563735	0.493813	0.420942
O7	O	1.049424	0.235858	-0.079046
O8	O	1.549424	0.735858	0.420954
O9	O	1.063719	-0.006194	0.079264
O10	O	1.563719	0.493806	0.579264
O11	O	0.926354	0.121315	0.079257
O12	O	1.426354	0.621315	0.579257
O13	O	1.186773	0.108340	0.079282
O14	O	1.686773	0.608340	0.579282
Zn15	Zn	1.056561	0.114827	0.104407
Zn16	Zn	1.556561	0.614827	0.604407
Zn17	Zn	1.056583	0.114837	-0.104189
Zn18	Zn	1.556583	0.614837	0.395811
O19	O	1.049408	0.235850	0.079276
O20	O	1.549408	0.735850	0.579276
C21	C	0.893038	0.120739	0.000093
C22	C	1.393038	0.620739	0.500093
C23	C	0.793744	0.119000	0.000083
C24	C	1.293744	0.619000	0.500083
C25	C	1.063148	-0.037166	0.000099
C26	C	1.563148	0.462834	0.500099
C27	C	1.061411	-0.129464	0.000088
C28	C	1.561411	0.370536	0.500088
C29	C	0.736409	0.193908	0.000089
C30	C	1.236409	0.693908	0.500089
C31	C	0.643112	0.192270	0.000103
C32	C	1.143112	0.692270	0.500103
C33	C	0.607151	0.115721	0.000105
C34	C	1.107151	0.615721	0.500105
C35	C	0.664493	0.040807	0.000103
C36	C	1.164493	0.540807	0.500103
C37	C	0.757788	0.042447	0.000095
C38	C	1.257788	0.542447	0.500095
C39	C	0.470035	0.037395	0.000115
C40	C	0.970035	0.537395	0.500115
C41	C	0.376734	0.035755	0.000121
C42	C	0.876734	0.535755	0.500121
C43	C	0.355360	0.187218	0.000123
C44	C	0.855360	0.687218	0.500123
C45	C	0.448655	0.188857	0.000116
C46	C	0.948655	0.688857	0.500116
C47	C	0.505990	0.113943	0.000112
C48	C	1.005990	0.613943	0.500112
C49	C	1.055754	-0.428536	-0.086194
C50	C	1.555754	0.071464	0.413806
C51	C	1.057397	-0.341814	-0.086201
C52	C	1.557397	0.158186	0.413799
C53	C	1.057392	-0.341808	0.086410
C54	C	1.557392	0.158192	0.586410
C55	C	1.055755	-0.428529	0.086416
C56	C	1.555755	0.071471	0.586416
C57	C	1.054931	-0.471890	0.000111
C58	C	1.554931	0.028110	0.500111
C59	C	1.058212	-0.298447	0.000099
C60	C	1.558212	0.201553	0.500099
C61	C	1.059994	-0.204419	0.000092
C62	C	1.559994	0.295581	0.500092
C63	C	1.053150	-0.565924	0.000117
C64	C	1.553150	-0.065924	0.500117
C65	C	1.220105	0.108924	0.000122
C66	C	1.720105	0.608924	0.500122
C67	C	1.319400	0.110663	0.000126
C68	C	1.819400	0.610663	0.500126
C69	C	1.049995	0.266829	0.000117
C70	C	1.549995	0.766829	0.500117
C71	C	1.051732	0.359127	0.000122
C72	C	1.551732	0.859127	0.500122
N73	N	1.056552	0.114819	0.246767
N74	N	1.556552	0.614819	0.746767
N75	N	1.056598	0.114837	-0.246549
N76	N	1.556598	0.614837	0.253451
C77	C	1.117397	0.058381	0.296588
C78	C	1.617397	0.558381	0.796588
C79	C	1.117403	0.058381	0.396246
C80	C	1.617403	0.558381	0.896246
C81	C	1.056568	0.114823	0.446081
C82	C	1.556568	0.614823	0.946081
C83	C	0.995717	0.171264	0.396253
C84	C	1.495717	0.671264	0.896253
C85	C	0.995708	0.171260	0.296597
C86	C	1.495708	0.671260	0.796597
C87	C	0.995743	0.171270	0.603967
C88	C	1.495743	0.671270	1.103967
C89	C	0.995754	0.171275	0.703630
C90	C	1.495754	0.671275	1.203630
C91	C	1.117438	0.058391	0.703616
C92	C	1.617438	0.558391	1.203616
C93	C	1.117429	0.058387	0.603960
C94	C	1.617429	0.558387	1.103960
C95	C	1.056579	0.114829	0.554139
C96	C	1.556579	0.614829	1.054139
H97	H	0.765681	0.256243	0.000086
H98	H	1.265681	0.756243	0.500086
H99	H	1.058068	-0.306519	-0.156479
H100	H	1.558068	0.193481	0.343521
F101	F	0.931003	0.231348	0.756661
F102	F	1.431003	0.731348	1.256661
H103	H	1.166984	0.012434	0.744186
H104	H	1.666984	0.512434	1.244186
H105	H	1.055088	-0.463829	0.156700
H106	H	1.555088	0.036171	0.656700
F107	F	1.182180	-0.001679	0.550921
F108	F	1.682180	0.498321	1.050921
F109	F	1.058265	-0.295652	0.178257
F110	F	1.558265	0.204348	0.678257
F111	F	1.182151	-0.001689	0.243559
F112	F	1.682151	0.498311	0.743559
H113	H	0.946190	0.217228	0.563406
H114	H	1.446190	0.717228	1.063406
F115	F	1.182159	-0.001687	0.449269
F116	F	1.682159	0.498313	0.949269
H117	H	0.946180	0.217217	0.436834
H118	H	1.446180	0.717217	0.936834
F119	F	0.930946	0.231326	0.243576
F120	F	1.430946	0.731326	0.743576
H121	H	0.477931	0.251189	0.000105
H122	H	0.977931	0.751189	0.500105
F123	F	0.582096	0.271998	0.000104
F124	F	1.082096	0.771998	0.500104
H125	H	0.308672	0.248216	0.000130
H126	H	0.808672	0.748216	0.500130
H127	H	0.516716	-0.023609	0.000114
H128	H	1.016716	0.476391	0.500114
F129	F	0.626218	-0.040662	0.000111
F130	F	1.126218	0.459338	0.500111
F131	F	0.338464	-0.045716	0.000148
F132	F	0.838464	0.454284	0.500148
H133	H	0.804470	-0.018551	0.000091
H134	H	1.304470	0.481449	0.500091
H135	H	1.055082	-0.463838	-0.156469
H136	H	1.555082	0.036162	0.343531
