data_functionalizedCrystal
_audit_creation_method	'MofGen! by Chris Wilmer'
_symmetry_space_group_name_H-M	'P1'
_symmetry_Int_Tables_number	1
_symmetry_cell_setting	triclinic
loop_
_symmetry_equiv_pos_as_xyz
  x,y,z
_cell_length_a	17.077404
_cell_length_b	12.594516
_cell_length_c	17.077396
_cell_angle_alpha	90.024014
_cell_angle_beta	90.018362
_cell_angle_gamma	90.016143
loop_
_atom_site_label
_atom_site_type_symbol
_atom_site_fract_x
_atom_site_fract_y
_atom_site_fract_z
Zn1	Zn	1.200080	-0.423800	0.443843
Zn2	Zn	1.199998	-0.601801	0.312587
Zn3	Zn	1.068812	-0.423830	0.312594
Zn4	Zn	1.068791	-0.601730	0.443814
O5	O	1.134420	-0.512790	0.378210
O6	O	1.309916	-0.447429	0.426442
O7	O	1.182571	-0.578234	0.202741
O8	O	1.086268	-0.274880	0.330019
O9	O	1.309856	-0.578205	0.330009
O10	O	1.182711	-0.274858	0.426448
O11	O	1.086189	-0.447480	0.202746
O12	O	0.958962	-0.447412	0.329991
O13	O	1.086232	-0.578085	0.553665
O14	O	0.958947	-0.578115	0.426397
O15	O	1.182690	-0.447361	0.553686
O16	O	1.182550	-0.750737	0.329980
O17	O	1.086153	-0.750685	0.426391
C18	C	0.930473	-0.512760	0.378192
C19	C	0.843223	-0.512773	0.378203
C20	C	0.802265	-0.444799	0.428492
C21	C	0.720284	-0.444805	0.428496
C22	C	0.679263	-0.512793	0.378214
C23	C	0.720227	-0.580770	0.327919
C24	C	0.802206	-0.580757	0.327912
C25	C	0.549357	-0.580794	0.327938
C26	C	0.467372	-0.580809	0.327946
C27	C	0.467435	-0.444843	0.428522
C28	C	0.549414	-0.444830	0.428515
C29	C	0.590372	-0.512808	0.378221
C30	C	1.134361	-0.789331	0.378199
C31	C	1.134408	-0.907637	0.378220
C32	C	1.082020	-1.047664	0.430632
C33	C	1.153582	-0.976757	0.449889
C34	C	1.062853	-0.976971	0.358998
C35	C	1.206136	-1.047516	0.397544
C36	C	1.115358	-1.047736	0.306619
C37	C	1.186970	-0.976861	0.325850
C38	C	1.339165	-0.512821	0.378228
C39	C	1.426414	-0.512835	0.378235
C40	C	1.134468	-0.512712	0.582954
C41	C	1.134488	-0.512678	0.670204
C42	C	1.134501	-0.235169	0.378238
C43	C	1.134535	-0.116864	0.378249
C44	C	1.134418	-0.512792	0.174262
C45	C	1.134550	-0.512525	0.087012
C46	C	1.184716	-0.444604	0.711206
C47	C	1.184725	-0.444569	0.793187
C48	C	1.134510	-0.512614	0.834163
C49	C	1.084277	-0.580691	0.793155
C50	C	1.084265	-0.580720	0.711176
C51	C	1.084309	-0.580627	0.964025
C52	C	1.084323	-0.580599	1.046010
C53	C	1.184769	-0.444476	1.046036
C54	C	1.184757	-0.444505	0.964057
C55	C	1.134524	-0.512584	0.923054
H56	H	0.434083	-0.389490	0.469472
H57	H	1.266722	-1.078376	0.413885
H58	H	1.225669	-0.389042	1.079425
H59	H	0.686821	-0.636121	0.286974
H60	H	1.043432	-0.636005	1.079370
H61	H	0.835553	-0.636108	0.286960
H62	H	1.002285	-0.945978	0.342728
H63	H	1.169753	-0.945583	0.510453
H64	H	1.037719	-1.078749	0.474976
H65	H	1.043356	-0.636142	0.677792
H66	H	1.231377	-0.945971	0.281539
H67	H	1.099166	-1.078934	0.246073
H68	H	1.225650	-0.389103	0.930696
H69	H	1.225609	-0.389197	0.677849
H70	H	1.225627	-0.389139	0.826568
H71	H	0.686940	-0.389456	0.469448
H72	H	1.043392	-0.636047	0.930643
H73	H	0.835658	-0.389438	0.469440
H74	H	0.582811	-0.389475	0.469464
H75	H	1.043389	-0.636090	0.826524
H76	H	0.433975	-0.636171	0.287002
H77	H	0.582703	-0.636147	0.286981
