data_functionalizedCrystal
_audit_creation_method	'MofGen! by Chris Wilmer'
_symmetry_space_group_name_H-M	'P1'
_symmetry_Int_Tables_number	1
_symmetry_cell_setting	triclinic
loop_
_symmetry_equiv_pos_as_xyz
  x,y,z
_cell_length_a	11.792241
_cell_length_b	13.339070
_cell_length_c	12.376457
_cell_angle_alpha	75.601917
_cell_angle_beta	101.367275
_cell_angle_gamma	99.911355
loop_
_atom_site_label
_atom_site_type_symbol
_atom_site_fract_x
_atom_site_fract_y
_atom_site_fract_z
O1	O	-1.565358	-0.119615	-0.093887
O2	O	-1.239431	-0.133925	-0.093913
O3	O	-1.364988	0.020699	-0.093900
O4	O	-1.439801	-0.274239	-0.093901
O5	O	-1.333597	-0.017904	0.094109
O6	O	-1.208040	-0.172528	0.094096
O7	O	-1.533968	-0.158218	0.094121
Zn8	Zn	-1.366020	-0.171502	0.123959
Zn9	Zn	-1.407378	-0.120641	-0.123751
O10	O	-1.408411	-0.312842	0.094108
C11	C	-1.181168	-0.152326	0.000088
C12	C	-1.054327	-0.149633	0.000078
C13	C	-1.336656	0.039156	0.000102
C14	C	-1.298988	0.151666	0.000095
C15	C	-1.592231	-0.139816	0.000118
C16	C	-1.719073	-0.142508	0.000121
C17	C	-0.822085	-0.144691	0.000111
C18	C	-0.951320	-0.147437	0.000093
C19	C	-1.436743	-0.331299	0.000104
C20	C	-1.474412	-0.443807	0.000104
N21	N	-1.337802	-0.206213	0.293014
C22	C	-1.591878	0.514848	0.000118
C23	C	-1.627271	0.409138	0.000132
C24	C	-1.545204	0.344765	0.000122
C25	C	-1.427736	0.386112	0.000100
C26	C	-1.392338	0.491830	0.000095
C27	C	-1.345664	0.321747	0.000099
C28	C	-1.228197	0.363094	0.000077
C29	C	-1.192804	0.468802	0.000071
C30	C	-1.274872	0.533175	0.000081
C31	C	-1.381062	0.216029	0.000103
C32	C	-1.181522	0.193011	0.000080
C33	C	-1.146129	0.298721	0.000067
N34	N	-1.435603	-0.085922	-0.292806
C35	C	-1.501099	-0.005328	0.648017
C36	C	-1.520842	0.018967	0.529679
C37	C	-1.475084	-0.037326	0.470507
C38	C	-1.409579	-0.117917	0.529684
C39	C	-1.389841	-0.142219	0.648034
C40	C	-1.363826	-0.174218	0.470524
C41	C	-1.298321	-0.254809	0.529702
C42	C	-1.278586	-0.279107	0.648039
C43	C	-1.324345	-0.222814	0.707211
C44	C	-1.383564	-0.149915	0.352175
C45	C	-1.272306	-0.286807	0.352192
C46	C	-1.252563	-0.311102	0.470530
H47	H	-1.476704	0.182375	0.000122
H48	H	-1.246061	0.619255	0.000066
Br49	Br	-1.033382	0.524910	0.000063
H50	H	-1.235048	-0.332648	0.304015
H51	H	-1.722912	0.375481	0.000151
H52	H	-1.574028	0.258692	0.000133
Br53	Br	-0.986714	0.354848	0.000030
H54	H	-1.308266	-0.242591	0.803572
H55	H	-1.658683	0.567267	0.000135
Br56	Br	-1.501877	-0.004354	0.309903
Br57	Br	-1.070134	0.105654	0.000080
H58	H	-1.574177	0.084582	0.481501
H59	H	-1.436898	-0.084298	0.304003
Br60	Br	-1.189709	-0.388494	0.728355
Br61	Br	-1.563211	0.071050	0.728321
Br62	Br	-1.163663	-0.420472	0.550853
