data_functionalizedCrystal
_audit_creation_method	'MofGen! by Chris Wilmer'
_symmetry_space_group_name_H-M	'P1'
_symmetry_Int_Tables_number	1
_symmetry_cell_setting	triclinic
loop_
_symmetry_equiv_pos_as_xyz
  x,y,z
_cell_length_a	25.639242
_cell_length_b	25.639239
_cell_length_c	18.101389
_cell_angle_alpha	89.979551
_cell_angle_beta	89.972814
_cell_angle_gamma	90.033587
loop_
_atom_site_label
_atom_site_type_symbol
_atom_site_fract_x
_atom_site_fract_y
_atom_site_fract_z
Zn1	Zn	0.799254	-0.208277	-0.418885
Zn2	Zn	1.299254	0.291723	0.081115
Zn3	Zn	0.799169	-0.295698	-0.295039
Zn4	Zn	1.299169	0.204302	0.204961
Zn5	Zn	0.711822	-0.208271	-0.295040
Zn6	Zn	1.211822	0.291729	0.204960
Zn7	Zn	0.711775	-0.295675	-0.418821
Zn8	Zn	1.211775	0.204325	0.081179
O9	O	0.755505	-0.251980	-0.356946
O10	O	1.255505	0.248020	0.143054
O11	O	0.872408	-0.219885	-0.402483
O12	O	1.372408	0.280115	0.097517
O13	O	0.787566	-0.284108	-0.191406
O14	O	1.287566	0.215892	0.308594
O15	O	0.723475	-0.135106	-0.311495
O16	O	1.223475	0.364894	0.188505
O17	O	0.872345	-0.284114	-0.311493
O18	O	1.372345	0.215886	0.188507
O19	O	0.787711	-0.135111	-0.402483
O20	O	1.287711	0.364889	0.097517
O21	O	0.723392	-0.219875	-0.191407
O22	O	1.223392	0.280125	0.308593
O23	O	0.638650	-0.219853	-0.311433
O24	O	1.138650	0.280147	0.188567
O25	O	0.723396	-0.284074	-0.522463
O26	O	1.223396	0.215926	-0.022463
O27	O	0.638616	-0.284069	-0.402375
O28	O	1.138616	0.215931	0.097625
O29	O	0.787666	-0.219863	-0.522509
O30	O	1.287666	0.280137	-0.022509
O31	O	0.787521	-0.368860	-0.311432
O32	O	1.287521	0.131140	0.188568
O33	O	0.723313	-0.368843	-0.402374
O34	O	1.223313	0.131157	0.097626
C35	C	0.619662	-0.251958	-0.356898
C36	C	1.119662	0.248042	0.143102
C37	C	0.561548	-0.251961	-0.356895
C38	C	1.061548	0.248039	0.143105
C39	C	0.310364	-0.218487	-0.309675
C40	C	0.810364	0.281513	0.190325
C41	C	0.364968	-0.218482	-0.309665
C42	C	0.864968	0.281518	0.190335
O43	O	0.393212	-0.189991	-0.269475
O44	O	0.893212	0.310009	0.230525
N45	N	0.392275	-0.251968	-0.356932
N46	N	0.892275	0.248032	0.143068
C47	C	0.364974	-0.285456	-0.404217
C48	C	0.864974	0.214544	0.095783
O49	O	0.393214	-0.313937	-0.444421
O50	O	0.893214	0.186063	0.055579
C51	C	0.310370	-0.285458	-0.404229
C52	C	0.810370	0.214542	0.095771
C53	C	0.283067	-0.251974	-0.356954
C54	C	0.783067	0.248026	0.143046
C55	C	0.283060	-0.185006	-0.262404
C56	C	0.783060	0.314994	0.237596
C57	C	0.228460	-0.185012	-0.262412
C58	C	0.728460	0.314988	0.237588
C59	C	0.201163	-0.218499	-0.309692
C60	C	0.701163	0.281501	0.190308
C61	C	0.228466	-0.251980	-0.356963
C62	C	0.728466	0.248020	0.143037
C63	C	0.283071	-0.318944	-0.451517
C64	C	0.783071	0.181056	0.048483
C65	C	0.228463	-0.318942	-0.451526
C66	C	0.728463	0.181058	0.048474
C67	C	0.201160	-0.285459	-0.404251
C68	C	0.701160	0.214541	0.095749
C69	C	0.146569	-0.285473	-0.404251
C70	C	0.646569	0.214527	0.095749
N71	N	0.119262	-0.251987	-0.356984
N72	N	0.619262	0.248013	0.143016
C73	C	0.146560	-0.218500	-0.309704
C74	C	0.646560	0.281500	0.190296
C75	C	0.479644	-0.285449	-0.404188
C76	C	0.979644	0.214551	0.095812
C77	C	0.534247	-0.285450	-0.404172
C78	C	1.034247	0.214550	0.095828
C79	C	0.534237	-0.218476	-0.309621
C80	C	1.034237	0.281524	0.190379
C81	C	0.479634	-0.218478	-0.309634
C82	C	0.979634	0.281522	0.190366
C83	C	0.452338	-0.251964	-0.356921
C84	C	0.952338	0.248036	0.143079
C85	C	0.031894	-0.218515	-0.309726
C86	C	0.531894	0.281485	0.190274
C87	C	-0.022711	-0.218525	-0.309736
C88	C	0.477289	0.281475	0.190264
C89	C	-0.022697	-0.285498	-0.404290
C90	C	0.477303	0.214502	0.095710
C91	C	0.031904	-0.285490	-0.404276
C92	C	0.531904	0.214510	0.095724
C93	C	0.059198	-0.251994	-0.356992
C94	C	0.559198	0.248006	0.143008
O95	O	0.118290	-0.313948	-0.444422
O96	O	0.618290	0.186052	0.055578
O97	O	0.118313	-0.190019	-0.269514
O98	O	0.618313	0.309981	0.230486
C99	C	0.755417	-0.387823	-0.356912
C100	C	1.255417	0.112177	0.143088
C101	C	0.755427	-0.445937	-0.356922
C102	C	1.255427	0.054063	0.143078
C103	C	0.789025	-0.806296	-0.309673
C104	C	1.289025	-0.306296	0.190327
C105	C	0.789045	-0.860900	-0.309683
C106	C	1.289045	-0.360900	0.190317
O107	O	0.817520	-0.889134	-0.269473
O108	O	1.317520	-0.389134	0.230527
N109	N	0.755597	-0.888219	-0.356995
N110	N	1.255597	-0.388219	0.143005
C111	C	0.722130	-0.860931	-0.404306
C112	C	1.222130	-0.360931	0.095694
O113	O	0.693681	-0.889182	-0.444550
O114	O	1.193681	-0.389182	0.055450
C115	C	0.722112	-0.806328	-0.404299
C116	C	1.222112	-0.306328	0.095701
C117	C	0.755559	-0.779012	-0.356979
C118	C	1.255559	-0.279012	0.143021
C119	C	0.822470	-0.778980	-0.262357
C120	C	1.322470	-0.278980	0.237643
C121	C	0.822449	-0.724379	-0.262346
C122	C	1.322449	-0.224379	0.237654
C123	C	0.788983	-0.697095	-0.309652
C124	C	1.288983	-0.197095	0.190348
C125	C	0.755538	-0.724411	-0.356968
C126	C	1.255538	-0.224411	0.143032
C127	C	0.688648	-0.779040	-0.451613
C128	C	1.188648	-0.279040	0.048387
C129	C	0.688634	-0.724433	-0.451603
C130	C	1.188634	-0.224433	0.048397
C131	C	0.722081	-0.697117	-0.404282
C132	C	1.222081	-0.197117	0.095718
C133	C	0.722051	-0.642526	-0.404263
C134	C	1.222051	-0.142526	0.095737
N135	N	0.755500	-0.615207	-0.356950
N136	N	1.255500	-0.115207	0.143050
C137	C	0.788966	-0.642492	-0.309645
C138	C	1.288966	-0.142492	0.190355
C139	C	0.722169	-0.975602	-0.404317
C140	C	1.222169	-0.475602	0.095683
C141	C	0.722183	-1.030204	-0.404321
C142	C	1.222183	-0.530204	0.095679
C143	C	0.789100	-1.030169	-0.309699
C144	C	1.289100	-0.530169	0.190301
C145	C	0.789083	-0.975566	-0.309692
C146	C	1.289083	-0.475566	0.190308
C147	C	0.755618	-0.948283	-0.357005
C148	C	1.255618	-0.448283	0.142995
C149	C	0.788919	-0.527827	-0.309626
C150	C	1.288919	-0.027827	0.190374
C151	C	0.788893	-0.473221	-0.309617
C152	C	1.288893	0.026779	0.190383
C153	C	0.721979	-0.473260	-0.404241
C154	C	1.221979	0.026740	0.095759
C155	C	0.722002	-0.527861	-0.404248
C156	C	1.222002	-0.027861	0.095752
C157	C	0.755476	-0.555143	-0.356937
C158	C	1.255476	-0.055143	0.143063
O159	O	0.693593	-0.614258	-0.444455
O160	O	1.193593	-0.114258	0.055545
O161	O	0.817414	-0.614234	-0.269415
O162	O	1.317414	-0.114234	0.230585
C163	C	0.891878	-0.252003	-0.356995
C164	C	1.391878	0.247997	0.143005
C165	C	0.949992	-0.252012	-0.357016
C166	C	1.449992	0.247988	0.142984
C167	C	0.755535	-0.251967	-0.550108
C168	C	1.255535	0.248033	-0.050108
C169	C	0.755548	-0.251961	-0.632422
C170	C	1.255548	0.248039	-0.132422
C171	C	0.755608	-0.115607	-0.356996
C172	C	1.255608	0.384393	0.143004
C173	C	0.755651	-0.057493	-0.357018
C174	C	1.255651	0.442507	0.142982
C175	C	0.755579	-0.251863	-0.931513
C176	C	1.255579	0.248137	-0.431513
C177	C	0.715002	-0.292135	-0.900159
C178	C	1.215002	0.207865	-0.400159
C179	C	0.715112	-0.292322	-0.814540
C180	C	1.215112	0.207678	-0.314540
C181	C	0.755563	-0.251912	-0.783131
C182	C	1.255563	0.248088	-0.283131
C183	C	0.810647	-0.266873	-0.814240
C184	C	1.310647	0.233127	-0.314240
C185	C	0.810421	-0.267137	-0.899885
C186	C	1.310421	0.232863	-0.399885
C187	C	0.741550	-0.196541	-0.899939
C188	C	1.241550	0.303459	-0.399939
C189	C	0.740324	-0.196861	-0.814288
C190	C	1.240324	0.303139	-0.314288
C191	C	0.755558	-0.251939	-0.699271
C192	C	1.255558	0.248061	-0.199271
C193	C	0.755588	-0.251838	-1.015373
C194	C	1.255588	0.248162	-0.515373
C195	C	0.755505	-0.251956	-0.164536
C196	C	1.255505	0.248044	0.335464
C197	C	0.755593	-0.251814	-0.082222
C198	C	1.255593	0.248186	0.417778
H199	H	-0.044939	-0.191258	-0.271237
H200	H	0.455061	0.308742	0.228763
Cl201	Cl	0.680611	-0.175499	-0.933259
Cl202	Cl	1.180611	0.324501	-0.433259
H203	H	0.305292	-0.346210	-0.490014
H204	H	0.805292	0.153790	0.009986
Cl205	Cl	0.646562	-0.690138	-0.511087
Cl206	Cl	1.146562	-0.190138	-0.011087
Cl207	Cl	0.830944	-0.438884	-0.250124
Cl208	Cl	1.330944	0.061116	0.249876
Cl209	Cl	0.677734	-0.179443	-0.782904
Cl210	Cl	1.177734	0.320557	-0.282904
Cl211	Cl	-0.057023	-0.327600	-0.463714
Cl212	Cl	0.442977	0.172400	0.036286
Cl213	Cl	0.787178	-0.150217	-0.931248
Cl214	Cl	1.287178	0.349783	-0.431248
Cl215	Cl	0.066199	-0.176407	-0.250280
Cl216	Cl	0.566199	0.323593	0.249720
H217	H	0.822315	-0.307578	-0.919867
H218	H	1.322315	0.192422	-0.419867
Cl219	Cl	0.445315	-0.176381	-0.250201
Cl220	Cl	0.945315	0.323619	0.249799
H221	H	0.841678	-0.239079	-0.920629
H222	H	1.341678	0.260921	-0.420629
H223	H	0.305280	-0.157734	-0.223903
H224	H	0.805280	0.342266	0.276097
Cl225	Cl	0.194152	-0.361041	-0.510978
Cl226	Cl	0.694152	0.138959	-0.010978
Cl227	Cl	0.782630	-0.148075	-0.781291
Cl228	Cl	1.282630	0.351925	-0.281291
Cl229	Cl	0.568564	-0.176377	-0.250184
Cl230	Cl	1.068564	0.323623	0.249816
Cl231	Cl	0.680090	-0.941308	-0.463797
Cl232	Cl	1.180090	-0.441308	0.036203
Cl233	Cl	0.729441	-0.355626	-0.782910
Cl234	Cl	1.229441	0.144374	-0.282910
Cl235	Cl	0.066229	-0.327589	-0.463701
Cl236	Cl	0.566229	0.172411	0.036299
H237	H	0.556472	-0.312722	-0.442660
H238	H	1.056472	0.187278	0.057340
H239	H	0.841691	-0.238463	-0.793897
H240	H	1.341691	0.261537	-0.293897
Cl241	Cl	0.651744	-0.277826	-0.931930
Cl242	Cl	1.151744	0.222174	-0.431930
Cl243	Cl	0.831000	-0.562115	-0.250148
Cl244	Cl	1.331000	-0.062115	0.249852
H245	H	0.849686	-0.702142	-0.223816
H246	H	1.349686	-0.202142	0.276184
H247	H	0.822747	-0.306884	-0.792796
H248	H	1.322747	0.193116	-0.292796
Cl249	Cl	0.864547	-0.813270	-0.202879
Cl250	Cl	1.364547	-0.313270	0.297121
Cl251	Cl	0.831132	-0.941232	-0.250202
Cl252	Cl	1.331132	-0.441232	0.249798
Cl253	Cl	0.194144	-0.142909	-0.202986
Cl254	Cl	0.694144	0.357091	0.297014
Cl255	Cl	0.831171	-1.064480	-0.250227
Cl256	Cl	1.331171	-0.564480	0.249773
H257	H	0.694768	-0.550103	-0.442782
H258	H	1.194768	-0.050103	0.057218
Cl259	Cl	0.680128	-1.064537	-0.463803
Cl260	Cl	1.180128	-0.564537	0.036197
Cl261	Cl	0.445335	-0.327555	-0.463634
Cl262	Cl	0.945335	0.172445	0.036366
Cl263	Cl	0.646604	-0.813367	-0.511114
Cl264	Cl	1.146604	-0.313367	-0.011114
H265	H	0.694730	-0.451037	-0.442755
H266	H	1.194730	0.048963	0.057245
H267	H	0.674265	-0.282959	-0.793505
H268	H	1.174265	0.217041	-0.293505
H269	H	0.724172	-0.332891	-0.921683
H270	H	1.224172	0.167109	-0.421683
