data_functionalizedCrystal
_audit_creation_method	'MofGen! by Chris Wilmer'
_symmetry_space_group_name_H-M	'P1'
_symmetry_Int_Tables_number	1
_symmetry_cell_setting	triclinic
loop_
_symmetry_equiv_pos_as_xyz
  x,y,z
_cell_length_a	21.395362
_cell_length_b	29.839131
_cell_length_c	21.395355
_cell_angle_alpha	89.979828
_cell_angle_beta	89.956060
_cell_angle_gamma	90.057297
loop_
_atom_site_label
_atom_site_type_symbol
_atom_site_fract_x
_atom_site_fract_y
_atom_site_fract_z
Zn1	Zn	0.957813	-0.178715	-0.354578
Zn2	Zn	1.291146	0.154618	-0.021245
Zn3	Zn	1.624480	0.487952	0.312088
Zn4	Zn	0.957696	-0.253830	-0.249798
Zn5	Zn	1.291029	0.079503	0.083536
Zn6	Zn	1.624362	0.412836	0.416869
Zn7	Zn	0.853028	-0.178736	-0.249780
Zn8	Zn	1.186361	0.154597	0.083554
Zn9	Zn	1.519694	0.487931	0.416887
Zn10	Zn	0.852977	-0.253840	-0.354503
Zn11	Zn	1.186311	0.079494	-0.021169
Zn12	Zn	1.519644	0.412827	0.312164
O13	O	0.905378	-0.216280	-0.302165
O14	O	1.238712	0.117053	0.031169
O15	O	1.572045	0.450386	0.364502
O16	O	1.045475	-0.188667	-0.340718
O17	O	1.378809	0.144667	-0.007385
O18	O	1.712142	0.478000	0.325948
O19	O	0.943783	-0.243874	-0.162117
O20	O	1.277117	0.089460	0.171216
O21	O	1.610450	0.422793	0.504549
O22	O	0.866998	-0.115866	-0.263706
O23	O	1.200331	0.217467	0.069628
O24	O	1.533665	0.550801	0.402961
O25	O	1.045389	-0.243853	-0.263737
O26	O	1.378723	0.089480	0.069597
O27	O	1.712056	0.422813	0.402930
O28	O	0.943983	-0.115851	-0.340701
O29	O	1.277316	0.217483	-0.007367
O30	O	1.610650	0.550816	0.325966
O31	O	0.866884	-0.188702	-0.162104
O32	O	1.200218	0.144631	0.171229
O33	O	1.533551	0.477964	0.504563
O34	O	0.765343	-0.188711	-0.263632
O35	O	1.098677	0.144622	0.069701
O36	O	1.432010	0.477955	0.403035
O37	O	0.866912	-0.243869	-0.442191
O38	O	1.200245	0.089464	-0.108857
O39	O	1.533579	0.422797	0.224476
O40	O	0.765306	-0.243889	-0.340571
O41	O	1.098640	0.089444	-0.007238
O42	O	1.431973	0.422777	0.326095
O43	O	0.943934	-0.188676	-0.442246
O44	O	1.277267	0.144658	-0.108913
O45	O	1.610601	0.477991	0.224420
O46	O	0.943735	-0.316699	-0.263663
O47	O	1.277068	0.016635	0.069670
O48	O	1.610401	0.349968	0.403004
O49	O	0.866798	-0.316705	-0.340589
O50	O	1.200132	0.016628	-0.007256
O51	O	1.533465	0.349961	0.326078
C52	C	0.742591	-0.216304	-0.302092
C53	C	1.075924	0.117029	0.031241
C54	C	1.409257	0.450363	0.364575
C55	C	0.672950	-0.216325	-0.302076
C56	C	1.006283	0.117008	0.031258
C57	C	1.339616	0.450342	0.364591
C58	C	0.905265	-0.333003	-0.302133
C59	C	1.238599	0.000331	0.031200
C60	C	1.571932	0.333664	0.364533
C61	C	0.905274	-0.382937	-0.302141
C62	C	1.238608	-0.049604	0.031192
C63	C	1.571941	0.283729	0.364526
C64	C	0.640233	-0.245094	-0.342078
C65	C	0.973567	0.088239	-0.008745
C66	C	1.306900	0.421572	0.324589
C67	C	0.574798	-0.245083	-0.342106
C68	C	0.908131	0.088250	-0.008773
C69	C	1.241465	0.421583	0.324561
C70	C	0.542081	-0.216308	-0.302120
C71	C	0.875415	0.117026	0.031213
C72	C	1.208748	0.450359	0.364546
C73	C	0.574805	-0.187533	-0.262115
C74	C	0.908138	0.145801	0.071218
C75	C	1.241472	0.479134	0.404552
C76	C	0.640239	-0.187541	-0.262093
C77	C	0.973573	0.145792	0.071241
C78	C	1.306906	0.479125	0.404574
C79	C	0.438357	-0.212688	-0.245715
C80	C	0.771691	0.120645	0.087618
C81	C	1.105024	0.453978	0.420951
C82	C	0.372925	-0.212683	-0.245736
C83	C	0.706258	0.120650	0.087597
C84	C	1.039591	0.453984	0.420930
C85	C	0.340261	-0.216278	-0.302189
C86	C	0.673594	0.117055	0.031144
C87	C	1.006927	0.450388	0.364477
C88	C	0.373038	-0.219889	-0.358623
C89	C	0.706371	0.113445	-0.025290
C90	C	1.039704	0.446778	0.308044
C91	C	0.438472	-0.219897	-0.358601
C92	C	0.771805	0.113436	-0.025267
C93	C	1.105138	0.446769	0.308066
C94	C	0.471129	-0.216295	-0.302140
C95	C	0.804462	0.117039	0.031193
C96	C	1.137796	0.450372	0.364526
C97	C	0.236592	-0.245037	-0.342226
C98	C	0.569925	0.088296	-0.008892
C99	C	0.903259	0.421629	0.324441
C100	C	0.171155	-0.245023	-0.342254
C101	C	0.504489	0.088310	-0.008921
C102	C	0.837822	0.421644	0.324412
C103	C	0.171164	-0.187475	-0.262258
C104	C	0.504497	0.145859	0.071075
C105	C	0.837830	0.479192	0.404409
C106	C	0.236599	-0.187487	-0.262235
C107	C	0.569932	0.145847	0.071099
C108	C	0.903266	0.479180	0.404432
C109	C	0.269309	-0.216270	-0.302218
C110	C	0.602643	0.117063	0.031116
C111	C	0.935976	0.450396	0.364449
C112	C	0.945512	-0.692564	-0.262168
C113	C	1.278845	-0.359231	0.071166
C114	C	1.612179	-0.025898	0.404499
C115	C	0.945589	-0.880237	-0.262192
C116	C	1.278923	-0.546904	0.071141
C117	C	1.612256	-0.213571	0.404475
O118	O	0.979711	-0.904488	-0.228181
O119	O	1.313044	-0.571155	0.105152
O120	O	1.646378	-0.237822	0.438485
N121	N	0.905508	-0.903722	-0.302212
N122	N	1.238842	-0.570389	0.031121
N123	N	1.572175	-0.237056	0.364455
C124	C	0.865408	-0.880286	-0.342231
C125	C	1.198742	-0.546953	-0.008898
C126	C	1.532075	-0.213619	0.324435
O127	O	0.831323	-0.904567	-0.376276
O128	O	1.164657	-0.571234	-0.042942
O129	O	1.497990	-0.237901	0.290391
C130	C	0.865334	-0.692614	-0.342210
C131	C	1.198668	-0.359280	-0.008876
C132	C	1.532001	-0.025947	0.324457
C133	C	0.905414	-0.669131	-0.302183
C134	C	1.238747	-0.335798	0.031151
C135	C	1.572080	-0.002465	0.364484
C136	C	0.985588	-0.669082	-0.222145
C137	C	1.318922	-0.335749	0.111189
C138	C	1.652255	-0.002415	0.444522
C139	C	0.985566	-0.622166	-0.222136
C140	C	1.318899	-0.288833	0.111197
C141	C	1.652233	0.044500	0.444530
C142	C	0.945468	-0.598733	-0.262152
C143	C	1.278801	-0.265400	0.071182
C144	C	1.612134	0.067933	0.404515
C145	C	0.905391	-0.622216	-0.302175
C146	C	1.238725	-0.288883	0.031159
C147	C	1.572058	0.044451	0.364492
C148	C	0.825238	-0.669178	-0.382232
C149	C	1.158571	-0.335845	-0.048899
C150	C	1.491905	-0.002512	0.284435
C151	C	0.825224	-0.622257	-0.382224
C152	C	1.158557	-0.288924	-0.048891
C153	C	1.491891	0.044409	0.284443
C154	C	0.865303	-0.598775	-0.342197
C155	C	1.198637	-0.265442	-0.008864
C156	C	1.531970	0.067892	0.324470
C157	C	0.865271	-0.551867	-0.342182
C158	C	1.198604	-0.218534	-0.008848
C159	C	1.531937	0.114799	0.324485
N160	N	0.905352	-0.528383	-0.302162
N161	N	1.238685	-0.195049	0.031171
N162	N	1.572018	0.138284	0.364505
C163	C	0.945450	-0.551816	-0.262147
C164	C	1.278783	-0.218482	0.071187
C165	C	1.612117	0.114851	0.404520
C166	C	0.865449	-0.978816	-0.342239
C167	C	1.198782	-0.645483	-0.008906
C168	C	1.532116	-0.312150	0.324428
C169	C	0.865466	-1.025734	-0.342244
C170	C	1.198800	-0.692401	-0.008910
C171	C	1.532133	-0.359068	0.324423
C172	C	0.945649	-1.025683	-0.262205
C173	C	1.278982	-0.692349	0.071128
C174	C	1.612315	-0.359016	0.404462
C175	C	0.945627	-0.978764	-0.262198
C176	C	1.278961	-0.645431	0.071136
C177	C	1.612294	-0.312097	0.404469
C178	C	0.905530	-0.955332	-0.302219
C179	C	1.238863	-0.621998	0.031114
C180	C	1.572196	-0.288665	0.364447
C181	C	0.945400	-0.453290	-0.262132
C182	C	1.278734	-0.119956	0.071201
C183	C	1.612067	0.213377	0.404534
C184	C	0.945373	-0.406370	-0.262126
C185	C	1.278706	-0.073037	0.071207
C186	C	1.612039	0.260296	0.404541
C187	C	0.865193	-0.406426	-0.342167
C188	C	1.198527	-0.073093	-0.008833
C189	C	1.531860	0.260241	0.324500
C190	C	0.865218	-0.453342	-0.342171
C191	C	1.198551	-0.120008	-0.008838
C192	C	1.531885	0.213325	0.324496
C193	C	0.905327	-0.476772	-0.302152
C194	C	1.238660	-0.143439	0.031181
C195	C	1.571993	0.189894	0.364515
O196	O	0.831172	-0.527587	-0.376180
O197	O	1.164505	-0.194254	-0.042846
O198	O	1.497839	0.139079	0.290487
O199	O	0.979540	-0.527526	-0.228117
O200	O	1.312873	-0.194193	0.105216
O201	O	1.646206	0.139141	0.438549
C202	C	0.945534	-0.739480	-0.262176
C203	C	1.278867	-0.406146	0.071157
C204	C	1.612201	-0.072813	0.404491
C205	C	0.905458	-0.762962	-0.302199
C206	C	1.238791	-0.429629	0.031134
C207	C	1.572125	-0.096296	0.364468
C208	C	0.865359	-0.739529	-0.342214
C209	C	1.198693	-0.406196	-0.008881
C210	C	1.532026	-0.072863	0.324453
C211	C	0.905475	-0.809880	-0.302204
C212	C	1.238809	-0.476547	0.031130
C213	C	1.572142	-0.143213	0.364463
C214	C	0.945574	-0.833313	-0.262189
C215	C	1.278907	-0.499980	0.071145
C216	C	1.612240	-0.166646	0.404478
C217	C	0.985655	-0.809828	-0.222169
C218	C	1.318988	-0.476495	0.111164
C219	C	1.652321	-0.143162	0.444498
C220	C	0.985633	-0.762913	-0.222161
C221	C	1.318966	-0.429579	0.111173
C222	C	1.652299	-0.096246	0.444506
C223	C	0.825278	-0.763014	-0.382234
C224	C	1.158612	-0.429681	-0.048900
C225	C	1.491945	-0.096347	0.284433
C226	C	0.825303	-0.809929	-0.382238
C227	C	1.158637	-0.476596	-0.048905
C228	C	1.491970	-0.143263	0.284429
C229	C	0.865402	-0.833362	-0.342223
C230	C	1.198735	-0.500029	-0.008890
C231	C	1.532069	-0.166696	0.324444
C232	C	1.068802	-0.216257	-0.302238
C233	C	1.402135	0.117077	0.031095
C234	C	1.735468	0.450410	0.364429
C235	C	1.138443	-0.216247	-0.302269
C236	C	1.471776	0.117087	0.031064
C237	C	1.805110	0.450420	0.364397
C238	C	0.905431	-0.216271	-0.465588
C239	C	1.238764	0.117062	-0.132255
C240	C	1.572097	0.450396	0.201079
C241	C	0.905453	-0.216267	-0.535229
C242	C	1.238786	0.117066	-0.201896
C243	C	1.572119	0.450399	0.131437
C244	C	0.905509	-0.099102	-0.302210
C245	C	1.238842	0.234232	0.031124
C246	C	1.572176	0.567565	0.364457
C247	C	0.905565	-0.049167	-0.302229
C248	C	1.238898	0.284166	0.031105
C249	C	1.572231	0.617499	0.364438
C250	C	0.945556	-0.187527	-0.567972
C251	C	1.278890	0.145807	-0.234639
C252	C	1.612223	0.479140	0.098694
C253	C	0.945556	-0.187507	-0.633408
C254	C	1.278889	0.145826	-0.300074
C255	C	1.612222	0.479159	0.033259
C256	C	0.905458	-0.216237	-0.666098
C257	C	1.238791	0.117097	-0.332764
C258	C	1.572124	0.450430	0.000569
C259	C	0.865346	-0.244979	-0.633347
C260	C	1.198679	0.088354	-0.300013
C261	C	1.532013	0.421688	0.033320
C262	C	0.865344	-0.244994	-0.567912
C263	C	1.198677	0.088339	-0.234579
C264	C	1.532010	0.421672	0.098754
C265	C	0.900471	-0.256689	-0.769760
C266	C	1.233804	0.076645	-0.436427
C267	C	1.567138	0.409978	-0.103093
C268	C	0.900478	-0.256674	-0.835193
C269	C	1.233811	0.076659	-0.501860
C270	C	1.567145	0.409993	-0.168526
C271	C	0.905461	-0.216189	-0.867918
C272	C	1.238795	0.117144	-0.534585
C273	C	1.572128	0.450478	-0.201252
C274	C	0.910451	-0.175717	-0.835203
C275	C	1.243785	0.157616	-0.501870
C276	C	1.577118	0.490949	-0.168536
C277	C	0.910449	-0.175733	-0.769769
C278	C	1.243782	0.157601	-0.436436
C279	C	1.577116	0.490934	-0.103102
C280	C	0.905455	-0.216223	-0.737050
C281	C	1.238789	0.117110	-0.403717
C282	C	1.572122	0.450444	-0.070383
C283	C	0.945566	-0.187425	-0.971614
C284	C	1.278900	0.145908	-0.638281
C285	C	1.612233	0.479242	-0.304948
C286	C	0.945561	-0.187405	-1.037051
C287	C	1.278894	0.145928	-0.703718
C288	C	1.612228	0.479262	-0.370384
C289	C	0.865355	-0.244881	-1.036988
C290	C	1.198688	0.088452	-0.703655
C291	C	1.532022	0.421786	-0.370322
C292	C	0.865357	-0.244897	-0.971553
C293	C	1.198690	0.088436	-0.638220
C294	C	1.532024	0.421770	-0.304886
C295	C	0.905466	-0.216170	-0.938870
C296	C	1.238799	0.117164	-0.605536
C297	C	1.572133	0.450497	-0.272203
C298	C	0.905363	-0.216257	-0.139377
C299	C	1.238696	0.117077	0.193956
C300	C	1.572029	0.450410	0.527290
C301	C	0.905462	-0.216134	-0.069736
C302	C	1.238795	0.117199	0.263597
C303	C	1.572129	0.450533	0.596931
H304	H	0.548156	-0.268511	-0.374683
H305	H	0.881489	0.064823	-0.041350
H306	H	1.214822	0.398156	0.291984
H307	H	0.792598	-0.688290	-0.414823
H308	H	1.125932	-0.354956	-0.081490
H309	H	1.459265	-0.021623	0.251844
H310	H	0.978217	-0.163998	-1.063709
H311	H	1.311551	0.169335	-0.730376
H312	H	1.644884	0.502668	-0.397043
H313	H	0.666876	-0.164112	-0.229518
H314	H	1.000210	0.169221	0.103815
H315	H	1.333543	0.502554	0.437149
N316	N	0.988649	-0.478560	-0.218963
N317	N	1.321982	-0.145227	0.114370
N318	N	1.655316	0.188106	0.447703
H319	H	1.017686	-0.497992	-0.244457
H320	H	1.351019	-0.164659	0.088876
H321	H	1.684352	0.168675	0.422209
H322	H	1.013988	-0.456533	-0.193616
H323	H	1.347321	-0.123200	0.139718
H324	H	1.680654	0.210133	0.473051
N325	N	0.988814	-0.156507	-0.668730
N326	N	1.322147	0.176827	-0.335397
N327	N	1.655481	0.510160	-0.002064
H328	H	1.033571	-0.163484	-0.657375
H329	H	1.366905	0.169849	-0.324042
H330	H	1.700238	0.503182	0.009291
H331	H	0.982677	-0.160871	-0.715131
H332	H	1.316010	0.172463	-0.381797
H333	H	1.649343	0.505796	-0.048464
H334	H	0.792573	-0.603181	-0.414816
H335	H	1.125906	-0.269848	-0.081483
H336	H	1.459239	0.063486	0.251850
N337	N	0.821985	-0.478672	-0.385334
N338	N	1.155318	-0.145339	-0.052001
N339	N	1.488652	0.187994	0.281332
H340	H	0.796578	-0.456706	-0.410680
H341	H	1.129911	-0.123373	-0.077347
H342	H	1.463245	0.209960	0.255986
H343	H	0.847485	-0.498102	-0.414367
H344	H	1.180818	-0.164769	-0.081034
H345	H	1.514152	0.168564	0.252299
N346	N	0.895101	-0.300358	-0.734467
N347	N	1.228435	0.032975	-0.401133
N348	N	1.561768	0.366309	-0.067800
H349	H	0.933266	-0.304567	-0.707347
H350	H	1.266600	0.028766	-0.374014
H351	H	1.599933	0.362100	-0.040680
H352	H	0.856471	-0.299740	-0.707324
H353	H	1.189804	0.033594	-0.373991
H354	H	1.523137	0.366927	-0.040658
H355	H	0.896419	-0.289629	-0.861825
H356	H	1.229752	0.043705	-0.528491
H357	H	1.563085	0.377038	-0.195158
H358	H	1.018204	-0.603050	-0.189545
H359	H	1.351537	-0.269717	0.143788
H360	H	1.684870	0.063617	0.477122
N361	N	0.822087	-0.275959	-0.668600
N362	N	1.155420	0.057374	-0.335267
N363	N	1.488753	0.390708	-0.001933
H364	H	0.828172	-0.271588	-0.715022
H365	H	1.161505	0.061746	-0.381688
H366	H	1.494839	0.395079	-0.048355
H367	H	0.831793	-0.308047	-0.657172
H368	H	1.165126	0.025286	-0.323838
H369	H	1.498459	0.358619	0.009495
N370	N	0.337800	-0.223792	-0.419504
N371	N	0.671133	0.109542	-0.086170
N372	N	1.004466	0.442875	0.247163
H373	H	0.349164	-0.252899	-0.440721
H374	H	0.682498	0.080434	-0.107388
H375	H	1.015831	0.413767	0.225946
H376	H	0.291389	-0.223224	-0.410886
H377	H	0.624723	0.110109	-0.077552
H378	H	0.958056	0.443443	0.255781
N379	N	0.271878	-0.276079	-0.385349
N380	N	0.605212	0.057254	-0.052015
N381	N	0.938545	0.390588	0.281318
H382	H	0.241221	-0.294301	-0.410699
H383	H	0.574554	0.039033	-0.077366
H384	H	0.907887	0.372366	0.255968
H385	H	0.299093	-0.257827	-0.414380
H386	H	0.632426	0.075507	-0.081046
H387	H	0.965759	0.408840	0.252287
N388	N	0.822100	-0.275865	-1.072237
N389	N	1.155433	0.057469	-0.738904
N390	N	1.488767	0.390802	-0.405570
H391	H	0.828185	-0.271493	-1.118658
H392	H	1.161518	0.061840	-0.785325
H393	H	1.494851	0.395173	-0.451992
H394	H	0.831814	-0.307952	-1.060807
H395	H	1.165147	0.025382	-0.727474
H396	H	1.498481	0.358715	-0.394140
N397	N	0.988604	-0.381043	-0.218954
N398	N	1.321937	-0.047710	0.114379
N399	N	1.655271	0.285624	0.447712
H400	H	1.014011	-0.403010	-0.193610
H401	H	1.347344	-0.069676	0.139724
H402	H	1.680677	0.263657	0.473057
H403	H	1.017577	-0.361541	-0.244494
H404	H	1.350911	-0.028208	0.088840
H405	H	1.684244	0.305126	0.422173
N406	N	0.915820	-0.132045	-0.870485
N407	N	1.249153	0.201289	-0.537151
N408	N	1.582486	0.534622	-0.203818
H409	H	0.956386	-0.116754	-0.859129
H410	H	1.289719	0.216579	-0.525796
H411	H	1.623052	0.549912	-0.192463
H412	H	0.915032	-0.138206	-0.916890
H413	H	1.248365	0.195127	-0.583557
H414	H	1.581699	0.528460	-0.250224
H415	H	0.978222	-0.164031	-0.945002
H416	H	1.311555	0.169302	-0.611669
H417	H	1.644889	0.502635	-0.278335
N418	N	1.028842	-0.694352	-0.178983
N419	N	1.362175	-0.361018	0.154351
N420	N	1.695508	-0.027685	0.487684
H421	H	1.054223	-0.672350	-0.153632
H422	H	1.387556	-0.339016	0.179702
H423	H	1.720890	-0.005683	0.513035
H424	H	1.003360	-0.713848	-0.149954
H425	H	1.336693	-0.380515	0.183379
H426	H	1.670026	-0.047182	0.516713
N427	N	0.473585	-0.208808	-0.184823
N428	N	0.806918	0.124525	0.148510
N429	N	1.140252	0.457858	0.481843
H430	H	0.442894	-0.206524	-0.149078
H431	H	0.776227	0.126809	0.184256
H432	H	1.109561	0.460143	0.517589
H433	H	0.500682	-0.236179	-0.178927
H434	H	0.834015	0.097155	0.154406
H435	H	1.167349	0.430488	0.487739
H436	H	0.832824	-1.044850	-0.374832
H437	H	1.166157	-0.711516	-0.041498
H438	H	1.499491	-0.378183	0.291835
N439	N	0.822092	-0.275889	-0.936232
N440	N	1.155425	0.057445	-0.602899
N441	N	1.488759	0.390778	-0.269565
H442	H	0.796685	-0.294084	-0.966868
H443	H	1.130018	0.039250	-0.633535
H444	H	1.463352	0.372583	-0.300201
H445	H	0.847559	-0.296685	-0.909094
H446	H	1.180893	0.036648	-0.575760
H447	H	1.514226	0.369982	-0.242427
H448	H	0.548163	-0.164102	-0.229560
H449	H	0.881496	0.169231	0.103774
H450	H	1.214830	0.502564	0.437107
H451	H	0.832544	-0.387340	-0.374745
H452	H	1.165877	-0.054006	-0.041411
H453	H	1.499210	0.279327	0.291922
H454	H	0.832683	-0.268398	-0.541253
H455	H	1.166017	0.064935	-0.207920
H456	H	1.499350	0.398269	0.125413
H457	H	0.978298	-1.044770	-0.229623
H458	H	1.311632	-0.711436	0.103710
H459	H	1.644965	-0.378103	0.437043
H460	H	0.666862	-0.268532	-0.374636
H461	H	1.000195	0.064802	-0.041303
H462	H	1.333529	0.398135	0.292031
N463	N	1.028899	-0.835107	-0.179003
N464	N	1.362232	-0.501774	0.154330
N465	N	1.695566	-0.168440	0.487663
H466	H	1.022825	-0.868392	-0.185086
H467	H	1.356159	-0.535058	0.148248
H468	H	1.689492	-0.201725	0.481581
H469	H	1.073640	-0.826864	-0.188808
H470	H	1.406974	-0.493531	0.144525
H471	H	1.740307	-0.160198	0.477859
N472	N	1.028865	-0.737589	-0.178993
N473	N	1.362198	-0.404255	0.154341
N474	N	1.695531	-0.070922	0.487674
H475	H	1.054268	-0.759559	-0.153650
H476	H	1.387602	-0.426225	0.179684
H477	H	1.720935	-0.092892	0.513017
H478	H	1.057841	-0.718089	-0.204532
H479	H	1.391174	-0.384756	0.128802
H480	H	1.724508	-0.051422	0.462135
N481	N	0.473821	-0.223789	-0.419465
N482	N	0.807154	0.109544	-0.086131
N483	N	1.140487	0.442878	0.247202
H484	H	0.462509	-0.197839	-0.447574
H485	H	0.795842	0.135494	-0.114240
H486	H	1.129175	0.468827	0.219093
H487	H	0.520217	-0.223263	-0.410830
H488	H	0.853550	0.110071	-0.077496
H489	H	1.186884	0.443404	0.255837
N490	N	0.135865	-0.276056	-0.385400
N491	N	0.469199	0.057277	-0.052066
N492	N	0.802532	0.390611	0.281267
H493	H	0.166519	-0.294292	-0.410720
H494	H	0.499852	0.039041	-0.077387
H495	H	0.833185	0.372374	0.255946
H496	H	0.108654	-0.296812	-0.359844
H497	H	0.441988	0.036522	-0.026511
H498	H	0.775321	0.369855	0.306822
H499	H	0.978263	-0.959647	-0.229605
H500	H	1.311597	-0.626314	0.103729
H501	H	1.644930	-0.292981	0.437062
H502	H	0.346242	-0.209746	-0.199785
H503	H	0.679576	0.123587	0.133548
H504	H	1.012909	0.456921	0.466882
H505	H	0.144526	-0.164043	-0.229704
H506	H	0.477860	0.169290	0.103629
H507	H	0.811193	0.502624	0.436963
N508	N	0.271891	-0.156454	-0.219093
N509	N	0.605224	0.176880	0.114240
N510	N	0.938557	0.510213	0.447574
H511	H	0.241238	-0.138221	-0.193767
H512	H	0.574571	0.195113	0.139566
H513	H	0.907904	0.528446	0.472899
H514	H	0.298981	-0.174709	-0.190040
H515	H	0.632314	0.158624	0.143294
H516	H	0.965648	0.491957	0.476627
N517	N	0.822195	-0.953546	-0.385405
N518	N	1.155528	-0.620213	-0.052071
N519	N	1.488862	-0.286880	0.281262
H520	H	0.796808	-0.975547	-0.410752
H521	H	1.130142	-0.642214	-0.077419
H522	H	1.463475	-0.308880	0.255915
H523	H	0.793204	-0.934115	-0.359861
H524	H	1.126537	-0.600782	-0.026528
H525	H	1.459870	-0.267449	0.306806
H526	H	0.792626	-0.743938	-0.414820
H527	H	1.125960	-0.410605	-0.081486
H528	H	1.459293	-0.077272	0.251847
N529	N	0.782066	-0.835254	-0.425407
N530	N	1.115400	-0.501921	-0.092074
N531	N	1.448733	-0.168588	0.241260
H532	H	0.756664	-0.813286	-0.450753
H533	H	1.089997	-0.479953	-0.117420
H534	H	1.423330	-0.146619	0.215914
H535	H	0.807564	-0.854686	-0.454440
H536	H	1.140898	-0.521353	-0.121107
H537	H	1.474231	-0.188019	0.212227
H538	H	0.978216	-0.164134	-0.541366
H539	H	1.311549	0.169199	-0.208032
H540	H	1.644882	0.502533	0.125301
N541	N	0.915832	-0.132086	-0.734482
N542	N	1.249165	0.201248	-0.401148
N543	N	1.582499	0.534581	-0.067815
H544	H	0.918992	-0.106434	-0.765137
H545	H	1.252325	0.226899	-0.431804
H546	H	1.585658	0.560232	-0.098471
H547	H	0.877661	-0.127926	-0.707304
H548	H	1.210995	0.205407	-0.373971
H549	H	1.544328	0.538741	-0.040637
