data_functionalizedCrystal
_audit_creation_method	'MofGen! by Chris Wilmer'
_symmetry_space_group_name_H-M	'P1'
_symmetry_Int_Tables_number	1
_symmetry_cell_setting	triclinic
loop_
_symmetry_equiv_pos_as_xyz
  x,y,z
_cell_length_a	14.971486
_cell_length_b	13.330367
_cell_length_c	14.853576
_cell_angle_alpha	90.001339
_cell_angle_beta	83.626306
_cell_angle_gamma	90.002734
loop_
_atom_site_label
_atom_site_type_symbol
_atom_site_fract_x
_atom_site_fract_y
_atom_site_fract_z
O1	O	1.186974	0.083306	0.117482
O2	O	1.686974	0.583306	0.617482
O3	O	0.926577	0.083333	0.131551
O4	O	1.426577	0.583333	0.631551
O5	O	1.063727	0.083315	-0.006714
O6	O	1.563727	0.583315	0.493286
O7	O	1.049824	0.083324	0.255747
O8	O	1.549824	0.583324	0.755747
O9	O	1.063706	-0.083533	-0.006711
O10	O	1.563706	0.416467	0.493289
O11	O	0.926556	-0.083514	0.131554
O12	O	1.426556	0.416486	0.631554
O13	O	1.186953	-0.083541	0.117484
O14	O	1.686953	0.416459	0.617484
Cu15	Cu	1.056753	-0.098762	0.124519
Cu16	Cu	1.556753	0.401238	0.624519
Cu17	Cu	1.056777	0.098554	0.124516
Cu18	Cu	1.556777	0.598554	0.624516
O19	O	1.049803	-0.083523	0.255750
O20	O	1.549803	0.416477	0.755750
C21	C	0.893242	-0.000087	0.130923
C22	C	1.393242	0.499913	0.630923
C23	C	0.793944	-0.000077	0.129038
C24	C	1.293944	0.499923	0.629038
C25	C	0.736736	-0.000076	0.210265
C26	C	1.236736	0.499924	0.710265
C27	C	0.643436	-0.000091	0.208488
C28	C	1.143436	0.499909	0.708488
C29	C	0.607346	-0.000100	0.125483
C30	C	1.107346	0.499900	0.625483
C31	C	0.664562	-0.000104	0.044249
C32	C	1.164562	0.499896	0.544249
C33	C	0.757860	-0.000097	0.046027
C34	C	1.257860	0.499903	0.546027
C35	C	0.470098	-0.000118	0.040549
C36	C	0.970098	0.499882	0.540549
C37	C	0.376794	-0.000124	0.038771
C38	C	0.876794	0.499876	0.538771
C39	C	0.355675	-0.000112	0.203009
C40	C	0.855675	0.499888	0.703009
C41	C	0.448973	-0.000105	0.204787
C42	C	0.948973	0.499895	0.704787
C43	C	0.506182	-0.000107	0.123554
C44	C	1.006182	0.499893	0.623554
N45	N	1.056742	-0.237544	0.124521
N46	N	1.556742	0.262456	0.624521
C47	C	1.063085	-0.000108	-0.040301
C48	C	1.563085	0.499892	0.459699
C49	C	1.061193	-0.000104	-0.140384
C50	C	1.561193	0.499896	0.359616
C51	C	1.220289	-0.000119	0.118112
C52	C	1.720289	0.499881	0.618112
C53	C	1.319586	-0.000123	0.119998
C54	C	1.819586	0.499877	0.619998
C55	C	1.002430	-0.290065	0.069752
C56	C	1.502430	0.209935	0.569752
C57	C	1.111065	-0.290051	0.179286
C58	C	1.611065	0.209949	0.679286
C59	C	1.111075	-0.395069	0.179286
C60	C	1.611075	0.104931	0.679286
C61	C	1.056763	-0.447590	0.124516
C62	C	1.556763	0.052410	0.624516
C63	C	1.002441	-0.395093	0.069748
C64	C	1.502441	0.104907	0.569748
C65	C	1.165404	-0.447574	0.234046
C66	C	1.665404	0.052426	0.734046
C67	C	1.165417	-0.552599	0.234047
C68	C	1.665417	-0.052599	0.734047
C69	C	1.111100	-0.605122	0.179282
C70	C	1.611100	-0.105122	0.679282
C71	C	1.056774	-0.552618	0.124512
C72	C	1.556774	-0.052618	0.624512
C73	C	1.002462	-0.605140	0.069743
C74	C	1.502462	-0.105140	0.569743
C75	C	0.948131	-0.552638	0.014977
C76	C	1.448131	-0.052638	0.514977
C77	C	0.948123	-0.447616	0.014982
C78	C	1.448123	0.052384	0.514982
C79	C	1.111108	-0.710144	0.179276
C80	C	1.611108	-0.210144	0.679276
C81	C	1.002473	-0.710168	0.069738
C82	C	1.502473	-0.210168	0.569738
N83	N	1.056795	0.237335	0.124507
N84	N	1.556795	0.737335	0.624507
C85	C	1.060314	0.090849	-0.187401
C86	C	1.560314	0.590849	0.312599
C87	C	1.060302	-0.091054	-0.187411
C88	C	1.560302	0.408946	0.312589
C89	C	1.058529	-0.091054	-0.281445
C90	C	1.558529	0.408946	0.218555
C91	C	1.057650	-0.000101	-0.328461
C92	C	1.557650	0.499899	0.171539
C93	C	1.058544	0.090852	-0.281443
C94	C	1.558544	0.590852	0.218557
C95	C	1.057644	-0.182006	-0.328470
C96	C	1.557644	0.317994	0.171530
C97	C	1.055872	-0.182009	-0.422510
C98	C	1.555872	0.317991	0.077490
C99	C	1.054987	-0.091055	-0.469527
C100	C	1.554987	0.408945	0.030473
C101	C	1.055880	-0.000098	-0.422504
C102	C	1.555880	0.499902	0.077496
C103	C	1.055001	0.090855	-0.469520
C104	C	1.555001	0.590855	0.030480
C105	C	1.055888	0.181812	-0.422498
C106	C	1.555888	0.681812	0.077502
C107	C	1.057659	0.181806	-0.328461
C108	C	1.557659	0.681806	0.171539
C109	C	1.053216	-0.091049	-0.563564
C110	C	1.553216	0.408951	-0.063564
C111	C	1.053231	0.090857	-0.563563
C112	C	1.553231	0.590857	-0.063563
C113	C	1.050445	-0.000099	0.289337
C114	C	1.550445	0.499901	0.789337
C115	C	1.052337	-0.000096	0.389420
C116	C	1.552337	0.499904	0.889420
H117	H	0.766113	-0.000067	0.277857
H118	H	1.266113	0.499933	0.777857
H119	H	0.478354	-0.000087	0.272377
H120	H	0.978354	0.499913	0.772377
C121	C	1.225159	-0.389795	0.294272
C122	C	1.725159	0.110205	0.794272
N123	N	1.270173	-0.346271	0.339632
N124	N	1.770173	0.153729	0.839632
C125	C	1.058650	0.281850	-0.276731
C126	C	1.558650	0.781850	0.223269
N127	N	1.059404	0.357203	-0.237766
N128	N	1.559404	0.857203	0.262234
H129	H	1.055177	0.255866	-0.460791
H130	H	1.555177	0.755866	0.039209
C131	C	1.052242	-0.191096	-0.615285
C132	C	1.552242	0.308904	-0.115285
N133	N	1.051505	-0.266457	-0.654239
N134	N	1.551505	0.233543	-0.154239
H135	H	0.804439	-0.000097	-0.020116
H136	H	1.304439	0.499903	0.479884
C137	C	0.888530	-0.389857	-0.045421
C138	C	1.388530	0.110143	0.454579
N139	N	0.843705	-0.346348	-0.090977
N140	N	1.343705	0.153652	0.409023
C141	C	0.292743	-0.000115	0.292368
C142	C	0.792743	0.499885	0.792368
N143	N	0.245339	-0.000114	0.359669
N144	N	0.745339	0.499886	0.859669
H145	H	1.061033	0.164904	-0.149110
H146	H	1.561033	0.664904	0.350890
H147	H	1.058367	-0.256055	-0.290184
H148	H	1.558367	0.243945	0.209816
C149	C	1.054885	-0.282064	-0.474224
C150	C	1.554885	0.217936	0.025776
N151	N	1.054137	-0.357426	-0.513176
N152	N	1.554137	0.142574	-0.013176
C153	C	0.580511	-0.000107	0.297844
C154	C	1.080511	0.499893	0.797844
N155	N	0.533115	-0.000127	0.365151
N156	N	1.033115	0.499873	0.865151
C157	C	0.337097	-0.000136	-0.052539
C158	C	0.837097	0.499864	0.447461
N159	N	0.307198	-0.000145	-0.121315
N160	N	0.807198	0.499855	0.378685
C161	C	1.170816	-0.232274	0.239518
C162	C	1.670816	0.267726	0.739518
N163	N	1.215824	-0.188752	0.284885
N164	N	1.715824	0.311248	0.784885
C165	C	1.052281	0.190915	-0.615276
C166	C	1.552281	0.690915	-0.115276
N167	N	1.051574	0.266279	-0.654226
N168	N	1.551574	0.766279	-0.154226
H169	H	0.516676	-0.000122	-0.025600
H170	H	1.016676	0.499878	0.474400
H171	H	0.635170	-0.000126	-0.023335
H172	H	1.135170	0.499874	0.476665
H173	H	0.958192	-0.247314	0.025165
H174	H	1.458192	0.252686	0.525165
H175	H	0.958241	-0.752923	0.025142
H176	H	1.458241	-0.252923	0.525142
H177	H	1.155346	-0.752886	0.223862
H178	H	1.655346	-0.252886	0.723862
H179	H	0.903914	-0.595414	-0.029620
H180	H	1.403914	-0.095414	0.470380
H181	H	1.209656	-0.595337	0.278642
H182	H	1.709656	-0.095337	0.778642
H183	H	1.061024	-0.165104	-0.149125
H184	H	1.561024	0.334896	0.350875
