data_functionalizedCrystal
_audit_creation_method	'MofGen! by Chris Wilmer'
_symmetry_space_group_name_H-M	'P1'
_symmetry_Int_Tables_number	1
_symmetry_cell_setting	triclinic
loop_
_symmetry_equiv_pos_as_xyz
  x,y,z
_cell_length_a	10.723024
_cell_length_b	10.065875
_cell_length_c	10.723024
_cell_angle_alpha	81.125686
_cell_angle_beta	84.467869
_cell_angle_gamma	98.831087
loop_
_atom_site_label
_atom_site_type_symbol
_atom_site_fract_x
_atom_site_fract_y
_atom_site_fract_z
O1	O	1.675288	0.113481	0.156842
O2	O	1.312136	0.113485	0.173595
O3	O	1.502088	0.113478	-0.016357
O4	O	1.485336	0.113488	0.346794
O5	O	1.465868	-0.113509	0.020011
O6	O	1.275917	-0.113502	0.209963
O7	O	1.639068	-0.113506	0.193210
Zn8	Zn	1.451742	-0.149543	0.207361
Zn9	Zn	1.499463	0.149522	0.159444
O10	O	1.449117	-0.113499	0.383162
C11	C	1.247527	-0.000008	0.190560
C12	C	1.108973	-0.000006	0.186912
N13	N	1.419182	-0.353648	0.240061
C14	C	1.033991	-0.000002	0.293199
C15	C	0.890788	-0.000001	0.289431
C16	C	1.488127	-0.421429	0.170814
C17	C	1.463078	-0.578595	0.195991
C18	C	1.703678	-0.000010	0.176245
C19	C	1.842234	-0.000003	0.179892
C20	C	1.482759	-0.000014	-0.044673
C21	C	1.479112	-0.000009	-0.183228
N22	N	1.532032	0.353627	0.126734
C23	C	1.585400	-0.000009	-0.258210
C24	C	1.581633	-0.000004	-0.401415
C25	C	1.468446	-0.000004	0.411477
C26	C	1.472094	0.000000	0.550031
H27	H	0.826357	0.000008	0.380420
H28	H	0.906660	0.000002	0.088895
H29	H	1.385498	-0.636913	0.273917
H30	H	1.385328	0.000001	-0.225052
N31	N	1.053578	-0.000022	0.062682
H32	H	1.013593	0.084120	0.042785
H33	H	1.123349	-0.000078	-0.007653
N34	N	1.590849	-0.344190	0.067559
H35	H	1.594169	-0.242864	0.064197
H36	H	1.675631	-0.369057	0.086467
N37	N	1.709635	-0.000023	-0.202824
H38	H	1.745280	-0.084170	-0.218025
H39	H	1.772054	0.084174	-0.245000
H40	H	1.381097	-0.000010	-0.385542
H41	H	1.609603	-0.588055	0.048799
N42	N	1.089371	-0.000008	0.417438
H43	H	1.183820	-0.000010	0.402519
H44	H	1.074034	0.084142	0.452975
H45	H	1.341607	-0.411971	0.317982
H46	H	1.672623	-0.000009	-0.465846
