data_functionalizedCrystal
_audit_creation_method	'MofGen! by Chris Wilmer'
_symmetry_space_group_name_H-M	'P1'
_symmetry_Int_Tables_number	1
_symmetry_cell_setting	triclinic
loop_
_symmetry_equiv_pos_as_xyz
  x,y,z
_cell_length_a	19.805407
_cell_length_b	17.637651
_cell_length_c	19.805399
_cell_angle_alpha	78.757390
_cell_angle_beta	89.982197
_cell_angle_gamma	101.216285
loop_
_atom_site_label
_atom_site_type_symbol
_atom_site_fract_x
_atom_site_fract_y
_atom_site_fract_z
Zn1	Zn	0.980294	-0.314832	-0.328138
Zn2	Zn	1.230294	-0.064832	-0.078138
Zn3	Zn	1.480294	0.185168	0.171862
Zn4	Zn	1.730294	0.435168	0.421862
Zn5	Zn	0.957346	-0.447046	-0.192041
Zn6	Zn	1.207346	-0.197046	0.057959
Zn7	Zn	1.457346	0.052954	0.307959
Zn8	Zn	1.707346	0.302954	0.557959
Zn9	Zn	0.867106	-0.314848	-0.214963
Zn10	Zn	1.117106	-0.064848	0.035037
Zn11	Zn	1.367106	0.185152	0.285037
Zn12	Zn	1.617106	0.435152	0.535037
Zn13	Zn	0.844218	-0.446998	-0.305200
Zn14	Zn	1.094218	-0.196998	-0.055200
Zn15	Zn	1.344218	0.053002	0.194800
Zn16	Zn	1.594218	0.303002	0.444800
O17	O	0.912241	-0.380931	-0.260086
O18	O	1.162241	-0.130931	-0.010086
O19	O	1.412241	0.119069	0.239914
O20	O	1.662241	0.369069	0.489914
O21	O	1.071964	-0.332384	-0.310091
O22	O	1.321964	-0.082384	-0.060091
O23	O	1.571964	0.167616	0.189909
O24	O	1.821964	0.417616	0.439909
O25	O	0.945351	-0.429537	-0.100361
O26	O	1.195351	-0.179537	0.149639
O27	O	1.445351	0.070463	0.399639
O28	O	1.695351	0.320463	0.649639
O29	O	0.901303	-0.204208	-0.249169
O30	O	1.151303	0.045792	0.000831
O31	O	1.401303	0.295792	0.250831
O32	O	1.651303	0.545792	0.500831
O33	O	1.055104	-0.429522	-0.210102
O34	O	1.305104	-0.179522	0.039898
O35	O	1.555104	0.070478	0.289898
O36	O	1.805104	0.320478	0.539898
O37	O	0.984462	-0.204197	-0.332317
O38	O	1.234462	0.045803	-0.082317
O39	O	1.484462	0.295803	0.167683
O40	O	1.734462	0.545803	0.417683
O41	O	0.879052	-0.332411	-0.117201
O42	O	1.129052	-0.082411	0.132799
O43	O	1.379052	0.167589	0.382799
O44	O	1.629052	0.417589	0.632799
O45	O	0.769356	-0.332364	-0.226927
O46	O	1.019356	-0.082364	0.023073
O47	O	1.269356	0.167636	0.273073
O48	O	1.519356	0.417636	0.523073
O49	O	0.862294	-0.429439	-0.402964
O50	O	1.112294	-0.179439	-0.152964
O51	O	1.362294	0.070561	0.097036
O52	O	1.612294	0.320561	0.347036
O53	O	0.752540	-0.429455	-0.293223
O54	O	1.002540	-0.179455	-0.043223
O55	O	1.252540	0.070545	0.206777
O56	O	1.502540	0.320545	0.456777
O57	O	0.962268	-0.332338	-0.419816
O58	O	1.212268	-0.082338	-0.169816
O59	O	1.462268	0.167662	0.080184
O60	O	1.712268	0.417662	0.330184
O61	O	0.923157	-0.557677	-0.187860
O62	O	1.173157	-0.307677	0.062140
O63	O	1.423157	-0.057677	0.312140
O64	O	1.673157	0.192323	0.562140
O65	O	0.840042	-0.557642	-0.270997
O66	O	1.090042	-0.307642	-0.020997
O67	O	1.340042	-0.057642	0.229003
O68	O	1.590042	0.192358	0.479003
C69	C	0.736389	-0.380906	-0.260073
C70	C	0.986389	-0.130906	-0.010073
C71	C	1.236389	0.119094	0.239927
C72	C	1.486389	0.369094	0.489927
C73	C	0.661156	-0.380915	-0.260081
C74	C	0.911156	-0.130915	-0.010081
C75	C	1.161156	0.119085	0.239919
C76	C	1.411156	0.369085	0.489919
C77	C	0.634576	-0.330425	-0.312196
C78	C	0.884576	-0.080425	-0.062196
C79	C	1.134576	0.169575	0.187804
C80	C	1.384576	0.419575	0.437804
C81	C	0.563887	-0.330429	-0.312198
C82	C	0.813887	-0.080429	-0.062198
C83	C	1.063887	0.169571	0.187802
C84	C	1.313887	0.419571	0.437802
C85	C	0.519778	-0.380928	-0.260087
C86	C	0.769778	-0.130928	-0.010087
C87	C	1.019778	0.119072	0.239913
C88	C	1.269778	0.369072	0.489913
C89	C	0.546363	-0.431420	-0.207967
C90	C	0.796363	-0.181420	0.042033
C91	C	1.046363	0.068580	0.292033
C92	C	1.296363	0.318580	0.542033
C93	C	0.617051	-0.431411	-0.207963
C94	C	0.867051	-0.181411	0.042037
C95	C	1.117051	0.068589	0.292037
C96	C	1.367051	0.318589	0.542037
C97	C	0.261283	-0.431455	-0.207981
C98	C	0.511283	-0.181455	0.042019
C99	C	0.761283	0.068545	0.292019
C100	C	1.011283	0.318545	0.542019
C101	C	0.190590	-0.431462	-0.207991
C102	C	0.440590	-0.181462	0.042009
C103	C	0.690590	0.068538	0.292009
C104	C	0.940590	0.318538	0.542009
C105	C	0.208118	-0.330473	-0.312216
C106	C	0.458118	-0.080473	-0.062216
C107	C	0.708118	0.169527	0.187784
C108	C	0.958118	0.419527	0.437784
C109	C	0.278807	-0.330465	-0.312212
C110	C	0.528807	-0.080465	-0.062212
C111	C	0.778807	0.169535	0.187788
C112	C	1.028807	0.419535	0.437788
C113	C	0.305386	-0.380953	-0.260091
C114	C	0.555386	-0.130953	-0.010091
C115	C	0.805386	0.119047	0.239909
C116	C	1.055386	0.369047	0.489909
C117	C	0.382036	-0.380947	-0.260089
C118	C	0.632036	-0.130947	-0.010089
C119	C	0.882036	0.119053	0.239911
C120	C	1.132036	0.369053	0.489911
C121	C	0.443129	-0.380938	-0.260091
C122	C	0.693129	-0.130938	-0.010091
C123	C	0.943129	0.119062	0.239909
C124	C	1.193129	0.369062	0.489909
C125	C	0.876644	-0.586347	-0.224467
C126	C	1.126644	-0.336347	0.025533
C127	C	1.376644	-0.086347	0.275533
C128	C	1.626644	0.163653	0.525533
C129	C	0.861477	-0.674225	-0.209251
C130	C	1.111477	-0.424225	0.040749
C131	C	1.361477	-0.174225	0.290749
C132	C	1.611477	0.075775	0.540749
C133	C	1.027900	-0.962919	-0.375888
C134	C	1.277900	-0.712919	-0.125888
C135	C	1.527900	-0.462919	0.124112
C136	C	1.777900	-0.212919	0.374112
C137	C	1.013628	-1.045493	-0.361579
C138	C	1.263628	-0.795493	-0.111579
C139	C	1.513628	-0.545493	0.138421
C140	C	1.763628	-0.295493	0.388421
C141	C	0.927092	-1.045613	-0.274913
C142	C	1.177092	-0.795613	-0.024913
C143	C	1.427092	-0.545613	0.225087
C144	C	1.677092	-0.295613	0.475087
C145	C	0.941360	-0.963037	-0.289212
C146	C	1.191360	-0.713037	-0.039212
C147	C	1.441360	-0.463037	0.210788
C148	C	1.691360	-0.213037	0.460788
C149	C	0.991764	-0.921696	-0.339701
C150	C	1.241764	-0.671696	-0.089701
C151	C	1.491764	-0.421696	0.160299
C152	C	1.741764	-0.171696	0.410299
C153	C	0.905224	-0.921814	-0.253025
C154	C	1.155224	-0.671814	-0.003025
C155	C	1.405224	-0.421814	0.246975
C156	C	1.655224	-0.171814	0.496975
C157	C	0.919488	-0.839245	-0.267326
C158	C	1.169488	-0.589245	-0.017326
C159	C	1.419488	-0.339245	0.232674
C160	C	1.669488	-0.089245	0.482674
C161	C	0.969889	-0.797899	-0.317814
C162	C	1.219889	-0.547899	-0.067814
C163	C	1.469889	-0.297899	0.182186
C164	C	1.719889	-0.047899	0.432186
C165	C	1.006029	-0.839127	-0.354002
C166	C	1.256029	-0.589127	-0.104002
C167	C	1.506029	-0.339127	0.145998
C168	C	1.756029	-0.089127	0.395998
C169	C	0.854816	-0.963156	-0.202539
C170	C	1.104816	-0.713156	0.047461
C171	C	1.354816	-0.463156	0.297461
C172	C	1.604816	-0.213156	0.547461
C173	C	0.818680	-0.921933	-0.166352
C174	C	1.068680	-0.671933	0.083648
C175	C	1.318680	-0.421933	0.333648
C176	C	1.568680	-0.171933	0.583648
C177	C	0.832948	-0.839362	-0.180649
C178	C	1.082948	-0.589362	0.069351
C179	C	1.332948	-0.339362	0.319351
C180	C	1.582948	-0.089362	0.569351
C181	C	0.883349	-0.798016	-0.231138
C182	C	1.133349	-0.548016	0.018862
C183	C	1.383349	-0.298016	0.268862
C184	C	1.633349	-0.048016	0.518862
C185	C	0.796808	-0.798134	-0.144461
C186	C	1.046808	-0.548134	0.105539
C187	C	1.296808	-0.298134	0.355539
C188	C	1.546808	-0.048134	0.605539
C189	C	0.811073	-0.715565	-0.158762
C190	C	1.061073	-0.465565	0.091238
C191	C	1.311073	-0.215565	0.341238
C192	C	1.561073	0.034435	0.591238
C193	C	0.897613	-0.715447	-0.245438
C194	C	1.147613	-0.465447	0.004562
C195	C	1.397613	-0.215447	0.254562
C196	C	1.647613	0.034553	0.504562
C197	C	1.088779	-0.380957	-0.260098
C198	C	1.338779	-0.130957	-0.010098
C199	C	1.588779	0.119043	0.239902
C200	C	1.838779	0.369043	0.489902
C201	C	1.164009	-0.380967	-0.260103
C202	C	1.414009	-0.130967	-0.010103
C203	C	1.664009	0.119033	0.239897
C204	C	1.914009	0.369033	0.489897
C205	C	0.912288	-0.380881	-0.436637
C206	C	1.162288	-0.130881	-0.186637
C207	C	1.412288	0.119119	0.063363
C208	C	1.662288	0.369119	0.313363
C209	C	0.912307	-0.380860	-0.511873
C210	C	1.162307	-0.130860	-0.261873
C211	C	1.412307	0.119140	-0.011873
C212	C	1.662307	0.369140	0.238127
C213	C	0.947996	-0.174713	-0.295859
C214	C	1.197996	0.075287	-0.045859
C215	C	1.447996	0.325287	0.204141
C216	C	1.697996	0.575287	0.454141
C217	C	0.963232	-0.086836	-0.311103
C218	C	1.213232	0.163164	-0.061103
C219	C	1.463232	0.413164	0.188897
C220	C	1.713232	0.663164	0.438897
C221	C	0.964366	-0.330297	-0.555993
C222	C	1.214366	-0.080297	-0.305993
C223	C	1.464366	0.169703	-0.055993
C224	C	1.714366	0.419703	0.194007
C225	C	0.964377	-0.330274	-0.626686
C226	C	1.214377	-0.080274	-0.376686
C227	C	1.464377	0.169726	-0.126686
C228	C	1.714377	0.419726	0.123314
C229	C	0.912331	-0.380819	-0.653256
C230	C	1.162331	-0.130819	-0.403256
C231	C	1.412331	0.119181	-0.153256
C232	C	1.662331	0.369181	0.096744
C233	C	0.860268	-0.431384	-0.609130
C234	C	1.110268	-0.181384	-0.359130
C235	C	1.360268	0.068616	-0.109130
C236	C	1.610268	0.318616	0.140870
C237	C	0.860255	-0.431403	-0.538439
C238	C	1.110255	-0.181403	-0.288439
C239	C	1.360255	0.068597	-0.038439
C240	C	1.610255	0.318597	0.211561
C241	C	0.860319	-0.431311	-0.894216
C242	C	1.110319	-0.181311	-0.644216
C243	C	1.360319	0.068689	-0.394216
C244	C	1.610319	0.318689	-0.144216
C245	C	0.860337	-0.431290	-0.964911
C246	C	1.110337	-0.181290	-0.714911
C247	C	1.360337	0.068710	-0.464911
C248	C	1.610337	0.318710	-0.214911
C249	C	0.964441	-0.330182	-0.982463
C250	C	1.214441	-0.080182	-0.732463
C251	C	1.464441	0.169818	-0.482463
C252	C	1.714441	0.419818	-0.232463
C253	C	0.964428	-0.330200	-0.911772
C254	C	1.214428	-0.080200	-0.661772
C255	C	1.464428	0.169800	-0.411772
C256	C	1.714428	0.419800	-0.161772
C257	C	0.912363	-0.380762	-0.867653
C258	C	1.162363	-0.130762	-0.617653
C259	C	1.412363	0.119238	-0.367653
C260	C	1.662363	0.369238	-0.117653
C261	C	0.912351	-0.380786	-0.791000
C262	C	1.162351	-0.130786	-0.541000
C263	C	1.412351	0.119214	-0.291000
C264	C	1.662351	0.369214	-0.041000
C265	C	0.912345	-0.380800	-0.729906
C266	C	1.162345	-0.130800	-0.479906
C267	C	1.412345	0.119200	-0.229906
C268	C	1.662345	0.369200	0.020094
C269	C	0.912243	-0.380924	-0.084231
C270	C	1.162243	-0.130924	0.165769
C271	C	1.412243	0.119076	0.415769
C272	C	1.662243	0.369076	0.665769
C273	C	0.912393	-0.380722	-0.009034
C274	C	1.162393	-0.130722	0.240966
C275	C	1.412393	0.119278	0.490966
C276	C	1.662393	0.369278	0.740966
H277	H	0.542249	-0.289317	-0.354636
H278	H	0.792249	-0.039317	-0.104636
H279	H	1.042249	0.210683	0.145364
H280	H	1.292249	0.460683	0.395364
H281	H	0.638691	-0.472525	-0.165525
H282	H	0.888691	-0.222525	0.084475
H283	H	1.138691	0.027475	0.334475
H284	H	1.388691	0.277475	0.584475
F285	F	1.059683	-0.795125	-0.407731
F286	F	1.309683	-0.545125	-0.157731
F287	F	1.559683	-0.295125	0.092269
F288	F	1.809683	-0.045125	0.342269
F289	F	0.325747	-0.276721	-0.367678
F290	F	0.575747	-0.026721	-0.117678
F291	F	0.825747	0.223279	0.132322
F292	F	1.075747	0.473279	0.382322
H293	H	0.186470	-0.289360	-0.354655
H294	H	0.436470	-0.039360	-0.104655
H295	H	0.686470	0.210640	0.145345
H296	H	0.936470	0.460640	0.395345
H297	H	0.282915	-0.472567	-0.165541
H298	H	0.532915	-0.222567	0.084459
H299	H	0.782915	0.027433	0.334459
H300	H	1.032915	0.277433	0.584459
H301	H	1.006810	-0.289044	-0.890143
H302	H	1.256810	-0.039044	-0.640143
H303	H	1.506810	0.210956	-0.390143
H304	H	1.756810	0.460956	-0.140143
H305	H	0.154677	-0.472586	-0.165553
H306	H	0.404677	-0.222586	0.084447
H307	H	0.654677	0.027414	0.334447
H308	H	0.904677	0.277414	0.584447
F309	F	1.081554	-0.918917	-0.429617
F310	F	1.331554	-0.668917	-0.179617
F311	F	1.581554	-0.418917	0.070383
F312	F	1.831554	-0.168917	0.320383
F313	F	1.019852	-0.276366	-1.029424
F314	F	1.269852	-0.026366	-0.779424
F315	F	1.519852	0.223634	-0.529424
F316	F	1.769852	0.473634	-0.279424
H317	H	0.817890	-0.472536	-0.630768
H318	H	1.067890	-0.222536	-0.380768
H319	H	1.317890	0.027464	-0.130768
H320	H	1.567890	0.277464	0.119232
H321	H	0.817858	-0.472569	-0.502517
H322	H	1.067858	-0.222569	-0.252517
H323	H	1.317858	0.027431	-0.002517
H324	H	1.567858	0.277431	0.247483
H325	H	0.781646	-0.682001	-0.129295
H326	H	1.031646	-0.432001	0.120705
H327	H	1.281646	-0.182001	0.370705
H328	H	1.531646	0.067999	0.620705
F329	F	0.804907	-0.485124	-0.847270
F330	F	1.054907	-0.235124	-0.597270
F331	F	1.304907	0.014876	-0.347270
F332	F	1.554907	0.264876	-0.097270
H333	H	0.817952	-0.472452	-0.986541
H334	H	1.067952	-0.222452	-0.736541
H335	H	1.317952	0.027548	-0.486541
H336	H	1.567952	0.277548	-0.236541
H337	H	0.670485	-0.289305	-0.354632
H338	H	0.920485	-0.039305	-0.104632
H339	H	1.170485	0.210695	0.145368
H340	H	1.420485	0.460695	0.395368
F341	F	0.499418	-0.485160	-0.152503
F342	F	0.749418	-0.235160	0.097497
F343	F	0.999418	0.014840	0.347497
F344	F	1.249418	0.264840	0.597497
H345	H	0.938663	-0.681786	-0.286547
H346	H	1.188663	-0.431786	-0.036547
H347	H	1.438663	-0.181786	0.213453
H348	H	1.688663	0.068214	0.463453
H349	H	1.043048	-1.079054	-0.391061
H350	H	1.293048	-0.829054	-0.141061
H351	H	1.543048	-0.579054	0.108939
H352	H	1.793048	-0.329054	0.358939
H353	H	0.886051	-1.079283	-0.233806
H354	H	1.136051	-0.829283	0.016194
H355	H	1.386051	-0.579283	0.266194
H356	H	1.636051	-0.329283	0.516194
H357	H	0.843197	-1.030389	-0.190904
H358	H	1.093197	-0.780389	0.059096
H359	H	1.343197	-0.530389	0.309096
H360	H	1.593197	-0.280389	0.559096
H361	H	0.981503	-0.730666	-0.329456
H362	H	1.231503	-0.480666	-0.079456
H363	H	1.481503	-0.230666	0.170544
H364	H	1.731503	0.019334	0.420544
F365	F	0.765033	-0.965939	-0.112624
F366	F	1.015033	-0.715939	0.137376
F367	F	1.265033	-0.465939	0.387376
F368	F	1.515033	-0.215939	0.637376
F369	F	0.743157	-0.842142	-0.090738
F370	F	0.993157	-0.592142	0.159262
F371	F	1.243157	-0.342142	0.409262
F372	F	1.493157	-0.092142	0.659262
H373	H	1.006749	-0.289139	-0.534366
H374	H	1.256749	-0.039139	-0.284366
H375	H	1.506749	0.210861	-0.034366
H376	H	1.756749	0.460861	0.215634
F377	F	1.019803	-0.276484	-0.673635
F378	F	1.269803	-0.026484	-0.423635
F379	F	1.519803	0.223516	-0.173635
F380	F	1.769803	0.473516	0.076365
