data_functionalizedCrystal
_audit_creation_method	'MofGen! by Chris Wilmer'
_symmetry_space_group_name_H-M	'P1'
_symmetry_Int_Tables_number	1
_symmetry_cell_setting	triclinic
loop_
_symmetry_equiv_pos_as_xyz
  x,y,z
_cell_length_a	23.096457
_cell_length_b	23.096457
_cell_length_c	23.096457
_cell_angle_alpha	120.002172
_cell_angle_beta	90.002977
_cell_angle_gamma	60.002514
loop_
_atom_site_label
_atom_site_type_symbol
_atom_site_fract_x
_atom_site_fract_y
_atom_site_fract_z
Zr1	Zr	0.557839	0.633698	0.075973
O2	O	0.465400	0.754487	0.168418
O3	O	0.586168	0.512914	0.047636
O4	O	0.586180	0.633702	0.168425
O5	O	0.465389	0.633694	-0.047654
O6	O	0.681462	0.633700	0.168427
O7	O	0.465389	0.633699	0.047629
O8	O	0.681441	0.417633	-0.047642
O9	O	0.465410	0.849761	0.168415
O10	O	0.669368	0.562591	0.035549
O11	O	0.598261	0.562589	-0.035562
O12	O	0.598274	0.704801	0.106651
O13	O	0.527166	0.704799	0.035541
Zr14	Zr	0.709804	0.633687	-0.075990
Zr15	Zr	0.709803	0.633694	0.075976
Zr16	Zr	0.557840	0.633691	-0.075994
Zr17	Zr	0.557854	0.785650	0.075967
Zr18	Zr	0.709789	0.481735	-0.075985
O19	O	0.681475	0.754471	-0.047654
O20	O	0.681474	0.754481	0.168422
O21	O	0.465402	0.754476	-0.047659
O22	O	0.802243	0.512898	-0.168436
O23	O	0.802242	0.512909	0.047641
O24	O	0.586169	0.512904	-0.168440
O25	O	0.802254	0.633691	0.047636
O26	O	0.681464	0.633683	-0.168443
O27	O	0.586182	0.633685	-0.168445
O28	O	0.802255	0.633686	-0.047647
O29	O	0.586201	0.849758	0.168417
O30	O	0.681442	0.417627	-0.168435
O31	O	0.802234	0.417624	-0.168432
O32	O	0.802233	0.417630	-0.047640
O33	O	0.465411	0.849755	0.047622
O34	O	0.586202	0.849752	0.047624
O35	O	0.669369	0.562584	-0.106669
O36	O	0.740477	0.562586	-0.035559
O37	O	0.669383	0.704796	0.035544
O38	O	0.598275	0.704794	-0.035567
C39	C	0.633803	0.443623	-0.000002
C40	C	0.633796	0.379116	0.000000
C41	C	0.686289	0.296327	-0.052487
C42	C	0.686294	0.235705	-0.052493
C43	C	0.633811	0.257877	-0.000002
C44	C	0.581309	0.340681	0.052489
C45	C	0.581302	0.401300	0.052490
N46	N	0.617932	0.201771	0.062245
N47	N	0.617943	0.144182	0.062241
C48	C	0.633830	0.075238	-0.000004
N49	N	0.649718	0.066051	-0.062248
N50	N	0.649710	0.123644	-0.062244
C51	C	0.633813	0.192152	0.000002
C52	C	0.686331	-0.073287	-0.052502
C53	C	0.686331	-0.133908	-0.052509
C54	C	0.581349	-0.028929	0.052479
C55	C	0.581346	0.031689	0.052481
C56	C	0.633841	0.009504	-0.000009
C57	C	0.443738	0.633697	-0.000013
C58	C	0.379225	0.633699	-0.000014
C59	C	0.348922	0.633707	0.052482
C60	C	0.288309	0.633700	0.052481
C61	C	0.257994	0.633700	-0.000009
C62	C	0.288307	0.633687	-0.052514
C63	C	0.348922	0.633686	-0.052517
N64	N	0.139647	0.680053	-0.015902
N65	N	0.082064	0.680055	-0.015895
C66	C	0.075365	0.633701	-0.000006
N67	N	0.128419	0.587354	0.015891
N68	N	0.186005	0.587355	0.015888
C69	C	0.192268	0.633700	-0.000013
C70	C	-0.020660	0.633700	0.052493
C71	C	-0.081271	0.633687	0.052488
C72	C	-0.081276	0.633683	-0.052505
C73	C	-0.020663	0.633687	-0.052503
C74	C	0.009640	0.633700	-0.000000
C75	C	0.823906	0.633688	-0.000005
C76	C	0.888419	0.633686	-0.000004
C77	C	0.633821	0.633702	0.190078
C78	C	0.633820	0.633705	0.254591
C79	C	0.633841	0.823762	-0.000016
C80	C	0.633847	0.888269	-0.000018
C81	C	0.596727	0.707921	0.752210
C82	C	0.596721	0.707925	0.691596
C83	C	0.633831	0.633694	0.624168
C84	C	0.670936	0.559453	0.617356
C85	C	0.670936	0.559451	0.677970
N86	N	0.694232	0.578440	0.501371
N87	N	0.694231	0.578447	0.443793
C88	C	0.633833	0.633695	0.441540
N89	N	0.573437	0.688949	0.499046
N90	N	0.573439	0.688944	0.556630
C91	C	0.633835	0.633688	0.558438
C92	C	0.596719	0.707936	0.382632
C93	C	0.596710	0.707937	0.322015
C94	C	0.670933	0.559462	0.247776
C95	C	0.670935	0.559464	0.308392
C96	C	0.633829	0.633703	0.375818
C97	C	0.633825	0.633686	0.809906
C98	C	0.633831	0.633690	0.745396
C99	C	0.823887	0.443619	0.000002
C100	C	0.888393	0.379110	0.000005
C101	C	0.633804	0.443614	-0.190089
C102	C	0.633798	0.379103	-0.254600
C103	C	0.823888	0.443610	-0.190085
C104	C	0.888395	0.379097	-0.254595
C105	C	0.443755	0.823775	0.190067
C106	C	0.379249	0.888288	0.254577
C107	C	0.443757	0.823766	-0.000020
C108	C	0.379250	0.888275	-0.000023
C109	C	0.633840	0.823771	0.190071
C110	C	0.633846	0.888282	0.254582
C111	C	0.881568	0.348818	0.037131
C112	C	0.942173	0.288213	0.037149
C113	C	1.009602	0.257897	0.000036
C114	C	1.016426	0.288194	-0.037090
C115	C	0.955822	0.348802	-0.037104
C116	C	0.670913	0.348805	-0.322019
C117	C	0.670904	0.288199	-0.382640
C118	C	0.633785	0.257887	-0.375841
C119	C	0.596665	0.288191	-0.308415
C120	C	0.596670	0.348801	-0.247795
C121	C	0.955812	0.348802	-0.247770
C122	C	1.016428	0.288195	-0.308379
C123	C	1.009627	0.257878	-0.375811
C124	C	0.942203	0.288179	-0.382634
C125	C	0.881587	0.348790	-0.322026
C126	C	0.311832	0.918590	0.247753
C127	C	0.251215	0.979217	0.308361
C128	C	0.258017	1.009536	0.375793
C129	C	0.325441	0.979231	0.382616
C130	C	0.386056	0.918610	0.322008
C131	C	0.386075	0.918573	-0.037143
C132	C	0.325471	0.979195	-0.037143
C133	C	0.258041	1.009513	-0.000029
C134	C	0.251218	0.979213	0.037095
C135	C	0.311822	0.918597	0.037100
C136	C	0.670973	0.918574	0.247760
C137	C	0.670992	0.979181	0.308370
C138	C	0.633880	1.009498	0.375801
C139	C	0.596752	0.979200	0.382621
C140	C	0.596737	0.918590	0.322013
H141	H	0.538577	0.358730	0.095227
H142	H	0.331040	1.003855	-0.067377
O143	O	0.706865	0.378391	-0.328541
C144	C	0.659211	0.463320	-0.295712
H145	H	0.610364	0.489021	-0.254403
H146	H	0.686139	0.494730	-0.268797
H147	H	0.642598	0.474886	-0.337387
O148	O	0.199228	1.068471	-0.000016
C149	C	0.199350	1.138590	0.029508
H150	H	0.255956	1.120276	0.024473
H151	H	0.177068	1.167914	0.000031
H152	H	0.165125	1.184279	0.087891
O153	O	0.560634	0.378335	-0.182252
C154	C	0.568608	0.438313	-0.130197
H155	H	0.582271	0.464841	-0.153801
H156	H	0.516951	0.489294	-0.083454
H157	H	0.613050	0.409306	-0.111244
H158	H	0.566512	0.768373	0.807107
H159	H	0.566502	0.768386	0.437533
H160	H	0.826696	0.373448	-0.327593
O161	O	0.560551	0.258853	-0.301690
C162	C	0.527805	0.298568	-0.229185
H163	H	0.520447	0.360013	-0.196844
H164	H	0.473894	0.308995	-0.220752
H165	H	0.562594	0.258812	-0.211331
H166	H	0.961363	0.373477	-0.192869
H167	H	0.566501	0.893933	0.327577
O168	O	0.530256	0.481738	0.103395
C169	C	0.491858	0.519947	0.071271
H170	H	0.496991	0.471895	0.016834
H171	H	0.433597	0.567060	0.105863
H172	H	0.513933	0.551784	0.065142
O173	O	0.633975	1.068276	0.434695
C174	C	0.663470	1.038675	0.475324
H175	H	0.698972	0.968887	0.439749
H176	H	0.696213	1.062481	0.499872
H177	H	0.619078	1.060721	0.519206
O178	O	1.081865	0.258827	-0.301615
C179	C	1.074862	0.298592	-0.229100
H180	H	1.020770	0.323564	-0.196790
H181	H	1.118326	0.253127	-0.220643
H182	H	1.079830	0.351240	-0.211230
O183	O	1.081912	0.258863	-0.073057
C184	C	1.089704	0.323530	-0.045797
H185	H	1.051332	0.375066	0.010779
H186	H	1.146406	0.300392	-0.045897
H187	H	1.077677	0.347423	-0.080229
O188	O	0.707065	1.008548	0.301608
C189	C	0.739819	0.968782	0.229094
H190	H	0.710693	0.943811	0.196782
H191	H	0.737821	1.014248	0.220638
H192	H	0.797428	0.916134	0.211225
O193	O	0.935508	0.258716	-0.448100
C194	C	0.898135	0.223627	-0.455887
H195	H	0.864672	0.251012	-0.401326
H196	H	0.862116	0.236903	-0.487783
H197	H	0.937396	0.154593	-0.484847
H198	H	1.058989	0.208525	-0.425155
O199	O	0.633762	0.199085	-0.434782
C200	C	0.604238	0.228718	-0.475384
H201	H	0.609281	0.280283	-0.462114
H202	H	0.633707	0.176956	-0.534184
H203	H	0.545855	0.252876	-0.462688
H204	H	0.566492	0.768388	0.327570
O205	O	0.258968	0.633655	-0.103572
C206	C	0.298705	0.633670	-0.149898
H207	H	0.354804	0.607885	-0.147403
H208	H	0.300952	0.594133	-0.206379
H209	H	0.272491	0.699002	-0.133373
O210	O	0.332168	1.008534	0.448068
C211	C	0.404670	0.968732	0.441106
H212	H	0.437015	0.943850	0.387069
H213	H	0.413117	1.014146	0.484661
H214	H	0.422503	0.916016	0.445960
O215	O	0.378320	0.633848	0.103529
C216	C	0.378148	0.704361	0.141922
H217	H	0.335233	0.753664	0.136789
H218	H	0.367011	0.728029	0.200185
H219	H	0.432058	0.688409	0.119838
H220	H	0.701152	0.499016	0.302841
O221	O	0.962370	0.378198	-0.073233
C222	C	0.929555	0.363350	-0.125349
H223	H	0.888232	0.355825	-0.109741
H224	H	0.902662	0.417169	-0.129869
H225	H	0.971232	0.305049	-0.178578
O226	O	0.451597	0.889121	0.328516
C227	C	0.503648	0.829102	0.260569
H228	H	0.480038	0.839031	0.220375
H229	H	0.550382	0.834040	0.261249
H230	H	0.522613	0.765706	0.245140
O231	O	0.707031	0.258829	-0.448079
C232	C	0.739786	0.298590	-0.441073
H233	H	0.747130	0.323561	-0.386979
H234	H	0.793704	0.253122	-0.484539
H235	H	0.705011	0.351238	-0.446038
O236	O	0.258935	0.633746	0.103549
C237	C	0.298691	0.633732	0.149875
H238	H	0.329013	0.659510	0.147374
H239	H	0.261410	0.673276	0.206357
H240	H	0.337798	0.568402	0.133356
O241	O	0.185672	1.008757	0.301850
C242	C	0.133623	1.068755	0.369798
H243	H	0.157235	1.095281	0.409983
H244	H	0.086890	1.119733	0.369107
H245	H	0.114655	1.039767	0.385247
O246	O	0.737219	0.274734	-0.103567
C247	C	0.733898	0.227963	-0.170768
H248	H	0.678538	0.242007	-0.164703
H249	H	0.745867	0.244012	-0.206420
H250	H	0.774602	0.160051	-0.195521
O251	O	0.305088	0.889268	0.182307
C252	C	0.232581	0.929015	0.189295
H253	H	0.200265	0.990450	0.243387
H254	H	0.224137	0.939467	0.145825
H255	H	0.214708	0.889270	0.184322
H256	H	0.701194	0.893899	0.192860
H257	H	0.566537	1.003894	0.437532
H258	H	0.729040	0.168286	-0.095236
H259	H	0.208654	1.058898	0.425137
H260	H	0.701150	0.499013	0.562453
H261	H	0.826669	0.373501	0.067361
O262	O	0.451518	0.889243	-0.073211
C263	C	0.444532	0.928980	-0.105982
H264	H	0.390447	0.990420	-0.076867
H265	H	0.488008	0.939422	-0.103984
H266	H	0.449491	0.889234	-0.163594
O267	O	0.008903	0.633594	0.103395
C268	C	0.079221	0.563058	0.071273
H269	H	0.100054	0.539543	0.013938
H270	H	0.113916	0.578925	0.101420
H271	H	0.080557	0.513669	0.072485
O272	O	0.737349	-0.094971	-0.103563
C273	C	0.783688	-0.181048	-0.149888
H274	H	0.755413	-0.208873	-0.147391
H275	H	0.800624	-0.200243	-0.206369
H276	H	0.832499	-0.203632	-0.133363
O277	O	0.560590	0.780015	0.698171
C278	C	0.508505	0.784461	0.665314
H279	H	0.494692	0.742348	0.662521
H280	H	0.458948	0.850123	0.697452
H281	H	0.529756	0.764509	0.609401
O282	O	0.737238	-0.214345	-0.103556
C283	C	0.705121	-0.252565	-0.141961
H284	H	0.650685	-0.204518	-0.136827
H285	H	0.739712	-0.299676	-0.200224
H286	H	0.698995	-0.284405	-0.119889
O287	O	0.185662	1.008729	0.073080
C288	C	0.133643	1.068737	0.065121
H289	H	0.157281	1.058774	0.014992
H290	H	0.086897	1.063823	0.060856
H291	H	0.114686	1.132136	0.113078
O292	O	0.305149	0.889085	0.073060
C293	C	0.267727	0.854059	0.045769
H294	H	0.272793	0.835863	-0.010809
H295	H	0.290730	0.797459	0.045866
H296	H	0.209400	0.900528	0.080181
O297	O	0.707034	0.487391	0.671442
C298	C	0.759144	0.482934	0.704266
H299	H	0.743554	0.547385	0.745572
H300	H	0.763633	0.451517	0.731182
H301	H	0.812381	0.446295	0.662587
H302	H	0.538616	-0.010875	0.095218
H303	H	0.701144	0.499022	0.192876
H304	H	0.373596	0.633679	-0.095266
O305	O	0.530325	0.112076	0.103542
C306	C	0.483992	0.118651	0.149861
H307	H	0.512276	0.060055	0.147364
H308	H	0.467049	0.172878	0.206344
H309	H	0.435185	0.128337	0.133333
H310	H	-0.105942	0.633689	0.095235
H311	H	-0.105956	0.633678	-0.095246
O312	O	0.008674	0.633831	-0.103437
C313	C	-0.041405	0.704348	-0.100122
H314	H	-0.082710	0.753647	-0.044759
H315	H	-0.013379	0.728018	-0.112101
H316	H	-0.068620	0.688400	-0.140824
O317	O	0.935409	0.258849	0.073220
C318	C	0.862897	0.298614	0.105976
H319	H	0.830588	0.323582	0.076850
H320	H	0.854438	0.253149	0.103977
H321	H	0.845030	0.351264	0.163588
H322	H	1.058944	0.208545	0.000052
