data_functionalizedCrystal
_audit_creation_method	'MofGen! by Chris Wilmer'
_symmetry_space_group_name_H-M	'P1'
_symmetry_Int_Tables_number	1
_symmetry_cell_setting	triclinic
loop_
_symmetry_equiv_pos_as_xyz
  x,y,z
_cell_length_a	21.395362
_cell_length_b	19.121063
_cell_length_c	21.395355
_cell_angle_alpha	87.579260
_cell_angle_beta	90.043940
_cell_angle_gamma	92.485681
loop_
_atom_site_label
_atom_site_type_symbol
_atom_site_fract_x
_atom_site_fract_y
_atom_site_fract_z
Zn1	Zn	0.947241	-0.279403	0.365205
Zn2	Zn	1.447241	0.220597	0.865205
Zn3	Zn	0.942680	-0.396839	0.264891
Zn4	Zn	1.442680	0.103161	0.764891
Zn5	Zn	0.842454	-0.279436	0.260407
Zn6	Zn	1.342454	0.220564	0.760407
Zn7	Zn	0.837961	-0.396853	0.369596
Zn8	Zn	1.337961	0.103147	0.869596
O9	O	0.892584	-0.338133	0.315025
O10	O	1.392584	0.161867	0.815025
O11	O	1.034314	-0.294962	0.351936
O12	O	1.534314	0.205038	0.851936
O13	O	0.929357	-0.381273	0.176618
O14	O	1.429357	0.118727	0.676618
O15	O	0.860144	-0.181145	0.270595
O16	O	1.360144	0.318855	0.770595
O17	O	1.030964	-0.381241	0.278236
O18	O	1.530964	0.118759	0.778236
O19	O	0.937130	-0.181121	0.347589
O20	O	1.437130	0.318879	0.847589
O21	O	0.855721	-0.295017	0.173324
O22	O	1.355721	0.204983	0.673324
O23	O	0.754180	-0.295031	0.274853
O24	O	1.254180	0.204969	0.774853
O25	O	0.852486	-0.381266	0.456691
O26	O	1.352486	0.118734	0.956691
O27	O	0.750879	-0.381297	0.355073
O28	O	1.250879	0.118703	0.855073
O29	O	0.932773	-0.294976	0.453465
O30	O	1.432773	0.205024	0.953465
O31	O	0.925000	-0.495127	0.282494
O32	O	1.425000	0.004873	0.782494
O33	O	0.848063	-0.495138	0.359420
O34	O	1.348063	0.004862	0.859420
C35	C	0.729795	-0.338170	0.314953
C36	C	1.229795	0.161830	0.814953
C37	C	0.660152	-0.338203	0.314938
C38	C	1.160152	0.161797	0.814938
C39	C	0.625735	-0.383181	0.356651
C40	C	1.125735	0.116819	0.856651
C41	C	0.560300	-0.383164	0.356679
C42	C	1.060300	0.116836	0.856679
C43	C	0.529285	-0.338176	0.314982
C44	C	1.029285	0.161824	0.814982
C45	C	0.563711	-0.293189	0.273266
C46	C	1.063711	0.206811	0.773266
C47	C	0.629145	-0.293202	0.273244
C48	C	1.129145	0.206798	0.773244
C49	C	0.425776	-0.332517	0.258362
C50	C	0.925776	0.167483	0.758362
C51	C	0.360343	-0.332509	0.258383
C52	C	0.860343	0.167491	0.758383
C53	C	0.327466	-0.338130	0.315049
C54	C	0.827466	0.161870	0.815049
C55	C	0.360030	-0.343774	0.371698
C56	C	0.860030	0.156226	0.871698
C57	C	0.425463	-0.343788	0.371676
C58	C	0.925463	0.156212	0.871676
C59	C	0.458334	-0.338156	0.315001
C60	C	0.958334	0.161844	0.815001
C61	C	0.222096	-0.383092	0.356795
C62	C	0.722096	0.116908	0.856795
C63	C	0.156661	-0.383070	0.356824
C64	C	0.656661	0.116930	0.856824
C65	C	0.160073	-0.293098	0.273405
C66	C	0.660073	0.206902	0.773405
C67	C	0.225508	-0.293117	0.273383
C68	C	0.725508	0.206883	0.773383
C69	C	0.256516	-0.338117	0.315077
C70	C	0.756516	0.161883	0.815077
C71	C	0.885566	-0.520617	0.321934
C72	C	1.385566	-0.020617	0.821934
C73	C	0.882621	-0.598685	0.324911
C74	C	1.382621	-0.098685	0.824911
C75	C	0.921325	-0.635332	0.286291
C76	C	1.421325	-0.135332	0.786291
C77	C	0.918559	-0.708685	0.289094
C78	C	1.418559	-0.208685	0.789094
C79	C	0.877085	-0.745389	0.330515
C80	C	1.377085	-0.245389	0.830515
C81	C	0.838379	-0.708736	0.369139
C82	C	1.338379	-0.208736	0.869139
C83	C	0.841149	-0.635385	0.366338
C84	C	1.341149	-0.135385	0.866338
C85	C	0.866720	-0.966864	0.340976
C86	C	1.366720	-0.466864	0.840976
C87	C	0.863952	-1.040221	0.343772
C88	C	1.363952	-0.540221	0.843772
C89	C	0.944133	-1.040164	0.263728
C90	C	1.444133	-0.540164	0.763728
C91	C	0.946896	-0.966812	0.260928
C92	C	1.446896	-0.466812	0.760928
C93	C	0.908193	-0.930165	0.299555
C94	C	1.408193	-0.430165	0.799555
C95	C	0.874256	-0.820367	0.333380
C96	C	1.374256	-0.320367	0.833380
C97	C	0.911026	-0.855188	0.296692
C98	C	1.411026	-0.355188	0.796692
C99	C	1.056009	-0.338096	0.315097
C100	C	1.556009	0.161904	0.815097
C101	C	1.125651	-0.338080	0.315127
C102	C	1.625651	0.161920	0.815127
C103	C	0.892637	-0.338119	0.478447
C104	C	1.392637	0.161881	0.978447
C105	C	0.892659	-0.338112	0.548089
C106	C	1.392659	0.161888	1.048089
C107	C	0.899647	-0.154936	0.308102
C108	C	1.399647	0.345064	0.808102
C109	C	0.902656	-0.076868	0.305152
C110	C	1.402656	0.423132	0.805152
C111	C	0.892570	-0.338096	0.152236
C112	C	1.392570	0.161904	0.652236
C113	C	0.892676	-0.337904	0.082588
C114	C	1.392676	0.162096	0.582588
C115	C	0.934463	-0.293179	0.579123
C116	C	1.434463	0.206821	1.079123
C117	C	0.934463	-0.293149	0.644557
C118	C	1.434463	0.206851	1.144557
C119	C	0.892666	-0.338065	0.678955
C120	C	1.392666	0.161935	1.178955
C121	C	0.850854	-0.383001	0.647913
C122	C	1.350854	0.116999	1.147913
C123	C	0.850851	-0.383025	0.582480
C124	C	1.350851	0.116975	1.082480
C125	C	0.885286	-0.401308	0.785023
C126	C	1.385286	0.098692	1.285023
C127	C	0.885294	-0.401285	0.850455
C128	C	1.385294	0.098715	1.350455
C129	C	0.892672	-0.337990	0.880773
C130	C	1.392672	0.162010	1.380773
C131	C	0.900056	-0.274717	0.845651
C132	C	1.400056	0.225283	1.345651
C133	C	0.900053	-0.274741	0.780218
C134	C	1.400053	0.225259	1.280218
C135	C	0.892664	-0.338043	0.749907
C136	C	1.392664	0.161957	1.249907
C137	C	0.934479	-0.293021	0.982759
C138	C	1.434479	0.206979	1.482759
C139	C	0.934475	-0.292989	1.048194
C140	C	1.434475	0.207011	1.548194
C141	C	0.850869	-0.382847	1.051549
C142	C	1.350869	0.117153	1.551549
C143	C	0.850870	-0.382872	0.986115
C144	C	1.350870	0.117128	1.486115
C145	C	0.892678	-0.337960	0.951723
C146	C	1.392678	0.162040	1.451723
H147	H	0.333835	-0.327917	0.212256
H148	H	0.833835	0.172083	0.712256
H149	H	0.452538	-0.327937	0.212214
H150	H	0.952538	0.172063	0.712214
N151	N	0.979569	-0.244518	1.081660
N152	N	1.479569	0.255482	1.581660
H153	H	1.007504	-0.273043	1.109917
H154	H	1.507504	0.226957	1.609917
H155	H	0.955321	-0.211967	1.107513
H156	H	1.455321	0.288033	1.607513
N157	N	0.824971	-0.927343	0.382628
N158	N	1.324971	-0.427343	0.882628
H159	H	0.834195	-0.940074	0.427893
H160	H	1.334195	-0.440074	0.927893
H161	H	0.779743	-0.940188	0.373272
H162	H	1.279743	-0.440188	0.873272
H163	H	0.975644	-1.070010	0.232282
H164	H	1.475644	-0.570010	0.732282
N165	N	0.799398	-0.595861	0.407991
N166	N	1.299398	-0.095861	0.907991
H167	H	0.771522	-0.565477	0.381332
H168	H	1.271522	-0.065477	0.881332
H169	H	0.826038	-0.565421	0.435890
H170	H	1.326038	-0.065421	0.935890
N171	N	0.819217	-1.079811	0.388448
N172	N	1.319217	-0.579811	0.888448
H173	H	0.795119	-1.045466	0.412494
H174	H	1.295119	-0.545466	0.912494
H175	H	0.843562	-1.110200	0.418631
H176	H	1.343562	-0.610200	0.918631
N177	N	0.805781	-0.431287	1.088640
N178	N	1.305781	0.068713	1.588640
H179	H	0.812124	-0.424453	1.134801
H180	H	1.312124	0.075547	1.634801
H181	H	0.813597	-0.481452	1.079118
H182	H	1.313597	0.018548	1.579118
H183	H	0.538455	-0.256558	0.239317
H184	H	1.038455	0.243442	0.739317
N185	N	0.805768	-0.431434	0.685017
N186	N	1.305768	0.068566	1.185017
H187	H	0.829974	-0.463969	0.713423
H188	H	1.329974	0.036031	1.213423
H189	H	0.779289	-0.459858	0.655389
H190	H	1.279289	0.040142	1.155389
N191	N	0.523162	-0.431678	0.401667
N192	N	1.023162	0.068322	0.901667
H193	H	0.535017	-0.420853	0.446038
H194	H	1.035017	0.079147	0.946038
H195	H	0.532600	-0.481828	0.393700
H196	H	1.032600	0.018172	0.893700
H197	H	0.950076	-0.738520	0.257645
H198	H	1.450076	-0.238520	0.757645
H199	H	0.879285	-0.452806	0.879046
H200	H	1.379285	0.047194	1.379046
H201	H	0.451974	-0.348381	0.417801
H202	H	0.951974	0.151619	0.917801
H203	H	0.944797	-0.825302	0.262970
H204	H	1.444797	-0.325302	0.762970
N205	N	0.979538	-0.244728	0.542022
N206	N	1.479538	0.255272	1.042022
H207	H	1.007472	-0.273269	0.515975
H208	H	1.507472	0.226731	1.015975
H209	H	1.005979	-0.216261	0.571649
H210	H	1.505979	0.283739	1.071649
H211	H	0.816832	-0.419466	0.960847
H212	H	1.316832	0.080534	1.460847
N213	N	0.666272	-0.244683	0.228256
N214	N	1.166272	0.255317	0.728256
H215	H	0.636698	-0.216176	0.201847
H216	H	1.136698	0.283824	0.701847
H217	H	0.692280	-0.273227	0.200288
H218	H	1.192280	0.226773	0.700288
N219	N	0.979553	-0.244684	0.678040
N220	N	1.479553	0.255316	1.178040
H221	H	1.006037	-0.216236	0.646325
H222	H	1.506037	0.283764	1.146325
H223	H	1.007444	-0.273264	0.706296
H224	H	1.507444	0.226736	1.206296
N225	N	0.908018	-0.206503	0.742336
N226	N	1.408018	0.293497	1.242336
H227	H	0.912695	-0.166400	0.771466
H228	H	1.412695	0.333600	1.271466
H229	H	0.870094	-0.200000	0.714910
H230	H	1.370094	0.300000	1.214910
H231	H	0.879111	-0.452836	0.760343
H232	H	1.379111	0.047164	1.260343
N233	N	0.966056	-0.595747	0.241614
N234	N	1.466056	-0.095747	0.741614
H235	H	0.990156	-0.630096	0.217575
H236	H	1.490156	-0.130096	0.717575
H237	H	0.996190	-0.565263	0.265991
H238	H	1.496190	-0.065263	0.765991
H239	H	0.253531	-0.256494	0.239412
H240	H	0.753531	0.243506	0.739412
H241	H	0.816806	-0.419614	0.557212
H242	H	1.316806	0.080386	1.057212
H243	H	0.804613	-0.738626	0.402867
H244	H	1.304613	-0.238626	0.902867
N245	N	0.255544	-0.431620	0.401768
N246	N	0.755544	0.068380	0.901768
H247	H	0.302219	-0.424809	0.395421
H248	H	0.802219	0.075191	0.895421
H249	H	0.242141	-0.481762	0.393844
H250	H	0.742141	0.018238	0.893844
N251	N	0.659176	-0.431703	0.401632
N252	N	1.159176	0.068297	0.901632
H253	H	0.705852	-0.424887	0.395291
H254	H	1.205852	0.075113	0.895291
H255	H	0.645780	-0.481848	0.393712
H256	H	1.145780	0.018152	0.893712
H257	H	0.906066	-0.223177	0.870335
H258	H	1.406066	0.276823	1.370335
N259	N	0.324581	-0.349841	0.432823
N260	N	0.824581	0.150159	0.932823
H261	H	0.278188	-0.348973	0.424244
H262	H	0.778188	0.151027	0.924244
H263	H	0.337631	-0.309274	0.459354
H264	H	0.837631	0.190726	0.959354
H265	H	0.128639	-0.419695	0.390795
H266	H	0.628639	0.080305	0.890795
H267	H	0.980668	-0.936929	0.227201
H268	H	1.480668	-0.436929	0.727201
H269	H	0.840486	-0.850260	0.367103
H270	H	1.340486	-0.350260	0.867103
H271	H	0.968519	-0.256447	0.954755
H272	H	1.468519	0.243553	1.454755
H273	H	0.134822	-0.256465	0.239458
H274	H	0.634822	0.243535	0.739458
