data_functionalizedCrystal
_audit_creation_method	'MofGen! by Chris Wilmer'
_symmetry_space_group_name_H-M	'P1'
_symmetry_Int_Tables_number	1
_symmetry_cell_setting	triclinic
loop_
_symmetry_equiv_pos_as_xyz
  x,y,z
_cell_length_a	12.759401
_cell_length_b	18.215405
_cell_length_c	12.759387
_cell_angle_alpha	89.931651
_cell_angle_beta	89.960095
_cell_angle_gamma	90.025046
loop_
_atom_site_label
_atom_site_type_symbol
_atom_site_fract_x
_atom_site_fract_y
_atom_site_fract_z
Zn1	Zn	1.606403	-0.292714	-0.593938
Zn2	Zn	1.606200	-0.415867	-0.418240
Zn3	Zn	1.430639	-0.292819	-0.418277
Zn4	Zn	1.430662	-0.415744	-0.593881
O5	O	1.518476	-0.354286	-0.506084
O6	O	1.753397	-0.309058	-0.570639
O7	O	1.582817	-0.399639	-0.271223
O8	O	1.454030	-0.189821	-0.441619
O9	O	1.753248	-0.399538	-0.441554
O10	O	1.583163	-0.189744	-0.570676
O11	O	1.453833	-0.309237	-0.271251
O12	O	1.283621	-0.309118	-0.441564
O13	O	1.454069	-0.399329	-0.740910
O14	O	1.283638	-0.399430	-0.570579
O15	O	1.583185	-0.308939	-0.740952
O16	O	1.582840	-0.518835	-0.441499
O17	O	1.453873	-0.518744	-0.570543
C18	C	1.245509	-0.354272	-0.506070
C19	C	1.128732	-0.354284	-0.506089
C20	C	1.073907	-0.401385	-0.573156
C21	C	0.964183	-0.401395	-0.573167
C22	C	0.964120	-0.307200	-0.439035
C23	C	1.073842	-0.307187	-0.439030
C24	C	1.073942	-0.455770	-0.650593
C25	C	0.964218	-0.455780	-0.650604
C26	C	1.518365	-0.545492	-0.506034
C27	C	1.518414	-0.627291	-0.506047
C28	C	1.585725	-0.815507	-0.438978
C29	C	1.585772	-0.892366	-0.439003
C30	C	1.451362	-0.892312	-0.573266
C31	C	1.451321	-0.815455	-0.573245
C32	C	1.518501	-0.777055	-0.506095
C33	C	1.518589	-0.930771	-0.506141
C34	C	1.518639	-1.014104	-0.506169
C35	C	1.518452	-0.693716	-0.506068
C36	C	1.792510	-0.354300	-0.506099
C37	C	1.909286	-0.354306	-0.506105
C38	C	1.518652	-0.354108	-0.780118
C39	C	1.518727	-0.354033	-0.896895
C40	C	1.518616	-0.162333	-0.506158
C41	C	1.518676	-0.080534	-0.506189
C42	C	1.518361	-0.354409	-0.233116
C43	C	1.518490	-0.354278	-0.116340
C44	C	1.586306	-0.400820	0.048313
C45	C	1.586191	-0.400941	-0.061411
C46	C	1.450908	-0.307485	-0.061541
C47	C	1.451030	-0.307361	0.048181
C48	C	1.664408	-0.454778	0.048387
C49	C	1.664292	-0.454899	-0.061336
H50	H	0.930254	-0.435406	-0.727959
C51	C	1.376438	-0.256152	-0.121959
C52	C	1.384223	-0.172433	-0.107219
C53	C	1.309750	-0.121099	-0.167634
C54	C	1.227490	-0.153485	-0.242790
C55	C	1.219701	-0.237209	-0.257533
C56	C	1.294175	-0.288543	-0.197118
H57	H	1.445120	-0.148455	-0.051582
H58	H	1.315516	-0.059121	-0.156720
H59	H	1.172361	-0.115485	-0.287513
H60	H	1.158805	-0.261187	-0.313170
H61	H	1.288409	-0.350521	-0.208032
H62	H	1.741356	-0.434136	-0.095588
C63	C	0.903737	-0.255399	-0.365269
C64	C	0.783047	-0.255407	-0.365273
C65	C	0.722668	-0.203606	-0.291503
C66	C	0.782978	-0.151795	-0.217729
C67	C	0.903675	-0.151784	-0.217722
C68	C	0.964054	-0.203586	-0.291492
H69	H	0.738396	-0.293762	-0.419887
H70	H	0.633320	-0.203614	-0.291508
H71	H	0.738281	-0.113448	-0.163121
H72	H	0.948326	-0.113429	-0.163108
H73	H	1.053402	-0.203578	-0.291487
H74	H	0.934400	-0.512771	-0.628664
H75	H	1.745662	-0.439071	0.077954
C76	C	1.376704	-0.255886	0.108453
C77	C	1.376839	-0.255742	0.229143
C78	C	1.302513	-0.204262	0.289415
C79	C	1.228052	-0.152927	0.228998
C80	C	1.227915	-0.153069	0.108302
C81	C	1.302240	-0.204549	0.048030
H82	H	1.431962	-0.293745	0.273873
H83	H	1.302616	-0.204157	0.378763
H84	H	1.173032	-0.114819	0.273616
H85	H	1.172792	-0.115066	0.063572
H86	H	1.302138	-0.204654	-0.041318
C87	C	1.114269	-0.435191	-0.760564
C88	C	1.035920	-0.418609	-0.849226
C89	C	1.076248	-0.398029	-0.959193
C90	C	1.194924	-0.394032	-0.980499
C91	C	1.273280	-0.410615	-0.891835
C92	C	1.232952	-0.431195	-0.781868
H93	H	0.948063	-0.421567	-0.833456
H94	H	1.018243	-0.385753	-1.024828
H95	H	1.224776	-0.378798	-1.061904
H96	H	1.361137	-0.407657	-0.907605
H97	H	1.290957	-0.443470	-0.716233
H98	H	1.635832	-0.509029	0.082689
H99	H	1.396665	-0.923587	-0.627935
H100	H	1.643013	-0.512038	-0.090849
H101	H	1.396579	-0.784144	-0.627905
H102	H	1.118477	-0.268828	-0.384424
H103	H	1.107931	-0.509894	-0.621300
C104	C	1.659717	-0.934663	-0.365170
C105	C	1.614240	-0.987610	-0.282661
C106	C	1.688191	-1.029906	-0.208825
C107	C	1.807619	-1.019256	-0.217498
C108	C	1.853102	-0.966307	-0.300009
C109	C	1.779151	-0.924011	-0.373845
H110	H	1.525827	-0.995496	-0.276239
H111	H	1.654520	-1.069103	-0.147745
H112	H	1.862361	-1.050566	-0.162840
H113	H	1.941515	-0.958421	-0.306432
H114	H	1.812822	-0.884814	-0.434926
C115	C	1.659629	-0.773266	-0.365124
C116	C	1.733578	-0.815567	-0.291301
C117	C	1.807487	-0.773328	-0.217447
C118	C	1.807446	-0.688788	-0.217416
C119	C	1.733494	-0.646483	-0.291241
C120	C	1.659585	-0.688721	-0.365095
H121	H	1.733611	-0.878153	-0.291322
H122	H	1.862231	-0.804647	-0.162797
H123	H	1.862158	-0.657521	-0.162745
H124	H	1.733461	-0.583897	-0.291221
H125	H	1.604841	-0.657403	-0.419746
