data_functionalizedCrystal
_audit_creation_method	'MofGen! by Chris Wilmer'
_symmetry_space_group_name_H-M	'P1'
_symmetry_Int_Tables_number	1
_symmetry_cell_setting	triclinic
loop_
_symmetry_equiv_pos_as_xyz
  x,y,z
_cell_length_a	23.532407
_cell_length_b	23.532407
_cell_length_c	10.868271
_cell_angle_alpha	89.990218
_cell_angle_beta	90.001021
_cell_angle_gamma	82.848678
loop_
_atom_site_label
_atom_site_type_symbol
_atom_site_fract_x
_atom_site_fract_y
_atom_site_fract_z
O1	O	0.755259	0.069135	-0.102181
O2	O	1.255259	0.569135	0.397819
O3	O	0.589396	0.079138	-0.102219
O4	O	1.089396	0.579138	0.397781
O5	O	0.677329	-0.008795	-0.102176
O6	O	1.177329	0.491205	0.397824
O7	O	0.667326	0.157068	-0.102224
O8	O	1.167326	0.657068	0.397776
O9	O	0.677322	-0.008798	0.102468
O10	O	1.177322	0.491202	0.602468
O11	O	0.589389	0.079135	0.102426
O12	O	1.089389	0.579135	0.602426
O13	O	0.755252	0.069132	0.102464
O14	O	1.255252	0.569132	0.602464
Zn15	Zn	0.672319	0.074133	0.134936
Zn16	Zn	1.172319	0.574133	0.634936
Zn17	Zn	0.672329	0.074137	-0.134692
Zn18	Zn	1.172329	0.574137	0.365308
O19	O	0.667319	0.157065	0.102421
O20	O	1.167319	0.657065	0.602421
C21	C	0.568176	0.078882	0.000099
C22	C	1.068176	0.578882	0.500099
C23	C	0.504959	0.078116	0.000085
C24	C	1.004959	0.578116	0.500085
C25	C	0.105856	0.125350	0.000128
C26	C	0.605856	0.625350	0.500128
C27	C	0.046456	0.124638	0.000135
C28	C	0.546456	0.624638	0.500135
O29	O	0.009711	0.168424	0.000168
O30	O	0.509711	0.668424	0.500168
N31	N	0.023830	0.072362	0.000148
N32	N	0.523830	0.572362	0.500148
C33	C	0.060607	0.020794	0.000166
C34	C	0.560607	0.520794	0.500166
O35	O	0.035908	-0.023737	0.000179
O36	O	0.535908	0.476263	0.500179
C37	C	0.120006	0.021506	0.000167
C38	C	0.620006	0.521506	0.500167
C39	C	0.142629	0.073785	0.000142
C40	C	0.642629	0.573785	0.500142
C41	C	0.128479	0.177625	0.000104
C42	C	0.628479	0.677625	0.500104
C43	C	0.187876	0.178336	0.000094
C44	C	0.687876	0.678336	0.500094
C45	C	0.224649	0.126772	0.000108
C46	C	0.724649	0.626772	0.500108
C47	C	0.202025	0.074496	0.000132
C48	C	0.702025	0.574496	0.500132
C49	C	0.156783	-0.030062	0.000193
C50	C	0.656783	0.469938	0.500193
C51	C	0.216185	-0.029345	0.000195
C52	C	0.716185	0.470655	0.500195
C53	C	0.238808	0.022934	0.000170
C54	C	0.738808	0.522934	0.500170
C55	C	0.298194	0.023643	0.000136
C56	C	0.798194	0.523643	0.500136
N57	N	0.320820	0.075920	0.000123
N58	N	0.820820	0.575920	0.500123
C59	C	0.284048	0.127484	0.000109
C60	C	0.784048	0.627484	0.500109
C61	C	-0.064135	0.019302	0.000166
C62	C	0.435865	0.519302	0.500166
C63	C	-0.123533	0.018589	0.000156
C64	C	0.376467	0.518589	0.500156
C65	C	-0.137680	0.122434	0.000128
C66	C	0.362320	0.622434	0.500128
C67	C	-0.078281	0.123146	0.000129
C68	C	0.421719	0.623146	0.500129
C69	C	-0.041509	0.071578	0.000153
C70	C	0.458491	0.571578	0.500153
C71	C	0.408784	0.128974	0.000087
C72	C	0.908784	0.628974	0.500087
C73	C	0.468186	0.129680	0.000071
C74	C	0.968186	0.629680	0.500071
C75	C	0.482329	0.025836	0.000106
C76	C	0.982329	0.525836	0.500106
C77	C	0.422932	0.025129	0.000115
C78	C	0.922932	0.525129	0.500115
C79	C	0.386160	0.076702	0.000109
C80	C	0.886160	0.576702	0.500109
O81	O	0.334974	-0.020119	0.000108
O82	O	0.834974	0.479881	0.500108
O83	O	0.308755	0.172007	0.000112
O84	O	0.808755	0.672007	0.500112
C85	C	0.677071	-0.030013	0.000149
C86	C	1.177071	0.469987	0.500149
C87	C	0.676305	-0.093230	0.000158
C88	C	1.176305	0.406770	0.500158
C89	C	0.723539	-0.492333	0.000102
C90	C	1.223539	0.007667	0.500102
C91	C	0.722827	-0.551733	0.000092
C92	C	1.222827	-0.051733	0.500092
O93	O	0.766613	-0.588478	0.000057
O94	O	1.266613	-0.088478	0.500057
N95	N	0.670551	-0.574359	0.000081
N96	N	1.170551	-0.074359	0.500081
C97	C	0.618983	-0.537582	0.000067
C98	C	1.118983	-0.037582	0.500067
O99	O	0.574452	-0.562281	0.000056
O100	O	1.074452	-0.062281	0.500056
C101	C	0.619695	-0.478182	0.000068
C102	C	1.119695	0.021818	0.500068
C103	C	0.671974	-0.455560	0.000091
C104	C	1.171974	0.044440	0.500091
C105	C	0.775814	-0.469710	0.000124
C106	C	1.275814	0.030290	0.500124
C107	C	0.776525	-0.410313	0.000136
C108	C	1.276525	0.089687	0.500136
C109	C	0.724961	-0.373540	0.000125
C110	C	1.224961	0.126460	0.500125
C111	C	0.672685	-0.396164	0.000103
C112	C	1.172685	0.103836	0.500103
C113	C	0.568127	-0.441406	0.000045
C114	C	1.068127	0.058594	0.500045
C115	C	0.568844	-0.382004	0.000045
C116	C	1.068844	0.117996	0.500045
C117	C	0.621123	-0.359381	0.000068
C118	C	1.121123	0.140619	0.500068
C119	C	0.621832	-0.299995	0.000105
C120	C	1.121832	0.200005	0.500105
N121	N	0.674109	-0.277368	0.000116
N122	N	1.174109	0.222632	0.500116
C123	C	0.725673	-0.314141	0.000126
C124	C	1.225673	0.185859	0.500126
C125	C	0.617491	-0.662324	0.000063
C126	C	1.117491	-0.162324	0.500063
C127	C	0.616778	-0.721722	0.000072
C128	C	1.116778	-0.221722	0.500072
C129	C	0.720623	-0.735869	0.000094
C130	C	1.220623	-0.235869	0.500094
C131	C	0.721335	-0.676470	0.000095
C132	C	1.221335	-0.176470	0.500095
C133	C	0.669767	-0.639698	0.000075
C134	C	1.169767	-0.139698	0.500075
C135	C	0.727163	-0.189405	0.000152
C136	C	1.227163	0.310595	0.500152
C137	C	0.727869	-0.130003	0.000169
C138	C	1.227869	0.369997	0.500169
C139	C	0.624025	-0.115860	0.000139
C140	C	1.124025	0.384140	0.500139
C141	C	0.623318	-0.175257	0.000129
C142	C	1.123318	0.324743	0.500129
C143	C	0.674891	-0.212029	0.000131
C144	C	1.174891	0.287971	0.500131
O145	O	0.578070	-0.263215	0.000135
O146	O	1.078070	0.236785	0.500135
O147	O	0.770196	-0.289433	0.000121
O148	O	1.270196	0.210567	0.500121
C149	C	0.776472	0.069388	0.000143
C150	C	1.276472	0.569388	0.500143
C151	C	0.839689	0.070154	0.000148
C152	C	1.339689	0.570154	0.500148
N153	N	0.672317	0.074129	0.318950
N154	N	1.172317	0.574129	0.818950
C155	C	0.667577	0.178283	0.000093
C156	C	1.167577	0.678283	0.500093
C157	C	0.668343	0.241500	0.000075
C158	C	1.168343	0.741500	0.500075
N159	N	0.672336	0.074136	-0.318706
N160	N	1.172336	0.574136	0.181294
C161	C	0.672326	0.074136	0.569956
C162	C	1.172326	0.574136	1.069956
C163	C	0.672319	0.074134	0.430279
C164	C	1.172319	0.574134	0.930279
H165	H	-0.034198	-0.022693	0.000175
H166	H	0.465802	0.477307	0.500175
O167	O	0.398530	-0.031258	0.000134
O168	O	0.898530	0.468742	0.500134
H169	H	0.371811	-0.034064	0.083552
H170	H	0.871811	0.465936	0.583552
H171	H	-0.167632	0.164421	0.000122
H172	H	0.332368	0.664421	0.500122
O173	O	0.561868	-0.622662	0.000074
O174	O	1.061868	-0.122662	0.500074
H175	H	0.525402	-0.648380	0.000082
H176	H	1.025402	-0.148380	0.500082
H177	H	0.512280	-0.016146	0.000113
H178	H	1.012280	0.483854	0.500113
O179	O	0.566933	-0.199664	0.000108
O180	O	1.066933	0.300336	0.500108
H181	H	0.531197	-0.164111	0.000097
H182	H	1.031197	0.335889	0.500097
H183	H	-0.141947	-0.023982	0.000157
H184	H	0.358053	0.476018	0.500157
O185	O	0.560392	-0.746121	0.000062
O186	O	1.060392	-0.246121	0.500062
H187	H	0.524659	-0.710565	0.000050
H188	H	1.024659	-0.210565	0.500050
H189	H	0.526850	-0.352066	0.000026
H190	H	1.026850	0.147934	0.500026
H191	H	0.138375	-0.072634	0.000215
H192	H	0.638375	0.427366	0.500215
O193	O	0.831437	-0.509363	0.000149
O194	O	1.331437	-0.009363	0.500149
H195	H	0.833615	-0.536758	-0.083260
H196	H	1.333615	-0.036758	0.416740
O197	O	0.784258	-0.105601	0.000175
O198	O	1.284258	0.394399	0.500175
H199	H	0.819993	-0.141155	0.000162
H200	H	1.319993	0.358845	0.500162
H201	H	0.582043	-0.085909	0.000135
H202	H	1.082043	0.414091	0.500135
O203	O	0.255849	-0.084966	0.000216
O204	O	0.755849	0.415034	0.500216
H205	H	0.230134	-0.121435	0.000225
H206	H	0.730134	0.378565	0.500225
H207	H	0.769159	-0.219337	0.000149
H208	H	1.269159	0.280663	0.500149
H209	H	-0.059867	0.165717	0.000115
H210	H	0.440133	0.665717	0.500115
H211	H	0.486602	0.172255	0.000050
H212	H	0.986602	0.672255	0.500050
H213	H	0.378851	0.170970	0.000086
H214	H	0.878851	0.670970	0.500086
O215	O	0.832912	-0.385916	0.000125
O216	O	1.332912	0.114084	0.500125
H217	H	0.868644	-0.421473	0.000111
H218	H	1.368644	0.078527	0.500111
O219	O	0.212273	0.234723	0.000103
O220	O	0.712273	0.734723	0.500103
H221	H	0.176716	0.270455	0.000115
H222	H	0.676716	0.770455	0.500115
H223	H	0.098544	0.219617	0.000097
H224	H	0.598544	0.719617	0.500097
H225	H	0.763906	-0.658056	0.000113
H226	H	1.263906	-0.158056	0.500113
O227	O	0.776242	-0.775537	0.000093
O228	O	1.276242	-0.275537	0.500093
H229	H	0.766960	-0.820640	0.000074
H230	H	1.266960	-0.320640	0.500074
O231	O	0.511739	-0.465798	0.000015
O232	O	1.011739	0.034202	0.500015
H233	H	0.476009	-0.430240	-0.000007
H234	H	0.976009	0.069760	0.499993
