data_functionalizedCrystal
_audit_creation_method	'MofGen! by Chris Wilmer'
_symmetry_space_group_name_H-M	'P1'
_symmetry_Int_Tables_number	1
_symmetry_cell_setting	triclinic
loop_
_symmetry_equiv_pos_as_xyz
  x,y,z
_cell_length_a	14.519731
_cell_length_b	9.565339
_cell_length_c	14.519709
_cell_angle_alpha	89.998241
_cell_angle_beta	96.315501
_cell_angle_gamma	89.997352
loop_
_atom_site_label
_atom_site_type_symbol
_atom_site_fract_x
_atom_site_fract_y
_atom_site_fract_z
O1	O	1.223846	0.116266	-0.120981
O2	O	0.955372	0.116269	-0.135197
O3	O	1.096727	0.116255	0.006149
O4	O	1.082491	0.116280	-0.262326
O5	O	1.096733	-0.116265	0.006145
O6	O	0.955378	-0.116252	-0.135201
O7	O	1.223852	-0.116254	-0.120985
Zn8	Zn	1.089616	-0.153170	-0.128093
Zn9	Zn	1.089608	0.153185	-0.128088
O10	O	1.082497	-0.116240	-0.262331
C11	C	0.921016	0.000009	-0.134532
C12	C	0.818635	0.000009	-0.132536
N13	N	1.089629	-0.362250	-0.128096
C14	C	0.735491	0.000015	-0.130915
C15	C	0.631182	0.000015	-0.128888
C16	C	0.548043	0.000015	-0.127280
C17	C	0.443728	0.000018	-0.125253
C18	C	1.155022	-0.453422	-0.062733
C19	C	1.071657	-0.546593	-0.044676
C20	C	1.172961	-0.546634	-0.146093
C21	C	1.006221	-0.453369	-0.109999
C22	C	1.107581	-0.453402	-0.211451
C23	C	1.024155	-0.546531	-0.193430
C24	C	1.258209	0.000009	-0.121649
C25	C	1.360589	0.000017	-0.123645
C26	C	1.096067	-0.000006	0.040507
C27	C	1.094079	-0.000006	0.142889
N28	N	1.089603	0.362264	-0.128077
C29	C	1.083157	0.000023	-0.296688
C30	C	1.085146	0.000033	-0.399070
C31	C	1.086759	0.000030	0.517785
C32	C	1.088792	0.000019	0.413477
C33	C	1.090419	0.000010	0.330340
C34	C	1.092452	0.000003	0.226025
H35	H	1.210269	-0.412538	-0.007429
O36	O	0.958153	-0.594841	-0.259479
C37	C	0.901669	-0.600255	-0.421826
C38	C	0.976465	-0.545419	-0.347125
H39	H	0.916458	-0.560345	-0.492707
H40	H	0.830679	-0.561686	-0.406379
H41	H	0.902531	-0.719431	-0.421696
H42	H	0.975687	-0.426247	-0.347213
H43	H	1.047420	-0.584095	-0.362599
O44	O	1.053676	-0.595378	0.039490
C45	C	1.102237	-0.603219	0.203533
C46	C	1.122712	-0.547912	0.108269
H47	H	1.158029	-0.564841	0.259169
H48	H	1.101776	-0.722394	0.202578
H49	H	1.031699	-0.563287	0.219382
H50	H	1.193251	-0.587741	0.092360
H51	H	1.123112	-0.428739	0.109272
O52	O	1.125688	-0.404284	-0.295489
C53	C	1.145247	-0.201455	-0.389829
C54	C	1.124697	-0.256893	-0.294621
H55	H	1.144472	-0.082284	-0.389152
H56	H	1.090202	-0.241272	-0.445717
H57	H	1.216352	-0.239783	-0.405082
H58	H	1.053618	-0.218588	-0.279279
H59	H	1.179798	-0.217087	-0.238785
H60	H	0.935722	-0.412575	-0.094689
H61	H	1.243444	-0.587600	-0.161323
