data_functionalizedCrystal
_audit_creation_method	'MofGen! by Chris Wilmer'
_symmetry_space_group_name_H-M	'P1'
_symmetry_Int_Tables_number	1
_symmetry_cell_setting	triclinic
loop_
_symmetry_equiv_pos_as_xyz
  x,y,z
_cell_length_a	16.109301
_cell_length_b	15.944493
_cell_length_c	14.586319
_cell_angle_alpha	90.002083
_cell_angle_beta	89.998857
_cell_angle_gamma	83.468314
loop_
_atom_site_label
_atom_site_type_symbol
_atom_site_fract_x
_atom_site_fract_y
_atom_site_fract_z
O1	O	1.103143	0.107970	-0.076178
O2	O	0.861083	0.121407	-0.076189
O3	O	0.988748	-0.007592	-0.076191
O4	O	0.975478	0.236969	-0.076176
O5	O	0.988740	-0.007594	0.076290
O6	O	0.861074	0.121405	0.076292
O7	O	1.103135	0.107968	0.076303
Cu8	Cu	0.982104	0.114686	0.090220
Cu9	Cu	0.982114	0.114689	-0.090106
O10	O	0.975469	0.236967	0.076305
C11	C	0.830104	0.120861	0.000049
C12	C	0.737808	0.119229	0.000045
C13	C	0.428818	0.190440	0.000065
C14	C	0.515539	0.191981	0.000060
C15	C	0.535394	0.038929	0.000038
C16	C	0.448675	0.037389	0.000037
C17	C	0.395389	0.113147	0.000055
C18	C	0.568828	0.116228	0.000051
C19	C	0.662855	0.117899	0.000045
C20	C	0.301357	0.111477	0.000059
C21	C	0.988202	-0.038887	0.000046
C22	C	0.986576	-0.132136	0.000034
C23	C	1.061722	-0.367920	0.000055
C24	C	1.021203	-0.418474	-0.075128
C25	C	0.983562	-0.302856	0.000045
C26	C	1.021176	-0.418452	0.075206
C27	C	0.980658	-0.467764	0.000060
C28	C	0.943064	-0.352181	-0.075200
C29	C	0.943049	-0.352156	0.075202
C30	C	0.902472	-0.402677	0.000001
C31	C	0.985238	-0.207856	0.000036
C32	C	0.978976	-0.562761	0.000062
C33	C	1.134114	0.108514	0.000062
C34	C	1.226409	0.110145	0.000061
C35	C	0.976016	0.268262	0.000066
C36	C	0.977642	0.361510	0.000072
N37	N	0.982102	0.114684	0.217052
N38	N	0.982122	0.114684	-0.216938
C39	C	1.038651	0.057583	0.452057
C40	C	1.038654	0.057581	0.548039
C41	C	0.925567	0.171788	0.548050
C42	C	0.925561	0.171786	0.452070
C43	C	0.982108	0.114684	0.404076
C44	C	0.982116	0.114684	0.596037
C45	C	0.982118	0.114683	0.700104
C46	C	0.982105	0.114684	0.300003
H47	H	0.578790	-0.022751	0.000026
Cl48	Cl	0.854469	0.243571	0.391745
H49	H	0.385435	0.252128	0.000079
Cl50	Cl	0.557560	0.289155	0.000068
H51	H	0.421458	-0.025557	0.000026
H52	H	1.084695	0.011083	0.587102
H53	H	0.879529	0.218280	0.587136
H54	H	1.054214	-0.447430	-0.138687
Cl55	Cl	0.892141	-0.307674	-0.173441
Cl56	Cl	0.798449	-0.426526	-0.000064
Cl57	Cl	1.165664	-0.343821	-0.000053
H58	H	0.910065	-0.323185	0.138763
Cl59	Cl	1.072154	-0.463135	0.173335
Cl60	Cl	1.109735	-0.014205	0.391727
