data_functionalizedCrystal
_audit_creation_method	'MofGen! by Chris Wilmer'
_symmetry_space_group_name_H-M	'P1'
_symmetry_Int_Tables_number	1
_symmetry_cell_setting	triclinic
loop_
_symmetry_equiv_pos_as_xyz
  x,y,z
_cell_length_a	15.698487
_cell_length_b	23.196402
_cell_length_c	15.698487
_cell_angle_alpha	60.001571
_cell_angle_beta	90.001001
_cell_angle_gamma	60.001335
loop_
_atom_site_label
_atom_site_type_symbol
_atom_site_fract_x
_atom_site_fract_y
_atom_site_fract_z
Zr1	Zr	0.820632	0.631013	-0.111762
O2	O	0.684618	0.751278	-0.247770
O3	O	0.862325	0.510748	-0.070073
O4	O	0.862324	0.631016	-0.247780
O5	O	0.684624	0.631008	0.070122
O6	O	1.002505	0.631018	-0.247782
O7	O	0.684619	0.631010	-0.070063
O8	O	1.002506	0.415880	0.070103
O9	O	0.684622	0.846146	-0.247764
O10	O	0.984726	0.560216	-0.052289
O11	O	0.880113	0.560213	0.052331
O12	O	0.880112	0.701813	-0.156896
O13	O	0.775500	0.701810	-0.052276
Zr14	Zr	1.044212	0.631013	0.111813
Zr15	Zr	1.044205	0.631017	-0.111765
Zr16	Zr	0.820640	0.631009	0.111816
Zr17	Zr	0.820638	0.782315	-0.111752
Zr18	Zr	1.044206	0.479711	0.111803
O19	O	1.002520	0.751278	0.070124
O20	O	1.002510	0.751283	-0.247775
O21	O	0.684628	0.751273	0.070129
O22	O	1.180227	0.510748	0.247821
O23	O	1.180216	0.510753	-0.070078
O24	O	0.862335	0.510743	0.247826
O25	O	1.180221	0.631018	-0.070070
O26	O	1.002521	0.631010	0.247832
O27	O	0.862340	0.631008	0.247834
O28	O	1.180226	0.631016	0.070114
O29	O	0.862332	0.846148	-0.247767
O30	O	1.002512	0.415878	0.247818
O31	O	1.180223	0.415880	0.247815
O32	O	1.180217	0.415883	0.070100
O33	O	0.684628	0.846143	-0.070049
O34	O	0.862338	0.846146	-0.070052
O35	O	0.984732	0.560213	0.156948
O36	O	1.089345	0.560216	0.052328
O37	O	0.984731	0.701813	-0.052280
O38	O	0.880119	0.701810	0.052340
C39	C	0.932415	0.441757	0.000014
C40	C	0.932412	0.377525	0.000010
C41	C	0.987011	0.347356	-0.054605
C42	C	0.987021	0.286995	-0.054596
C43	C	0.932412	0.256817	0.000012
C44	C	0.877810	0.286989	0.054639
C45	C	0.877810	0.347343	0.054637
C46	C	0.840941	0.194786	-0.007780
C47	C	0.840938	0.134437	-0.007786
C48	C	0.932413	0.070662	0.000023
C49	C	1.023890	0.067251	0.007817
C50	C	1.023890	0.127606	0.007815
C51	C	0.932406	0.191372	0.000021
C52	C	0.987028	-0.024958	-0.054585
C53	C	0.987041	-0.085324	-0.054569
C54	C	0.877820	-0.085323	0.054659
C55	C	0.877817	-0.024964	0.054650
C56	C	0.932419	0.005218	0.000022
C57	C	0.652767	0.631008	0.000030
C58	C	0.557854	0.631007	0.000031
C59	C	0.384069	0.631021	0.000021
C60	C	0.480773	0.631017	0.000025
C61	C	1.212078	0.631017	0.000021
C62	C	1.306990	0.631019	0.000020
C63	C	0.932413	0.631017	-0.279636
C64	C	0.932410	0.631019	-0.374551
C65	C	0.932430	0.820269	0.000038
C66	C	0.932433	0.884501	0.000042
C67	C	0.932434	0.631005	-0.548315
C68	C	0.932423	0.631009	-0.451618
C69	C	0.932431	0.631008	0.279688
C70	C	0.932435	0.631007	0.374603
C71	C	1.212070	0.441761	0.000009
C72	C	1.306980	0.377531	0.000004
C73	C	0.932424	0.441752	0.279676
C74	C	0.932424	0.377519	0.374586
C75	C	1.212079	0.441757	0.279671
C76	C	1.306992	0.377525	0.374581
C77	C	0.652765	0.820269	-0.279620
C78	C	0.557852	0.884501	-0.374529
C79	C	0.652775	0.820265	0.000042
C80	C	0.557865	0.884495	0.000048
C81	C	0.932421	0.820274	-0.279624
C82	C	0.932420	0.884507	-0.374535
C83	C	1.296940	0.347368	-0.054617
C84	C	1.386110	0.287025	-0.054643
C85	C	1.485318	0.256842	-0.000042
C86	C	1.495355	0.287011	0.054581
C87	C	1.406187	0.347357	0.054600
C88	C	0.987035	0.347354	0.473776
C89	C	0.987031	0.287008	0.562963
C90	C	0.932423	0.256824	0.552959
C91	C	0.877806	0.286995	0.453759
C92	C	0.877804	0.347344	0.364574
C93	C	1.406180	0.347363	0.364541
C94	C	1.495370	0.287018	0.453709
C95	C	1.485369	0.256833	0.552917
C96	C	1.386170	0.287001	0.562955
C97	C	1.296983	0.347349	0.473787
C98	C	0.458664	0.914671	-0.364489
C99	C	0.369475	0.975034	-0.453658
C100	C	0.379476	1.005222	-0.552866
C101	C	0.478674	0.975050	-0.562904
C102	C	0.567862	0.914692	-0.473736
C103	C	0.567904	0.914665	0.054659
C104	C	0.478735	0.975024	0.054660
C105	C	0.379527	1.005209	0.000056
C106	C	0.369490	0.975037	-0.054562
C107	C	0.458658	0.914682	-0.054569
C108	C	0.987039	0.914672	-0.364497
C109	C	0.987059	0.975018	-0.453668
C110	C	0.932453	1.005202	-0.552874
C111	C	0.877833	0.975031	-0.562910
C112	C	0.877820	0.914682	-0.473741
H113	H	1.031484	0.262427	-0.099071
H114	H	1.377917	0.262468	-0.099123
C115	C	1.124509	0.123849	0.016404
H116	H	1.178994	0.077222	0.021063
H117	H	1.112922	0.171609	-0.043571
H118	H	1.143698	0.120380	0.077040
H119	H	0.306929	1.054353	0.000070
C120	C	1.604486	0.253798	0.114647
H121	H	1.656145	0.213532	0.106817
H122	H	1.612332	0.297113	0.087697
H123	H	1.612314	0.230239	0.186499
C124	C	0.447648	0.881475	-0.255370
H125	H	0.514965	0.841201	-0.203693
H126	H	0.410603	0.924801	-0.247545
H127	H	0.410587	0.857932	-0.247551
H128	H	1.414375	0.371908	0.099085
C129	C	1.417202	0.380558	0.255424
H130	H	1.489054	0.353951	0.262230
H131	H	1.384689	0.370665	0.218360
H132	H	1.384681	0.437541	0.218371
C133	C	1.047114	0.881477	-0.255382
H134	H	1.079651	0.908086	-0.262190
H135	H	0.999986	0.891369	-0.218316
H136	H	1.098792	0.824495	-0.218330
C137	C	0.817746	0.253786	0.442762
H138	H	0.785211	0.280394	0.370916
H139	H	0.864890	0.196807	0.475290
H140	H	0.766069	0.263683	0.475286
H141	H	1.557916	0.207704	-0.000065
C142	C	0.932467	1.071591	-0.650951
H143	H	0.972811	1.085235	-0.630755
H144	H	0.961702	1.051820	-0.691306
H145	H	0.862889	1.118687	-0.691288
C146	C	0.817741	0.380514	0.255469
H147	H	0.825549	0.420783	0.203778
H148	H	0.844712	0.337178	0.247663
H149	H	0.745893	0.404060	0.247652
H150	H	1.031503	0.371923	0.481941
H151	H	1.031510	0.262451	0.643727
H152	H	1.576133	0.262462	0.445518
H153	H	0.833338	0.890129	-0.481928
C154	C	1.583480	0.190446	0.650992
H155	H	1.643982	0.176804	0.630795
H156	H	1.583503	0.210218	0.691347
H157	H	1.583494	0.143350	0.691330
H158	H	1.216169	0.371942	-0.099093
H159	H	0.932433	0.207685	0.625587
C160	C	0.489794	1.008194	0.114754
H161	H	0.561651	0.981559	0.147286
H162	H	0.457293	1.065172	0.067634
H163	H	0.457276	0.998298	0.166436
H164	H	0.648676	0.890093	0.099131
C165	C	0.260368	1.008210	-0.442603
H166	H	0.208677	1.048488	-0.509912
H167	H	0.252551	0.964880	-0.405556
H168	H	0.252563	1.031745	-0.405532
H169	H	1.378043	0.262416	0.643742
C170	C	1.124520	-0.002892	0.016406
H171	H	1.178994	0.003725	0.021039
H172	H	1.143722	-0.053446	0.077035
H173	H	1.112925	-0.002217	-0.043578
C174	C	1.047116	-0.118521	-0.114632
H175	H	1.039311	-0.158798	-0.106795
H176	H	1.020151	-0.075202	-0.186479
H177	H	1.118962	-0.142063	-0.087657
C178	C	0.489667	1.008251	-0.672033
H179	H	0.561513	0.981645	-0.665252
H180	H	0.457132	0.998360	-0.709080
H181	H	0.457149	1.065234	-0.709087
C182	C	0.281368	1.071610	-0.650944
H183	H	0.301522	1.085276	-0.711472
H184	H	0.241024	1.051825	-0.650939
H185	H	0.241035	1.118696	-0.650933
C186	C	0.676963	0.881502	-0.484793
H187	H	0.670135	0.908123	-0.556650
H188	H	0.714045	0.891382	-0.452277
H189	H	0.714009	0.824522	-0.452291
C190	C	1.187882	0.380512	0.484844
H191	H	1.194709	0.353881	0.556701
H192	H	1.150804	0.437491	0.452334
H193	H	1.150831	0.370604	0.452336
H194	H	0.450469	0.890120	-0.099037
C195	C	0.260359	1.008240	-0.114613
H196	H	0.208699	1.048497	-0.106770
H197	H	0.252514	1.031789	-0.186462
H198	H	0.252529	0.964911	-0.087633
H199	H	0.833356	-0.109893	0.099123
C200	C	1.047130	1.008204	-0.442610
H201	H	1.079630	0.981592	-0.370754
H202	H	1.098819	0.998312	-0.475114
H203	H	0.999988	1.065186	-0.475126
H204	H	0.833374	0.999617	-0.643696
H205	H	1.031474	0.371926	-0.099083
H206	H	1.031492	-0.000386	-0.099062
H207	H	0.766451	0.137222	-0.014137
C208	C	0.817717	0.008254	0.114684
H209	H	0.825535	0.048523	0.106859
H210	H	0.745878	0.031794	0.087697
H211	H	0.844671	-0.035061	0.186537
C212	C	0.740312	0.264936	-0.016374
H213	H	0.685830	0.258331	-0.021032
H214	H	0.751897	0.264269	0.043601
H215	H	0.721118	0.315490	-0.077011
H216	H	0.833348	0.262413	0.099102
H217	H	0.833346	0.371907	0.099111
