data_functionalizedCrystal
_audit_creation_method	'MofGen! by Chris Wilmer'
_symmetry_space_group_name_H-M	'P1'
_symmetry_Int_Tables_number	1
_symmetry_cell_setting	triclinic
loop_
_symmetry_equiv_pos_as_xyz
  x,y,z
_cell_length_a	15.944551
_cell_length_b	14.044220
_cell_length_c	13.101039
_cell_angle_alpha	93.659868
_cell_angle_beta	93.361595
_cell_angle_gamma	91.656192
loop_
_atom_site_label
_atom_site_type_symbol
_atom_site_fract_x
_atom_site_fract_y
_atom_site_fract_z
O1	O	0.198266	-1.262927	-0.085109
O2	O	0.448266	-1.012927	0.164891
O3	O	0.698266	-0.762927	0.414891
O4	O	0.948266	-0.512927	0.664891
O5	O	0.190957	-0.986959	-0.085135
O6	O	0.440957	-0.736959	0.164865
O7	O	0.690957	-0.486959	0.414865
O8	O	0.940957	-0.236959	0.664865
O9	O	0.072901	-1.132479	-0.085112
O10	O	0.322901	-0.882479	0.164888
O11	O	0.572901	-0.632479	0.414888
O12	O	0.822901	-0.382479	0.664888
O13	O	0.316322	-1.117408	-0.085132
O14	O	0.566322	-0.867408	0.164868
O15	O	0.816322	-0.617408	0.414868
O16	O	1.066322	-0.367408	0.664868
O17	O	0.081387	-1.122038	0.085316
O18	O	0.331387	-0.872038	0.335316
O19	O	0.581387	-0.622038	0.585316
O20	O	0.831387	-0.372038	0.835316
O21	O	0.199443	-0.976518	0.085293
O22	O	0.449443	-0.726518	0.335293
O23	O	0.699443	-0.476518	0.585293
O24	O	0.949443	-0.226518	0.835293
O25	O	0.206752	-1.252486	0.085319
O26	O	0.456752	-1.002486	0.335319
O27	O	0.706752	-0.752486	0.585319
O28	O	0.956752	-0.502486	0.835319
Zn29	Zn	0.204444	-1.112845	0.112365
Zn30	Zn	0.454444	-0.862845	0.362365
Zn31	Zn	0.704444	-0.612845	0.612365
Zn32	Zn	0.954444	-0.362845	0.862365
Zn33	Zn	0.193264	-1.126601	-0.112181
Zn34	Zn	0.443264	-0.876601	0.137819
Zn35	Zn	0.693264	-0.626601	0.387819
Zn36	Zn	0.943264	-0.376601	0.637819
O37	O	0.324807	-1.106967	0.085296
O38	O	0.574807	-0.856967	0.335296
O39	O	0.824807	-0.606967	0.585296
O40	O	1.074807	-0.356967	0.835296
C41	C	0.192001	-0.946424	0.000076
C42	C	0.442001	-0.696424	0.250076
C43	C	0.692001	-0.446424	0.500076
C44	C	0.942001	-0.196424	0.750076
C45	C	0.182459	-0.841198	0.000066
C46	C	0.432459	-0.591198	0.250066
C47	C	0.682459	-0.341198	0.500066
C48	C	0.932459	-0.091198	0.750066
C49	C	0.045803	-1.126633	0.000102
C50	C	0.295803	-0.876633	0.250102
C51	C	0.545803	-0.626633	0.500102
C52	C	0.795803	-0.376633	0.750102
C53	C	-0.047583	-1.124757	0.000102
C54	C	0.202417	-0.874757	0.250102
C55	C	0.452417	-0.624757	0.500102
C56	C	0.702417	-0.374757	0.750102
N57	N	0.212075	-1.103463	0.265612
N58	N	0.462075	-0.853463	0.515612
N59	N	0.712075	-0.603463	0.765612
N60	N	0.962075	-0.353463	1.015612
C61	C	-0.269531	-1.030074	0.000079
C62	C	-0.019531	-0.780074	0.250079
C63	C	0.230469	-0.530074	0.500079
C64	C	0.480469	-0.280074	0.750079
C65	C	-0.323071	-1.068894	0.084115
C66	C	-0.073071	-0.818894	0.334115
C67	C	0.176929	-0.568894	0.584115
C68	C	0.426929	-0.318894	0.834115
C69	C	-0.218563	-1.121364	0.000094
C70	C	0.031437	-0.871364	0.250094
C71	C	0.281437	-0.621364	0.500094
C72	C	0.531437	-0.371364	0.750094
C73	C	-0.331419	-1.079209	-0.083914
C74	C	-0.081419	-0.829209	0.166086
C75	C	0.168581	-0.579209	0.416086
C76	C	0.418581	-0.329209	0.666086
C77	C	-0.383723	-1.118080	0.000082
C78	C	-0.133723	-0.868080	0.250082
C79	C	0.116277	-0.618080	0.500082
C80	C	0.366277	-0.368080	0.750082
C81	C	-0.270871	-1.160204	0.084199
C82	C	-0.020871	-0.910204	0.334199
C83	C	0.229129	-0.660204	0.584199
C84	C	0.479129	-0.410204	0.834199
C85	C	-0.279217	-1.170512	-0.083905
C86	C	-0.029217	-0.920512	0.166095
C87	C	0.220783	-0.670512	0.416095
C88	C	0.470783	-0.420512	0.666095
C89	C	-0.332734	-1.209397	0.000151
C90	C	-0.082734	-0.959397	0.250151
C91	C	0.167266	-0.709397	0.500151
C92	C	0.417266	-0.459397	0.750151
C93	C	-0.123419	-1.123253	0.000102
C94	C	0.126581	-0.873253	0.250102
C95	C	0.376581	-0.623253	0.500102
C96	C	0.626581	-0.373253	0.750102
C97	C	-0.478865	-1.116197	0.000081
C98	C	-0.228865	-0.866197	0.250081
C99	C	0.021135	-0.616197	0.500081
C100	C	0.271135	-0.366197	0.750081
C101	C	0.351905	-1.112813	0.000079
C102	C	0.601905	-0.862813	0.250079
C103	C	0.851905	-0.612813	0.500079
C104	C	1.101905	-0.362813	0.750079
C105	C	0.445291	-1.114689	0.000072
C106	C	0.695291	-0.864689	0.250072
C107	C	0.945291	-0.614689	0.500072
C108	C	1.195291	-0.364689	0.750072
C109	C	0.205707	-1.293021	0.000106
C110	C	0.455707	-1.043021	0.250106
C111	C	0.705707	-0.793021	0.500106
C112	C	0.955707	-0.543021	0.750106
C113	C	0.215249	-1.398248	0.000108
C114	C	0.465249	-1.148248	0.250108
C115	C	0.715249	-0.898248	0.500108
C116	C	0.965249	-0.648248	0.750108
C117	C	0.165017	-0.648535	0.000088
C118	C	0.415017	-0.398535	0.250088
C119	C	0.665017	-0.148535	0.500088
C120	C	0.915017	0.101465	0.750088
C121	C	0.232688	-0.590906	0.000087
C122	C	0.482688	-0.340906	0.250087
C123	C	0.732688	-0.090906	0.500087
C124	C	0.982688	0.159094	0.750087
C125	C	0.222982	-0.483701	0.000099
C126	C	0.472982	-0.233701	0.250099
C127	C	0.722982	0.016299	0.500099
C128	C	0.972982	0.266299	0.750099
C129	C	0.174721	-0.755749	0.000076
C130	C	0.424721	-0.505749	0.250076
C131	C	0.674721	-0.255749	0.500076
C132	C	0.924721	-0.005749	0.750076
N133	N	0.185628	-1.135990	-0.265429
N134	N	0.435628	-0.885990	-0.015429
N135	N	0.685628	-0.635990	0.234571
N136	N	0.935628	-0.385990	0.484571
C137	C	0.222464	-1.090699	0.474653
C138	C	0.472464	-0.840699	0.724653
C139	C	0.722464	-0.590699	0.974653
C140	C	0.972464	-0.340699	1.224653
C141	C	0.175242	-1.148750	0.525537
C142	C	0.425242	-0.898750	0.775537
C143	C	0.675242	-0.648750	1.025537
C144	C	0.925242	-0.398750	1.275537
C145	C	0.181022	-1.141649	0.641855
C146	C	0.431022	-0.891649	0.891855
C147	C	0.681022	-0.641649	1.141855
C148	C	0.931022	-0.391649	1.391855
C149	C	0.216684	-1.097800	0.358325
C150	C	0.466684	-0.847800	0.608325
C151	C	0.716684	-0.597800	0.858325
C152	C	0.966684	-0.347800	1.108325
H153	H	-0.241893	-0.954293	0.000156
H154	H	0.008107	-0.704293	0.250156
H155	H	0.258107	-0.454293	0.500156
H156	H	0.508107	-0.204293	0.750156
H157	H	0.267230	-1.035671	0.518441
H158	H	0.517230	-0.785671	0.768441
H159	H	0.767230	-0.535671	1.018441
H160	H	1.017230	-0.285671	1.268441
H161	H	0.130473	-1.203784	0.481744
H162	H	0.380473	-0.953784	0.731744
H163	H	0.630473	-0.703784	0.981744
H164	H	0.880473	-0.453784	1.231744
H165	H	-0.342534	-1.025929	0.155153
H166	H	-0.092534	-0.775929	0.405153
H167	H	0.157466	-0.525929	0.655153
H168	H	0.407466	-0.275929	0.905153
H169	H	-0.244450	-1.194427	0.155322
H170	H	0.005550	-0.944427	0.405322
H171	H	0.255550	-0.694427	0.655322
H172	H	0.505550	-0.444427	0.905322
H173	H	-0.357926	-1.044938	-0.154965
H174	H	-0.107926	-0.794938	0.095035
H175	H	0.142074	-0.544938	0.345035
H176	H	0.392074	-0.294938	0.595035
H177	H	0.297911	-0.622082	0.000076
H178	H	0.547911	-0.372082	0.250076
H179	H	0.797911	-0.122082	0.500076
H180	H	1.047911	0.127918	0.750076
H181	H	-0.360212	-1.285236	0.000205
H182	H	-0.110212	-1.035236	0.250205
H183	H	0.139788	-0.785236	0.500205
H184	H	0.389788	-0.535236	0.750205
H185	H	0.099799	-0.617361	0.000099
H186	H	0.349799	-0.367361	0.250099
H187	H	0.599799	-0.117361	0.500099
H188	H	0.849799	0.132639	0.750099
H189	H	-0.259735	-1.213443	-0.154947
H190	H	-0.009735	-0.963443	0.095053
H191	H	0.240265	-0.713443	0.345053
H192	H	0.490265	-0.463443	0.595053
