data_functionalizedCrystal
_audit_creation_method	'MofGen! by Chris Wilmer'
_symmetry_space_group_name_H-M	'P1'
_symmetry_Int_Tables_number	1
_symmetry_cell_setting	triclinic
loop_
_symmetry_equiv_pos_as_xyz
  x,y,z
_cell_length_a	17.077404
_cell_length_b	19.120786
_cell_length_c	17.077396
_cell_angle_alpha	92.471235
_cell_angle_beta	90.019501
_cell_angle_gamma	92.465349
loop_
_atom_site_label
_atom_site_type_symbol
_atom_site_fract_x
_atom_site_fract_y
_atom_site_fract_z
Zn1	Zn	1.186709	-0.279626	0.430494
Zn2	Zn	1.181010	-0.397090	0.293620
Zn3	Zn	1.055439	-0.279651	0.299241
Zn4	Zn	1.049804	-0.397049	0.424846
O5	O	1.118240	-0.338354	0.362050
O6	O	1.295799	-0.295215	0.412349
O7	O	1.164326	-0.381539	0.184518
O8	O	1.077596	-0.181357	0.321368
O9	O	1.291612	-0.381516	0.311789
O10	O	1.174039	-0.181339	0.417799
O11	O	1.072070	-0.295257	0.188647
O12	O	0.944845	-0.295217	0.315891
O13	O	1.067992	-0.381445	0.535444
O14	O	0.940705	-0.381468	0.408173
O15	O	1.168575	-0.295175	0.539593
O16	O	1.158861	-0.495375	0.306312
O17	O	1.062465	-0.495345	0.402723
C18	C	0.914293	-0.338341	0.362029
C19	C	0.827043	-0.338353	0.362038
C20	C	1.109455	-0.520845	0.353312
C21	C	1.105768	-0.598916	0.349600
C22	C	0.783914	-0.383332	0.410005
C23	C	0.701934	-0.383333	0.410018
C24	C	0.663083	-0.338359	0.362058
C25	C	0.706218	-0.293375	0.314089
C26	C	0.788197	-0.293370	0.314081
C27	C	0.535347	-0.293389	0.314107
C28	C	0.453362	-0.293394	0.314114
C29	C	0.449084	-0.383352	0.410044
C30	C	0.531063	-0.383347	0.410036
C31	C	0.574192	-0.338364	0.362066
C32	C	1.154211	-0.635524	0.398103
C33	C	1.150744	-0.708880	0.394617
C34	C	1.098837	-0.745626	0.342622
C35	C	1.050388	-0.709013	0.294117
C36	C	1.053852	-0.635659	0.297608
C37	C	1.085865	-0.967112	0.329571
C38	C	1.082406	-1.040471	0.326082
C39	C	1.182761	-1.040333	0.426584
C40	C	1.186224	-0.966977	0.430067
C41	C	1.137772	-0.930371	0.381564
C42	C	1.095293	-0.820607	0.339055
C43	C	1.141313	-0.855391	0.385136
C44	C	1.322984	-0.338367	0.362072
C45	C	1.410234	-0.338373	0.362081
C46	C	1.118290	-0.338302	0.566797
C47	C	1.118312	-0.338280	0.654048
C48	C	1.127082	-0.155150	0.370840
C49	C	1.130849	-0.077079	0.374586
C50	C	1.118238	-0.338355	0.158102
C51	C	1.118379	-0.338179	0.070861
C52	C	1.170687	-0.293356	0.697200
C53	C	1.170698	-0.293333	0.779182
C54	C	1.118336	-0.338238	0.818010
C55	C	1.065955	-0.383164	0.774852
C56	C	1.065941	-0.383183	0.692872
C57	C	1.065988	-0.383122	0.945724
C58	C	1.066003	-0.383103	1.027709
C59	C	1.170745	-0.293271	1.032034
C60	C	1.170732	-0.293290	0.950054
C61	C	1.118351	-0.338218	0.906902
H62	H	0.815540	-0.419958	0.449057
O63	O	0.668523	-0.249584	0.267589
C64	C	0.649214	-0.130066	0.235398
C65	C	0.691938	-0.179578	0.288127
H66	H	0.668141	-0.073456	0.251972
H67	H	0.583205	-0.137733	0.243644
H68	H	0.664707	-0.142364	0.171495
H69	H	0.676508	-0.167311	0.352050
H70	H	0.757935	-0.171902	0.279814
H71	H	0.823312	-0.256740	0.275026
O72	O	1.221474	-0.249633	0.659528
C73	C	1.265368	-0.130163	0.640230
C74	C	1.207796	-0.179603	0.682928
H75	H	1.254340	-0.073535	0.659145
H76	H	1.256366	-0.137830	0.574217
H77	H	1.328064	-0.142533	0.655759
H78	H	1.145077	-0.167264	0.667463
H79	H	1.216866	-0.171927	0.748930
O80	O	1.006763	-0.600204	0.250414
C81	C	0.906819	-0.608078	0.150403
C82	C	0.960123	-0.648316	0.203789
H83	H	0.869085	-0.646960	0.112705
H84	H	0.944459	-0.573747	0.110971
H85	H	0.867411	-0.573731	0.188058
H86	H	0.999540	-0.682702	0.166195
H87	H	0.922436	-0.682603	0.243226
H88	H	1.196483	-0.605610	0.440439
H89	H	1.190198	-0.738683	0.434107
O90	O	1.236670	-0.931393	0.480640
C91	C	1.335888	-0.938999	0.579910
C92	C	1.278774	-0.979386	0.522691
H93	H	1.369956	-0.977784	0.613911
H94	H	1.301491	-0.904676	0.622610
H95	H	1.378539	-0.904630	0.545522
H96	H	1.236110	-1.013793	0.557014
H97	H	1.313222	-1.013665	0.479991
H98	H	1.222207	-1.070146	0.466072
O99	O	1.221465	-0.249612	0.821133
C100	C	1.236611	-0.154770	0.918257
C101	C	1.179032	-0.204237	0.870790
H102	H	1.202327	-0.118082	0.958428
H103	H	1.274018	-0.122632	0.876455
H104	H	1.276125	-0.187016	0.955070
H105	H	1.139467	-0.172046	0.833974
H106	H	1.141680	-0.236378	0.912634
H107	H	0.413964	-0.419977	0.449106
O108	O	1.000035	-0.744815	0.243629
C109	C	0.950194	-0.857880	0.193737
C110	C	1.007266	-0.817424	0.250941
H111	H	0.956009	-0.916591	0.199641
H112	H	0.964695	-0.843532	0.131120
H113	H	0.887579	-0.843458	0.208140
H114	H	1.069900	-0.831825	0.236609
H115	H	0.992698	-0.831775	0.313541
H116	H	1.040133	-1.070388	0.283742
O117	O	0.568837	-0.427107	0.456508
C118	C	0.656886	-0.521907	0.462347
C119	C	0.614138	-0.472407	0.409623
H120	H	0.693535	-0.558534	0.424464
H121	H	0.612016	-0.554109	0.496622
H122	H	0.696799	-0.489684	0.505002
H123	H	0.574227	-0.504576	0.366924
H124	H	0.659051	-0.440202	0.375404
O125	O	1.191628	-0.819621	0.435683
C126	C	1.206034	-0.736757	0.545640
C127	C	1.148965	-0.777219	0.488438
H128	H	1.171563	-0.702476	0.588316
H129	H	1.248705	-0.702354	0.511312
H130	H	1.240087	-0.775530	0.579673
H131	H	1.114859	-0.738496	0.454390
H132	H	1.106345	-0.811632	0.522810
O133	O	1.221660	-0.249764	0.912288
C134	C	1.328019	-0.240322	0.820134
C135	C	1.270411	-0.289702	0.862871
H136	H	1.367438	-0.272591	0.780158
H137	H	1.365516	-0.208209	0.865012
H138	H	1.293706	-0.203600	0.783553
H139	H	1.304661	-0.326467	0.899451
H140	H	1.232914	-0.321765	0.817953
H141	H	1.046415	-0.937313	0.290077
O142	O	1.015202	-0.426689	1.065551
C143	C	0.968755	-0.466413	1.189934
C144	C	1.026347	-0.417035	1.147177
H145	H	0.977735	-0.458615	1.255937
H146	H	0.979781	-0.523077	1.171166
H147	H	0.906066	-0.454068	1.174347
H148	H	1.089058	-0.429317	1.162744
H149	H	1.015253	-0.360387	1.165949
H150	H	1.053033	-0.850534	0.296719
O151	O	1.221544	-0.249641	1.074069
C152	C	1.268002	-0.209808	1.202280
C153	C	1.210424	-0.259241	1.154769
H154	H	1.259043	-0.217564	1.267534
H155	H	1.256942	-0.153162	1.188927
H156	H	1.330695	-0.222138	1.185541
H157	H	1.147709	-0.246975	1.171480
H158	H	1.221552	-0.315873	1.168126
O159	O	1.015091	-0.426842	0.903922
C160	C	0.911204	-0.515943	0.908279
C161	C	0.968802	-0.466469	0.955715
H162	H	0.873754	-0.547984	0.950134
H163	H	0.945444	-0.552722	0.868171
H164	H	0.871736	-0.483707	0.871406
H165	H	1.008285	-0.498648	0.992633
H166	H	0.934514	-0.429688	0.995773
O167	O	0.660131	-0.427000	0.456718
C168	C	0.633434	-0.461247	0.588539
C169	C	0.680837	-0.411757	0.535741
H170	H	0.650146	-0.448931	0.652441
H171	H	0.646844	-0.517875	0.571988
H172	H	0.568170	-0.453542	0.580272
H173	H	0.746114	-0.419399	0.543980
H174	H	0.667362	-0.355147	0.552304
H175	H	1.023318	-0.419724	0.806472
H176	H	1.023284	-0.419758	0.657738
H177	H	0.570461	-0.256752	0.275052
O178	O	0.415746	-0.249637	0.267509
C179	C	0.428635	-0.160432	0.172334
C180	C	0.471334	-0.209939	0.225089
H181	H	0.473558	-0.128334	0.138011
H182	H	0.392056	-0.123707	0.210172
H183	H	0.388666	-0.192645	0.129723
H184	H	0.511343	-0.177783	0.267708
H185	H	0.507863	-0.246665	0.187202
