data_functionalizedCrystal
_audit_creation_method	'MofGen! by Chris Wilmer'
_symmetry_space_group_name_H-M	'P1'
_symmetry_Int_Tables_number	1
_symmetry_cell_setting	triclinic
loop_
_symmetry_equiv_pos_as_xyz
  x,y,z
_cell_length_a	22.010155
_cell_length_b	16.992694
_cell_length_c	16.992695
_cell_angle_alpha	90.668223
_cell_angle_beta	89.995697
_cell_angle_gamma	90.003362
loop_
_atom_site_label
_atom_site_type_symbol
_atom_site_fract_x
_atom_site_fract_y
_atom_site_fract_z
O1	O	-0.050450	-1.050856	-0.166906
O2	O	0.449550	-0.550856	0.333094
O3	O	-0.050467	-0.822456	-0.165075
O4	O	0.449533	-0.322456	0.334925
O5	O	-0.050454	-0.935740	-0.051790
O6	O	0.449546	-0.435740	0.448210
O7	O	-0.050463	-0.937571	-0.280190
O8	O	0.449537	-0.437571	0.219810
O9	O	0.050597	-0.935719	-0.051807
O10	O	0.550597	-0.435719	0.448193
O11	O	0.050583	-0.822435	-0.165092
O12	O	0.550583	-0.322435	0.334908
O13	O	0.050601	-1.050835	-0.166923
O14	O	0.550601	-0.550835	0.333077
Cu15	Cu	0.059819	-0.936633	-0.166009
Cu16	Cu	0.559819	-0.436633	0.333991
Cu17	Cu	-0.059685	-0.936658	-0.165989
Cu18	Cu	0.440315	-0.436658	0.334011
O19	O	0.050587	-0.937550	-0.280207
O20	O	0.550587	-0.437550	0.219793
C21	C	0.000055	-0.793085	-0.162727
C22	C	0.500055	-0.293085	0.337273
C23	C	0.000049	-0.705600	-0.155699
C24	C	0.500049	-0.205600	0.344301
N25	N	0.143871	-0.936621	-0.166022
N26	N	0.643871	-0.436621	0.333978
N27	N	-0.143738	-0.936675	-0.165969
N28	N	0.356262	-0.436675	0.334031
C29	C	0.563656	-0.986823	-0.115834
C30	C	1.063656	-0.486823	0.384166
C31	C	0.627264	-0.986827	-0.115829
C32	C	1.127264	-0.486827	0.384171
O33	O	0.660161	-1.029479	-0.073166
O34	O	1.160161	-0.529479	0.426834
N35	N	0.659078	-0.936656	-0.165972
N36	N	1.159078	-0.436656	0.334028
C37	C	0.627281	-0.886473	-0.216118
C38	C	1.127281	-0.386473	0.283882
O39	O	0.660182	-0.843799	-0.258768
O40	O	1.160182	-0.343799	0.241232
C41	C	0.563675	-0.886466	-0.216119
C42	C	1.063675	-0.386466	0.283881
C43	C	0.531864	-0.936646	-0.165978
C44	C	1.031864	-0.436646	0.334022
C45	C	0.531846	-1.036998	-0.065697
C46	C	1.031846	-0.536998	0.434303
C47	C	0.468242	-1.036996	-0.065703
C48	C	0.968242	-0.536996	0.434297
C49	C	0.436450	-0.986819	-0.115847
C50	C	0.936450	-0.486819	0.384153
C51	C	0.468261	-0.936644	-0.165985
C52	C	0.968261	-0.436644	0.334015
C53	C	0.531879	-0.836280	-0.266260
C54	C	1.031879	-0.336280	0.233740
C55	C	0.468268	-0.836277	-0.266256
C56	C	0.968268	-0.336277	0.233744
C57	C	0.436458	-0.886457	-0.216115
C58	C	0.936458	-0.386457	0.283885
C59	C	0.372865	-0.886464	-0.216135
C60	C	0.872865	-0.386464	0.283865
N61	N	0.341051	-0.936634	-0.165992
N62	N	0.841051	-0.436634	0.334008
C63	C	0.372844	-0.986812	-0.115848
C64	C	0.872844	-0.486812	0.384152
C65	C	0.760859	-0.886490	-0.216112
C66	C	1.260859	-0.386490	0.283888
C67	C	0.824464	-0.886500	-0.216116
C68	C	1.324464	-0.386500	0.283884
C69	C	0.824443	-0.986853	-0.115826
C70	C	1.324443	-0.486853	0.384174
C71	C	0.760836	-0.986846	-0.115827
C72	C	1.260836	-0.486846	0.384173
C73	C	0.729045	-0.936661	-0.165969
C74	C	1.229045	-0.436661	0.334031
C75	C	0.239272	-0.986803	-0.115866
C76	C	0.739272	-0.486803	0.384134
C77	C	0.175663	-0.986799	-0.115879
C78	C	0.675663	-0.486799	0.384121
C79	C	0.175691	-0.886443	-0.216166
C80	C	0.675691	-0.386443	0.283834
C81	C	0.239294	-0.886450	-0.216156
C82	C	0.739294	-0.386450	0.283844
C83	C	0.271083	-0.936633	-0.165999
C84	C	0.771083	-0.436633	0.334001
O85	O	0.339928	-0.843830	-0.258774
O86	O	0.839928	-0.343830	0.241226
O87	O	0.339935	-1.029472	-0.073198
O88	O	0.839935	-0.529472	0.426802
C89	C	0.000071	-0.933374	-0.022439
C90	C	0.500071	-0.433374	0.477561
C91	C	0.000070	-0.926345	0.065046
C92	C	0.500070	-0.426345	0.565046
C93	C	0.000077	-1.080205	-0.169270
C94	C	0.500077	-0.580205	0.330730
C95	C	0.000079	-1.167690	-0.176299
C96	C	0.500079	-0.667690	0.323701
C97	C	0.000046	-0.659610	-0.223517
C98	C	0.500046	-0.159610	0.276483
C99	C	0.000055	-0.577409	-0.216908
C100	C	0.500055	-0.077409	0.283092
C101	C	0.000062	-0.541201	-0.142480
C102	C	0.500062	-0.041201	0.357520
C103	C	0.000066	-0.587198	-0.074657
C104	C	0.500066	-0.087198	0.425343
C105	C	0.000062	-0.669397	-0.081267
C106	C	0.500062	-0.169397	0.418733
C107	C	0.000079	-0.295886	-0.115086
C108	C	0.500079	0.204114	0.384914
C109	C	0.000082	-0.213681	-0.108481
C110	C	0.500082	0.286319	0.391519
C111	C	0.000072	-0.203898	-0.250732
C112	C	0.500072	0.296102	0.249268
C113	C	0.000064	-0.286099	-0.257336
C114	C	0.500064	0.213901	0.242664
C115	C	0.000071	-0.332089	-0.189512
C116	C	0.500071	0.167911	0.310488
N117	N	0.000069	-0.457178	-0.135723
N118	N	0.500069	0.042822	0.364277
N119	N	0.000069	-0.416110	-0.196270
N120	N	0.500069	0.083890	0.303730
C121	C	0.000061	-0.939917	-0.309559
C122	C	0.500061	-0.439917	0.190441
C123	C	0.000058	-0.946945	-0.397044
C124	C	0.500058	-0.446945	0.102956
C125	C	0.000076	-0.994163	0.111037
C126	C	0.500076	-0.494163	0.611037
C127	C	0.000070	-0.987554	0.193238
C128	C	0.500070	-0.487554	0.693238
C129	C	0.000062	-0.913127	0.229446
C130	C	0.500062	-0.413127	0.729446
C131	C	0.000054	-0.845303	0.183449
C132	C	0.500054	-0.345303	0.683449
C133	C	0.000056	-0.851913	0.101250
C134	C	0.500056	-0.351913	0.601250
C135	C	0.000052	-0.885732	0.474760
C136	C	0.500052	-0.385732	0.974760
C137	C	0.000052	-0.879127	0.556966
C138	C	0.500052	-0.379127	1.056966
C139	C	0.000066	-1.021379	0.566749
C140	C	0.500066	-0.521379	1.066749
C141	C	0.000072	-1.027982	0.484547
C142	C	0.500072	-0.527982	0.984547
C143	C	0.000061	-0.960159	0.438558
C144	C	0.500061	-0.460159	0.938558
N145	N	0.000058	-0.906369	0.313468
N146	N	0.500058	-0.406369	0.813468
N147	N	0.000061	-0.966917	0.354537
N148	N	0.500061	-0.466917	0.854537
H149	H	0.149765	-1.027664	-0.075048
H150	H	0.649765	-0.527664	0.424952
N151	N	0.000079	-1.108264	0.445508
N152	N	0.500079	-0.608264	0.945508
H153	H	-0.037379	-1.138213	0.461959
H154	H	0.462621	-0.638213	0.961959
H155	H	0.000103	-1.102103	0.386465
H156	H	0.500103	-0.602103	0.886465
N157	N	0.000032	-0.698660	-0.303793
N158	N	0.500032	-0.198660	0.196207
H159	H	0.000032	-0.657049	-0.345751
H160	H	0.500032	-0.157049	0.154249
H161	H	0.037490	-0.732554	-0.309643
H162	H	0.537490	-0.232554	0.190357
N163	N	0.000041	-0.812582	0.425165
N164	N	0.500041	-0.312582	0.925165
H165	H	0.037498	-0.812142	0.390835
H166	H	0.537498	-0.312142	0.890835
H167	H	-0.037445	-0.812207	0.390899
H168	H	0.462555	-0.312207	0.890899
H169	H	0.000086	-0.333322	-0.059859
H170	H	0.500086	0.166678	0.440141
N171	N	0.273601	-0.832329	-0.270242
N172	N	0.773601	-0.332329	0.229758
H173	H	0.299987	-0.795590	-0.237953
H174	H	0.799987	-0.295590	0.262047
H175	H	0.299961	-0.864642	-0.306989
H176	H	0.799961	-0.364642	0.193011
H177	H	0.000051	-0.796688	0.063804
H178	H	0.500051	-0.296688	0.563804
H179	H	0.442346	-1.077854	-0.024872
H180	H	0.942346	-0.577854	0.475128
N181	N	0.726538	-1.040959	-0.061729
N182	N	1.226538	-0.540959	0.438271
H183	H	0.700154	-1.008691	-0.024968
H184	H	1.200154	-0.508691	0.475032
H185	H	0.700177	-1.077692	-0.094056
H186	H	1.200177	-0.577692	0.405944
H187	H	0.557725	-1.077859	-0.024860
H188	H	1.057725	-0.577859	0.475140
N189	N	0.858739	-1.040975	-0.061740
N190	N	1.358739	-0.540975	0.438260
H191	H	0.903860	-1.033359	-0.069350
H192	H	1.403860	-0.533359	0.430650
H193	H	0.847620	-1.028384	-0.005320
H194	H	1.347620	-0.528384	0.494680
N195	N	0.000061	-0.325137	-0.337617
N196	N	0.500061	0.174863	0.162383
H197	H	0.037518	-0.359024	-0.343541
H198	H	0.537518	0.140976	0.156459
H199	H	-0.037426	-0.358980	-0.343478
H200	H	0.462574	0.141020	0.156522
H201	H	0.850360	-0.845648	-0.256954
H202	H	1.350360	-0.345648	0.243046
H203	H	0.000044	-0.784703	0.212936
H204	H	0.500044	-0.284703	0.712936
N205	N	0.000121	-0.527803	-0.290054
N206	N	0.500121	-0.027803	0.209946
H207	H	0.000135	-0.563214	-0.338206
H208	H	0.500135	-0.063214	0.161794
H209	H	-0.037314	-0.493443	-0.290459
H210	H	0.462686	0.006557	0.209541
N211	N	0.726572	-0.832361	-0.270201
N212	N	1.226572	-0.332361	0.229799
H213	H	0.756382	-0.800583	-0.301962
H214	H	1.256382	-0.300583	0.198038
H215	H	0.700180	-0.864669	-0.306912
H216	H	1.200180	-0.364669	0.193088
N217	N	0.000065	-0.154296	-0.323881
N218	N	0.500065	0.345704	0.176119
H219	H	0.000069	-0.096729	-0.308403
H220	H	0.500069	0.403271	0.191597
H221	H	0.037524	-0.166528	-0.356101
H222	H	0.537524	0.333472	0.143899
H223	H	0.557771	-0.795419	-0.307089
H224	H	1.057771	-0.295419	0.192911
N225	N	0.000085	-0.174625	-0.028202
N226	N	0.500085	0.325375	0.471798
H227	H	0.000089	-0.216231	0.013762
H228	H	0.500089	0.283769	0.513762
H229	H	0.037545	-0.140728	-0.022372
H230	H	0.537545	0.359272	0.477628
N231	N	0.433982	-0.782152	-0.320347
N232	N	0.933982	-0.282152	0.179653
H233	H	0.388859	-0.789759	-0.312746
H234	H	0.888859	-0.289759	0.187254
H235	H	0.445105	-0.725741	-0.307716
H236	H	0.945105	-0.225741	0.192284
N237	N	0.000083	-0.548149	0.005620
N238	N	0.500083	-0.048149	0.505620
H239	H	0.000085	-0.489097	-0.000482
H240	H	0.500085	0.010903	0.499518
H241	H	-0.037375	-0.564653	0.035536
H242	H	0.462625	-0.064653	0.535536
N243	N	0.141394	-0.832325	-0.270248
N244	N	0.641394	-0.332325	0.229752
H245	H	0.096274	-0.839939	-0.262635
H246	H	0.596274	-0.339939	0.237365
H247	H	0.152515	-0.775915	-0.257615
H248	H	0.652515	-0.275915	0.242385
N249	N	0.000069	-0.719005	-0.008121
N250	N	0.500069	-0.219005	0.491879
H251	H	0.000073	-0.683596	0.040032
H252	H	0.500073	-0.183596	0.540032
H253	H	-0.037392	-0.753326	-0.007755
H254	H	0.462608	-0.253326	0.492245
H255	H	0.000087	-1.054770	0.081563
H256	H	0.500087	-0.554770	0.581563
H257	H	0.000076	-1.042779	0.230680
H258	H	0.500076	-0.542779	0.730680
N259	N	0.000077	-1.094523	0.616357
N260	N	0.500077	-0.594523	1.116357
H261	H	-0.037383	-1.094960	0.650682
H262	H	0.462617	-0.594960	1.150682
H263	H	0.000105	-1.142635	0.580896
H264	H	0.500105	-0.642635	1.080896
N265	N	0.000042	-0.798848	0.596022
N266	N	0.500042	-0.298848	1.096022
H267	H	0.000034	-0.756885	0.554415
H268	H	0.500034	-0.256885	1.054415
H269	H	-0.037419	-0.793024	0.629919
H270	H	0.462581	-0.293024	1.129919
H271	H	0.265148	-1.027666	-0.075023
H272	H	0.765148	-0.527666	0.424977
