data_functionalizedCrystal
_audit_creation_method	'MofGen! by Chris Wilmer'
_symmetry_space_group_name_H-M	'P1'
_symmetry_Int_Tables_number	1
_symmetry_cell_setting	triclinic
loop_
_symmetry_equiv_pos_as_xyz
  x,y,z
_cell_length_a	23.096457
_cell_length_b	14.809374
_cell_length_c	14.809374
_cell_angle_alpha	60.797835
_cell_angle_beta	89.998298
_cell_angle_gamma	67.425492
loop_
_atom_site_label
_atom_site_type_symbol
_atom_site_fract_x
_atom_site_fract_y
_atom_site_fract_z
Zr1	Zr	0.639529	0.955211	-0.203708
O2	O	0.568604	1.113130	-0.350863
O3	O	0.651230	0.777444	-0.145631
O4	O	0.674914	0.926592	-0.332172
O5	O	0.537661	0.993478	-0.031923
O6	O	0.770195	0.926593	-0.332177
O7	O	0.544921	0.963982	-0.164322
O8	O	0.727829	0.659795	0.001511
O9	O	0.580027	1.260276	-0.365611
O10	O	0.739459	0.857914	-0.136530
O11	O	0.662934	0.879925	-0.037719
O12	O	0.690818	1.055527	-0.257347
O13	O	0.614293	1.077538	-0.158536
Zr14	Zr	0.779912	1.002255	0.007445
Zr15	Zr	0.791491	0.955213	-0.203716
Zr16	Zr	0.627950	1.002253	0.007453
Zr17	Zr	0.657746	1.189892	-0.227230
Zr18	Zr	0.761695	0.767574	0.030967
O19	O	0.768211	1.180021	-0.050632
O20	O	0.784675	1.113133	-0.350874
O21	O	0.552141	1.180018	-0.050620
O22	O	0.850837	0.844335	0.154600
O23	O	0.867301	0.777447	-0.145643
O24	O	0.634767	0.844332	0.154611
O25	O	0.881781	0.963987	-0.164340
O26	O	0.744527	1.030873	0.135909
O27	O	0.649247	1.030872	0.135915
O28	O	0.874521	0.993483	-0.031941
O29	O	0.700816	1.260278	-0.365618
O30	O	0.718625	0.697187	0.169355
O31	O	0.839415	0.697189	0.169348
O32	O	0.848618	0.659797	0.001504
O33	O	0.570823	1.297669	-0.197767
O34	O	0.691612	1.297670	-0.197774
O35	O	0.728623	0.901938	0.061084
O36	O	0.805148	0.879927	-0.037727
O37	O	0.756507	1.077541	-0.158544
O38	O	0.679982	1.099552	-0.059732
C39	C	0.686934	0.685182	-0.068709
C40	C	0.679201	0.585554	-0.058723
C41	C	0.713714	0.530218	-0.103288
C42	C	0.705722	0.427247	-0.092969
C43	C	0.519639	0.978730	-0.098121
C44	C	0.455128	0.978729	-0.098118
C45	C	0.450213	0.875578	-0.035062
C46	C	0.389597	0.875577	-0.035058
C47	C	0.333898	0.978729	-0.098129
C48	C	0.338817	1.081895	-0.161188
C49	C	0.399432	1.081895	-0.161183
N50	N	0.222329	1.045364	-0.190626
N51	N	0.164749	1.045357	-0.190629
C52	C	0.151267	0.978737	-0.098147
N53	N	0.197544	0.912105	-0.005663
N54	N	0.255130	0.912108	-0.005662
C55	C	0.268168	0.978741	-0.098141
C56	C	0.080627	0.875578	-0.035082
C57	C	0.020009	0.875583	-0.035075
C58	C	-0.030770	1.081902	-0.161215
C59	C	0.029847	1.081896	-0.161212
C60	C	0.085543	0.978730	-0.098147
C61	C	0.899802	0.978735	-0.098142
C62	C	0.964314	0.978736	-0.098145
C63	C	0.724204	0.919890	-0.362261
C64	C	0.729120	0.899920	-0.451904
C65	C	0.732507	1.272283	-0.127554
C66	C	0.740241	1.371911	-0.137540
C67	C	0.707182	0.989046	-0.551803
C68	C	0.712262	0.968407	-0.644455
C69	C	0.695237	1.037575	0.165998
C70	C	0.690322	1.057546	0.255641
C71	C	0.877015	0.685185	-0.068719
C72	C	0.933794	0.585558	-0.058737
C73	C	0.672451	0.744025	0.195420
C74	C	0.659802	0.664367	0.295049
C75	C	0.862532	0.744028	0.195410
C76	C	0.914395	0.664371	0.295036
C77	C	0.556909	1.213438	-0.391673
C78	C	0.505047	1.293094	-0.491299
C79	C	0.542426	1.272280	-0.127544
C80	C	0.485648	1.371907	-0.137526
C81	C	0.746991	1.213440	-0.391683
C82	C	0.759640	1.293098	-0.491312
C83	C	0.926169	0.527279	-0.105632
C84	C	0.979514	0.433677	-0.096274
C85	C	1.040483	0.398351	-0.040013
C86	C	1.048107	0.456639	0.006883
C87	C	0.994763	0.550244	-0.002482
C88	C	0.688150	0.638452	0.393419
C89	C	0.676263	0.563620	0.487038
C90	C	0.636030	0.514698	0.482285
C91	C	0.607679	0.540621	0.383904
C92	C	0.619563	0.615458	0.290287
C93	C	0.978702	0.615474	0.290242
C94	C	1.027439	0.540639	0.383841
C95	C	1.011868	0.514697	0.482234
C96	C	0.947555	0.563603	0.487024
C97	C	0.898819	0.638442	0.393425
C98	C	0.440741	1.342003	-0.486506
C99	C	0.392005	1.416867	-0.580108
C100	C	0.407577	1.442814	-0.678501
C101	C	0.471889	1.393902	-0.683291
C102	C	0.520624	1.319046	-0.589691
C103	C	0.493274	1.430194	-0.090640
C104	C	0.439931	1.523816	-0.100025
C105	C	0.378963	1.559146	-0.156289
C106	C	0.371338	1.500854	-0.203181
C107	C	0.424681	1.407238	-0.193802
C108	C	0.799875	1.341997	-0.486524
C109	C	0.811773	1.416833	-0.580127
C110	C	0.783431	1.442775	-0.678517
C111	C	0.743194	1.393867	-0.683302
C112	C	0.731300	1.319026	-0.589700
H113	H	0.495559	0.791571	0.016284
H114	H	0.335533	1.635375	-0.163917
H115	H	-0.076120	1.165890	-0.212569
C116	C	0.796515	1.525102	-0.781473
H117	H	0.773878	1.533548	-0.840761
H118	H	0.782316	1.598132	-0.788788
H119	H	0.841428	1.494400	-0.778391
C120	C	1.099155	0.295377	-0.029708
H121	H	1.085875	0.265726	-0.065689
H122	H	1.130477	0.319892	-0.060397
H123	H	1.117299	0.236968	0.043327
C124	C	0.014604	0.762110	0.034288
H125	H	0.056457	0.700672	0.071837
H126	H	-0.010545	0.768207	0.083577
H127	H	-0.005428	0.747436	-0.009767
H128	H	0.339642	1.456679	-0.576187
H129	H	0.775711	0.400759	-0.183332
H130	H	0.385594	0.791576	0.016290
C131	C	0.659867	1.181280	-0.767262
H132	H	0.646766	1.234519	-0.841953
H133	H	0.623443	1.192831	-0.736984
H134	H	0.690611	1.192828	-0.736991
C135	C	0.141895	0.762108	0.034292
H136	H	0.178700	0.776878	0.025253
H137	H	0.139834	0.730118	0.106868
H138	H	0.144952	0.709329	0.013534
H139	H	0.574921	0.500778	0.380050
C140	C	0.035256	1.195361	-0.230587
H141	H	-0.006597	1.256795	-0.268157
H142	H	0.055285	1.210048	-0.186548
H143	H	0.060407	1.189247	-0.279874
H144	H	0.734808	0.876817	-0.627513
H145	H	1.000980	0.597686	0.035713
C146	C	0.588381	0.643948	0.182087
H147	H	0.562724	0.604081	0.192675
H148	H	0.562034	0.724525	0.138214
H149	H	0.621150	0.620788	0.148628
H150	H	0.684643	1.080629	-0.568737
H151	H	0.643737	0.556695	-0.012927
C152	C	0.831057	1.313467	-0.378305
H153	H	0.818212	1.261898	-0.323236
H154	H	0.876649	1.278590	-0.367261
H155	H	0.817539	1.382321	-0.377653
C156	C	0.828082	0.692216	0.398706
H157	H	0.801281	0.740511	0.328876
H158	H	0.815640	0.632798	0.440449
H159	H	0.823684	0.736535	0.430044
C160	C	0.759572	0.776196	-0.429017
H161	H	0.758987	0.778555	-0.494292
H162	H	0.802836	0.736848	-0.389322
H163	H	0.735668	0.736857	-0.389325
H164	H	0.934886	0.542469	0.567148
C165	C	0.622964	0.432375	0.585266
H166	H	0.594940	0.406951	0.568354
H167	H	0.662498	0.367836	0.630686
H168	H	0.603382	0.471565	0.620286
C169	C	0.304271	1.539718	-0.265058
H170	H	0.273598	1.603811	-0.263911
H171	H	0.305496	1.561125	-0.336578
H172	H	0.292336	1.478191	-0.232837
H173	H	0.876531	0.556037	-0.151458
H174	H	0.418462	1.359783	-0.231980
C175	C	0.448328	1.587911	-0.048428
H176	H	0.492277	1.553444	-0.013562
H177	H	0.435537	1.666371	-0.101792
H178	H	0.422357	1.583437	0.001923
C179	C	0.712016	1.422422	-0.791535
H180	H	0.724859	1.474010	-0.846588
H181	H	0.725526	1.353589	-0.792212
H182	H	0.666420	1.457315	-0.802587
C183	C	0.971115	0.369566	-0.147850
H184	H	0.927161	0.404004	-0.182679
H185	H	0.997075	0.374037	-0.198210
H186	H	0.983917	0.291102	-0.094468
C187	C	0.856027	1.470631	-0.574851
H188	H	0.859061	1.518911	-0.644683
H189	H	0.838606	1.514947	-0.543517
H190	H	0.897724	1.411215	-0.533108
H191	H	0.991392	0.636583	0.210136
H192	H	1.097755	0.427862	0.052690
C193	C	1.098176	0.486843	0.378554
H194	H	1.100463	0.513000	0.306550
H195	H	1.122880	0.509030	0.407712
H196	H	1.114820	0.405302	0.418126
H197	H	0.720910	0.678278	0.397309
H198	H	0.699354	0.542524	0.567134
C199	C	0.423601	1.313489	-0.378289
H200	H	0.378321	1.353359	-0.388857
H201	H	0.436917	1.232912	-0.334421
H202	H	0.444981	1.336637	-0.344835
H203	H	0.572984	1.279223	-0.593604
C204	C	1.065482	0.432364	0.585184
H205	H	1.106009	0.406953	0.568229
H206	H	1.065786	0.471522	0.620223
H207	H	1.057732	0.367802	0.630606
H208	H	0.698535	1.279220	-0.593613
C209	C	0.353962	1.525138	-0.781451
H210	H	0.313434	1.550533	-0.764494
H211	H	0.361706	1.589696	-0.826889
H212	H	0.353662	1.485954	-0.816470
H213	H	0.484561	1.415038	-0.763413
H214	H	0.542912	1.401439	-0.044818
H215	H	0.403429	1.165896	-0.212528
C216	C	0.761625	0.569194	-0.165156
H217	H	0.760708	0.633295	-0.163982
H218	H	0.803858	0.507709	-0.132974
H219	H	0.749857	0.590644	-0.236693
H220	H	0.293463	1.165883	-0.212540
C221	C	0.657807	0.388278	-0.031102
H222	H	0.658718	0.324188	-0.032289
H223	H	0.669565	0.366838	0.040429
H224	H	0.615572	0.449770	-0.063300
