data_functionalizedCrystal
_audit_creation_method	'MofGen! by Chris Wilmer'
_symmetry_space_group_name_H-M	'P1'
_symmetry_Int_Tables_number	1
_symmetry_cell_setting	triclinic
loop_
_symmetry_equiv_pos_as_xyz
  x,y,z
_cell_length_a	19.077409
_cell_length_b	12.827892
_cell_length_c	19.076919
_cell_angle_alpha	87.721647
_cell_angle_beta	94.476475
_cell_angle_gamma	87.681147
loop_
_atom_site_label
_atom_site_type_symbol
_atom_site_fract_x
_atom_site_fract_y
_atom_site_fract_z
Zn1	Zn	1.061703	0.373874	-0.355477
Zn2	Zn	1.066372	0.541320	-0.237609
Zn3	Zn	0.948559	0.373909	-0.242325
Zn4	Zn	0.943802	0.555893	-0.360172
O5	O	1.005109	0.461249	-0.298896
O6	O	1.160970	0.389973	-0.335902
O7	O	1.054688	0.513028	-0.139587
O8	O	0.963604	0.227666	-0.257343
O9	O	1.164400	0.512994	-0.249306
O10	O	1.046731	0.227641	-0.340475
O11	O	0.968131	0.390032	-0.143052
O12	O	0.849280	0.404162	-0.261897
O13	O	0.955497	0.537832	-0.458197
O14	O	0.845785	0.537865	-0.348479
O15	O	1.042119	0.404103	-0.454747
O16	O	1.050076	0.689491	-0.253859
O17	O	0.960024	0.700197	-0.343906
C18	C	0.821954	0.472600	-0.306209
C19	C	0.743600	0.477482	-0.309355
C20	C	0.302349	0.512417	-0.331948
C21	C	0.375973	0.507837	-0.328980
C22	C	0.414578	0.435832	-0.282491
C23	C	0.379556	0.368410	-0.238964
C24	C	0.305934	0.372996	-0.241930
C25	C	0.634956	0.414646	-0.268793
C26	C	0.708583	0.410063	-0.265832
C27	C	0.704994	0.549492	-0.355847
C28	C	0.631371	0.554067	-0.358812
C29	C	0.596356	0.486649	-0.315282
N30	N	0.489833	0.431147	-0.279458
N31	N	0.521103	0.491340	-0.318313
C32	C	1.005059	0.732762	-0.298895
C33	C	1.005101	0.848913	-0.298915
C34	C	1.049709	0.895366	-0.254405
C35	C	1.049753	1.015414	-0.254425
C36	C	1.188978	0.449854	-0.291554
C37	C	1.267333	0.444998	-0.288426
C38	C	0.997757	0.472589	-0.482765
C39	C	0.994624	0.477422	-0.561120
C40	C	1.005172	1.188676	-0.298921
C41	C	1.005183	1.072524	-0.298953
C42	C	1.038249	0.410070	-0.596136
C43	C	1.035296	0.414607	-0.669758
C44	C	0.988722	0.486502	-0.708363
C45	C	0.945092	0.553857	-0.673342
C46	C	0.948041	0.549314	-0.599721
C47	C	0.975062	0.507551	-0.928739
C48	C	0.972117	0.512091	-1.002365
C49	C	1.062321	0.372839	-0.998776
C50	C	1.065269	0.368307	-0.925153
C51	C	1.021637	0.435658	-0.890139
N52	N	0.985705	0.491144	-0.783617
N53	N	1.024651	0.431010	-0.814886
C54	C	1.012473	0.449874	-0.115740
C55	C	1.015742	0.444739	-0.037381
H56	H	0.404480	0.562739	-0.364419
H57	H	0.912510	0.604149	-0.571212
Cl58	Cl	0.749018	0.634249	-0.410560
Cl59	Cl	0.253824	0.602938	-0.390397
H60	H	0.740013	0.351415	-0.227981
H61	H	1.103197	0.309765	-0.893726
Cl62	Cl	0.582844	0.644592	-0.417256
H63	H	1.097843	0.318005	-1.027293
H64	H	0.606456	0.359753	-0.233345
H65	H	1.087870	0.846262	-0.216284
H66	H	1.087942	1.055383	-0.216316
H67	H	0.966987	1.032564	-0.337060
Cl68	Cl	0.428089	0.277892	-0.180519
Cl69	Cl	0.261913	0.288242	-0.187210
H70	H	1.070822	0.359765	-0.698265
H71	H	0.966946	0.898020	-0.337040
H72	H	1.076177	0.351528	-0.564708
Cl73	Cl	0.913558	0.602474	-1.050896
Cl74	Cl	0.920210	0.592222	-0.884730
H75	H	0.907168	0.612391	-0.704780
