data_functionalizedCrystal
_audit_creation_method	'MofGen! by Chris Wilmer'
_symmetry_space_group_name_H-M	'P1'
_symmetry_Int_Tables_number	1
_symmetry_cell_setting	triclinic
loop_
_symmetry_equiv_pos_as_xyz
  x,y,z
_cell_length_a	19.188930
_cell_length_b	16.992695
_cell_length_c	16.053802
_cell_angle_alpha	87.258926
_cell_angle_beta	87.413631
_cell_angle_gamma	93.093499
loop_
_atom_site_label
_atom_site_type_symbol
_atom_site_fract_x
_atom_site_fract_y
_atom_site_fract_z
O1	O	0.934644	-0.094549	-0.069701
O2	O	1.434644	0.405451	0.430299
O3	O	0.732101	-0.107727	-0.069644
O4	O	1.232101	0.392273	0.430356
O5	O	0.832560	0.013002	-0.069666
O6	O	1.332560	0.513002	0.430334
O7	O	0.834185	-0.215277	-0.069679
O8	O	1.334185	0.284723	0.430321
O9	O	0.827029	0.006384	0.069194
O10	O	1.327029	0.506384	0.569194
O11	O	0.726570	-0.114345	0.069216
O12	O	1.226570	0.385655	0.569216
O13	O	0.929113	-0.101167	0.069159
O14	O	1.429113	0.398833	0.569159
Zn15	Zn	0.826963	-0.108807	0.091235
Zn16	Zn	1.326963	0.391193	0.591235
Zn17	Zn	0.834250	-0.100087	-0.091720
Zn18	Zn	1.334250	0.399913	0.408280
O19	O	0.828653	-0.221895	0.069181
O20	O	1.328653	0.278105	0.569181
C21	C	0.703299	-0.110610	-0.000207
C22	C	1.203299	0.389390	0.499793
C23	C	0.625719	-0.109330	-0.000185
C24	C	1.125719	0.390670	0.499815
C25	C	0.827705	0.038898	-0.000235
C26	C	1.327705	0.538898	0.499765
C27	C	0.821472	0.125921	-0.000234
C28	C	1.321472	0.625921	0.499766
C29	C	0.833508	-0.247792	-0.000252
C30	C	1.333508	0.252208	0.499748
C31	C	0.839741	-0.334814	-0.000259
C32	C	1.339741	0.165186	0.499741
C33	C	0.584941	-0.180168	-0.000202
C34	C	1.084941	0.319832	0.499798
C35	C	0.512047	-0.178964	-0.000211
C36	C	1.012047	0.321036	0.499789
C37	C	0.479935	-0.106918	-0.000220
C38	C	0.979935	0.393082	0.499780
C39	C	0.520722	-0.036070	-0.000198
C40	C	1.020722	0.463930	0.499802
C41	C	0.593614	-0.037276	-0.000180
C42	C	1.093614	0.462724	0.499820
N43	N	0.370616	-0.049593	-0.047510
N44	N	0.870616	0.450407	0.452490
N45	N	0.301371	-0.048452	-0.047528
N46	N	0.801371	0.451548	0.452472
C47	C	0.260316	-0.103279	-0.000271
C48	C	0.760316	0.396721	0.499729
N49	N	0.291120	-0.159302	0.046996
N50	N	0.791120	0.340698	0.546996
N51	N	0.360371	-0.160445	0.047011
N52	N	0.860371	0.339555	0.547011
C53	C	0.400896	-0.105602	-0.000238
C54	C	0.900896	0.394398	0.499762
C55	C	0.140497	-0.172817	-0.000297
C56	C	0.640497	0.327183	0.499703
C57	C	0.067602	-0.171611	-0.000300
C58	C	0.567602	0.328389	0.499700
C59	C	0.076279	-0.028714	-0.000295
C60	C	0.576279	0.471286	0.499705
C61	C	0.149172	-0.029923	-0.000283
C62	C	0.649172	0.470077	0.499717
C63	C	0.181277	-0.101977	-0.000288
C64	C	0.681277	0.398023	0.499712
C65	C	0.957914	-0.098284	-0.000280
C66	C	1.457914	0.401716	0.499720
C67	C	1.035495	-0.099564	-0.000308
C68	C	1.535495	0.400436	0.499692
N69	N	0.821995	-0.114757	0.216096
N70	N	1.321995	0.385243	0.716096
C71	C	0.881613	0.176368	-0.000250
C72	C	1.381613	0.676368	0.499750
C73	C	0.875752	0.258135	-0.000256
C74	C	1.375752	0.758135	0.499744
C75	C	0.809751	0.289453	-0.000240
C76	C	1.309751	0.789453	0.499760
C77	C	0.749606	0.238999	-0.000227
C78	C	1.249606	0.738999	0.499773
C79	C	0.755467	0.157234	-0.000226
C80	C	1.255467	0.657234	0.499774
C81	C	0.785458	0.532967	-0.000245
C82	C	1.285458	1.032967	0.499755
C83	C	0.779601	0.614738	-0.000243
C84	C	1.279601	1.114738	0.499757
C85	C	0.905748	0.633869	-0.000273
C86	C	1.405748	1.133869	0.499727
C87	C	0.911603	0.552102	-0.000268
C88	C	1.411603	1.052102	0.499732
C89	C	0.851459	0.501655	-0.000259
C90	C	1.351459	1.001655	0.499741
N91	N	0.803759	0.373031	-0.000244
N92	N	1.303759	0.873031	0.499756
N93	N	0.857452	0.418079	-0.000261
N94	N	1.357452	0.918079	0.499739
N95	N	0.839224	-0.094131	-0.216581
N96	N	1.339224	0.405869	0.283419
C97	C	0.864758	-0.063405	0.259781
C98	C	1.364758	0.436595	0.759781
C99	C	0.861289	-0.067575	0.347188
C100	C	1.361289	0.432425	0.847188
C101	C	0.815061	-0.123101	0.390909
C102	C	1.315061	0.376899	0.890909
C103	C	0.772293	-0.174455	0.347219
C104	C	1.272293	0.325545	0.847219
C105	C	0.775758	-0.170281	0.259813
C106	C	1.275758	0.329719	0.759813
C107	C	0.799922	-0.141311	0.652322
C108	C	1.299922	0.358689	1.152322
C109	C	0.796461	-0.145483	0.739734
C110	C	1.296461	0.354517	1.239734
C111	C	0.885457	-0.038601	0.739698
C112	C	1.385457	0.461399	1.239698
C113	C	0.888921	-0.034435	0.652290
C114	C	1.388921	0.465565	1.152290
C115	C	0.846151	-0.085786	0.608607
C116	C	1.346151	0.414214	1.108607
N117	N	0.811516	-0.127366	0.480254
N118	N	1.311516	0.372634	0.980254
N119	N	0.849693	-0.081517	0.519264
N120	N	1.349693	0.418483	1.019264
H121	H	0.611076	-0.238839	-0.000207
H122	H	1.111076	0.261161	0.499793
H123	H	0.740935	-0.212096	0.224245
H124	H	1.240935	0.287904	0.724245
C125	C	0.175819	-0.252069	-0.000291
C126	C	0.675819	0.247931	0.499709
H127	H	0.225072	-0.242642	-0.000290
H128	H	0.725072	0.257358	0.499710
H129	H	0.160147	-0.283535	0.048129
H130	H	0.660147	0.216465	0.548129
H131	H	0.164035	-0.278919	-0.048724
H132	H	0.664035	0.221081	0.451276
H133	H	0.494572	0.022591	-0.000216
H134	H	0.994572	0.522591	0.499784
H135	H	0.725852	0.640233	-0.000216
H136	H	1.225852	1.140233	0.499784
H137	H	0.182375	0.027761	-0.000273
H138	H	0.682375	0.527761	0.499727
C139	C	0.022746	-0.249537	-0.000320
C140	C	0.522746	0.250463	0.499680
H141	H	0.052309	-0.292618	-0.000328
H142	H	0.552309	0.207382	0.499672
H143	H	-0.007815	-0.254350	0.048098
H144	H	0.492185	0.245650	0.548098
H145	H	-0.003923	-0.249722	-0.048756
H146	H	0.496077	0.250278	0.451244
H147	H	0.734649	-0.219663	0.382821
H148	H	1.234649	0.280337	0.882821
H149	H	0.626816	0.020410	-0.000166
H150	H	1.126816	0.520410	0.499834
C151	C	0.467183	-0.256888	-0.000243
C152	C	0.967183	0.243112	0.499757
H153	H	0.496744	-0.299972	-0.000250
H154	H	0.996744	0.200028	0.499750
H155	H	0.436616	-0.261704	0.048169
H156	H	0.936616	0.238296	0.548169
H157	H	0.440521	-0.257066	-0.048685
H158	H	0.940521	0.242934	0.451315
C159	C	0.932493	0.017888	0.787751
C160	C	1.432493	0.517888	1.287751
H161	H	0.923806	0.007456	0.846068
H162	H	1.423806	0.507456	1.346068
H163	H	0.980125	0.010192	0.773399
H164	H	1.480125	0.510192	1.273399
H165	H	0.922554	0.070872	0.773439
H166	H	1.422554	0.570872	1.273439
C167	C	0.745568	-0.206522	0.787826
C168	C	1.245568	0.293478	1.287826
H169	H	0.720576	-0.236492	0.749293
H170	H	1.220576	0.263508	1.249293
H171	H	0.771111	-0.240733	0.821924
H172	H	1.271111	0.259267	1.321924
H173	H	0.713600	-0.179981	0.821924
H174	H	1.213600	0.320019	1.321924
C175	C	0.040965	0.050536	-0.000310
C176	C	0.540965	0.550536	0.499690
H177	H	-0.008288	0.041110	-0.000329
H178	H	0.491712	0.541110	0.499671
H179	H	0.052746	0.077391	0.048115
H180	H	0.552746	0.577391	0.548115
H181	H	0.056640	0.081996	-0.048738
H182	H	0.556640	0.581996	0.451262
C183	C	0.752897	-0.197814	0.604278
C184	C	1.252897	0.302186	1.104278
H185	H	0.761577	-0.187379	0.545960
H186	H	1.261577	0.312621	1.045960
H187	H	0.762840	-0.250791	0.618597
H188	H	1.262840	0.249209	1.118597
H189	H	0.705259	-0.190124	0.618625
H190	H	1.205259	0.309876	1.118625
C191	C	0.954213	0.141922	-0.000264
C192	C	1.454213	0.641922	0.499736
H193	H	0.949092	0.086000	-0.000253
H194	H	1.449092	0.586000	0.499747
H195	H	0.981098	0.161558	-0.048694
H196	H	1.481098	0.661558	0.451306
H197	H	0.977235	0.156950	0.048159
H198	H	1.477235	0.656950	0.548159
C199	C	0.941906	0.313624	-0.000265
C200	C	1.441906	0.813624	0.499735
H201	H	0.982053	0.283261	-0.000262
H202	H	1.482053	0.783261	0.499738
H203	H	0.944178	0.348224	-0.048688
H204	H	1.444178	0.848224	0.451312
H205	H	0.940307	0.343611	0.048165
H206	H	1.440307	0.843611	0.548165
H207	H	0.965348	0.526610	-0.000281
H208	H	1.465348	1.026610	0.499719
H209	H	0.954714	0.674951	-0.000282
H210	H	1.454714	1.174951	0.499718
H211	H	0.695866	0.264504	-0.000219
H212	H	1.195866	0.764504	0.499781
H213	H	0.736484	0.491903	-0.000237
H214	H	1.236484	0.991903	0.499763
C215	C	0.689313	0.101741	-0.000207
C216	C	1.189313	0.601741	0.499793
H217	H	0.649165	0.132102	-0.000190
H218	H	1.149165	0.632102	0.499810
H219	H	0.690908	0.071752	-0.048630
H220	H	1.190908	0.571752	0.451370
H221	H	0.687048	0.067143	0.048224
H222	H	1.187048	0.567143	0.548224
H223	H	0.902405	-0.018193	0.224189
H224	H	1.402405	0.481807	0.724189
H225	H	0.896110	-0.025759	0.382756
H226	H	1.396110	0.474241	0.882756
H227	H	0.926564	0.010779	0.616694
H228	H	1.426564	0.510779	1.116694
