data_functionalizedCrystal
_audit_creation_method	'MofGen! by Chris Wilmer'
_symmetry_space_group_name_H-M	'P1'
_symmetry_Int_Tables_number	1
_symmetry_cell_setting	triclinic
loop_
_symmetry_equiv_pos_as_xyz
  x,y,z
_cell_length_a	19.288840
_cell_length_b	9.065218
_cell_length_c	17.766277
_cell_angle_alpha	89.995554
_cell_angle_beta	89.983415
_cell_angle_gamma	84.070951
loop_
_atom_site_label
_atom_site_type_symbol
_atom_site_fract_x
_atom_site_fract_y
_atom_site_fract_z
O1	O	0.922792	0.183855	-0.062717
O2	O	0.720722	0.208719	-0.062691
O3	O	0.825933	-0.018502	-0.062703
O4	O	0.817580	0.411077	-0.062705
O5	O	0.825915	-0.018514	0.062486
O6	O	0.720703	0.208708	0.062498
O7	O	0.922773	0.183844	0.062471
Cu8	Cu	0.821736	0.196275	0.073915
Cu9	Cu	0.821758	0.196288	-0.074135
O10	O	0.817561	0.411065	0.062484
C11	C	0.694829	0.207920	-0.000093
C12	C	0.617706	0.205537	-0.000083
C13	C	0.581504	0.204398	-0.068325
C14	C	0.509040	0.202143	-0.068334
C15	C	0.472782	0.200996	-0.000098
C16	C	0.508992	0.202143	0.068154
C17	C	0.581454	0.204413	0.068161
C18	C	0.362747	0.110986	0.052171
C19	C	0.290287	0.108706	0.052161
C20	C	0.249284	0.194000	-0.000117
C21	C	0.280751	0.281554	-0.052398
C22	C	0.353213	0.283824	-0.052391
C23	C	0.394209	0.198535	-0.000098
C24	C	0.134507	0.190417	-0.068374
C25	C	0.062041	0.188171	-0.068380
C26	C	0.061996	0.188156	0.068110
C27	C	0.134460	0.190418	0.068114
C28	C	0.170712	0.191541	-0.000130
C29	C	0.825121	-0.073466	-0.000110
C30	C	0.822721	-0.237225	-0.000113
C31	C	0.948665	0.184643	-0.000128
C32	C	1.025788	0.187027	-0.000143
C33	C	0.818373	0.466030	-0.000111
C34	C	0.820774	0.629788	-0.000113
N35	N	0.821725	0.196264	0.178046
N36	N	0.821774	0.196287	-0.178265
C37	C	0.868329	0.095700	0.217427
C38	C	0.868333	0.095693	0.296229
C39	C	0.821740	0.196276	0.335646
C40	C	0.775128	0.296848	0.296255
C41	C	0.775121	0.296842	0.217455
C42	C	0.813485	0.330693	0.460484
C43	C	0.813497	0.330701	0.539283
C44	C	0.821759	0.196294	0.578692
C45	C	0.830023	0.061873	0.539293
C46	C	0.830016	0.061867	0.460493
C47	C	0.821743	0.196293	0.421092
C48	C	0.868369	0.095713	0.703520
C49	C	0.868368	0.095705	0.782323
C50	C	0.775167	0.296873	0.782348
C51	C	0.775164	0.296869	0.703546
C52	C	0.821769	0.196291	0.664137
H53	H	0.163937	0.191335	0.123684
H54	H	0.836750	-0.047574	0.571379
H55	H	0.479558	0.201218	-0.123907
O56	O	0.173611	0.191621	-0.141978
H57	H	0.230083	0.193360	-0.130509
H58	H	0.264673	0.037407	0.094728
O59	O	0.236530	0.373609	-0.108765
H60	H	0.270584	0.434879	-0.145111
H61	H	0.906276	0.013800	0.185342
O62	O	0.022994	0.186951	-0.141991
H63	H	-0.033486	0.185205	-0.130534
O64	O	0.022886	0.187198	0.141712
H65	H	-0.033590	0.185522	0.130243
H66	H	0.396127	0.041526	0.094746
O67	O	0.469853	0.201619	0.141754
H68	H	0.413369	0.200096	0.130284
O69	O	0.620507	0.205661	0.141767
H70	H	0.583124	0.204490	0.189218
O71	O	0.918606	-0.012761	0.338720
H72	H	0.951016	-0.082690	0.298077
O73	O	0.804598	0.475680	0.581771
H74	H	0.753788	0.537354	0.566674
H75	H	0.906316	0.013805	0.814388
H76	H	0.737228	0.378764	0.814441
O77	O	0.838916	-0.083100	0.417995
H78	H	0.844657	-0.176569	0.458631
O79	O	0.387208	0.378079	-0.108812
H80	H	0.415763	0.460239	-0.078559
H81	H	0.737218	0.378764	0.671480
O82	O	0.918623	-0.012777	0.661005
H83	H	0.951023	-0.082729	0.701632
O84	O	0.804579	0.475669	0.417980
H85	H	0.798847	0.569137	0.458612
H86	H	0.737170	0.378736	0.185390
O87	O	0.620605	0.205629	-0.141927
H88	H	0.583251	0.204472	-0.189383
O89	O	0.724876	0.405346	0.338762
H90	H	0.732716	0.388469	0.400174
