data_functionalizedCrystal
_audit_creation_method	'MofGen! by Chris Wilmer'
_symmetry_space_group_name_H-M	'P1'
_symmetry_Int_Tables_number	1
_symmetry_cell_setting	triclinic
loop_
_symmetry_equiv_pos_as_xyz
  x,y,z
_cell_length_a	15.538191
_cell_length_b	15.995292
_cell_length_c	14.750522
_cell_angle_alpha	104.198876
_cell_angle_beta	107.530018
_cell_angle_gamma	65.370355
loop_
_atom_site_label
_atom_site_type_symbol
_atom_site_fract_x
_atom_site_fract_y
_atom_site_fract_z
O1	O	1.268223	-0.261297	0.079857
O2	O	0.993940	-0.164609	0.079850
O3	O	1.138608	-0.337131	0.079855
O4	O	1.123555	-0.088775	0.079852
O5	O	1.102114	-0.358473	-0.079803
O6	O	0.957446	-0.185951	-0.079808
O7	O	1.231729	-0.282639	-0.079801
Zn8	Zn	1.088793	-0.237683	-0.105154
Zn9	Zn	1.136875	-0.209564	0.105203
O10	O	1.087061	-0.110117	-0.079806
C11	C	0.940595	-0.165164	0.000020
C12	C	0.836013	-0.135031	0.000018
C13	C	0.548297	-0.434392	0.000037
C14	C	0.450025	-0.406056	0.000037
C15	C	0.427544	-0.246675	0.000035
C16	C	0.525816	-0.274998	0.000030
C17	C	0.586185	-0.368857	0.000032
C18	C	0.563703	-0.209463	0.000025
C19	C	0.661967	-0.237784	0.000025
C20	C	0.722344	-0.331639	0.000030
C21	C	0.684449	-0.397178	0.000032
C22	C	0.503334	-0.115604	0.000030
C23	C	0.541221	-0.050069	0.000025
C24	C	0.639485	-0.078390	0.000018
C25	C	0.699862	-0.172245	0.000023
C26	C	0.677380	-0.012851	0.000016
C27	C	0.775644	-0.041171	0.000016
C28	C	0.798126	-0.200565	0.000023
C29	C	1.119749	-0.378811	0.000028
C30	C	1.117914	-0.471205	0.000036
C31	C	1.111160	-0.806892	0.000027
C32	C	1.215495	-0.815363	-0.000328
C33	C	1.217563	-0.719242	0.000036
C34	C	1.114511	-0.640354	0.000030
C35	C	1.083146	-0.641403	0.091199
C36	C	1.081906	-0.737801	0.091272
C37	C	1.038273	-0.761280	-0.090289
C38	C	1.041868	-0.666124	-0.091491
C39	C	1.116400	-0.546231	0.000036
C40	C	1.109269	-0.901013	0.000028
C41	C	1.285074	-0.282084	0.000030
C42	C	1.389657	-0.312216	0.000039
C43	C	1.105920	-0.068436	0.000022
C44	C	1.107757	0.023958	0.000022
N45	N	1.055985	-0.256876	-0.248717
C46	C	1.261240	-0.136730	-0.600491
C47	C	1.238273	-0.150199	-0.700995
C48	C	1.124045	-0.217104	-0.700982
C49	C	1.146999	-0.203637	-0.600476
C50	C	1.215598	-0.163450	-0.550238
C51	C	1.101357	-0.230356	-0.550223
C52	C	1.124314	-0.216894	-0.449726
C53	C	1.192912	-0.176712	-0.399481
C54	C	1.238555	-0.149988	-0.449741
C55	C	1.032763	-0.270549	-0.600463
C56	C	0.987121	-0.297269	-0.550210
C57	C	1.010073	-0.283801	-0.449711
C58	C	1.078671	-0.243619	-0.399466
C59	C	0.964430	-0.310525	-0.399452
C60	C	0.987386	-0.297063	-0.298954
C61	C	1.101627	-0.230156	-0.298969
N62	N	1.169691	-0.190380	0.248765
H63	H	0.733605	-0.473608	0.000028
H64	H	1.134906	-0.623290	0.159050
H65	H	0.931271	-0.329992	-0.591128
H66	H	1.273653	-0.704585	0.065505
N67	N	0.941682	-0.749658	-0.091085
N68	N	0.895302	-0.788581	-0.159997
H69	H	0.827089	-0.780380	-0.160554
N70	N	1.216348	-0.162941	-0.296825
N71	N	1.202541	-0.082935	-0.251998
H72	H	1.219091	-0.073207	-0.179497
N73	N	0.814348	0.025763	-0.000013
N74	N	0.851287	0.018737	-0.067317
H75	H	0.878624	0.066011	-0.067337
H76	H	1.317090	-0.103994	-0.559584
N77	N	1.146815	-0.773828	0.176751
N78	N	1.157643	-0.851406	0.192257
H79	H	1.203490	-0.876850	0.252627
N80	N	1.250104	-0.721899	-0.081945
N81	N	1.196357	-0.668131	-0.142447
H82	H	1.219342	-0.670013	-0.200348
N83	N	0.945917	-0.597032	-0.098415
N84	N	0.878542	-0.606328	-0.167151
H85	H	0.810772	-0.557532	-0.172036
N86	N	0.411334	-0.473017	0.000028
N87	N	0.414454	-0.538539	-0.067271
H88	H	0.387128	-0.585829	-0.067277
H89	H	1.157477	-0.197421	-0.258063
H90	H	0.492056	0.026352	0.000027
N91	N	0.609987	-0.530263	0.000046
N92	N	0.697721	-0.555531	0.000051
H93	H	0.741291	-0.623237	0.000060
N94	N	0.822723	-0.360587	0.000038
N95	N	0.886983	-0.399816	0.067338
H96	H	0.957877	-0.420263	0.067344
H97	H	0.908583	-0.343253	-0.440370
N98	N	0.365864	-0.150806	0.000044
N99	N	0.278133	-0.125529	0.000051
H100	H	0.234571	-0.057820	0.000058
H101	H	1.294404	-0.117252	-0.408835
N102	N	0.402958	-0.086686	0.000021
N103	N	0.348731	-0.118618	-0.067282
H104	H	0.277840	-0.098196	-0.067289
H105	H	1.275445	-0.128437	-0.741907
H106	H	0.950218	-0.318819	-0.258038
H107	H	1.240798	-0.864332	-0.065708
H108	H	0.628215	0.063571	0.000024
H109	H	1.270380	-0.847854	0.064688
N110	N	1.059486	-0.820763	-0.176990
N111	N	1.008930	-0.795995	-0.256480
H112	H	1.023921	-0.838007	-0.317709
H113	H	1.006290	-0.728532	0.095399
H114	H	1.068194	-0.249827	-0.741899
H115	H	0.847281	-0.276996	0.000019
N116	N	1.009313	-0.284285	-0.703119
N117	N	0.975011	-0.216296	-0.747996
H118	H	0.958448	-0.225995	-0.820498
N119	N	0.988985	-0.571945	0.095438
N120	N	0.943838	-0.520773	0.031162
H121	H	0.877336	-0.471717	0.034153
N122	N	1.070216	-0.668612	-0.176091
N123	N	1.074340	-0.597450	-0.192427
H124	H	1.094365	-0.599199	-0.252172
