data_functionalizedCrystal
_audit_creation_method	'MofGen! by Chris Wilmer'
_symmetry_space_group_name_H-M	'P1'
_symmetry_Int_Tables_number	1
_symmetry_cell_setting	triclinic
loop_
_symmetry_equiv_pos_as_xyz
  x,y,z
_cell_length_a	12.759395
_cell_length_b	16.625546
_cell_length_c	12.759387
_cell_angle_alpha	89.964440
_cell_angle_beta	89.979491
_cell_angle_gamma	90.024005
loop_
_atom_site_label
_atom_site_type_symbol
_atom_site_fract_x
_atom_site_fract_y
_atom_site_fract_z
Zn1	Zn	1.606212	-0.320926	-0.593970
Zn2	Zn	1.606079	-0.455781	-0.418276
Zn3	Zn	1.430510	-0.320970	-0.418307
Zn4	Zn	1.430479	-0.455724	-0.593915
O5	O	1.518320	-0.388350	-0.506117
O6	O	1.753215	-0.338820	-0.570674
O7	O	1.582747	-0.437941	-0.271259
O8	O	1.453886	-0.208132	-0.441645
O9	O	1.753118	-0.437898	-0.441592
O10	O	1.582974	-0.208099	-0.570704
O11	O	1.453757	-0.338895	-0.271282
O12	O	1.283485	-0.338840	-0.441592
O13	O	1.453833	-0.437800	-0.740944
O14	O	1.283462	-0.437843	-0.570610
O15	O	1.582943	-0.338765	-0.740984
O16	O	1.582716	-0.568606	-0.441539
O17	O	1.453704	-0.568564	-0.570580
C18	C	1.245352	-0.388341	-0.506099
C19	C	1.128576	-0.388356	-0.506116
C20	C	1.518220	-0.597841	-0.506073
C21	C	1.518274	-0.687462	-0.506090
C22	C	1.128590	-0.491615	-0.640246
C23	C	1.073737	-0.543250	-0.707314
C24	C	0.964015	-0.543260	-0.707327
C25	C	0.909144	-0.491627	-0.640267
C26	C	0.963998	-0.439991	-0.573199
C27	C	1.073722	-0.439989	-0.573191
C28	C	0.963984	-0.336730	-0.439076
C29	C	1.073705	-0.336723	-0.439056
C30	C	0.909113	-0.285096	-0.372016
C31	C	0.963967	-0.233463	-0.304942
C32	C	1.073695	-0.233456	-0.304931
C33	C	1.128559	-0.285087	-0.371989
C34	C	1.518457	-1.015638	-0.506199
C35	C	1.518403	-0.924329	-0.506171
C36	C	1.518365	-0.851553	-0.506144
C37	C	1.518312	-0.760239	-0.506117
C38	C	1.792353	-0.388361	-0.506136
C39	C	1.909130	-0.388365	-0.506144
C40	C	1.518399	-0.388271	-0.780151
C41	C	1.518433	-0.388238	-0.896928
C42	C	1.518448	-0.178041	-0.506184
C43	C	1.518503	-0.088420	-0.506213
C44	C	1.652885	-0.285119	-0.896990
C45	C	1.720126	-0.233547	-0.951881
C46	C	1.720151	-0.233518	-1.061603
C47	C	1.652927	-0.285064	-1.116435
C48	C	1.585686	-0.336635	-1.061544
C49	C	1.585670	-0.336661	-0.951819
C50	C	1.451230	-0.439749	-1.061482
C51	C	1.451209	-0.439784	-0.951760
C52	C	1.384006	-0.491295	-1.116314
C53	C	1.316769	-0.542872	-1.061422
C54	C	1.316747	-0.542900	-0.951694
C55	C	1.383968	-0.491355	-0.896868
C56	C	1.518301	-0.388371	-0.233150
C57	C	1.518471	-0.388177	-0.116374
H58	H	1.118424	-0.585288	-0.761914
C59	C	1.853062	-0.131594	-1.050655
C60	C	1.794063	-0.176832	-1.121946
H61	H	1.898695	-0.096603	-1.087911
H62	H	1.807304	-0.100756	-1.007868
H63	H	1.893214	-0.166746	-1.007848
H64	H	1.753905	-0.141680	-1.164749
H65	H	1.839827	-0.207672	-1.164751
H66	H	1.118350	-0.191402	-0.250323
C67	C	1.285686	-0.361757	-0.345002
C68	C	1.249166	-0.285082	-0.371976
H69	H	1.360145	-0.361754	-0.345003
H70	H	1.260831	-0.375623	-0.277176
H71	H	1.260861	-0.399891	-0.394547
H72	H	1.273985	-0.246948	-0.322426
H73	H	1.274032	-0.271206	-0.439811
C74	C	1.302118	-0.651290	-1.184775
C75	C	1.242883	-0.599528	-1.121692
H76	H	1.256502	-0.686271	-1.221979
H77	H	1.342152	-0.620567	-1.233161
H78	H	1.347860	-0.682147	-1.141960
H79	H	1.197146	-0.568666	-1.164508
H80	H	1.202831	-0.630254	-1.073300
C81	C	0.930218	-0.096882	-0.254107
C82	C	0.903651	-0.176713	-0.231239
H83	H	0.892972	-0.061848	-0.208608
H84	H	1.003404	-0.089494	-0.244488
H85	H	0.912276	-0.085161	-0.324733
H86	H	0.921599	-0.188436	-0.160615
H87	H	0.830448	-0.184104	-0.240848
C88	C	1.726065	-0.229024	-0.739846
C89	C	1.652864	-0.285154	-0.776382
H90	H	1.726047	-0.229043	-0.665387
H91	H	1.793846	-0.242974	-0.764673
H92	H	1.707934	-0.176985	-0.764687
H93	H	1.670999	-0.337194	-0.751547
H94	H	1.585068	-0.271209	-0.751544
H95	H	1.652945	-0.285028	-1.205777
C96	C	1.183858	-0.644836	-0.962664
C97	C	1.242845	-0.599599	-0.891361
H98	H	1.138242	-0.679846	-0.925418
H99	H	1.143698	-0.609690	-1.005455
H100	H	1.229633	-0.675661	-1.005466
H101	H	1.197070	-0.568769	-0.848564
H102	H	1.283008	-0.634750	-0.848552
H103	H	1.774857	-0.191578	-0.907225
C104	C	1.285698	-0.512063	-0.540217
C105	C	1.249198	-0.491611	-0.640220
H106	H	1.360157	-0.512067	-0.540205
H107	H	1.260871	-0.473923	-0.490699
H108	H	1.260833	-0.564079	-0.521935
H109	H	1.274057	-0.439593	-0.658499
H110	H	1.274036	-0.529753	-0.689754
H111	H	0.919353	-0.585302	-0.761944
C112	C	0.751978	-0.547860	-0.713312
C113	C	0.788537	-0.491636	-0.640282
H114	H	0.677519	-0.547867	-0.713313
H115	H	0.776833	-0.533975	-0.781131
H116	H	0.776775	-0.599870	-0.695007
H117	H	0.763745	-0.439625	-0.658591
H118	H	0.763671	-0.505516	-0.572447
C119	C	0.751975	-0.208437	-0.399010
C120	C	0.788505	-0.285108	-0.372032
H121	H	0.677517	-0.208449	-0.399023
H122	H	0.776785	-0.170303	-0.349472
H123	H	0.776838	-0.194569	-0.466843
H124	H	0.763648	-0.298974	-0.304195
H125	H	0.763685	-0.323254	-0.421572
C126	C	1.483882	-0.511951	-0.739710
C127	C	1.383956	-0.491380	-0.776260
H128	H	1.483877	-0.511957	-0.665252
H129	H	1.501998	-0.563977	-0.764506
H130	H	1.533537	-0.473858	-0.764574
H131	H	1.334302	-0.529476	-0.751404
H132	H	1.365827	-0.439346	-0.751454
H133	H	1.384028	-0.491264	-1.205655
