data_functionalizedCrystal
_audit_creation_method	'MofGen! by Chris Wilmer'
_symmetry_space_group_name_H-M	'P1'
_symmetry_Int_Tables_number	1
_symmetry_cell_setting	triclinic
loop_
_symmetry_equiv_pos_as_xyz
  x,y,z
_cell_length_a	19.851628
_cell_length_b	14.628931
_cell_length_c	14.628931
_cell_angle_alpha	89.999882
_cell_angle_beta	60.004190
_cell_angle_gamma	59.996392
loop_
_atom_site_label
_atom_site_type_symbol
_atom_site_fract_x
_atom_site_fract_y
_atom_site_fract_z
Zr1	Zr	0.737332	-0.120010	0.880688
O2	O	0.877864	-0.265980	0.734740
O3	O	0.596800	-0.075256	0.925419
O4	O	0.737332	-0.265971	0.925432
O5	O	0.737331	0.075167	0.734727
O6	O	0.737332	-0.265972	1.075864
O7	O	0.737332	-0.075265	0.734727
O8	O	0.485945	0.075183	1.075841
O9	O	0.988718	-0.265987	0.734750
O10	O	0.654602	-0.056177	1.056773
O11	O	0.654602	0.056089	0.944508
O12	O	0.820061	-0.168453	0.944523
O13	O	0.820061	-0.056187	0.832258
Zr14	Zr	0.737331	0.119911	1.120609
Zr15	Zr	0.737332	-0.120011	1.120609
Zr16	Zr	0.737331	0.119912	0.880688
Zr17	Zr	0.914131	-0.120022	0.880704
Zr18	Zr	0.560532	0.119923	1.120593
O19	O	0.877863	0.075157	1.075878
O20	O	0.877864	-0.265981	1.075877
O21	O	0.877863	0.075158	0.734740
O22	O	0.596799	0.265881	1.266557
O23	O	0.596800	-0.075257	1.266557
O24	O	0.596799	0.265882	0.925420
O25	O	0.737332	-0.075266	1.266570
O26	O	0.737331	0.265872	1.075865
O27	O	0.737331	0.265873	0.925433
O28	O	0.737331	0.075166	1.266570
O29	O	0.988718	-0.265988	0.925456
O30	O	0.485945	0.265888	1.075841
O31	O	0.485945	0.265888	1.266547
O32	O	0.485945	0.075182	1.266546
O33	O	0.988717	-0.075281	0.734751
O34	O	0.988717	-0.075282	0.925456
O35	O	0.654602	0.168354	1.056774
O36	O	0.654602	0.056088	1.169039
O37	O	0.820061	-0.056188	1.056789
O38	O	0.820060	0.056078	0.944524
C39	C	0.516182	-0.000035	1.000628
C40	C	0.441126	-0.000030	1.000620
C41	C	0.737331	-0.000049	0.700543
C42	C	0.737331	-0.000049	0.598690
C43	C	0.737331	0.300056	1.000649
C44	C	0.737330	0.401909	1.000649
C45	C	0.259767	0.061172	0.939428
C46	C	0.270106	-0.044394	0.895066
C47	C	0.303706	-0.000046	1.000638
C48	C	0.159652	0.105494	1.044966
C49	C	0.170962	-0.000052	1.000655
C50	C	0.315079	-0.105675	0.956215
C51	C	0.204580	0.044290	1.106174
C52	C	0.214952	-0.061339	1.061839
C53	C	0.380178	-0.000041	1.000626
C54	C	0.094497	-0.000068	1.000666
C55	C	0.958480	-0.000064	1.000670
C56	C	1.033536	-0.000069	1.000677
C57	C	0.737332	-0.300155	1.000648
C58	C	0.737332	-0.402008	1.000648
C59	C	0.819409	0.391622	0.944966
C60	C	0.819411	0.496891	0.944964
C61	C	0.737332	-0.078808	0.553281
C62	C	0.737332	-0.078810	0.448011
C63	C	0.737331	-0.000050	1.300754
C64	C	0.737331	-0.000050	1.402607
C65	C	0.516182	-0.000036	1.300733
C66	C	0.441126	-0.000031	1.402579
C67	C	0.516182	0.300070	1.000628
C68	C	0.441125	0.401928	1.000621
C69	C	0.516182	0.300070	1.300733
C70	C	0.441125	0.401927	1.402579
C71	C	0.958481	-0.300169	0.700564
C72	C	1.033537	-0.402027	0.598718
C73	C	0.958480	-0.000063	0.700564
C74	C	1.033536	-0.000068	0.598718
C75	C	0.958481	-0.300169	1.000669
C76	C	1.033537	-0.402027	1.000676
C77	C	0.405879	-0.058641	1.391805
C78	C	0.335366	-0.058659	1.487491
C79	C	0.300096	-0.000060	1.593949
C80	C	0.335350	0.058551	1.604721
C81	C	0.405867	0.058562	1.509036
C82	C	0.405878	0.508373	1.059219
C83	C	0.335365	0.604089	1.059208
C84	C	0.300095	0.593357	1.000605
C85	C	0.335349	0.486901	0.942000
C86	C	0.405866	0.391188	0.942005
C87	C	0.405878	0.391159	1.509019
C88	C	0.335365	0.486856	1.604723
C89	C	0.300095	0.593320	1.593985
C90	C	0.335349	0.604086	1.487535
C91	C	0.405866	0.508391	1.391833
C92	C	1.068793	-0.391258	0.492278
C93	C	1.139328	-0.486955	0.396574
C94	C	1.174602	-0.593419	0.407312
C95	C	1.139343	-0.604186	0.513762
C96	C	1.068814	-0.508490	0.609464
C97	C	1.068791	0.058532	0.609492
C98	C	1.139324	0.058523	0.513806
C99	C	1.174596	-0.000079	0.407348
C100	C	1.139339	-0.058685	0.396576
C101	C	1.068812	-0.058683	0.492261
C102	C	1.068785	-0.391259	1.059291
C103	C	1.139298	-0.486957	1.059319
C104	C	1.174569	-0.593421	1.000726
C105	C	1.139314	-0.604186	0.942109
C106	C	1.068797	-0.508490	0.942088
H107	H	0.279510	0.112862	0.887597
H108	H	0.306623	0.106259	1.691412
C109	C	0.737315	0.091057	0.545940
N110	N	0.737299	0.159684	0.506212
C111	C	0.444620	0.274100	0.877552
N112	N	0.473805	0.185910	0.829004
C113	C	0.737331	-0.169906	0.395258
N114	N	0.737329	-0.238522	0.355523
H115	H	0.434595	-0.106372	1.305130
H116	H	1.232023	-0.000071	0.329444
H117	H	1.167995	-0.478169	1.107050
C118	C	1.252179	-0.698678	0.302025
N119	N	1.310606	-0.777954	0.222719
C120	C	0.296591	-0.123126	1.475617
N121	N	0.267386	-0.171680	1.466670
H122	H	0.889681	0.488258	0.897296
C123	C	0.642396	0.519091	1.065118
N124	N	0.570889	0.607353	1.113702
C125	C	0.404783	-0.226313	0.905429
N126	N	0.472351	-0.317176	0.867172
H127	H	0.242676	0.671302	1.000610
H128	H	0.306668	0.478070	1.691391
C129	C	0.444667	0.520206	1.123685
N130	N	0.473883	0.529128	1.172237
H131	H	1.040110	-0.517271	0.696129
H132	H	0.737336	0.067379	0.441647
C133	C	0.222519	-0.000075	1.699195
N134	N	0.164084	-0.000085	1.778463
H135	H	0.434556	0.106295	1.517824
C136	C	1.178135	-0.123125	0.279461
N137	N	1.207352	-0.171650	0.191247
H138	H	1.040077	0.106260	0.696167
C139	C	0.296537	0.475114	0.877546
N140	N	0.267297	0.466240	0.829007
C141	C	0.444667	0.274057	1.520857
N142	N	0.473884	0.185858	1.529784
H143	H	0.093222	0.194751	1.082447
C144	C	0.222517	0.698579	1.699272
N145	N	0.164081	0.777855	1.778578
H146	H	0.306669	0.690761	1.106936
H147	H	0.667058	0.606633	1.048326
C148	C	1.030011	-0.274156	0.480440
N149	N	1.000810	-0.185957	0.471513
H150	H	0.434555	0.517174	1.305169
H151	H	0.306622	0.690782	1.478809
H152	H	0.195414	-0.113184	1.113598
C153	C	1.178086	0.123008	0.525680
N154	N	1.207277	0.171580	0.534627
H155	H	0.177628	0.081825	1.195398
C156	C	0.306521	-0.095058	0.774506
N157	N	0.333946	-0.133209	0.683700
H158	H	0.889678	0.304881	0.897289
C159	C	1.029996	-0.274158	1.123760
N160	N	1.000779	-0.185959	1.172328
H161	H	1.168024	-0.478168	0.309907
C162	C	1.252142	-0.698679	1.000758
N163	N	1.310572	-0.777956	1.000784
C164	C	0.737312	-0.169890	0.606056
N165	N	0.737291	-0.238492	0.645809
C166	C	1.178088	-0.721308	0.877707
N167	N	1.207286	-0.809526	0.829212
H168	H	1.168072	-0.690880	0.522492
C169	C	1.030045	-0.520354	0.877586
N170	N	1.000864	-0.529298	0.828996
H171	H	1.040110	-0.106398	0.483473
