data_functionalizedCrystal
_audit_creation_method	'MofGen! by Chris Wilmer'
_symmetry_space_group_name_H-M	'P1'
_symmetry_Int_Tables_number	1
_symmetry_cell_setting	triclinic
loop_
_symmetry_equiv_pos_as_xyz
  x,y,z
_cell_length_a	8.497374
_cell_length_b	18.215407
_cell_length_c	18.215399
_cell_angle_alpha	90.017368
_cell_angle_beta	89.988708
_cell_angle_gamma	90.001464
loop_
_atom_site_label
_atom_site_type_symbol
_atom_site_fract_x
_atom_site_fract_y
_atom_site_fract_z
Zn1	Zn	0.628180	1.125194	0.416153
Zn2	Zn	0.892002	1.125153	0.293122
Zn3	Zn	0.628218	1.002126	0.293105
Zn4	Zn	0.891900	1.002143	0.416152
O5	O	0.760075	1.063654	0.354633
O6	O	0.663203	1.228173	0.399840
O7	O	0.857068	1.108809	0.190136
O8	O	0.407450	1.018461	0.309421
O9	O	0.857032	1.228143	0.309450
O10	O	0.407422	1.108878	0.399823
O11	O	0.663267	1.018422	0.190123
O12	O	0.663169	0.899144	0.309421
O13	O	0.856859	1.018490	0.519137
O14	O	0.856895	0.899157	0.399823
O15	O	0.663104	1.108895	0.519137
O16	O	1.112750	1.108826	0.309449
O17	O	1.112676	1.018451	0.399839
C18	C	0.760026	0.872448	0.354620
C19	C	0.760043	0.790649	0.354632
C20	C	0.659325	0.602469	0.401773
C21	C	0.659338	0.525611	0.401775
C22	C	0.860869	0.525591	0.307507
C23	C	0.860846	0.602448	0.307501
C24	C	0.760077	0.640885	0.354638
C25	C	0.760113	0.487169	0.354646
C26	C	0.760128	0.403836	0.354649
C27	C	0.760059	0.724224	0.354635
C28	C	1.169955	1.063645	0.354644
C29	C	1.348599	1.063664	0.354632
C30	C	0.759966	1.063699	0.546586
C31	C	0.759920	1.063718	0.628385
C32	C	0.760125	1.255607	0.354647
C33	C	0.760146	1.337406	0.354652
C34	C	0.760069	1.063652	0.163427
C35	C	0.759671	1.063775	0.081628
C36	C	0.658938	1.110809	0.816580
C37	C	0.658892	1.110817	0.893439
C38	C	0.860658	1.016679	0.893428
C39	C	0.860695	1.016667	0.816570
C40	C	0.759837	1.063736	0.778149
C41	C	0.759754	1.063757	0.931865
C42	C	0.759705	1.063766	1.015198
C43	C	0.759883	1.063726	0.694810
H44	H	0.942892	0.633727	0.269114
C45	C	0.548521	0.483351	0.453628
C46	C	0.424586	0.430494	0.421831
C47	C	0.313765	0.388234	0.473687
C48	C	0.326879	0.398831	0.557339
C49	C	0.450819	0.451691	0.589140
C50	C	0.561640	0.493951	0.537284
H51	H	0.414873	0.422647	0.359903
H52	H	0.222016	0.349104	0.450145
H53	H	0.244843	0.367548	0.595725
H54	H	0.460532	0.459537	0.651068
H55	H	0.653389	0.533081	0.560826
H56	H	0.942914	0.494286	0.269130
H57	H	0.942858	0.978330	0.785278
C58	C	0.547903	1.162600	0.935713
C59	C	0.560805	1.246259	0.925161
C60	C	0.449808	1.298043	0.967434
C61	C	0.325909	1.266167	1.020260
C62	C	0.313001	1.182503	1.030815
C63	C	0.423998	1.130719	0.988542
H64	H	0.652527	1.269860	0.886054
H65	H	0.459364	1.359977	0.959620
H66	H	0.243742	1.304501	1.051553
H67	H	0.221279	1.158903	1.069922
H68	H	0.414443	1.068786	0.996355
H69	H	0.576808	1.149133	0.785300
C70	C	0.971634	0.964923	0.935693
C71	C	1.082637	0.913151	0.893417
C72	C	1.193632	0.861400	0.935681
C73	C	1.193623	0.861422	1.020221
C74	C	1.082615	0.913196	1.062502
C75	C	0.971621	0.964947	1.020238
H76	H	1.082648	0.913133	0.830831
H77	H	1.275807	0.823074	0.904381
H78	H	1.275788	0.823113	1.051507
H79	H	1.082605	0.913214	1.125088
H80	H	0.889445	1.003273	1.051538
H81	H	0.577266	0.633763	0.440152
