data_functionalizedCrystal
_audit_creation_method	'MofGen! by Chris Wilmer'
_symmetry_space_group_name_H-M	'P1'
_symmetry_Int_Tables_number	1
_symmetry_cell_setting	triclinic
loop_
_symmetry_equiv_pos_as_xyz
  x,y,z
_cell_length_a	10.654550
_cell_length_b	15.186229
_cell_length_c	16.109302
_cell_angle_alpha	90.003626
_cell_angle_beta	83.973497
_cell_angle_gamma	90.000116
loop_
_atom_site_label
_atom_site_type_symbol
_atom_site_fract_x
_atom_site_fract_y
_atom_site_fract_z
O1	O	1.666256	0.073163	0.116773
O2	O	2.166256	0.573163	0.616773
O3	O	1.300627	0.073179	0.127898
O4	O	1.800627	0.573179	0.627898
O5	O	1.493485	0.073165	0.001364
O6	O	1.993485	0.573165	0.501364
O7	O	1.473398	0.073177	0.243307
O8	O	1.973398	0.573177	0.743307
O9	O	1.493472	-0.073292	0.001363
O10	O	1.993472	0.426708	0.501363
O11	O	1.300614	-0.073278	0.127897
O12	O	1.800614	0.426722	0.627897
O13	O	1.666243	-0.073295	0.116771
O14	O	2.166243	0.426705	0.616771
Zn15	Zn	1.483426	-0.096540	0.122334
Zn16	Zn	1.983426	0.403460	0.622334
Zn17	Zn	1.483443	0.096424	0.122336
Zn18	Zn	1.983443	0.596424	0.622336
O19	O	1.473385	-0.073281	0.243305
O20	O	1.973385	0.426719	0.743305
C21	C	1.253833	-0.000048	0.127081
C22	C	1.753833	0.499952	0.627081
C23	C	1.114423	-0.000042	0.124637
C24	C	1.614423	0.499958	0.624637
N25	N	1.483424	-0.228232	0.122331
N26	N	1.983424	0.271768	0.622331
C27	C	1.033928	-0.000041	0.199138
C28	C	1.533928	0.499959	0.699138
C29	C	0.902938	-0.000056	0.196836
C30	C	1.402938	0.499944	0.696836
C31	C	0.932953	-0.000070	0.045526
C32	C	1.432953	0.499930	0.545526
C33	C	1.063940	-0.000061	0.047828
C34	C	1.563940	0.499939	0.547828
C35	C	1.568851	-0.453962	0.066321
C36	C	2.068851	0.046038	0.566321
C37	C	1.568855	-0.546151	0.066319
C38	C	2.068855	-0.046151	0.566319
C39	C	1.398020	-0.546148	0.178344
C40	C	1.898020	-0.046148	0.678344
C41	C	1.398011	-0.453960	0.178342
C42	C	1.898011	0.046040	0.678342
C43	C	1.483433	-0.407869	0.122331
C44	C	1.983433	0.092131	0.622331
C45	C	1.483446	-0.592247	0.122332
C46	C	1.983446	-0.092247	0.622332
C47	C	1.483450	-0.692203	0.122330
C48	C	1.983450	-0.192203	0.622330
C49	C	1.483429	-0.307907	0.122331
C50	C	1.983429	0.192093	0.622331
C51	C	1.713036	-0.000066	0.117589
C52	C	2.213036	0.499934	0.617589
C53	C	1.852447	-0.000066	0.120033
C54	C	2.352447	0.499934	0.620033
C55	C	1.492664	-0.000063	-0.029616
C56	C	1.992664	0.499937	0.470384
C57	C	1.490224	-0.000062	-0.121926
C58	C	1.990224	0.499938	0.378074
N59	N	1.483456	0.228117	0.122332
N60	N	1.983456	0.728117	0.622332
C61	C	1.474206	-0.000050	0.274286
C62	C	1.974206	0.499950	0.774286
C63	C	1.476646	-0.000046	0.366595
C64	C	1.976646	0.499954	0.866595
C65	C	1.482294	0.079782	0.578971
C66	C	1.982294	0.579782	1.078971
C67	C	1.484600	0.079780	0.665705
C68	C	1.984600	0.579780	1.165705
C69	C	1.484579	-0.079896	0.665692
C70	C	1.984579	0.420104	1.165692
C71	C	1.482283	-0.079893	0.578959
C72	C	1.982283	0.420107	1.078959
C73	C	1.481134	-0.000052	0.535601
C74	C	1.981134	0.499948	1.035601
C75	C	1.485736	-0.000056	0.709068
C76	C	1.985736	0.499944	1.209068
C77	C	1.488236	-0.000059	0.803109
C78	C	1.988236	0.499941	1.303109
C79	C	1.478636	-0.000049	0.441555
C80	C	1.978636	0.499951	0.941555
H81	H	1.075026	-0.000032	0.261680
H82	H	1.575026	0.499968	0.761680
H83	H	1.129483	-0.000064	-0.012843
H84	H	1.629483	0.499936	0.487157
C85	C	0.877408	-0.000083	-0.038959
C86	C	1.377408	0.499917	0.461041
N87	N	0.835573	-0.000089	-0.102594
N88	N	1.335573	0.499911	0.397406
H89	H	0.837403	-0.000057	0.257503
H90	H	1.337403	0.499943	0.757503
C91	C	1.485823	-0.167717	0.713395
C92	C	1.985823	0.332283	1.213395
N93	N	1.486752	-0.233865	0.749325
N94	N	1.986752	0.266135	1.249325
C95	C	1.481002	-0.167721	0.531250
C96	C	1.981002	0.332279	1.031250
N97	N	1.480039	-0.233870	0.495316
N98	N	1.980039	0.266130	0.995316
H99	H	1.328448	-0.416429	0.223952
H100	H	1.828448	0.083571	0.723952
C101	C	1.662807	-0.403265	0.004702
C102	C	2.162807	0.096735	0.504702
N103	N	1.733575	-0.365083	-0.041715
N104	N	2.233575	0.134917	0.458285
H105	H	1.638407	-0.583677	0.020710
H106	H	2.138407	-0.083677	0.520710
H107	H	1.481357	0.144794	0.543672
H108	H	1.981357	0.644794	1.043672
C109	C	1.304058	-0.596856	0.239951
C110	C	1.804058	-0.096856	0.739951
N111	N	1.233284	-0.635049	0.286354
N112	N	1.733284	-0.135049	0.786354
C113	C	1.485873	0.167603	0.713408
C114	C	1.985873	0.667603	1.213408
N115	N	1.486832	0.233755	0.749337
N116	N	1.986832	0.733755	1.249337
