data_functionalizedCrystal
_audit_creation_method	'MofGen! by Chris Wilmer'
_symmetry_space_group_name_H-M	'P1'
_symmetry_Int_Tables_number	1
_symmetry_cell_setting	triclinic
loop_
_symmetry_equiv_pos_as_xyz
  x,y,z
_cell_length_a	11.792241
_cell_length_b	17.666332
_cell_length_c	11.792241
_cell_angle_alpha	89.994673
_cell_angle_beta	95.806584
_cell_angle_gamma	90.005047
loop_
_atom_site_label
_atom_site_type_symbol
_atom_site_fract_x
_atom_site_fract_y
_atom_site_fract_z
O1	O	1.506917	0.062875	-0.155568
O2	O	2.006917	0.562875	0.344432
O3	O	1.176576	0.062893	-0.171601
O4	O	1.676576	0.562893	0.328399
O5	O	1.349762	0.062878	0.001586
O6	O	1.849762	0.562878	0.501586
O7	O	1.333730	0.062890	-0.328755
O8	O	1.833730	0.562890	0.171245
O9	O	1.349732	-0.063019	0.001592
O10	O	1.849732	0.436981	0.501592
O11	O	1.176545	-0.063004	-0.171595
O12	O	1.676545	0.436996	0.328405
O13	O	1.506886	-0.063022	-0.155562
O14	O	2.006886	0.436978	0.344438
Cu15	Cu	1.341712	-0.074508	-0.163578
Cu16	Cu	1.841712	0.425492	0.336422
Cu17	Cu	1.341749	0.074379	-0.163585
Cu18	Cu	1.841749	0.574379	0.336415
O19	O	1.333699	-0.063007	-0.328749
O20	O	1.833699	0.436993	0.171251
C21	C	1.134269	-0.000053	-0.170591
C22	C	1.634269	0.499947	0.329409
C23	C	1.008255	-0.000047	-0.167576
C24	C	1.508255	0.499953	0.332424
C25	C	0.777543	-0.000069	-0.162034
C26	C	1.277543	0.499931	0.337966
C27	C	0.905928	-0.000057	-0.165113
C28	C	1.405928	0.499943	0.334887
N29	N	1.341695	-0.179228	-0.163573
N30	N	1.841695	0.320772	0.336427
C31	C	1.410945	-0.218832	-0.232882
C32	C	1.910945	0.281168	0.267118
C33	C	1.410963	-0.298080	-0.232879
C34	C	1.910963	0.201920	0.267121
C35	C	1.341710	-0.337720	-0.163580
C36	C	1.841710	0.162280	0.336420
C37	C	1.272456	-0.298105	-0.094257
C38	C	1.772456	0.201895	0.405743
C39	C	1.272448	-0.218859	-0.094254
C40	C	1.772448	0.281141	0.405746
N41	N	1.242278	-0.462154	-0.159868
N42	N	1.742278	0.037846	0.340132
N43	N	1.242288	-0.537435	-0.159878
N44	N	1.742288	-0.037435	0.340122
C45	C	1.341731	-0.576484	-0.163584
C46	C	1.841731	-0.076484	0.336416
N47	N	1.441165	-0.537409	-0.167302
N48	N	1.941165	-0.037409	0.332698
N49	N	1.441153	-0.462121	-0.167299
N50	N	1.941153	0.037879	0.332701
C51	C	1.341712	-0.423649	-0.163575
C52	C	1.841712	0.076351	0.336425
C53	C	1.411007	-0.702018	-0.232893
C54	C	1.911007	-0.202018	0.267107
C55	C	1.411027	-0.781267	-0.232882
C56	C	1.911027	-0.281267	0.267118
C57	C	1.272509	-0.781291	-0.094267
C58	C	1.772509	-0.281291	0.405733
C59	C	1.272499	-0.702043	-0.094271
C60	C	1.772499	-0.202043	0.405729
C61	C	1.341746	-0.662412	-0.163591
C62	C	1.841746	-0.162412	0.336409
C63	C	1.549192	-0.000074	-0.156572
C64	C	2.049192	0.499926	0.343428
C65	C	1.675206	-0.000075	-0.159587
C66	C	2.175206	0.499925	0.340413
C67	C	1.348740	-0.000070	0.043880
C68	C	1.848740	0.499930	0.543880
C69	C	1.345726	-0.000069	0.169894
C70	C	1.845726	0.499931	0.669894
N71	N	1.341775	0.179099	-0.163581
N72	N	1.841775	0.679099	0.336419
C73	C	1.334721	-0.000057	-0.371043
C74	C	1.834721	0.499943	0.128957
C75	C	1.337736	-0.000053	-0.497057
C76	C	1.837736	0.499947	0.002943
C77	C	1.340183	-0.000056	0.400606
C78	C	1.840183	0.499944	0.900606
C79	C	1.343262	-0.000063	0.272221
C80	C	1.843262	0.499937	0.772221
H81	H	1.467336	-0.186569	-0.289323
H82	H	1.967336	0.313431	0.210677
F83	F	1.484673	-0.340239	-0.306649
F84	F	1.984673	0.159761	0.193351
F85	F	1.198755	-0.340294	-0.020501
F86	F	1.698755	0.159706	0.479499
H87	H	1.467427	-0.813512	-0.289318
H88	H	1.967427	-0.313512	0.210682
H89	H	1.216054	-0.186614	-0.037813
H90	H	1.716054	0.313386	0.462187
F91	F	1.198815	-0.823473	-0.020502
F92	F	1.698815	-0.323473	0.479498
F93	F	1.484724	-0.659836	-0.306648
F94	F	1.984724	-0.159836	0.193352
H95	H	1.216104	-0.669797	-0.037837
H96	H	1.716104	-0.169797	0.462163
