data_functionalizedCrystal
_audit_creation_method	'MofGen! by Chris Wilmer'
_symmetry_space_group_name_H-M	'P1'
_symmetry_Int_Tables_number	1
_symmetry_cell_setting	triclinic
loop_
_symmetry_equiv_pos_as_xyz
  x,y,z
_cell_length_a	6.817900
_cell_length_b	9.108949
_cell_length_c	12.200875
_cell_angle_alpha	98.159128
_cell_angle_beta	107.143593
_cell_angle_gamma	111.764586
loop_
_atom_site_label
_atom_site_type_symbol
_atom_site_fract_x
_atom_site_fract_y
_atom_site_fract_z
V1	V	-4.126530	-0.225760	-0.379892
V2	V	-3.793196	0.107573	-0.046559
V3	V	-3.459863	0.440906	0.286775
O4	O	-4.052340	0.010468	-0.349822
O5	O	-3.719007	0.343801	-0.016488
O6	O	-3.385674	0.677135	0.316845
O7	O	-4.134881	-0.447279	-0.399259
O8	O	-3.801548	-0.113945	-0.065926
O9	O	-3.468215	0.219388	0.267408
O10	O	-4.095400	-0.222455	-0.535555
O11	O	-3.762067	0.110878	-0.202221
O12	O	-3.428734	0.444212	0.131112
O13	O	-4.092094	-0.215912	-0.212583
O14	O	-3.758761	0.117421	0.120751
O15	O	-3.425428	0.450754	0.454084
V16	V	-4.600566	-0.197485	-0.357212
V17	V	-4.267233	0.135848	-0.023879
V18	V	-3.933899	0.469182	0.309455
O19	O	-4.408598	-0.287785	-0.429642
O20	O	-4.075264	0.045549	-0.096309
O21	O	-3.741931	0.378882	0.237025
O22	O	-4.768695	-0.135461	-0.307462
O23	O	-4.435362	0.197873	0.025871
O24	O	-4.102028	0.531206	0.359205
O25	O	-4.369008	0.024033	-0.337845
O26	O	-4.035675	0.357367	-0.004512
O27	O	-3.702341	0.690700	0.328822
O28	O	-4.792152	-0.433713	-0.387282
O29	O	-4.458819	-0.100380	-0.053949
O30	O	-4.125486	0.232953	0.279384
O31	O	-4.752398	-0.207333	-0.524521
O32	O	-4.419065	0.126000	-0.191188
O33	O	-4.085732	0.459334	0.142145
O34	O	-4.408489	-0.200791	-0.201549
O35	O	-4.075155	0.132543	0.131784
O36	O	-3.741822	0.465876	0.465117
C37	C	-3.993129	-0.501275	-0.398934
C38	C	-3.659796	-0.167942	-0.065601
C39	C	-3.326463	0.165392	0.267733
C40	C	-4.081360	-0.682370	-0.415806
C41	C	-3.748026	-0.349037	-0.082473
C42	C	-3.414693	-0.015704	0.250860
C43	C	-3.942766	-0.214488	-0.572791
C44	C	-3.609433	0.118846	-0.239458
C45	C	-3.276099	0.452179	0.093876
C46	C	-3.998973	-0.213251	-0.700190
C47	C	-3.665640	0.120083	-0.366857
C48	C	-3.332307	0.453416	-0.033524
C49	C	-4.101842	-0.210988	-0.933442
C50	C	-3.768508	0.122345	-0.600108
C51	C	-3.435175	0.455679	-0.266775
C52	C	-4.044590	-0.212246	-0.803644
C53	C	-3.711256	0.121087	-0.470310
C54	C	-3.377923	0.454420	-0.136977
C55	C	-4.174104	0.078021	-0.338168
C56	C	-3.840770	0.411354	-0.004834
C57	C	-3.507437	0.744688	0.328499
C58	C	-4.065113	0.259114	-0.321303
C59	C	-3.731780	0.592448	0.012030
C60	C	-3.398446	0.925781	0.345364
C61	C	-4.224466	-0.208763	-0.164308
C62	C	-3.891133	0.124570	0.169026
C63	C	-3.557799	0.457903	0.502359
C64	C	-4.147495	-0.209992	-0.036906
C65	C	-3.814161	0.123341	0.296427
C66	C	-3.480828	0.456675	0.629760
H67	H	-3.983711	-0.652432	-0.227484
H68	H	-3.650377	-0.319098	0.105849
H69	H	-3.317044	0.014235	0.439183
H70	H	-4.162771	-0.770815	-0.509619
H71	H	-3.829438	-0.437482	-0.176286
H72	H	-3.496104	-0.104149	0.157047
