data_functionalizedCrystal
_audit_creation_method	'MofGen! by Chris Wilmer'
_symmetry_space_group_name_H-M	'P1'
_symmetry_Int_Tables_number	1
_symmetry_cell_setting	triclinic
loop_
_symmetry_equiv_pos_as_xyz
  x,y,z
_cell_length_a	15.944551
_cell_length_b	15.944551
_cell_length_c	15.021413
_cell_angle_alpha	89.996935
_cell_angle_beta	89.997174
_cell_angle_gamma	96.501262
loop_
_atom_site_label
_atom_site_type_symbol
_atom_site_fract_x
_atom_site_fract_y
_atom_site_fract_z
O1	O	1.114529	-0.108321	-0.073941
O2	O	0.869979	-0.121677	-0.073964
O3	O	0.998932	0.007276	-0.073944
O4	O	0.985576	-0.237274	-0.073961
O5	O	0.998912	0.007257	0.074121
O6	O	0.869959	-0.121695	0.074101
O7	O	1.114508	-0.108339	0.074123
Zn8	Zn	0.992230	-0.115020	0.097620
Zn9	Zn	0.992257	-0.114996	-0.097461
O10	O	0.985555	-0.237292	0.074103
C11	C	0.838675	-0.121132	0.000066
C12	C	0.745429	-0.119470	0.000057
C13	C	0.530572	-0.035565	0.000081
C14	C	0.469562	-0.074518	-0.072926
C15	C	0.574703	-0.116462	0.000068
C16	C	0.469564	-0.074556	0.073054
C17	C	0.409790	-0.113551	0.000083
C18	C	0.514921	-0.155438	-0.072998
C19	C	0.514930	-0.155464	0.073047
C20	C	0.453937	-0.194476	0.000023
C21	C	0.669705	-0.118137	0.000059
C22	C	0.314789	-0.111883	0.000085
C23	C	0.998367	0.038561	0.000089
C24	C	0.996705	0.131807	0.000089
C25	C	1.145813	-0.108885	0.000092
C26	C	1.239059	-0.110547	0.000094
C27	C	0.986120	-0.268577	0.000069
C28	C	0.987782	-0.361823	0.000063
N29	N	0.992218	-0.115036	0.230758
C30	C	0.912801	0.346663	0.000069
C31	C	0.951753	0.407672	0.073077
C32	C	0.993698	0.302533	0.000082
C33	C	0.951792	0.407673	-0.072903
C34	C	0.990787	0.467445	0.000071
C35	C	1.032672	0.362313	0.073150
C36	C	1.032700	0.362308	-0.072895
C37	C	1.071711	0.423298	0.000131
C38	C	0.995372	0.207530	0.000089
C39	C	0.989119	0.562446	0.000070
N40	N	0.992276	-0.114973	-0.230598
C41	C	0.932581	-0.174636	0.470432
C42	C	1.008481	-0.190943	0.529772
C43	C	0.992239	-0.115015	0.412365
C44	C	0.916360	-0.098727	0.529766
C45	C	0.992253	-0.114997	0.587789
C46	C	1.068178	-0.131360	0.470398
C47	C	0.976006	-0.039111	0.470387
C48	C	1.051962	-0.055386	0.529701
C49	C	0.992230	-0.115028	0.311307
C50	C	0.992271	-0.114984	0.688844
H51	H	0.563905	0.031573	-0.000005
H52	H	1.066896	0.342185	-0.134615
O53	O	1.151944	0.462719	0.000232
C54	C	1.300395	0.446606	0.001030
C55	C	1.209577	0.401861	0.000927
H56	H	1.347017	0.397423	0.001573
H57	H	1.310526	0.488157	0.062724
H58	H	1.310875	0.487375	-0.061202
H59	H	1.199034	0.361049	0.063116
H60	H	1.199490	0.360362	-0.060809
O61	O	0.839730	-0.082394	0.560769
C62	C	0.690246	-0.126848	0.565852
C63	C	0.776974	-0.145425	0.530671
H64	H	0.639487	-0.177807	0.541548
H65	H	0.675846	-0.062663	0.540378
H66	H	0.691213	-0.126349	0.641737
H67	H	0.776072	-0.145970	0.454789
H68	H	0.791341	-0.209598	0.556213
O69	O	1.144806	-0.147750	0.439446
C70	C	1.294439	-0.103951	0.435233
C71	C	1.207721	-0.085269	0.470347
H72	H	1.345331	-0.053457	0.460218
H73	H	1.293828	-0.103809	0.359342
H74	H	1.308360	-0.168465	0.460195
H75	H	1.193746	-0.020754	0.445451
H76	H	1.208376	-0.085467	0.546237
H77	H	0.449461	-0.040295	-0.134642
H78	H	1.102474	-0.004956	0.555561
O79	O	1.073502	0.338611	0.146897
C80	C	1.146671	0.383489	0.282056
C81	C	1.100473	0.410451	0.198568
H82	H	1.168475	0.441554	0.323865
H83	H	1.203765	0.351127	0.261177
H84	H	1.101915	0.337806	0.322967
H85	H	1.145162	0.456160	0.157620
H86	H	1.043369	0.442766	0.219508
H87	H	0.917574	0.427758	-0.134630
H88	H	0.917528	0.427772	0.134794
H89	H	0.962240	0.025051	0.444283
H90	H	0.882181	-0.225096	0.444409
O91	O	1.024735	-0.267568	0.560857
C92	C	0.980269	-0.417052	0.565882
C93	C	0.961759	-0.330324	0.530642
H94	H	0.929375	-0.467816	0.541452
H95	H	0.980688	-0.416168	0.641770
H96	H	1.044494	-0.431384	0.540461
H97	H	0.897533	-0.315938	0.555996
H98	H	0.961396	-0.331252	0.454755
O99	O	0.445563	-0.033614	0.146595
C100	C	0.377602	0.082680	0.203824
C101	C	0.404751	0.036399	0.120473
H102	H	0.344585	0.139284	0.182735
H103	H	0.435640	0.105237	0.245360
H104	H	0.332428	0.037735	0.245092
H105	H	0.449906	0.081294	0.079136
H106	H	0.346675	0.013828	0.079004
H107	H	0.534918	-0.189621	-0.134787
O108	O	0.414410	-0.274665	-0.000184
C109	C	0.392740	-0.407865	-0.077317
C110	C	0.437544	-0.317069	-0.077199
H111	H	0.411441	-0.442181	-0.139567
H112	H	0.321467	-0.406070	-0.076783
H113	H	0.412189	-0.442580	-0.015644
H114	H	0.418163	-0.282301	-0.138861
H115	H	0.508808	-0.318925	-0.077687
H116	H	0.535052	-0.189659	0.134767
H117	H	0.845652	0.313356	0.000136
