data_functionalizedCrystal
_audit_creation_method	'MofGen! by Chris Wilmer'
_symmetry_space_group_name_H-M	'P1'
_symmetry_Int_Tables_number	1
_symmetry_cell_setting	triclinic
loop_
_symmetry_equiv_pos_as_xyz
  x,y,z
_cell_length_a	16.109301
_cell_length_b	16.109318
_cell_length_c	14.586319
_cell_angle_alpha	90.000075
_cell_angle_beta	89.994786
_cell_angle_gamma	83.465022
loop_
_atom_site_label
_atom_site_type_symbol
_atom_site_fract_x
_atom_site_fract_y
_atom_site_fract_z
O1	O	0.106935	1.103122	-0.076167
O2	O	0.120219	0.861062	-0.076186
O3	O	-0.007454	0.988741	-0.076167
O4	O	0.234607	0.975442	-0.076186
O5	O	-0.007456	0.988733	0.076314
O6	O	0.120217	0.861053	0.076295
O7	O	0.106933	1.103113	0.076314
Cu8	Cu	0.113575	0.982082	0.090227
Cu9	Cu	0.113577	0.982093	-0.090099
O10	O	0.234606	0.975433	0.076294
C11	C	0.119677	0.830083	0.000052
C12	C	0.118057	0.737788	0.000045
C13	C	0.112823	0.438719	-0.083055
C14	C	0.114340	0.525441	-0.083061
C15	C	0.114327	0.525450	0.083182
C16	C	0.112803	0.438731	0.083187
C17	C	0.112056	0.395367	0.000065
C18	C	0.115096	0.568807	0.000055
C19	C	0.116742	0.662835	0.000049
C20	C	0.110409	0.301334	0.000070
C21	C	-0.038430	0.988198	0.000074
C22	C	-0.130725	0.986583	0.000075
C23	C	-0.352993	1.058590	0.000067
C24	C	-0.439713	1.057066	0.000059
C25	C	-0.419848	0.905579	0.000051
C26	C	-0.333130	0.907104	0.000052
C27	C	-0.299704	0.983612	0.000064
C28	C	-0.473144	0.980563	0.000056
C29	C	-0.567170	0.978910	0.000047
C30	C	-0.205672	0.985265	0.000071
C31	C	0.265581	0.975976	0.000052
C32	C	0.357877	0.977592	0.000044
C33	C	0.107474	1.134092	0.000074
C34	C	0.109095	1.226387	0.000075
N35	N	0.113573	0.982081	0.217059
N36	N	0.113573	0.982100	-0.216931
C37	C	0.057058	1.038636	0.452074
C38	C	0.057056	1.038638	0.548055
C39	C	0.170090	0.925539	0.548047
C40	C	0.170087	0.925534	0.452068
C41	C	0.113572	0.982087	0.404084
C42	C	0.113573	0.982095	0.596044
C43	C	0.113571	0.982097	0.700111
C44	C	0.113573	0.982084	0.300010
H45	H	0.114937	0.560767	0.150856
Br46	Br	-0.019642	1.115385	0.386956
Br47	Br	-0.465217	0.801751	0.000031
H48	H	0.112178	0.403433	0.150877
Br49	Br	-0.019648	1.115383	0.613183
Br50	Br	0.246787	0.848793	0.613172
Br51	Br	0.246784	0.848776	0.386931
H52	H	0.114964	0.560734	-0.150746
H53	H	0.112213	0.403415	-0.150738
H54	H	-0.483098	1.118121	0.000059
Br55	Br	-0.307632	1.162422	0.000084
Br56	Br	-0.260803	0.805340	0.000036
