data_functionalizedCrystal
_audit_creation_method	'MofGen! by Chris Wilmer'
_symmetry_space_group_name_H-M	'P1'
_symmetry_Int_Tables_number	1
_symmetry_cell_setting	triclinic
loop_
_symmetry_equiv_pos_as_xyz
  x,y,z
_cell_length_a	17.699104
_cell_length_b	12.811415
_cell_length_c	16.776229
_cell_angle_alpha	84.562504
_cell_angle_beta	89.991971
_cell_angle_gamma	83.669063
loop_
_atom_site_label
_atom_site_type_symbol
_atom_site_fract_x
_atom_site_fract_y
_atom_site_fract_z
O1	O	1.004664	0.132836	-0.075905
O2	O	0.784365	0.150082	-0.077150
O3	O	0.900056	-0.011348	-0.065478
O4	O	0.888973	0.294266	-0.087577
O5	O	0.900040	-0.011357	0.067099
O6	O	0.784349	0.150072	0.055427
O7	O	1.004648	0.132826	0.056672
Zn8	Zn	0.894496	0.141448	0.077099
Zn9	Zn	0.894517	0.141461	-0.097577
O10	O	0.888957	0.294256	0.045000
C11	C	0.756158	0.149455	-0.010816
C12	C	0.672132	0.147590	-0.010680
C13	C	0.147638	0.231828	-0.016780
C14	C	0.226590	0.233574	-0.016909
C15	C	0.274783	0.138809	-0.010056
C16	C	0.244021	0.042291	-0.003082
C17	C	0.165070	0.040546	-0.002959
C18	C	0.562418	0.049326	-0.003578
C19	C	0.641373	0.051079	-0.003699
C20	C	0.623938	0.242354	-0.017527
C21	C	0.544988	0.240610	-0.017405
C22	C	0.514232	0.144093	-0.010435
C23	C	0.428624	0.142200	-0.010297
C24	C	0.360390	0.140700	-0.010188
C25	C	0.899427	-0.050455	0.003636
C26	C	0.897566	-0.166969	0.012057
C27	C	0.894073	-0.385889	-0.116673
C28	C	0.892325	-0.495365	-0.108765
C29	C	0.892316	-0.495396	0.035779
C30	C	0.894064	-0.385921	0.027871
C31	C	0.894944	-0.331172	-0.048357
C32	C	0.896697	-0.221695	-0.056264
C33	C	0.896683	-0.221728	0.088280
C34	C	0.894935	-0.331203	0.096187
C35	C	1.032856	0.133453	-0.009664
C36	C	1.116881	0.135318	-0.009805
C37	C	0.889586	0.333364	-0.024116
C38	C	0.891447	0.449878	-0.032542
N39	N	0.894488	0.141438	0.196311
N40	N	0.894531	0.141462	-0.216788
C41	C	0.945732	0.069986	0.243194
C42	C	0.945736	0.069985	0.326647
C43	C	0.894499	0.141442	0.363214
C44	C	0.843250	0.212897	0.316324
C45	C	0.843243	0.212892	0.232874
C46	C	0.843278	0.212918	0.652870
C47	C	0.843290	0.212919	0.736326
C48	C	0.945771	0.070011	0.746643
C49	C	0.945763	0.070006	0.663192
C50	C	0.894512	0.141457	0.616311
C51	C	0.894507	0.141456	0.525822
C52	C	0.894507	0.141449	0.453700
H53	H	0.505752	0.317777	-0.022981
O54	O	0.688221	-0.040954	0.003090
C55	C	0.734412	-0.045669	0.072085
H56	H	0.705663	0.008063	0.116196
H57	H	0.743017	-0.130243	0.101240
H58	H	0.791906	-0.018640	0.054614
H59	H	0.894796	-0.341313	-0.178741
H60	H	0.648988	0.320944	-0.023206
O61	O	0.995596	0.000549	0.372067
C62	C	1.040811	-0.062528	0.321898
H63	H	1.041783	-0.019500	0.259295
H64	H	1.101205	-0.078617	0.347156
H65	H	1.016007	-0.140472	0.318676
H66	H	0.537387	-0.029263	0.002099
O67	O	0.256494	0.327305	-0.023839
C68	C	0.301652	0.334027	-0.092987
H69	H	0.282815	0.279209	-0.137001
H70	H	0.294824	0.418629	-0.122168
H71	H	0.363831	0.309679	-0.075710
O72	O	0.897430	-0.168676	0.154707
C73	C	0.831525	-0.183362	0.199736
H74	H	0.808421	-0.258821	0.184637
H75	H	0.846193	-0.189842	0.266315
H76	H	0.786669	-0.113303	0.184669
O77	O	0.100796	0.323857	-0.023295
C78	C	0.054581	0.328560	0.045015
H79	H	0.083309	0.274811	0.096896
H80	H	0.045975	0.413128	0.061945
H81	H	-0.002911	0.301546	0.031442
H82	H	0.897416	-0.177120	-0.118333
O83	O	0.290941	-0.049668	0.003603
C84	C	0.367221	-0.027436	0.001981
H85	H	0.370509	0.054995	0.021121
H86	H	0.402784	-0.087856	0.044843
H87	H	0.390051	-0.031469	-0.061329
O88	O	0.995549	0.000695	0.207614
C89	C	1.042402	0.056785	0.155229
H90	H	1.043991	0.139552	0.174383
H91	H	1.102407	0.013813	0.157346
H92	H	1.018698	0.062345	0.091599
O93	O	0.135316	-0.053296	0.003859
C94	C	0.194780	-0.136565	0.009861
H95	H	0.248498	-0.107288	0.032850
H96	H	0.178056	-0.203966	0.053220
H97	H	0.205868	-0.165777	-0.051631
O98	O	0.891507	-0.548361	-0.175210
C99	C	0.892632	-0.476552	-0.244183
H100	H	0.917818	-0.402928	-0.228320
H101	H	0.928819	-0.514927	-0.291966
H102	H	0.832170	-0.453736	-0.268036
H103	H	0.894216	-0.375795	0.158250
O104	O	0.995373	0.000396	0.627664
C105	C	0.954530	-0.064292	0.584198
H106	H	0.895495	-0.022250	0.568605
H107	H	0.986054	-0.081198	0.526756
H108	H	0.949016	-0.141737	0.622082
O109	O	0.891370	-0.548700	0.109773
C110	C	0.824885	-0.599968	0.117818
H111	H	0.802786	-0.612314	0.055967
H112	H	0.838390	-0.679680	0.154141
H113	H	0.779719	-0.549369	0.149852
O114	O	0.995480	0.000633	0.792306
C115	C	0.984514	0.015968	0.873803
H116	H	0.924467	0.055291	0.882371
H117	H	0.992693	-0.063534	0.911269
H118	H	1.027515	0.068545	0.893668
H119	H	0.801565	0.271110	0.766097
O120	O	0.793495	0.282202	0.187212
C121	C	0.804486	0.266893	0.105715
H122	H	0.832512	0.183397	0.100357
H123	H	0.747206	0.278660	0.073162
H124	H	0.842626	0.326240	0.077726
H125	H	0.801529	0.271075	0.346102
O126	O	0.793470	0.282429	0.607452
C127	C	0.748241	0.345482	0.657626
H128	H	0.779283	0.346617	0.717020
H129	H	0.736952	0.429323	0.627450
H130	H	0.691916	0.311492	0.668981
