data_functionalizedCrystal
_audit_creation_method	'MofGen! by Chris Wilmer'
_symmetry_space_group_name_H-M	'P1'
_symmetry_Int_Tables_number	1
_symmetry_cell_setting	triclinic
loop_
_symmetry_equiv_pos_as_xyz
  x,y,z
_cell_length_a	23.096457
_cell_length_b	14.628931
_cell_length_c	14.628931
_cell_angle_alpha	60.000000
_cell_angle_beta	89.998103
_cell_angle_gamma	59.998215
loop_
_atom_site_label
_atom_site_type_symbol
_atom_site_fract_x
_atom_site_fract_y
_atom_site_fract_z
Zr1	Zr	0.557777	1.000557	-0.119981
O2	O	0.465327	1.191266	-0.265938
O3	O	0.586118	0.809851	-0.075237
O4	O	0.586118	1.000556	-0.265942
O5	O	0.465326	1.000561	0.075199
O6	O	0.681400	1.000552	-0.265945
O7	O	0.465327	1.000561	-0.075233
O8	O	0.681400	0.659416	0.075192
O9	O	0.465327	1.341698	-0.265939
O10	O	0.669313	0.888288	-0.056156
O11	O	0.598205	0.888291	0.056111
O12	O	0.598205	1.112821	-0.168420
O13	O	0.527097	1.112824	-0.056152
Zr14	Zr	0.709741	1.000552	0.119935
Zr15	Zr	0.709741	1.000551	-0.119986
Zr16	Zr	0.557777	1.000558	0.119940
Zr17	Zr	0.557777	1.240479	-0.119981
Zr18	Zr	0.709741	0.760631	0.119936
O19	O	0.681400	1.191259	0.075191
O20	O	0.681401	1.191258	-0.265946
O21	O	0.465327	1.191267	0.075199
O22	O	0.802191	0.809844	0.265893
O23	O	0.802191	0.809843	-0.075244
O24	O	0.586117	0.809852	0.265900
O25	O	0.802192	1.000548	-0.075244
O26	O	0.681400	1.000554	0.265897
O27	O	0.586118	1.000557	0.265900
O28	O	0.802191	1.000549	0.075188
O29	O	0.586118	1.341693	-0.265943
O30	O	0.681400	0.659416	0.265897
O31	O	0.802191	0.659412	0.265893
O32	O	0.802191	0.659411	0.075188
O33	O	0.465327	1.341698	-0.075233
O34	O	0.586118	1.341694	-0.075237
O35	O	0.669313	0.888288	0.168375
O36	O	0.740421	0.888285	0.056107
O37	O	0.669313	1.112819	-0.056157
O38	O	0.598205	1.112822	0.056111
C39	C	0.633759	0.700449	-0.000022
C40	C	0.633759	0.598596	-0.000022
C41	C	0.443675	1.000562	-0.000016
C42	C	0.379162	1.000564	-0.000014
C43	C	0.669033	0.553186	-0.055714
C44	C	0.669034	0.447915	-0.055716
C45	C	0.348859	1.000573	-0.082894
C46	C	0.288247	1.000562	-0.082893
C47	C	0.257932	1.000567	-0.000022
C48	C	0.288244	1.000550	0.082872
C49	C	0.348859	1.000549	0.082876
N50	N	0.139580	1.073755	0.025067
N51	N	0.081997	1.073759	0.025056
C52	C	0.075302	1.000567	-0.000028
N53	N	0.128361	0.927388	-0.025122
N54	N	0.185947	0.927390	-0.025117
C55	C	0.192205	1.000567	-0.000017
C56	C	-0.020723	1.000562	-0.082912
C57	C	-0.081333	1.000542	-0.082904
C58	C	-0.081339	1.000544	0.082857
C59	C	-0.020726	1.000551	0.082853
C60	C	0.009577	1.000566	-0.000037
C61	C	0.823843	1.000548	-0.000029
C62	C	0.888356	1.000545	-0.000031
C63	C	0.633759	1.000554	-0.300127
C64	C	0.633759	1.000554	-0.401980
C65	C	0.633759	1.300660	-0.000023
C66	C	0.633759	1.402513	-0.000023
C67	C	0.598485	1.111937	-0.503080
C68	C	0.598484	1.111940	-0.608351
C69	C	0.633759	1.000556	0.300082
C70	C	0.633759	1.000556	0.401935
C71	C	0.823843	0.700442	-0.000029
C72	C	0.888356	0.598587	-0.000031
C73	C	0.633758	0.700450	0.300083
C74	C	0.633758	0.598598	0.401936
C75	C	0.823843	0.700443	0.300076
C76	C	0.888355	0.598588	0.401927
C77	C	0.443675	1.300666	-0.300122
C78	C	0.379163	1.402521	-0.401972
C79	C	0.443675	1.300667	-0.000017
C80	C	0.379162	1.402522	-0.000015
C81	C	0.633760	1.300659	-0.300128
C82	C	0.633760	1.402512	-0.401981
C83	C	0.881534	0.550756	-0.058642
C84	C	0.942145	0.455065	-0.058666
C85	C	1.009576	0.407201	-0.000072
C86	C	1.016397	0.455041	0.058541
C87	C	0.955787	0.550737	0.058558
C88	C	0.955775	0.550754	0.391155
C89	C	1.016398	0.455064	0.486845
C90	C	1.009598	0.407203	0.593307
C91	C	0.942171	0.455046	0.604077
C92	C	0.881551	0.550741	0.508388
C93	C	0.311743	1.450367	-0.391200
C94	C	0.251121	1.546087	-0.486890
C95	C	0.257920	1.593953	-0.593352
C96	C	0.325347	1.546104	-0.604123
C97	C	0.385968	1.450392	-0.508433
C98	C	0.385984	1.450364	0.058586
C99	C	0.325373	1.546081	0.058584
C100	C	0.257942	1.593948	-0.000013
C101	C	0.251121	1.546103	-0.058622
C102	C	0.311731	1.450394	-0.058625
C103	C	0.669033	0.553187	0.503035
C104	C	0.669033	0.447917	0.608307
H105	H	0.699236	0.592236	-0.103390
O106	O	0.305220	1.403906	-0.287729
C107	C	0.338054	1.427312	-0.228882
H108	H	0.379366	1.439212	-0.265430
H109	H	0.364968	1.342309	-0.136782
H110	H	0.296382	1.519339	-0.236846
H111	H	0.208553	1.671887	-0.671260
H112	H	0.196225	1.585030	-0.478099
O113	O	0.597667	0.552193	0.391441
C114	C	0.564884	0.614830	0.277000
H115	H	0.557496	0.711863	0.225866
H116	H	0.510982	0.631246	0.263765
H117	H	0.599666	0.552031	0.248828
H118	H	1.058965	0.329281	0.671214
O119	O	0.935666	0.408559	0.707559
C120	C	0.968498	0.431969	0.766406
H121	H	1.009790	0.443919	0.729831
H122	H	0.995434	0.346945	0.858498
H123	H	0.926820	0.523969	0.758475
O124	O	0.705054	0.401152	-0.112502
C125	C	0.697026	0.306471	-0.099876
H126	H	0.683348	0.264709	-0.020717
H127	H	0.748669	0.225889	-0.093131
H128	H	0.652571	0.352251	-0.175570
O129	O	0.705012	0.401561	0.711710
C130	C	0.677719	0.503619	0.724071
H131	H	0.650576	0.599386	0.637957
H132	H	0.722894	0.489089	0.774506
H133	H	0.637619	0.504910	0.769747
H134	H	0.373532	1.000541	0.150368
H135	H	0.936577	0.416125	-0.106395
H136	H	1.058923	0.329278	-0.000094
H137	H	0.699229	0.592249	0.511654
O138	O	0.597676	0.449311	0.056701
C139	C	0.545599	0.583411	-0.018587
H140	H	0.561208	0.623907	-0.095734
H141	H	0.541143	0.633045	0.023863
H142	H	0.492338	0.601717	-0.044769
O143	O	1.081955	0.408351	0.115445
C144	C	1.133980	0.313651	0.102833
H145	H	1.110341	0.271830	0.081238
H146	H	1.180726	0.233115	0.184395
H147	H	1.152943	0.359430	0.032673
O148	O	0.962545	0.597002	0.115606
C149	C	1.035061	0.534245	0.167293
H150	H	1.067376	0.437257	0.178867
H151	H	1.043523	0.517723	0.252432
H152	H	1.052922	0.597008	0.112377
H153	H	0.603561	0.441555	0.511295
H154	H	0.603561	0.559537	0.047660
O155	O	0.008793	1.000621	-0.163367
C156	C	0.068799	1.000598	-0.145582
H157	H	0.064181	1.041307	-0.094710
H158	H	0.072066	1.063024	-0.229724
H159	H	0.118671	0.897446	-0.097935
H160	H	0.961325	0.589709	0.304476
O161	O	0.562517	1.225594	-0.711898
C162	C	0.570514	1.200294	-0.793954
H163	H	0.620652	1.099538	-0.756559
H164	H	0.574788	1.275081	-0.867786
H165	H	0.522570	1.205806	-0.823869
O166	O	0.451499	1.403695	-0.518752
C167	C	0.488783	1.269603	-0.466942
H168	H	0.465642	1.228998	-0.401719
H169	H	0.547118	1.220021	-0.424457
H170	H	0.483738	1.251360	-0.532752
O171	O	0.815982	0.597346	-0.115472
C172	C	0.763938	0.692095	-0.102926
H173	H	0.787556	0.676373	-0.023771
H174	H	0.717194	0.684331	-0.096224
H175	H	0.744981	0.792194	-0.178636
H176	H	0.373532	1.000581	-0.150385
O177	O	1.081850	0.408827	0.476216
C178	C	1.089606	0.510969	0.417175
H179	H	1.035033	0.606695	0.364380
H180	H	1.121470	0.496554	0.360262
H181	H	1.118586	0.512255	0.479138
H182	H	0.263559	1.000551	0.150348
O183	O	0.816098	0.597211	0.519004
C184	C	0.808323	0.652589	0.578022
H185	H	0.862889	0.609378	0.630818
H186	H	0.776457	0.631573	0.634932
H187	H	0.779336	0.761594	0.516043
O188	O	0.258873	1.000631	-0.163518
C189	C	0.298630	1.000605	-0.236657
H190	H	0.328949	1.041306	-0.232710
H191	H	0.261345	1.063038	-0.325832
H192	H	0.337743	0.897454	-0.210573
H193	H	-0.106004	1.000542	-0.150392
H194	H	-0.106019	1.000540	0.150336
H195	H	0.003946	1.000551	0.150338
O196	O	0.331819	1.592702	-0.707627
C197	C	0.263852	1.687454	-0.789761
H198	H	0.223682	1.671733	-0.752439
H199	H	0.264502	1.679695	-0.863564
H200	H	0.248411	1.787552	-0.819698
O201	O	0.451430	1.404057	0.115532
C202	C	0.444439	1.466802	0.167268
H203	H	0.390349	1.563807	0.121298
H204	H	0.487914	1.483288	0.164114
H205	H	0.449402	1.404049	0.258227
H206	H	0.568289	1.207295	-0.511699
H207	H	0.330941	1.585020	0.106315
O208	O	0.199122	1.687038	-0.000037
C209	C	0.199238	1.797749	-0.046652
H210	H	0.255845	1.768832	-0.038702
H211	H	0.176953	1.844051	-0.000117
H212	H	0.165009	1.869884	-0.138829
H213	H	0.663956	0.905191	-0.511339
O214	O	0.185563	1.592704	-0.115436
C215	C	0.133538	1.687453	-0.102874
H216	H	0.157177	1.671727	-0.023730
H217	H	0.086792	1.679694	-0.096140
H218	H	0.114575	1.787552	-0.178591
O219	O	0.305061	1.403795	-0.115397
C220	C	0.267643	1.348493	-0.072308
H221	H	0.272710	1.319769	0.017017
H222	H	0.290652	1.259127	-0.072458
H223	H	0.209312	1.421862	-0.126640
H224	H	0.663960	0.905196	-0.393361
