data_functionalizedCrystal
_audit_creation_method	'MofGen! by Chris Wilmer'
_symmetry_space_group_name_H-M	'P1'
_symmetry_Int_Tables_number	1
_symmetry_cell_setting	triclinic
loop_
_symmetry_equiv_pos_as_xyz
  x,y,z
_cell_length_a	14.908941
_cell_length_b	14.908579
_cell_length_c	14.908294
_cell_angle_alpha	83.636631
_cell_angle_beta	83.630300
_cell_angle_gamma	96.420196
loop_
_atom_site_label
_atom_site_type_symbol
_atom_site_fract_x
_atom_site_fract_y
_atom_site_fract_z
Zn1	Zn	-1.335348	0.308090	-0.450950
Zn2	Zn	-0.835348	0.808090	0.049050
Zn3	Zn	-1.335242	0.450742	-0.308334
Zn4	Zn	-0.835242	0.950742	0.191666
Zn5	Zn	-1.192720	0.308128	-0.308327
Zn6	Zn	-0.692720	0.808128	0.191673
Zn7	Zn	-1.174075	0.469286	-0.469496
Zn8	Zn	-0.674075	0.969286	0.030504
O9	O	-1.259346	0.384062	-0.384277
O10	O	-0.759346	0.884062	0.115723
O11	O	-1.462473	0.319237	-0.424273
O12	O	-0.962473	0.819237	0.075727
O13	O	-1.324095	0.424079	-0.181197
O14	O	-0.824095	0.924079	0.318803
O15	O	-1.219487	0.180977	-0.319482
O16	O	-0.719487	0.680977	0.180518
O17	O	-1.462395	0.424042	-0.319493
O18	O	-0.962395	0.924042	0.180507
O19	O	-1.324275	0.180949	-0.424267
O20	O	-0.824275	0.680949	0.075733
O21	O	-1.219385	0.319301	-0.181193
O22	O	-0.719385	0.819301	0.318807
O23	O	-1.063108	0.337282	-0.337465
O24	O	-0.563108	0.837282	0.162535
O25	O	-1.187710	0.455648	-0.594171
O26	O	-0.687710	0.955648	-0.094171
O27	O	-1.049410	0.455685	-0.455875
O28	O	-0.549410	0.955685	0.044125
O29	O	-1.306196	0.337218	-0.580546
O30	O	-0.806196	0.837218	-0.080546
O31	O	-1.306016	0.580348	-0.337476
O32	O	-0.806016	1.080348	0.162524
O33	O	-1.187607	0.593972	-0.455882
O34	O	-0.687607	1.093972	0.044118
C35	C	-1.023293	0.398501	-0.398683
C36	C	-0.523293	0.898501	0.101317
C37	C	-0.922306	0.404701	-0.404868
C38	C	-0.422306	0.904701	0.095132
C39	C	-0.746753	0.292895	-0.293343
C40	C	-0.246753	0.792895	0.206657
C41	C	-0.651867	0.298717	-0.299152
C42	C	-0.151867	0.798717	0.200848
C43	C	-0.637645	0.422172	-0.422290
C44	C	-0.137645	0.922172	0.077710
C45	C	-0.732532	0.416350	-0.416481
C46	C	-0.232532	0.916350	0.083519
C47	C	-0.787082	0.351708	-0.352006
C48	C	-0.287082	0.851708	0.147994
C49	C	-0.881970	0.345882	-0.346202
C50	C	-0.381970	0.845882	0.153798
C51	C	-0.867747	0.469340	-0.469335
C52	C	-0.367747	0.969340	0.030665
C53	C	-0.772861	0.475163	-0.475144
C54	C	-0.272861	0.975163	0.024856
C55	C	-1.244800	0.620127	-0.398710
C56	C	-0.744800	1.120127	0.101290
C57	C	-1.238658	0.721113	-0.404910
C58	C	-0.738658	1.221113	0.095090
C59	C	-0.496322	0.369557	-0.369808
C60	C	0.003678	0.869557	0.130192
C61	C	-0.597310	0.363353	-0.363624
C62	C	-0.097310	0.863353	0.136376
C63	C	-1.350530	0.896628	-0.293352
C64	C	-0.850530	1.396628	0.206648
C65	C	-1.344763	0.991514	-0.299174
C66	C	-0.844763	1.491514	0.200826
C67	C	-1.221361	1.005772	-0.422381
C68	C	-0.721361	1.505772	0.077619
C69	C	-1.227129	0.910886	-0.416559
C70	C	-0.727129	1.410886	0.083441
C71	C	-1.291714	0.856317	-0.352041
C72	C	-0.791714	1.356317	0.147959
C73	C	-1.297477	0.761430	-0.346215
C74	C	-0.797477	1.261430	0.153785
C75	C	-1.174080	0.775690	-0.469426
C76	C	-0.674080	1.275690	0.030574
C77	C	-1.168313	0.870575	-0.475248
C78	C	-0.668313	1.370575	0.024752
C79	C	-1.244885	0.398498	-0.621245
C80	C	-0.744885	0.898498	-0.121245
C81	C	-1.238723	0.404649	-0.722227
C82	C	-0.738723	0.904649	-0.222227
C83	C	-1.273966	1.147075	-0.369817
C84	C	-0.773966	1.647075	0.130183
C85	C	-1.280179	1.046088	-0.363686
C86	C	-0.780179	1.546088	0.136314
C87	C	-1.168350	0.474969	-0.871651
C88	C	-0.668350	0.974969	-0.371651
C89	C	-1.174139	0.469196	-0.776770
C90	C	-0.674139	0.969196	-0.276770
C91	C	-1.297521	0.345870	-0.762571
C92	C	-0.797521	0.845870	-0.262571
C93	C	-1.291733	0.351644	-0.857452
C94	C	-0.791733	0.851644	-0.357452
C95	C	-1.227146	0.416196	-0.911989
C96	C	-0.727146	0.916196	-0.411989
C97	C	-1.221363	0.421973	-1.006871
C98	C	-0.721363	0.921973	-0.506871
C99	C	-1.344741	0.298645	-0.992671
C100	C	-0.844741	0.798645	-0.492671
C101	C	-1.350529	0.292871	-0.897790
C102	C	-0.850529	0.792871	-0.397790
C103	C	-1.273808	0.369613	-0.148223
C104	C	-0.773808	0.869613	0.351777
C105	C	-1.280162	0.363194	-0.047215
C106	C	-0.780162	0.863194	0.452785
H107	H	-0.728433	0.527795	-0.527635
H108	H	-0.228433	1.027795	-0.027635
F109	F	-1.419248	0.224159	-0.839739
F110	F	-0.919248	0.724159	-0.339739
H111	H	-1.392619	0.250789	-1.025524
H112	H	-0.892619	0.750789	-0.525524
F113	F	-0.910675	0.531924	-0.531787
F114	F	-0.410675	1.031924	-0.031787
H115	H	-1.350063	0.717001	-0.293679
H116	H	-0.850063	1.217001	0.206321
F117	F	-1.419255	0.838550	-0.224678
F118	F	-0.919255	1.338550	0.275322
H119	H	-1.115731	0.915018	-0.527779
H120	H	-0.615731	1.415018	-0.027779
F121	F	-1.111558	0.531748	-0.733842
F122	F	-0.611558	1.031748	-0.233842
F123	F	-0.940026	0.277083	-0.277586
F124	F	-0.440026	0.777083	0.222414
H125	H	-1.115767	0.527535	-0.916055
H126	H	-0.615767	1.027535	-0.416055
F127	F	-0.804812	0.224093	-0.224732
F128	F	-0.304812	0.724093	0.275268
F129	F	-1.152640	1.063862	-0.491049
F130	F	-0.652640	1.563862	0.008951
F131	F	-1.111471	0.732782	-0.531882
F132	F	-0.611471	1.232782	-0.031882
F133	F	-1.407364	1.034412	-0.236711
F134	F	-0.907364	1.534412	0.263289
H135	H	-0.619035	0.250825	-0.251383
H136	H	-0.119035	0.750825	0.248617
H137	H	-1.168775	0.474537	-1.051274
H138	H	-0.668775	0.974537	-0.551274
F139	F	-1.366212	0.277134	-0.704515
F140	F	-0.866212	0.777134	-0.204515
H141	H	-0.593214	0.474808	-0.474774
H142	H	-0.093214	0.974808	0.025226
