data_functionalizedCrystal
_audit_creation_method	'MofGen! by Chris Wilmer'
_symmetry_space_group_name_H-M	'P1'
_symmetry_Int_Tables_number	1
_symmetry_cell_setting	triclinic
loop_
_symmetry_equiv_pos_as_xyz
  x,y,z
_cell_length_a	13.897449
_cell_length_b	13.897448
_cell_length_c	16.625539
_cell_angle_alpha	90.024962
_cell_angle_beta	90.019431
_cell_angle_gamma	90.020848
loop_
_atom_site_label
_atom_site_type_symbol
_atom_site_fract_x
_atom_site_fract_y
_atom_site_fract_z
Zn1	Zn	-1.474678	0.383980	-0.455904
Zn2	Zn	-1.224678	0.633980	-0.205904
Zn3	Zn	-0.974678	0.883980	0.044096
Zn4	Zn	-0.724678	1.133980	0.294096
Zn5	Zn	-1.474570	0.545293	-0.321079
Zn6	Zn	-1.224570	0.795293	-0.071079
Zn7	Zn	-0.974570	1.045293	0.178921
Zn8	Zn	-0.724570	1.295293	0.428921
Zn9	Zn	-1.313370	0.384018	-0.321087
Zn10	Zn	-1.063370	0.634018	-0.071087
Zn11	Zn	-0.813370	0.884018	0.178913
Zn12	Zn	-0.563370	1.134018	0.428913
Zn13	Zn	-1.313343	0.545239	-0.455871
Zn14	Zn	-1.063343	0.795239	-0.205871
Zn15	Zn	-0.813343	1.045239	0.044129
Zn16	Zn	-0.563343	1.295239	0.294129
O17	O	-1.393990	0.464632	-0.388485
O18	O	-1.143990	0.714632	-0.138485
O19	O	-0.893990	0.964632	0.111515
O20	O	-0.643990	1.214632	0.361515
O21	O	-1.609645	0.405386	-0.438029
O22	O	-1.359645	0.655386	-0.188029
O23	O	-1.109645	0.905386	0.061971
O24	O	-0.859645	1.155386	0.311971
O25	O	-1.453153	0.523938	-0.208247
O26	O	-1.203153	0.773938	0.041753
O27	O	-0.953153	1.023938	0.291753
O28	O	-0.703153	1.273938	0.541753
O29	O	-1.334825	0.249031	-0.338988
O30	O	-1.084825	0.499031	-0.088988
O31	O	-0.834825	0.749031	0.161012
O32	O	-0.584825	0.999031	0.411012
O33	O	-1.609566	0.523902	-0.338974
O34	O	-1.359566	0.773902	-0.088974
O35	O	-1.109566	1.023902	0.161026
O36	O	-0.859566	1.273902	0.411026
O37	O	-1.453336	0.249004	-0.438037
O38	O	-1.203336	0.499004	-0.188037
O39	O	-0.953336	0.749004	0.061963
O40	O	-0.703336	0.999004	0.311963
O41	O	-1.334720	0.405450	-0.208253
O42	O	-1.084720	0.655450	0.041747
O43	O	-0.834720	0.905450	0.291747
O44	O	-0.584720	1.155450	0.541747
O45	O	-1.178385	0.405397	-0.338956
O46	O	-0.928385	0.655397	-0.088956
O47	O	-0.678385	0.905397	0.161044
O48	O	-0.428385	1.155397	0.411044
O49	O	-1.334778	0.523809	-0.568708
O50	O	-1.084778	0.773809	-0.318708
O51	O	-0.834778	1.023809	-0.068708
O52	O	-0.584778	1.273809	0.181292
O53	O	-1.178365	0.523845	-0.437982
O54	O	-0.928365	0.773845	-0.187982
O55	O	-0.678365	1.023845	0.062018
O56	O	-0.428365	1.273845	0.312018
O57	O	-1.453310	0.405333	-0.568732
O58	O	-1.203310	0.655333	-0.318732
O59	O	-0.953310	0.905333	-0.068732
O60	O	-0.703310	1.155333	0.181268
O61	O	-1.453127	0.680268	-0.338942
O62	O	-1.203127	0.930268	-0.088942
O63	O	-0.953127	1.180268	0.161058
O64	O	-0.703127	1.430268	0.411058
O65	O	-1.334674	0.680227	-0.437974
O66	O	-1.084674	0.930227	-0.187974
O67	O	-0.834674	1.180227	0.062026
O68	O	-0.584674	1.430227	0.312026
C69	C	-1.393912	0.715247	-0.388471
C70	C	-1.143912	0.965247	-0.138471
C71	C	-0.893912	1.215247	0.111529
C72	C	-0.643912	1.465247	0.361529
C73	C	-1.393966	0.822461	-0.388492
C74	C	-1.143966	1.072461	-0.138492
C75	C	-0.893966	1.322461	0.111508
C76	C	-0.643966	1.572461	0.361508
C77	C	-1.143376	0.464620	-0.388467
C78	C	-0.893376	0.714620	-0.138467
C79	C	-0.643376	0.964620	0.111533
C80	C	-0.393376	1.214620	0.361533
C81	C	-1.036162	0.464637	-0.388478
C82	C	-0.786162	0.714637	-0.138478
C83	C	-0.536162	0.964637	0.111522
C84	C	-0.286162	1.214637	0.361522
C85	C	-1.394053	0.464561	-0.598794
C86	C	-1.144053	0.714561	-0.348794
C87	C	-0.894053	0.964561	-0.098794
C88	C	-0.644053	1.214561	0.151206
C89	C	-1.394080	0.464530	-0.688415
C90	C	-1.144080	0.714530	-0.438415
C91	C	-0.894080	0.964530	-0.188415
C92	C	-0.644080	1.214530	0.061585
C93	C	-1.645583	0.464646	-0.388504
C94	C	-1.395583	0.714646	-0.138504
C95	C	-1.145583	0.964646	0.111496
C96	C	-0.895583	1.214646	0.361496
C97	C	-1.752797	0.464652	-0.388512
C98	C	-1.502797	0.714652	-0.138512
C99	C	-1.252797	0.964652	0.111488
C100	C	-1.002797	1.214652	0.361488
C101	C	-0.839867	0.464641	-0.388499
C102	C	-0.589867	0.714641	-0.138499
C103	C	-0.339867	0.964641	0.111501
C104	C	-0.089867	1.214641	0.361501
C105	C	-0.949099	0.464636	-0.388485
C106	C	-0.699099	0.714636	-0.138485
C107	C	-0.449099	0.964636	0.111515
C108	C	-0.199099	1.214636	0.361515
C109	C	-1.394061	1.018756	-0.388550
C110	C	-1.144061	1.268756	-0.138550
C111	C	-0.894061	1.518756	0.111450
C112	C	-0.644061	1.768756	0.361450
C113	C	-1.394006	0.909523	-0.388520
C114	C	-1.144006	1.159523	-0.138520
C115	C	-0.894006	1.409523	0.111480
C116	C	-0.644006	1.659523	0.361480
C117	C	-1.394087	1.213039	-0.388526
C118	C	-1.144087	1.463039	-0.138526
C119	C	-0.894087	1.713039	0.111474
C120	C	-0.644087	1.963039	0.361474
C121	C	-1.394108	1.105825	-0.388568
C122	C	-1.144108	1.355825	-0.138568
C123	C	-0.894108	1.605825	0.111432
C124	C	-0.644108	1.855825	0.361432
C125	C	-1.394124	0.464422	-1.016591
C126	C	-1.144124	0.714422	-0.766591
C127	C	-0.894124	0.964422	-0.516591
C128	C	-0.644124	1.214422	-0.266591
C129	C	-1.394109	0.464455	-0.925283
C130	C	-1.144109	0.714455	-0.675283
C131	C	-0.894109	0.964455	-0.425283
C132	C	-0.644109	1.214455	-0.175283
C133	C	-1.394102	0.464477	-0.852506
C134	C	-1.144102	0.714477	-0.602506
C135	C	-0.894102	0.964477	-0.352506
C136	C	-0.644102	1.214477	-0.102506
C137	C	-1.394086	0.464508	-0.761192
C138	C	-1.144086	0.714508	-0.511192
C139	C	-0.894086	0.964508	-0.261192
C140	C	-0.644086	1.214508	-0.011192
C141	C	-1.393983	0.464634	-0.178994
C142	C	-1.143983	0.714634	0.071006
C143	C	-0.893983	0.964634	0.321006
C144	C	-0.643983	1.214634	0.571006
C145	C	-1.394144	0.464393	-0.089374
C146	C	-1.144144	0.714393	0.160626
C147	C	-0.894144	0.964393	0.410626
C148	C	-0.644144	1.214393	0.660626
