data_functionalizedCrystal
_audit_creation_method	'MofGen! by Chris Wilmer'
_symmetry_space_group_name_H-M	'P1'
_symmetry_Int_Tables_number	1
_symmetry_cell_setting	triclinic
loop_
_symmetry_equiv_pos_as_xyz
  x,y,z
_cell_length_a	15.455313
_cell_length_b	16.992694
_cell_length_c	16.992695
_cell_angle_alpha	89.331777
_cell_angle_beta	92.847427
_cell_angle_gamma	92.857794
loop_
_atom_site_label
_atom_site_type_symbol
_atom_site_fract_x
_atom_site_fract_y
_atom_site_fract_z
O1	O	-0.072023	-1.054080	0.163694
O2	O	-0.072048	-0.825681	0.161862
O3	O	-0.072029	-0.938965	0.048579
O4	O	-0.072042	-0.940797	0.276978
O5	O	0.072232	-0.932485	0.055028
O6	O	0.072213	-0.819202	0.168312
O7	O	0.072238	-1.047601	0.170144
Cu8	Cu	0.085398	-0.932809	0.169817
Cu9	Cu	-0.085207	-0.940473	0.162189
O10	O	0.072219	-0.934317	0.283428
C11	C	0.000079	-0.793081	0.162731
C12	C	0.000070	-0.705597	0.155702
C13	C	0.000102	-0.933369	0.022443
C14	C	0.000101	-0.926341	-0.065041
N15	N	0.205392	-0.927425	0.175181
N16	N	-0.205202	-0.945863	0.156819
C17	C	0.250795	-0.975571	0.127074
C18	C	0.341602	-0.971507	0.131139
C19	C	0.387005	-0.919301	0.183315
C20	C	0.341596	-0.871149	0.231424
C21	C	0.250791	-0.875210	0.227355
C22	C	0.658584	-0.901772	0.200858
C23	C	0.749395	-0.897717	0.204926
C24	C	0.749395	-0.998074	0.104639
C25	C	0.658588	-1.002133	0.100578
C26	C	0.613187	-0.953979	0.148684
N27	N	0.479825	-0.915147	0.187473
N28	N	0.520369	-0.958129	0.144522
C29	C	0.000109	-1.080201	0.169275
C30	C	0.000113	-1.167685	0.176304
C31	C	0.000066	-0.659607	0.223520
C32	C	0.000079	-0.577405	0.216911
C33	C	0.000088	-0.541197	0.142484
C34	C	0.000094	-0.587193	0.074661
C35	C	0.000088	-0.669393	0.081271
C36	C	0.000113	-0.295881	0.115091
C37	C	0.000116	-0.213676	0.108486
C38	C	0.000103	-0.203893	0.250737
C39	C	0.000091	-0.286095	0.257340
C40	C	0.000102	-0.332084	0.189517
N41	N	0.000098	-0.457174	0.135727
N42	N	0.000098	-0.416105	0.196275
C43	C	0.000109	-0.994158	-0.111032
C44	C	0.000100	-0.987550	-0.193233
C45	C	0.000089	-0.913123	-0.229442
C46	C	0.000078	-0.845300	-0.183445
C47	C	0.000081	-0.851910	-0.101246
C48	C	0.000074	-0.885729	-0.474757
C49	C	0.000074	-0.879124	-0.556962
C50	C	0.000094	-1.021375	-0.566744
C51	C	0.000102	-1.027977	-0.484543
C52	C	0.000087	-0.960155	-0.438554
N53	N	0.000082	-0.906366	-0.313464
N54	N	0.000087	-0.966913	-0.354533
C55	C	0.000087	-0.939913	0.309563
C56	C	0.000082	-0.946942	0.397047
H57	H	0.213834	-1.018087	0.084591
Br58	Br	0.000100	-0.731810	-0.010771
Br59	Br	0.000137	-1.095171	-0.061899
H60	H	0.000074	-0.315570	0.317946
H61	H	0.000061	-0.830503	-0.437322
H62	H	0.378569	-0.828638	0.273904
Br63	Br	0.596973	-0.836424	0.266144
Br64	Br	0.596968	-1.072988	0.029771
H65	H	0.000109	-1.042774	-0.230675
Br66	Br	0.000129	-0.358285	0.023045
H67	H	0.000106	-1.076591	-0.604197
H68	H	0.213825	-0.836004	0.266527
Br69	Br	0.000048	-0.744291	-0.232586
H70	H	0.000112	-1.088584	-0.455068
Br71	Br	0.000067	-0.778109	-0.606102
Br72	Br	0.000116	-0.538054	-0.026348
Br73	Br	0.000044	-0.708739	0.324533
H74	H	0.000123	-0.184198	0.047876
H75	H	0.786359	-0.855202	0.247417
H76	H	0.000096	-0.166440	0.305954
Br77	Br	0.000071	-0.514992	0.308954
H78	H	0.786369	-1.037278	0.065473
Br79	Br	0.403223	-1.036846	0.065848
H80	H	0.000073	-0.796685	-0.063801
