data_functionalizedCrystal
_audit_creation_method	'MofGen! by Chris Wilmer'
_symmetry_space_group_name_H-M	'P1'
_symmetry_Int_Tables_number	1
_symmetry_cell_setting	triclinic
loop_
_symmetry_equiv_pos_as_xyz
  x,y,z
_cell_length_a	14.971475
_cell_length_b	14.971493
_cell_length_c	13.448316
_cell_angle_alpha	90.005675
_cell_angle_beta	90.005879
_cell_angle_gamma	83.613431
loop_
_atom_site_label
_atom_site_type_symbol
_atom_site_fract_x
_atom_site_fract_y
_atom_site_fract_z
O1	O	-1.186957	-0.116518	-0.082669
O2	O	-0.926555	-0.130487	-0.082676
O3	O	-1.063732	0.006697	-0.082668
O4	O	-1.049780	-0.253702	-0.082677
O5	O	-1.063715	0.006706	0.082716
O6	O	-0.926538	-0.130478	0.082708
O7	O	-1.186939	-0.116510	0.082714
Cu8	Cu	-1.056737	-0.123493	0.097812
Cu9	Cu	-1.056758	-0.123503	-0.097773
O10	O	-1.049763	-0.253694	0.082707
C11	C	-0.893222	-0.129860	0.000015
C12	C	-0.793924	-0.127993	0.000013
C13	C	-0.747270	-0.127109	0.090165
C14	C	-0.653971	-0.125341	0.090165
C15	C	-0.607328	-0.124463	0.000013
C16	C	-0.653989	-0.125344	-0.090145
C17	C	-0.747287	-0.127106	-0.090145
C18	C	-0.459526	-0.121674	-0.090140
C19	C	-0.366221	-0.119913	-0.090141
C20	C	-0.366211	-0.119908	0.090170
C21	C	-0.459509	-0.121670	0.090170
C22	C	-0.506163	-0.122553	0.000012
C23	C	-1.063098	0.040026	0.000023
C24	C	-1.061225	0.139323	0.000020
C25	C	-0.220272	-0.117143	0.000019
C26	C	-0.319567	-0.119029	0.000011
C27	C	-1.060356	0.185963	-0.090132
C28	C	-1.058590	0.279262	-0.090131
C29	C	-1.057699	0.325920	0.000021
C30	C	-1.058565	0.279273	0.090179
C31	C	-1.060325	0.185975	0.090178
C32	C	-1.054900	0.473736	0.090175
C33	C	-1.053142	0.567041	0.090177
C34	C	-1.053165	0.567023	-0.090134
C35	C	-1.054925	0.473725	-0.090135
C36	C	-1.055792	0.427085	0.000023
N37	N	-1.056729	-0.123486	0.235376
C38	C	-1.050397	0.712977	0.000018
C39	C	-1.052273	0.613681	0.000026
N40	N	-1.056772	-0.123504	-0.235338
C41	C	-1.117490	-0.062765	0.287420
C42	C	-1.117496	-0.062765	0.391523
C43	C	-1.056744	-0.123489	0.443581
C44	C	-0.995977	-0.184212	0.391530
C45	C	-0.995968	-0.184208	0.287429
C46	C	-0.996002	-0.184218	0.608510
C47	C	-0.996012	-0.184224	0.712619
C48	C	-1.117530	-0.062775	0.712605
C49	C	-1.117520	-0.062771	0.608503
C50	C	-1.056754	-0.123495	0.556460
H51	H	-0.616005	-0.124623	-0.163549
H52	H	-1.057834	0.317269	0.163583
F53	F	-1.182202	0.001851	0.767998
H54	H	-0.785271	-0.127827	-0.163556
H55	H	-1.061020	0.148000	0.163588
F56	F	-0.604321	-0.124412	0.186117
H57	H	-1.055587	0.435762	0.163592
F58	F	-1.182156	0.001863	0.232026
F59	F	-1.182163	0.001861	0.446912
H60	H	-1.166993	-0.013329	0.566118
F61	F	-0.931350	-0.248854	0.768015
H62	H	-0.946516	-0.233664	0.566139
F63	F	-0.931315	-0.248837	0.446934
H64	H	-1.052457	0.605002	-0.163544
F65	F	-1.061310	0.136315	-0.186086
H66	H	-1.055657	0.435739	-0.163545
F67	F	-0.796903	-0.128049	0.186119
F68	F	-0.509147	-0.122614	0.186120
H69	H	-0.946489	-0.233651	0.245056
H70	H	-0.328246	-0.119199	-0.163551
F71	F	-0.509177	-0.122610	-0.186098
F72	F	-0.316557	-0.118969	0.186124
H73	H	-1.057887	0.317233	-0.163542
H74	H	-1.052409	0.605027	0.163587
