data_functionalizedCrystal
_audit_creation_method	'MofGen! by Chris Wilmer'
_symmetry_space_group_name_H-M	'P1'
_symmetry_Int_Tables_number	1
_symmetry_cell_setting	triclinic
loop_
_symmetry_equiv_pos_as_xyz
  x,y,z
_cell_length_a	18.215407
_cell_length_b	18.050589
_cell_length_c	18.050583
_cell_angle_alpha	90.031910
_cell_angle_beta	90.014135
_cell_angle_gamma	90.022734
loop_
_atom_site_label
_atom_site_type_symbol
_atom_site_fract_x
_atom_site_fract_y
_atom_site_fract_z
Zn1	Zn	1.125028	-0.295715	0.419898
Zn2	Zn	1.625028	0.204285	0.919898
Zn3	Zn	1.124937	-0.419928	0.295717
Zn4	Zn	1.624937	0.080072	0.795717
Zn5	Zn	1.001969	-0.295744	0.295726
Zn6	Zn	1.501969	0.204256	0.795726
Zn7	Zn	1.001919	-0.419856	0.419870
Zn8	Zn	1.501919	0.080144	0.919870
O9	O	1.063463	-0.357811	0.357803
O10	O	1.563463	0.142189	0.857803
O11	O	1.228000	-0.312210	0.403433
O12	O	1.728000	0.187790	0.903433
O13	O	1.108608	-0.403497	0.191794
O14	O	1.608608	0.096503	0.691794
O15	O	1.018351	-0.191816	0.312213
O16	O	1.518351	0.308184	0.812213
O17	O	1.227934	-0.403469	0.312198
O18	O	1.727934	0.096531	0.812198
O19	O	1.108763	-0.191794	0.403441
O20	O	1.608763	0.308206	0.903441
O21	O	1.018263	-0.312260	0.191800
O22	O	1.518263	0.187740	0.691800
O23	O	0.898978	-0.312190	0.312186
O24	O	1.398978	0.187810	0.812186
O25	O	1.018268	-0.403346	0.523798
O26	O	1.518268	0.096654	1.023798
O27	O	0.898942	-0.403374	0.403394
O28	O	1.398942	0.096626	0.903394
O29	O	1.108715	-0.312140	0.523819
O30	O	1.608715	0.187860	1.023819
O31	O	1.108560	-0.523843	0.312171
O32	O	1.608560	-0.023843	0.812171
O33	O	1.018179	-0.523790	0.403385
O34	O	1.518179	-0.023790	0.903385
C35	C	0.872257	-0.357778	0.357788
C36	C	1.372257	0.142222	0.857788
C37	C	0.790458	-0.357782	0.357800
C38	C	1.290458	0.142218	0.857800
C39	C	0.525430	-0.310384	0.405384
C40	C	1.025430	0.189616	0.905384
C41	C	0.602289	-0.310372	0.405382
C42	C	1.102289	0.189628	0.905382
C43	C	0.602238	-0.405262	0.310237
C44	C	1.102238	0.094738	0.810237
C45	C	0.525381	-0.405277	0.310244
C46	C	1.025381	0.094723	0.810244
C47	C	0.486979	-0.357834	0.357816
C48	C	0.986979	0.142166	0.857816
C49	C	0.640695	-0.357807	0.357807
C50	C	1.140695	0.142193	0.857807
C51	C	0.724028	-0.357794	0.357804
C52	C	1.224028	0.142206	0.857804
C53	C	0.403640	-0.357847	0.357820
C54	C	0.903640	0.142153	0.857820
C55	C	1.063375	-0.550763	0.357790
C56	C	1.563375	-0.050763	0.857790
C57	C	1.063404	-0.633309	0.357810
C58	C	1.563404	-0.133309	0.857810
C59	C	1.014303	-0.832757	0.407395
C60	C	1.514303	-0.332757	0.907395
C61	C	0.996368	-0.882206	0.339628
C62	C	1.496368	-0.382206	0.839628
C63	C	1.063476	-0.784439	0.357820
C64	C	1.563476	-0.284439	0.857820
C65	C	1.081448	-0.882072	0.425594
C66	C	1.581448	-0.382072	0.925594
C67	C	1.063545	-0.930424	0.357835
C68	C	1.563545	-0.430424	0.857835
C69	C	1.045505	-0.832800	0.290017
C70	C	1.545505	-0.332800	0.790017
C71	C	1.130617	-0.832662	0.376029
C72	C	1.630617	-0.332662	0.876029
C73	C	1.112707	-0.882088	0.308215
C74	C	1.612707	-0.382088	0.808215
C75	C	1.063435	-0.700341	0.357812
C76	C	1.563435	-0.200341	0.857812
C77	C	1.063586	-1.014521	0.357835
C78	C	1.563586	-0.514521	0.857835
C79	C	1.255416	-0.357844	0.357818
C80	C	1.755416	0.142156	0.857818
C81	C	1.337215	-0.357858	0.357824
C82	C	1.837215	0.142142	0.857824
C83	C	1.063496	-0.357731	0.551508
C84	C	1.563496	0.142269	1.051508
C85	C	1.063510	-0.357698	0.634054
C86	C	1.563510	0.142302	1.134054
C87	C	1.063573	-0.164105	0.357831
C88	C	1.563573	0.335895	0.857831
C89	C	1.063619	-0.081559	0.357843
C90	C	1.563619	0.418441	0.857843
C91	C	1.063473	-0.357836	0.164851
C92	C	1.563473	0.142164	0.664851
C93	C	1.063602	-0.357661	0.082305
C94	C	1.563602	0.142339	0.582305
C95	C	1.112744	-0.308076	0.833516
C96	C	1.612744	0.191924	1.333516
C97	C	1.045624	-0.289893	0.882912
C98	C	1.545624	0.210107	1.382912
C99	C	1.063539	-0.357685	0.785185
C100	C	1.563539	0.142315	1.285185
C101	C	1.130687	-0.375821	0.882871
C102	C	1.630687	0.124179	1.382871
C103	C	1.063574	-0.357671	0.931170
C104	C	1.563574	0.142329	1.431170
C105	C	0.996383	-0.339467	0.833493
C106	C	1.496383	0.160533	1.333493
C107	C	1.081492	-0.425426	0.833448
C108	C	1.581492	0.074574	1.333448
C109	C	1.014325	-0.407269	0.882821
C110	C	1.514325	0.092731	1.382821
C111	C	1.063520	-0.357691	0.701086
C112	C	1.563520	0.142309	1.201086
C113	C	1.063585	-0.357665	1.015266
C114	C	1.563585	0.142335	1.515266
H115	H	0.633592	-0.271734	0.444117
H116	H	1.133592	0.228266	0.944117
O117	O	0.928715	-0.908208	0.321132
O118	O	1.428715	-0.408208	0.821132
C119	C	0.857149	-0.980673	0.235292
C120	C	1.357149	-0.480673	0.735292
C121	C	0.933804	-0.951263	0.256137
C122	C	1.433804	-0.451263	0.756137
H123	H	0.861240	-1.015502	0.182751
H124	H	1.361240	-0.515502	0.682751
H125	H	0.818456	-0.932063	0.225316
H126	H	1.318456	-0.432063	0.725316
H127	H	0.835009	-1.016270	0.282416
H128	H	1.335009	-0.516270	0.782416
H129	H	0.956011	-0.915677	0.209040
H130	H	1.456011	-0.415677	0.709040
H131	H	0.972448	-0.999907	0.266139
H132	H	1.472448	-0.499907	0.766139
H133	H	1.154287	-0.266097	0.811864
H134	H	1.654287	0.233903	1.311864
H135	H	1.030267	-0.811246	0.232691
H136	H	1.530267	-0.311246	0.732691
O137	O	1.162268	-0.907739	0.258053
O138	O	1.662268	-0.407739	0.758053
C139	C	1.199359	-0.911563	0.129976
C140	C	1.699359	-0.411563	0.629976
C141	C	1.143174	-0.882477	0.186705
C142	C	1.643174	-0.382477	0.686705
H143	H	1.183950	-0.891138	0.072282
H144	H	1.683950	-0.391138	0.572282
H145	H	1.199366	-0.974717	0.130627
H146	H	1.699366	-0.474717	0.630627
H147	H	1.256393	-0.890323	0.145038
H148	H	1.756393	-0.390323	0.645038
H149	H	1.086113	-0.903662	0.171683
H150	H	1.586113	-0.403662	0.671683
H151	H	1.143231	-0.819324	0.186044
H152	H	1.643231	-0.319324	0.686044
O153	O	1.198276	-0.806711	0.394551
O154	O	1.698276	-0.306711	0.894551
C155	C	1.293702	-0.802363	0.486932
C156	C	1.793702	-0.302363	0.986932
C157	C	1.217065	-0.831789	0.466046
C158	C	1.717065	-0.331789	0.966046
H159	H	1.308923	-0.822640	0.544730
H160	H	1.808923	-0.322640	1.044730
H161	H	1.293165	-0.739211	0.486262
H162	H	1.793165	-0.239211	0.986262
H163	H	1.335779	-0.823496	0.445235
H164	H	1.835779	-0.323496	0.945235
H165	H	1.174945	-0.810712	0.507722
H166	H	1.674945	-0.310712	1.007722
H167	H	1.217662	-0.894940	0.466692
H168	H	1.717662	-0.394940	0.966692
O169	O	0.964525	-0.806944	0.457256
O170	O	1.464525	-0.306944	0.957256
C171	C	0.837533	-0.802944	0.494397
C172	C	1.337533	-0.302944	0.994397
C173	C	0.893826	-0.832213	0.437873
C174	C	1.393826	-0.332213	0.937873
H175	H	0.780362	-0.823375	0.478756
H176	H	1.280362	-0.323375	0.978756
H177	H	0.838275	-0.739791	0.494300
H178	H	1.338275	-0.239791	0.994300
H179	H	0.852300	-0.824042	0.552021
H180	H	1.352300	-0.324042	1.052021
H181	H	0.879097	-0.811171	0.380223
H182	H	1.379097	-0.311171	0.880223
H183	H	0.893073	-0.895366	0.438036
H184	H	1.393073	-0.395366	0.938036
O185	O	1.027629	-0.221551	0.908927
O186	O	1.527629	0.278449	1.408927
C187	C	1.065017	-0.116574	0.982347
C188	C	1.565017	0.383426	1.482347
C189	C	1.085468	-0.193975	0.952954
C190	C	1.585468	0.306025	1.452954
H191	H	1.111774	-0.094248	1.017935
H192	H	1.611774	0.405752	1.517935
H193	H	1.012941	-0.120555	1.017140
H194	H	1.512941	0.379445	1.517140
H195	H	1.055210	-0.077592	0.933673
H196	H	1.555210	0.422408	1.433673
H197	H	1.095314	-0.232999	1.001582
H198	H	1.595314	0.267001	1.501582
H199	H	1.137524	-0.189935	0.918138
H200	H	1.637524	0.310065	1.418138
H201	H	0.939595	-0.324056	0.811894
H202	H	1.439595	0.175944	1.311894
O203	O	0.488093	-0.264226	0.451494
O204	O	0.988093	0.235774	0.951494
C205	C	0.401311	-0.164016	0.461667
C206	C	0.901311	0.335984	0.961667
C207	C	0.443558	-0.216230	0.409360
C208	C	0.943558	0.283770	0.909360
H209	H	0.365283	-0.125209	0.427623
H210	H	0.865283	0.374791	0.927623
H211	H	0.441966	-0.130048	0.495653
H212	H	0.941966	0.369952	0.995653
H213	H	0.365367	-0.198179	0.500460
H214	H	0.865367	0.301821	1.000460
H215	H	0.479503	-0.182125	0.370522
H216	H	0.979503	0.317875	0.870522
H217	H	0.402864	-0.250201	0.375426
H218	H	0.902864	0.249799	0.875426
H219	H	1.096686	-0.482703	0.811706
H220	H	1.596686	0.017297	1.311706
H221	H	1.096621	-0.903716	0.482904
H222	H	1.596621	-0.403716	0.982904
O223	O	0.964547	-0.457227	0.908458
O224	O	1.464547	0.042773	1.408458
C225	C	0.837576	-0.494550	0.912212
C226	C	1.337576	0.005450	1.412212
C227	C	0.893870	-0.437915	0.883141
C228	C	1.393870	0.062085	1.383141
H229	H	0.780423	-0.478965	0.891742
H230	H	1.280423	0.021035	1.391742
H231	H	0.838229	-0.494521	0.975367
H232	H	1.338229	0.005479	1.475367
H233	H	0.852415	-0.552129	0.891005
H234	H	1.352415	-0.052129	1.391005
H235	H	0.879070	-0.380308	0.904293
H236	H	1.379070	0.119692	1.404293
H237	H	0.893206	-0.438008	0.819987
H238	H	1.393206	0.061992	1.319987
H239	H	1.187458	-0.391164	0.904563
H240	H	1.687458	0.108836	1.404563
H241	H	0.633515	-0.443887	0.271504
H242	H	1.133515	0.056113	0.771504
H243	H	0.494073	-0.443921	0.271508
H244	H	0.994073	0.056079	0.771508
