data_functionalizedCrystal
_audit_creation_method	'MofGen! by Chris Wilmer'
_symmetry_space_group_name_H-M	'P1'
_symmetry_Int_Tables_number	1
_symmetry_cell_setting	triclinic
loop_
_symmetry_equiv_pos_as_xyz
  x,y,z
_cell_length_a	14.853567
_cell_length_b	23.532407
_cell_length_c	13.930277
_cell_angle_alpha	89.990782
_cell_angle_beta	89.995755
_cell_angle_gamma	83.241804
loop_
_atom_site_label
_atom_site_type_symbol
_atom_site_fract_x
_atom_site_fract_y
_atom_site_fract_z
O1	O	1.195555	0.074353	-0.079775
O2	O	1.695555	0.574353	0.420225
O3	O	0.932999	0.083210	-0.079793
O4	O	1.432999	0.583210	0.420207
O5	O	1.072194	-0.004116	-0.079766
O6	O	1.572194	0.495884	0.420234
O7	O	1.056360	0.161678	-0.079802
O8	O	1.556360	0.661678	0.420198
O9	O	1.072175	-0.004118	0.079896
O10	O	1.572175	0.495882	0.579896
O11	O	0.932980	0.083208	0.079869
O12	O	1.432980	0.583208	0.579869
O13	O	1.195536	0.074351	0.079887
O14	O	1.695536	0.574351	0.579887
Zn15	Zn	1.064255	0.078779	0.105228
Zn16	Zn	1.564255	0.578779	0.605228
Zn17	Zn	1.064280	0.078782	-0.105133
Zn18	Zn	1.564280	0.578782	0.394867
O19	O	1.056340	0.161677	0.079860
O20	O	1.556340	0.661677	0.579860
C21	C	0.899405	0.082808	0.000036
C22	C	1.399405	0.582808	0.500036
C23	C	0.799334	0.081605	0.000030
C24	C	1.299334	0.581605	0.500030
C25	C	0.387423	0.024648	0.000064
C26	C	0.887423	0.524648	0.500064
C27	C	0.365008	0.128393	0.000041
C28	C	0.865008	0.628393	0.500041
C29	C	0.459029	0.129524	0.000037
C30	C	0.959029	0.629524	0.500037
C31	C	0.517252	0.078216	0.000046
C32	C	1.017252	0.578216	0.500046
C33	C	0.481454	0.025777	0.000058
C34	C	0.981454	0.525777	0.500058
C35	C	0.494835	0.181961	0.000016
C36	C	0.994835	0.681961	0.500016
C37	C	0.588861	0.183094	0.000011
C38	C	1.088861	0.683094	0.500011
C39	C	0.647086	0.131786	0.000027
C40	C	1.147086	0.631786	0.500027
C41	C	0.611283	0.079345	0.000040
C42	C	1.111283	0.579345	0.500040
C43	C	0.669506	0.028037	0.000049
C44	C	1.169506	0.528037	0.500049
C45	C	0.633704	-0.024404	0.000069
C46	C	1.133704	0.475596	0.500069
C47	C	0.539679	-0.025531	0.000074
C48	C	1.039679	0.474469	0.500074
C49	C	0.741111	0.132913	0.000022
C50	C	1.241111	0.632913	0.500022
C51	C	0.763536	0.029166	0.000042
C52	C	1.263536	0.529166	0.500042
C53	C	1.071782	-0.025335	0.000068
C54	C	1.571782	0.474665	0.500068
C55	C	1.070569	-0.088557	0.000075
C56	C	1.570569	0.411443	0.500075
C57	C	1.145338	-0.487334	0.000027
C58	C	1.645338	0.012666	0.500027
C59	C	1.144212	-0.546739	0.000020
C60	C	1.644212	-0.046739	0.500020
O61	O	1.213524	-0.583181	-0.000011
O62	O	1.713524	-0.083181	0.499989
N63	N	1.061460	-0.569726	0.000015
N64	N	1.561460	-0.069726	0.500015
C65	C	0.979829	-0.533305	0.000008
C66	C	1.479829	-0.033305	0.500008
O67	O	0.909339	-0.558312	0.000002
O68	O	1.409339	-0.058312	0.500002
C69	C	0.980957	-0.473901	0.000008
C70	C	1.480957	0.026099	0.500008
C71	C	1.063714	-0.450917	0.000023
C72	C	1.563714	0.049083	0.500023
C73	C	1.228089	-0.464349	0.000041
C74	C	1.728089	0.035651	0.500041
C75	C	1.229214	-0.404948	0.000050
C76	C	1.729214	0.095052	0.500050
C77	C	1.147590	-0.368531	0.000046
C78	C	1.647590	0.131469	0.500046
C79	C	1.064839	-0.391516	0.000032
C80	C	1.564839	0.108484	0.500032
C81	C	0.899327	-0.437481	-0.000006
C82	C	1.399327	0.062519	0.499994
C83	C	0.900461	-0.378073	-0.000006
C84	C	1.400461	0.121927	0.499994
C85	C	0.983218	-0.355089	0.000009
C86	C	1.483218	0.144911	0.500009
C87	C	0.984341	-0.295698	0.000037
C88	C	1.484341	0.204302	0.500037
N89	N	1.067092	-0.272711	0.000042
N90	N	1.567092	0.227289	0.500042
C91	C	1.148717	-0.309128	0.000046
C92	C	1.648717	0.190872	0.500046
C93	C	0.977469	-0.658058	0.000005
C94	C	1.477469	-0.158058	0.500005
C95	C	0.976340	-0.717461	0.000012
C96	C	1.476340	-0.217461	0.500012
C97	C	1.140723	-0.730890	0.000022
C98	C	1.640723	-0.230890	0.500022
C99	C	1.141851	-0.671486	0.000022
C100	C	1.641851	-0.171486	0.500022
C101	C	1.060220	-0.635070	0.000010
C102	C	1.560220	-0.135070	0.500010
C103	C	1.151075	-0.184380	0.000066
C104	C	1.651075	0.315620	0.500066
C105	C	1.152194	-0.124974	0.000079
C106	C	1.652194	0.375026	0.500079
C107	C	0.987811	-0.111549	0.000064
C108	C	1.487811	0.388451	0.500064
C109	C	0.986692	-0.170951	0.000056
C110	C	1.486692	0.329049	0.500056
C111	C	1.068331	-0.207365	0.000054
C112	C	1.568331	0.292635	0.500054
O113	O	0.915065	-0.259221	0.000064
O114	O	1.415065	0.240779	0.500064
O115	O	1.219196	-0.284112	0.000039
O116	O	1.719196	0.215888	0.500039
C117	C	1.229130	0.074753	0.000056
C118	C	1.729130	0.574753	0.500056
C119	C	1.329200	0.075956	0.000056
C120	C	1.829200	0.575956	0.500056
C121	C	1.056753	0.182895	0.000025
C122	C	1.556753	0.682895	0.500025
C123	C	1.057966	0.246118	0.000011
C124	C	1.557966	0.746118	0.500011
N125	N	1.064244	0.078777	0.248794
N126	N	1.564244	0.578777	0.748794
N127	N	1.064298	0.078779	-0.248700
N128	N	1.564298	0.578779	0.251300
C129	C	1.002642	0.117434	0.701051
C130	C	1.502642	0.617434	1.201051
C131	C	1.125943	0.040125	0.701045
C132	C	1.625943	0.540125	1.201045
C133	C	1.125932	0.040123	0.600549
C134	C	1.625932	0.540123	1.100549
C135	C	1.064276	0.078778	0.550300
C136	C	1.564276	0.578778	1.050300
C137	C	1.002631	0.117435	0.600546
C138	C	1.502631	0.617435	1.100546
C139	C	1.187582	0.001470	0.550295
C140	C	1.687582	0.501470	1.050295
C141	C	1.187575	0.001467	0.449793
C142	C	1.687575	0.501467	0.949793
C143	C	1.125914	0.040120	0.399542
C144	C	1.625914	0.540120	0.899542
C145	C	1.064266	0.078778	0.449795
C146	C	1.564266	0.578778	0.949795
C147	C	1.002610	0.117433	0.399546
C148	C	1.502610	0.617433	0.899546
C149	C	0.940956	0.156089	0.449797
C150	C	1.440956	0.656089	0.949797
C151	C	0.940970	0.156088	0.550295
C152	C	1.440970	0.656088	1.050295
C153	C	1.125900	0.040122	0.299043
C154	C	1.625900	0.540122	0.799043
C155	C	1.002599	0.117434	0.299041
C156	C	1.502599	0.617434	0.799041
H157	H	1.219587	-0.106264	0.000094
H158	H	1.719587	0.393736	0.500094
H159	H	1.237785	-0.029999	0.591211
H160	H	1.737785	0.470001	1.091211
H161	H	0.890759	0.187565	0.408872
H162	H	1.390759	0.687565	0.908872
N163	N	1.254067	-0.040223	0.395597
N164	N	1.754067	0.459777	0.895597
H165	H	1.293126	-0.064710	0.442681
H166	H	1.793126	0.435290	0.942681
H167	H	1.219775	-0.065441	0.353917
H168	H	1.719775	0.434559	0.853917
H169	H	0.618003	0.225795	-0.000005
H170	H	1.118003	0.725795	0.499995
H171	H	0.447423	0.223733	-0.000001
H172	H	0.947423	0.723733	0.499999
N173	N	1.192394	-0.001561	0.244843
N174	N	1.692394	0.498439	0.744843
H175	H	1.231458	-0.026046	0.291925
H176	H	1.731458	0.473954	0.791925
H177	H	1.158109	-0.026781	0.203160
H178	H	1.658109	0.473219	0.703160
H179	H	0.810936	-0.012615	0.000053
H180	H	1.310936	0.487385	0.500053
H181	H	0.921355	-0.081888	0.000064
H182	H	1.421355	0.418112	0.500064
N183	N	0.696504	-0.079742	0.000071
N184	N	1.196504	0.420258	0.500071
H185	H	0.761499	-0.071066	0.000060
H186	H	1.261499	0.428934	0.500060
H187	H	0.684973	-0.102592	0.059268
H188	H	1.184973	0.397408	0.559268
N189	N	0.874487	0.197786	0.604487
N190	N	1.374487	0.697786	1.104487
H191	H	0.810561	0.191156	0.587018
H192	H	1.310561	0.691156	1.087018
H193	H	0.883931	0.191904	0.675760
H194	H	1.383931	0.691904	1.175760
N195	N	0.936142	0.159123	0.755241
N196	N	1.436142	0.659123	1.255241
H197	H	0.945498	0.153258	0.826533
H198	H	1.445498	0.653258	1.326533
H199	H	0.946187	0.199537	0.737663
H200	H	1.446187	0.699537	1.237663
H201	H	0.358269	-0.018049	0.000084
H202	H	0.858269	0.481951	0.500084
H203	H	0.317597	0.170165	0.000026
H204	H	0.817597	0.670165	0.500026
N205	N	0.501065	-0.082089	0.000102
N206	N	1.001065	0.417911	0.500102
H207	H	0.432666	-0.075017	0.000103
H208	H	0.932666	0.424983	0.500103
H209	H	0.522395	-0.104546	-0.059079
H210	H	1.022395	0.395454	0.440921
H211	H	1.176146	0.008655	0.741961
H212	H	1.676146	0.508655	1.241961
N213	N	1.228766	-0.770173	0.000015
N214	N	1.728766	-0.270173	0.500015
H215	H	1.264891	-0.762782	0.059204
H216	H	1.764891	-0.262782	0.559204
H217	H	1.215414	-0.811275	-0.000028
H218	H	1.715414	-0.311275	0.499972
N219	N	0.779729	0.189467	-0.000010
N220	N	1.279729	0.689467	0.499990
H221	H	0.728577	0.221798	-0.000021
H222	H	1.228577	0.721798	0.499979
H223	H	0.818250	0.192198	0.059176
H224	H	1.318250	0.692198	0.559176
N225	N	1.239123	-0.223655	0.000071
N226	N	1.739123	0.276345	0.500071
H227	H	1.275262	-0.216243	-0.059108
H228	H	1.775262	0.283757	0.440892
H229	H	1.275164	-0.216238	0.059304
H230	H	1.775164	0.283762	0.559304
N231	N	1.318474	-0.380163	0.000062
N232	N	1.818474	0.119837	0.500062
H233	H	1.370004	-0.412253	0.000062
H234	H	1.870004	0.087747	0.500062
H235	H	1.322533	-0.355803	-0.059125
H236	H	1.822533	0.144197	0.440875
H237	H	1.209239	-0.652777	0.000034
H238	H	1.709239	-0.152777	0.500034
N239	N	1.316134	-0.503622	0.000047
N240	N	1.816134	-0.003622	0.500047
H241	H	1.368718	-0.480038	0.000056
H242	H	1.868718	0.019962	0.500056
H243	H	1.319241	-0.528564	0.059239
H244	H	1.819241	-0.028564	0.559239
N245	N	0.887082	-0.742247	0.000022
N246	N	1.387082	-0.242247	0.500022
H247	H	0.835549	-0.710158	0.000024
H248	H	1.335549	-0.210158	0.500024
H249	H	0.883030	-0.766595	-0.059167
H250	H	1.383030	-0.266595	0.440833
H251	H	0.910991	-0.628410	0.000003
H252	H	1.410991	-0.128410	0.500003
N253	N	0.936089	0.159126	0.244853
N254	N	1.436089	0.659126	0.744853
H255	H	0.946103	0.199558	0.262333
H256	H	1.446103	0.699558	0.762333
H257	H	0.945466	0.153214	0.173579
H258	H	1.445466	0.653214	0.673579
N259	N	0.810060	-0.462253	-0.000015
N260	N	1.310060	0.037747	0.499985
H261	H	0.774339	-0.448966	-0.059206
H262	H	1.274339	0.051034	0.440794
H263	H	0.821783	-0.505408	0.000022
H264	H	1.321783	-0.005408	0.500022
N265	N	0.812415	-0.338796	-0.000024
N266	N	1.312415	0.161204	0.499976
H267	H	0.759824	-0.362374	-0.000034
H268	H	1.259824	0.137626	0.499966
H269	H	0.809288	-0.313863	0.059167
H270	H	1.309288	0.186137	0.559167
N271	N	0.897437	-0.195746	0.000044
N272	N	1.397437	0.304254	0.500044
H273	H	0.893295	-0.220103	0.059223
H274	H	1.393295	0.279897	0.559223
H275	H	0.845952	-0.163628	0.000009
H276	H	1.345952	0.336372	0.500009
