data_functionalizedCrystal
_audit_creation_method	'MofGen! by Chris Wilmer'
_symmetry_space_group_name_H-M	'P1'
_symmetry_Int_Tables_number	1
_symmetry_cell_setting	triclinic
loop_
_symmetry_equiv_pos_as_xyz
  x,y,z
_cell_length_a	8.559649
_cell_length_b	9.065218
_cell_length_c	7.088638
_cell_angle_alpha	83.694087
_cell_angle_beta	95.333776
_cell_angle_gamma	77.397275
loop_
_atom_site_label
_atom_site_type_symbol
_atom_site_fract_x
_atom_site_fract_y
_atom_site_fract_z
O1	O	-2.135558	0.066954	-0.158964
O2	O	-1.671456	-0.009111	-0.158972
O3	O	-1.913099	0.244769	-0.158964
O4	O	-1.893914	-0.186926	-0.158972
O5	O	-1.880766	0.210793	0.159025
O6	O	-1.639122	-0.043087	0.159017
O7	O	-2.103224	0.032978	0.159025
Cu8	Cu	-1.868221	-0.008157	0.188056
Cu9	Cu	-1.906459	0.032024	-0.188003
O10	O	-1.861581	-0.220902	0.159017
C11	C	-1.595843	-0.031863	0.000022
C12	C	-1.418711	-0.049022	0.000018
C13	C	-1.895089	0.282536	0.000027
C14	C	-1.889577	0.445687	0.000018
C15	C	-2.178838	0.055731	0.000027
C16	C	-2.355971	0.072890	0.000018
C17	C	-1.879591	-0.258669	0.000021
C18	C	-1.885105	-0.421819	0.000018
N19	N	-1.841338	-0.036416	0.452555
N20	N	-1.933355	0.060296	-0.452502
H21	H	-1.437768	0.190392	0.000011
H22	H	-1.336907	-0.166529	0.000006
O23	O	-2.059606	0.193064	0.439306
H24	H	-2.057345	0.190710	0.283350
H25	H	-1.746010	-0.136615	0.534242
