data_functionalizedCrystal
_audit_creation_method	'MofGen! by Chris Wilmer'
_symmetry_space_group_name_H-M	'P1'
_symmetry_Int_Tables_number	1
_symmetry_cell_setting	triclinic
loop_
_symmetry_equiv_pos_as_xyz
  x,y,z
_cell_length_a	9.065215
_cell_length_b	12.503572
_cell_length_c	9.065218
_cell_angle_alpha	86.422702
_cell_angle_beta	94.984675
_cell_angle_gamma	86.430164
loop_
_atom_site_label
_atom_site_type_symbol
_atom_site_fract_x
_atom_site_fract_y
_atom_site_fract_z
O1	O	-1.968797	0.089298	0.207917
O2	O	-1.539512	0.089304	0.225667
O3	O	-1.763027	0.089299	0.002150
O4	O	-1.745281	0.089303	0.431434
O5	O	-1.746218	-0.089343	0.018988
O6	O	-1.522702	-0.089338	0.242505
O7	O	-1.951987	-0.089343	0.224755
Cu8	Cu	-1.735810	-0.105652	0.235168
Cu9	Cu	-1.755689	0.105612	0.215255
O10	O	-1.728472	-0.089338	0.448272
C11	C	-1.476120	-0.000016	0.232381
C12	C	-1.312278	-0.000014	0.227283
N13	N	-1.721839	-0.254244	0.249173
C14	C	-1.701287	-0.473359	0.269787
C15	C	-1.790219	-0.526688	0.180629
C16	C	-1.778783	-0.648611	0.192099
C17	C	-1.712721	-0.351425	0.258319
C18	C	-1.015379	-0.000020	0.218041
C19	C	-1.179223	-0.000013	0.223138
C20	C	-1.752917	-0.000020	-0.044418
C21	C	-1.747818	-0.000015	-0.208261
N22	N	-1.769672	0.254204	0.201238
C23	C	-1.738582	-0.000017	0.494840
C24	C	-1.743682	-0.000015	0.658683
H25	H	-1.874944	-0.480777	0.095685
H26	H	-1.616569	-0.519264	0.354727
