data_functionalizedCrystal
_audit_creation_method	'MofGen! by Chris Wilmer'
_symmetry_space_group_name_H-M	'P1'
_symmetry_Int_Tables_number	1
_symmetry_cell_setting	triclinic
loop_
_symmetry_equiv_pos_as_xyz
  x,y,z
_cell_length_a	11.792241
_cell_length_b	11.792241
_cell_length_c	10.268362
_cell_angle_alpha	89.994572
_cell_angle_beta	89.999626
_cell_angle_gamma	84.193416
loop_
_atom_site_label
_atom_site_type_symbol
_atom_site_fract_x
_atom_site_fract_y
_atom_site_fract_z
O1	O	1.506909	0.155569	-0.108174
O2	O	1.840242	0.488902	0.225159
O3	O	2.173575	0.822235	0.558492
O4	O	1.176568	0.171602	-0.108205
O5	O	1.509901	0.504935	0.225129
O6	O	1.843234	0.838268	0.558462
O7	O	1.349755	-0.001585	-0.108180
O8	O	1.683088	0.331748	0.225154
O9	O	2.016421	0.665081	0.558487
O10	O	1.333722	0.328756	-0.108199
O11	O	1.667055	0.662089	0.225134
O12	O	2.000388	0.995422	0.558467
O13	O	1.349740	-0.001593	0.108421
O14	O	1.683073	0.331741	0.441754
O15	O	2.016406	0.665074	0.775088
O16	O	1.176553	0.171594	0.108396
O17	O	1.509886	0.504928	0.441729
O18	O	1.843219	0.838261	0.775063
O19	O	1.506894	0.155561	0.108426
O20	O	1.840227	0.488895	0.441760
O21	O	2.173560	0.822228	0.775093
Cu22	Cu	1.341722	0.163577	0.128188
Cu23	Cu	1.675055	0.496911	0.461522
Cu24	Cu	2.008388	0.830244	0.794855
Cu25	Cu	1.341740	0.163586	-0.127967
Cu26	Cu	1.675073	0.496919	0.205366
Cu27	Cu	2.008406	0.830252	0.538700
O28	O	1.333707	0.328748	0.108401
O29	O	1.667040	0.662082	0.441735
O30	O	2.000373	0.995415	0.775068
C31	C	1.134269	0.170591	0.000092
C32	C	1.467603	0.503924	0.333425
C33	C	1.800936	0.837258	0.666758
C34	C	1.008255	0.167576	0.000080
C35	C	1.341589	0.500910	0.333414
C36	C	1.674922	0.834243	0.666747
C37	C	1.348740	-0.043880	0.000120
C38	C	1.682073	0.289453	0.333454
C39	C	2.015407	0.622787	0.666787
C40	C	1.345726	-0.169894	0.000119
C41	C	1.679059	0.163440	0.333452
C42	C	2.012392	0.496773	0.666785
C43	C	0.777543	0.162034	0.000118
C44	C	1.110877	0.495367	0.333451
C45	C	1.444210	0.828700	0.666785
C46	C	0.905928	0.165113	0.000097
C47	C	1.239262	0.498447	0.333431
C48	C	1.572595	0.831780	0.666764
C49	C	1.340183	-0.400606	0.000096
C50	C	1.673516	-0.067272	0.333430
C51	C	2.006849	0.266061	0.666763
C52	C	1.343262	-0.272221	0.000108
C53	C	1.676596	0.061113	0.333442
C54	C	2.009929	0.394446	0.666775
C55	C	1.549192	0.156572	0.000127
C56	C	1.882525	0.489905	0.333460
C57	C	2.215859	0.823239	0.666794
C58	C	1.675206	0.159587	0.000130
C59	C	2.008539	0.492920	0.333463
C60	C	2.341873	0.826253	0.666796
C61	C	1.334721	0.371043	0.000099
C62	C	1.668055	0.704376	0.333432
C63	C	2.001388	1.037710	0.666765
C64	C	1.337736	0.497057	0.000092
C65	C	1.671069	0.830390	0.333425
C66	C	2.004402	1.163723	0.666758
N67	N	1.341717	0.163571	0.308354
N68	N	1.675051	0.496904	0.641688
N69	N	2.008384	0.830237	0.975021
N70	N	1.341753	0.163584	-0.308133
N71	N	1.675086	0.496917	0.025201
N72	N	2.008420	0.830250	0.358534
C73	C	1.341734	0.163583	0.574025
C74	C	1.675067	0.496917	0.907358
C75	C	2.008401	0.830250	1.240692
C76	C	1.341721	0.163580	0.426187
C77	C	1.675054	0.496913	0.759520
C78	C	2.008388	0.830246	1.092854
