data_functionalizedCrystal
_audit_creation_method	'MofGen! by Chris Wilmer'
_symmetry_space_group_name_H-M	'P1'
_symmetry_Int_Tables_number	1
_symmetry_cell_setting	triclinic
loop_
_symmetry_equiv_pos_as_xyz
  x,y,z
_cell_length_a	15.995350
_cell_length_b	16.098538
_cell_length_c	15.995350
_cell_angle_alpha	92.725104
_cell_angle_beta	96.507625
_cell_angle_gamma	92.735063
loop_
_atom_site_label
_atom_site_type_symbol
_atom_site_fract_x
_atom_site_fract_y
_atom_site_fract_z
O1	O	1.114731	0.069181	-0.104189
O2	O	1.614731	0.569181	0.395811
O3	O	0.870956	0.069198	-0.117515
O4	O	1.370956	0.569198	0.382485
O5	O	0.999507	0.069188	0.011036
O6	O	1.499507	0.569188	0.511036
O7	O	0.986180	0.069191	-0.232740
O8	O	1.486180	0.569191	0.267260
O9	O	0.991998	-0.069324	0.003556
O10	O	1.491998	0.430676	0.503556
O11	O	0.863447	-0.069314	-0.124995
O12	O	1.363447	0.430686	0.375005
O13	O	1.107221	-0.069331	-0.111669
O14	O	1.607221	0.430669	0.388331
Zn15	Zn	0.984142	-0.091314	-0.119519
Zn16	Zn	1.484142	0.408686	0.380481
Zn17	Zn	0.994036	0.091182	-0.109664
Zn18	Zn	1.494036	0.591182	0.390336
O19	O	0.978670	-0.069321	-0.240219
O20	O	1.478670	0.430679	0.259781
C21	C	0.836007	-0.000056	-0.120704
C22	C	1.336007	0.499944	0.379296
C23	C	0.743057	-0.000049	-0.119052
C24	C	1.243057	0.499951	0.380948
N25	N	0.977396	-0.215863	-0.126245
N26	N	1.477396	0.284137	0.373755
C27	C	0.405308	-0.000067	-0.113121
C28	C	0.905308	0.499933	0.386879
C29	C	0.452726	-0.000377	-0.021586
C30	C	0.952726	0.499623	0.478414
C31	C	0.549433	-0.000059	-0.023221
C32	C	1.049433	0.499941	0.476779
C33	C	0.572869	-0.000059	-0.116063
C34	C	1.072869	0.499941	0.383937
C35	C	0.536070	0.079036	-0.156948
C36	C	1.036070	0.579036	0.343052
C37	C	0.439438	0.079096	-0.154645
C38	C	0.939438	0.579096	0.345355
C39	C	0.430559	-0.078418	-0.165043
C40	C	0.930559	0.421582	0.334957
C41	C	0.527449	-0.079458	-0.165077
C42	C	1.027449	0.420542	0.334923
C43	C	0.667567	-0.000051	-0.117730
C44	C	1.167567	0.499949	0.382270
C45	C	0.310611	-0.000069	-0.111456
C46	C	0.810611	0.499931	0.388544
C47	C	1.031978	-0.259452	-0.071702
C48	C	1.531978	0.240548	0.428298
C49	C	1.027266	-0.346641	-0.076415
C50	C	1.527266	0.153359	0.423585
C51	C	0.967976	-0.390239	-0.135675
C52	C	1.467976	0.109761	0.364325
C53	C	0.913388	-0.346644	-0.190220
C54	C	1.413388	0.153356	0.309780
C55	C	0.918096	-0.259457	-0.185503
C56	C	1.418096	0.240543	0.314497
C57	C	0.950909	-0.653488	-0.152760
C58	C	1.450909	-0.153488	0.347240
C59	C	0.946206	-0.740681	-0.157475
C60	C	1.446206	-0.240681	0.342525
C61	C	1.060084	-0.740672	-0.043668
C62	C	1.560084	-0.240672	0.456332
C63	C	1.064790	-0.653483	-0.038960
C64	C	1.564790	-0.153483	0.461040
C65	C	1.010199	-0.609896	-0.093502
C66	C	1.510199	-0.109896	0.406498
C67	C	0.963161	-0.479360	-0.140495
C68	C	1.463161	0.020640	0.359505
C69	C	1.015011	-0.520776	-0.088677
C70	C	1.515011	-0.020776	0.411323
C71	C	1.142171	-0.000075	-0.108480
C72	C	1.642171	0.499925	0.391520
C73	C	1.235121	-0.000076	-0.110132
C74	C	1.735121	0.499924	0.389868
C75	C	0.995202	-0.000066	0.038490
C76	C	1.495202	0.499934	0.538490
C77	C	0.993550	-0.000061	0.131441
C78	C	1.493550	0.499939	0.631441
N79	N	1.000789	0.215730	-0.102932
N80	N	1.500789	0.715730	0.397068
C81	C	0.982976	-0.000065	-0.267674
C82	C	1.482976	0.499935	0.232326
C83	C	0.984628	-0.000064	-0.360625
C84	C	1.484628	0.499936	0.139375
C85	C	0.987618	-0.000064	0.469188
C86	C	1.487618	0.499936	0.969188
C87	C	0.896083	0.000253	0.421772
C88	C	1.396083	0.500253	0.921772
C89	C	0.897718	-0.000059	0.325064
C90	C	1.397718	0.499941	0.825064
C91	C	0.990560	-0.000062	0.301628
C92	C	1.490560	0.499938	0.801628
C93	C	1.031429	-0.079161	0.338434
C94	C	1.531429	0.420839	0.838434
C95	C	1.029125	-0.079227	0.435066
C96	C	1.529125	0.420773	0.935066
C97	C	1.039556	0.078287	0.443930
C98	C	1.539556	0.578287	0.943930
C99	C	1.039591	0.079333	0.347041
C100	C	1.539591	0.579333	0.847041
C101	C	0.992228	-0.000064	0.206930
C102	C	1.492228	0.499936	0.706930
C103	C	0.985952	-0.000067	0.563886
C104	C	1.485952	0.499933	1.063886
H105	H	0.431128	-0.057099	0.011947
H106	H	0.931128	0.442901	0.511947
H107	H	0.906460	-0.618005	-0.197173
H108	H	1.406460	-0.118005	0.302827
O109	O	1.129008	0.078987	0.486032
O110	O	1.629008	0.578987	0.986032
H111	H	1.165270	0.134473	0.467883
H112	H	1.665270	0.634473	0.967883
H113	H	1.107554	0.084106	0.331937
H114	H	1.607554	0.584106	0.831937
H115	H	0.865109	-0.382146	-0.238468
H116	H	1.365109	0.117854	0.261532
O117	O	0.583028	-0.075165	0.019730
O118	O	1.083028	0.424835	0.519730
H119	H	0.530189	-0.112039	0.041864
H120	H	1.030189	0.387961	0.541864
H121	H	1.104528	-0.776169	0.000738
H122	H	1.604528	-0.276169	0.500738
O123	O	0.388439	-0.079137	-0.254489
O124	O	0.888439	0.420863	0.245511
H125	H	0.408835	-0.021784	-0.284147
H126	H	0.908835	0.478216	0.215853
O127	O	0.396967	0.083852	-0.243417
O128	O	0.896967	0.583852	0.256583
H129	H	0.360640	0.140845	-0.247690
H130	H	0.860640	0.640845	0.252310
H131	H	0.858904	-0.056852	0.294133
H132	H	1.358904	0.443148	0.794133
H133	H	1.080261	-0.223961	-0.023450
H134	H	1.580261	0.276039	0.476550
H135	H	1.113069	-0.617988	0.009294
H136	H	1.613069	-0.117988	0.509294
H137	H	0.914887	-0.514864	-0.188747
H138	H	1.414887	-0.014864	0.311253
O139	O	1.086151	-0.393658	-0.017602
O140	O	1.586151	0.106342	0.482398
H141	H	1.128182	-0.348694	0.024385
H142	H	1.628182	0.151306	0.524385
H143	H	1.096147	-0.082818	0.467120
H144	H	1.596147	0.417182	0.967120
H145	H	0.542555	-0.084235	-0.233038
H146	H	1.042555	0.415765	0.266962
H147	H	0.580370	0.056737	0.015582
H148	H	1.080370	0.556737	0.515582
O149	O	0.854755	0.075035	0.291458
O150	O	1.354755	0.575035	0.791458
H151	H	0.832619	0.111900	0.344292
H152	H	1.332619	0.611900	0.844292
O153	O	0.882245	-0.787710	-0.221384
O154	O	1.382245	-0.287710	0.278616
H155	H	0.845067	-0.742754	-0.258511
H156	H	1.345067	-0.242754	0.241489
H157	H	0.424335	0.138221	-0.118522
H158	H	0.924335	0.638221	0.381478
O159	O	0.859231	-0.212436	-0.244334
O160	O	1.359231	0.287564	0.255666
H161	H	0.817217	-0.257398	-0.286340
H162	H	1.317217	0.242602	0.213660
H163	H	1.012873	0.138239	0.467708
H164	H	1.512873	0.638239	0.967708
O165	O	0.399071	-0.157833	-0.129674
O166	O	0.899071	0.342167	0.370326
H167	H	0.329366	-0.158973	-0.132526
H168	H	0.829366	0.341027	0.367474
O169	O	0.554994	0.082947	-0.247086
O170	O	1.054994	0.582947	0.252914
H171	H	0.590917	0.028430	-0.263739
H172	H	1.090917	0.528430	0.236261
H173	H	1.063283	-0.485277	-0.040425
H174	H	1.563283	0.014723	0.459575
O175	O	1.000123	0.156847	0.315065
O176	O	1.500123	0.656847	0.815065
H177	H	1.035131	0.212681	0.347466
H178	H	1.535131	0.712681	0.847466
O179	O	0.981255	-0.157537	0.455090
O180	O	1.481255	0.342463	0.955090
H181	H	0.959962	-0.195002	0.395799
H182	H	1.459962	0.304998	0.895799
H183	H	0.567636	0.137899	-0.122406
H184	H	1.067636	0.637899	0.377594
O185	O	0.843768	-0.074457	0.443682
O186	O	1.343768	0.425543	0.943682
H187	H	0.821636	-0.113204	0.385413
H188	H	1.321636	0.386796	0.885413
O189	O	0.851666	0.075376	0.450386
O190	O	1.351666	0.575376	0.950386
H191	H	0.894352	0.113290	0.498712
H192	H	1.394352	0.613290	0.998712
H193	H	0.436190	0.056032	0.017888
H194	H	0.936190	0.556032	0.517888
H195	H	0.996874	-0.138022	0.306874
H196	H	1.496874	0.361978	0.806874
O197	O	0.559424	-0.156973	-0.125607
O198	O	1.059424	0.343027	0.374393
H199	H	0.607469	-0.139035	-0.071309
H200	H	1.107469	0.360965	0.428691
H201	H	1.099478	-0.082105	0.324149
H202	H	1.599478	0.417895	0.824149
