data_functionalizedCrystal
_audit_creation_method	'MofGen! by Chris Wilmer'
_symmetry_space_group_name_H-M	'P1'
_symmetry_Int_Tables_number	1
_symmetry_cell_setting	triclinic
loop_
_symmetry_equiv_pos_as_xyz
  x,y,z
_cell_length_a	15.944551
_cell_length_b	17.019294
_cell_length_c	15.021413
_cell_angle_alpha	86.125043
_cell_angle_beta	89.997174
_cell_angle_gamma	83.446674
loop_
_atom_site_label
_atom_site_type_symbol
_atom_site_fract_x
_atom_site_fract_y
_atom_site_fract_z
O1	O	1.114401	0.101727	-0.081736
O2	O	1.614401	0.601727	0.418264
O3	O	0.869836	0.114270	-0.082720
O4	O	1.369836	0.614270	0.417280
O5	O	0.998941	-0.006833	-0.073420
O6	O	1.498941	0.493167	0.426580
O7	O	0.985297	0.222829	-0.091036
O8	O	1.485297	0.722829	0.408964
O9	O	0.998920	-0.006816	0.074643
O10	O	1.498920	0.493184	0.574643
O11	O	0.869816	0.114287	0.065343
O12	O	1.369816	0.614287	0.565343
O13	O	1.114381	0.101744	0.066327
O14	O	1.614381	0.601744	0.566327
Zn15	Zn	0.992095	0.108018	0.089343
Zn16	Zn	1.492095	0.608018	0.589343
Zn17	Zn	0.992122	0.107996	-0.105736
Zn18	Zn	1.492122	0.607996	0.394264
O19	O	0.985276	0.222847	0.057027
O20	O	1.485276	0.722847	0.557027
C21	C	0.838533	0.113758	-0.008651
C22	C	1.338533	0.613758	0.491349
C23	C	0.745288	0.112197	-0.008540
C24	C	1.245288	0.612197	0.491460
C25	C	0.998413	-0.036213	0.002863
C26	C	1.498413	0.463787	0.502863
C27	C	0.996860	-0.123783	0.009574
C28	C	1.496860	0.376217	0.509574
C29	C	0.530530	0.033400	-0.002479
C30	C	1.030530	0.533400	0.497521
C31	C	0.469475	0.069982	-0.078288
C32	C	0.969475	0.569982	0.421712
C33	C	0.574566	0.109372	-0.008313
C34	C	1.074566	0.609372	0.491687
C35	C	0.469477	0.070017	0.067689
C36	C	0.969477	0.570017	0.567689
C37	C	0.409657	0.106639	-0.008089
C38	C	0.909657	0.606639	0.491911
C39	C	0.514738	0.145975	-0.084184
C40	C	1.014738	0.645975	0.415816
C41	C	0.514747	0.146000	0.061859
C42	C	1.014747	0.646000	0.561859
C43	C	0.453709	0.182637	-0.013972
C44	C	0.953709	0.682637	0.486028
C45	C	0.669566	0.110945	-0.008442
C46	C	1.169566	0.610945	0.491558
C47	C	0.314658	0.105072	-0.007966
C48	C	0.814658	0.605072	0.492034
C49	C	0.996144	-0.164928	-0.067982
C50	C	1.496144	0.335072	0.432018
C51	C	0.994680	-0.247208	-0.061674
C52	C	1.494680	0.252792	0.438326
C53	C	0.993938	-0.288343	0.022191
C54	C	1.493938	0.211657	0.522191
C55	C	0.994652	-0.247191	0.099753
C56	C	1.494652	0.252809	0.599753
C57	C	0.996110	-0.164912	0.093444
C58	C	1.496110	0.335088	0.593444
C59	C	0.989529	-0.536773	0.045278
C60	C	1.489529	-0.036773	0.545278
C61	C	0.988073	-0.619058	0.051581
C62	C	1.488073	-0.119058	0.551581
C63	C	0.988100	-0.619069	-0.109846
C64	C	1.488100	-0.119069	0.390154
C65	C	0.989563	-0.536789	-0.116148
C66	C	1.489563	-0.036789	0.383852
C67	C	0.990272	-0.495644	-0.038586
C68	C	1.490272	0.004356	0.461414
C69	C	0.992444	-0.372446	0.028641
C70	C	1.492444	0.127554	0.528641
C71	C	0.991760	-0.411541	-0.045037
C72	C	1.491760	0.088459	0.454963
C73	C	1.145684	0.102256	-0.007744
C74	C	1.645684	0.602256	0.492256
C75	C	1.238929	0.103817	-0.007861
C76	C	1.738929	0.603817	0.492139
C77	C	0.985804	0.252227	-0.019259
C78	C	1.485804	0.752227	0.480741
C79	C	0.987357	0.339797	-0.025975
C80	C	1.487357	0.839797	0.474025
N81	N	0.992083	0.108033	0.222480
N82	N	1.492083	0.608033	0.722480
N83	N	0.992141	0.107974	-0.238872
N84	N	1.492141	0.607974	0.261128
C85	C	0.932376	0.164005	0.457865
C86	C	1.432376	0.664005	0.957865
C87	C	1.008257	0.179319	0.516031
C88	C	1.508257	0.679319	1.016031
C89	C	0.992104	0.108014	0.404088
C90	C	1.492104	0.608014	0.904088
C91	C	0.916243	0.092717	0.522662
C92	C	1.416243	0.592717	1.022662
C93	C	0.992118	0.107996	0.579513
C94	C	1.492118	0.607996	1.079513
C95	C	1.068024	0.123363	0.460945
C96	C	1.568024	0.623363	0.960945
C97	C	0.975960	0.036730	0.467573
C98	C	1.475960	0.536730	0.967573
C99	C	1.051897	0.052014	0.525715
C100	C	1.551897	0.552014	1.025715
C101	C	0.992095	0.108026	0.303030
C102	C	1.492095	0.608026	0.803030
C103	C	0.992136	0.107984	0.680569
C104	C	1.492136	0.607984	1.180569
H105	H	0.563942	-0.029651	0.002267
H106	H	1.063942	0.470349	0.502267
H107	H	1.021924	0.239595	0.537497
H108	H	1.521924	0.739595	1.037497
Cl109	Cl	0.545544	0.195538	-0.183380
Cl110	Cl	1.045544	0.695538	0.316620
Cl111	Cl	0.987146	-0.670769	0.157019
Cl112	Cl	1.487146	-0.170769	0.657019
Cl113	Cl	0.990407	-0.485057	0.142785
Cl114	Cl	1.490407	0.014943	0.642785
H115	H	1.102468	0.004654	0.555204
H116	H	1.602468	0.504654	1.055204
H117	H	0.420471	0.245753	-0.018854
H118	H	0.920471	0.745753	0.481146
H119	H	0.534829	0.178114	0.121118
H120	H	1.034829	0.678114	0.621118
Cl121	Cl	0.997009	-0.113186	0.190947
Cl122	Cl	1.497009	0.386814	0.690947
H123	H	0.449413	0.037842	-0.137542
H124	H	0.949413	0.537842	0.362458
H125	H	0.992359	-0.378045	-0.113319
H126	H	1.492359	0.121955	0.386681
H127	H	0.449422	0.037877	0.131871
H128	H	0.949422	0.537877	0.631871
Cl129	Cl	0.997082	-0.113225	-0.173417
Cl130	Cl	1.497082	0.386775	0.326583
H131	H	0.962270	-0.023526	0.446085
H132	H	1.462270	0.476474	0.946085
Cl133	Cl	0.817187	0.072751	0.564456
Cl134	Cl	1.317187	0.572751	1.064456
H135	H	1.132197	0.136366	0.433981
H136	H	1.632197	0.636366	0.933981
Cl137	Cl	0.993781	-0.298931	-0.159178
Cl138	Cl	1.493781	0.201069	0.340822
Cl139	Cl	0.991507	-0.424164	0.134068
Cl140	Cl	1.491507	0.075836	0.634068
Cl141	Cl	0.990498	-0.485084	-0.221582
Cl142	Cl	1.490498	0.014916	0.278418
Cl143	Cl	0.993709	-0.298902	0.205183
Cl144	Cl	1.493709	0.201098	0.705183
Cl145	Cl	0.987206	-0.670799	-0.207346
Cl146	Cl	1.487206	-0.170799	0.292654
Cl147	Cl	0.854471	0.237165	0.412073
Cl148	Cl	1.354471	0.737165	0.912073
