data_functionalizedCrystal
_audit_creation_method	'MofGen! by Chris Wilmer'
_symmetry_space_group_name_H-M	'P1'
_symmetry_Int_Tables_number	1
_symmetry_cell_setting	triclinic
loop_
_symmetry_equiv_pos_as_xyz
  x,y,z
_cell_length_a	12.759401
_cell_length_b	19.121063
_cell_length_c	12.759393
_cell_angle_alpha	92.402917
_cell_angle_beta	89.981504
_cell_angle_gamma	92.469017
loop_
_atom_site_label
_atom_site_type_symbol
_atom_site_fract_x
_atom_site_fract_y
_atom_site_fract_z
Zn1	Zn	1.588321	-0.279568	-0.611771
Zn2	Zn	1.580680	-0.397037	-0.443567
Zn3	Zn	1.412621	-0.279605	-0.436113
Zn4	Zn	1.405080	-0.396983	-0.619205
O5	O	1.496676	-0.338298	-0.527664
O6	O	1.734328	-0.295158	-0.589467
O7	O	1.558345	-0.381497	-0.295559
O8	O	1.442282	-0.181316	-0.453184
O9	O	1.728714	-0.381462	-0.465888
O10	O	1.571368	-0.181289	-0.582240
O11	O	1.434872	-0.295221	-0.290083
O12	O	1.264600	-0.295168	-0.460392
O13	O	1.429429	-0.381370	-0.765237
O14	O	1.259060	-0.381405	-0.594909
O15	O	1.564056	-0.295106	-0.759776
O16	O	1.551032	-0.495314	-0.473095
O17	O	1.422020	-0.495274	-0.602136
C18	C	1.223709	-0.338285	-0.527649
C19	C	1.106932	-0.338297	-0.527668
C20	C	1.049208	-0.383272	-0.597605
C21	C	0.939483	-0.383281	-0.597616
C22	C	0.945216	-0.293337	-0.457747
C23	C	1.054939	-0.293325	-0.457741
C24	C	1.101200	-0.428244	-0.667532
C25	C	1.043476	-0.473224	-0.737473
C26	C	0.933751	-0.473233	-0.737485
C27	C	0.881751	-0.428262	-0.667556
C28	C	1.484907	-0.520778	-0.539254
C29	C	1.479969	-0.598844	-0.544247
C30	C	1.544871	-0.635516	-0.479464
C31	C	1.540233	-0.708867	-0.484167
C32	C	1.470686	-0.745544	-0.553648
C33	C	1.405781	-0.708866	-0.618438
C34	C	1.410426	-0.635517	-0.613740
C35	C	1.453305	-0.967013	-0.571195
C36	C	1.448663	-1.040368	-0.575886
C37	C	1.583116	-1.040364	-0.441616
C38	C	1.587750	-0.967013	-0.436920
C39	C	1.522849	-0.930341	-0.501714
C40	C	1.465941	-0.820521	-0.558454
C41	C	1.527600	-0.855366	-0.496912
C42	C	1.770708	-0.338312	-0.527680
C43	C	1.887484	-0.338318	-0.527686
C44	C	1.496754	-0.338227	-0.801693
C45	C	1.496787	-0.338197	-0.918468
C46	C	1.508518	-0.155106	-0.516052
C47	C	1.513565	-0.077040	-0.511103
C48	C	1.566897	-0.293275	-0.970488
C49	C	1.566923	-0.293250	-1.080210
C50	C	1.426727	-0.383075	-1.085884
C51	C	1.426696	-0.383096	-0.976163
C52	C	1.636987	-0.248377	-0.912792
C53	C	1.707103	-0.203452	-0.964812
C54	C	1.707130	-0.203426	-1.074535
C55	C	1.637040	-0.248326	-1.132237
C56	C	1.496661	-0.338318	-0.254698
C57	C	1.496844	-0.338151	-0.137911
H58	H	1.101940	-0.256697	-0.400800
C59	C	1.611633	-0.749203	-0.412905
C60	C	1.603758	-0.739190	-0.292819
C61	C	1.675167	-0.779523	-0.221557
C62	C	1.754451	-0.829870	-0.270379
C63	C	1.762329	-0.839885	-0.390470
C64	C	1.690920	-0.799552	-0.461733
H65	H	1.545065	-0.701918	-0.256673
H66	H	1.669335	-0.772108	-0.132657
H67	H	1.807313	-0.859727	-0.217626
H68	H	1.821022	-0.877157	-0.426617
H69	H	1.696752	-0.806967	-0.550633
H70	H	0.792406	-0.428267	-0.667580
C71	C	1.784196	-0.154063	-0.901345
C72	C	1.784175	-0.154088	-0.780656
C73	C	1.861269	-0.104698	-0.717192
C74	C	1.938385	-0.055281	-0.774415
C75	C	1.938410	-0.055253	-0.895111
C76	C	1.861315	-0.104644	-0.958575
H77	H	1.727086	-0.190671	-0.738290
H78	H	1.861251	-0.104719	-0.627845
H79	H	1.995455	-0.018719	-0.727435
H80	H	1.995499	-0.018671	-0.937477
H81	H	1.861334	-0.104623	-1.047922
H82	H	1.636976	-0.248394	-0.823451
H83	H	1.369591	-0.419664	-0.933807
H84	H	1.764214	-0.166841	-1.116886
H85	H	1.085822	-0.509833	-0.794413
C86	C	1.349644	-0.432471	-1.149351
C87	C	1.230572	-0.426742	-1.133903
C88	C	1.153492	-0.476143	-1.197367
C89	C	1.195483	-0.531273	-1.276279
C90	C	1.314560	-0.537005	-1.291730
C91	C	1.391640	-0.487603	-1.228266
H92	H	1.199483	-0.385929	-1.075484
H93	H	1.065343	-0.471900	-1.185928
H94	H	1.138423	-0.567843	-1.323259
H95	H	1.345649	-0.577818	-1.350149
H96	H	1.479789	-0.491847	-1.239705
H97	H	1.635956	-1.070229	-0.388866
C98	C	0.870253	-0.522705	-0.814420
C99	C	0.927447	-0.572169	-0.891335
C100	C	0.863951	-0.621645	-0.968269
C101	C	0.743260	-0.621659	-0.968288
C102	C	0.686059	-0.572193	-0.891370
C103	C	0.749555	-0.522717	-0.814436
H104	H	1.016796	-0.572160	-0.891324
H105	H	0.906296	-0.658263	-1.025209
H106	H	0.696256	-0.658284	-1.025239
H107	H	0.596710	-0.572202	-0.891382
H108	H	0.707210	-0.486099	-0.757496
H109	H	1.190543	-0.428243	-0.667528
H110	H	1.644380	-0.937152	-0.380343
H111	H	0.902869	-0.256725	-0.400813
C112	C	1.621374	-0.595175	-0.403034
C113	C	1.612228	-0.605332	-0.284241
C114	C	1.688736	-0.564993	-0.207811
C115	C	1.774391	-0.514496	-0.250174
C116	C	1.783541	-0.504336	-0.368973
C117	C	1.707033	-0.544675	-0.445403
H118	H	1.548818	-0.642716	-0.252875
H119	H	1.681962	-0.572514	-0.119868
H120	H	1.831027	-0.484634	-0.193597
H121	H	1.846952	-0.466952	-0.400339
H122	H	1.713807	-0.537154	-0.533346
H123	H	1.392042	-1.070228	-0.632484
C124	C	1.381912	-0.926685	-0.642470
C125	C	1.261837	-0.936843	-0.634449
C126	C	1.190441	-0.896514	-0.705730
C127	C	1.239119	-0.846027	-0.785033
C128	C	1.359200	-0.835867	-0.793057
C129	C	1.430596	-0.876196	-0.721776
H130	H	1.225797	-0.974218	-0.575741
H131	H	1.101549	-0.904035	-0.699790
H132	H	1.186268	-0.816173	-0.837800
H133	H	1.395240	-0.798491	-0.851765
H134	H	1.519488	-0.868674	-0.727716
H135	H	1.349159	-0.738734	-0.675015
H136	H	1.357577	-0.605658	-0.666494
H137	H	1.584229	-0.825502	-0.440345
H138	H	1.409314	-0.850391	-0.615023
H139	H	1.637056	-0.248293	-1.221580
