data_functionalizedCrystal
_audit_creation_method	'MofGen! by Chris Wilmer'
_symmetry_space_group_name_H-M	'P1'
_symmetry_Int_Tables_number	1
_symmetry_cell_setting	triclinic
loop_
_symmetry_equiv_pos_as_xyz
  x,y,z
_cell_length_a	14.044220
_cell_length_b	14.971486
_cell_length_c	13.448316
_cell_angle_alpha	89.996136
_cell_angle_beta	89.999800
_cell_angle_gamma	88.401503
loop_
_atom_site_label
_atom_site_type_symbol
_atom_site_fract_x
_atom_site_fract_y
_atom_site_fract_z
O1	O	-1.257952	-0.215660	0.082587
O2	O	-0.757952	0.284340	0.582587
O3	O	-0.981974	-0.207878	0.082612
O4	O	-0.481974	0.292122	0.582612
O5	O	-1.127360	-0.082152	0.082592
O6	O	-0.627360	0.417848	0.582592
O7	O	-1.112566	-0.341386	0.082608
O8	O	-0.612566	0.158614	0.582608
O9	O	-1.127345	-0.082149	-0.082792
O10	O	-0.627345	0.417851	0.417208
O11	O	-0.981960	-0.207876	-0.082771
O12	O	-0.481960	0.292124	0.417229
O13	O	-1.257938	-0.215658	-0.082797
O14	O	-0.757938	0.284342	0.417203
Cu15	Cu	-1.119947	-0.211766	-0.097885
Cu16	Cu	-0.619947	0.288234	0.402115
Cu17	Cu	-1.119964	-0.211769	0.097701
Cu18	Cu	-0.619964	0.288231	0.597701
O19	O	-1.112552	-0.341384	-0.082776
O20	O	-0.612552	0.158616	0.417224
C21	C	-0.946649	-0.204470	-0.000076
C22	C	-0.446649	0.295530	0.499924
C23	C	-0.841411	-0.194309	-0.000067
C24	C	-0.341411	0.305691	0.499933
C25	C	-1.126691	-0.048774	-0.000100
C26	C	-0.626691	0.451226	0.499900
C27	C	-1.124709	0.050680	-0.000098
C28	C	-0.624709	0.550680	0.499902
C29	C	-1.293263	-0.219065	-0.000106
C30	C	-0.793263	0.280935	0.499894
C31	C	-1.398500	-0.229227	-0.000109
C32	C	-0.898500	0.270773	0.499891
C33	C	-0.648729	-0.175732	-0.000088
C34	C	-0.148729	0.324268	0.499912
C35	C	-0.591177	-0.247799	-0.000088
C36	C	-0.091177	0.252201	0.499912
C37	C	-0.483962	-0.237463	-0.000099
C38	C	0.016038	0.262537	0.499901
C39	C	-0.755954	-0.186067	-0.000076
C40	C	-0.255954	0.313933	0.499924
C41	C	-1.113220	-0.374762	-0.000083
C42	C	-0.613220	0.125238	0.499917
C43	C	-1.115203	-0.474215	-0.000077
C44	C	-0.615203	0.025785	0.499923
N45	N	-1.119942	-0.211764	-0.235449
N46	N	-0.619942	0.288236	0.264551
C47	C	-1.210119	0.101176	-0.000107
C48	C	-0.710119	0.601176	0.499893
C49	C	-1.208250	0.194623	-0.000097
C50	C	-0.708250	0.694623	0.499903
C51	C	-1.120970	0.237571	-0.000085
C52	C	-0.620970	0.737571	0.499915
C53	C	-1.035554	0.187067	-0.000074
C54	C	-0.535554	0.687067	0.499926
C55	C	-1.037423	0.093623	-0.000077
C56	C	-0.537423	0.593623	0.499923
C57	C	-1.031663	0.381836	-0.000070
C58	C	-0.531663	0.881836	0.499930
C59	C	-1.029793	0.475288	-0.000069
C60	C	-0.529793	0.975288	0.499931
C61	C	-1.202490	0.482837	-0.000090
C62	C	-0.702490	0.982837	0.499910
C63	C	-1.204360	0.389392	-0.000093
C64	C	-0.704360	0.889392	0.499907
C65	C	-1.118942	0.338895	-0.000083
C66	C	-0.618942	0.838895	0.499917
C67	C	-1.177493	-0.270639	-0.287487
C68	C	-0.677493	0.229361	0.212513
C69	C	-1.177505	-0.270636	-0.391591
C70	C	-0.677505	0.229364	0.108409
C71	C	-1.119960	-0.211762	-0.443654
C72	C	-0.619960	0.288238	0.056346
C73	C	-1.062407	-0.152881	-0.391608
C74	C	-0.562407	0.347119	0.108392
C75	C	-1.062401	-0.152880	-0.287507
C76	C	-0.562401	0.347120	0.212493
C77	C	-1.062422	-0.152888	-0.608588
C78	C	-0.562422	0.347112	-0.108588
C79	C	-1.062426	-0.152890	-0.712697
C80	C	-0.562426	0.347110	-0.212697
C81	C	-1.177526	-0.270644	-0.712672
C82	C	-0.677526	0.229356	-0.212672
C83	C	-1.177520	-0.270644	-0.608571
C84	C	-0.677520	0.229356	-0.108571
C85	C	-1.119965	-0.211763	-0.556532
C86	C	-0.619965	0.288237	-0.056532
N87	N	-1.119977	-0.211765	0.235265
N88	N	-0.619977	0.288235	0.735265
H89	H	-0.617481	-0.106277	-0.000097
H90	H	-0.117481	0.393723	0.499903
N91	N	-0.935657	0.521611	-0.000049
N92	N	-0.435657	1.021611	0.499951
H93	H	-0.898246	0.503698	0.061270
H94	H	-0.398246	1.003698	0.561270
H95	H	-0.947518	0.588457	-0.000089
H96	H	-0.447518	1.088457	0.499911
H97	H	-1.272040	0.523957	-0.000094
H98	H	-0.772040	1.023957	0.499906
H99	H	-1.275430	0.354427	-0.000109
H100	H	-0.775430	0.854427	0.499891
N101	N	-1.239558	-0.334138	-0.231331
N102	N	-0.739558	0.165862	0.268669
H103	H	-1.220933	-0.397722	-0.249445
H104	H	-0.720933	0.102278	0.250555
H105	H	-1.308486	-0.321954	-0.249466
H106	H	-0.808486	0.178046	0.250534
N107	N	-0.945303	0.039153	-0.000062
N108	N	-0.445303	0.539153	0.499938
H109	H	-0.889727	0.080538	-0.000055
H110	H	-0.389727	0.580538	0.499945
H111	H	-0.942308	0.000220	-0.061370
H112	H	-0.442308	0.500220	0.438630
N113	N	-1.239625	-0.334116	-0.768819
N114	N	-0.739625	0.165884	-0.268819
H115	H	-1.308569	-0.321995	-0.750690
H116	H	-0.808569	0.178005	-0.250690
H117	H	-1.220939	-0.397684	-0.750705
H118	H	-0.720939	0.102316	-0.250705
N119	N	-1.239588	-0.334142	-0.552419
N120	N	-0.739588	0.165858	-0.052419
H121	H	-1.285936	-0.298917	-0.509227
H122	H	-0.785936	0.201083	-0.009227
H123	H	-1.198295	-0.374595	-0.509283
H124	H	-0.698295	0.125405	-0.009283
N125	N	-0.632564	-0.339810	-0.000049
N126	N	-0.132564	0.160190	0.499951
H127	H	-0.579215	-0.386467	-0.000043
H128	H	-0.079215	0.113533	0.499957
H129	H	-0.673127	-0.347236	-0.061348
H130	H	-0.173127	0.152764	0.438652
N131	N	-1.304257	0.054857	-0.000129
N132	N	-0.804257	0.554857	0.499871
H133	H	-1.358080	0.101030	-0.000131
H134	H	-0.858080	0.601030	0.499869
H135	H	-1.308802	0.016244	0.061178
H136	H	-0.808802	0.516244	0.561178
N137	N	-0.939536	0.327369	-0.000053
N138	N	-0.439536	0.827369	0.499947
H139	H	-0.883961	0.368754	-0.000048
H140	H	-0.383961	0.868754	0.499952
H141	H	-0.936546	0.288438	-0.061364
H142	H	-0.436546	0.788438	0.438636
H143	H	-1.277800	0.235734	-0.000106
H144	H	-0.777800	0.735734	0.499894
H145	H	-0.964489	0.222043	-0.000058
H146	H	-0.464489	0.722043	0.499942
H147	H	-1.224370	-0.318577	-0.433955
H148	H	-0.724370	0.181423	0.066045
H149	H	-1.015567	-0.104950	-0.755084
H150	H	-0.515567	0.395050	-0.255084
H151	H	-1.015556	-0.104940	-0.566222
H152	H	-0.515556	0.395060	-0.066222
H153	H	-1.015558	-0.104941	-0.434006
H154	H	-0.515558	0.395059	0.065994
H155	H	-1.015537	-0.104938	-0.245139
H156	H	-0.515537	0.395062	0.254861
