data_functionalizedCrystal
_audit_creation_method	'MofGen! by Chris Wilmer'
_symmetry_space_group_name_H-M	'P1'
_symmetry_Int_Tables_number	1
_symmetry_cell_setting	triclinic
loop_
_symmetry_equiv_pos_as_xyz
  x,y,z
_cell_length_a	6.817900
_cell_length_b	12.200875
_cell_length_c	12.200722
_cell_angle_alpha	93.008822
_cell_angle_beta	107.140920
_cell_angle_gamma	107.143593
loop_
_atom_site_label
_atom_site_type_symbol
_atom_site_fract_x
_atom_site_fract_y
_atom_site_fract_z
V1	V	-4.086871	-0.357783	-0.158974
V2	V	-3.586871	0.142217	0.341026
O3	O	-4.054179	-0.350847	0.007371
O4	O	-3.554179	0.149153	0.507371
O5	O	-4.056310	-0.355457	-0.314960
O6	O	-3.556310	0.144543	0.185040
O7	O	-4.056323	-0.513769	-0.156646
O8	O	-3.556323	-0.013769	0.343354
O9	O	-4.054166	-0.191438	-0.152039
O10	O	-3.554166	0.308562	0.347961
V11	V	-4.565875	-0.337872	-0.139063
V12	V	-4.065875	0.162128	0.360937
O13	O	-4.358044	-0.401459	-0.202649
O14	O	-3.858044	0.098541	0.297351
O15	O	-4.744899	-0.294196	-0.095387
O16	O	-4.244899	0.205804	0.404613
O17	O	-4.373230	-0.340199	0.016924
O18	O	-3.873230	0.159801	0.516924
O19	O	-4.715964	-0.344808	-0.305408
O20	O	-4.215964	0.155192	0.194592
O21	O	-4.715977	-0.504217	-0.145998
O22	O	-4.215977	-0.004217	0.354002
O23	O	-4.373217	-0.181886	-0.141391
O24	O	-3.873217	0.318114	0.358609
C25	C	-3.905073	-0.349844	-0.352982
C26	C	-3.405073	0.150156	0.147018
C27	C	-3.961491	-0.348981	-0.480504
C28	C	-3.461491	0.151019	0.019496
C29	C	-4.007301	-0.348270	-0.584064
C30	C	-3.507301	0.151730	-0.084064
C31	C	-4.064792	-0.347384	-0.713986
C32	C	-3.564792	0.152616	-0.213986
C33	C	-3.905088	-0.551786	-0.151036
C34	C	-3.405088	-0.051786	0.348964
C35	C	-3.961513	-0.679306	-0.150165
C36	C	-3.461513	-0.179306	0.349835
C37	C	-4.064778	-0.912780	-0.148571
C38	C	-3.564778	-0.412780	0.351429
C39	C	-4.007305	-0.782858	-0.149457
C40	C	-3.507305	-0.282858	0.350543
C41	C	-4.187809	-0.345808	0.054940
C42	C	-3.687809	0.154192	0.554940
C43	C	-4.110630	-0.346678	0.182460
C44	C	-3.610630	0.153322	0.682460
C45	C	-4.187793	-0.143863	-0.147005
C46	C	-3.687793	0.356137	0.352995
C47	C	-4.110606	-0.016342	-0.147870
C48	C	-3.610606	0.483658	0.352130
