data_functionalizedCrystal
_audit_creation_method	'MofGen! by Chris Wilmer'
_symmetry_space_group_name_H-M	'P1'
_symmetry_Int_Tables_number	1
_symmetry_cell_setting	triclinic
loop_
_symmetry_equiv_pos_as_xyz
  x,y,z
_cell_length_a	19.188930
_cell_length_b	19.188930
_cell_length_c	17.666332
_cell_angle_alpha	89.988397
_cell_angle_beta	89.976766
_cell_angle_gamma	83.144779
loop_
_atom_site_label
_atom_site_type_symbol
_atom_site_fract_x
_atom_site_fract_y
_atom_site_fract_z
O1	O	0.926150	0.087169	-0.063200
O2	O	1.426150	0.587169	0.436800
O3	O	0.722838	0.098903	-0.063149
O4	O	1.222838	0.598903	0.436851
O5	O	0.830361	-0.008620	-0.063161
O6	O	1.330361	0.491380	0.436839
O7	O	0.818627	0.194692	-0.063188
O8	O	1.318627	0.694692	0.436812
O9	O	0.830342	-0.008625	0.062735
O10	O	1.330342	0.491375	0.562735
O11	O	0.722820	0.098897	0.062747
O12	O	1.222820	0.598897	0.562747
O13	O	0.926131	0.087163	0.062697
O14	O	1.426131	0.587163	0.562697
Cu15	Cu	0.824473	0.093030	0.074217
Cu16	Cu	1.324473	0.593030	0.574217
Cu17	Cu	0.824496	0.093036	-0.074670
Cu18	Cu	1.324496	0.593036	0.425330
O19	O	0.818608	0.194686	0.062709
O20	O	1.318608	0.694686	0.562709
C21	C	0.696818	0.098520	-0.000194
C22	C	1.196818	0.598520	0.499806
C23	C	0.619313	0.097380	-0.000174
C24	C	1.119313	0.597380	0.499826
C25	C	0.829972	-0.034634	-0.000211
C26	C	1.329972	0.465366	0.499789
C27	C	0.828831	-0.112138	-0.000204
C28	C	1.328831	0.387862	0.499796
C29	C	0.574389	0.160470	-0.000194
C30	C	1.074389	0.660470	0.499806
C31	C	0.501566	0.159399	-0.000203
C32	C	1.001566	0.659399	0.499797
C33	C	0.473669	0.095233	-0.000206
C34	C	0.973669	0.595233	0.499794
C35	C	0.518603	0.032133	-0.000181
C36	C	1.018603	0.532133	0.499819
C37	C	0.591425	0.033207	-0.000166
C38	C	1.091425	0.533207	0.499834
N39	N	0.365695	0.046188	-0.043078
N40	N	0.865695	0.546188	0.456922
N41	N	0.296517	0.045172	-0.043095
N42	N	0.796517	0.545172	0.456905
C43	C	0.254260	0.091994	-0.000252
C44	C	0.754260	0.591994	0.499748
N45	N	0.283795	0.139881	0.042599
N46	N	0.783795	0.639881	0.542599
N47	N	0.352979	0.140899	0.042612
N48	N	0.852979	0.640899	0.542612
C49	C	0.394707	0.094062	-0.000222
C50	C	0.894707	0.594062	0.499778
C51	C	0.130372	0.153928	-0.000280
C52	C	0.630372	0.653928	0.499720
C53	C	0.057547	0.152853	-0.000283
C54	C	0.557547	0.652853	0.499717
C55	C	0.074586	0.025586	-0.000270
C56	C	0.574586	0.525586	0.499730
C57	C	0.147409	0.026662	-0.000258
C58	C	0.647409	0.526662	0.499742
C59	C	0.175298	0.090835	-0.000267
C60	C	0.675298	0.590835	0.499733
C61	C	0.891922	-0.157062	-0.000216
C62	C	1.391922	0.342938	0.499784
C63	C	0.890850	-0.229886	-0.000228
C64	C	1.390850	0.270114	0.499772
C65	C	0.826684	-0.257782	-0.000212
C66	C	1.326684	0.242218	0.499788
C67	C	0.763585	-0.212849	-0.000205
C68	C	1.263585	0.287151	0.499795
C69	C	0.764658	-0.140026	-0.000200
C70	C	1.264658	0.359974	0.499800
N71	N	0.777630	-0.365789	0.042645
N72	N	1.277630	0.134211	0.542645
N73	N	0.776615	-0.434968	0.042642
N74	N	1.276615	0.065032	0.542642
C75	C	0.823446	-0.477191	-0.000227
C76	C	1.323446	0.022809	0.499773
N77	N	0.871341	-0.447624	-0.043084
N78	N	1.371341	0.052376	0.456916
N79	N	0.872359	-0.378439	-0.043079
N80	N	1.372359	0.121561	0.456921
C81	C	0.825513	-0.336745	-0.000218
C82	C	1.325513	0.163255	0.499782
C83	C	0.885379	-0.601079	-0.000253
C84	C	1.385379	-0.101079	0.499747
C85	C	0.884305	-0.673904	-0.000270
C86	C	1.384305	-0.173904	0.499730
C87	C	0.757038	-0.656865	-0.000239
C88	C	1.257038	-0.156865	0.499761
C89	C	0.758114	-0.584042	-0.000230
C90	C	1.258114	-0.084042	0.499770
C91	C	0.822287	-0.556154	-0.000233
C92	C	1.322287	-0.056154	0.499767
C93	C	0.952151	0.087546	-0.000260
C94	C	1.452151	0.587546	0.499740
C95	C	1.029656	0.088687	-0.000285
C96	C	1.529656	0.588687	0.499715
C97	C	0.818997	0.220700	-0.000244
C98	C	1.318997	0.720700	0.499756
C99	C	0.820138	0.298204	-0.000255
C100	C	1.320138	0.798204	0.499745
N101	N	0.824463	0.093025	0.178937
N102	N	1.324463	0.593025	0.678937
N103	N	0.824512	0.093036	-0.179390
N104	N	1.324512	0.593036	0.320610
C105	C	0.872089	0.045437	0.218541
C106	C	1.372089	0.545437	0.718541
C107	C	0.872093	0.045433	0.297789
C108	C	1.372093	0.545433	0.797789
C109	C	0.824478	0.093030	0.337429
C110	C	1.324478	0.593030	0.837429
C111	C	0.776842	0.140621	0.297815
C112	C	1.276842	0.640621	0.797815
C113	C	0.776835	0.140619	0.218569
C114	C	1.276835	0.640619	0.718569
N115	N	0.815401	0.154837	0.461841
N116	N	1.315401	0.654837	0.961841
N117	N	0.815413	0.154837	0.537121
N118	N	1.315413	0.654837	1.037121
C119	C	0.824496	0.093040	0.576193
C120	C	1.324496	0.593040	1.076193
N121	N	0.833582	0.031239	0.537140
N122	N	1.333582	0.531239	1.037140
N123	N	0.833574	0.031240	0.461853
N124	N	1.333574	0.531240	0.961853
C125	C	0.824480	0.093038	0.423358
C126	C	1.324480	0.593038	0.923358
C127	C	0.872130	0.045444	0.701727
C128	C	1.372130	0.545444	1.201727
C129	C	0.872129	0.045440	0.780976
C130	C	1.372129	0.545440	1.280976
C131	C	0.776881	0.140634	0.781000
C132	C	1.276881	0.640634	1.281000
C133	C	0.776878	0.140632	0.701753
C134	C	1.276878	0.640632	1.201753
C135	C	0.824506	0.093038	0.662121
C136	C	1.324506	0.593038	1.162121
H137	H	0.597091	0.212725	-0.000203
H138	H	1.097091	0.712725	0.499797
Br139	Br	-0.003424	0.238485	-0.000304
Br140	Br	0.496576	0.738485	0.499696
Br141	Br	0.669953	-0.694717	-0.000225
Br142	Br	1.169953	-0.194717	0.499775
H143	H	0.937632	-0.578372	-0.000259
H144	H	1.437632	-0.078372	0.499741
H145	H	0.738099	0.179386	0.669505
H146	H	1.238099	0.679386	1.169505
Br147	Br	0.672486	-0.523070	-0.000212
Br148	Br	1.172486	-0.023070	0.499788
H149	H	0.711340	-0.235567	-0.000194
H150	H	1.211340	0.264433	0.499806
H151	H	0.713281	-0.103448	-0.000190
H152	H	1.213281	0.396552	0.499810
H153	H	0.935683	-0.710481	-0.000284
H154	H	1.435683	-0.210481	0.499716
H155	H	0.910869	0.006681	0.186275
H156	H	1.410869	0.506681	0.686275
Br157	Br	0.712252	0.205222	0.834791
Br158	Br	1.212252	0.705222	1.334791
Br159	Br	0.936764	-0.019149	0.647938
Br160	Br	1.436764	0.480851	1.147938
H161	H	0.738072	0.179374	0.330094
H162	H	1.238072	0.679374	0.830094
H163	H	0.910878	0.006680	0.330041
H164	H	1.410878	0.506680	0.830041
Br165	Br	0.480745	-0.054950	-0.000178
Br166	Br	0.980745	0.445050	0.499822
H167	H	0.051874	-0.026659	-0.000319
H168	H	0.551874	0.473341	0.499681
H169	H	0.464982	0.210776	-0.000217
H170	H	0.964982	0.710776	0.499783
Br171	Br	0.712194	0.205206	0.164815
Br172	Br	1.212194	0.705206	0.664815
Br173	Br	0.208382	-0.058966	-0.000233
Br174	Br	0.708382	0.441034	0.499767
Br175	Br	0.979013	-0.119216	-0.000242
Br176	Br	1.479013	0.380784	0.499758
Br177	Br	0.976479	-0.290866	-0.000248
Br178	Br	1.476479	0.209134	0.499752
Br179	Br	0.936763	-0.019155	0.834729
Br180	Br	1.436763	0.480845	1.334729
H181	H	0.153080	0.206181	-0.000276
H182	H	0.653080	0.706181	0.499724
Br183	Br	0.652398	-0.052423	-0.000137
Br184	Br	1.152398	0.447577	0.499863
