data_functionalizedCrystal
_audit_creation_method	'MofGen! by Chris Wilmer'
_symmetry_space_group_name_H-M	'P1'
_symmetry_Int_Tables_number	1
_symmetry_cell_setting	triclinic
loop_
_symmetry_equiv_pos_as_xyz
  x,y,z
_cell_length_a	11.792241
_cell_length_b	10.654546
_cell_length_c	9.130313
_cell_angle_alpha	90.001178
_cell_angle_beta	89.998583
_cell_angle_gamma	95.661551
loop_
_atom_site_label
_atom_site_type_symbol
_atom_site_fract_x
_atom_site_fract_y
_atom_site_fract_z
O1	O	0.159396	-1.667386	-0.121832
O2	O	0.174589	-1.301864	-0.121828
O3	O	0.001842	-1.493495	-0.121820
O4	O	0.332142	-1.475755	-0.121840
O5	O	0.001847	-1.493493	0.121779
O6	O	0.174593	-1.301861	0.121771
O7	O	0.159401	-1.667383	0.121767
Cu8	Cu	0.166997	-1.484622	0.144011
Cu9	Cu	0.166992	-1.484625	-0.144073
O10	O	0.332147	-1.475752	0.121759
C11	C	-0.040449	-1.492379	-0.000021
C12	C	-0.166470	-1.489044	-0.000022
C13	C	0.173476	-1.255068	-0.000028
C14	C	0.170141	-1.115634	-0.000026
C15	C	0.160513	-1.714179	-0.000037
C16	C	0.163848	-1.853613	-0.000048
C17	C	-0.397197	-1.482911	-0.000047
C18	C	-0.268804	-1.486318	-0.000034
C19	C	0.374438	-1.476868	-0.000044
C20	C	0.500460	-1.480203	-0.000052
N21	N	0.167001	-1.484629	0.346634
C22	C	0.168561	-1.050145	-0.132819
C23	C	0.165418	-0.919133	-0.132830
C24	C	0.165432	-0.919111	0.132755
C25	C	0.168583	-1.050119	0.132765
C26	C	0.170119	-1.115659	-0.265610
C27	C	0.168537	-1.050170	-0.398413
C28	C	0.165394	-0.919158	-0.398424
C29	C	0.163834	-0.853635	-0.265633
N30	N	0.166980	-1.484628	-0.346695
C31	C	0.090535	-1.569505	0.423289
C32	C	0.090521	-1.569502	0.576626
C33	C	0.243449	-1.399742	0.576638
C34	C	0.243456	-1.399741	0.423304
C35	C	0.014079	-1.654394	0.346619
C36	C	-0.062393	-1.739278	0.423275
C37	C	-0.062406	-1.739275	0.576611
C38	C	0.014051	-1.654387	0.653293
H39	H	0.169817	-1.103526	-0.506526
C40	C	0.269532	-1.183963	0.286839
C41	C	0.170319	-1.122111	0.278734
H42	H	0.270608	-1.228399	0.376961
H43	H	0.270909	-1.241725	0.207769
H44	H	0.334365	-1.123705	0.281307
H45	H	0.105485	-1.182370	0.284255
H46	H	0.168931	-1.064343	0.357826
H47	H	0.172675	-1.222335	-0.265615
H48	H	0.305699	-1.330632	0.639082
C49	C	0.037989	-1.772880	0.126978
C50	C	0.014087	-1.654404	0.178070
H51	H	0.037989	-1.772887	0.022924
H52	H	0.110674	-1.790532	0.161669
H53	H	-0.018498	-1.835569	0.161674
H54	H	0.070580	-1.591716	0.143383
H55	H	-0.058608	-1.636737	0.143364
H56	H	0.164118	-0.865839	-0.506559
H57	H	0.161287	-0.746955	-0.265653
H58	H	0.164160	-0.865752	0.240867
C59	C	-0.216661	-1.765435	0.250887
C60	C	-0.146481	-1.832552	0.339024
H61	H	-0.268584	-1.823013	0.198882
H62	H	-0.257885	-1.712868	0.310723
H63	H	-0.171107	-1.714919	0.183266
H64	H	-0.192035	-1.883061	0.406654
H65	H	-0.105253	-1.885140	0.279183
C66	C	-0.213561	-1.907079	0.561190
C67	C	-0.146462	-1.832574	0.660874
H68	H	-0.265447	-1.964687	0.613211
H69	H	-0.254827	-1.854533	0.501385
H70	H	-0.165913	-1.952561	0.501385
H71	H	-0.194109	-1.787084	0.720672
H72	H	-0.105193	-1.885126	0.720704
H73	H	0.014026	-1.654383	0.778150
H74	H	0.305721	-1.330626	0.360891
