data_functionalizedCrystal
_audit_creation_method	'MofGen! by Chris Wilmer'
_symmetry_space_group_name_H-M	'P1'
_symmetry_Int_Tables_number	1
_symmetry_cell_setting	triclinic
loop_
_symmetry_equiv_pos_as_xyz
  x,y,z
_cell_length_a	8.497374
_cell_length_b	8.497374
_cell_length_c	17.077404
_cell_angle_alpha	90.003463
_cell_angle_beta	89.998682
_cell_angle_gamma	90.005237
loop_
_atom_site_label
_atom_site_type_symbol
_atom_site_fract_x
_atom_site_fract_y
_atom_site_fract_z
Zn1	Zn	0.628320	0.892179	1.200049
Zn2	Zn	0.892066	0.628445	1.200043
Zn3	Zn	0.628295	0.628399	1.068818
Zn4	Zn	0.892053	0.892169	1.068799
O5	O	0.760183	0.760298	1.134427
O6	O	0.663322	0.857218	1.309895
O7	O	0.857071	0.407677	1.182641
O8	O	0.407536	0.663375	1.086236
O9	O	0.857095	0.663454	1.309891
O10	O	0.407554	0.857174	1.182652
O11	O	0.663279	0.407643	1.086230
O12	O	0.663267	0.663364	0.958968
O13	O	0.857074	1.112932	1.086204
O14	O	0.857049	0.857155	0.958955
O15	O	0.663310	1.112940	1.182633
O16	O	1.112826	0.663443	1.182623
O17	O	1.112817	0.857200	1.086198
C18	C	0.760155	0.760254	0.930479
C19	C	0.760180	0.760273	0.843230
C20	C	0.861235	0.861018	0.802253
C21	C	0.861238	0.861043	0.720272
C22	C	0.760194	0.760315	0.679270
C23	C	0.659128	0.659565	0.720253
C24	C	0.659118	0.659549	0.802232
C25	C	0.659160	0.659603	0.549383
C26	C	0.659171	0.659617	0.467398
C27	C	0.861280	0.861097	0.467423
C28	C	0.861270	0.861081	0.549402
C29	C	0.760206	0.760329	0.590379
C30	C	1.170063	0.760321	1.134417
C31	C	1.348707	0.760295	1.134438
C32	C	0.760186	1.171778	1.134421
C33	C	0.760202	1.350422	1.134423
C34	C	0.760213	0.760343	1.339171
C35	C	0.760226	0.760362	1.426421
H36	H	0.943522	0.943038	0.835631
Cl37	Cl	0.988309	0.987703	0.600947
H38	H	0.576821	0.577520	0.835594
Cl39	Cl	0.532149	0.532977	0.415853
H40	H	0.576848	0.577574	0.582744
Cl41	Cl	0.988285	0.987700	0.668762
H42	H	0.943565	0.943138	0.434056
H43	H	0.576850	0.577557	0.686862
