data_functionalizedCrystal
_audit_creation_method	'MofGen! by Chris Wilmer'
_symmetry_space_group_name_H-M	'P1'
_symmetry_Int_Tables_number	1
_symmetry_cell_setting	triclinic
loop_
_symmetry_equiv_pos_as_xyz
  x,y,z
_cell_length_a	17.699097
_cell_length_b	16.176319
_cell_length_c	9.065218
_cell_angle_alpha	89.995087
_cell_angle_beta	84.152143
_cell_angle_gamma	89.988305
loop_
_atom_site_label
_atom_site_type_symbol
_atom_site_fract_x
_atom_site_fract_y
_atom_site_fract_z
O1	O	-1.005528	0.068825	-0.186654
O2	O	-0.785340	0.068808	-0.210905
O3	O	-0.899985	0.068815	0.015997
O4	O	-0.890883	0.068818	-0.413556
O5	O	-0.899969	-0.068678	0.016012
O6	O	-0.785324	-0.068685	-0.210891
O7	O	-1.005512	-0.068668	-0.186639
Cu8	Cu	-0.895417	-0.081231	-0.198764
Cu9	Cu	-0.895436	0.081371	-0.198781
O10	O	-0.890867	-0.068675	-0.413542
C11	C	-0.757129	0.000060	-0.210026
C12	C	-0.673091	0.000053	-0.207409
N13	N	-0.895409	-0.195596	-0.198751
C14	C	-0.157256	0.075028	-0.191377
C15	C	-0.236219	0.075024	-0.193825
C16	C	-0.275686	0.000074	-0.195044
C17	C	-0.236186	-0.074878	-0.193799
C18	C	-0.157225	-0.074874	-0.191340
C19	C	-0.554628	-0.074896	-0.203715
C20	C	-0.633594	-0.074894	-0.206179
C21	C	-0.633622	0.075003	-0.206201
C22	C	-0.554661	0.075007	-0.203741
C23	C	-0.515168	0.000055	-0.202489
C24	C	-0.429548	0.000059	-0.199831
C25	C	-0.361305	0.000069	-0.197713
C26	C	-0.946189	-0.238857	-0.098319
C27	C	-0.946193	-0.325404	-0.098318
C28	C	-0.895419	-0.368688	-0.198756
C29	C	-0.844633	-0.325421	-0.299192
C30	C	-0.844626	-0.238876	-0.299186
C31	C	-0.844659	-0.674450	-0.299220
C32	C	-0.844672	-0.761001	-0.299222
C33	C	-0.946226	-0.760978	-0.098352
C34	C	-0.946219	-0.674432	-0.098345
C35	C	-0.895431	-0.631173	-0.198776
C36	C	-0.895426	-0.537329	-0.198774
C37	C	-0.895427	-0.462531	-0.198766
C38	C	-0.033724	0.000079	-0.187519
C39	C	-0.117762	0.000081	-0.190136
C40	C	-0.899103	0.000070	0.070965
C41	C	-0.896487	0.000074	0.234731
N42	N	-0.895449	0.195736	-0.198782
C43	C	-0.891750	0.000072	-0.468510
C44	C	-0.894365	0.000074	-0.632276
H45	H	-0.125127	0.136061	-0.190395
H46	H	-0.803307	-0.639234	-0.380996
F47	F	-0.115193	-0.154642	-0.190009
F48	F	-1.000235	-0.192799	0.008576
F49	F	-1.000239	-0.371446	0.008574
H50	H	-0.665786	0.136032	-0.207214
F51	F	-0.278249	0.154793	-0.195139
H52	H	-0.987567	-0.639193	-0.016564
F53	F	-0.790592	-0.371488	-0.406081
H54	H	-0.522530	0.136039	-0.202756
F55	F	-0.675596	-0.154670	-0.207475
H56	H	-0.522484	-0.135926	-0.202674
H57	H	-0.987579	-0.796209	-0.016571
H58	H	-0.268327	-0.135904	-0.194782
F59	F	-0.790628	-0.807066	-0.406126
F60	F	-0.790576	-0.192835	-0.406075
