data_functionalizedCrystal
_audit_creation_method	'MofGen! by Chris Wilmer'
_symmetry_space_group_name_H-M	'P1'
_symmetry_Int_Tables_number	1
_symmetry_cell_setting	triclinic
loop_
_symmetry_equiv_pos_as_xyz
  x,y,z
_cell_length_a	23.532355
_cell_length_b	23.532407
_cell_length_c	15.021413
_cell_angle_alpha	89.999348
_cell_angle_beta	89.998558
_cell_angle_gamma	82.838088
loop_
_atom_site_label
_atom_site_type_symbol
_atom_site_fract_x
_atom_site_fract_y
_atom_site_fract_z
O1	O	0.755282	0.068986	-0.073920
O2	O	0.589414	0.079021	-0.073950
O3	O	0.677350	-0.008929	-0.073918
O4	O	0.667346	0.156936	-0.073952
O5	O	0.677336	-0.008916	0.074147
O6	O	0.589400	0.079033	0.074115
O7	O	0.755268	0.068999	0.074144
Zn8	Zn	0.672332	0.074018	0.097638
Zn9	Zn	0.672350	0.074002	-0.097443
O10	O	0.667332	0.156949	0.074112
C11	C	0.568191	0.078776	0.000079
C12	C	0.504972	0.078022	0.000068
C13	C	0.112951	0.073291	0.080816
C14	C	0.053551	0.072573	0.080820
O15	O	0.022826	0.072189	0.149460
N16	N	0.023850	0.072211	0.000111
C17	C	0.053553	0.072560	-0.080608
O18	O	0.022836	0.072185	-0.149257
C19	C	0.112952	0.073273	-0.080610
C20	C	0.142649	0.073641	0.000104
C21	C	0.142648	0.073658	0.161525
C22	C	0.202043	0.074377	0.161521
C23	C	0.231741	0.074728	0.080809
C24	C	0.202044	0.074360	0.000100
C25	C	0.142654	0.073618	-0.161328
C26	C	0.202057	0.074331	-0.161323
C27	C	0.231754	0.074699	-0.080609
C28	C	0.291137	0.075429	-0.080616
N29	N	0.320838	0.075792	0.000094
C30	C	0.291140	0.075441	0.080806
C31	C	-0.071189	0.071061	-0.080596
C32	C	-0.130587	0.070351	-0.080594
C33	C	-0.130584	0.070364	0.080834
C34	C	-0.071185	0.071077	0.080831
C35	C	-0.041488	0.071423	0.000114
C36	C	0.415874	0.076950	0.080792
C37	C	0.475274	0.077671	0.080781
C38	C	0.475267	0.077656	-0.080647
C39	C	0.415871	0.076938	-0.080636
C40	C	0.386177	0.076583	0.000090
O41	O	0.321900	0.075812	-0.149220
O42	O	0.321865	0.075808	0.149444
C43	C	0.677088	-0.030139	0.000117
C44	C	0.676322	-0.093356	0.000124
C45	C	0.723557	-0.492468	0.000083
C46	C	0.722845	-0.551868	0.000076
O47	O	0.766632	-0.588620	0.000051
N48	N	0.670568	-0.574484	0.000068
C49	C	0.618998	-0.537697	0.000057
O50	O	0.574467	-0.562388	0.000048
C51	C	0.619710	-0.478298	0.000057
C52	C	0.671991	-0.455685	0.000075
C53	C	0.775834	-0.469854	0.000100
C54	C	0.776545	-0.410458	0.000108
C55	C	0.724979	-0.373676	0.000100
C56	C	0.672703	-0.396289	0.000084
C57	C	0.568141	-0.441512	0.000040
C58	C	0.568858	-0.382110	0.000040
C59	C	0.621139	-0.359497	0.000058
C60	C	0.621848	-0.300110	0.000084
N61	N	0.674126	-0.277494	0.000093
C62	C	0.725691	-0.314277	0.000101
C63	C	0.617507	-0.662439	0.000054
C64	C	0.616794	-0.721837	0.000060
C65	C	0.720642	-0.736004	0.000078
C66	C	0.721354	-0.676605	0.000078
C67	C	0.669784	-0.639823	0.000063
C68	C	0.727181	-0.189540	0.000119
C69	C	0.727888	-0.130138	0.000132
C70	C	0.624041	-0.115977	0.000109
C71	C	0.623334	-0.175373	0.000102
C72	C	0.674909	-0.212154	0.000104
O73	O	0.578084	-0.263323	0.000105
O74	O	0.770216	-0.289577	0.000098
C75	C	0.776491	0.069244	0.000114
C76	C	0.839710	0.069998	0.000118
C77	C	0.667594	0.178158	0.000076
C78	C	0.668360	0.241375	0.000063
N79	N	0.672323	0.074029	0.230775
N80	N	0.672363	0.073986	-0.230581
C81	C	0.631656	0.114678	0.470444
C82	C	0.683057	0.125431	0.529785
C83	C	0.672338	0.074015	0.412382
C84	C	0.620951	0.063274	0.529783
C85	C	0.672348	0.074002	0.587806
C86	C	0.723765	0.084793	0.470417
C87	C	0.661626	0.022614	0.470410
C88	C	0.713064	0.033345	0.529724
C89	C	0.672332	0.074023	0.311325
C90	C	0.672360	0.073993	0.688862
H91	H	-0.154775	0.070077	0.146554
O92	O	0.573916	-0.080297	-0.000022
C93	C	0.542173	-0.090487	-0.076731
H94	H	0.556418	-0.135632	-0.102290
H95	H	0.549788	-0.058042	-0.130425
C96	C	0.460476	-0.029018	-0.022073
C97	C	0.477968	-0.084467	-0.053461
H98	H	0.420871	-0.025302	-0.007721
H99	H	0.481862	-0.022151	0.029606
H100	H	0.466826	-0.001987	-0.066823
H101	H	0.471624	-0.111497	-0.008707
H102	H	0.456579	-0.091339	-0.105132
H103	H	0.226217	0.074673	0.227247
H104	H	0.747509	-0.001050	0.555589
O105	O	0.770749	-0.771718	0.000235
C106	C	0.802516	-0.761514	0.076911
H107	H	0.772332	-0.741038	0.130509
H108	H	0.835311	-0.731458	0.059580
C109	C	0.870762	-0.843776	0.045846
C110	C	0.833689	-0.818631	0.111679
H111	H	0.889994	-0.879008	0.067291
H112	H	0.849362	-0.850650	-0.005815
H113	H	0.898086	-0.818723	0.031409
H114	H	0.806362	-0.843680	0.126106
H115	H	0.855086	-0.811763	0.163343
O116	O	0.650719	-0.029170	0.439156
C117	C	0.600859	-0.021911	0.386232
H118	H	0.593525	0.023931	0.360241
H119	H	0.562507	-0.030864	0.427985
C120	C	0.617120	-0.120118	0.339053
C121	C	0.608114	-0.063815	0.307124
H122	H	0.621593	-0.145968	0.290257
H123	H	0.650710	-0.125010	0.374711
H124	H	0.585157	-0.127571	0.373847
H125	H	0.640079	-0.056361	0.272340
H126	H	0.574529	-0.058923	0.271458
O127	O	0.386961	0.076684	0.159151
C128	C	0.345877	0.125608	0.163987
H129	H	0.334726	0.141938	0.093907
H130	H	0.364056	0.160433	0.203799
C131	C	0.305201	0.089891	0.296228
C132	C	0.291501	0.109945	0.210155
H133	H	0.271660	0.080231	0.324710
H134	H	0.332881	0.056931	0.292973
H135	H	0.320351	0.118915	0.329394
H136	H	0.276358	0.080919	0.176988
H137	H	0.263818	0.142900	0.213406
O138	O	0.113889	0.073346	0.240015
C139	C	0.152851	0.073809	0.311237
H140	H	0.192730	0.092344	0.287552
H141	H	0.165406	0.028191	0.336069
C142	C	0.075603	0.088131	0.416579
C143	C	0.124581	0.110901	0.387490
H144	H	0.058164	0.111009	0.463618
H145	H	0.049353	0.087817	0.368596
H146	H	0.086072	0.050117	0.437266
H147	H	0.114110	0.148911	0.366794
H148	H	0.150829	0.111222	0.435472
H149	H	-0.047013	0.071348	-0.146330
H150	H	0.577490	0.054196	0.555863
O151	O	-0.042424	0.071404	0.159316
C152	C	-0.081383	0.070957	0.230549
H153	H	-0.121263	0.052417	0.206885
H154	H	-0.093937	0.116580	0.255356
C155	C	-0.004130	0.056659	0.335880
C156	C	-0.053110	0.033882	0.306817
H157	H	0.013310	0.033791	0.382928
H158	H	0.022118	0.056961	0.287890
H159	H	-0.014598	0.094677	0.356547
H160	H	-0.042640	-0.004133	0.286140
H161	H	-0.079355	0.033572	0.354805
O162	O	0.775571	0.095744	0.439297
C163	C	0.774931	0.095648	0.345440
H164	H	0.728862	0.104831	0.320891
H165	H	0.794666	0.051959	0.319996
C166	C	0.866386	0.130876	0.340602
C167	C	0.809804	0.142160	0.310450
H168	H	0.887900	0.159565	0.319017
H169	H	0.866819	0.130939	0.403834
H170	H	0.882824	0.094468	0.319396
H171	H	0.793365	0.178565	0.331665
H172	H	0.809369	0.142105	0.247220
H173	H	0.770463	-0.111731	0.000148
O174	O	0.825891	-0.505638	0.000228
C175	C	0.828590	-0.540409	0.076925
H176	H	0.783400	-0.543165	0.102478
H177	H	0.854475	-0.521006	0.130628
C178	C	0.913116	-0.597495	0.022257
C179	C	0.857613	-0.600883	0.053637
H180	H	0.931022	-0.634797	0.007895
H181	H	0.911300	-0.574067	-0.029414
H182	H	0.934680	-0.581323	0.067015
H183	H	0.836048	-0.617047	0.008876
H184	H	0.859427	-0.624314	0.105301
O185	O	-0.159484	0.069924	-0.158944
C186	C	-0.187095	0.020170	-0.163779
H187	H	-0.193753	0.003621	-0.093700
H188	H	-0.159483	-0.014099	-0.203600
C189	C	-0.237381	0.054796	-0.296008
C190	C	-0.245564	0.034473	-0.209934
H191	H	-0.273447	0.063618	-0.324482
H192	H	-0.218778	0.088315	-0.292752
H193	H	-0.214370	0.026235	-0.329180
H194	H	-0.268569	0.063037	-0.176760
H195	H	-0.264172	0.000959	-0.213185
O196	O	0.386970	0.076509	-0.158986
C197	C	0.359364	0.026752	-0.163819
H198	H	0.352708	0.010203	-0.093739
H199	H	0.386978	-0.007516	-0.203640
C200	C	0.309073	0.061373	-0.296047
C201	C	0.300894	0.041050	-0.209973
H202	H	0.273007	0.070190	-0.324520
H203	H	0.327673	0.094894	-0.292793
H204	H	0.332087	0.032813	-0.329220
H205	H	0.277887	0.069612	-0.176799
H206	H	0.282289	0.007533	-0.213222
O207	O	0.113908	0.073229	-0.239815
C208	C	0.152868	0.073701	-0.311042
H209	H	0.197668	0.056187	-0.287358
H210	H	0.152946	0.119468	-0.335883
C211	C	0.079776	0.057559	-0.416372
C212	C	0.134800	0.036044	-0.387285
H213	H	0.068631	0.034333	-0.463405
H214	H	0.053527	0.057244	-0.368386
H215	H	0.079849	0.095698	-0.437067
H216	H	0.134725	-0.002092	-0.366581
H217	H	0.161049	0.036352	-0.435270
H218	H	0.819117	-0.392053	0.000119
H219	H	0.499450	0.077973	0.146511
H220	H	0.226233	0.074613	-0.227055
H221	H	0.499457	0.077944	-0.146361
H222	H	0.769178	-0.219481	0.000118
H223	H	0.763925	-0.658198	0.000092
O224	O	0.565958	-0.743705	0.000013
C225	C	0.520602	-0.698495	0.000032
H226	H	0.536339	-0.658232	-0.027991
H227	H	0.504707	-0.690001	0.071064
C228	C	0.451943	-0.764427	-0.023628
C229	C	0.471270	-0.714975	-0.058053
H230	H	0.421511	-0.774593	-0.059453
H231	H	0.482500	-0.794886	-0.023637
H232	H	0.438701	-0.757342	0.035565
H233	H	0.484518	-0.722063	-0.117240
H234	H	0.440714	-0.684518	-0.058055
H235	H	0.575510	-0.632494	0.000049
H236	H	0.597287	0.149093	0.444416
H237	H	0.525569	-0.459912	0.000020
O238	O	0.518725	-0.346437	-0.000092
C239	C	0.486981	-0.356632	-0.076798
H240	H	0.501235	-0.401772	-0.102365
H241	H	0.494585	-0.324181	-0.130489
C242	C	0.405275	-0.295183	-0.022122
C243	C	0.422778	-0.350628	-0.053519
H244	H	0.365671	-0.291477	-0.007765
H245	H	0.426661	-0.288313	0.029554
H246	H	0.411616	-0.268147	-0.066870
H247	H	0.416443	-0.377662	-0.008768
H248	H	0.401388	-0.357502	-0.105188
O249	O	0.572586	-0.197412	-0.000026
C250	C	0.569070	-0.231328	-0.076731
H251	H	0.614047	-0.246374	-0.102290
H252	H	0.543726	-0.204934	-0.130427
C253	C	0.483465	-0.265223	-0.022068
C254	C	0.538707	-0.283707	-0.053455
H255	H	0.464734	-0.297532	-0.007712
H256	H	0.485832	-0.242372	0.029609
H257	H	0.462352	-0.243228	-0.066820
H258	H	0.559821	-0.305696	-0.008700
H259	H	0.536342	-0.306563	-0.105124
O260	O	0.693781	0.177320	0.560865
C261	C	0.650795	0.220079	0.530650
H262	H	0.610502	0.199894	0.513998
H263	H	0.666436	0.241264	0.468558
C264	C	0.686629	0.290225	0.624466
C265	C	0.637139	0.265434	0.604022
H266	H	0.678206	0.318205	0.669723
H267	H	0.715591	0.261419	0.644821
H268	H	0.699658	0.307876	0.572717
H269	H	0.624115	0.247779	0.655768
H270	H	0.608174	0.294239	0.583678
