data_functionalizedCrystal
_audit_creation_method	'MofGen! by Chris Wilmer'
_symmetry_space_group_name_H-M	'P1'
_symmetry_Int_Tables_number	1
_symmetry_cell_setting	triclinic
loop_
_symmetry_equiv_pos_as_xyz
  x,y,z
_cell_length_a	18.101398
_cell_length_b	18.101395
_cell_length_c	18.050571
_cell_angle_alpha	90.086801
_cell_angle_beta	90.052556
_cell_angle_gamma	90.025910
loop_
_atom_site_label
_atom_site_type_symbol
_atom_site_fract_x
_atom_site_fract_y
_atom_site_fract_z
Zn1	Zn	-1.132442	0.294499	-0.419715
Zn2	Zn	-1.132243	0.418476	-0.295528
Zn3	Zn	-1.008506	0.294641	-0.295561
Zn4	Zn	-1.008552	0.418292	-0.419699
O5	O	-1.070436	0.356477	-0.357626
O6	O	-1.236049	0.310962	-0.403234
O7	O	-1.115727	0.402185	-0.191608
O8	O	-1.025011	0.190989	-0.312051
O9	O	-1.235902	0.402047	-0.311994
O10	O	-1.116066	0.190885	-0.403266
O11	O	-1.024818	0.311205	-0.191632
O12	O	-0.904879	0.311026	-0.312036
O13	O	-1.025089	0.401734	-0.523626
O14	O	-0.904913	0.401872	-0.403240
O15	O	-1.116110	0.310784	-0.523638
O16	O	-1.115771	0.522084	-0.311979
O17	O	-1.024896	0.521949	-0.403207
C18	C	-0.878025	0.356445	-0.357640
C19	C	-0.795711	0.356450	-0.357664
C20	C	-0.496620	0.356489	-0.357639
C21	C	-0.527991	0.413924	-0.414738
C22	C	-0.613610	0.413745	-0.414971
C23	C	-0.645003	0.356470	-0.357651
C24	C	-0.613965	0.278445	-0.379038
C25	C	-0.528320	0.278789	-0.379445
C26	C	-0.528107	0.376392	-0.279015
C27	C	-0.613758	0.378104	-0.279434
C28	C	-0.728862	0.356455	-0.357657
C29	C	-0.412761	0.356500	-0.357635
C30	C	-1.070337	0.548888	-0.357604
C31	C	-1.070362	0.631202	-0.357620
C32	C	-1.070627	0.356222	-0.551332
C33	C	-1.070708	0.356114	-0.633878
C34	C	-0.263598	0.356506	-0.357617
C35	C	-0.345912	0.356510	-0.357626
C36	C	-1.070556	0.163315	-0.357664
C37	C	-1.070607	0.081001	-0.357680
C38	C	-1.070525	0.930292	-0.357660
C39	C	-1.013481	0.898913	-0.415200
C40	C	-1.013210	0.813295	-0.415020
C41	C	-1.070444	0.781910	-0.357640
C42	C	-1.049255	0.813140	-0.279375
C43	C	-1.048887	0.898785	-0.279719
C44	C	-1.148882	0.898622	-0.377695
C45	C	-1.148422	0.812970	-0.379412
C46	C	-1.070400	0.698050	-0.357625
C47	C	-1.070567	1.014152	-0.357670
C48	C	-1.070288	0.356677	-0.164673
C49	C	-1.070350	0.356577	-0.082128
C50	C	-1.020748	0.307196	0.166646
C51	C	-1.003040	0.374937	0.117460
C52	C	-1.070587	0.356272	0.214992
C53	C	-1.088143	0.288685	0.117097
C54	C	-1.070469	0.356418	0.069007
C55	C	-1.052846	0.424048	0.166893
C56	C	-1.137979	0.337750	0.166534
C57	C	-1.120297	0.405538	0.117370
C58	C	-1.070654	0.356186	0.299090
C59	C	-1.070403	0.356511	-0.015089
H60	H	-0.507568	0.234458	-0.339764
H61	H	-0.634298	0.234489	-0.338746
H62	H	-0.507366	0.471970	-0.401485
O63	O	-1.170436	0.455279	0.091748
C64	C	-1.151599	0.526493	0.117281
H65	H	-1.090179	0.528322	0.131182
H66	H	-1.164272	0.568785	0.072300
H67	H	-1.185114	0.539959	0.169007
O68	O	-0.980602	0.922843	-0.259459
C69	C	-0.979371	1.000725	-0.259531
H70	H	-1.038020	1.022633	-0.252798
H71	H	-0.943674	1.021291	-0.211691
H72	H	-0.955426	1.021227	-0.314159
O73	O	-0.502219	0.443046	-0.255736
C74	C	-0.462607	0.433944	-0.189083
H75	H	-0.442486	0.374441	-0.184701
H76	H	-0.413139	0.472941	-0.188506
H77	H	-0.500163	0.447088	-0.140145
H78	H	-1.026614	0.919401	-0.473422
H79	H	-1.037882	0.481283	0.188670
H80	H	-0.955131	0.792880	-0.401750
H81	H	-0.634049	0.435520	-0.263304
H82	H	-0.978620	0.265684	0.188284
H83	H	-0.945998	0.390671	0.095900
H84	H	-1.195005	0.321998	0.188112
H85	H	-1.103043	0.231467	0.095232
H86	H	-1.088630	0.919552	-0.235386
H87	H	-0.634594	0.471602	-0.401567
O88	O	-1.097300	0.788805	-0.226917
C89	C	-1.150958	0.743092	-0.260301
H90	H	-1.128161	0.719609	-0.314269
H91	H	-1.165381	0.695855	-0.221192
H92	H	-1.202718	0.776844	-0.272438
H93	H	-0.506525	0.400916	-0.472656
H94	H	-1.164400	0.792548	-0.437011
O95	O	-0.638031	0.398115	-0.484520
C96	C	-0.611817	0.452192	-0.534119
H97	H	-0.560333	0.479452	-0.510009
H98	H	-0.597550	0.425084	-0.589325
H99	H	-0.656369	0.495767	-0.543130
H100	H	-0.992581	0.791768	-0.262096
H101	H	-0.508403	0.261917	-0.436922
H102	H	-0.635473	0.261271	-0.435889
H103	H	-0.635124	0.339316	-0.234605
H104	H	-0.507816	0.334558	-0.236471
H105	H	-1.026474	0.792172	-0.473054
H106	H	-0.955755	0.920508	-0.402097
H107	H	-1.193176	0.791601	-0.340556
O108	O	-1.171791	0.924298	-0.444647
C109	C	-1.117323	0.971358	-0.474409
H110	H	-1.061450	0.957672	-0.448686
H111	H	-1.114382	0.963201	-0.536973
H112	H	-1.132092	1.031253	-0.461636
H113	H	-1.191382	0.918920	-0.335786
