data_functionalizedCrystal
_audit_creation_method	'MofGen! by Chris Wilmer'
_symmetry_space_group_name_H-M	'P1'
_symmetry_Int_Tables_number	1
_symmetry_cell_setting	triclinic
loop_
_symmetry_equiv_pos_as_xyz
  x,y,z
_cell_length_a	15.625020
_cell_length_b	10.540510
_cell_length_c	14.185569
_cell_angle_alpha	76.714084
_cell_angle_beta	85.694396
_cell_angle_gamma	84.366434
loop_
_atom_site_label
_atom_site_type_symbol
_atom_site_fract_x
_atom_site_fract_y
_atom_site_fract_z
O1	O	1.081467	0.330024	-0.476857
O2	O	0.840411	0.319553	-0.389160
O3	O	0.966451	0.140704	-0.435014
O4	O	0.955426	0.508872	-0.431004
O5	O	1.003685	0.087877	-0.281725
O6	O	0.877644	0.266725	-0.235871
O7	O	1.118701	0.277196	-0.323568
Cu8	Cu	1.001572	0.267137	-0.265723
Cu9	Cu	0.957539	0.329612	-0.447005
O10	O	0.992660	0.456045	-0.277715
C11	C	0.828161	0.288376	-0.301287
C12	C	0.736187	0.274167	-0.267827
C13	C	0.626848	0.225346	-0.137115
C14	C	0.713268	0.238700	-0.168565
C15	C	0.672687	0.296286	-0.335678
C16	C	0.586261	0.282930	-0.304241
C17	C	0.563349	0.247461	-0.204959
C18	C	0.522763	0.305046	-0.372086
C19	C	0.436345	0.291697	-0.340651
C20	C	0.413425	0.256233	-0.241373
C21	C	0.476931	0.234112	-0.173524
C22	C	0.545676	0.340524	-0.471368
C23	C	0.482178	0.362639	-0.539212
C24	C	0.395759	0.349282	-0.507778
C25	C	0.372839	0.313818	-0.408500
C26	C	0.332252	0.371402	-0.575627
C27	C	0.245834	0.358054	-0.544193
C28	C	0.286420	0.300469	-0.377066
C29	C	0.984246	0.066894	-0.358072
C30	C	0.981787	-0.074332	-0.357184
C31	C	1.069432	-0.281983	-0.388687
C32	C	1.071969	-0.134969	-0.389991
C33	C	0.914361	-0.094158	-0.427923
C34	C	0.912361	-0.241120	-0.427270
C35	C	0.952824	-0.301216	-0.252268
C36	C	0.957382	-0.154787	-0.252672
C37	C	1.130950	0.308374	-0.411444
C38	C	1.222922	0.322584	-0.444910
C39	C	0.974865	0.529855	-0.354658
C40	C	0.977322	0.671084	-0.355553
N41	N	1.032548	0.223196	-0.138221
N42	N	0.926569	0.373543	-0.574509
C43	C	0.835560	0.502587	0.301093
C44	C	0.859030	0.469312	0.397576
C45	C	0.970662	0.311008	0.356925
C46	C	0.947199	0.344266	0.260438
C47	C	0.879648	0.440057	0.232530
C48	C	0.991286	0.281736	0.191874
C49	C	0.967827	0.314997	0.095394
C50	C	0.900281	0.410787	0.067477
C51	C	0.856189	0.473318	0.136049
C52	C	1.058841	0.185952	0.219783
C53	C	1.102929	0.123422	0.151220
C54	C	1.079466	0.156676	0.054739
C55	C	1.011920	0.252466	0.026822
C56	C	1.123558	0.094145	-0.013833
C57	C	1.100100	0.127405	-0.110313
C58	C	0.988461	0.285726	-0.069658
H59	H	0.500845	0.391523	-0.620048
H60	H	0.608191	0.196479	-0.056268
O61	O	1.147625	0.059958	-0.184280
H62	H	1.216796	0.078015	-0.189321
H63	H	0.194131	0.376066	-0.599438
O64	O	1.140015	-0.119298	-0.324304
H65	H	1.171405	-0.216898	-0.291320
O66	O	1.043520	0.207695	0.387025
H67	H	1.018981	0.126326	0.443801
O68	O	0.356969	0.409644	-0.682708
H69	H	0.427730	0.415201	-0.693168
H70	H	1.178565	0.016159	0.008901
O71	O	0.762682	0.605884	0.271006
H72	H	0.711432	0.562371	0.241834
H73	H	0.843947	-0.270395	-0.406697
H74	H	1.077941	0.158880	0.298344
O75	O	0.781762	0.214835	-0.095387
H76	H	0.751308	0.187920	-0.021072
H77	H	0.997599	-0.363015	-0.196343
H78	H	0.881184	0.437870	-0.011085
O79	O	0.933471	-0.259575	-0.529142
H80	H	0.885089	-0.200420	-0.578224
H81	H	1.157932	0.045431	0.173954
O82	O	1.022699	-0.141401	-0.183069
H83	H	1.072340	-0.077709	-0.222732
O84	O	1.095625	-0.305863	-0.488203
H85	H	1.107356	-0.211428	-0.539148
O86	O	1.136174	-0.360900	-0.322453
H87	H	1.104416	-0.434431	-0.265216
O88	O	0.697412	0.334516	-0.442757
H89	H	0.728943	0.427558	-0.458587
O90	O	0.638881	0.354933	-0.505288
H91	H	0.677309	0.260432	-0.480022
O92	O	1.099853	-0.063181	-0.490762
H93	H	1.164892	-0.104434	-0.511108
O94	O	0.825369	-0.039862	-0.400259
H95	H	0.828261	0.001936	-0.335646
H96	H	0.267764	0.271602	-0.296219
O97	O	0.936066	-0.019184	-0.529739
H98	H	0.994787	0.032316	-0.530169
H99	H	0.892826	-0.115006	-0.223434
H100	H	0.933448	0.363719	-0.092378
O101	O	0.863333	-0.341010	-0.218841
H102	H	0.836403	-0.380335	-0.275460
H103	H	0.801176	0.551311	0.113329
H104	H	0.343056	0.245372	-0.215781
O105	O	0.811476	0.536755	0.471534
H106	H	0.742311	0.518665	0.476567
O107	O	0.452206	0.195854	-0.066440
H108	H	0.510878	0.182720	-0.024539
