data_functionalizedCrystal
_audit_creation_method	'MofGen! by Chris Wilmer'
_symmetry_space_group_name_H-M	'P1'
_symmetry_Int_Tables_number	1
_symmetry_cell_setting	triclinic
loop_
_symmetry_equiv_pos_as_xyz
  x,y,z
_cell_length_a	29.839134
_cell_length_b	29.839131
_cell_length_c	29.839125
_cell_angle_alpha	89.974637
_cell_angle_beta	89.978020
_cell_angle_gamma	90.030088
loop_
_atom_site_label
_atom_site_type_symbol
_atom_site_fract_x
_atom_site_fract_y
_atom_site_fract_z
Zn1	Zn	0.686739	-0.178978	-0.254101
Zn2	Zn	1.186739	0.321022	0.245899
Zn3	Zn	0.686679	-0.254090	-0.178961
Zn4	Zn	1.186679	0.245910	0.321039
Zn5	Zn	0.611622	-0.178968	-0.178971
Zn6	Zn	1.111622	0.321032	0.321029
Zn7	Zn	0.611578	-0.254075	-0.254049
Zn8	Zn	1.111578	0.245925	0.245951
O9	O	0.649154	-0.216528	-0.216521
O10	O	1.149154	0.283472	0.283479
O11	O	0.749598	-0.188952	-0.244151
O12	O	1.249598	0.311048	0.255849
O13	O	0.676716	-0.244127	-0.116095
O14	O	1.176716	0.255873	0.383905
O15	O	0.621630	-0.116102	-0.188963
O16	O	1.121630	0.383898	0.311037
O17	O	0.749554	-0.244137	-0.188946
O18	O	1.249554	0.255863	0.311054
O19	O	0.676818	-0.116109	-0.244161
O20	O	1.176818	0.383891	0.255839
O21	O	0.621572	-0.188935	-0.116102
O22	O	1.121572	0.311065	0.383898
O23	O	0.548749	-0.188921	-0.188912
O24	O	1.048749	0.311079	0.311088
O25	O	0.621554	-0.244111	-0.316923
O26	O	1.121554	0.255889	0.183077
O27	O	0.548716	-0.244101	-0.244072
O28	O	1.048716	0.255899	0.255928
O29	O	0.676775	-0.188937	-0.316961
O30	O	1.176775	0.311063	0.183039
O31	O	0.676673	-0.316955	-0.188896
O32	O	1.176673	0.183045	0.311104
O33	O	0.621497	-0.316944	-0.244063
O34	O	1.121497	0.183056	0.255937
C35	C	0.532432	-0.216509	-0.216488
C36	C	1.032432	0.283491	0.283512
C37	C	0.482497	-0.216511	-0.216485
C38	C	0.982497	0.283489	0.283515
C39	C	0.172847	-0.245303	-0.245207
C40	C	0.672847	0.254697	0.254793
C41	C	-0.014827	-0.245315	-0.245227
C42	C	0.485173	0.254685	0.254773
O43	O	-0.039098	-0.269774	-0.269629
O44	O	0.460902	0.230226	0.230371
N45	N	-0.038288	-0.216544	-0.216554
N46	N	0.461712	0.283456	0.283446
C47	C	-0.014828	-0.187766	-0.187877
C48	C	0.485172	0.312234	0.312123
O49	O	-0.039089	-0.163291	-0.163492
O50	O	0.460911	0.336709	0.336508
C51	C	0.172844	-0.187751	-0.187859
C52	C	0.672844	0.312249	0.312141
C53	C	0.196303	-0.216527	-0.216531
C54	C	0.696303	0.283473	0.283469
C55	C	0.196305	-0.274076	-0.273877
C56	C	0.696305	0.225924	0.226123
C57	C	0.243221	-0.274075	-0.273870
C58	C	0.743221	0.225925	0.226130
C59	C	0.266677	-0.245299	-0.245193
C60	C	0.766677	0.254701	0.254807
C61	C	0.243219	-0.216526	-0.216524
C62	C	0.743219	0.283474	0.283476
C63	C	0.196303	-0.158971	-0.159184
C64	C	0.696303	0.341029	0.340816
C65	C	0.243224	-0.158969	-0.159183
C66	C	0.743224	0.341031	0.340817
C67	C	0.266683	-0.187745	-0.187855
C68	C	0.766683	0.312255	0.312145
C69	C	0.313591	-0.187749	-0.187840
C70	C	0.813591	0.312251	0.312160
N71	N	0.337052	-0.216520	-0.216513
N72	N	0.837052	0.283480	0.283487
C73	C	0.313595	-0.245295	-0.245189
C74	C	0.813595	0.254705	0.254811
C75	C	-0.113358	-0.187776	-0.187887
C76	C	0.386642	0.312224	0.312113
C77	C	-0.160276	-0.187780	-0.187891
C78	C	0.339724	0.312220	0.312109
C79	C	-0.160272	-0.245329	-0.245242
C80	C	0.339728	0.254671	0.254758
C81	C	-0.113353	-0.245327	-0.245236
C82	C	0.386647	0.254673	0.254764
C83	C	-0.089897	-0.216547	-0.216560
C84	C	0.410103	0.283453	0.283440
C85	C	0.412121	-0.245290	-0.245172
C86	C	0.912121	0.254710	0.254828
C87	C	0.459041	-0.245287	-0.245161
C88	C	0.959041	0.254713	0.254839
C89	C	0.459032	-0.187736	-0.187812
C90	C	0.959032	0.312264	0.312188
C91	C	0.412117	-0.187740	-0.187821
C92	C	0.912117	0.312260	0.312179
C93	C	0.388662	-0.216519	-0.216505
C94	C	0.888662	0.283481	0.283495
O95	O	0.337891	-0.163299	-0.163455
O96	O	0.837891	0.336701	0.336545
O97	O	0.337865	-0.269759	-0.269577
O98	O	0.837865	0.230241	0.230423
C99	C	0.125931	-0.245304	-0.245214
C100	C	0.625931	0.254696	0.254786
C101	C	0.102472	-0.216531	-0.216545
C102	C	0.602472	0.283469	0.283455
C103	C	0.125929	-0.187755	-0.187868
C104	C	0.625929	0.312245	0.312132
C105	C	0.055554	-0.216535	-0.216548
C106	C	0.555554	0.283465	0.283452
C107	C	0.032098	-0.245310	-0.245225
C108	C	0.532098	0.254690	0.254775
C109	C	0.055559	-0.274082	-0.273898
C110	C	0.555559	0.225918	0.226102
C111	C	0.102474	-0.274080	-0.273891
C112	C	0.602474	0.225920	0.226109
C113	C	0.102468	-0.158984	-0.159196
C114	C	0.602468	0.341016	0.340804
C115	C	0.055552	-0.158989	-0.159205
C116	C	0.555552	0.341011	0.340795
C117	C	0.032096	-0.187764	-0.187881
C118	C	0.532096	0.312236	0.312119
C119	C	0.649086	-0.333250	-0.216483
C120	C	1.149086	0.166750	0.283517
C121	C	0.649098	-0.383185	-0.216482
C122	C	1.149098	0.116815	0.283518
C123	C	0.677885	-0.692797	-0.245303
C124	C	1.177885	-0.192797	0.254697
C125	C	0.677933	-0.880470	-0.245330
C126	C	1.177933	-0.380470	0.254670
O127	O	0.702342	-0.904708	-0.269807
O128	O	1.202342	-0.404708	0.230193
N129	N	0.649231	-0.903970	-0.216570
N130	N	1.149231	-0.403970	0.283430
C131	C	0.620512	-0.880548	-0.187804
C132	C	1.120512	-0.380548	0.312196
O133	O	0.596096	-0.904843	-0.163346
O134	O	1.096096	-0.404843	0.336654
C135	C	0.620461	-0.692876	-0.187780
C136	C	1.120461	-0.192876	0.312220
C137	C	0.649169	-0.669379	-0.216538
C138	C	1.149169	-0.169379	0.283462
C139	C	0.706590	-0.669300	-0.274059
C140	C	1.206590	-0.169300	0.225941
C141	C	0.706579	-0.622384	-0.274051
C142	C	1.206579	-0.122384	0.225949
C143	C	0.677863	-0.598966	-0.245286
C144	C	1.177863	-0.098966	0.254714
C145	C	0.649158	-0.622463	-0.216529
C146	C	1.149158	-0.122463	0.283471
C147	C	0.591740	-0.669456	-0.159016
C148	C	1.091740	-0.169456	0.340984
C149	C	0.591729	-0.622535	-0.159013
C150	C	1.091729	-0.122535	0.340987
C151	C	0.620437	-0.599037	-0.187771
C152	C	1.120437	-0.099037	0.312229
C153	C	0.620431	-0.552130	-0.187755
C154	C	1.120431	-0.052130	0.312245
N155	N	0.649134	-0.528630	-0.216515
N156	N	1.149134	-0.028630	0.283485
C157	C	0.677850	-0.552048	-0.245280
C158	C	1.177850	-0.052048	0.254720
C159	C	0.620541	-0.979079	-0.187818
C160	C	1.120541	-0.479079	0.312182
C161	C	0.620554	-1.025997	-0.187824
C162	C	1.120554	-0.525997	0.312176
C163	C	0.677975	-1.025915	-0.245351
C164	C	1.177975	-0.525915	0.254649
C165	C	0.677964	-0.978996	-0.245342
C166	C	1.177964	-0.478996	0.254658
C167	C	0.649244	-0.955579	-0.216578
C168	C	1.149244	-0.455579	0.283422
C169	C	0.677826	-0.453522	-0.245259
C170	C	1.177826	0.046478	0.254741
C171	C	0.677814	-0.406603	-0.245247
C172	C	1.177814	0.093397	0.254753
C173	C	0.620391	-0.406688	-0.187722
C174	C	1.120391	0.093312	0.312278
C175	C	0.620404	-0.453604	-0.187732
C176	C	1.120404	0.046396	0.312268
C177	C	0.649123	-0.477020	-0.216505
C178	C	1.149123	0.022980	0.283495
O179	O	0.596032	-0.527863	-0.163295
O180	O	1.096032	-0.027863	0.336705
O181	O	0.702255	-0.527746	-0.269742
O182	O	1.202255	-0.027746	0.230258
C183	C	0.677895	-0.739712	-0.245312
C184	C	1.177895	-0.239712	0.254688
C185	C	0.649190	-0.763210	-0.216556
C186	C	1.149190	-0.263210	0.283444
C187	C	0.620474	-0.739792	-0.187790
C188	C	1.120474	-0.239792	0.312210
C189	C	0.649203	-0.810128	-0.216561
C190	C	1.149203	-0.310128	0.283439
C191	C	0.677919	-0.833546	-0.245326
C192	C	1.177919	-0.333546	0.254674
C193	C	0.706622	-0.810046	-0.274086
C194	C	1.206622	-0.310046	0.225914
C195	C	0.706611	-0.763130	-0.274077
C196	C	1.206611	-0.263130	0.225923
C197	C	0.591772	-0.763291	-0.159031
C198	C	1.091772	-0.263291	0.340969
C199	C	0.591785	-0.810207	-0.159041
C200	C	1.091785	-0.310207	0.340959
C201	C	0.620501	-0.833625	-0.187807
C202	C	1.120501	-0.333625	0.312193
C203	C	0.766333	-0.216547	-0.216553
C204	C	1.266333	0.283453	0.283447
C205	C	0.816267	-0.216555	-0.216567
C206	C	1.316267	0.283445	0.283433
C207	C	0.649167	-0.216524	-0.333699
C208	C	1.149167	0.283476	0.166301
C209	C	0.649172	-0.216522	-0.383633
C210	C	1.149172	0.283478	0.116367
C211	C	0.649235	-0.099349	-0.216568
C212	C	1.149235	0.400651	0.283432
C213	C	0.649270	-0.049415	-0.216589
C214	C	1.149270	0.450585	0.283411
C215	C	0.677955	-0.187718	-0.693300
C216	C	1.177955	0.312282	-0.193300
C217	C	0.677978	-0.187680	-0.880973
C218	C	1.177978	0.312320	-0.380973
O219	O	0.702417	-0.163232	-0.905257
O220	O	1.202417	0.336768	-0.405257
N221	N	0.649231	-0.216402	-0.904419
N222	N	1.149231	0.283598	-0.404419
C223	C	0.620475	-0.245133	-0.880943
C224	C	1.120475	0.254867	-0.380943
O225	O	0.596022	-0.269559	-0.905192
O226	O	1.096022	0.230441	-0.405192
C227	C	0.620451	-0.245169	-0.693271
C228	C	1.120451	0.254831	-0.193271
C229	C	0.649202	-0.216448	-0.669828
C230	C	1.149202	0.283552	-0.169828
C231	C	0.706704	-0.158999	-0.669856
C232	C	1.206704	0.341001	-0.169856
C233	C	0.706700	-0.159011	-0.622941
C234	C	1.206700	0.340989	-0.122941
C235	C	0.677947	-0.187741	-0.599469
C236	C	1.177947	0.312259	-0.099469
C237	C	0.649198	-0.216460	-0.622912
C238	C	1.149198	0.283540	-0.122912
C239	C	0.591693	-0.273898	-0.669797
C240	C	1.091693	0.226102	-0.169797
C241	C	0.591689	-0.273903	-0.622876
C242	C	1.091689	0.226097	-0.122876
C243	C	0.620440	-0.245183	-0.599432
C244	C	1.120440	0.254817	-0.099432
C245	C	0.620441	-0.245202	-0.552525
C246	C	1.120441	0.254798	-0.052525
N247	N	0.649188	-0.216480	-0.529079
N248	N	1.149188	0.283520	-0.029079
C249	C	0.677941	-0.187749	-0.552551
C250	C	1.177941	0.312251	-0.052551
C251	C	0.620491	-0.245113	-0.979474
C252	C	1.120491	0.254887	-0.479474
C253	C	0.620497	-0.245105	-1.026392
C254	C	1.120497	0.254895	-0.526392
C255	C	0.677999	-0.187650	-1.026418
C256	C	1.177999	0.312350	-0.526418
C257	C	0.677994	-0.187661	-0.979499
C258	C	1.177994	0.312339	-0.479499
C259	C	0.649237	-0.216391	-0.956028
C260	C	1.149237	0.283609	-0.456028
C261	C	0.677930	-0.187776	-0.454025
C262	C	1.177930	0.312224	0.045975
C263	C	0.677925	-0.187792	-0.407105
C264	C	1.177925	0.312208	0.092895
C265	C	0.620421	-0.245244	-0.407083
C266	C	1.120421	0.254756	0.092917
C267	C	0.620428	-0.245230	-0.453999
C268	C	1.120428	0.254770	0.046001
C269	C	0.649184	-0.216493	-0.477469
C270	C	1.149184	0.283507	0.022531
O271	O	0.596011	-0.269633	-0.528212
O272	O	1.096011	0.230367	-0.028212
O273	O	0.702383	-0.163320	-0.528294
O274	O	1.202383	0.336680	-0.028294
C275	C	0.677959	-0.187706	-0.740215
C276	C	1.177959	0.312294	-0.240215
C277	C	0.649211	-0.216425	-0.763659
C278	C	1.149211	0.283575	-0.263659
C279	C	0.620458	-0.245155	-0.740187
C280	C	1.120458	0.254845	-0.240187
C281	C	0.649217	-0.216417	-0.810577
C282	C	1.149217	0.283583	-0.310577
C283	C	0.677970	-0.187686	-0.834049
C284	C	1.177970	0.312314	-0.334049
C285	C	0.706717	-0.158964	-0.810603
C286	C	1.206717	0.341036	-0.310603
C287	C	0.706712	-0.158976	-0.763687
C288	C	1.206712	0.341024	-0.263687
C289	C	0.591711	-0.273877	-0.763633
C290	C	1.091711	0.226123	-0.263633
C291	C	0.591718	-0.273864	-0.810548
C292	C	1.091718	0.226136	-0.310548
C293	C	0.620471	-0.245133	-0.834020
C294	C	1.120471	0.254867	-0.334020
C295	C	0.649168	-0.216499	-0.099798
C296	C	1.149168	0.283501	0.400202
C297	C	0.649250	-0.216374	-0.049864
C298	C	1.149250	0.283626	0.450136
H299	H	-0.179372	-0.164352	-0.164539
H300	H	0.320628	0.335648	0.335461
H301	H	0.568265	-0.297294	-0.603768
H302	H	1.068265	0.202706	-0.103768
H303	H	0.729988	-0.744002	-0.297495
H304	H	1.229988	-0.244002	0.202505
H305	H	0.701344	-0.164374	-0.473128
H306	H	1.201344	0.335626	0.026872
H307	H	0.568363	-0.688579	-0.135597
H308	H	1.068363	-0.188579	0.364403
H309	H	0.393030	-0.268723	-0.268530
H310	H	0.893030	0.231277	0.231470
H311	H	0.597012	-0.387614	-0.164300
H312	H	1.097012	0.112386	0.335700
H313	H	0.701411	-0.164257	-1.045537
H314	H	1.201411	0.335743	-0.545537
H315	H	0.701208	-0.472582	-0.268692
H316	H	1.201208	0.027418	0.231308
H317	H	0.597153	-0.960016	-0.164394
H318	H	1.097153	-0.460016	0.335606
H319	H	0.036456	-0.135556	-0.135853
H320	H	0.536456	0.364444	0.364147
H321	H	0.597020	-0.268621	-0.473087
H322	H	1.097020	0.231379	0.026913
H323	H	0.701192	-0.387473	-0.268665
H324	H	1.201192	0.112527	0.231335
H325	H	0.701357	-1.044990	-0.268772
H326	H	1.201357	-0.544990	0.231228
H327	H	0.121561	-0.135551	-0.135843
H328	H	0.621561	0.364449	0.364157
H329	H	0.730005	-0.829121	-0.297506
H330	H	1.230005	-0.329121	0.202494
H331	H	0.597182	-1.045124	-0.164401
H332	H	1.097182	-0.545124	0.335599
H333	H	0.568297	-0.297274	-0.744526
H334	H	1.068297	0.202726	-0.244526
H335	H	0.730112	-0.135623	-0.603857
H336	H	1.230112	0.364377	-0.103857
H337	H	0.568408	-0.829334	-0.135619
H338	H	1.068408	-0.329334	0.364381
H339	H	0.568387	-0.744228	-0.135607
H340	H	1.068387	-0.244228	0.364393
H341	H	0.597090	-0.268497	-1.045476
H342	H	1.097090	0.231503	-0.545476
H343	H	-0.179378	-0.268759	-0.268592
H344	H	0.320622	0.231241	0.231408
H345	H	0.597013	-0.268637	-0.387964
H346	H	1.097013	0.231363	0.112036
H347	H	0.729954	-0.603255	-0.297470
H348	H	1.229954	-0.103255	0.202530
H349	H	0.177211	-0.135539	-0.135836
H350	H	0.677211	0.364461	0.364164
H351	H	0.597032	-0.472736	-0.164312
H352	H	1.097032	0.027264	0.335688
H353	H	0.730125	-0.135588	-0.744604
H354	H	1.230125	0.364412	-0.244604
H355	H	0.568340	-0.603470	-0.135590
H356	H	1.068340	-0.103470	0.364410
H357	H	0.729974	-0.688362	-0.297486
H358	H	1.229974	-0.188362	0.202514
H359	H	0.036452	-0.297513	-0.297246
H360	H	0.536452	0.202487	0.202754
H361	H	-0.094265	-0.164339	-0.164534
H362	H	0.405735	0.335661	0.335466
H363	H	0.568306	-0.297256	-0.829632
H364	H	1.068306	0.202744	-0.329632
H365	H	0.701339	-0.164403	-0.388020
H366	H	1.201339	0.335597	0.111980
H367	H	0.262317	-0.297506	-0.297218
H368	H	0.762317	0.202494	0.202782
H369	H	0.701340	-0.959868	-0.268760
H370	H	1.201340	-0.459868	0.231240
H371	H	0.262320	-0.135529	-0.135834
H372	H	0.762320	0.364471	0.364166
H373	H	0.393015	-0.164309	-0.164474
H374	H	0.893015	0.335691	0.335526
H375	H	0.701406	-0.164274	-0.960415
H376	H	1.201406	0.335726	-0.460415
H377	H	0.730118	-0.135601	-0.688962
H378	H	1.230118	0.364399	-0.188962
H379	H	0.568280	-0.297285	-0.688876
H380	H	1.068280	0.202715	-0.188876
H381	H	0.478139	-0.268721	-0.268510
H382	H	0.978139	0.231279	0.231490
H383	H	0.478139	-0.164309	-0.164463
H384	H	0.978139	0.335691	0.335537
H385	H	0.730130	-0.135573	-0.829722
H386	H	1.230130	0.364427	-0.329722
H387	H	0.121570	-0.297512	-0.297238
H388	H	0.621570	0.202488	0.202762
H389	H	0.177212	-0.297509	-0.297231
H390	H	0.677212	0.202491	0.202769
H391	H	-0.094256	-0.268759	-0.268583
H392	H	0.405744	0.231241	0.231417
H393	H	0.597073	-0.268511	-0.960368
H394	H	1.097073	0.231489	-0.460368
