data_functionalizedCrystal
_audit_creation_method	'MofGen! by Chris Wilmer'
_symmetry_space_group_name_H-M	'P1'
_symmetry_Int_Tables_number	1
_symmetry_cell_setting	triclinic
loop_
_symmetry_equiv_pos_as_xyz
  x,y,z
_cell_length_a	14.971486
_cell_length_b	11.026607
_cell_length_c	13.448316
_cell_angle_alpha	89.996104
_cell_angle_beta	89.998199
_cell_angle_gamma	96.100073
loop_
_atom_site_label
_atom_site_type_symbol
_atom_site_fract_x
_atom_site_fract_y
_atom_site_fract_z
O1	O	1.212292	0.158181	-0.082572
O2	O	0.954927	0.177123	-0.082599
O3	O	1.062279	-0.009032	-0.082584
O4	O	1.104940	0.344336	-0.082587
O5	O	1.062260	-0.009044	0.082800
O6	O	0.954908	0.177112	0.082785
O7	O	1.212273	0.158169	0.082812
Cu8	Cu	1.083589	0.167639	0.097899
Cu9	Cu	1.083611	0.167653	-0.097686
O10	O	1.104921	0.344324	0.082797
C11	C	0.921457	0.176270	0.000090
C12	C	0.821753	0.173732	0.000079
C13	C	1.054400	-0.054260	0.000106
C14	C	1.030939	-0.189008	0.000100
C15	C	0.782051	0.283093	0.000080
C16	C	0.688368	0.280700	0.000095
C17	C	0.634389	0.168945	0.000102
C18	C	0.674098	0.059576	0.000105
C19	C	0.767779	0.061969	0.000097
C20	C	0.478837	0.054594	0.000118
C21	C	0.385150	0.052200	0.000124
C22	C	0.399426	0.273325	0.000116
C23	C	0.493107	0.275718	0.000109
C24	C	0.532809	0.166348	0.000109
C25	C	1.095719	-0.262720	0.000105
C26	C	1.071472	-0.401989	0.000099
C27	C	1.245743	0.159022	0.000121
C28	C	1.345447	0.161561	0.000125
C29	C	1.112800	0.389552	0.000105
C30	C	1.136261	0.524300	0.000104
N31	N	1.083579	0.167629	0.235463
N32	N	1.083626	0.167654	-0.235251
C33	C	1.131139	0.085233	0.287510
C34	C	1.131145	0.085232	0.391614
C35	C	1.083595	0.167634	0.443668
C36	C	1.036029	0.250033	0.391614
C37	C	1.036019	0.250028	0.287513
C38	C	1.036055	0.250042	0.608594
C39	C	1.036066	0.250049	0.712703
C40	C	1.131181	0.085246	0.712695
C41	C	1.131171	0.085241	0.608594
C42	C	1.083606	0.167642	0.556547
H43	H	0.656047	0.369753	0.000094
C44	C	0.615449	-0.061724	-0.000093
C45	C	0.561267	-0.069565	-0.085189
C46	C	0.507239	-0.181298	-0.085415
H47	H	0.578527	-0.067378	0.057514
H48	H	0.652483	-0.126551	-0.000146
H49	H	0.524237	-0.004757	-0.085127
H50	H	0.598166	-0.063934	-0.142810
H51	H	0.544272	-0.246124	-0.085468
H52	H	0.470322	-0.186941	-0.027804
H53	H	0.470476	-0.186637	-0.143156
C54	C	0.984519	0.339685	0.231053
C55	C	1.018246	0.458999	0.256338
C56	C	0.970830	0.541622	0.204338
H57	H	0.922672	0.326533	0.248082
H58	H	0.991338	0.327961	0.161590
H59	H	1.011419	0.470718	0.325786
H60	H	1.080088	0.472190	0.239307
H61	H	0.977650	0.529897	0.134875
H62	H	0.908985	0.528458	0.221372
H63	H	0.993713	0.622585	0.221480
C64	C	1.234118	-0.422225	-0.000040
C65	C	1.251340	-0.350323	-0.085111
C66	C	1.341470	-0.301031	-0.085271
H67	H	1.271711	-0.486407	-0.000088
H68	H	1.245978	-0.373355	0.057605
H69	H	1.239490	-0.399190	-0.142741
H70	H	1.213769	-0.286122	-0.085081
H71	H	1.353330	-0.252162	-0.027626
H72	H	1.379056	-0.365222	-0.085317
H73	H	1.353165	-0.252232	-0.142986
C74	C	1.182486	-0.004574	0.552084
C75	C	1.122695	-0.078936	0.492478
C76	C	1.169863	-0.161812	0.440458
H77	H	1.210709	-0.053751	0.597985
H78	H	1.226813	0.038834	0.511310
H79	H	1.078385	-0.122342	0.533248
H80	H	1.094471	-0.029794	0.446558
H81	H	1.214190	-0.118403	0.399685
H82	H	1.198084	-0.210979	0.486367
H83	H	1.129304	-0.212269	0.400003
H84	H	1.169129	-0.222722	0.000119
H85	H	1.169909	0.018152	0.755078
H86	H	0.998057	-0.441982	0.000085
C87	C	0.810719	-0.056899	0.000040
C88	C	0.743398	-0.155283	0.000019
C89	C	0.782918	-0.264805	-0.000044
H90	H	0.846961	-0.060739	0.057694
H91	H	0.846942	-0.060623	-0.057660
H92	H	0.707190	-0.151561	0.057712
H93	H	0.707151	-0.151483	-0.057631
H94	H	0.819141	-0.268529	-0.057743
H95	H	0.819160	-0.268633	0.057612
H96	H	0.737248	-0.331572	-0.000067
H97	H	0.537055	0.366719	0.000093
H98	H	1.169864	0.018138	0.245134
H99	H	0.825994	0.374096	0.000073
H100	H	0.367096	0.362378	0.000120
C101	C	0.984332	0.339546	0.769042
C102	C	0.942643	0.411674	0.701183
C103	C	0.894962	0.494114	0.753046
H104	H	1.024558	0.390274	0.809650
H105	H	0.940025	0.295807	0.809636
H106	H	0.986944	0.455410	0.660606
H107	H	0.902403	0.360979	0.660572
H108	H	0.850655	0.450375	0.793641
H109	H	0.935194	0.544834	0.793653
H110	H	0.866663	0.543055	0.707012
H111	H	0.997319	0.317138	0.566221
H112	H	0.341202	-0.038801	0.000131
H113	H	0.511159	-0.034467	0.000120
H114	H	0.997308	0.317122	0.434003
H115	H	0.957528	-0.229006	0.000086
H116	H	1.169871	0.018139	0.433990
