data_functionalizedCrystal
_audit_creation_method	'MofGen! by Chris Wilmer'
_symmetry_space_group_name_H-M	'P1'
_symmetry_Int_Tables_number	1
_symmetry_cell_setting	triclinic
loop_
_symmetry_equiv_pos_as_xyz
  x,y,z
_cell_length_a	21.395362
_cell_length_b	21.395361
_cell_length_c	21.395355
_cell_angle_alpha	89.978489
_cell_angle_beta	89.956060
_cell_angle_gamma	90.046585
loop_
_atom_site_label
_atom_site_type_symbol
_atom_site_fract_x
_atom_site_fract_y
_atom_site_fract_z
Zn1	Zn	-0.957859	0.249246	0.354573
Zn2	Zn	-0.624526	0.582579	0.687906
Zn3	Zn	-0.291193	0.915912	1.021239
Zn4	Zn	-0.957762	0.354005	0.249790
Zn5	Zn	-0.624429	0.687339	0.583123
Zn6	Zn	-0.291095	1.020672	0.916456
Zn7	Zn	-0.853074	0.249275	0.249774
Zn8	Zn	-0.519741	0.582608	0.583107
Zn9	Zn	-0.186408	0.915941	0.916441
Zn10	Zn	-0.853044	0.354018	0.354494
Zn11	Zn	-0.519710	0.687352	0.687828
Zn12	Zn	-0.186377	1.020685	1.021161
O13	O	-0.905435	0.301636	0.302158
O14	O	-0.572102	0.634969	0.635491
O15	O	-0.238768	0.968303	0.968824
O16	O	-1.045524	0.263125	0.340712
O17	O	-0.712191	0.596458	0.674046
O18	O	-0.378858	0.929791	1.007379
O19	O	-0.943847	0.340119	0.162110
O20	O	-0.610514	0.673453	0.495443
O21	O	-0.277180	1.006786	0.828776
O22	O	-0.867028	0.161593	0.263702
O23	O	-0.533695	0.494926	0.597035
O24	O	-0.200361	0.828260	0.930368
O25	O	-1.045453	0.340091	0.263729
O26	O	-0.712119	0.673425	0.597062
O27	O	-0.378786	1.006758	0.930395
O28	O	-0.944013	0.161572	0.340697
O29	O	-0.610680	0.494905	0.674030
O30	O	-0.277347	0.828238	1.007364
O31	O	-0.866934	0.263174	0.162098
O32	O	-0.533600	0.596508	0.495431
O33	O	-0.200267	0.929841	0.828765
O34	O	-0.765392	0.263187	0.263626
O35	O	-0.432059	0.596520	0.596959
O36	O	-0.098726	0.929853	0.930293
O37	O	-0.866976	0.340113	0.442183
O38	O	-0.533642	0.673447	0.775516
O39	O	-0.200309	1.006780	1.108849
O40	O	-0.765370	0.340141	0.340564
O41	O	-0.432036	0.673475	0.673897
O42	O	-0.098703	1.006808	1.007230
O43	O	-0.943983	0.263137	0.442240
O44	O	-0.610650	0.596470	0.775573
O45	O	-0.277317	0.929804	1.108907
O46	O	-0.943817	0.441685	0.263653
O47	O	-0.610484	0.775018	0.596986
O48	O	-0.277150	1.108352	0.930319
O49	O	-0.866881	0.441695	0.340579
O50	O	-0.533548	0.775028	0.673912
O51	O	-0.200214	1.108361	1.007246
C52	C	-0.742647	0.301669	0.302085
C53	C	-0.409314	0.635002	0.635418
C54	C	-0.075981	0.968336	0.968752
C55	C	-0.673006	0.301698	0.302069
C56	C	-0.339673	0.635032	0.635402
C57	C	-0.006339	0.968365	0.968735
C58	C	-0.905487	0.301623	0.465581
C59	C	-0.572154	0.634957	0.798914
C60	C	-0.238820	0.968290	1.132248
C61	C	-0.905509	0.301618	0.535222
C62	C	-0.572176	0.634951	0.868556
C63	C	-0.238842	0.968285	1.201889
C64	C	-0.905352	0.464424	0.302123
C65	C	-0.572019	0.797757	0.635456
C66	C	-0.238685	1.131090	0.968789
C67	C	-0.905374	0.534065	0.302129
C68	C	-0.572041	0.867398	0.635462
C69	C	-0.238707	1.200732	0.968795
C70	C	-1.068858	0.301603	0.302231
C71	C	-0.735525	0.634937	0.635564
C72	C	-0.402192	0.968270	0.968898
C73	C	-1.138499	0.301589	0.302262
C74	C	-0.805166	0.634923	0.635595
C75	C	-0.471833	0.968256	0.968929
C76	C	-0.640297	0.341822	0.342070
C77	C	-0.306964	0.675155	0.675403
C78	C	0.026369	1.008488	1.008737
C79	C	-0.574862	0.341806	0.342098
C80	C	-0.241529	0.675140	0.675431
C81	C	0.091805	1.008473	1.008765
C82	C	-0.542138	0.301674	0.302113
C83	C	-0.208804	0.635008	0.635447
C84	C	0.124529	0.968341	0.968780
C85	C	-0.574854	0.261543	0.262109
C86	C	-0.241521	0.594876	0.595442
C87	C	0.091813	0.928210	0.928776
C88	C	-0.640288	0.261555	0.262087
C89	C	-0.306955	0.594889	0.595420
C90	C	0.026378	0.928222	0.928753
C91	C	-0.438413	0.296627	0.245708
C92	C	-0.105080	0.629960	0.579042
C93	C	0.228254	0.963293	0.912375
C94	C	-0.372980	0.296619	0.245730
C95	C	-0.039647	0.629952	0.579063
C96	C	0.293687	0.963286	0.912396
C97	C	-0.340317	0.301633	0.302182
C98	C	-0.006984	0.634967	0.635516
C99	C	0.326350	0.968300	0.968849
C100	C	-0.373095	0.306668	0.358616
C101	C	-0.039762	0.640002	0.691949
C102	C	0.293572	0.973335	1.025283
C103	C	-0.438529	0.306681	0.358594
C104	C	-0.105196	0.640014	0.691927
C105	C	0.228138	0.973347	1.025260
C106	C	-0.471185	0.301656	0.302133
C107	C	-0.137852	0.634990	0.635467
C108	C	0.195481	0.968323	0.968800
C109	C	-0.236656	0.341742	0.342218
C110	C	0.096677	0.675076	0.675551
C111	C	0.430011	1.008409	1.008884
C112	C	-0.171219	0.341723	0.342247
C113	C	0.162114	0.675056	0.675580
C114	C	0.495447	1.008389	1.008913
C115	C	-0.171213	0.261462	0.262252
C116	C	0.162121	0.594796	0.595585
C117	C	0.495454	0.928129	0.928919
C118	C	-0.236648	0.261479	0.262229
C119	C	0.096685	0.594812	0.595562
C120	C	0.430019	0.928146	0.928895
C121	C	-0.269366	0.301622	0.302211
C122	C	0.063968	0.634956	0.635544
C123	C	0.397301	0.968289	0.968877
C124	C	-0.905535	0.138213	0.302206
C125	C	-0.572202	0.471546	0.635540
C126	C	-0.238868	0.804879	0.968873
C127	C	-0.905578	0.068571	0.302227
C128	C	-0.572244	0.401905	0.635560
C129	C	-0.238911	0.735238	0.968894
C130	C	-0.945470	0.566752	0.262114
C131	C	-0.612137	0.900086	0.595448
C132	C	-0.278804	1.233419	0.928781
C133	C	-0.945499	0.632188	0.262128
C134	C	-0.612166	0.965521	0.595462
C135	C	-0.278833	1.298854	0.928795
C136	C	-0.905421	0.664933	0.302150
C137	C	-0.572088	0.998267	0.635484
C138	C	-0.238755	1.331600	0.968817
C139	C	-0.865322	0.632238	0.342172
C140	C	-0.531989	0.965571	0.675506
C141	C	-0.198656	1.298905	1.008839
C142	C	-0.865299	0.566804	0.342162
C143	C	-0.531965	0.900137	0.675495
C144	C	-0.198632	1.233470	1.008828
C145	C	-0.849006	0.768664	0.307041
C146	C	-0.515673	1.101997	0.640374
C147	C	-0.182340	1.435331	0.973708
C148	C	-0.849029	0.834097	0.307047
C149	C	-0.515696	1.167430	0.640381
C150	C	-0.182362	1.500764	0.973714
C151	C	-0.905494	0.866754	0.302187
C152	C	-0.572161	1.200087	0.635520
C153	C	-0.238828	1.533421	0.968854
C154	C	-0.961939	0.833970	0.297307
C155	C	-0.628605	1.167303	0.630640
C156	C	-0.295272	1.500637	0.963974
C157	C	-0.961915	0.768536	0.297296
C158	C	-0.628582	1.101869	0.630630
C159	C	-0.295248	1.435202	0.963963
C160	C	-0.905443	0.735886	0.302167
C161	C	-0.572109	1.069219	0.635500
C162	C	-0.238776	1.402552	0.968833
C163	C	-0.945625	0.970394	0.262186
C164	C	-0.612292	1.303727	0.595519
C165	C	-0.278959	1.637060	0.928852
C166	C	-0.945655	1.035830	0.262204
C167	C	-0.612322	1.369164	0.595537
C168	C	-0.278989	1.702497	0.928871
C169	C	-0.865473	1.035879	0.342245
C170	C	-0.532139	1.369213	0.675578
C171	C	-0.198806	1.702546	1.008912
C172	C	-0.865448	0.970444	0.342230
C173	C	-0.532115	1.303777	0.675563
C174	C	-0.198782	1.637111	1.008896
C175	C	-0.905524	0.937705	0.302197
C176	C	-0.572190	1.271039	0.635530
C177	C	-0.238857	1.604372	0.968863
C178	C	-0.905419	0.301603	0.139370
C179	C	-0.572086	0.634937	0.472703
C180	C	-0.238752	0.968270	0.806037
C181	C	-0.905518	0.301432	0.069729
C182	C	-0.572185	0.634766	0.403062
C183	C	-0.238852	0.968099	0.736396
C184	C	-0.945605	0.261535	0.567966
C185	C	-0.612272	0.594868	0.901300
C186	C	-0.278939	0.928201	1.234633
C187	C	-0.945604	0.261508	0.633402
C188	C	-0.612271	0.594841	0.966735
C189	C	-0.278938	0.928174	1.300068
C190	C	-0.905514	0.301575	0.666091
C191	C	-0.572181	0.634909	0.999424
C192	C	-0.238847	0.968242	1.332757
C193	C	-0.865410	0.341661	0.633339
C194	C	-0.532077	0.674994	0.966672
C195	C	-0.198743	1.008328	1.300005
C196	C	-0.865407	0.341682	0.567904
C197	C	-0.532074	0.675016	0.901238
C198	C	-0.198741	1.008349	1.234571
C199	C	-0.900538	0.357992	0.769752
C200	C	-0.567205	0.691325	1.103085
C201	C	-0.233871	1.024659	1.436418
C202	C	-0.900545	0.357972	0.835185
C203	C	-0.567211	0.691305	1.168518
C204	C	-0.233878	1.024638	1.501851
C205	C	-0.905518	0.301509	0.867911
C206	C	-0.572184	0.634842	1.201245
C207	C	-0.238851	0.968176	1.534578
C208	C	-0.910497	0.245065	0.835197
C209	C	-0.577164	0.578398	1.168531
C210	C	-0.243830	0.911732	1.501864
C211	C	-0.910495	0.245086	0.769763
C212	C	-0.577161	0.578420	1.103097
C213	C	-0.243828	0.911753	1.436430
C214	C	-0.905512	0.301556	0.737043
C215	C	-0.572179	0.634890	1.070376
C216	C	-0.238845	0.968223	1.403710
C217	C	-0.945615	0.261393	0.971608
C218	C	-0.612282	0.594727	1.304941
C219	C	-0.278949	0.928060	1.638275
C220	C	-0.945610	0.261365	1.037045
C221	C	-0.612277	0.594699	1.370378
C222	C	-0.278943	0.928032	1.703711
C223	C	-0.865419	0.341524	1.036980
C224	C	-0.532085	0.674858	1.370314
C225	C	-0.198752	1.008191	1.703647
C226	C	-0.865421	0.341547	0.971545
C227	C	-0.532087	0.674880	1.304878
C228	C	-0.198754	1.008213	1.638212
C229	C	-0.905522	0.301482	0.938863
C230	C	-0.572189	0.634815	1.272196
C231	C	-0.238856	0.968149	1.605529
H232	H	-0.548226	0.374479	0.374674
H233	H	-0.214892	0.707813	0.708008
H234	H	0.118441	1.041146	1.041341
H235	H	-0.896321	0.403959	0.743111
H236	H	-0.562987	0.737292	1.076444
H237	H	-0.229654	1.070626	1.409777
O238	O	-0.988841	0.218259	0.668726
O239	O	-0.655508	0.551592	1.002059
O240	O	-0.322174	0.884925	1.335393
H241	H	-0.982097	0.224968	0.719717
H242	H	-0.648763	0.558301	1.053050
H243	H	-0.315430	0.891635	1.386384
H244	H	-0.978153	0.658807	0.229544
H245	H	-0.644819	0.992140	0.562877
H246	H	-0.311486	1.325474	0.896211
O247	O	-0.822171	0.384736	1.072229
O248	O	-0.488838	0.718069	1.405562
O249	O	-0.155505	1.051402	1.738895
H250	H	-0.832880	0.433913	1.059673
H251	H	-0.499547	0.767246	1.393007
H252	H	-0.166214	1.100580	1.726340
O253	O	-0.822166	0.384877	0.668590
O254	O	-0.488833	0.718210	1.001923
O255	O	-0.155500	1.051543	1.335257
H256	H	-0.828907	0.378132	0.719592
H257	H	-0.495574	0.711465	1.052926
H258	H	-0.162241	1.044799	1.386259
O259	O	-0.473636	0.291217	0.184814
O260	O	-0.140303	0.624550	0.518147
O261	O	0.193031	0.957883	0.851480
H262	H	-0.524643	0.292064	0.194278
H263	H	-0.191309	0.625397	0.527611
H264	H	0.142024	0.958731	0.860945
O265	O	-0.915844	0.184157	0.870484
O266	O	-0.582511	0.517490	1.203817
O267	O	-0.249178	0.850824	1.537150
H268	H	-0.914996	0.193621	0.921480
H269	H	-0.581663	0.526954	1.254813
H270	H	-0.248330	0.860287	1.588147
O271	O	-1.022841	0.869192	0.292059
O272	O	-0.689508	1.202525	0.625392
O273	O	-0.356174	1.535858	0.958725
H274	H	-1.046226	0.856636	0.247502
H275	H	-0.712892	1.189969	0.580836
H276	H	-0.379559	1.523302	0.914169
H277	H	-0.978258	0.228910	0.541360
H278	H	-0.644925	0.562244	0.874694
H279	H	-0.311592	0.895577	1.208027
O280	O	-0.988857	0.218177	0.936350
O281	O	-0.655524	0.551510	1.269684
O282	O	-0.322191	0.884843	1.603017
H283	H	-1.016732	0.190291	0.970116
H284	H	-0.683398	0.523624	1.303449
H285	H	-0.350065	0.856957	1.636782
O286	O	-0.822037	0.531548	0.385313
O287	O	-0.488704	0.864882	0.718646
O288	O	-0.155370	1.198215	1.051980
H289	H	-0.832755	0.544068	0.434505
H290	H	-0.499421	0.877401	0.767838
H291	H	-0.166088	1.210734	1.101172
H292	H	-0.978259	0.943737	0.229590
H293	H	-0.644926	1.277070	0.562924
H294	H	-0.311593	1.610403	0.896257
H295	H	-0.263280	0.228809	0.229652
H296	H	0.070054	0.562143	0.562985
H297	H	0.403387	0.895476	0.896319
H298	H	-0.548206	0.228866	0.229554
H299	H	-0.214872	0.562199	0.562888
H300	H	0.118461	0.895533	0.896221
H301	H	-0.914547	0.199128	0.743130
H302	H	-0.581214	0.532461	1.076463
H303	H	-0.247881	0.865794	1.409797
H304	H	-0.978103	0.540098	0.229519
H305	H	-0.644770	0.873432	0.562852
H306	H	-0.311437	1.206765	0.896185
H307	H	-0.832774	0.374190	0.944885
H308	H	-0.499440	0.707524	1.278218
H309	H	-0.166107	1.040857	1.611551
O310	O	-0.988853	0.218125	1.072367
O311	O	-0.655519	0.551458	1.405700
O312	O	-0.322186	0.884791	1.739033
H313	H	-1.020706	0.246151	1.102209
H314	H	-0.687373	0.579484	1.435543
H315	H	-0.354040	0.912817	1.768876
O316	O	-0.822197	0.935179	0.385382
O317	O	-0.488864	1.268512	0.718715
O318	O	-0.155530	1.601846	1.052048
H319	H	-0.790330	0.905417	0.357289
H320	H	-0.456997	1.238750	0.690622
H321	H	-0.123664	1.572084	1.023955
O322	O	-0.675573	0.218290	0.218929
O323	O	-0.342240	0.551623	0.552262
O324	O	-0.008906	0.884956	0.885596
H325	H	-0.641828	0.190384	0.191124
H326	H	-0.308494	0.523717	0.524457
H327	H	0.024839	0.857051	0.857790
O328	O	-1.022789	0.733173	0.292042
O329	O	-0.689455	1.066506	0.625376
O330	O	-0.356122	1.399839	0.958709
H331	H	-1.062060	0.766869	0.288669
H332	H	-0.728727	1.100202	0.622002
H333	H	-0.395393	1.433536	0.955335
H334	H	-0.465214	0.310778	0.404543
H335	H	-0.131881	0.644112	0.737877
H336	H	0.201452	0.977445	1.071210
H337	H	-0.978310	1.062443	0.229621
H338	H	-0.644977	1.395777	0.562954
H339	H	-0.311644	1.729110	0.896287
H340	H	-0.896494	0.403932	0.861815
H341	H	-0.563161	0.737265	1.195149
H342	H	-0.229828	1.070598	1.528482
H343	H	-0.832843	1.062540	0.374834
H344	H	-0.499510	1.395873	0.708168
H345	H	-0.166176	1.729207	1.041501
H346	H	-0.832753	0.374322	0.541245
H347	H	-0.499420	0.707656	0.874578
H348	H	-0.166087	1.040989	1.207911
H349	H	-0.144589	0.374395	0.374824
H350	H	0.188744	0.707728	0.708158
H351	H	0.522078	1.041061	1.041491
O352	O	-0.675587	0.385108	0.385200
O353	O	-0.342254	0.718442	0.718533
O354	O	-0.008921	1.051775	1.051866
H355	H	-0.641845	0.413001	0.413025
H356	H	-0.308512	0.746335	0.746359
H357	H	0.024821	1.079668	1.079692
H358	H	-0.346502	0.310751	0.404585
H359	H	-0.013169	0.644084	0.737919
H360	H	0.320164	0.977417	1.071252
H361	H	-0.803022	0.742081	0.311001
H362	H	-0.469689	1.075414	0.644335
H363	H	-0.136355	1.408748	0.977668
O364	O	-0.788154	0.869456	0.312310
O365	O	-0.454821	1.202789	0.645643
O366	O	-0.121487	1.536123	0.978977
H367	H	-0.748887	0.835756	0.315701
H368	H	-0.415554	1.169090	0.649034
H369	H	-0.082221	1.502423	0.982367
O370	O	-0.822089	0.667556	0.385331
O371	O	-0.488755	1.000889	0.718665
O372	O	-0.155422	1.334222	1.051998
H373	H	-0.850123	0.697326	0.417244
H374	H	-0.516789	1.030659	0.750578
H375	H	-0.183456	1.363992	1.083911
O376	O	-0.271958	0.385020	0.385349
O377	O	0.061375	0.718353	0.718682
O378	O	0.394708	1.051687	1.052015
H379	H	-0.259342	0.434180	0.374531
H380	H	0.073992	0.767513	0.707864
H381	H	0.407325	1.100847	1.041198
O382	O	-0.135922	0.218182	0.219120
O383	O	0.197411	0.551516	0.552454
O384	O	0.530744	0.884849	0.885787
H385	H	-0.106168	0.186344	0.247230
H386	H	0.227165	0.519677	0.580563
H387	H	0.560498	0.853010	0.913897
O388	O	-0.337627	0.291185	0.184867
O389	O	-0.004294	0.624519	0.518200
O390	O	0.329039	0.957852	0.851534
H391	H	-0.371331	0.287686	0.145609
H392	H	-0.037998	0.621020	0.478942
H393	H	0.295335	0.954353	0.812276
