data_functionalizedCrystal
_audit_creation_method	'MofGen! by Chris Wilmer'
_symmetry_space_group_name_H-M	'P1'
_symmetry_Int_Tables_number	1
_symmetry_cell_setting	triclinic
loop_
_symmetry_equiv_pos_as_xyz
  x,y,z
_cell_length_a	10.654550
_cell_length_b	16.992695
_cell_length_c	9.730223
_cell_angle_alpha	89.998169
_cell_angle_beta	89.996251
_cell_angle_gamma	87.576563
loop_
_atom_site_label
_atom_site_type_symbol
_atom_site_fract_x
_atom_site_fract_y
_atom_site_fract_z
O1	O	1.677356	0.110186	-0.114405
O2	O	1.312785	0.120685	-0.114384
O3	O	1.493609	0.001285	-0.114383
O4	O	1.496532	0.229586	-0.114405
O5	O	1.493607	0.001288	0.114196
O6	O	1.312783	0.120688	0.114196
O7	O	1.677354	0.110189	0.114175
Zn8	Zn	1.495068	0.115439	0.150477
Zn9	Zn	1.495071	0.115435	-0.150686
O10	O	1.496530	0.229589	0.114174
C11	C	1.265919	0.119915	-0.000091
C12	C	1.126277	0.117609	-0.000082
C13	C	1.052866	0.187910	-0.000109
C14	C	0.921658	0.185738	-0.000132
C15	C	0.937282	0.042959	-0.000108
C16	C	1.068488	0.045131	-0.000075
C17	C	1.043844	0.270342	-0.000129
C18	C	0.912636	0.268171	-0.000152
C19	C	1.489848	-0.027947	-0.000093
C20	C	1.478628	-0.115052	-0.000093
C21	C	1.586879	-0.164704	-0.000098
C22	C	1.576330	-0.246548	-0.000111
C23	C	1.457529	-0.278738	-0.000108
C24	C	1.349270	-0.229080	-0.000107
C25	C	1.359820	-0.147237	-0.000105
C26	C	1.413802	-0.522574	-0.000124
C27	C	1.403260	-0.604422	-0.000123
C28	C	1.630321	-0.621884	-0.000129
C29	C	1.640861	-0.540040	-0.000118
C30	C	1.532602	-0.490389	-0.000124
N31	N	1.446743	-0.362396	-0.000116
N32	N	1.543389	-0.406733	-0.000126
C33	C	1.724220	0.110959	-0.000121
C34	C	1.863862	0.113265	-0.000139
C35	C	1.500291	0.258821	-0.000119
C36	C	1.511510	0.345926	-0.000128
N37	N	1.495075	0.115441	0.356014
N38	N	1.495073	0.115427	-0.356223
C39	C	1.575168	0.062589	0.427940
C40	C	1.575164	0.062580	0.571823
C41	C	1.414971	0.168281	0.571841
C42	C	1.414970	0.168286	0.427961
C43	C	1.667658	0.001565	0.427931
C44	C	1.667654	0.001556	0.571814
H45	H	1.683620	-0.138501	-0.000092
O46	O	1.790631	0.026857	0.368787
H47	H	1.855829	0.040260	0.453789
H48	H	1.632216	-0.055428	0.616437
H49	H	1.349751	0.211306	0.630436
H50	H	1.718459	-0.662319	-0.000126
H51	H	1.271671	-0.106811	-0.000101
O52	O	1.147667	-0.030694	-0.000029
H53	H	1.207779	-0.033112	0.093162
H54	H	0.869116	0.293084	0.098529
O55	O	1.094098	0.305106	-0.130849
H56	H	1.146937	0.358147	-0.105732
H57	H	1.641004	-0.058735	0.388884
O58	O	1.693085	-0.300104	-0.000093
H59	H	1.777466	-0.263970	-0.000070
O60	O	1.275119	-0.639148	-0.000110
H61	H	1.264894	-0.676027	-0.093264
O62	O	0.874956	-0.035212	-0.000106
H63	H	0.771386	-0.024914	-0.000139
O64	O	1.797018	0.019372	0.623557
H65	H	1.866103	-0.026257	0.585479
O66	O	1.769003	-0.505329	-0.000151
H67	H	1.821428	-0.525233	0.092999
O68	O	1.086413	0.312978	0.126648
H69	H	1.003198	0.332130	0.188690
O70	O	1.221135	-0.263800	-0.000108
H71	H	1.147633	-0.215522	-0.000117
H72	H	1.349741	0.211316	0.369400
H73	H	0.873588	0.299229	-0.095823
H74	H	1.325649	-0.482157	-0.000129
