data_functionalizedCrystal
_audit_creation_method	'MofGen! by Chris Wilmer'
_symmetry_space_group_name_H-M	'P1'
_symmetry_Int_Tables_number	1
_symmetry_cell_setting	triclinic
loop_
_symmetry_equiv_pos_as_xyz
  x,y,z
_cell_length_a	11.169417
_cell_length_b	18.101397
_cell_length_c	11.169409
_cell_angle_alpha	89.960177
_cell_angle_beta	89.979436
_cell_angle_gamma	90.021344
loop_
_atom_site_label
_atom_site_type_symbol
_atom_site_fract_x
_atom_site_fract_y
_atom_site_fract_z
Zn1	Zn	1.834887	-0.294753	-0.678480
Zn2	Zn	2.334887	0.205247	-0.178480
Zn3	Zn	1.834738	-0.418619	-0.477770
Zn4	Zn	2.334738	0.081381	0.022230
Zn5	Zn	1.634170	-0.294798	-0.477814
Zn6	Zn	2.134170	0.205202	0.022186
Zn7	Zn	1.634145	-0.418559	-0.678415
Zn8	Zn	2.134145	0.081441	-0.178415
O9	O	1.734485	-0.356682	-0.578120
O10	O	2.234485	0.143318	-0.078120
O11	O	2.002817	-0.311190	-0.651864
O12	O	2.502817	0.188810	-0.151864
O13	O	1.808081	-0.402238	-0.309826
O14	O	2.308081	0.097762	0.190174
O15	O	1.660868	-0.191159	-0.504478
O16	O	2.160868	0.308841	-0.004478
O17	O	2.002707	-0.402194	-0.504404
O18	O	2.502707	0.097806	-0.004404
O19	O	1.808334	-0.191126	-0.651907
O20	O	2.308334	0.308874	-0.151907
O21	O	1.660724	-0.311267	-0.309859
O22	O	2.160724	0.188733	0.190141
O23	O	1.466217	-0.311209	-0.504416
O24	O	1.966217	0.188791	-0.004416
O25	O	1.660825	-0.402092	-0.846374
O26	O	2.160825	0.097908	-0.346374
O27	O	1.466198	-0.402135	-0.651796
O28	O	1.966198	0.097865	-0.151796
O29	O	1.808309	-0.311132	-0.846421
O30	O	2.308309	0.188868	-0.346421
O31	O	1.808056	-0.522244	-0.504341
O32	O	2.308056	-0.022244	-0.004341
O33	O	1.660681	-0.522200	-0.651754
O34	O	2.160681	-0.022200	-0.151754
C35	C	1.422660	-0.356671	-0.578104
C36	C	1.922660	0.143329	-0.078104
C37	C	1.289260	-0.356684	-0.578126
C38	C	1.789260	0.143316	-0.078126
C39	C	1.734382	-0.549093	-0.578062
C40	C	2.234382	-0.049093	-0.078062
C41	C	1.734448	-0.631407	-0.578077
C42	C	2.234448	-0.131407	-0.078077
C43	C	1.734601	-0.930498	-0.578186
C44	C	2.234601	-0.430498	-0.078186
C45	C	1.827067	-0.899169	-0.485190
C46	C	2.327067	-0.399169	0.014810
C47	C	1.827387	-0.813551	-0.485431
C48	C	2.327387	-0.313551	0.014569
C49	C	1.734525	-0.782115	-0.578131
C50	C	2.234525	-0.282115	-0.078131
C51	C	1.768822	-0.813109	-0.704636
C52	C	2.268822	-0.313109	-0.204636
C53	C	1.769537	-0.898754	-0.704129
C54	C	2.269537	-0.398754	-0.204129
C55	C	1.607592	-0.899011	-0.545773
C56	C	2.107592	-0.399011	-0.045773
C57	C	1.608219	-0.813362	-0.542949
C58	C	2.108219	-0.313362	-0.042949
C59	C	1.734480	-0.698256	-0.578108
C60	C	2.234480	-0.198256	-0.078108
C61	C	1.734649	-1.014357	-0.578218
C62	C	2.234649	-0.514357	-0.078218
C63	C	2.047527	-0.356694	-0.578136
C64	C	2.547527	0.143306	-0.078136
C65	C	2.180927	-0.356699	-0.578143
C66	C	2.680927	0.143301	-0.078143
C67	C	1.734581	-0.356600	-0.891162
C68	C	2.234581	0.143400	-0.391162
C69	C	1.734622	-0.356565	-1.024563
C70	C	2.234622	0.143435	-0.524563
C71	C	1.734621	-0.163520	-0.578205
C72	C	2.234621	0.336480	-0.078205
C73	C	1.734678	-0.081206	-0.578241
C74	C	2.234678	0.418794	-0.078241
C75	C	1.734458	-0.356710	-0.266295
C76	C	2.234458	0.143290	0.233705
C77	C	1.734650	-0.356537	-0.132896
C78	C	2.234650	0.143463	0.367104
H79	H	1.805929	-0.792599	-0.391629
H80	H	2.305929	-0.292599	0.108371
O81	O	1.892510	-0.925138	-0.740500
O82	O	2.392510	-0.425138	-0.240500
H83	H	1.894239	-0.986446	-0.740509
H84	H	2.394239	-0.486446	-0.240509
O85	O	1.684199	-0.926214	-0.799028
O86	O	2.184199	-0.426214	-0.299028
H87	H	1.734041	-0.960129	-0.865098
H88	H	2.234041	-0.460129	-0.365098
H89	H	1.805868	-0.919822	-0.391107
H90	H	2.305868	-0.419822	0.108893
O91	O	1.682362	-0.786119	-0.798896
O92	O	2.182362	-0.286119	-0.298896
H93	H	1.708584	-0.808796	-0.887402
H94	H	2.208584	-0.308796	-0.387402
H95	H	1.582359	-0.793113	-0.449852
H96	H	2.082359	-0.293113	0.050148
H97	H	1.535619	-0.791971	-0.605724
H98	H	2.035619	-0.291971	-0.105724
H99	H	1.860620	-0.791598	-0.732558
H100	H	2.360620	-0.291598	-0.232558
H101	H	1.538698	-0.919271	-0.613507
H102	H	2.038698	-0.419271	-0.113507
O103	O	1.951017	-0.927585	-0.513270
O104	O	2.451017	-0.427585	-0.013270
H105	H	1.947053	-0.963923	-0.593175
H106	H	2.447053	-0.463923	-0.093175
H107	H	1.576393	-0.920681	-0.455126
H108	H	2.076393	-0.420681	0.044874
O109	O	1.952007	-0.786330	-0.513842
O110	O	2.452007	-0.286330	-0.013842
H111	H	1.952674	-0.725013	-0.514101
H112	H	2.452674	-0.225013	-0.014101
