data_functionalizedCrystal
_audit_creation_method	'MofGen! by Chris Wilmer'
_symmetry_space_group_name_H-M	'P1'
_symmetry_Int_Tables_number	1
_symmetry_cell_setting	triclinic
loop_
_symmetry_equiv_pos_as_xyz
  x,y,z
_cell_length_a	16.959455
_cell_length_b	18.101397
_cell_length_c	16.959447
_cell_angle_alpha	89.966244
_cell_angle_beta	89.977004
_cell_angle_gamma	90.017485
loop_
_atom_site_label
_atom_site_type_symbol
_atom_site_fract_x
_atom_site_fract_y
_atom_site_fract_z
Zn1	Zn	1.208402	-0.294873	-0.447018
Zn2	Zn	1.208318	-0.418726	-0.314832
Zn3	Zn	1.076225	-0.294897	-0.314841
Zn4	Zn	1.076194	-0.418671	-0.446956
O5	O	1.142285	-0.356792	-0.380912
O6	O	1.319002	-0.311316	-0.429505
O7	O	1.190773	-0.402333	-0.204222
O8	O	1.093806	-0.191261	-0.332405
O9	O	1.318940	-0.402310	-0.332388
O10	O	1.190916	-0.191243	-0.429514
O11	O	1.093724	-0.311356	-0.204229
O12	O	0.965610	-0.311302	-0.332345
O13	O	1.093755	-0.402216	-0.557575
O14	O	0.965587	-0.402239	-0.429409
O15	O	1.190887	-0.311262	-0.557621
O16	O	1.190743	-0.522352	-0.332328
O17	O	1.093673	-0.522311	-0.429400
C18	C	0.936918	-0.356768	-0.380872
C19	C	0.849062	-0.356775	-0.380874
C20	C	0.477543	-0.404126	-0.330317
C21	C	0.477629	-0.309520	-0.431602
C22	C	0.560175	-0.309507	-0.431583
C23	C	0.601409	-0.356806	-0.380931
C24	C	0.560097	-0.404116	-0.330298
C25	C	0.601493	-0.262203	-0.482221
C26	C	0.684044	-0.262189	-0.482204
C27	C	0.725280	-0.309485	-0.431548
C28	C	0.683962	-0.356797	-0.380912
C29	C	0.725196	-0.404095	-0.330260
C30	C	0.683881	-0.451404	-0.279620
C31	C	0.601332	-0.451412	-0.279642
C32	C	0.807828	-0.309477	-0.431526
C33	C	0.807750	-0.404086	-0.330241
C34	C	1.142217	-0.549202	-0.380873
C35	C	1.142260	-0.631516	-0.380884
C36	C	1.142361	-0.930607	-0.380956
C37	C	1.203265	-0.899277	-0.319717
C38	C	1.203476	-0.813658	-0.319876
C39	C	1.142311	-0.782225	-0.380919
C40	C	1.164890	-0.813229	-0.464238
C41	C	1.165362	-0.898874	-0.463904
C42	C	1.058716	-0.899113	-0.359596
C43	C	1.059129	-0.813464	-0.357737
C44	C	1.142282	-0.698365	-0.380904
C45	C	1.142393	-1.014467	-0.380977
C46	C	1.348453	-0.356817	-0.380952
C47	C	1.436309	-0.356827	-0.380969
C48	C	1.142327	-0.356730	-0.587080
C49	C	1.142345	-0.356704	-0.674937
C50	C	1.142374	-0.163630	-0.380968
C51	C	1.142412	-0.081316	-0.380991
C52	C	1.091886	-0.309258	-1.046423
C53	C	1.192943	-0.403994	-1.046403
C54	C	1.192929	-0.404011	-0.963857
C55	C	1.142393	-0.356652	-0.922590
C56	C	1.091869	-0.309276	-0.963869
C57	C	1.243446	-0.451392	-0.922571
C58	C	1.243434	-0.451411	-0.840020
C59	C	1.192900	-0.404048	-0.798752
C60	C	1.142376	-0.356669	-0.840036
C61	C	1.091839	-0.309310	-0.798770
C62	C	1.041317	-0.261927	-0.840052
C63	C	1.041336	-0.261913	-0.922601
C64	C	1.192882	-0.404063	-0.716204
C65	C	1.091822	-0.309328	-0.716216
C66	C	1.142288	-0.356800	-0.175546
C67	C	1.142423	-0.356617	-0.087689
H68	H	0.443900	-0.442641	-0.289085
H69	H	0.444052	-0.271015	-0.472845
F70	F	0.728008	-0.211839	-0.536099
F71	F	0.851795	-0.259134	-0.485420
H72	H	1.000203	-0.223337	-0.956221
H73	H	1.284582	-0.489957	-0.956177
H74	H	0.567915	-0.223700	-0.523464
F75	F	0.996624	-0.785507	-0.411765
F76	F	1.108678	-0.786621	-0.525481
F77	F	1.246719	-0.454399	-1.090324
H78	H	1.225347	-0.791723	-0.482636
H79	H	0.841316	-0.442600	-0.288990
F80	F	1.185030	-0.926266	-0.238724
F81	F	0.999403	-0.925597	-0.417893
H82	H	1.050671	-0.270758	-0.682622
F83	F	1.184971	-0.786261	-0.239135
F84	F	1.284461	-0.786806	-0.338352
H85	H	0.717464	-0.489918	-0.238383
F86	F	1.038123	-0.258830	-1.090358
H87	H	1.264886	-0.920747	-0.333688
H88	H	0.567686	-0.489928	-0.238413
F89	F	1.245277	-0.924914	-0.487551
F90	F	1.109892	-0.925962	-0.525570
F91	F	0.987534	-0.211526	-0.796124
F92	F	1.031866	-0.927428	-0.281561
F93	F	1.297205	-0.501837	-0.796092
F94	F	1.036871	-0.786985	-0.277594
H95	H	1.234021	-0.442636	-0.682595
