data_functionalizedCrystal
_audit_creation_method	'MofGen! by Chris Wilmer'
_symmetry_space_group_name_H-M	'P1'
_symmetry_Int_Tables_number	1
_symmetry_cell_setting	triclinic
loop_
_symmetry_equiv_pos_as_xyz
  x,y,z
_cell_length_a	19.188930
_cell_length_b	15.538191
_cell_length_c	14.185569
_cell_angle_alpha	97.872928
_cell_angle_beta	76.904313
_cell_angle_gamma	65.208439
loop_
_atom_site_label
_atom_site_type_symbol
_atom_site_fract_x
_atom_site_fract_y
_atom_site_fract_z
O1	O	-0.875228	-0.139249	-0.083712
O2	O	-0.667954	-0.155079	-0.083640
O3	O	-0.811938	-0.009873	-0.083695
O4	O	-0.731245	-0.284455	-0.083657
O5	O	-0.854470	0.033017	0.083124
O6	O	-0.710487	-0.112188	0.083178
O7	O	-0.917761	-0.096359	0.083107
Cu8	Cu	-0.818007	-0.100357	0.098374
Cu9	Cu	-0.767708	-0.151080	-0.098908
O10	O	-0.773778	-0.241564	0.083161
C11	C	-0.841646	0.046701	-0.000292
C12	C	-0.866792	0.151373	-0.000310
C13	C	-0.663341	-0.133118	-0.000222
C14	C	-0.586230	-0.131571	-0.000196
C15	C	-0.922374	-0.118320	-0.000313
C16	C	-0.999483	-0.119869	-0.000346
C17	C	-0.519903	-0.216782	-0.000200
C18	C	-0.447440	-0.215338	-0.000212
C19	C	-0.441303	-0.128682	-0.000239
C20	C	-0.507644	-0.043458	-0.000229
C21	C	-0.580108	-0.044903	-0.000208
N22	N	-0.335472	-0.077050	-0.057064
N23	N	-0.266633	-0.075684	-0.057086
C24	C	-0.222977	-0.124325	-0.000301
N25	N	-0.250754	-0.174400	0.056495
N26	N	-0.319598	-0.175770	0.056513
C27	C	-0.362732	-0.127106	-0.000261
C28	C	-0.078076	-0.207975	-0.000316
C29	C	-0.005614	-0.206526	-0.000321
C30	C	-0.065818	-0.034646	-0.000348
C31	C	-0.138280	-0.036096	-0.000333
C32	C	-0.144402	-0.122764	-0.000321
C33	C	-0.744069	-0.298139	-0.000244
C34	C	-0.718921	-0.402813	-0.000232
N35	N	-0.853391	-0.064681	0.237132
C36	C	-0.616954	0.438162	-0.000203
C37	C	-0.640603	0.536524	-0.000209
C38	C	-0.773620	0.559503	-0.000255
C39	C	-0.749981	0.461140	-0.000254
C40	C	-0.671647	0.400477	-0.000227
C41	C	-0.804674	0.423455	-0.000278
C42	C	-0.781038	0.325102	-0.000272
C43	C	-0.702708	0.264434	-0.000241
C44	C	-0.648011	0.302124	-0.000220
C45	C	-0.883009	0.484121	-0.000298
C46	C	-0.937702	0.446436	-0.000322
C47	C	-0.914064	0.348080	-0.000323
C48	C	-0.835735	0.287412	-0.000293
C49	C	-0.968761	0.310389	-0.000344
C50	C	-0.945125	0.212036	-0.000338
C51	C	-0.812099	0.189058	-0.000286
N52	N	-0.732332	-0.186749	-0.237666
C53	C	-0.628385	-0.291525	0.604867
C54	C	-0.655191	-0.264507	0.709878
C55	C	-0.782695	-0.135975	0.709791
C56	C	-0.755899	-0.162979	0.604778
C57	C	-0.678743	-0.240756	0.552324
C58	C	-0.806257	-0.112210	0.552235
C59	C	-0.779464	-0.139215	0.447230
C60	C	-0.702312	-0.216991	0.394769
C61	C	-0.651950	-0.267761	0.447319
C62	C	-0.883414	-0.034438	0.604690
C63	C	-0.933772	0.016332	0.552147
C64	C	-0.906977	-0.010669	0.447141
C65	C	-0.829826	-0.088445	0.394680
C66	C	-0.957339	0.040101	0.394590
C67	C	-0.930546	0.013096	0.289586
C68	C	-0.803033	-0.115450	0.289675
H69	H	-0.524881	-0.287355	-0.000193
H70	H	-0.596063	0.567205	-0.000174
Cl71	Cl	-1.030766	0.114103	0.618096
H72	H	-0.060807	0.035894	-0.000432
Cl73	Cl	-0.706030	-0.213220	0.223729
Cl74	Cl	-0.663495	0.062229	-0.000203
H75	H	-0.683467	0.184350	-0.000231
H76	H	-0.905227	-0.012456	0.690192
H77	H	-0.393427	-0.284728	-0.000212
H78	H	-0.902248	0.564204	-0.000312
H79	H	-0.989662	0.181354	-0.000356
H80	H	-0.502639	0.027094	-0.000265
Cl81	Cl	-0.085779	-0.316925	-0.000291
H82	H	0.048391	-0.275916	-0.000318
Cl83	Cl	-0.221666	0.071032	-0.000334
Cl84	Cl	-0.668631	-0.250945	0.262761
Cl85	Cl	-0.554948	-0.365531	0.381373
Cl86	Cl	-0.993857	0.076920	0.223530
Cl87	Cl	-0.591872	-0.328346	0.775925
Cl88	Cl	-0.549530	0.225852	-0.000196
H89	H	-0.565555	-0.354852	0.562157
Cl90	Cl	-0.879689	-0.038204	0.775740
Cl91	Cl	-1.054336	0.137865	0.460543
Cl92	Cl	-1.067238	0.386667	-0.000359
H93	H	-0.553166	0.388764	-0.000188
Cl94	Cl	-0.872094	0.635775	-0.000281
H95	H	-0.748310	0.139661	-0.000272
H96	H	-1.001482	0.495842	-0.000340
