data_functionalizedCrystal
_audit_creation_method	'MofGen! by Chris Wilmer'
_symmetry_space_group_name_H-M	'P1'
_symmetry_Int_Tables_number	1
_symmetry_cell_setting	triclinic
loop_
_symmetry_equiv_pos_as_xyz
  x,y,z
_cell_length_a	15.944551
_cell_length_b	15.021413
_cell_length_c	15.944493
_cell_angle_alpha	90.009890
_cell_angle_beta	83.486891
_cell_angle_gamma	89.997174
loop_
_atom_site_label
_atom_site_type_symbol
_atom_site_fract_x
_atom_site_fract_y
_atom_site_fract_z
O1	O	1.114506	-0.073927	0.108324
O2	O	1.447840	0.259406	0.441657
O3	O	1.781173	0.592739	0.774990
O4	O	0.869954	-0.073948	0.121680
O5	O	1.203287	0.259385	0.455014
O6	O	1.536621	0.592719	0.788347
O7	O	0.998934	-0.073945	-0.007276
O8	O	1.332267	0.259389	0.326057
O9	O	1.665600	0.592722	0.659391
O10	O	0.985527	-0.073931	0.237280
O11	O	1.318860	0.259402	0.570614
O12	O	1.652193	0.592736	0.903947
O13	O	0.998913	0.074120	-0.007258
O14	O	1.332246	0.407453	0.326076
O15	O	1.665580	0.740786	0.659409
O16	O	0.869933	0.074116	0.121699
O17	O	1.203267	0.407449	0.455032
O18	O	1.536600	0.740783	0.788365
O19	O	1.114486	0.074137	0.108342
O20	O	1.447819	0.407470	0.441676
O21	O	1.781152	0.740803	0.775009
Zn22	Zn	0.992206	0.097635	0.115023
Zn23	Zn	1.325540	0.430968	0.448357
Zn24	Zn	1.658873	0.764301	0.781690
Zn25	Zn	0.992233	-0.097446	0.114999
Zn26	Zn	1.325567	0.235887	0.448333
Zn27	Zn	1.658900	0.569220	0.781666
O28	O	0.985506	0.074133	0.237299
O29	O	1.318839	0.407467	0.570632
O30	O	1.652173	0.740800	0.903965
C31	C	0.838650	0.000081	0.121135
C32	C	1.171983	0.333414	0.454468
C33	C	1.505316	0.666748	0.787802
C34	C	0.745404	0.000073	0.119473
C35	C	1.078737	0.333406	0.452806
C36	C	1.412071	0.666739	0.786139
N37	N	0.992194	0.230772	0.115039
N38	N	1.325527	0.564106	0.448373
N39	N	1.658861	0.897439	0.781706
C40	C	0.998375	0.000084	-0.038562
C41	C	1.331709	0.333417	0.294772
C42	C	1.665042	0.666750	0.628105
C43	C	0.996733	0.000072	-0.131810
C44	C	1.330066	0.333406	0.201523
C45	C	1.663399	0.666739	0.534856
C46	C	0.530565	0.000085	0.035566
C47	C	0.863898	0.333419	0.368899
C48	C	1.197231	0.666752	0.702233
C49	C	0.469547	-0.072916	0.074520
C50	C	0.802880	0.260417	0.407854
C51	C	1.136213	0.593751	0.741187
C52	C	0.574679	0.000083	0.116465
C53	C	0.908012	0.333416	0.449799
C54	C	1.241346	0.666750	0.783132
C55	C	0.469549	0.073064	0.074558
C56	C	0.802882	0.406397	0.407891
C57	C	1.136215	0.739730	0.741224
C58	C	0.409767	0.000097	0.113555
C59	C	0.743100	0.333430	0.446888
C60	C	1.076433	0.666764	0.780221
C61	C	0.514889	-0.072979	0.155442
C62	C	0.848222	0.260355	0.488775
C63	C	1.181556	0.593688	0.822109
C64	C	0.514897	0.073067	0.155468
C65	C	0.848231	0.406400	0.488801
C66	C	1.181564	0.739733	0.822135
C67	C	0.453897	0.000048	0.194481
C68	C	0.787230	0.333381	0.527814
C69	C	1.120563	0.666714	0.861148
C70	C	0.669681	0.000074	0.118140
C71	C	1.003014	0.333408	0.451473
C72	C	1.336347	0.666741	0.784807
C73	C	0.314766	0.000099	0.111886
C74	C	0.648099	0.333433	0.445220
C75	C	0.981433	0.666766	0.778553
C76	C	1.145790	0.000106	0.108888
C77	C	1.479123	0.333439	0.442221
C78	C	1.812457	0.666772	0.775554
C79	C	1.239036	0.000108	0.110550
C80	C	1.572369	0.333442	0.443883
C81	C	1.905702	0.666775	0.777217
N82	N	0.992252	-0.230584	0.114976
N83	N	1.325586	0.102750	0.448310
N84	N	1.658919	0.436083	0.781643
C85	C	0.932545	0.470454	0.174641
C86	C	1.265878	0.803787	0.507974
C87	C	1.599211	1.137121	0.841308
C88	C	1.008442	0.529796	0.190948
C89	C	1.341775	0.863130	0.524282
C90	C	1.675108	1.196463	0.857615
C91	C	0.992215	0.412379	0.115018
C92	C	1.325549	0.745713	0.448352
C93	C	1.658882	1.079046	0.781685
C94	C	0.916339	0.529779	0.098730
C95	C	1.249672	0.863112	0.432063
C96	C	1.583006	1.196446	0.765396
C97	C	0.992229	0.587803	0.115000
C98	C	1.325563	0.921137	0.448333
C99	C	1.658896	1.254470	0.781667
C100	C	1.068151	0.470415	0.131364
C101	C	1.401484	0.803748	0.464697
C102	C	1.734817	1.137082	0.798030
C103	C	0.975998	0.470392	0.039112
C104	C	1.309332	0.803726	0.372446
C105	C	1.642665	1.137059	0.705779
C106	C	1.051950	0.529708	0.055387
C107	C	1.385283	0.863041	0.388721
C108	C	1.718617	1.196375	0.722054
C109	C	0.992206	0.311322	0.115031
C110	C	1.325540	0.644655	0.448365
C111	C	1.658873	0.977989	0.781698
C112	C	0.992247	0.688859	0.114987
C113	C	1.325581	1.022192	0.448320
C114	C	1.658914	1.355525	0.781653
C115	C	1.072653	0.000095	-0.367570
C116	C	1.405986	0.333429	-0.034237
C117	C	1.739320	0.666762	0.299097
C118	C	1.031722	-0.072911	-0.418147
C119	C	1.365055	0.260422	-0.084814
C120	C	1.698389	0.593756	0.248519
C121	C	0.993688	0.000083	-0.302531
C122	C	1.327022	0.333416	0.030802
C123	C	1.660355	0.666749	0.364135
C124	C	1.031683	0.073069	-0.418105
C125	C	1.365017	0.406402	-0.084772
C126	C	1.698350	0.739735	0.248561
C127	C	0.990754	0.000097	-0.467441
C128	C	1.324087	0.333430	-0.134108
C129	C	1.657421	0.666764	0.199226
C130	C	0.952779	-0.072984	-0.351880
C131	C	1.286112	0.260349	-0.018547
C132	C	1.619446	0.593683	0.314787
C133	C	0.952752	0.073061	-0.351835
C134	C	1.286085	0.406395	-0.018501
C135	C	1.619418	0.739728	0.314832
C136	C	0.911763	0.000037	-0.402379
C137	C	1.245096	0.333371	-0.069046
C138	C	1.578430	0.666704	0.264288
C139	C	0.995381	0.000074	-0.207531
C140	C	1.328715	0.333407	0.125802
C141	C	1.662048	0.666741	0.459135
C142	C	0.989055	0.000100	-0.562438
C143	C	1.322388	0.333433	-0.229105
C144	C	1.655722	0.666766	0.104229
C145	C	0.986064	0.000103	0.268584
C146	C	1.319398	0.333436	0.601918
C147	C	1.652731	0.666770	0.935251
C148	C	0.987707	0.000109	0.361833
C149	C	1.321040	0.333442	0.695166
C150	C	1.654374	0.666775	1.028500
H151	H	0.563912	-0.000009	-0.031574
H152	H	0.897245	0.333324	0.301760
H153	H	1.230578	0.666658	0.635093
F154	F	1.152050	0.436479	0.149459
F155	F	1.485383	0.769812	0.482792
F156	F	1.818716	1.103145	0.816125
H157	H	1.022171	0.555888	0.255133
H158	H	1.355504	0.889222	0.588466
H159	H	1.688838	1.222555	0.921799
F160	F	0.541192	0.153745	0.200166
F161	F	0.874526	0.487078	0.533499
F162	F	1.207859	0.820411	0.866833
F163	F	1.117985	0.563506	-0.010530
F164	F	1.451318	0.896839	0.322804
F165	F	1.784652	1.230172	0.656137
H166	H	0.962245	0.444279	-0.025052
H167	H	1.295579	0.777613	0.308282
H168	H	1.628912	1.110946	0.641615
F169	F	1.161556	0.000010	-0.347140
F170	F	1.494889	0.333343	-0.013807
F171	F	1.828223	0.666677	0.319526
F172	F	1.075280	0.153739	-0.455908
F173	F	1.408613	0.487072	-0.122575
F174	F	1.741946	0.820406	0.210758
F175	F	0.832461	0.563864	0.080731
F176	F	1.165794	0.897198	0.414064
F177	F	1.499128	1.230531	0.747398
H178	H	0.882134	0.444437	0.225102
H179	H	1.215467	0.777770	0.558436
H180	H	1.548800	1.111104	0.891769
F181	F	0.443283	-0.153592	0.029789
F182	F	0.776616	0.179741	0.363122
F183	F	1.109950	0.513075	0.696456
H184	H	1.065078	-0.134628	-0.447101
H185	H	1.398412	0.198706	-0.113767
H186	H	1.731745	0.532039	0.219566
H187	H	0.420724	0.000011	0.261690
H188	H	0.754058	0.333344	0.595023
H189	H	1.087391	0.666677	0.928357
F190	F	0.443294	0.153731	0.029826
F191	F	0.776627	0.487064	0.363160
F192	F	1.109961	0.820397	0.696493
F193	F	0.909229	-0.153747	-0.314224
F194	F	1.242563	0.179587	0.019109
F195	F	1.575896	0.512920	0.352442
H196	H	0.534878	-0.134763	0.189626
H197	H	0.868211	0.198571	0.522959
H198	H	1.201545	0.531904	0.856292
F199	F	0.822791	-0.000020	-0.422597
F200	F	1.156124	0.333313	-0.089263
F201	F	1.489457	0.666647	0.244070
F202	F	0.909203	0.153733	-0.313954
F203	F	1.242537	0.487067	0.019380
F204	F	1.575870	0.820400	0.352713
