data_functionalizedCrystal
_audit_creation_method	'MofGen! by Chris Wilmer'
_symmetry_space_group_name_H-M	'P1'
_symmetry_Int_Tables_number	1
_symmetry_cell_setting	triclinic
loop_
_symmetry_equiv_pos_as_xyz
  x,y,z
_cell_length_a	19.805405
_cell_length_b	17.077404
_cell_length_c	17.077396
_cell_angle_alpha	90.017060
_cell_angle_beta	90.031438
_cell_angle_gamma	90.027952
loop_
_atom_site_label
_atom_site_type_symbol
_atom_site_fract_x
_atom_site_fract_y
_atom_site_fract_z
Zn1	Zn	0.269448	-1.200009	-0.443835
Zn2	Zn	0.382645	-1.199911	-0.312566
Zn3	Zn	0.269475	-1.068747	-0.312583
Zn4	Zn	0.382601	-1.068698	-0.443790
O5	O	0.326042	-1.134341	-0.378194
O6	O	0.284471	-1.309843	-0.426434
O7	O	0.367662	-1.182491	-0.202721
O8	O	0.174755	-1.086221	-0.330020
O9	O	0.367636	-1.309771	-0.329991
O10	O	0.174735	-1.182659	-0.426451
O11	O	0.284517	-1.086125	-0.202734
O12	O	0.284475	-0.958893	-0.329976
O13	O	0.367562	-1.086138	-0.553643
O14	O	0.367588	-0.958858	-0.426373
O15	O	0.284429	-1.182611	-0.553676
O16	O	0.477355	-1.182444	-0.329947
O17	O	0.477324	-1.086042	-0.426357
C18	C	0.501898	-1.134248	-0.378162
C19	C	0.577130	-1.134280	-0.378175
C20	C	0.326030	-0.930393	-0.378172
C21	C	0.326041	-0.843144	-0.378181
C22	C	0.325988	-1.134380	-0.582938
C23	C	0.325964	-1.134397	-0.670188
C24	C	0.612469	-1.184524	-0.328028
C25	C	0.683157	-1.184556	-0.328048
C26	C	0.718506	-1.134339	-0.378211
C27	C	0.683163	-1.084092	-0.428363
C28	C	0.612476	-1.084065	-0.428347
C29	C	0.968236	-1.084200	-0.428432
C30	C	1.038928	-1.084230	-0.428443
C31	C	1.038917	-1.184691	-0.328134
C32	C	0.968230	-1.184664	-0.328117
C33	C	0.932893	-1.134421	-0.378272
C34	C	0.856245	-1.134389	-0.378250
C35	C	0.795153	-1.134367	-0.378229
C36	C	1.149500	-1.134449	-0.378252
C37	C	1.074268	-1.134478	-0.378300
C38	C	0.326055	-1.339085	-0.378216
C39	C	0.326061	-1.426335	-0.378225
C40	C	0.369383	-0.802155	-0.428295
C41	C	0.369385	-0.720175	-0.428307
C42	C	0.326047	-0.679184	-0.378202
C43	C	0.282700	-0.720178	-0.328086
C44	C	0.282696	-0.802157	-0.328078
C45	C	0.282713	-0.549308	-0.328105
C46	C	0.282718	-0.467324	-0.328112
C47	C	0.369403	-0.467326	-0.428334
C48	C	0.369398	-0.549305	-0.428326
C49	C	0.326052	-0.590293	-0.378209
C50	C	0.369179	-1.184646	-1.045998
C51	C	0.369199	-1.184626	-0.964018
C52	C	0.325916	-1.134447	-0.923037
C53	C	0.282616	-1.084279	-0.964041
C54	C	0.282601	-1.084296	-1.046020
C55	C	0.282651	-1.084250	-0.793171
C56	C	0.282666	-1.084234	-0.711186
C57	C	0.369250	-1.184580	-0.711169
C58	C	0.369234	-1.184596	-0.793148
C59	C	0.325933	-1.134429	-0.834146
C60	C	0.326048	-1.134348	-0.174246
C61	C	0.325881	-1.134483	-0.086996
H62	H	0.583692	-1.225413	-0.287176
H63	H	0.404692	-0.582677	-0.469122
H64	H	0.247391	-1.043399	-0.826549
O65	O	0.933864	-1.233333	-0.279305
C66	C	0.854084	-1.243934	-0.173349
C67	C	0.892972	-1.188723	-0.228565
H68	H	0.821004	-1.207890	-0.132323
H69	H	0.891455	-1.279838	-0.137454
H70	H	0.820969	-1.284958	-0.209437
H71	H	0.926089	-1.147652	-0.192538
H72	H	0.855565	-1.152874	-0.264463
H73	H	0.583704	-1.043153	-0.469182
H74	H	0.404679	-0.686806	-0.469114
O75	O	0.717394	-1.035287	-0.477168
C76	C	0.709938	-0.935605	-0.576632
C77	C	0.671090	-0.990852	-0.521414
H78	H	0.672518	-0.899653	-0.612407
H79	H	0.742962	-0.971594	-0.617769
H80	H	0.743102	-0.894627	-0.540551
H81	H	0.637889	-1.031841	-0.557432
H82	H	0.638108	-0.954814	-0.480274
H83	H	0.404677	-0.835524	-0.469094
O84	O	0.411242	-1.233423	-0.671381
C85	C	0.444134	-1.366920	-0.646330
C86	C	0.396532	-1.311695	-0.691430
H87	H	0.432268	-1.430213	-0.662536
H88	H	0.436710	-1.358355	-0.580690
H89	H	0.498703	-1.353065	-0.662419
H90	H	0.341945	-1.325515	-0.675407
H91	H	0.404014	-1.320270	-0.757060
O92	O	0.411191	-1.233500	-1.085717
C93	C	0.444031	-1.367010	-1.110831
C94	C	0.396418	-1.311771	-1.065791
H95	H	0.432094	-1.430304	-1.094750
H96	H	0.498620	-1.353246	-1.094674
H97	H	0.436595	-1.358368	-1.176463
H98	H	0.403793	-1.320381	-1.000149
H99	H	0.341846	-1.325548	-1.082013
H100	H	1.067707	-1.043338	-0.469298
O101	O	0.240536	-0.589158	-0.279531
C102	C	0.149164	-0.681789	-0.269135
C103	C	0.196871	-0.636696	-0.324238
H104	H	0.113858	-0.720247	-0.305257
H105	H	0.118144	-0.638444	-0.233337
H106	H	0.180210	-0.720101	-0.228007
H107	H	0.165878	-0.598383	-0.365413
H108	H	0.227893	-0.680083	-0.359981
H109	H	0.247420	-1.043377	-0.677821
O110	O	0.411161	-1.233393	-0.924103
C111	C	0.420286	-1.339376	-0.831584
C112	C	0.372686	-1.284183	-0.876725
H113	H	0.389198	-1.380465	-0.793281
H114	H	0.455673	-1.303349	-0.793135
H115	H	0.451232	-1.375212	-0.874967
H116	H	0.341697	-1.248335	-0.833399
H117	H	0.337344	-1.320256	-0.915186
O118	O	0.240667	-1.035497	-0.924146
C119	C	0.231570	-0.929476	-0.831615
C120	C	0.279156	-0.984684	-0.876730
H121	H	0.262671	-0.888369	-0.793280
H122	H	0.196201	-0.965491	-0.793200
H123	H	0.200606	-0.893661	-0.875015
H124	H	0.310165	-1.020511	-0.833387
H125	H	0.314482	-0.948624	-0.915157
O126	O	0.240476	-1.035544	-1.085727
C127	C	0.154629	-0.935979	-1.077097
C128	C	0.202287	-0.991168	-1.032033
H129	H	0.123752	-0.900074	-1.033706
H130	H	0.119188	-0.972010	-1.115475
H131	H	0.185706	-0.894954	-1.115481
H132	H	0.171265	-1.032203	-0.993606
H133	H	0.237730	-0.955087	-0.993705
O134	O	1.073221	-1.233422	-0.279311
C135	C	1.094893	-1.271654	-0.145833
C136	C	1.056013	-1.216410	-0.201030
H137	H	1.080984	-1.257931	-0.082532
H138	H	1.151493	-1.263045	-0.154401
H139	H	1.080947	-1.334931	-0.159714
H140	H	1.069902	-1.153113	-0.187183
H141	H	0.999422	-1.225087	-0.192452
O142	O	0.240696	-0.680325	-0.279334
C143	C	0.231475	-0.587691	-0.173417
C144	C	0.279122	-0.632788	-0.228568
H145	H	0.262523	-0.549235	-0.132370
H146	H	0.200505	-0.631033	-0.137541
H147	H	0.196114	-0.549378	-0.209554
H148	H	0.314524	-0.671103	-0.192492
H149	H	0.310045	-0.589404	-0.264447
O150	O	0.240649	-0.427577	-0.279348
C151	C	0.207652	-0.402369	-0.145910
C152	C	0.255327	-0.447453	-0.201039
H153	H	0.219511	-0.418410	-0.082585
H154	H	0.153077	-0.418525	-0.159754
H155	H	0.215103	-0.336744	-0.154582
H156	H	0.247936	-0.513089	-0.192398
H157	H	0.309884	-0.431232	-0.187181
O158	O	0.717380	-1.233385	-0.279259
C159	C	0.709910	-1.333057	-0.179788
C160	C	0.671069	-1.277782	-0.234990
H161	H	0.672484	-1.368978	-0.143993
H162	H	0.743039	-1.297093	-0.138668
H163	H	0.742968	-1.374063	-0.215882
H164	H	0.637974	-1.236765	-0.198958
H165	H	0.637983	-1.313795	-0.276112
H166	H	0.247398	-0.835529	-0.287275
H167	H	0.939470	-1.043289	-0.469268
H168	H	0.404695	-0.433949	-0.469143
O169	O	0.411302	-1.233235	-0.833049
C170	C	0.502678	-1.243758	-0.925559
C171	C	0.455071	-1.188586	-0.880430
H172	H	0.538086	-1.207680	-0.963864
H173	H	0.471624	-1.284812	-0.964003
H174	H	0.533599	-1.279634	-0.882167
H175	H	0.424139	-1.152659	-0.923765
H176	H	0.486163	-1.147584	-0.841973
