data_functionalizedCrystal
_audit_creation_method	'MofGen! by Chris Wilmer'
_symmetry_space_group_name_H-M	'P1'
_symmetry_Int_Tables_number	1
_symmetry_cell_setting	triclinic
loop_
_symmetry_equiv_pos_as_xyz
  x,y,z
_cell_length_a	17.699083
_cell_length_b	16.176319
_cell_length_c	17.699083
_cell_angle_alpha	89.992304
_cell_angle_beta	96.716985
_cell_angle_gamma	90.001389
loop_
_atom_site_label
_atom_site_type_symbol
_atom_site_fract_x
_atom_site_fract_y
_atom_site_fract_z
O1	O	1.004079	0.068632	-0.095713
O2	O	0.783700	0.068660	-0.108166
O3	O	0.900116	0.068638	0.008250
O4	O	0.887663	0.068654	-0.212129
O5	O	0.900100	-0.068855	0.008257
O6	O	0.783684	-0.068834	-0.108158
O7	O	1.004063	-0.068861	-0.095706
Cu8	Cu	0.893872	-0.081401	-0.101931
Cu9	Cu	0.893891	0.081200	-0.101940
O10	O	0.887647	-0.068839	-0.212121
C11	C	0.755495	-0.000084	-0.107716
C12	C	0.671477	-0.000073	-0.106377
C13	C	0.622856	-0.000069	-0.174710
C14	C	0.543913	-0.000079	-0.173448
C15	C	0.513592	-0.000089	-0.103852
C16	C	0.562219	-0.000096	-0.035513
C17	C	0.641161	-0.000091	-0.036776
C18	C	0.243856	-0.000117	-0.030418
C19	C	0.164908	-0.000120	-0.029160
C20	C	0.146608	-0.000105	-0.167090
C21	C	0.225550	-0.000100	-0.168353
C22	C	0.274170	-0.000112	-0.100015
C23	C	0.359769	-0.000102	-0.101384
C24	C	0.427995	-0.000093	-0.102481
N25	N	0.893864	-0.195767	-0.101925
C26	C	0.945429	-0.239040	-0.050397
C27	C	0.945432	-0.325588	-0.050396
C28	C	0.893875	-0.368859	-0.101927
C29	C	0.842305	-0.325579	-0.153457
C30	C	0.842299	-0.239034	-0.153454
C31	C	0.842331	-0.674608	-0.153472
C32	C	0.842344	-0.761159	-0.153473
C33	C	0.945465	-0.761161	-0.050414
C34	C	0.945458	-0.674616	-0.050410
C35	C	0.893886	-0.631344	-0.101937
C36	C	0.893882	-0.537499	-0.101937
C37	C	0.893883	-0.462702	-0.101932
C38	C	1.032268	-0.000116	-0.096156
C39	C	1.116286	-0.000121	-0.097494
C40	C	0.899662	-0.000109	0.036451
C41	C	0.898323	-0.000109	0.120469
N42	N	0.893905	0.195565	-0.101941
C43	C	0.888102	-0.000091	-0.240322
C44	C	0.889440	-0.000085	-0.324340
C45	C	0.966656	-0.000119	0.169090
C46	C	0.965394	-0.000111	0.248033
C47	C	0.895798	-0.000100	0.278354
C48	C	0.827459	-0.000088	0.229727
C49	C	0.828722	-0.000089	0.150785
C50	C	0.822364	-0.000080	0.548090
C51	C	0.821106	-0.000081	0.627038
C52	C	0.959036	-0.000102	0.645338
C53	C	0.960299	-0.000104	0.566396
C54	C	0.891961	-0.000087	0.517776
C55	C	0.893330	-0.000094	0.432177
C56	C	0.894427	-0.000099	0.363951
H57	H	0.250232	-0.000089	-0.225025
H58	H	0.647537	-0.000060	-0.231384
H59	H	0.107012	-0.000100	-0.222734
N60	N	0.491471	-0.000168	-0.247150
H61	H	0.522658	-0.000186	-0.291430
H62	H	0.458273	0.050769	-0.249690
N63	N	1.001025	-0.192375	0.005199
H64	H	0.993196	-0.130981	-0.002614
H65	H	1.054704	-0.207488	-0.003466
N66	N	1.001074	-0.372262	0.005154
H67	H	1.033746	-0.331718	0.037787
H68	H	1.034464	-0.408145	-0.023814
H69	H	1.014680	-0.000111	0.684934
N70	N	1.001065	-0.627953	0.005177
H71	H	0.972201	-0.592058	0.038652
H72	H	1.034508	-0.592081	-0.023752
H73	H	0.987456	-0.796403	-0.008455
H74	H	0.283434	-0.000127	0.025228
N75	N	0.132211	-0.000142	0.045912
H76	H	0.099865	-0.051112	0.049504
H77	H	0.099904	0.050859	0.049470
N78	N	0.529521	-0.000120	0.039553
H79	H	0.472134	-0.000122	0.029986
H80	H	0.547314	0.050846	0.069452
N81	N	0.786729	-0.807834	-0.209050
H82	H	0.754054	-0.767290	-0.241690
H83	H	0.753337	-0.843752	-0.180108
N84	N	0.786706	-0.627942	-0.209041
H85	H	0.754048	-0.668489	-0.241685
H86	H	0.815606	-0.592018	-0.242467
N87	N	0.748658	-0.000066	0.495658
H88	H	0.760013	-0.000062	0.441047
H89	H	0.718333	0.050910	0.505462
H90	H	0.680748	-0.000095	0.018868
H91	H	0.764429	-0.000074	0.651721
N92	N	0.786690	-0.372246	-0.209034
H93	H	0.794519	-0.433639	-0.201219
H94	H	0.795328	-0.357106	-0.262716
H95	H	0.773078	-0.000081	0.111198
N96	N	0.786679	-0.192356	-0.209026
H97	H	0.754019	-0.232899	-0.241672
H98	H	0.815583	-0.156434	-0.242450
H99	H	1.021038	-0.000121	0.287618
N100	N	1.041722	-0.000138	0.136389
H101	H	1.084819	-0.000142	0.179172
H102	H	1.045258	0.050830	0.104027
N103	N	0.752393	-0.000070	0.262425
H104	H	0.761960	-0.000074	0.319812
H105	H	0.722491	-0.051036	0.244634
H106	H	1.016971	-0.000117	0.541714
