data_functionalizedCrystal
_audit_creation_method	'MofGen! by Chris Wilmer'
_symmetry_space_group_name_H-M	'P1'
_symmetry_Int_Tables_number	1
_symmetry_cell_setting	triclinic
loop_
_symmetry_equiv_pos_as_xyz
  x,y,z
_cell_length_a	18.215404
_cell_length_b	18.215407
_cell_length_c	18.215387
_cell_angle_alpha	89.938492
_cell_angle_beta	89.911442
_cell_angle_gamma	90.023744
loop_
_atom_site_label
_atom_site_type_symbol
_atom_site_fract_x
_atom_site_fract_y
_atom_site_fract_z
Zn1	Zn	0.292550	-1.125375	0.416134
Zn2	Zn	0.542550	-0.875375	0.666134
Zn3	Zn	0.792550	-0.625375	0.916134
Zn4	Zn	1.042550	-0.375375	1.166134
Zn5	Zn	0.415752	-1.125197	0.293068
Zn6	Zn	0.665752	-0.875197	0.543068
Zn7	Zn	0.915752	-0.625197	0.793068
Zn8	Zn	1.165752	-0.375197	1.043068
Zn9	Zn	0.292704	-1.002219	0.293079
Zn10	Zn	0.542704	-0.752219	0.543079
Zn11	Zn	0.792704	-0.502219	0.793079
Zn12	Zn	1.042704	-0.252219	1.043079
Zn13	Zn	0.415579	-1.002275	0.416092
Zn14	Zn	0.665579	-0.752275	0.666092
Zn15	Zn	0.915579	-0.502275	0.916092
Zn16	Zn	1.165579	-0.252275	1.166092
O17	O	0.354146	-1.063767	0.354593
O18	O	0.604146	-0.813767	0.604593
O19	O	0.854146	-0.563767	0.854593
O20	O	1.104146	-0.313767	1.104593
O21	O	0.308901	-1.228335	0.399822
O22	O	0.558901	-0.978335	0.649822
O23	O	0.808901	-0.728335	0.899822
O24	O	1.058901	-0.478335	1.149822
O25	O	0.399567	-1.108787	0.190085
O26	O	0.649567	-0.858787	0.440085
O27	O	0.899567	-0.608787	0.690085
O28	O	1.149567	-0.358787	0.940085
O29	O	0.189699	-1.018607	0.309425
O30	O	0.439699	-0.768607	0.559425
O31	O	0.689699	-0.518607	0.809425
O32	O	0.939699	-0.268607	1.059425
O33	O	0.399417	-1.228205	0.309406
O34	O	0.649417	-0.978205	0.559406
O35	O	0.899417	-0.728205	0.809406
O36	O	1.149417	-0.478205	1.059406
O37	O	0.189586	-1.109089	0.399833
O38	O	0.439586	-0.859089	0.649833
O39	O	0.689586	-0.609089	0.899833
O40	O	0.939586	-0.359089	1.149833
O41	O	0.309164	-1.018435	0.190093
O42	O	0.559164	-0.768435	0.440093
O43	O	0.809164	-0.518435	0.690093
O44	O	1.059164	-0.268435	0.940093
O45	O	0.308996	-0.899243	0.309384
O46	O	0.558996	-0.649243	0.559384
O47	O	0.808996	-0.399243	0.809384
O48	O	1.058996	-0.149243	1.059384
O49	O	0.399122	-1.018702	0.519082
O50	O	0.649122	-0.768702	0.769082
O51	O	0.899122	-0.518702	1.019082
O52	O	1.149122	-0.268702	1.269082
O53	O	0.399271	-0.899284	0.399761
O54	O	0.649271	-0.649284	0.649761
O55	O	0.899271	-0.399284	0.899761
O56	O	1.149271	-0.149284	1.149761
O57	O	0.308733	-1.109143	0.519113
O58	O	0.558733	-0.859143	0.769113
O59	O	0.808733	-0.609143	1.019113
O60	O	1.058733	-0.359143	1.269113
O61	O	0.518714	-1.108841	0.309365
O62	O	0.768714	-0.858841	0.559365
O63	O	1.018714	-0.608841	0.809365
O64	O	1.268714	-0.358841	1.059365
O65	O	0.518586	-1.018531	0.399750
O66	O	0.768586	-0.768531	0.649750
O67	O	1.018586	-0.518531	0.899750
O68	O	1.268586	-0.268531	1.149750
C69	C	0.354132	-0.872560	0.354570
C70	C	0.604132	-0.622560	0.604570
C71	C	0.854132	-0.372560	0.854570
C72	C	1.104132	-0.122560	1.104570
C73	C	0.354144	-0.790762	0.354577
C74	C	0.604144	-0.540762	0.604577
C75	C	0.854144	-0.290762	0.854577
C76	C	1.104144	-0.040762	1.104577
C77	C	0.545353	-1.063693	0.354568
C78	C	0.795353	-0.813693	0.604568
C79	C	1.045353	-0.563693	0.854568
C80	C	1.295353	-0.313693	1.104568
C81	C	0.627152	-1.063728	0.354582
C82	C	0.877152	-0.813728	0.604582
C83	C	1.127152	-0.563728	0.854582
C84	C	1.377152	-0.313728	1.104582
C85	C	0.401223	-0.602608	0.401575
C86	C	0.651223	-0.352608	0.651575
C87	C	0.901223	-0.102608	0.901575
C88	C	1.151223	0.147392	1.151575
C89	C	0.401224	-0.525750	0.401583
C90	C	0.651224	-0.275750	0.651583
C91	C	0.901224	-0.025750	0.901583
C92	C	1.151224	0.224250	1.151583
C93	C	0.307074	-0.525677	0.307615
C94	C	0.557074	-0.275677	0.557615
C95	C	0.807074	-0.025677	0.807615
C96	C	1.057074	0.224323	1.057615
C97	C	0.307070	-0.602535	0.307611
C98	C	0.557070	-0.352535	0.557611
C99	C	0.807070	-0.102535	0.807611
C100	C	1.057070	0.147465	1.057611
C101	C	0.354148	-0.640998	0.354590
C102	C	0.604148	-0.390998	0.604590
C103	C	0.854148	-0.140998	0.854590
C104	C	1.104148	0.109002	1.104590
C105	C	0.354154	-0.487282	0.354602
C106	C	0.604154	-0.237282	0.604602
C107	C	0.854154	0.012718	0.854602
C108	C	1.104154	0.262718	1.104602
C109	C	0.354156	-0.403948	0.354610
C110	C	0.604156	-0.153948	0.604610
C111	C	0.854156	0.096052	0.854610
C112	C	1.104156	0.346052	1.104610
C113	C	0.354146	-0.724337	0.354583
C114	C	0.604146	-0.474337	0.604583
C115	C	0.854146	-0.224337	0.854583
C116	C	1.104146	0.025663	1.104583
C117	C	0.815387	-1.110867	0.307615
C118	C	1.065387	-0.860867	0.557615
C119	C	1.315387	-0.610867	0.807615
C120	C	1.565387	-0.360867	1.057615
C121	C	0.892246	-1.110901	0.307637
C122	C	1.142246	-0.860901	0.557637
C123	C	1.392246	-0.610901	0.807637
C124	C	1.642246	-0.360901	1.057637
C125	C	0.892153	-1.016779	0.401678
C126	C	1.142153	-0.766779	0.651678
C127	C	1.392153	-0.516779	0.901678
C128	C	1.642153	-0.266779	1.151678
C129	C	0.815296	-1.016749	0.401659
C130	C	1.065296	-0.766749	0.651659
C131	C	1.315296	-0.516749	0.901659
C132	C	1.565296	-0.266749	1.151659
C133	C	0.776915	-1.063792	0.354623
C134	C	1.026915	-0.813792	0.604623
C135	C	1.276915	-0.563792	0.854623
C136	C	1.526915	-0.313792	1.104623
C137	C	0.930631	-1.063856	0.354664
C138	C	1.180631	-0.813856	0.604664
C139	C	1.430631	-0.563856	0.854664
C140	C	1.680631	-0.313856	1.104664
C141	C	1.013965	-1.063893	0.354688
C142	C	1.263965	-0.813893	0.604688
C143	C	1.513965	-0.563893	0.854688
C144	C	1.763965	-0.313893	1.104688
C145	C	0.693576	-1.063756	0.354600
C146	C	0.943576	-0.813756	0.604600
C147	C	1.193576	-0.563756	0.854600
C148	C	1.443576	-0.313756	1.104600
C149	C	1.162193	-1.063866	0.354648
C150	C	1.412193	-0.813866	0.604648
C151	C	1.662193	-0.563866	0.854648
C152	C	1.912193	-0.313866	1.104648
C153	C	1.080394	-1.063920	0.354706
C154	C	1.330394	-0.813920	0.604706
C155	C	1.580394	-0.563920	0.854706
C156	C	1.830394	-0.313920	1.104706
C157	C	0.354348	-1.063628	0.163387
C158	C	0.604348	-0.813628	0.413387
C159	C	0.854348	-0.563628	0.663387
C160	C	1.104348	-0.313628	0.913387
C161	C	0.354249	-1.063693	0.081588
C162	C	0.604249	-0.813693	0.331588
C163	C	0.854249	-0.563693	0.581588
C164	C	1.104249	-0.313693	0.831588
C165	C	0.354159	-0.255720	0.354614
C166	C	0.604159	-0.005720	0.604614
C167	C	0.854159	0.244280	0.854614
C168	C	1.104159	0.494280	1.104614
C169	C	0.354158	-0.337519	0.354615
C170	C	0.604158	-0.087519	0.604615
C171	C	0.854158	0.162481	0.854615
C172	C	1.104158	0.412481	1.104615
C173	C	0.307248	-1.016510	-0.183430
C174	C	0.557248	-0.766510	0.066570
C175	C	0.807248	-0.516510	0.316570
C176	C	1.057248	-0.266510	0.566570
C177	C	0.307328	-1.016452	-0.106572
C178	C	0.557328	-0.766452	0.143428
C179	C	0.807328	-0.516452	0.393428
C180	C	1.057328	-0.266452	0.643428
C181	C	0.400788	-1.111211	-0.106641
C182	C	0.650788	-0.861211	0.143359
C183	C	0.900788	-0.611211	0.393359
C184	C	1.150788	-0.361211	0.643359
C185	C	0.400712	-1.111265	-0.183498
C186	C	0.650712	-0.861265	0.066502
C187	C	0.900712	-0.611265	0.316502
C188	C	1.150712	-0.361265	0.566502
C189	C	0.353937	-1.063916	-0.221891
C190	C	0.603937	-0.813916	0.028109
C191	C	0.853937	-0.563916	0.278109
C192	C	1.103937	-0.313916	0.528109
C193	C	0.354094	-1.063803	-0.068175
C194	C	0.604094	-0.813803	0.181825
C195	C	0.854094	-0.563803	0.431825
C196	C	1.104094	-0.313803	0.681825
C197	C	0.354181	-1.063740	0.015158
C198	C	0.604181	-0.813740	0.265158
C199	C	0.854181	-0.563740	0.515158
C200	C	1.104181	-0.313740	0.765158
C201	C	0.353851	-1.063977	-0.305230
C202	C	0.603851	-0.813977	-0.055230
C203	C	0.853851	-0.563977	0.194770
C204	C	1.103851	-0.313977	0.444770
C205	C	0.353891	-1.063949	0.546547
C206	C	0.603891	-0.813949	0.796547
C207	C	0.853891	-0.563949	1.046547
C208	C	1.103891	-0.313949	1.296547
C209	C	0.353782	-1.064026	0.628346
C210	C	0.603782	-0.814026	0.878346
C211	C	0.853782	-0.564026	1.128346
C212	C	1.103782	-0.314026	1.378346
H213	H	0.439556	-0.494496	0.439844
H214	H	0.689556	-0.244496	0.689844
H215	H	0.939556	0.005504	0.939844
H216	H	1.189556	0.255504	1.189844
N217	N	0.931349	-0.968712	0.449712
N218	N	1.181349	-0.718712	0.699712
N219	N	1.431349	-0.468712	0.949712
N220	N	1.681349	-0.218712	1.199712
N221	N	0.896987	-0.926681	0.491679
N222	N	1.146987	-0.676681	0.741679
N223	N	1.396987	-0.426681	0.991679
N224	N	1.646987	-0.176681	1.241679
H225	H	0.924667	-0.892729	0.525603
H226	H	1.174667	-0.642729	0.775603
H227	H	1.424667	-0.392729	1.025603
H228	H	1.674667	-0.142729	1.275603
H229	H	0.784139	-1.149173	0.269317
H230	H	1.034139	-0.899173	0.519317
H231	H	1.284139	-0.649173	0.769317
H232	H	1.534139	-0.399173	1.019317
N233	N	0.449295	-0.641910	0.449566
N234	N	0.699295	-0.391910	0.699566
N235	N	0.949295	-0.141910	0.949566
N236	N	1.199295	0.108090	1.199566
N237	N	0.449285	-0.710532	0.449559
N238	N	0.699285	-0.460532	0.699559
N239	N	0.949285	-0.210532	0.949559
N240	N	1.199285	0.039468	1.199559
H241	H	0.483235	-0.738288	0.483456
H242	H	0.733235	-0.488288	0.733456
H243	H	0.983235	-0.238288	0.983456
H244	H	1.233235	0.011712	1.233456
N245	N	0.448545	-1.159580	-0.067406
N246	N	0.698545	-0.909580	0.182594
N247	N	0.948545	-0.659580	0.432594
N248	N	1.198545	-0.409580	0.682594
N249	N	0.422352	-1.206266	-0.024370
N250	N	0.672352	-0.956266	0.225630
N251	N	0.922352	-0.706266	0.475630
N252	N	1.172352	-0.456266	0.725630
H253	H	0.456078	-1.240430	0.003342
H254	H	0.706078	-0.990430	0.253342
H255	H	0.956078	-0.740430	0.503342
H256	H	1.206078	-0.490430	0.753342
H257	H	0.438734	-1.149870	-0.214814
H258	H	0.688734	-0.899870	0.035186
H259	H	0.938734	-0.649870	0.285186
H260	H	1.188734	-0.399870	0.535186
N261	N	0.775981	-0.968663	0.449673
N262	N	1.025981	-0.718663	0.699673
N263	N	1.275981	-0.468663	0.949673
N264	N	1.525981	-0.218663	1.199673
N265	N	0.707359	-0.968647	0.449649
N266	N	0.957359	-0.718647	0.699649
N267	N	1.207359	-0.468647	0.949649
N268	N	1.457359	-0.218647	1.199649
H269	H	0.679591	-0.934691	0.483560
H270	H	0.929591	-0.684691	0.733560
H271	H	1.179591	-0.434691	0.983560
H272	H	1.429591	-0.184691	1.233560
N273	N	0.931556	-1.158985	0.259627
N274	N	1.181556	-0.908985	0.509627
N275	N	1.431556	-0.658985	0.759627
N276	N	1.681556	-0.408985	1.009627
N277	N	0.974358	-1.205901	0.285576
N278	N	1.224358	-0.955901	0.535576
N279	N	1.474358	-0.705901	0.785576
N280	N	1.724358	-0.455901	1.035576
H281	H	1.002122	-1.239863	0.251668
H282	H	1.252122	-0.989863	0.501668
H283	H	1.502122	-0.739863	0.751668
H284	H	1.752122	-0.489863	1.001668
H285	H	0.269310	-0.977849	-0.075260
H286	H	0.519310	-0.727849	0.174740
H287	H	0.769310	-0.477849	0.424740
H288	H	1.019310	-0.227849	0.674740
N289	N	0.258971	-0.641754	0.259625
N290	N	0.508971	-0.391754	0.509625
N291	N	0.758971	-0.141754	0.759625
N292	N	1.008971	0.108246	1.009625
N293	N	0.191064	-0.633202	0.264628
N294	N	0.441064	-0.383202	0.514628
N295	N	0.691064	-0.133202	0.764628
N296	N	0.941064	0.116798	1.014628
H297	H	0.157093	-0.660902	0.230742
H298	H	0.407093	-0.410902	0.480742
H299	H	0.657093	-0.160902	0.730742
H300	H	0.907093	0.089098	0.980742
H301	H	0.269161	-0.977955	-0.214687
H302	H	0.519161	-0.727955	0.035313
H303	H	0.769161	-0.477955	0.285313
H304	H	1.019161	-0.227955	0.535313
H305	H	0.268746	-0.494351	0.269365
H306	H	0.518746	-0.244351	0.519365
H307	H	0.768746	0.005649	0.769365
H308	H	1.018746	0.255649	1.019365
