data_functionalizedCrystal
_audit_creation_method	'MofGen! by Chris Wilmer'
_symmetry_space_group_name_H-M	'P1'
_symmetry_Int_Tables_number	1
_symmetry_cell_setting	triclinic
loop_
_symmetry_equiv_pos_as_xyz
  x,y,z
_cell_length_a	10.654550
_cell_length_b	23.532357
_cell_length_c	9.130313
_cell_angle_alpha	89.989961
_cell_angle_beta	89.999724
_cell_angle_gamma	83.656611
loop_
_atom_site_label
_atom_site_type_symbol
_atom_site_fract_x
_atom_site_fract_y
_atom_site_fract_z
O1	O	1.665274	0.079987	-0.121710
O2	O	1.299551	0.087607	-0.121739
O3	O	1.493473	0.000935	-0.121693
O4	O	1.471351	0.166659	-0.121755
O5	O	1.493460	0.000933	0.121905
O6	O	1.299538	0.087605	0.121860
O7	O	1.665261	0.079984	0.121889
Cu8	Cu	1.482398	0.083794	0.144117
Cu9	Cu	1.482413	0.083797	-0.143967
O10	O	1.471338	0.166656	0.121843
C11	C	1.252764	0.087046	0.000057
C12	C	1.113375	0.085372	0.000048
C13	C	1.492913	-0.020286	0.000111
C14	C	1.491250	-0.083516	0.000124
C15	C	1.032252	0.136403	0.000033
C16	C	0.901282	0.134827	0.000059
C17	C	0.932570	0.031184	0.000109
C18	C	1.063537	0.032761	0.000093
C19	C	1.480813	-0.475594	-0.132741
C20	C	1.479231	-0.535003	-0.132750
O21	O	1.478377	-0.565724	-0.245679
N22	N	1.478440	-0.564721	0.000034
C23	C	1.479217	-0.535025	0.132835
O24	O	1.478398	-0.565758	0.245777
C25	C	1.480790	-0.475616	0.132842
C26	C	1.481594	-0.445902	0.000049
C27	C	1.481615	-0.445880	-0.265523
C28	C	1.483199	-0.386474	-0.265514
C29	C	1.483980	-0.356783	-0.132723
C30	C	1.483177	-0.386497	0.000058
C31	C	1.481558	-0.445921	0.265641
C32	C	1.483129	-0.386507	0.265637
C33	C	1.483934	-0.356794	0.132844
C34	C	1.485542	-0.297400	0.132858
N35	N	1.486334	-0.267682	0.000074
C36	C	1.485553	-0.297373	-0.132716
C37	C	1.475913	-0.659788	0.132810
C38	C	1.474349	-0.719197	0.132805
C39	C	1.474361	-0.719171	-0.132781
C40	C	1.475934	-0.659762	-0.132774
C41	C	1.476704	-0.630071	0.000026
C42	C	1.488880	-0.172618	-0.132687
C43	C	1.490469	-0.113207	-0.132667
C44	C	1.490450	-0.113238	0.132918
C45	C	1.488868	-0.172644	0.132898
C46	C	1.488078	-0.202332	0.000083
O47	O	1.486392	-0.266641	0.245730
O48	O	1.486356	-0.266633	-0.245640
C49	C	1.712047	0.080545	0.000089
C50	C	1.851437	0.082219	0.000089
C51	C	1.471898	0.187877	0.000036
C52	C	1.473562	0.251107	0.000013
N53	N	1.482396	0.083792	0.346740
N54	N	1.482425	0.083795	-0.346590
C55	C	1.568293	0.045430	0.423411
C56	C	1.568305	0.045430	0.576748
C57	C	1.396519	0.122159	0.576728
C58	C	1.396502	0.122156	0.423394
H59	H	0.835236	0.176382	0.000050
C60	C	1.488065	-0.204744	-0.277037
C61	C	1.489127	-0.165998	-0.393305
C62	C	1.488389	-0.195572	-0.526299
H63	H	1.414222	-0.223859	-0.282769
H64	H	1.560709	-0.231970	-0.282662
H65	H	1.416491	-0.138782	-0.387683
H66	H	1.562966	-0.146881	-0.387622
H67	H	1.561033	-0.222798	-0.531924
H68	H	1.414544	-0.214686	-0.532016
H69	H	1.489122	-0.169288	-0.605202
H70	H	0.891976	-0.011650	0.000154
C71	C	1.303329	0.163904	0.659764
C72	C	1.322932	0.219951	0.622395
C73	C	1.237097	0.258423	0.698838
H74	H	1.315546	0.158494	0.762089
H75	H	1.219578	0.157396	0.634618
H76	H	1.406662	0.226456	0.647551
H77	H	1.310705	0.225379	0.520083
H78	H	1.153346	0.251915	0.673691
H79	H	1.249321	0.253008	0.801159
H80	H	1.250378	0.296455	0.673483
C81	C	1.151416	-0.022710	0.000033
C82	C	1.079743	-0.069123	0.000025
C83	C	1.160652	-0.120228	-0.000044
H84	H	1.203192	-0.024329	0.084954
H85	H	1.203134	-0.024280	-0.084953
H86	H	1.028047	-0.067554	0.085003
H87	H	1.027970	-0.067523	-0.084890
H88	H	1.212370	-0.121798	-0.085031
H89	H	1.212424	-0.121841	0.084879
H90	H	1.112034	-0.151725	-0.000063
C91	C	1.491075	-0.080874	-0.276763
C92	C	1.383919	-0.040786	-0.284475
C93	C	1.384411	-0.010993	-0.417191
H94	H	1.490294	-0.107011	-0.355943
H95	H	1.564874	-0.061711	-0.282366
H96	H	1.310139	-0.059949	-0.278886
H97	H	1.384677	-0.014637	-0.205327
H98	H	1.458211	0.008171	-0.422794
H99	H	1.383634	-0.037134	-0.496360
H100	H	1.311714	0.016214	-0.422435
C101	C	1.661595	0.003711	0.340450
C102	C	1.736798	-0.029895	0.440424
C103	C	1.822749	-0.068340	0.364059
H104	H	1.713715	0.024349	0.280607
H105	H	1.616757	-0.020219	0.280689
H106	H	1.781632	-0.005969	0.500160
H107	H	1.684712	-0.050546	0.500270
H108	H	1.777911	-0.092270	0.304297
H109	H	1.874860	-0.047697	0.304218
H110	H	1.873776	-0.091150	0.431879
H111	H	1.072825	0.179243	0.000007
H112	H	1.483849	-0.362286	-0.373648
H113	H	1.480975	-0.470048	-0.373663
C114	C	1.476729	-0.627602	-0.277102
C115	C	1.475680	-0.666326	-0.393385
C116	C	1.476392	-0.636724	-0.526367
H117	H	1.550559	-0.608477	-0.282829
H118	H	1.404071	-0.600383	-0.282712
H119	H	1.548331	-0.693535	-0.387778
H120	H	1.401856	-0.685453	-0.387707
H121	H	1.403734	-0.609505	-0.531977
H122	H	1.550223	-0.617600	-0.532079
H123	H	1.475669	-0.662993	-0.605281
H124	H	1.473721	-0.743356	-0.240906
H125	H	1.473714	-0.743386	0.240938
C126	C	1.480434	-0.478221	0.409727
C127	C	1.371469	-0.506339	0.417429
C128	C	1.370376	-0.536098	0.550145
H129	H	1.481037	-0.452074	0.488906
H130	H	1.553002	-0.505491	0.415336
H131	H	1.298920	-0.479071	0.411834
H132	H	1.370843	-0.532495	0.338280
H133	H	1.442944	-0.563369	0.555754
H134	H	1.370983	-0.509947	0.629313
H135	H	1.296452	-0.555184	0.555382
H136	H	1.476544	-0.635618	0.240959
H137	H	1.483738	-0.362335	0.373781
H138	H	1.488225	-0.196839	0.241028
H139	H	1.491092	-0.089053	0.241033
H140	H	1.638249	0.014191	0.639170
H141	H	1.326548	0.153395	0.360963
