data_functionalizedCrystal
_audit_creation_method	'MofGen! by Chris Wilmer'
_symmetry_space_group_name_H-M	'P1'
_symmetry_Int_Tables_number	1
_symmetry_cell_setting	triclinic
loop_
_symmetry_equiv_pos_as_xyz
  x,y,z
_cell_length_a	21.295417
_cell_length_b	16.120542
_cell_length_c	16.120297
_cell_angle_alpha	90.127087
_cell_angle_beta	87.132998
_cell_angle_gamma	92.878379
loop_
_atom_site_label
_atom_site_type_symbol
_atom_site_fract_x
_atom_site_fract_y
_atom_site_fract_z
Zn1	Zn	-0.318985	-1.247394	0.534551
Zn2	Zn	-0.419195	-1.254330	0.395481
Zn3	Zn	-0.308340	-1.115386	0.388467
Zn4	Zn	-0.418607	-1.108286	0.527447
O5	O	-0.366282	-1.181349	0.461486
O6	O	-0.336979	-1.364680	0.522011
O7	O	-0.400281	-1.241772	0.278185
O8	O	-0.221667	-1.132966	0.407884
O9	O	-0.410603	-1.369776	0.419837
O10	O	-0.229488	-1.229952	0.515211
O11	O	-0.318837	-1.139691	0.273033
O12	O	-0.318267	-0.998078	0.400995
O13	O	-0.409601	-1.120865	0.644754
O14	O	-0.399279	-0.992862	0.503103
O15	O	-0.336409	-1.223067	0.649973
O16	O	-0.507202	-1.234887	0.412948
O17	O	-0.506770	-1.127590	0.509903
C18	C	-0.357555	-0.965298	0.450517
C19	C	-0.353837	-0.872869	0.445845
C20	C	-0.529827	-1.181242	0.461435
C21	C	-0.599797	-1.181271	0.461444
C22	C	-0.385546	-0.659902	0.485680
C23	C	-0.347055	-0.703646	0.437312
C24	C	-0.350830	-0.797810	0.442061
C25	C	-0.381773	-0.565729	0.480932
C26	C	-0.632872	-1.237186	0.411017
C27	C	-0.698616	-1.237224	0.411038
C28	C	-0.731283	-1.181333	0.461476
C29	C	-0.698201	-1.125414	0.511914
C30	C	-0.632458	-1.125383	0.511898
N31	N	-0.831845	-1.108267	0.464122
N32	N	-0.894298	-1.108299	0.464133
C33	C	-0.929363	-1.181424	0.461529
N34	N	-0.899616	-1.254517	0.458898
N35	N	-0.837157	-1.254485	0.458883
C36	C	-0.802570	-1.181361	0.461500
C37	C	-1.033726	-1.237384	0.411121
C38	C	-1.099472	-1.237423	0.411148
C39	C	-1.099055	-1.125606	0.512019
C40	C	-1.033310	-1.125574	0.511997
C41	C	-1.000650	-1.181462	0.461544
C42	C	-0.202099	-1.181478	0.461558
C43	C	-0.132134	-1.181533	0.461588
C44	C	-0.374127	-1.170401	0.678379
C45	C	-0.377470	-1.165735	0.770806
C46	C	-0.375040	-0.398245	0.472487
C47	C	-0.378763	-0.490674	0.477145
C48	C	-0.358424	-1.192303	0.245440
C49	C	-0.354910	-1.197129	0.153022
C50	C	-0.383558	-1.157186	0.940030
C51	C	-0.348824	-1.205675	0.983803
C52	C	-0.352212	-1.200919	1.077965
C53	C	-0.380171	-1.161942	0.845859
H54	H	-0.311267	-0.670375	0.392336
H55	H	-0.421332	-0.693171	0.530652
N56	N	-0.597646	-1.297474	0.356614
H57	H	-0.628579	-1.332905	0.324676
H58	H	-0.573113	-1.334204	0.392449
N59	N	-0.306073	-1.265409	0.939776
H60	H	-0.283367	-1.297110	0.982111
H61	H	-0.274302	-1.233375	0.902018
N62	N	-0.426323	-1.097471	0.984044
H63	H	-0.413618	-1.038810	0.965958
H64	H	-0.422699	-1.102564	1.046034
N65	N	-0.596776	-1.065071	0.566283
H66	H	-0.610853	-1.074941	0.626365
H67	H	-0.605411	-1.006353	0.550237
N68	N	-0.734301	-1.297535	0.356647
H69	H	-0.703634	-1.332935	0.324685
H70	H	-0.758856	-1.265666	0.316431
H71	H	-1.007133	-1.282894	0.370041
N72	N	-0.733430	-1.065133	0.566319
H73	H	-0.780097	-1.073635	0.558676
H74	H	-0.719116	-1.006405	0.550312
N75	N	-1.135149	-1.297738	0.356760
H76	H	-1.104480	-1.333134	0.324797
H77	H	-1.159708	-1.265874	0.316545
H78	H	-1.125652	-1.080102	0.553091
H79	H	-1.006379	-1.080040	0.553057
