data_functionalizedCrystal
_audit_creation_method	'MofGen! by Chris Wilmer'
_symmetry_space_group_name_H-M	'P1'
_symmetry_Int_Tables_number	1
_symmetry_cell_setting	triclinic
loop_
_symmetry_equiv_pos_as_xyz
  x,y,z
_cell_length_a	10.868271
_cell_length_b	10.654550
_cell_length_c	11.792241
_cell_angle_alpha	95.660827
_cell_angle_beta	90.005281
_cell_angle_gamma	89.998935
loop_
_atom_site_label
_atom_site_type_symbol
_atom_site_fract_x
_atom_site_fract_y
_atom_site_fract_z
O1	O	0.102231	-1.667390	0.159421
O2	O	0.102254	-1.301868	0.174609
O3	O	0.102233	-1.493499	0.001865
O4	O	0.102251	-1.475759	0.332165
O5	O	-0.102412	-1.493483	0.001858
O6	O	-0.102391	-1.301853	0.174602
O7	O	-0.102414	-1.667374	0.159414
Zn8	Zn	-0.134894	-1.484611	0.167007
Zn9	Zn	0.134734	-1.484632	0.167016
O10	O	-0.102393	-1.475743	0.332158
C11	C	-0.000066	-1.255066	0.173491
C12	C	-0.000057	-1.115632	0.170154
N13	N	-0.318908	-1.484606	0.167000
C14	C	-0.000089	-1.492377	-0.040432
C15	C	-0.000087	-1.489042	-0.166453
C16	C	-0.569914	-1.484625	0.167014
C17	C	-0.430237	-1.484610	0.167009
N18	N	0.318748	-1.484647	0.167014
C19	C	-0.000091	-1.714177	0.160533
C20	C	-0.000092	-1.853611	0.163869
C21	C	-0.000055	-1.035859	0.271863
C22	C	-0.000077	-0.904847	0.268721
C23	C	-0.000098	-0.933394	0.062152
C24	C	-0.000085	-1.064403	0.065295
C25	C	-0.000066	-1.482908	-0.397180
C26	C	-0.000078	-1.486316	-0.268787
C27	C	-0.000069	-1.476865	0.374455
C28	C	-0.000062	-1.480201	0.500477
H29	H	-0.000042	-1.077564	0.357246
H30	H	-0.000078	-0.839900	0.351543
H31	H	-0.000127	-0.891668	-0.023220
H32	H	-0.000090	-1.129359	-0.017534
