data_functionalizedCrystal
_audit_creation_method	'MofGen! by Chris Wilmer'
_symmetry_space_group_name_H-M	'P1'
_symmetry_Int_Tables_number	1
_symmetry_cell_setting	triclinic
loop_
_symmetry_equiv_pos_as_xyz
  x,y,z
_cell_length_a	13.032721
_cell_length_b	18.215407
_cell_length_c	18.215399
_cell_angle_alpha	90.020595
_cell_angle_beta	97.154738
_cell_angle_gamma	82.795418
loop_
_atom_site_label
_atom_site_type_symbol
_atom_site_fract_x
_atom_site_fract_y
_atom_site_fract_z
Zn1	Zn	-0.416055	-1.087880	-0.453336
Zn2	Zn	-0.590818	-1.072165	-0.345898
Zn3	Zn	-0.416088	-0.964809	-0.330285
Zn4	Zn	-0.590759	-0.949161	-0.468916
O5	O	-0.503430	-1.018504	-0.399609
O6	O	-0.439249	-1.188778	-0.439098
O7	O	-0.567679	-1.057897	-0.240846
O8	O	-0.269844	-0.994260	-0.333554
O9	O	-0.567647	-1.177233	-0.360164
O10	O	-0.269820	-1.084679	-0.423959
O11	O	-0.439305	-0.979023	-0.229375
O12	O	-0.439247	-0.859750	-0.348660
O13	O	-0.567545	-0.967590	-0.569830
O14	O	-0.567577	-0.848253	-0.450512
O15	O	-0.439191	-1.069506	-0.558384
O16	O	-0.737050	-1.042723	-0.375271
O17	O	-0.737006	-0.952352	-0.465651
C18	C	-0.503410	-0.827299	-0.399583
C19	C	-0.503426	-0.745499	-0.399592
C20	C	-0.774946	-0.994154	-0.423862
C21	C	-0.891102	-0.983805	-0.434262
C22	C	-0.570350	-0.551329	-0.452574
C23	C	-0.570352	-0.474470	-0.452582
C24	C	-0.436516	-0.486430	-0.346647
C25	C	-0.436509	-0.563288	-0.346642
C26	C	-0.503432	-0.595735	-0.399605
C27	C	-0.503441	-0.442018	-0.399618
C28	C	-0.503443	-0.358684	-0.399627
C29	C	-0.503429	-0.679074	-0.399598
C30	C	-0.942875	-1.023944	-0.394214
C31	C	-1.062928	-1.013249	-0.404962
C32	C	-0.230854	-1.042968	-0.375277
C33	C	-0.114698	-1.053393	-0.364908
C34	C	-0.503358	-1.018555	-0.591555
C35	C	-0.503327	-1.018577	-0.673351
C36	C	-0.503448	-0.210455	-0.399631
C37	C	-0.503447	-0.292254	-0.399631
C38	C	-0.436431	-1.071667	-0.855581
C39	C	-0.436400	-1.071679	-0.932437
C40	C	-0.570062	-0.965553	-0.944345
C41	C	-0.570086	-0.965539	-0.867490
C42	C	-0.503272	-1.018600	-0.823110
C43	C	-0.503218	-1.018626	-0.976821
C44	C	-0.503185	-1.018638	-1.060152
C45	C	-0.503303	-1.018587	-0.739774
C46	C	-0.503426	-1.018502	-0.208402
C47	C	-0.503163	-1.018649	-0.126580
H48	H	-0.624841	-0.577744	-0.495701
C49	C	-0.882700	-1.081069	-0.337142
C50	C	-0.897501	-1.163418	-0.344542
C51	C	-0.837330	-1.220545	-0.287469
C52	C	-0.762359	-1.195323	-0.222995
C53	C	-0.747554	-1.112971	-0.215592
C54	C	-0.807725	-1.055843	-0.272665
H55	H	-0.953002	-1.182092	-0.392272
H56	H	-0.848290	-1.281508	-0.292950
H57	H	-0.717817	-1.237612	-0.180746
H58	H	-0.692052	-1.094296	-0.167862
H59	H	-0.796765	-0.994880	-0.267185
H60	H	-0.624462	-0.922354	-0.980489
C61	C	-0.362875	-1.130054	-0.968155
C62	C	-0.289384	-1.188415	-0.919336
C63	C	-0.215853	-1.246793	-0.955053
C64	C	-0.215813	-1.246809	-1.039589
C65	C	-0.289307	-1.188446	-1.088414
C66	C	-0.362838	-1.130069	-1.052697
H67	H	-0.289411	-1.188405	-0.856752
H68	H	-0.161448	-1.289997	-0.918909
H69	H	-0.161381	-1.290024	-1.066029
H70	H	-0.289280	-1.188456	-1.150997
H71	H	-0.417243	-1.086865	-1.088840
H72	H	-1.107478	-0.970966	-0.447212
H73	H	-1.070149	-1.095682	-0.322663
C74	C	-0.951280	-0.926681	-0.491334
C75	C	-1.026443	-0.862273	-0.466072
C76	C	-1.086617	-0.805147	-0.523145
C77	C	-1.071629	-0.812430	-0.605480
C78	C	-0.996462	-0.876840	-0.630746
C79	C	-0.936288	-0.933966	-0.573673
H80	H	-1.037541	-0.856880	-0.405119
H81	H	-1.142261	-0.757466	-0.504441
H82	H	-1.116174	-0.770142	-0.647729
H83	H	-0.985364	-0.882233	-0.691699
H84	H	-0.880644	-0.981647	-0.592377
H85	H	-0.382024	-1.114871	-0.819448
C86	C	-0.643618	-0.907159	-0.831770
C87	C	-0.635078	-0.824266	-0.841562
C88	C	-0.708602	-0.765885	-0.805843
C89	C	-0.790665	-0.790398	-0.760331
C90	C	-0.799208	-0.873296	-0.750536
C91	C	-0.725684	-0.931676	-0.786256
H92	H	-0.574327	-0.806116	-0.875255
H93	H	-0.702278	-0.704519	-0.813093
H94	H	-0.845092	-0.747182	-0.733889
H95	H	-0.859959	-0.891445	-0.716844
H96	H	-0.732009	-0.993042	-0.779005
C97	C	-0.643966	-0.425622	-0.510847
C98	C	-0.717573	-0.461316	-0.569102
C99	C	-0.791189	-0.412469	-0.627371
C100	C	-0.791196	-0.327928	-0.627384
C101	C	-0.717586	-0.292230	-0.569127
C102	C	-0.643971	-0.341077	-0.510858
H103	H	-0.717570	-0.523902	-0.569094
H104	H	-0.845680	-0.438896	-0.670497
H105	H	-0.845691	-0.291769	-0.670518
H106	H	-0.717589	-0.229644	-0.569135
H107	H	-0.589480	-0.314651	-0.467733
C108	C	-0.362908	-0.450733	-0.288390
C109	C	-0.244116	-0.471950	-0.283923
C110	C	-0.170507	-0.436253	-0.225666
C111	C	-0.215688	-0.379340	-0.171875
C112	C	-0.334486	-0.358120	-0.176340
C113	C	-0.408095	-0.393817	-0.234598
H114	H	-0.210665	-0.514083	-0.323744
H115	H	-0.082565	-0.451961	-0.222361
H116	H	-0.161198	-0.352915	-0.128750
H117	H	-0.367938	-0.315987	-0.136519
H118	H	-0.496037	-0.378109	-0.237902
H119	H	-0.382010	-0.599446	-0.303508
