data_functionalizedCrystal
_audit_creation_method	'MofGen! by Chris Wilmer'
_symmetry_space_group_name_H-M	'P1'
_symmetry_Int_Tables_number	1
_symmetry_cell_setting	triclinic
loop_
_symmetry_equiv_pos_as_xyz
  x,y,z
_cell_length_a	16.120490
_cell_length_b	16.120444
_cell_length_c	16.120297
_cell_angle_alpha	84.384883
_cell_angle_beta	89.870317
_cell_angle_gamma	90.165174
loop_
_atom_site_label
_atom_site_type_symbol
_atom_site_fract_x
_atom_site_fract_y
_atom_site_fract_z
Zn1	Zn	1.224982	-0.422332	0.554792
Zn2	Zn	1.724982	0.077668	1.054792
Zn3	Zn	1.224875	-0.555017	0.422098
Zn4	Zn	1.724875	-0.055017	0.922098
Zn5	Zn	1.093721	-0.408241	0.408037
Zn6	Zn	1.593721	0.091759	0.908037
Zn7	Zn	1.078872	-0.554241	0.554034
Zn8	Zn	1.578872	-0.054241	1.054034
O9	O	1.155613	-0.484958	0.484740
O10	O	1.655613	0.015042	0.984740
O11	O	1.341004	-0.446155	0.543392
O12	O	1.841004	0.053845	1.043392
O13	O	1.213647	-0.529974	0.303600
O14	O	1.713647	-0.029974	0.803600
O15	O	1.117393	-0.293479	0.421937
O16	O	1.617393	0.206521	0.921937
O17	O	1.340925	-0.543638	0.445902
O18	O	1.840925	-0.043638	0.945902
O19	O	1.213829	-0.303832	0.529757
O20	O	1.713829	0.196168	1.029757
O21	O	1.117289	-0.422138	0.293270
O22	O	1.617289	0.077862	0.793270
O23	O	0.975716	-0.421386	0.421202
O24	O	1.475716	0.078614	0.921202
O25	O	1.092084	-0.542316	0.670767
O26	O	1.592084	-0.042316	1.170767
O27	O	0.964806	-0.528652	0.528465
O28	O	1.464806	-0.028652	1.028465
O29	O	1.199431	-0.445403	0.671324
O30	O	1.699431	0.054597	1.171324
O31	O	1.199248	-0.671545	0.445167
O32	O	1.699248	-0.171545	0.945167
O33	O	1.091980	-0.670975	0.542100
O34	O	1.591980	-0.170975	1.042100
C35	C	0.940174	-0.473407	0.473226
C36	C	1.440174	0.026593	0.973226
C37	C	0.848006	-0.468486	0.468321
C38	C	1.348006	0.031514	0.968321
C39	C	1.144013	-0.701503	0.495097
C40	C	1.644013	-0.201503	0.995097
C41	C	1.139125	-0.794147	0.499559
C42	C	1.639125	-0.294147	0.999559
C43	C	0.632811	-0.510476	0.510185
C44	C	1.132811	-0.010476	1.010185
C45	C	0.679259	-0.459510	0.459365
C46	C	1.179259	0.040490	0.959365
C47	C	0.773158	-0.464506	0.464350
C48	C	1.273158	0.035494	0.964350
C49	C	0.538902	-0.505481	0.505201
C50	C	1.038902	-0.005481	1.005201
C51	C	1.181163	-1.005308	0.461782
C52	C	1.681163	-0.505308	0.961782
C53	C	1.130215	-0.963765	0.507716
C54	C	1.630215	-0.463765	1.007716
C55	C	1.135174	-0.869381	0.503176
C56	C	1.635174	-0.369381	1.003176
C57	C	1.176206	-1.099701	0.466320
C58	C	1.676206	-0.599701	0.966320
C59	C	1.371893	-0.496555	0.496300
C60	C	1.871893	0.003445	0.996300
C61	C	1.464058	-0.501497	0.501226
C62	C	1.964058	-0.001497	1.001226
C63	C	1.144113	-0.495345	0.702133
C64	C	1.644113	0.004655	1.202133
C65	C	1.139212	-0.499771	0.794773
C66	C	1.639212	0.000229	1.294773
C67	C	1.167279	-0.267569	0.474363
C68	C	1.667279	0.232431	0.974363
C69	C	1.172251	-0.174931	0.469941
C70	C	1.672251	0.325069	0.969941
C71	C	1.167119	-0.474554	0.268193
C72	C	1.667119	0.025446	0.768193
C73	C	1.172192	-0.469901	0.175551
C74	C	1.672192	0.030099	0.675551
C75	C	1.130236	-0.507833	0.964384
C76	C	1.630236	-0.007833	1.464384
C77	C	1.181166	-0.461842	1.005945
C78	C	1.681166	0.038158	1.505945
C79	C	1.176172	-0.466327	1.100323
C80	C	1.676172	0.033673	1.600323
C81	C	1.135229	-0.503348	0.869998
C82	C	1.635229	-0.003348	1.369998
H83	H	0.648504	-0.412124	0.412113
H84	H	1.148504	0.087876	0.912113
H85	H	1.228519	-0.419099	0.970646
H86	H	1.728519	0.080901	1.470646
H87	H	1.082873	-0.999085	0.550451
H88	H	1.582873	-0.499085	1.050451
H89	H	1.228501	-0.969992	0.419049
H90	H	1.728501	-0.469992	0.919049
H91	H	0.663564	-0.557858	0.557433
H92	H	1.163564	-0.057858	1.057433
Cl93	Cl	1.057133	-0.573824	1.018880
Cl94	Cl	1.557133	-0.073824	1.518880
