data_functionalizedCrystal
_audit_creation_method	'MofGen! by Chris Wilmer'
_symmetry_space_group_name_H-M	'P1'
_symmetry_Int_Tables_number	1
_symmetry_cell_setting	triclinic
loop_
_symmetry_equiv_pos_as_xyz
  x,y,z
_cell_length_a	23.096457
_cell_length_b	21.606444
_cell_length_c	21.606444
_cell_angle_alpha	59.990835
_cell_angle_beta	89.995149
_cell_angle_gamma	60.001161
loop_
_atom_site_label
_atom_site_type_symbol
_atom_site_fract_x
_atom_site_fract_y
_atom_site_fract_z
Zr1	Zr	0.557784	0.677493	-0.081346
O2	O	0.465341	0.806623	-0.180189
O3	O	0.586123	0.548363	-0.051030
O4	O	0.586132	0.677490	-0.180170
O5	O	0.465326	0.677499	0.050801
O6	O	0.681414	0.677487	-0.180172
O7	O	0.465332	0.677497	-0.051049
O8	O	0.681398	0.446504	0.050835
O9	O	0.465341	0.908483	-0.180206
O10	O	0.669318	0.601475	-0.038121
O11	O	0.598205	0.601479	0.037891
O12	O	0.598215	0.753508	-0.114154
O13	O	0.527102	0.753512	-0.038143
Zr14	Zr	0.709739	0.677494	0.081090
Zr15	Zr	0.709749	0.677489	-0.081349
Zr16	Zr	0.557775	0.677498	0.081094
Zr17	Zr	0.557785	0.839949	-0.081373
Zr18	Zr	0.709738	0.515039	0.081118
O19	O	0.681400	0.806624	0.050775
O20	O	0.681415	0.806618	-0.180194
O21	O	0.465327	0.806630	0.050780
O22	O	0.802182	0.548364	0.179933
O23	O	0.802197	0.548358	-0.051035
O24	O	0.586109	0.548370	0.179938
O25	O	0.802197	0.677488	-0.051057
O26	O	0.681392	0.677498	0.179914
O27	O	0.586109	0.677500	0.179917
O28	O	0.802191	0.677491	0.050794
O29	O	0.586133	0.908480	-0.180208
O30	O	0.681391	0.446507	0.179953
O31	O	0.802182	0.446504	0.179950
O32	O	0.802190	0.446500	0.050832
O33	O	0.465333	0.908487	-0.051088
O34	O	0.586125	0.908484	-0.051091
O35	O	0.669308	0.601479	0.113899
O36	O	0.740421	0.601475	0.037888
O37	O	0.669318	0.753509	-0.038146
O38	O	0.598206	0.753513	0.037865
C39	C	0.633761	0.474287	-0.000094
C40	C	0.633760	0.405321	-0.000082
C41	C	0.581270	0.429055	-0.056207
C42	C	0.581272	0.364266	-0.056223
C43	C	0.633762	0.275743	-0.000110
C44	C	0.686257	0.252008	0.056018
C45	C	0.686258	0.316797	0.056030
C46	C	0.686257	-0.009278	0.055971
C47	C	0.686251	-0.074067	0.055956
C48	C	0.581271	0.038191	-0.056282
C49	C	0.581271	0.102979	-0.056271
C50	C	0.633769	0.079240	-0.000145
C51	C	0.633767	0.149492	-0.000130
C52	C	0.633761	0.205491	-0.000122
C53	C	0.443677	0.677499	-0.000123
C54	C	0.379165	0.677500	-0.000122
C55	C	0.348865	0.677505	-0.056236
C56	C	0.288253	0.677497	-0.056236
C57	C	0.257934	0.677502	-0.000127
C58	C	0.288243	0.677492	0.055996
C59	C	0.348858	0.677491	0.055999
N60	N	0.139581	0.727060	0.016851
N61	N	0.081999	0.727062	0.016844
C62	C	0.075305	0.677502	-0.000131
N63	N	0.128364	0.627951	-0.017113
N64	N	0.185950	0.627952	-0.017110
C65	C	0.192207	0.677502	-0.000124
C66	C	-0.020717	0.677497	-0.056248
C67	C	-0.081327	0.677484	-0.056243
C68	C	-0.081340	0.677488	0.055986
C69	C	-0.020726	0.677492	0.055984
C70	C	0.009580	0.677501	-0.000137
C71	C	0.823846	0.677489	-0.000132
C72	C	0.888359	0.677487	-0.000133
C73	C	0.633774	0.677488	-0.203315
C74	C	0.633778	0.677486	-0.272275
C75	C	0.633763	0.880700	-0.000162
C76	C	0.633763	0.949667	-0.000173
C77	C	0.581253	0.677504	-0.695578
C78	C	0.581259	0.677498	-0.630779
C79	C	0.633755	0.677495	-0.598386
C80	C	0.686252	0.677489	-0.630791
C81	C	0.686248	0.677489	-0.695586
C82	C	0.686269	0.677487	-0.369480
C83	C	0.686268	0.677489	-0.304681
C84	C	0.581280	0.677495	-0.304672
C85	C	0.581276	0.677496	-0.369467
C86	C	0.633775	0.677485	-0.401865
C87	C	0.633769	0.677491	-0.472127
C88	C	0.633759	0.677495	-0.528128
C89	C	0.633749	0.677499	0.203060
C90	C	0.633745	0.677501	0.272020
C91	C	0.823845	0.474282	-0.000098
C92	C	0.888357	0.405314	-0.000088
C93	C	0.633748	0.474293	0.203094
C94	C	0.633744	0.405328	0.272065
C95	C	0.823832	0.474288	0.203089
C96	C	0.888341	0.405322	0.272059
C97	C	0.443691	0.880699	-0.203345
C98	C	0.379183	0.949666	-0.272315
C99	C	0.443679	0.880705	-0.000157
C100	C	0.379166	0.949673	-0.000167
C101	C	0.633775	0.880695	-0.203349
C102	C	0.633780	0.949659	-0.272321
C103	C	0.881538	0.372926	-0.039766
C104	C	0.942148	0.308132	-0.039771
C105	C	1.009578	0.275723	-0.000094
C106	C	1.016396	0.308118	0.039584
C107	C	0.955786	0.372915	0.039585
C108	C	0.670857	0.372942	0.344137
C109	C	0.670850	0.308151	0.408949
C110	C	0.633733	0.275744	0.401688
C111	C	0.596616	0.308137	0.329608
C112	C	0.596619	0.372930	0.264798
C113	C	0.955761	0.372932	0.264771
C114	C	1.016379	0.308140	0.329570
C115	C	1.009575	0.275734	0.401656
C116	C	0.942148	0.308130	0.408942
C117	C	0.881531	0.372925	0.344144
C118	C	0.311763	0.982063	-0.265027
C119	C	0.251144	1.046875	-0.329825
C120	C	0.257948	1.079284	-0.401911
C121	C	0.325375	1.046884	-0.409198
C122	C	0.385992	0.982078	-0.344400
C123	C	0.385986	0.982068	0.039503
C124	C	0.325375	1.046880	0.039491
C125	C	0.257946	1.079291	-0.000188
C126	C	0.251128	1.046894	-0.039864
C127	C	0.311737	0.982087	-0.039855
C128	C	0.670903	0.982046	-0.265035
C129	C	0.670922	1.046837	-0.329835
C130	C	0.633812	1.079244	-0.401919
C131	C	0.596687	1.046851	-0.409204
C132	C	0.596673	0.982057	-0.344405
H133	H	0.538526	0.175057	-0.101961
C134	C	0.452017	0.602653	0.158539
C135	C	0.382163	0.677492	0.117682
H136	H	0.472575	0.602655	0.196622
H137	H	0.478740	0.602661	0.125122
H138	H	0.452109	0.551887	0.181594
H139	H	0.382071	0.728259	0.094623
H140	H	0.355433	0.677492	0.151104
H141	H	0.538528	0.677502	-0.395842
H142	H	0.961348	0.399277	0.071900
C143	C	0.563689	0.208768	0.393746
C144	C	0.555837	0.272489	0.321635
H145	H	0.538524	0.186750	0.388823
H146	H	0.545343	0.234060	0.420648
H147	H	0.612528	0.162271	0.420668
H148	H	0.506999	0.318988	0.294715
H149	H	0.574180	0.247197	0.294722
H150	H	0.440885	0.955684	0.071820
C151	C	0.369881	1.013838	-0.496767
C152	C	0.332795	1.082466	-0.488462
H153	H	0.374447	1.035792	-0.545708
H154	H	0.344701	0.988539	-0.490972
H155	H	0.415654	0.970648	-0.459258
H156	H	0.287020	1.125654	-0.525967
H157	H	0.357975	1.107780	-0.494265
H158	H	0.003961	0.677501	-0.101944
C159	C	0.404867	1.040323	0.117952
C160	C	0.332881	1.082474	0.083115
H161	H	0.409500	1.062292	0.144888
H162	H	0.426968	1.050943	0.080407
H163	H	0.426949	0.979147	0.152200
H164	H	0.310800	1.143649	0.048863
H165	H	0.310771	1.071861	0.120665
H166	H	0.538517	0.677499	-0.604397
H167	H	0.701152	1.073205	-0.323889
H168	H	-0.105995	0.677482	-0.101936
H169	H	1.058939	0.222974	0.454412
C170	C	0.232247	0.988607	-0.118275
C171	C	0.304234	0.946472	-0.083455
H172	H	0.227613	0.966617	-0.145189
H173	H	0.210160	1.049775	-0.152532
H174	H	0.210152	0.977991	-0.080716
H175	H	0.326328	0.957093	-0.121015
H176	H	0.326330	0.885290	-0.049195
C177	C	0.967275	0.288152	0.527858
C178	C	0.934682	0.272494	0.488186
H179	H	0.962671	0.266141	0.576782
H180	H	0.945160	0.349326	0.500933
H181	H	1.016101	0.259594	0.532773
H182	H	0.885855	0.301058	0.483266
H183	H	0.956795	0.211309	0.515118
H184	H	0.729015	0.677481	-0.395854
C185	C	1.076172	0.129983	0.031231
C186	C	1.076197	0.204489	-0.000092
H187	H	1.117301	0.086003	0.031236
H188	H	1.035039	0.144659	0.001920
H189	H	1.076171	0.108749	0.081787
H190	H	1.076193	0.225726	-0.050650
H191	H	1.117341	0.189812	0.029219
C192	C	0.814262	0.366375	0.429122
C193	C	0.807423	0.408513	0.352164
H194	H	0.768511	0.388340	0.434075
H195	H	0.839441	0.377010	0.452732
H196	H	0.839463	0.305196	0.452747
H197	H	0.782226	0.469691	0.328540
H198	H	0.782234	0.397885	0.328544
H199	H	-0.106023	0.677487	0.101673
H200	H	0.701123	0.955670	-0.206345
H201	H	0.566473	1.073247	-0.467904
H202	H	0.196248	1.073244	-0.323877
C203	C	0.732837	0.677572	-0.531513
C204	C	0.743931	0.677541	-0.595214
H205	H	0.768437	0.677627	-0.509563
H206	H	0.735046	0.626789	-0.495483
H207	H	0.687507	0.728330	-0.546297
H208	H	0.789260	0.626779	-0.580429
H209	H	0.741729	0.728328	-0.631251
H210	H	0.566440	0.955695	-0.350348
C211	C	0.371709	0.882721	-0.130447
C212	C	0.304272	0.946450	-0.185794
H213	H	0.367078	0.860739	-0.081534
H214	H	0.396894	0.907995	-0.136135
H215	H	0.396884	0.836203	-0.136129
H216	H	0.279099	0.992971	-0.180115
H217	H	0.279076	0.921177	-0.180103
C218	C	0.674248	1.172053	-0.451516
C219	C	0.633827	1.150472	-0.473144
H220	H	0.674253	1.216030	-0.495486
H221	H	0.721528	1.121491	-0.422201
H222	H	0.654366	1.193286	-0.422203
H223	H	0.653711	1.129233	-0.502452
H224	H	0.586537	1.201043	-0.502471
H225	H	0.208584	1.132054	-0.454667
H226	H	0.729001	0.297466	0.101733
H227	H	0.208599	1.132061	-0.000188
H228	H	0.538519	0.501133	-0.101893
H229	H	0.566399	0.399291	0.206116
H230	H	0.538529	0.383599	-0.101925
C231	C	1.098291	0.341142	0.281818
C232	C	1.090485	0.272544	0.321538
H233	H	1.144037	0.319169	0.276853
H234	H	1.092985	0.366411	0.308738
H235	H	1.063150	0.384363	0.232920
H236	H	1.125624	0.229326	0.370439
H237	H	1.095798	0.247262	0.294618
H238	H	0.701078	0.281785	0.467633
C239	C	-0.026831	0.677500	0.166911
C240	C	0.012578	0.677497	0.117662
H241	H	-0.006270	0.677505	0.204989
H242	H	-0.026729	0.626734	0.189965
H243	H	-0.074220	0.728274	0.139180
H244	H	0.059966	0.626719	0.145393
H245	H	0.012484	0.728268	0.094608
H246	H	0.373540	0.677509	-0.101931
H247	H	0.701081	0.399321	0.350064
H248	H	0.936583	0.281764	-0.072082
H249	H	0.538527	0.057514	-0.101985
H250	H	0.196219	1.073293	-0.072169
H251	H	0.728998	-0.146151	0.101652
H252	H	1.071305	0.281721	0.071888
C253	C	0.790023	-0.126759	0.166918
C254	C	0.743957	-0.035378	0.117667
H255	H	0.825643	-0.142869	0.205011
H256	H	0.811583	-0.149685	0.139196
H257	H	0.764083	-0.149694	0.189957
H258	H	0.769896	-0.012442	0.094624
H259	H	0.722395	-0.012442	0.145392
C260	C	1.000330	0.339900	0.177209
C261	C	0.963215	0.408518	0.185522
H262	H	1.004928	0.361861	0.128282
H263	H	0.975151	0.314607	0.182960
H264	H	1.046089	0.296702	0.214742
H265	H	0.917454	0.451714	0.147993
H266	H	0.988394	0.433824	0.179764
C267	C	0.511878	0.882762	-0.280327
C268	C	0.460101	0.946482	-0.352418
H269	H	0.557628	0.860800	-0.285283
H270	H	0.506573	0.836236	-0.253405
H271	H	0.506553	0.908042	-0.253406
H272	H	0.465422	0.921201	-0.379337
H273	H	0.465408	0.993016	-0.379351
C274	C	0.732868	0.102846	0.105843
C275	C	0.743955	0.154703	0.117701
H276	H	0.768486	0.042774	0.143928
H277	H	0.735051	0.115295	0.057405
H278	H	0.687551	0.115291	0.108166
H279	H	0.789270	0.142262	0.115372
H280	H	0.741779	0.142249	0.166150
H281	H	0.263579	0.677501	-0.101932
H282	H	0.263556	0.677494	0.101682
C283	C	0.477481	0.677495	-0.689047
C284	C	0.523550	0.677501	-0.731178
H285	H	0.441862	0.677484	-0.711021
H286	H	0.455921	0.728263	-0.689167
H287	H	0.503419	0.626723	-0.638381
H288	H	0.497613	0.728277	-0.781843
H289	H	0.545112	0.626728	-0.731066
H290	H	0.538534	0.677499	-0.278286
H291	H	0.729019	0.677486	-0.278307
H292	H	0.728993	0.677485	-0.721967
C293	C	0.799598	0.339961	-0.054494
C294	C	0.807424	0.408543	-0.083386
H295	H	0.753846	0.361950	-0.081431
H296	H	0.804907	0.314688	-0.002297
H297	H	0.834729	0.296739	-0.060171
H298	H	0.772295	0.451762	-0.077703
H299	H	0.802108	0.433829	-0.135595
H300	H	0.633736	0.222985	0.454467
