data_functionalizedCrystal
_audit_creation_method	'MofGen! by Chris Wilmer'
_symmetry_space_group_name_H-M	'P1'
_symmetry_Int_Tables_number	1
_symmetry_cell_setting	triclinic
loop_
_symmetry_equiv_pos_as_xyz
  x,y,z
_cell_length_a	6.817900
_cell_length_b	19.452420
_cell_length_c	19.453114
_cell_angle_alpha	96.328802
_cell_angle_beta	101.709288
_cell_angle_gamma	101.696715
loop_
_atom_site_label
_atom_site_type_symbol
_atom_site_fract_x
_atom_site_fract_y
_atom_site_fract_z
V1	V	-3.997947	-0.097915	-0.219345
O2	O	-3.995100	0.003953	-0.214816
O3	O	-3.940917	-0.193426	-0.218185
O4	O	-3.940968	-0.096739	-0.314854
O5	O	-3.995048	-0.093403	-0.117478
V6	V	-4.483804	-0.085692	-0.207120
O7	O	-4.254084	-0.124729	-0.246163
O8	O	-4.677865	-0.058878	-0.180302
O9	O	-4.317628	0.009819	-0.208280
O10	O	-4.604048	-0.187560	-0.211649
O11	O	-4.604099	-0.090204	-0.308987
O12	O	-4.317576	-0.086868	-0.111611
C13	C	-3.784096	-0.216699	-0.214813
C14	C	-3.818697	-0.294782	-0.214501
C15	C	-3.801490	-0.321196	-0.149986
C16	C	-3.834075	-0.394562	-0.149672
C17	C	-3.883827	-0.441511	-0.213874
C18	C	-3.901045	-0.415090	-0.278397
C19	C	-3.868480	-0.341726	-0.278711
N20	N	-3.846563	-0.562110	-0.259091
N21	N	-3.877492	-0.631802	-0.258789
C22	C	-3.981949	-0.662553	-0.212935
N23	N	-4.054279	-0.620977	-0.167383
N24	N	-4.023337	-0.551278	-0.167682
C25	C	-3.919143	-0.521063	-0.213542
C26	C	-4.000075	-0.768518	-0.148075
C27	C	-4.032674	-0.841885	-0.147764
C28	C	-4.099624	-0.862412	-0.276491
C29	C	-4.067045	-0.789046	-0.276801
C30	C	-4.017262	-0.742102	-0.212591
C31	C	-3.784160	-0.093365	-0.338123
C32	C	-3.818800	-0.093035	-0.416204
C33	C	-4.016538	-0.096406	-0.456473
C34	C	-4.049086	-0.096097	-0.529838
C35	C	-3.883893	-0.092431	-0.562934
C36	C	-3.686126	-0.089055	-0.522655
C37	C	-3.653579	-0.089358	-0.449290
N38	N	-3.820798	-0.129525	-0.681855
N39	N	-3.851729	-0.129240	-0.751549
C40	C	-3.981942	-0.091517	-0.783979
N41	N	-4.080090	-0.054101	-0.744084
N42	N	-4.049164	-0.054390	-0.674384
C43	C	-3.919164	-0.092102	-0.642486
C44	C	-4.214984	-0.094552	-0.903800
C45	C	-4.247523	-0.094238	-0.977166
C46	C	-3.884560	-0.087203	-0.969983
C47	C	-3.852023	-0.087510	-0.896617
C48	C	-4.017244	-0.091188	-0.863531
C49	C	-4.137790	0.033088	-0.211650
C50	C	-4.082427	0.111171	-0.211967
C51	C	-4.137726	-0.090245	-0.088339
C52	C	-4.082325	-0.090570	-0.010257
H53	H	-3.959538	-0.730294	-0.095792
H54	H	-4.018672	-0.863389	-0.095226
C55	C	-3.747872	-0.270275	-0.080259
C56	C	-3.906878	-0.285288	-0.044679
C57	C	-3.857569	-0.238387	0.019551
H58	H	-3.623444	-0.275760	-0.051434
H59	H	-3.731026	-0.222787	-0.089652
H60	H	-3.923700	-0.332764	-0.035284
H61	H	-4.031321	-0.279798	-0.073483
H62	H	-3.840723	-0.190900	0.010158
H63	H	-3.733139	-0.243876	0.048370
H64	H	-3.965453	-0.248563	0.043697
C65	C	-4.153564	-0.913489	-0.346122
C66	C	-4.178362	-0.983392	-0.332041
C67	C	-4.228040	-1.030467	-0.396169
H68	H	-4.278101	-0.908056	-0.374919
H69	H	-4.045872	-0.903443	-0.370374
H70	H	-4.286046	-0.993435	-0.307800
H71	H	-4.053849	-0.988848	-0.303254
H72	H	-4.120348	-1.020420	-0.420421
H73	H	-4.352573	-1.025027	-0.424961
H74	H	-4.244853	-1.077901	-0.386623
H75	H	-4.349516	-0.097544	-0.876859
C76	C	-4.462346	-0.098042	-1.020875
C77	C	-4.595453	-0.160993	-1.014892
C78	C	-4.793359	-0.164525	-1.055155
H79	H	-4.510468	-0.058419	-1.003806
H80	H	-4.458182	-0.097371	-1.069323
H81	H	-4.599624	-0.161657	-0.966455
H82	H	-4.547396	-0.200626	-1.031966
H83	H	-4.789195	-0.163854	-1.103602
H84	H	-4.841461	-0.124899	-1.038082
H85	H	-4.883692	-0.207239	-1.051106
C86	C	-3.637496	-0.084018	-0.852852
C87	C	-3.639871	-0.144743	-0.820219
C88	C	-3.442282	-0.141564	-0.779903
H89	H	-3.543645	-0.081839	-0.883011
H90	H	-3.595718	-0.042850	-0.817470
H91	H	-3.681623	-0.185900	-0.855597
H92	H	-3.733681	-0.146934	-0.790048
H93	H	-3.400503	-0.100396	-0.744520
H94	H	-3.348447	-0.139383	-0.810067
H95	H	-3.443871	-0.182761	-0.757751
H96	H	-4.081043	-0.767540	-0.329335
C97	C	-4.263910	-0.099921	-0.573567
C98	C	-4.396982	-0.162878	-0.567578
C99	C	-4.594884	-0.166437	-0.607859
H100	H	-4.312083	-0.060304	-0.556515
H101	H	-4.259717	-0.099260	-0.622013
H102	H	-4.401182	-0.163534	-0.519142
H103	H	-4.348876	-0.202506	-0.584634
H104	H	-4.590691	-0.165775	-0.656305
H105	H	-4.643036	-0.126816	-0.590804
H106	H	-4.685193	-0.209155	-0.603807
H107	H	-3.820059	-0.416072	-0.097135
H108	H	-3.750053	-0.084212	-0.996928
C109	C	-3.439046	-0.085844	-0.405514
C110	C	-3.441386	-0.146562	-0.372871
C111	C	-3.243801	-0.143360	-0.332539
H112	H	-3.345168	-0.083657	-0.435664
H113	H	-3.397319	-0.044673	-0.370136
H114	H	-3.483086	-0.187722	-0.408245
H115	H	-3.535223	-0.148762	-0.342710
H116	H	-3.202074	-0.102189	-0.297160
H117	H	-3.149938	-0.141171	-0.362693
H118	H	-3.245366	-0.184552	-0.310381
H119	H	-4.151076	-0.099398	-0.429538
H120	H	-3.941557	-0.453320	-0.330672
H121	H	-3.551625	-0.086068	-0.549606
C122	C	-3.887141	-0.313180	-0.348830
C123	C	-3.937644	-0.369994	-0.404991
C124	C	-3.954819	-0.343724	-0.469595
H125	H	-3.991928	-0.287280	-0.353978
H126	H	-3.759718	-0.282727	-0.349414
H127	H	-4.065050	-0.400435	-0.404408
H128	H	-3.832878	-0.395900	-0.399867
H129	H	-3.827395	-0.313271	-0.470179
H130	H	-4.059604	-0.317824	-0.474735
H131	H	-3.989068	-0.382267	-0.507707
