data_functionalizedCrystal
_audit_creation_method	'MofGen! by Chris Wilmer'
_symmetry_space_group_name_H-M	'P1'
_symmetry_Int_Tables_number	1
_symmetry_cell_setting	triclinic
loop_
_symmetry_equiv_pos_as_xyz
  x,y,z
_cell_length_a	27.732048
_cell_length_b	16.992695
_cell_length_c	16.053967
_cell_angle_alpha	87.288060
_cell_angle_beta	92.895882
_cell_angle_gamma	93.344561
loop_
_atom_site_label
_atom_site_type_symbol
_atom_site_fract_x
_atom_site_fract_y
_atom_site_fract_z
O1	O	0.643037	-0.090332	-0.069321
O2	O	1.143037	0.409668	0.430679
O3	O	0.502856	-0.104510	-0.069346
O4	O	1.002856	0.395490	0.430654
O5	O	0.572384	0.016714	-0.069327
O6	O	1.072384	0.516714	0.430673
O7	O	0.573508	-0.211557	-0.069340
O8	O	1.073508	0.288443	0.430660
O9	O	0.576228	0.010866	0.069529
O10	O	1.076228	0.510866	0.569529
O11	O	0.506700	-0.110359	0.069510
O12	O	1.006700	0.389641	0.569510
O13	O	0.646881	-0.096180	0.069535
O14	O	1.146881	0.403820	0.569535
Zn15	Zn	0.577400	-0.104198	0.091569
Zn16	Zn	1.077400	0.395802	0.591569
Zn17	Zn	0.572336	-0.096493	-0.091380
Zn18	Zn	1.072336	0.403507	0.408620
O19	O	0.577352	-0.217405	0.069516
O20	O	1.077352	0.282595	0.569516
C21	C	0.486758	-0.107137	0.000079
C22	C	0.986758	0.392863	0.500079
C23	C	0.433064	-0.106240	0.000069
C24	C	0.933064	0.393760	0.500069
N25	N	0.568880	-0.091229	-0.216237
N26	N	1.068880	0.408771	0.283763
C27	C	0.572861	0.042985	0.000101
C28	C	1.072861	0.542985	0.500101
C29	C	0.568547	0.129977	0.000100
C30	C	1.068547	0.629977	0.500100
C31	C	0.097103	-0.172235	0.000102
C32	C	0.597103	0.327765	0.500102
C33	C	-0.104700	-0.168910	0.000109
C34	C	0.395300	0.331090	0.500109
O35	O	-0.133346	-0.229259	0.000142
O36	O	0.366654	0.270741	0.500142
N37	N	-0.126932	-0.097029	0.000112
N38	N	0.373068	0.402971	0.500112
C39	C	-0.098709	-0.025974	0.000118
C40	C	0.401291	0.474026	0.500118
O41	O	-0.122249	0.035242	0.000129
O42	O	0.377751	0.535242	0.500129
C43	C	0.103093	-0.029300	0.000116
C44	C	0.603093	0.470700	0.500116
C45	C	0.125322	-0.101186	0.000105
C46	C	0.625322	0.398814	0.500105
C47	C	0.119332	-0.244115	0.000091
C48	C	0.619332	0.255885	0.500091
C49	C	0.169779	-0.244946	0.000085
C50	C	0.669779	0.255054	0.500085
C51	C	0.197998	-0.173896	0.000089
C52	C	0.697998	0.326104	0.500089
C53	C	0.175769	-0.102016	0.000099
C54	C	0.675769	0.397984	0.500099
C55	C	0.131315	0.041754	0.000128
C56	C	0.631315	0.541754	0.500128
C57	C	0.181769	0.040916	0.000130
C58	C	0.681769	0.540916	0.500130
C59	C	0.203997	-0.030970	0.000119
C60	C	0.703997	0.469030	0.500119
C61	C	0.254436	-0.031796	0.000096
C62	C	0.754436	0.468204	0.500096
N63	N	0.276668	-0.103678	0.000093
N64	N	0.776668	0.396322	0.500093
C65	C	0.248449	-0.174728	0.000090
C66	C	0.748449	0.325272	0.500090
C67	C	-0.204658	-0.024232	0.000117
C68	C	0.295342	0.475768	0.500117
C69	C	-0.255109	-0.023401	0.000116
C70	C	0.244891	0.476599	0.500116
C71	C	-0.261097	-0.166338	0.000109
C72	C	0.238903	0.333662	0.500109
C73	C	-0.210645	-0.167168	0.000104
C74	C	0.289355	0.332832	0.500104
C75	C	-0.182427	-0.096114	0.000115
C76	C	0.317573	0.403886	0.500115
C77	C	0.354393	-0.176466	0.000075
C78	C	0.854393	0.323534	0.500075
C79	C	0.404845	-0.177290	0.000065
C80	C	0.904845	0.322710	0.500065
C81	C	0.410828	-0.034353	0.000077
C82	C	0.910828	0.465647	0.500077
C83	C	0.360380	-0.033529	0.000083
C84	C	0.860380	0.466471	0.500083
C85	C	0.332164	-0.104592	0.000085
C86	C	0.832164	0.395408	0.500085
O87	O	0.283112	0.028519	0.000073
O88	O	0.783112	0.528519	0.500073
O89	O	0.271998	-0.235935	0.000097
O90	O	0.771998	0.264065	0.500097
C91	C	0.046655	-0.171405	0.000108
C92	C	0.546655	0.328595	0.500108
C93	C	0.024426	-0.099525	0.000118
C94	C	0.524426	0.400475	0.500118
C95	C	0.052645	-0.028475	0.000122
C96	C	0.552645	0.471525	0.500122
C97	C	-0.026024	-0.098693	0.000117
C98	C	0.473976	0.401307	0.500117
C99	C	-0.054243	-0.169743	0.000113
C100	C	0.445757	0.330257	0.500113
C101	C	-0.032011	-0.241625	0.000111
C102	C	0.467989	0.258375	0.500111
C103	C	0.018436	-0.242455	0.000104
C104	C	0.518436	0.257545	0.500104
C105	C	0.030414	0.043406	0.000124
C106	C	0.530414	0.543406	0.500124
C107	C	-0.020034	0.044231	0.000130
C108	C	0.479966	0.544231	0.500130
C109	C	-0.048253	-0.026819	0.000126
C110	C	0.451747	0.473181	0.500126
C111	C	0.662978	-0.093554	0.000108
C112	C	1.162978	0.406446	0.500108
C113	C	0.716672	-0.094450	0.000112
C114	C	1.216672	0.405550	0.500112
C115	C	0.576876	-0.243676	0.000086
C116	C	1.076876	0.256324	0.500086
C117	C	0.581189	-0.330668	0.000082
C118	C	1.081189	0.169332	0.500082
C119	C	0.610170	0.180722	0.000108
C120	C	1.110170	0.680722	0.500108
C121	C	0.606114	0.262459	0.000099
C122	C	1.106114	0.762459	0.500099
C123	C	0.560433	0.293451	0.000088
C124	C	1.060433	0.793451	0.500088
C125	C	0.518807	0.242700	0.000077
C126	C	1.018807	0.742700	0.500077
C127	C	0.522863	0.160964	0.000080
C128	C	1.022863	0.660964	0.500080
C129	C	0.543620	0.536846	0.000074
C130	C	1.043620	1.036846	0.500074
C131	C	0.539566	0.618588	0.000074
C132	C	1.039566	1.118588	0.500074
C133	C	0.626873	0.638342	0.000094
C134	C	1.126873	1.138342	0.500094
C135	C	0.630926	0.556603	0.000102
C136	C	1.130926	1.056603	0.500102
C137	C	0.589299	0.505860	0.000086
C138	C	1.089299	1.005860	0.500086
N139	N	0.556286	0.377000	0.000082
N140	N	1.056286	0.877000	0.500082
N141	N	0.593447	0.422313	0.000087
N142	N	1.093447	0.922313	0.500087
C143	C	0.598744	-0.136685	-0.259956
C144	C	1.098744	0.363315	0.240044
C145	C	0.596313	-0.132989	-0.347360
C146	C	1.096313	0.367011	0.152640
C147	C	0.564020	-0.083833	-0.391045
C148	C	1.064020	0.416167	0.108955
C149	C	0.534153	-0.038375	-0.347321
C150	C	1.034153	0.461625	0.152679
C151	C	0.536581	-0.042075	-0.259917
C152	C	1.036581	0.457925	0.240083
C153	C	0.553422	-0.067698	-0.652446
C154	C	1.053422	0.432302	-0.152446
C155	C	0.550996	-0.064000	-0.739855
C156	C	1.050996	0.436000	-0.239855
C157	C	0.613156	-0.158615	-0.739889
C158	C	1.113156	0.341385	-0.239889
C159	C	0.615584	-0.162308	-0.652484
C160	C	1.115584	0.337692	-0.152484
C161	C	0.585715	-0.116853	-0.608767
C162	C	1.085715	0.383147	-0.108767
N163	N	0.561536	-0.080053	-0.480387
N164	N	1.061536	0.419947	0.019613
N165	N	0.588197	-0.120638	-0.519427
N166	N	1.088197	0.379362	-0.019427
N167	N	0.580860	-0.109456	0.216426
N168	N	1.080860	0.390544	0.716426
H169	H	0.422941	-0.235830	0.000056
H170	H	0.922941	0.264170	0.500056
O171	O	0.651007	0.317193	0.000122
O172	O	1.151007	0.817193	0.500122
H173	H	0.683453	0.281911	0.000146
H174	H	1.183453	0.781911	0.500146
O175	O	0.323963	-0.253111	0.000081
O176	O	0.823963	0.246889	0.500081
H177	H	0.299259	-0.253770	-0.056509
H178	H	0.799259	0.246230	0.443491
H179	H	0.187873	-0.303483	0.000076
H180	H	0.687873	0.196517	0.500076
H181	H	0.433813	0.023494	0.000077
H182	H	0.933813	0.523494	0.500077
H183	H	0.529101	-0.030683	-0.616862
H184	H	1.029101	0.469317	-0.116862
H185	H	0.512262	-0.005062	-0.224323
H186	H	1.012262	0.494938	0.275677
O187	O	-0.062456	-0.318256	0.000114
O188	O	0.437544	0.181744	0.500114
H189	H	-0.055790	-0.350307	-0.056485
H190	H	0.444210	0.149693	0.443515
H191	H	0.036530	-0.300992	0.000096
H192	H	0.536530	0.199008	0.500096
O193	O	0.477969	0.106229	0.000072
O194	O	0.977969	0.606229	0.500072
H195	H	0.479298	0.066133	0.056665
H196	H	0.979298	0.566133	0.556665
H197	H	0.096361	-0.301976	0.000091
H198	H	0.596361	0.198024	0.500091
H199	H	0.342281	0.025007	0.000079
H200	H	0.842281	0.525007	0.500079
O201	O	0.498722	0.482125	0.000061
O202	O	0.998722	0.982125	0.500061
H203	H	0.509213	0.420081	0.000053
H204	H	1.009213	0.920081	0.500053
O205	O	0.516161	-0.010985	-0.786978
O206	O	1.016161	0.489015	-0.286978
H207	H	0.495795	0.019995	-0.741896
H208	H	0.995795	0.519995	-0.241896
O209	O	0.633575	-0.189699	-0.212836
O210	O	1.133575	0.310301	0.287164
H211	H	0.624940	-0.251731	-0.229621
H212	H	1.124940	0.248269	0.270379
O213	O	0.499349	0.014693	-0.394431
O214	O	0.999349	0.514693	0.105569
H215	H	0.502690	0.009654	-0.462554
H216	H	1.002690	0.509654	0.037446
H217	H	-0.192550	-0.225704	0.000100
H218	H	0.307450	0.274296	0.500100
H219	H	-0.273203	0.035137	0.000112
H220	H	0.226797	0.535137	0.500112
O221	O	-0.291536	-0.242974	0.000117
O222	O	0.208464	0.257026	0.500117
H223	H	-0.330350	-0.230312	0.000128
H224	H	0.169650	0.269688	0.500128
O225	O	0.490293	0.652012	0.000068
O226	O	0.990293	1.152012	0.500068
H227	H	0.494468	0.717373	0.000083
H228	H	0.994468	1.217373	0.500083
H229	H	0.668124	0.531376	0.000111
H230	H	1.168124	1.031376	0.500111
H231	H	0.660763	0.679665	0.000105
H232	H	1.160763	1.179665	0.500105
H233	H	-0.181687	0.033632	0.000126
H234	H	0.318313	0.533632	0.500126
O235	O	0.650415	-0.215328	-0.605372
O236	O	1.150415	0.284672	-0.105372
H237	H	0.629939	-0.259329	-0.565555
H238	H	1.129939	0.240671	-0.065555
O239	O	-0.044002	0.121774	0.000147
O240	O	0.455998	0.621774	0.500147
H241	H	-0.068415	0.127973	-0.056445
H242	H	0.431585	0.627973	0.443555
O243	O	0.645365	-0.207652	-0.787038
O244	O	1.145365	0.292348	-0.287038
H245	H	0.638248	-0.196830	-0.855154
H246	H	1.138248	0.303170	-0.355154
O247	O	0.107348	0.119288	0.000158
O248	O	0.607348	0.619288	0.500158
H249	H	0.135454	0.168545	0.000176
H250	H	0.635454	0.668545	0.500176
O251	O	0.469536	0.276120	0.000074
O252	O	0.969536	0.776120	0.500074
H253	H	0.473707	0.341481	0.000086
H254	H	0.973707	0.841481	0.500086
H255	H	0.053385	0.101265	0.000129
H256	H	0.553385	0.601265	0.500129
H257	H	0.204742	0.098779	0.000139
H258	H	0.704742	0.598779	0.500139
H259	H	0.620632	-0.170003	-0.382952
H260	H	1.120632	0.329997	0.117048
H261	H	0.647368	0.155495	0.000122
H262	H	1.147368	0.655495	0.500122
