data_functionalizedCrystal
_audit_creation_method	'MofGen! by Chris Wilmer'
_symmetry_space_group_name_H-M	'P1'
_symmetry_Int_Tables_number	1
_symmetry_cell_setting	triclinic
loop_
_symmetry_equiv_pos_as_xyz
  x,y,z
_cell_length_a	14.853568
_cell_length_b	10.654550
_cell_length_c	9.130313
_cell_angle_alpha	89.997153
_cell_angle_beta	89.999083
_cell_angle_gamma	84.060059
loop_
_atom_site_label
_atom_site_type_symbol
_atom_site_fract_x
_atom_site_fract_y
_atom_site_fract_z
O1	O	-1.197241	-0.163962	0.121703
O2	O	-0.934887	-0.183492	0.121727
O3	O	-1.072096	0.009075	0.121706
O4	O	-1.060032	-0.356529	0.121725
O5	O	-1.072086	0.009075	-0.121893
O6	O	-0.934876	-0.183493	-0.121872
O7	O	-1.197231	-0.163962	-0.121895
Cu8	Cu	-1.066053	-0.173727	-0.144126
Cu9	Cu	-1.066065	-0.173727	0.143958
O10	O	-1.060022	-0.356529	-0.121874
C11	C	-0.901288	-0.182607	-0.000069
C12	C	-0.801190	-0.179955	-0.000060
C13	C	-0.387984	-0.054354	-0.000102
C14	C	-0.367928	-0.283129	-0.000088
C15	C	-0.461975	-0.285622	-0.000083
C16	C	-0.519031	-0.172480	-0.000085
C17	C	-0.482040	-0.056844	-0.000092
C18	C	-0.498973	-0.401257	-0.000061
C19	C	-0.593025	-0.403755	-0.000054
C20	C	-0.650083	-0.290612	-0.000066
C21	C	-0.613087	-0.174971	-0.000075
C22	C	-0.670143	-0.061829	-0.000077
C23	C	-0.633149	0.053814	-0.000096
C24	C	-0.539098	0.056299	-0.000104
C25	C	-0.744134	-0.293097	-0.000058
C26	C	-0.764199	-0.064319	-0.000067
C27	C	-0.230830	-0.164846	-0.000097
C28	C	-0.330928	-0.167496	-0.000100
N29	N	-1.066051	-0.173727	-0.346749
C30	C	-1.071205	0.055864	-0.000093
C31	C	-1.068555	0.195279	-0.000090
C32	C	-1.060913	-0.403318	-0.000072
C33	C	-1.063563	-0.542733	-0.000065
C34	C	-1.149342	0.275604	-0.000097
C35	C	-1.146846	0.406599	-0.000079
C36	C	-0.982770	0.376932	-0.000054
C37	C	-0.985266	0.245939	-0.000061
C38	C	-1.121203	-0.250036	-0.423396
C39	C	-1.121218	-0.250028	-0.576733
C40	C	-1.010919	-0.097400	-0.576761
C41	C	-1.010910	-0.097401	-0.423427
N42	N	-1.066074	-0.173718	0.346581
H43	H	-0.508968	0.150449	-0.000155
C44	C	-0.846187	0.180313	0.125176
C45	C	-0.896457	0.157638	-0.000055
H46	H	-0.791360	0.125804	0.125176
H47	H	-0.880309	0.164930	0.210102
H48	H	-0.832785	0.265580	0.125164
H49	H	-0.909864	0.072373	-0.000038
H50	H	-0.862327	0.173011	-0.085003
C51	C	-0.901874	0.053462	-0.438845
C52	C	-0.950279	-0.013519	-0.339165
H53	H	-0.864443	0.105240	-0.386821
H54	H	-0.943044	0.104816	-0.498643
H55	H	-0.865295	-0.004248	-0.498657
H56	H	-0.986864	0.044192	-0.279360
H57	H	-0.909104	-0.064877	-0.279341
H58	H	-1.166102	-0.312185	-0.360969
H59	H	-1.166129	-0.312166	-0.639132
C60	C	-0.842140	0.391973	-0.125247
C61	C	-0.891220	0.432615	-0.000032
H62	H	-0.785617	0.426342	-0.125228
H63	H	-0.875431	0.419550	-0.210184
H64	H	-0.832075	0.302461	-0.125233
H65	H	-0.901290	0.522127	-0.000052
H66	H	-0.857922	0.405046	0.084927
H67	H	-0.679616	0.145933	-0.000088
C68	C	-0.881599	0.065605	0.125164
C69	C	-0.826915	0.060051	-0.000068
H70	H	-0.920320	0.142383	0.125156
H71	H	-0.844486	0.061830	0.210089
H72	H	-0.917088	-0.003623	0.125162
H73	H	-0.791421	0.129274	-0.000061
H74	H	-0.864032	0.063838	-0.085015
H75	H	-0.966025	-0.035260	-0.639212
H76	H	-0.357859	0.039799	-0.000123
H77	H	-0.321468	-0.375244	-0.000074
H78	H	-0.623138	-0.497918	-0.000038
C79	C	-0.381551	-0.531151	0.125149
C80	C	-0.436252	-0.525611	-0.000060
H81	H	-0.342822	-0.607922	0.125138
H82	H	-0.418652	-0.527381	0.210089
H83	H	-0.346069	-0.461915	0.125119
H84	H	-0.471739	-0.594843	-0.000025
H85	H	-0.399147	-0.529394	-0.085023
C86	C	-0.714858	-0.518979	-0.000031
C87	C	-0.784799	-0.420198	-0.000038
H88	H	-0.739964	-0.597449	-0.000029
H89	H	-0.678595	-0.513245	0.084911
H90	H	-0.678590	-0.513245	-0.084987
H91	H	-0.821063	-0.425926	0.084924
H92	H	-0.821078	-0.425935	-0.084988
H93	H	-1.217160	0.234361	-0.000118
C94	C	-1.239238	0.571093	0.125151
C95	C	-1.235651	0.494889	-0.000085
H96	H	-1.294069	0.625593	0.125152
H97	H	-1.189290	0.620014	0.125155
H98	H	-1.236805	0.519350	0.210083
H99	H	-1.238078	0.546633	-0.085017
H100	H	-1.285614	0.445964	-0.000102
