data_functionalizedCrystal
_audit_creation_method	'MofGen! by Chris Wilmer'
_symmetry_space_group_name_H-M	'P1'
_symmetry_Int_Tables_number	1
_symmetry_cell_setting	triclinic
loop_
_symmetry_equiv_pos_as_xyz
  x,y,z
_cell_length_a	18.101398
_cell_length_b	13.032721
_cell_length_c	13.032268
_cell_angle_alpha	76.710373
_cell_angle_beta	97.157621
_cell_angle_gamma	82.799479
loop_
_atom_site_label
_atom_site_type_symbol
_atom_site_fract_x
_atom_site_fract_y
_atom_site_fract_z
Zn1	Zn	1.028325	0.499224	-0.654372
Zn2	Zn	1.028244	0.654309	-0.499320
Zn3	Zn	0.922501	0.476704	-0.476774
Zn4	Zn	0.886455	0.676763	-0.676838
O5	O	0.966381	0.576750	-0.576826
O6	O	1.131942	0.519824	-0.633837
O7	O	1.029269	0.611927	-0.347711
O8	O	0.951658	0.331063	-0.481495
O9	O	1.131883	0.633764	-0.519921
O10	O	1.029407	0.347609	-0.611975
O11	O	0.951579	0.481442	-0.331147
O12	O	0.814092	0.503215	-0.503280
O13	O	0.890223	0.672034	-0.822475
O14	O	0.787609	0.650197	-0.650266
O15	O	0.994454	0.541597	-0.805969
O16	O	0.994317	0.805916	-0.541705
O17	O	0.890144	0.822413	-0.672127
C18	C	0.773981	0.576700	-0.576765
C19	C	0.691666	0.576707	-0.576767
C20	C	0.938328	0.852705	-0.611824
C21	C	0.926391	0.970764	-0.626832
C22	C	0.938327	0.611832	-0.853835
C23	C	0.926371	0.626782	-0.971879
C24	C	0.392559	0.576785	-0.576865
C25	C	0.440523	0.483948	-0.484733
C26	C	0.526154	0.484125	-0.484413
C27	C	0.540950	0.576745	-0.576816
C28	C	0.501599	0.684750	-0.560440
C29	C	0.416058	0.684220	-0.559814
C30	C	0.415648	0.562613	-0.685689
C31	C	0.501613	0.560044	-0.684759
C32	C	0.624813	0.576730	-0.576792
C33	C	0.308696	0.576807	-0.576888
C34	C	1.159533	0.576801	-0.576888
C35	C	1.241843	0.576823	-0.576914
C36	C	0.994562	0.299721	-0.541714
C37	C	1.006571	0.181667	-0.526752
C38	C	0.972646	1.015207	-0.569041
C39	C	0.960309	1.137227	-0.584551
C40	C	0.972613	0.568909	-1.016340
C41	C	0.960258	0.584359	-1.138346
C42	C	0.994377	0.541728	-0.300885
C43	C	1.006506	0.526479	-0.182803
H44	H	0.553655	0.403590	-0.493048
H45	H	1.055243	0.465484	-1.130548
H46	H	0.426461	0.403133	-0.493126
C47	C	1.072414	1.111055	-0.444395
H48	H	1.099837	1.154764	-0.410155
H49	H	1.053144	1.061962	-0.392624
H50	H	1.104891	1.072888	-0.479608
C51	C	0.894418	0.666755	-1.208930
H52	H	0.894755	0.666337	-1.281672
H53	H	0.848064	0.648927	-1.188823
H54	H	0.899828	0.735844	-1.199854
H55	H	0.425494	0.492026	-0.404266
H56	H	1.021383	0.962925	-0.508085
C57	C	0.894470	1.207842	-0.666912
H58	H	0.867053	1.164136	-0.701164
H59	H	0.861995	1.246020	-0.631711
H60	H	0.913749	1.256927	-0.718687
C61	C	0.371724	0.654185	-0.778193
H62	H	0.385920	0.645191	-0.843736
H63	H	0.319148	0.653331	-0.780534
H64	H	0.383018	0.720532	-0.767378
H65	H	0.877631	0.687760	-1.024137
H66	H	0.527960	0.480635	-0.697365
H67	H	0.877659	1.023049	-0.687795
C68	C	1.038454	0.486525	-0.945753
H69	H	1.038124	0.486954	-0.873013
H70	H	1.033057	0.417438	-0.954829
H71	H	1.084807	0.504371	-0.965864
H72	H	0.553155	0.492353	-0.403487
C73	C	0.396985	0.702699	-0.452911
H74	H	0.441486	0.710453	-0.410272
H75	H	0.360897	0.765659	-0.466096
H76	H	0.376818	0.643365	-0.416402
C77	C	0.393672	0.459082	-0.709502
H78	H	0.370208	0.423528	-0.653290
H79	H	0.359617	0.475981	-0.774833
H80	H	0.437642	0.413850	-0.715045
C81	C	0.371568	0.779717	-0.647635
H82	H	0.405805	0.818677	-0.683521
H83	H	0.340263	0.754401	-0.697290
H84	H	0.341199	0.824978	-0.616289
C85	C	0.538300	0.703962	-0.454806
H86	H	0.514097	0.769519	-0.445614
H87	H	0.533158	0.647153	-0.397020
H88	H	0.590288	0.707082	-0.456624
H89	H	0.509725	0.755157	-0.626067
H90	H	0.510873	0.623871	-0.755933
