data_functionalizedCrystal
_audit_creation_method	'MofGen! by Chris Wilmer'
_symmetry_space_group_name_H-M	'P1'
_symmetry_Int_Tables_number	1
_symmetry_cell_setting	triclinic
loop_
_symmetry_equiv_pos_as_xyz
  x,y,z
_cell_length_a	15.944551
_cell_length_b	16.109301
_cell_length_c	14.586319
_cell_angle_alpha	90.000846
_cell_angle_beta	89.999016
_cell_angle_gamma	96.519891
loop_
_atom_site_label
_atom_site_type_symbol
_atom_site_fract_x
_atom_site_fract_y
_atom_site_fract_z
O1	O	-1.114488	0.107227	-0.076135
O2	O	-0.869934	0.120447	-0.076157
O3	O	-0.998929	-0.007192	-0.076150
O4	O	-0.985492	0.234866	-0.076142
O5	O	-0.998920	-0.007194	0.076331
O6	O	-0.869925	0.120445	0.076324
O7	O	-1.114479	0.107225	0.076346
Cu8	Cu	-0.992201	0.113835	0.090258
Cu9	Cu	-0.992211	0.113837	-0.090069
O10	O	-0.985484	0.234864	0.076339
C11	C	-0.838635	0.119897	0.000081
C12	C	-0.745390	0.118252	0.000072
C13	C	-0.998380	-0.038168	0.000087
C14	C	-0.996748	-0.130464	0.000077
C15	C	-1.145777	0.107775	0.000106
C16	C	-1.239022	0.109420	0.000109
C17	C	-0.530561	0.035203	0.000087
C18	C	-0.469532	0.073769	-0.075093
C19	C	-0.574665	0.115275	0.000083
C20	C	-0.469546	0.073786	0.075241
C21	C	-0.409753	0.112394	0.000097
C22	C	-0.514865	0.153864	-0.075159
C23	C	-0.514884	0.153870	0.075243
C24	C	-0.453874	0.192494	0.000044
C25	C	-0.669667	0.116933	0.000074
C26	C	-0.314753	0.110743	0.000100
C27	C	-0.986032	0.265840	0.000100
C28	C	-0.987664	0.358136	0.000103
N29	N	-0.992200	0.113833	0.217089
C30	C	-0.914915	0.580385	0.000084
C31	C	-0.916455	0.667106	0.000077
C32	C	-1.069503	0.647281	0.000094
C33	C	-1.067962	0.560562	0.000095
C34	C	-0.990666	0.527116	0.000094
C35	C	-0.993746	0.700556	0.000087
C36	C	-0.995416	0.794583	0.000080
C37	C	-0.988995	0.433084	0.000100
N38	N	-0.992219	0.113833	-0.216900
C39	C	-1.049337	0.057333	0.452099
C40	C	-1.049340	0.057331	0.548080
C41	C	-0.935075	0.170335	0.548083
C42	C	-0.935070	0.170332	0.452104
C43	C	-0.992205	0.113833	0.404114
C44	C	-0.992214	0.113833	0.596075
C45	C	-0.992216	0.113831	0.700142
C46	C	-0.992202	0.113833	0.300040
H47	H	-0.563915	-0.031251	-0.000008
H48	H	-0.449437	0.039902	-0.138654
H49	H	-0.535001	0.187708	0.138807
F50	F	-0.874256	0.230466	0.401031
F51	F	-0.443302	0.029501	0.158315
F52	F	-0.835830	0.723795	0.000062
H53	H	-0.534845	0.187707	-0.138787
F54	F	-0.410501	0.279442	-0.000005
H55	H	-0.851975	0.553157	0.000086
H56	H	-0.888558	0.216337	0.587166
H57	H	-1.132435	0.674523	0.000104
F58	F	-1.148591	0.503865	0.000101
H59	H	-1.095861	0.011324	0.587146
F60	F	-1.110144	-0.002801	0.401028
