data_functionalizedCrystal
_audit_creation_method	'MofGen! by Chris Wilmer'
_symmetry_space_group_name_H-M	'P1'
_symmetry_Int_Tables_number	1
_symmetry_cell_setting	triclinic
loop_
_symmetry_equiv_pos_as_xyz
  x,y,z
_cell_length_a	17.077404
_cell_length_b	17.077402
_cell_length_c	17.077396
_cell_angle_alpha	89.972568
_cell_angle_beta	90.018362
_cell_angle_gamma	89.977697
loop_
_atom_site_label
_atom_site_type_symbol
_atom_site_fract_x
_atom_site_fract_y
_atom_site_fract_z
Zn1	Zn	1.200047	0.312551	0.443825
Zn2	Zn	1.533380	0.645884	0.777158
Zn3	Zn	1.866713	0.979217	1.110491
Zn4	Zn	1.199950	0.443826	0.312561
Zn5	Zn	1.533284	0.777159	0.645894
Zn6	Zn	1.866617	1.110492	0.979228
Zn7	Zn	1.068779	0.312573	0.312575
Zn8	Zn	1.402112	0.645906	0.645908
Zn9	Zn	1.735445	0.979240	0.979242
Zn10	Zn	1.068743	0.443774	0.443787
Zn11	Zn	1.402077	0.777107	0.777120
Zn12	Zn	1.735410	1.110440	1.110454
O13	O	1.134380	0.378181	0.378187
O14	O	1.467713	0.711514	0.711520
O15	O	1.801046	1.044847	1.044854
O16	O	1.309881	0.329977	0.426422
O17	O	1.643214	0.663310	0.759755
O18	O	1.976548	0.996644	1.093089
O19	O	1.182525	0.426446	0.202716
O20	O	1.515858	0.759779	0.536049
O21	O	1.849191	1.093112	0.869383
O22	O	1.086247	0.202723	0.330007
O23	O	1.419580	0.536056	0.663341
O24	O	1.752913	0.869390	0.996674
O25	O	1.309810	0.426424	0.329983
O26	O	1.643143	0.759757	0.663316
O27	O	1.976477	1.093091	0.996650
O28	O	1.182689	0.202707	0.426436
O29	O	1.516022	0.536040	0.759769
O30	O	1.849355	0.869373	1.093102
O31	O	1.086153	0.330015	0.202726
O32	O	1.419487	0.663348	0.536060
O33	O	1.752820	0.996682	0.869393
O34	O	0.958927	0.329965	0.329971
O35	O	1.292260	0.663298	0.663304
O36	O	1.625594	0.996631	0.996638
O37	O	1.086186	0.426336	0.553639
O38	O	1.419520	0.759669	0.886972
O39	O	1.752853	1.093002	1.220306
O40	O	0.958901	0.426357	0.426372
O41	O	1.292234	0.759691	0.759705
O42	O	1.625568	1.093024	1.093039
O43	O	1.182654	0.329927	0.553667
O44	O	1.515988	0.663260	0.887000
O45	O	1.849321	0.996593	1.220333
O46	O	1.182490	0.553666	0.329947
O47	O	1.515824	0.886999	0.663280
O48	O	1.849157	1.220332	0.996613
O49	O	1.086093	0.553628	0.426358
O50	O	1.419426	0.886961	0.759691
O51	O	1.752760	1.220294	1.093025
C52	C	0.930432	0.378159	0.378169
C53	C	1.263765	0.711492	0.711503
C54	C	1.597099	1.044825	1.044836
C55	C	0.843182	0.378168	0.378180
C56	C	1.176515	0.711501	0.711514
C57	C	1.509849	1.044835	1.044847
C58	C	0.802229	0.328037	0.428473
C59	C	1.135563	0.661371	0.761806
C60	C	1.468896	0.994704	1.095139
C61	C	0.720249	0.328042	0.428476
C62	C	1.053582	0.661376	0.761810
C63	C	1.386916	0.994709	1.095143
C64	C	0.679223	0.378183	0.378191
C65	C	1.012556	0.711516	0.711524
C66	C	1.345889	1.044849	1.044858
C67	C	0.720181	0.428315	0.327893
C68	C	1.053514	0.761649	0.661227
C69	C	1.386848	1.094982	0.994560
C70	C	0.802160	0.428306	0.327886
C71	C	1.135493	0.761639	0.661220
C72	C	1.468827	1.094973	0.994553
C73	C	0.549311	0.428333	0.327913
C74	C	0.882644	0.761667	0.661246
C75	C	1.215978	1.095000	0.994579
C76	C	0.467326	0.428344	0.327920
C77	C	0.800660	0.761677	0.661254
C78	C	1.133993	1.095011	0.994587
C79	C	0.467400	0.328070	0.428503
C80	C	0.800733	0.661403	0.761836
C81	C	1.134067	0.994736	1.095170
C82	C	0.549379	0.328060	0.428496
C83	C	0.882712	0.661393	0.761829
C84	C	1.216046	0.994727	1.095163
C85	C	0.590332	0.378194	0.378199
C86	C	0.923665	0.711528	0.711532
C87	C	1.256998	1.044861	1.044865
C88	C	1.134299	0.582129	0.378164
C89	C	1.467632	0.915462	0.711497
C90	C	1.800965	1.248795	1.044831
C91	C	1.134336	0.669378	0.378180
C92	C	1.467669	1.002712	0.711514
C93	C	1.801003	1.336045	1.044847
C94	C	1.134427	0.378123	0.582931
C95	C	1.467761	0.711456	0.916265
C96	C	1.801094	1.044790	1.249598
C97	C	1.134447	0.378098	0.670181
C98	C	1.467781	0.711432	1.003514
C99	C	1.801114	1.044765	1.336848
C100	C	1.339124	0.378204	0.378205
C101	C	1.672457	0.711537	0.711538
C102	C	2.005791	1.044870	1.044872
C103	C	1.426374	0.378213	0.378213
C104	C	1.759707	0.711547	0.711546
C105	C	2.093040	1.044880	1.044879
C106	C	1.184580	0.710362	0.328035
C107	C	1.517914	1.043696	0.661368
C108	C	1.851247	1.377029	0.994701
C109	C	1.184617	0.792343	0.328058
C110	C	1.517950	1.125676	0.661391
C111	C	1.851283	1.459009	0.994725
C112	C	1.134404	0.833338	0.378224
C113	C	1.467737	1.166671	0.711557
C114	C	1.801071	1.500004	1.044890
C115	C	1.084157	0.792348	0.428375
C116	C	1.417491	1.125681	0.761708
C117	C	1.750824	1.459015	1.095042
C118	C	1.084126	0.710369	0.428355
C119	C	1.417459	1.043703	0.761688
C120	C	1.750792	1.377036	1.095022
C121	C	1.084226	0.963218	0.428412
C122	C	1.417559	1.296551	0.761745
C123	C	1.750893	1.629885	1.095079
C124	C	1.084256	1.045203	0.428431
C125	C	1.417590	1.378536	0.761764
C126	C	1.750923	1.711869	1.095098
C127	C	1.184717	1.045192	0.328115
C128	C	1.518050	1.378525	0.661448
C129	C	1.851384	1.711858	0.994782
C130	C	1.184685	0.963213	0.328095
C131	C	1.518018	1.296546	0.661428
C132	C	1.851352	1.629879	0.994761
C133	C	1.134437	0.922229	0.378245
C134	C	1.467771	1.255562	0.711579
C135	C	1.801104	1.588895	1.044912
C136	C	1.134476	1.173436	0.378237
C137	C	1.467809	1.506770	0.711571
C138	C	1.801143	1.840103	1.044904
C139	C	1.134501	1.086187	0.378285
C140	C	1.467834	1.419520	0.711619
C141	C	1.801167	1.752853	1.044952
C142	C	1.134378	0.378182	0.174239
C143	C	1.467711	0.711515	0.507572
C144	C	1.801044	1.044848	0.840906
C145	C	1.134509	0.377985	0.086990
C146	C	1.467843	0.711319	0.420323
C147	C	1.801176	1.044652	0.753656
C148	C	1.184680	0.327894	0.711187
C149	C	1.518014	0.661227	1.044520
C150	C	1.851347	0.994561	1.377854
C151	C	1.184690	0.327868	0.793167
C152	C	1.518023	0.661201	1.126501
C153	C	1.851356	0.994534	1.459834
C154	C	1.134470	0.378051	0.834141
C155	C	1.467803	0.711384	1.167474
C156	C	1.801136	1.044717	1.500807
C157	C	1.084231	0.428257	0.793129
C158	C	1.417565	0.761590	1.126463
C159	C	1.750898	1.094924	1.459796
C160	C	1.084219	0.428279	0.711150
C161	C	1.417552	0.761612	1.044484
C162	C	1.750885	1.094945	1.377817
C163	C	1.084263	0.428210	0.963999
C164	C	1.417596	0.761543	1.297333
C165	C	1.750930	1.094877	1.630666
C166	C	1.084277	0.428190	1.045984
C167	C	1.417610	0.761523	1.379317
C168	C	1.750943	1.094856	1.712651
C169	C	1.184734	0.327799	1.046017
C170	C	1.518067	0.661132	1.379350
C171	C	1.851401	0.994466	1.712683
C172	C	1.184721	0.327821	0.964038
C173	C	1.518055	0.661154	1.297371
C174	C	1.851388	0.994487	1.630704
C175	C	1.134484	0.378028	0.923032
C176	C	1.467817	0.711362	1.256365
C177	C	1.801150	1.044695	1.589698
H178	H	0.433925	0.469173	0.286974
H179	H	0.767258	0.802507	0.620308
H180	H	1.100592	1.135840	0.953641
Cl181	Cl	1.247822	0.264807	0.659686
Cl182	Cl	1.581155	0.598140	0.993019
Cl183	Cl	1.914488	0.931474	1.326352
Cl184	Cl	1.021122	1.096739	0.491489
Cl185	Cl	1.354456	1.430072	0.824822
Cl186	Cl	1.687789	1.763405	1.158156
H187	H	1.043213	0.677001	0.469190
H188	H	1.376546	1.010334	0.802523
H189	H	1.709879	1.343668	1.135857
H190	H	0.686771	0.469137	0.286946
H191	H	1.020104	0.802470	0.620280
H192	H	1.353437	1.135803	0.953613
H193	H	0.582780	0.287236	0.469447
H194	H	0.916114	0.620569	0.802781
H195	H	1.249447	0.953903	1.136114
H196	H	1.043306	0.469152	0.677764
H197	H	1.376639	0.802486	1.011098
H198	H	1.709973	1.135819	1.344431
H199	H	1.043342	0.469082	0.930615
H200	H	1.376675	0.802416	1.263948
H201	H	1.710009	1.135749	1.597282
Cl202	Cl	0.600793	0.491366	0.264686
Cl203	Cl	0.934126	0.824699	0.598020
Cl204	Cl	1.267460	1.158032	0.931353
Cl205	Cl	1.021057	0.911697	0.491461
Cl206	Cl	1.354391	1.245030	0.824794
Cl207	Cl	1.687724	1.578363	1.158127
Cl208	Cl	1.247877	0.264785	0.844714
Cl209	Cl	1.581211	0.598119	1.178047
Cl210	Cl	1.914544	0.931452	1.511381
H211	H	1.043277	0.825733	0.469224
H212	H	1.376610	1.159066	0.802558
H213	H	1.709944	1.492400	1.135891
H214	H	0.835503	0.469127	0.286932
H215	H	1.168836	0.802460	0.620266
H216	H	1.502169	1.135794	0.953599
H217	H	1.043381	0.469051	1.079342
H218	H	1.376715	0.802384	1.412676
H219	H	1.710048	1.135718	1.746009
Cl220	Cl	1.247861	0.264737	0.912529
Cl221	Cl	1.581194	0.598071	1.245862
Cl222	Cl	1.914527	0.931404	1.579196
Cl223	Cl	1.247704	0.658834	0.264960
Cl224	Cl	1.581037	0.992167	0.598293
Cl225	Cl	1.914370	1.325500	0.931627
H226	H	1.225530	0.825708	0.287224
H227	H	1.558863	1.159042	0.620557
H228	H	1.892197	1.492375	0.953890
H229	H	1.225633	1.078565	0.287283
H230	H	1.558966	1.411898	0.620616
H231	H	1.892300	1.745231	0.953950
Cl232	Cl	1.247810	0.911677	0.265028
Cl233	Cl	1.581144	1.245010	0.598362
Cl234	Cl	1.914477	1.578344	0.931695
Cl235	Cl	1.247891	0.264682	1.097566
Cl236	Cl	1.581224	0.598015	1.430899
Cl237	Cl	1.914557	0.931348	1.764233
H238	H	1.043339	0.469114	0.826496
H239	H	1.376672	0.802447	1.159829
H240	H	1.710005	1.135781	1.493163
Cl241	Cl	0.853797	0.265003	0.491696
Cl242	Cl	1.187131	0.598337	0.825029
Cl243	Cl	1.520464	0.931670	1.158363
H244	H	0.686909	0.287222	0.469431
H245	H	1.020242	0.620556	0.802764
H246	H	1.353576	0.953889	1.136098
Cl247	Cl	0.415917	0.265042	0.491731
Cl248	Cl	0.749251	0.598375	0.825065
Cl249	Cl	1.082584	0.931708	1.158398
