data_functionalizedCrystal
_audit_creation_method	'MofGen! by Chris Wilmer'
_symmetry_space_group_name_H-M	'P1'
_symmetry_Int_Tables_number	1
_symmetry_cell_setting	triclinic
loop_
_symmetry_equiv_pos_as_xyz
  x,y,z
_cell_length_a	10.654550
_cell_length_b	15.995350
_cell_length_c	9.130313
_cell_angle_alpha	90.000982
_cell_angle_beta	89.996220
_cell_angle_gamma	83.988639
loop_
_atom_site_label
_atom_site_type_symbol
_atom_site_fract_x
_atom_site_fract_y
_atom_site_fract_z
O1	O	1.666298	0.117599	-0.121912
O2	O	1.300673	0.128803	-0.121888
O3	O	1.493480	0.001371	-0.121899
O4	O	1.473491	0.245030	-0.121900
O5	O	1.493478	0.001375	0.121700
O6	O	1.300671	0.128807	0.121711
O7	O	1.666295	0.117602	0.121687
Cu8	Cu	1.483483	0.123205	0.143942
Cu9	Cu	1.483486	0.123201	-0.144142
O10	O	1.473488	0.245034	0.121698
C11	C	1.253885	0.127982	-0.000085
C12	C	1.114473	0.125521	-0.000076
C13	C	1.034008	0.200551	-0.000098
C14	C	0.903017	0.198233	-0.000123
C15	C	0.932971	0.045849	-0.000111
C16	C	1.063959	0.048168	-0.000075
C17	C	1.016713	0.288528	-0.000111
C18	C	0.885722	0.286211	-0.000137
C19	C	1.492652	-0.029827	-0.000102
C20	C	1.490175	-0.122791	-0.000110
C21	C	1.481278	-0.460591	-0.000105
C22	C	1.343964	-0.413954	-0.000642
C23	C	1.346442	-0.317249	-0.000093
C24	C	1.485691	-0.293004	-0.000108
C25	C	1.553417	-0.333687	0.138991
C26	C	1.549968	-0.430342	0.139108
C27	C	1.552807	-0.430688	-0.137910
C28	C	1.552775	-0.333743	-0.139748
C29	C	1.488192	-0.198292	-0.000106
C30	C	1.478780	-0.555303	-0.000098
C31	C	1.713084	0.118423	-0.000119
C32	C	1.852495	0.120884	-0.000137
C33	C	1.474316	0.276232	-0.000101
C34	C	1.476793	0.369197	-0.000103
N35	N	1.483490	0.123207	0.346564
N36	N	1.483488	0.123192	-0.346765
C37	C	1.568887	0.066800	0.423211
C38	C	1.568883	0.066789	0.576548
C39	C	1.398083	0.179602	0.576578
C40	C	1.398081	0.179607	0.423244
C41	C	1.667501	0.001671	0.423195
C42	C	1.667497	0.001661	0.576532
H43	H	1.129471	-0.012929	-0.000037
H44	H	1.758418	0.022063	0.375631
H45	H	1.328544	0.225521	0.639026
C46	C	1.274514	-0.279264	-0.134788
C47	C	1.262678	-0.183629	-0.160666
C48	C	1.190741	-0.145649	-0.295362
C49	C	1.130640	-0.203303	-0.404180
C50	C	1.142475	-0.298945	-0.378305
C51	C	1.214411	-0.336925	-0.243609
H52	H	1.307169	-0.140944	-0.080109
H53	H	1.181980	-0.074848	-0.314515
H54	H	1.077388	-0.175188	-0.503890
H55	H	1.097983	-0.341629	-0.458862
H56	H	1.223172	-0.407725	-0.224456
C57	C	1.304136	0.241649	0.338925
C58	C	1.210255	0.303729	0.423266
C59	C	1.116307	0.365773	0.338945
C60	C	1.116239	0.365735	0.170284
C61	C	1.210123	0.303652	0.085934
C62	C	1.304072	0.241609	0.170254
H63	H	1.210303	0.303759	0.548128
H64	H	1.046807	0.411730	0.401388
H65	H	1.046692	0.411663	0.107865
H66	H	1.210076	0.303623	-0.038928
H67	H	1.373571	0.195651	0.107812
C68	C	0.828745	0.330979	-0.137868
C69	C	0.755167	0.282481	-0.248894
C70	C	0.698188	0.327246	-0.386620
C71	C	0.714787	0.420509	-0.413321
C72	C	0.788368	0.469013	-0.302292
C73	C	0.845346	0.424248	-0.164566
H74	H	0.742877	0.213437	-0.229132
H75	H	0.643719	0.291339	-0.468811
H76	H	0.672608	0.453647	-0.515274
H77	H	0.800658	0.538057	-0.322054
H78	H	0.899816	0.460155	-0.082375
H79	H	1.646899	-0.062686	0.381577
H80	H	0.891826	-0.017130	-0.000133
C81	C	1.492164	-0.458783	-0.280346
C82	C	1.485710	-0.552948	-0.310610
C83	C	1.425052	-0.581043	-0.453037
C84	C	1.370847	-0.514973	-0.565199
C85	C	1.377299	-0.420803	-0.534938
C86	C	1.437957	-0.392708	-0.392511
H87	H	1.525837	-0.601862	-0.227578
H88	H	1.420276	-0.650754	-0.475438
H89	H	1.325945	-0.535771	-0.670632
H90	H	1.337172	-0.371888	-0.617970
H91	H	1.442733	-0.322996	-0.370110
H92	H	0.839702	0.312800	0.105032
H93	H	1.763822	0.016007	0.618142
C94	C	1.691621	-0.313801	0.145984
C95	C	1.744715	-0.260263	0.025177
C96	C	1.882917	-0.240376	0.032166
C97	C	1.968026	-0.274026	0.159962
C98	C	1.914933	-0.327568	0.280778
C99	C	1.776730	-0.347455	0.273789
H100	H	1.681711	-0.235350	-0.069434
H101	H	1.922220	-0.200741	-0.057270
H102	H	2.070332	-0.259305	0.165136
H103	H	1.977937	-0.352481	0.375389
H104	H	1.737428	-0.387090	0.363226
C105	C	1.064394	0.326375	-0.142185
C106	C	1.042274	0.284726	-0.290717
C107	C	1.089955	0.322569	-0.432794
C108	C	1.159755	0.402063	-0.426339
C109	C	1.181878	0.443717	-0.277801
C110	C	1.134198	0.405873	-0.135724
H111	H	0.990601	0.225876	-0.295500
H112	H	1.073577	0.291734	-0.542752
H113	H	1.195051	0.430077	-0.531513
H114	H	1.233552	0.502567	-0.273018
H115	H	1.150575	0.436709	-0.025767
H116	H	1.289082	-0.432806	-0.100393
C117	C	1.270145	-0.440844	0.133376
C118	C	1.318274	-0.425348	0.289052
C119	C	1.244461	-0.452241	0.423072
C120	C	1.122518	-0.494630	0.401416
C121	C	1.074382	-0.510127	0.245734
C122	C	1.148195	-0.483234	0.111714
H123	H	1.408550	-0.393968	0.305088
H124	H	1.280095	-0.440768	0.538318
H125	H	1.067877	-0.514537	0.500626
H126	H	0.984107	-0.541508	0.229697
H127	H	1.112561	-0.494707	-0.003533
C128	C	1.489867	-0.295723	0.278853
C129	C	1.566868	-0.249520	0.389743
C130	C	1.503309	-0.211557	0.529600
C131	C	1.362750	-0.219797	0.558566
C132	C	1.285742	-0.266002	0.447672
C133	C	1.349300	-0.303965	0.307815
H134	H	1.670925	-0.243418	0.368304
H135	H	1.560317	-0.177354	0.611691
H136	H	1.315700	-0.191695	0.662096
H137	H	1.181684	-0.272104	0.469111
H138	H	1.292293	-0.338168	0.225724
H139	H	1.045593	0.322938	0.101840
C140	C	1.689959	-0.312194	-0.151115
C141	C	1.784736	-0.338610	-0.028060
C142	C	1.921925	-0.317060	-0.039411
C143	C	1.964336	-0.269093	-0.173818
C144	C	1.869556	-0.242674	-0.296883
C145	C	1.732367	-0.264224	-0.285531
H146	H	1.753343	-0.374120	0.071445
H147	H	1.992087	-0.336617	0.051690
H148	H	2.065892	-0.253140	-0.182222
H149	H	1.900950	-0.207164	-0.396388
H150	H	1.662205	-0.244667	-0.376633
H151	H	1.654048	-0.461861	-0.138855
H152	H	1.292844	-0.289694	0.099796
H153	H	1.500580	-0.448929	0.243098
H154	H	1.637779	-0.059156	0.624082
H155	H	1.650782	-0.462005	0.145409
H156	H	1.503258	-0.306783	-0.242650
