data_functionalizedCrystal
_audit_creation_method	'MofGen! by Chris Wilmer'
_symmetry_space_group_name_H-M	'P1'
_symmetry_Int_Tables_number	1
_symmetry_cell_setting	triclinic
loop_
_symmetry_equiv_pos_as_xyz
  x,y,z
_cell_length_a	17.038272
_cell_length_b	9.065218
_cell_length_c	8.140239
_cell_angle_alpha	89.989394
_cell_angle_beta	89.995864
_cell_angle_gamma	91.936245
loop_
_atom_site_label
_atom_site_type_symbol
_atom_site_fract_x
_atom_site_fract_y
_atom_site_fract_z
O1	O	1.039679	-0.320647	0.136455
O2	O	1.539679	0.179353	0.636455
O3	O	0.812011	-0.315556	0.136502
O4	O	1.312011	0.184444	0.636502
O5	O	0.930551	-0.103931	0.136435
O6	O	1.430551	0.396069	0.636435
O7	O	0.921139	-0.532272	0.136521
O8	O	1.421139	-0.032272	0.636521
O9	O	0.930547	-0.103929	-0.136792
O10	O	1.430547	0.396071	0.363208
O11	O	0.812007	-0.315554	-0.136725
O12	O	1.312007	0.184446	0.363275
O13	O	1.039675	-0.320645	-0.136772
O14	O	1.539675	0.179355	0.363228
Zn15	Zn	0.925841	-0.318099	-0.180129
Zn16	Zn	1.425841	0.181901	0.319871
Zn17	Zn	0.925846	-0.318102	0.179859
Zn18	Zn	1.425846	0.181898	0.679859
O19	O	0.921135	-0.532270	-0.136706
O20	O	1.421135	-0.032270	0.363294
C21	C	0.782848	-0.310924	-0.000106
C22	C	1.282848	0.189076	0.499894
C23	C	0.695955	-0.297108	-0.000090
C24	C	1.195955	0.202892	0.499910
C25	C	0.646757	-0.423956	-0.000066
C26	C	1.146757	0.076044	0.499934
C27	C	0.565112	-0.410965	-0.000091
C28	C	1.065112	0.089035	0.499909
C29	C	0.532668	-0.271125	-0.000129
C30	C	1.032668	0.228875	0.499871
C31	C	0.581873	-0.144268	-0.000158
C32	C	1.081873	0.355732	0.499842
C33	C	0.663515	-0.157260	-0.000144
C34	C	1.163515	0.342740	0.499856
C35	C	0.286579	-0.225228	-0.000182
C36	C	0.786579	0.274772	0.499818
C37	C	0.204929	-0.212245	-0.000190
C38	C	0.704929	0.287755	0.499810
C39	C	0.188175	-0.478944	-0.000127
C40	C	0.688175	0.021056	0.499873
C41	C	0.269820	-0.491923	-0.000103
C42	C	0.769820	0.008077	0.499897
C43	C	0.319018	-0.365066	-0.000141
C44	C	0.819018	0.134934	0.499859
C45	C	0.449215	-0.257844	-0.000149
C46	C	0.949215	0.242156	0.499851
C47	C	0.402469	-0.378349	-0.000132
C48	C	0.902469	0.121651	0.499868
C49	C	0.929644	-0.048853	-0.000185
C50	C	1.429644	0.451147	0.499815
C51	C	0.926940	0.115262	-0.000206
C52	C	1.426940	0.615262	0.499794
C53	C	1.068839	-0.325277	-0.000161
C54	C	1.568839	0.174723	0.499839
C55	C	1.155731	-0.339093	-0.000166
C56	C	1.655731	0.160907	0.499834
N57	N	0.925843	-0.318097	-0.425812
N58	N	1.425843	0.181903	0.074188
C59	C	0.922042	0.412652	-0.000127
C60	C	1.422042	0.912652	0.499873
C61	C	0.924746	0.248538	-0.000230
C62	C	1.424746	0.748538	0.499770
N63	N	0.925850	-0.318093	0.425542
N64	N	1.425850	0.181907	0.925542
H65	H	0.525058	-0.514259	-0.000069
H66	H	1.025058	-0.014259	0.499931
H67	H	0.296230	-0.605795	-0.000053
H68	H	0.796230	-0.105795	0.499947
H69	H	0.148110	-0.582223	-0.000099
H70	H	0.648110	-0.082223	0.499901
O71	O	0.173541	-0.076284	-0.000299
O72	O	0.673541	0.423716	0.499701
C73	C	0.234470	0.032900	-0.000285
C74	C	0.734470	0.532900	0.499715
H75	H	0.290215	-0.015444	-0.052007
H76	H	0.790215	0.484556	0.447993
H77	H	0.216738	0.129912	-0.079629
H78	H	0.716738	0.629912	0.420371
H79	H	0.245725	0.072521	0.130787
H80	H	0.745725	0.572521	0.630787
H81	H	0.555450	-0.030407	-0.000212
H82	H	1.055450	0.469593	0.499788
O83	O	0.334439	-0.102106	0.000021
O84	O	0.834439	0.397894	0.500021
C85	C	0.382143	-0.101617	0.141555
C86	C	0.882143	0.398383	0.641555
H87	H	0.387105	-0.219340	0.188750
H88	H	0.887105	0.280660	0.688750
H89	H	0.443100	-0.054298	0.109730
H90	H	0.943100	0.445702	0.609730
H91	H	0.354801	-0.030819	0.240629
H92	H	0.854801	0.469181	0.740629
O93	O	0.711197	-0.033889	-0.000086
O94	O	1.211197	0.466111	0.499914
C95	C	0.665056	0.092324	-0.000159
C96	C	1.165056	0.592324	0.499841
H97	H	0.604398	0.062494	0.051568
H98	H	1.104398	0.562494	0.551568
H99	H	0.694501	0.181832	0.079151
H100	H	1.194501	0.681832	0.579151
H101	H	0.658958	0.134707	-0.131250
H102	H	1.158958	0.634707	0.368750
O103	O	0.433946	-0.514217	-0.000382
O104	O	0.933946	-0.014217	0.499618
C105	C	0.408896	-0.592199	-0.141844
C106	C	0.908896	-0.092199	0.358156
H107	H	0.391355	-0.510622	-0.240780
H108	H	0.891355	-0.010622	0.259220
H109	H	0.458795	-0.661221	-0.189313
H110	H	0.958795	-0.161221	0.310687
H111	H	0.356285	-0.667814	-0.109831
H112	H	0.856285	-0.167814	0.390169
O113	O	0.678141	-0.559910	-0.000100
O114	O	1.178141	-0.059910	0.499900
C115	C	0.617205	-0.669082	-0.000045
C116	C	1.117205	-0.169082	0.499955
H117	H	0.561468	-0.620726	-0.051791
H118	H	1.061468	-0.120726	0.448209
H119	H	0.634938	-0.766098	-0.079347
H120	H	1.134938	-0.266098	0.420653
H121	H	0.605936	-0.708701	0.131043
H122	H	1.105936	-0.208701	0.631043
O123	O	0.417735	-0.121972	-0.000458
O124	O	0.917735	0.378028	0.499542
C125	C	0.442806	-0.043994	-0.141947
C126	C	0.942806	0.456006	0.358053
H127	H	0.460357	-0.125576	-0.240842
H128	H	0.960357	0.374424	0.259158
H129	H	0.392916	0.025032	-0.189460
H130	H	0.892916	0.525032	0.310540
H131	H	0.495416	0.031615	-0.109954
H132	H	0.995416	0.531615	0.390046
