data_functionalizedCrystal
_audit_creation_method	'MofGen! by Chris Wilmer'
_symmetry_space_group_name_H-M	'P1'
_symmetry_Int_Tables_number	1
_symmetry_cell_setting	triclinic
loop_
_symmetry_equiv_pos_as_xyz
  x,y,z
_cell_length_a	16.109301
_cell_length_b	10.540539
_cell_length_c	15.186229
_cell_angle_alpha	89.998389
_cell_angle_beta	89.999362
_cell_angle_gamma	83.993486
loop_
_atom_site_label
_atom_site_type_symbol
_atom_site_fract_x
_atom_site_fract_y
_atom_site_fract_z
O1	O	1.104128	0.163159	-0.073169
O2	O	0.862191	0.183464	-0.073182
O3	O	0.988679	-0.011474	-0.073174
O4	O	0.977640	0.358096	-0.073177
O5	O	0.988671	-0.011477	0.073283
O6	O	0.862182	0.183461	0.073275
O7	O	1.104120	0.163156	0.073289
Zn8	Zn	0.983150	0.173308	0.096535
Zn9	Zn	0.983161	0.173312	-0.096429
O10	O	0.977631	0.358094	0.073280
C11	C	0.831206	0.182640	0.000045
C12	C	0.738896	0.180174	0.000039
C13	C	0.517296	0.290112	0.000049
C14	C	0.430561	0.287785	0.000054
C15	C	0.449021	0.056499	0.000053
C16	C	0.535754	0.058827	0.000053
C17	C	0.569889	0.175637	0.000047
C18	C	0.396421	0.170982	0.000052
C19	C	0.302380	0.168459	0.000058
C20	C	0.663936	0.178162	0.000042
C21	C	0.987847	-0.058767	0.000053
C22	C	0.985370	-0.199679	0.000048
C23	C	0.890460	-0.381753	-0.000286
C24	C	0.892971	-0.235171	0.000044
C25	C	1.029832	-0.261972	0.083685
C26	C	1.026678	-0.408472	0.083755
C27	C	1.028567	-0.409014	-0.082794
C28	C	1.029418	-0.262044	-0.083900
C29	C	1.135104	0.163980	0.000060
C30	C	1.227414	0.166446	0.000059
C31	C	0.978463	0.405386	0.000052
C32	C	0.980940	0.546299	0.000051
N33	N	0.983148	0.173305	0.228228
N34	N	0.983169	0.173305	-0.228121
C35	C	1.039177	0.087015	0.453954
C36	C	1.039179	0.087012	0.546144
C37	C	0.927134	0.259598	0.546146
C38	C	0.927128	0.259594	0.453958
C39	C	0.983154	0.173304	0.407864
C40	C	0.983163	0.173305	0.592242
C41	C	0.983165	0.173303	0.692198
C42	C	0.983151	0.173305	0.307902
H43	H	0.857986	-0.192068	-0.059910
Br44	Br	1.115209	-0.030094	0.391402
H45	H	0.881521	0.329855	0.583684
H46	H	1.097687	-0.240586	0.086798
Br47	Br	1.141700	-0.223267	-0.092321
H48	H	0.881504	0.329861	0.416429
Br49	Br	0.359187	0.443151	0.000061
Br50	Br	0.402690	-0.102022	0.000058
Br51	Br	1.139803	-0.489311	-0.083728
H52	H	0.998939	-0.218934	0.145921
Br53	Br	1.137431	-0.490009	0.090096
Br54	Br	0.607137	-0.096544	0.000062
H55	H	0.857734	-0.192914	0.060094
Br56	Br	0.829625	-0.428545	-0.100255
Br57	Br	0.563619	0.448640	0.000043
Br58	Br	0.829688	-0.431843	0.098810
H59	H	0.993812	-0.436204	0.146272
Br60	Br	0.978722	-0.460872	-0.188452
Br61	Br	0.975660	-0.192351	-0.187043
H62	H	1.084796	0.016747	0.583668
