data_functionalizedCrystal
_audit_creation_method	'MofGen! by Chris Wilmer'
_symmetry_space_group_name_H-M	'P1'
_symmetry_Int_Tables_number	1
_symmetry_cell_setting	triclinic
loop_
_symmetry_equiv_pos_as_xyz
  x,y,z
_cell_length_a	16.109302
_cell_length_b	10.654551
_cell_length_c	15.186229
_cell_angle_alpha	90.009117
_cell_angle_beta	90.009858
_cell_angle_gamma	83.973571
loop_
_atom_site_label
_atom_site_type_symbol
_atom_site_fract_x
_atom_site_fract_y
_atom_site_fract_z
O1	O	1.104095	0.161437	0.073263
O2	O	0.862153	0.181525	0.073255
O3	O	0.988686	-0.011333	0.073259
O4	O	0.977561	0.354296	0.073258
O5	O	0.988668	-0.011365	-0.073198
O6	O	0.862135	0.181494	-0.073202
O7	O	1.104077	0.161406	-0.073195
Zn8	Zn	0.983103	0.171445	-0.096452
Zn9	Zn	0.983126	0.171486	0.096512
O10	O	0.977544	0.354265	-0.073199
C11	C	0.831164	0.180695	0.000025
C12	C	0.738854	0.178255	0.000023
C13	C	0.526470	0.172597	-0.079802
C14	C	0.439736	0.170290	-0.079799
C15	C	0.439766	0.170331	0.079877
C16	C	0.526499	0.172628	0.079873
C17	C	0.569848	0.173767	0.000031
C18	C	0.396382	0.169164	0.000038
C19	C	0.302341	0.166664	0.000042
C20	C	0.663895	0.176265	0.000026
C21	C	0.987860	-0.058136	0.000033
C22	C	0.985416	-0.197546	0.000039
C23	C	0.984279	-0.263025	0.079871
C24	C	0.981975	-0.394015	0.079867
C25	C	0.981949	-0.394034	-0.079809
C26	C	0.984247	-0.263046	-0.079804
C27	C	0.985448	-0.197525	0.159713
C28	C	0.984312	-0.263005	0.239552
C29	C	0.982008	-0.393994	0.239548
C30	C	0.980840	-0.459504	0.159705
C31	C	1.135066	0.162236	0.000037
C32	C	1.227376	0.164676	0.000045
C33	C	0.978370	0.401067	0.000030
C34	C	0.980814	0.540477	0.000029
N35	N	0.983094	0.171416	-0.228144
C36	C	0.932260	0.095284	-0.546098
C37	C	0.932253	0.095265	-0.453908
C38	C	1.033982	0.247641	-0.453848
C39	C	1.033993	0.247651	-0.546036
C40	C	0.983127	0.171475	-0.592159
C41	C	0.983109	0.171446	-0.407781
C42	C	0.983102	0.171427	-0.307825
C43	C	0.983136	0.171492	-0.692121
N44	N	0.983143	0.171505	0.228205
H45	H	0.561819	0.173578	0.144886
H46	H	0.987326	-0.090868	0.159726
F47	F	0.878126	0.014206	-0.595182
F48	F	1.088112	0.328712	-0.404754
F49	F	0.393574	0.169046	-0.164768
H50	H	0.404460	0.169405	0.144881
F51	F	1.088139	0.328744	-0.595060
H52	H	0.561763	0.173524	-0.144815
F53	F	0.878109	0.014177	-0.404891
H54	H	0.981074	-0.447303	0.304557
F55	F	0.985552	-0.193284	0.324522
F56	F	0.978380	-0.598914	0.159705
H57	H	0.980999	-0.447382	-0.144813
H58	H	0.985155	-0.209728	-0.144810
