data_functionalizedCrystal
_audit_creation_method	'MofGen! by Chris Wilmer'
_symmetry_space_group_name_H-M	'P1'
_symmetry_Int_Tables_number	1
_symmetry_cell_setting	triclinic
loop_
_symmetry_equiv_pos_as_xyz
  x,y,z
_cell_length_a	15.944551
_cell_length_b	15.944551
_cell_length_c	15.021413
_cell_angle_alpha	90.003065
_cell_angle_beta	89.997174
_cell_angle_gamma	83.498738
loop_
_atom_site_label
_atom_site_type_symbol
_atom_site_fract_x
_atom_site_fract_y
_atom_site_fract_z
O1	O	1.114529	0.108321	-0.073941
O2	O	0.869979	0.121677	-0.073964
O3	O	0.998932	-0.007276	-0.073944
O4	O	0.985576	0.237274	-0.073961
O5	O	0.998912	-0.007257	0.074121
O6	O	0.869959	0.121695	0.074101
O7	O	1.114508	0.108339	0.074123
Zn8	Zn	0.992230	0.115020	0.097620
Zn9	Zn	0.992257	0.114996	-0.097461
O10	O	0.985555	0.237292	0.074103
C11	C	0.838675	0.121132	0.000066
C12	C	0.745429	0.119470	0.000057
C13	C	0.530572	0.035565	0.000081
C14	C	0.469562	0.074518	-0.072926
C15	C	0.574703	0.116462	0.000068
C16	C	0.469564	0.074556	0.073054
C17	C	0.409790	0.113551	0.000083
C18	C	0.514921	0.155438	-0.072998
C19	C	0.514930	0.155464	0.073047
C20	C	0.453937	0.194476	0.000023
C21	C	0.669705	0.118137	0.000059
C22	C	0.314789	0.111883	0.000085
C23	C	0.998367	-0.038561	0.000089
C24	C	0.996705	-0.131807	0.000089
C25	C	0.912801	-0.346663	0.000069
C26	C	0.951753	-0.407672	0.073077
C27	C	0.993698	-0.302533	0.000082
C28	C	0.951792	-0.407673	-0.072903
C29	C	0.990787	-0.467445	0.000071
C30	C	1.032672	-0.362313	0.073150
C31	C	1.032700	-0.362308	-0.072895
C32	C	1.071711	-0.423298	0.000131
C33	C	0.995372	-0.207530	0.000089
C34	C	0.989119	-0.562446	0.000070
C35	C	1.145813	0.108885	0.000092
C36	C	1.239059	0.110547	0.000094
C37	C	0.986120	0.268577	0.000069
C38	C	0.987782	0.361823	0.000063
N39	N	0.992218	0.115036	0.230758
N40	N	0.992276	0.114973	-0.230598
C41	C	0.932581	0.174636	0.470432
C42	C	1.008481	0.190943	0.529772
C43	C	0.992239	0.115015	0.412365
C44	C	0.916360	0.098727	0.529766
C45	C	0.992253	0.114997	0.587789
C46	C	1.068178	0.131360	0.470398
C47	C	0.976006	0.039111	0.470387
C48	C	1.051962	0.055386	0.529701
C49	C	0.992230	0.115028	0.311307
C50	C	0.992271	0.114984	0.688844
H51	H	0.449470	0.040332	0.134773
H52	H	0.845652	-0.313356	0.000136
O53	O	1.073505	-0.338153	-0.146455
C54	C	1.075142	-0.249937	-0.144990
H55	H	1.067616	-0.226158	-0.073545
H56	H	1.021229	-0.218378	-0.187378
C57	C	1.169165	-0.257530	-0.270393
C58	C	1.159930	-0.228326	-0.182641
H59	H	1.221464	-0.244197	-0.293621
H60	H	1.168061	-0.316963	-0.271382
H61	H	1.124233	-0.231228	-0.305705
H62	H	1.204856	-0.254635	-0.147329
H63	H	1.161044	-0.168896	-0.181647
H64	H	0.917574	-0.427758	-0.134630
H65	H	1.102474	0.004956	0.555561
O66	O	1.151836	-0.462986	0.000119
C67	C	1.149419	-0.551105	-0.000601
H68	H	1.086458	-0.565911	-0.029030
H69	H	1.156733	-0.576490	0.070257
C70	C	1.299278	-0.574885	-0.023785
C71	C	1.221951	-0.593070	-0.058709
H72	H	1.344020	-0.600773	-0.059625
H73	H	1.300907	-0.515518	-0.023297
H74	H	1.305361	-0.596040	0.035262
H75	H	1.215864	-0.571907	-0.117751
H76	H	1.220322	-0.652435	-0.059209
H77	H	0.534918	0.189621	-0.134787
H78	H	0.962240	-0.025051	0.444283
H79	H	1.066851	-0.342314	0.134941
O80	O	0.539063	0.196145	0.146698
C81	C	0.596156	0.140904	0.196732
H82	H	0.627418	0.089092	0.151484
H83	H	0.560686	0.111315	0.252304
C84	C	0.625809	0.254156	0.293013
C85	C	0.664211	0.190524	0.237437
H86	H	0.667786	0.284764	0.318126
H87	H	0.587342	0.291374	0.259307
H88	H	0.596252	0.229489	0.339316
H89	H	0.693757	0.215193	0.191129
H90	H	0.702684	0.153312	0.271136
O91	O	0.910792	-0.431601	0.146638
C92	C	0.827049	-0.392181	0.146385
H93	H	0.807564	-0.373943	0.075341
H94	H	0.822642	-0.333099	0.189650
C95	C	0.791776	-0.475967	0.270890
C96	C	0.767842	-0.453574	0.183632
H97	H	0.755254	-0.513835	0.293869
H98	H	0.848196	-0.502524	0.271064
H99	H	0.788103	-0.426726	0.306934
H100	H	0.771525	-0.502813	0.147588
H101	H	0.711421	-0.427027	0.183453
O102	O	0.872545	0.234940	0.439417
C103	C	0.889983	0.314854	0.469696
H104	H	0.959967	0.312487	0.486336
H105	H	0.850946	0.332844	0.531808
C106	C	0.781270	0.383947	0.375952
C107	C	0.867228	0.381043	0.396382
H108	H	0.767231	0.424778	0.330731
H109	H	0.769519	0.330108	0.355554
H110	H	0.748750	0.398937	0.427718
H111	H	0.899747	0.366044	0.344619
H112	H	0.878984	0.434882	0.416769
H113	H	0.852184	0.084959	0.555847
H114	H	1.022224	0.255126	0.555856
H115	H	0.420779	0.261683	-0.000023
O116	O	1.144679	0.147962	0.439277
C117	C	1.143733	0.147815	0.345421
H118	H	1.075865	0.160959	0.320875
H119	H	1.172471	0.083550	0.319972
C120	C	1.278915	0.200570	0.340583
C121	C	1.195559	0.216720	0.310434
H122	H	1.310887	0.243070	0.319000
H123	H	1.279555	0.200666	0.403815
H124	H	1.302852	0.147013	0.319373
H125	H	1.171620	0.270271	0.331653
H126	H	1.194917	0.216635	0.247204
H127	H	0.449461	0.040295	-0.134642
O128	O	0.570282	-0.044551	-0.000157
C129	C	0.547295	-0.086906	-0.077263
H130	H	0.525302	-0.038693	-0.130794
H131	H	0.493910	-0.126167	-0.060603
C132	C	0.651020	-0.204481	-0.045934
C133	C	0.624015	-0.145265	-0.111685
H134	H	0.698342	-0.240483	-0.067166
H135	H	0.666505	-0.175948	0.006015
H136	H	0.606526	-0.237190	-0.032057
H137	H	0.668505	-0.112551	-0.125552
H138	H	0.608539	-0.173794	-0.163637
