data_functionalizedCrystal
_audit_creation_method	'MofGen! by Chris Wilmer'
_symmetry_space_group_name_H-M	'P1'
_symmetry_Int_Tables_number	1
_symmetry_cell_setting	triclinic
loop_
_symmetry_equiv_pos_as_xyz
  x,y,z
_cell_length_a	13.635800
_cell_length_b	27.692531
_cell_length_c	11.102300
_cell_angle_alpha	79.892240
_cell_angle_beta	108.605850
_cell_angle_gamma	95.110812
loop_
_atom_site_label
_atom_site_type_symbol
_atom_site_fract_x
_atom_site_fract_y
_atom_site_fract_z
V1	V	1.998160	-0.067127	0.397094
O2	O	2.038050	0.003226	0.388673
O3	O	1.929932	-0.133102	0.395206
O4	O	1.987437	-0.066095	0.569902
O5	O	1.980147	-0.064246	0.212768
V6	V	2.243933	-0.058712	0.374946
O7	O	2.119990	-0.085586	0.445676
O8	O	2.347201	-0.040253	0.326364
O9	O	2.200557	0.007263	0.376833
O10	O	2.262741	-0.129066	0.383367
O11	O	2.320644	-0.061594	0.559271
O12	O	2.143053	-0.059745	0.202138
V13	V	2.498160	-0.067127	0.397094
O14	O	2.538050	0.003226	0.388673
O15	O	2.429932	-0.133102	0.395206
O16	O	2.487437	-0.066095	0.569902
O17	O	2.480147	-0.064246	0.212768
V18	V	2.743933	-0.058712	0.374946
O19	O	2.619990	-0.085586	0.445676
O20	O	2.847201	-0.040253	0.326364
O21	O	2.700557	0.007263	0.376833
O22	O	2.762741	-0.129066	0.383367
O23	O	2.820644	-0.061594	0.559271
O24	O	2.643053	-0.059745	0.202138
C25	C	2.341286	-0.149186	0.389156
C26	C	2.326235	-0.203121	0.388764
C27	C	2.208836	-0.530644	0.269729
C28	C	2.152298	-0.733351	0.268190
O29	O	2.124501	-0.753671	0.168941
N30	N	2.169365	-0.765625	0.384471
C31	C	2.200576	-0.747220	0.501146
O32	O	2.213805	-0.779322	0.600016
C33	C	2.257120	-0.544513	0.502684
C34	C	2.240041	-0.512241	0.386395
C35	C	2.191760	-0.498372	0.153449
C36	C	2.205888	-0.447698	0.153835
C37	C	2.237093	-0.429296	0.270500
C38	C	2.254169	-0.461567	0.386780
C39	C	2.288337	-0.526109	0.619358
C40	C	2.302475	-0.475429	0.619733
C41	C	2.285395	-0.443157	0.503443
C42	C	2.299502	-0.392491	0.503832
N43	N	2.282435	-0.360217	0.387550
C44	C	2.251231	-0.378620	0.270885
C45	C	2.170885	-0.853643	0.500330
C46	C	2.156748	-0.904319	0.499946
C47	C	2.108473	-0.890447	0.266989
C48	C	2.122604	-0.839770	0.267374
C49	C	2.153818	-0.821369	0.384049
C50	C	2.280902	-0.272201	0.271703
C51	C	2.295030	-0.221524	0.272099
C52	C	2.343309	-0.235400	0.505055
C53	C	2.329177	-0.286073	0.504660
C54	C	2.297976	-0.304472	0.387974
O55	O	2.327309	-0.372137	0.603030
O56	O	2.238029	-0.346510	0.172031
C57	C	2.194708	-0.581318	0.269344
C58	C	2.211784	-0.613589	0.385624
C59	C	2.242989	-0.595187	0.502289
C60	C	2.197646	-0.664265	0.385239
C61	C	2.166441	-0.682668	0.268574
C62	C	2.149374	-0.650394	0.152292
C63	C	2.163503	-0.599720	0.152678
C64	C	2.260056	-0.627461	0.618571
C65	C	2.245924	-0.678134	0.618175
C66	C	2.214719	-0.696536	0.501510
C67	C	1.841286	-0.149186	0.389156
C68	C	1.826235	-0.203121	0.388764
C69	C	1.914638	-0.063710	0.611996
C70	C	1.946221	-0.063302	0.753273
C71	C	2.120873	0.023343	0.382881
C72	C	2.125543	0.077278	0.383280
C73	C	2.047521	-0.062131	0.160037
C74	C	2.005559	-0.062536	0.018759
C75	C	1.909061	-0.230924	0.394961
C76	C	1.894937	-0.281603	0.394613
C77	C	1.797984	-0.304479	0.388059
C78	C	1.715153	-0.276673	0.381865
C79	C	1.729279	-0.225995	0.382223
C80	C	2.050985	-0.065534	0.826149
C81	C	2.080655	-0.065149	0.958893
C82	C	1.900786	-0.060303	0.945872
C83	C	1.871118	-0.060684	0.813129
C84	C	2.414638	-0.063710	0.611996
C85	C	2.446221	-0.063302	0.753273
C86	C	2.620873	0.023343	0.382881
C87	C	2.625543	0.077278	0.383280
C88	C	2.547521	-0.062131	0.160037
C89	C	2.505559	-0.062536	0.018759
C90	C	2.715210	0.105081	0.377086
C91	C	2.719607	0.155760	0.377441
C92	C	2.634337	0.178635	0.383998
C93	C	2.544661	0.150830	0.390188
C94	C	2.540263	0.100152	0.389825
C95	C	2.550985	-0.065534	0.826149
C96	C	2.580655	-0.065149	0.958893
C97	C	2.400786	-0.060303	0.945872
C98	C	2.371118	-0.060684	0.813129
H99	H	2.281116	-0.195249	0.177397
C100	C	2.129552	-0.026875	0.666780
C101	C	2.133534	-0.068407	0.760348
H102	H	2.180513	-0.028650	0.626156
H103	H	2.142537	0.001794	0.706332
H104	H	2.062907	-0.025606	0.604383
H105	H	2.200177	-0.069673	0.822750
H106	H	2.120557	-0.097083	0.720795
H107	H	1.962393	-0.304236	0.399654
C108	C	2.857989	0.209076	0.480305
C109	C	2.818186	0.186317	0.370649
H110	H	2.918844	0.227941	0.476106
H111	H	2.874292	0.184773	0.554927
H112	H	2.807828	0.229954	0.484236
H113	H	2.868345	0.165436	0.366723
H114	H	2.801888	0.210623	0.296006
H115	H	1.988011	-0.212305	0.400291
C116	C	2.561094	0.256429	0.278158
C117	C	2.639184	0.234341	0.384404
H118	H	2.564098	0.290820	0.278409
H119	H	2.495494	0.243150	0.282792
H120	H	2.570745	0.250304	0.201215
H121	H	2.629529	0.240464	0.461347
H122	H	2.704800	0.247625	0.379780
H123	H	1.839644	-0.058173	0.994624
H124	H	2.339644	-0.058173	0.994624
C125	C	1.679876	-0.374398	0.380607
C126	C	1.782464	-0.360186	0.387666
H127	H	1.670304	-0.408790	0.380371
H128	H	1.634437	-0.357597	0.303826
H129	H	1.665322	-0.366454	0.452851
H130	H	1.797017	-0.368126	0.315416
H131	H	1.827918	-0.376993	0.464455
H132	H	2.255498	-0.287175	0.176686
H133	H	2.784652	0.086462	0.371748
C134	C	2.364963	0.168781	0.291341
C135	C	2.450941	0.175980	0.397404
H136	H	2.307110	0.184312	0.295801
H137	H	2.349500	0.134625	0.292017
H138	H	2.379966	0.182532	0.214274
H139	H	2.435941	0.162226	0.474471
H140	H	2.466405	0.210143	0.396740
H141	H	2.165961	-0.066966	1.018224
H142	H	2.467247	0.077518	0.394879
H143	H	1.636214	-0.295306	0.376529
H144	H	1.785805	-0.058863	0.753789
C145	C	2.687581	-0.111680	0.814023
C146	C	2.633538	-0.068407	0.760353
H147	H	2.738552	-0.113450	0.773410
H148	H	2.640623	-0.139167	0.801548
H149	H	2.720235	-0.111766	0.903510
H150	H	2.600878	-0.068322	0.670868
H151	H	2.680504	-0.040913	0.772818
C152	C	2.710773	-0.109432	1.133369
C153	C	2.695813	-0.067604	1.039004
H154	H	2.781869	-0.110944	1.182829
H155	H	2.690316	-0.137899	1.093278
H156	H	2.670289	-0.107813	1.188010
H157	H	2.736291	-0.069225	0.984357
H158	H	2.716282	-0.039130	1.079097
H159	H	2.191985	-0.421426	0.059140
C160	C	1.550146	-0.226221	0.369550
C161	C	1.638222	-0.195436	0.375388
H162	H	1.493927	-0.207356	0.365322
H163	H	1.563817	-0.250516	0.444188
H164	H	1.532953	-0.241663	0.295165
H165	H	1.655419	-0.179996	0.449778
H166	H	1.624549	-0.171132	0.300742
H167	H	2.108693	-0.813497	0.172681
C168	C	2.145450	-0.479557	-0.076770
C169	C	2.157449	-0.518593	0.025194
H170	H	2.124256	-0.492038	-0.155955
H171	H	2.209472	-0.461662	-0.067696
H172	H	2.094471	-0.458501	-0.075821
H173	H	2.208435	-0.539648	0.024251
H174	H	2.093419	-0.536496	0.016117
C175	C	2.065410	-0.961977	0.162985
C176	C	2.074197	-0.910682	0.138748
H177	H	2.044266	-0.974471	0.083819
H178	H	2.015493	-0.971550	0.206669
H179	H	2.130519	-0.974699	0.214888
H180	H	2.009086	-0.897960	0.086853
H181	H	2.124116	-0.901105	0.095045
H182	H	2.170641	-0.930591	0.594639
H183	H	2.196299	-0.838667	0.595345
H184	H	2.302250	-0.552377	0.714054
H185	H	2.327903	-0.460451	0.714746
H186	H	2.343068	-0.312350	0.599351
H187	H	2.149593	-0.573448	0.057983
C188	C	2.386415	-0.163870	0.609057
C189	C	2.377615	-0.215165	0.633290
H190	H	2.407606	-0.151379	0.688227
H191	H	2.321310	-0.151144	0.557200
H192	H	2.436313	-0.154301	0.565327
H193	H	2.327711	-0.224735	0.677013
H194	H	2.442729	-0.227896	0.685169
C195	C	2.106299	-0.721924	0.048290
C196	C	2.115084	-0.670629	0.024051
H197	H	2.085142	-0.734418	-0.030877
H198	H	2.056392	-0.731497	0.091989
H199	H	2.171411	-0.734646	0.100179
H200	H	2.049969	-0.657907	-0.027830
H201	H	2.164993	-0.661052	-0.019669
H202	H	2.285805	-0.058863	0.753789
H203	H	2.259828	-0.704407	0.712879
H204	H	2.285464	-0.612483	0.713576
