data_functionalizedCrystal
_audit_creation_method	'MofGen! by Chris Wilmer'
_symmetry_space_group_name_H-M	'P1'
_symmetry_Int_Tables_number	1
_symmetry_cell_setting	triclinic
loop_
_symmetry_equiv_pos_as_xyz
  x,y,z
_cell_length_a	23.532407
_cell_length_b	23.532407
_cell_length_c	15.186229
_cell_angle_alpha	89.991614
_cell_angle_beta	89.999328
_cell_angle_gamma	82.848712
loop_
_atom_site_label
_atom_site_type_symbol
_atom_site_fract_x
_atom_site_fract_y
_atom_site_fract_z
O1	O	0.755259	0.069135	-0.073182
O2	O	1.005259	0.319135	0.176818
O3	O	1.255259	0.569135	0.426818
O4	O	1.505259	0.819135	0.676818
O5	O	0.589395	0.079138	-0.073197
O6	O	0.839395	0.329138	0.176803
O7	O	1.089395	0.579138	0.426803
O8	O	1.339395	0.829138	0.676803
O9	O	0.677329	-0.008796	-0.073173
O10	O	0.927329	0.241204	0.176827
O11	O	1.177329	0.491204	0.426827
O12	O	1.427329	0.741204	0.676827
O13	O	0.667325	0.157068	-0.073206
O14	O	0.917325	0.407068	0.176794
O15	O	1.167325	0.657068	0.426794
O16	O	1.417325	0.907068	0.676794
O17	O	0.677323	-0.008797	0.073284
O18	O	0.927323	0.241203	0.323284
O19	O	1.177323	0.491203	0.573284
O20	O	1.427323	0.741203	0.823284
O21	O	0.589389	0.079136	0.073260
O22	O	0.839389	0.329136	0.323260
O23	O	1.089389	0.579136	0.573260
O24	O	1.339389	0.829136	0.823260
O25	O	0.755253	0.069133	0.073275
O26	O	1.005253	0.319133	0.323275
O27	O	1.255253	0.569133	0.573275
O28	O	1.505253	0.819133	0.823275
Zn29	Zn	0.672320	0.074135	0.096521
Zn30	Zn	0.922320	0.324135	0.346521
Zn31	Zn	1.172320	0.574135	0.596521
Zn32	Zn	1.422320	0.824135	0.846521
Zn33	Zn	0.672328	0.074136	-0.096443
Zn34	Zn	0.922328	0.324136	0.153557
Zn35	Zn	1.172328	0.574136	0.403557
Zn36	Zn	1.422328	0.824136	0.653557
O37	O	0.667319	0.157067	0.073251
O38	O	0.917319	0.407067	0.323251
O39	O	1.167319	0.657067	0.573251
O40	O	1.417319	0.907067	0.823251
C41	C	0.568176	0.078882	0.000030
C42	C	0.818176	0.328882	0.250030
C43	C	1.068176	0.578882	0.500030
C44	C	1.318176	0.828882	0.750030
C45	C	0.504959	0.078116	0.000025
C46	C	0.754959	0.328116	0.250025
C47	C	1.004959	0.578116	0.500025
C48	C	1.254959	0.828116	0.750025
C49	C	0.238792	0.022921	0.000060
C50	C	0.488792	0.272921	0.250060
C51	C	0.738792	0.522921	0.500060
C52	C	0.988792	0.772921	0.750060
C53	C	0.298192	0.023632	0.000059
C54	C	0.548192	0.273632	0.250059
C55	C	0.798192	0.523632	0.500059
C56	C	1.048192	0.773632	0.750059
O57	O	0.334937	-0.020153	0.000099
O58	O	0.584937	0.229847	0.250099
O59	O	0.834937	0.479847	0.500099
O60	O	1.084937	0.729847	0.750099
N61	N	0.320818	0.075909	0.000043
N62	N	0.570818	0.325909	0.250043
N63	N	0.820818	0.575909	0.500043
N64	N	1.070818	0.825909	0.750043
C65	C	0.284041	0.127477	0.000036
C66	C	0.534041	0.377477	0.250036
C67	C	0.784041	0.627477	0.500036
C68	C	1.034041	0.877477	0.750036
O69	O	0.308740	0.172007	0.000023
O70	O	0.558740	0.422007	0.250023
O71	O	0.808740	0.672007	0.500023
O72	O	1.058740	0.922007	0.750023
C73	C	0.224642	0.126765	0.000043
C74	C	0.474642	0.376765	0.250043
C75	C	0.724642	0.626765	0.500043
C76	C	0.974642	0.876765	0.750043
C77	C	0.202019	0.074485	0.000050
C78	C	0.452019	0.324485	0.250050
C79	C	0.702019	0.574485	0.500050
C80	C	0.952019	0.824485	0.750050
C81	C	0.216169	-0.029354	0.000068
C82	C	0.466169	0.220646	0.250068
C83	C	0.716169	0.470646	0.500068
C84	C	0.966169	0.720646	0.750068
C85	C	0.156772	-0.030066	0.000067
C86	C	0.406772	0.219934	0.250067
C87	C	0.656772	0.469934	0.500067
C88	C	0.906772	0.719934	0.750067
C89	C	0.119999	0.021499	0.000057
C90	C	0.369999	0.271499	0.250057
C91	C	0.619999	0.521499	0.500057
C92	C	0.869999	0.771499	0.750057
C93	C	0.142623	0.073774	0.000049
C94	C	0.392623	0.323774	0.250049
C95	C	0.642623	0.573774	0.500049
C96	C	0.892623	0.823774	0.750049
C97	C	0.187865	0.178333	0.000042
C98	C	0.437865	0.428333	0.250042
C99	C	0.687865	0.678333	0.500042
C100	C	0.937865	0.928333	0.750042
C101	C	0.128463	0.177616	0.000049
C102	C	0.378463	0.427616	0.250049
C103	C	0.628463	0.677616	0.500049
C104	C	0.878463	0.927616	0.750049
C105	C	0.105840	0.125336	0.000057
C106	C	0.355840	0.375336	0.250057
C107	C	0.605840	0.625336	0.500057
C108	C	0.855840	0.875336	0.750057
C109	C	0.046454	0.124627	0.000038
C110	C	0.296454	0.374627	0.250038
C111	C	0.546454	0.624627	0.500038
C112	C	0.796454	0.874627	0.750038
N113	N	0.023828	0.072351	0.000054
N114	N	0.273828	0.322351	0.250054
N115	N	0.523828	0.572351	0.500054
N116	N	0.773828	0.822351	0.750054
C117	C	0.060600	0.020787	0.000064
C118	C	0.310600	0.270787	0.250064
C119	C	0.560600	0.520787	0.500064
C120	C	0.810600	0.770787	0.750064
C121	C	0.408783	0.128968	0.000023
C122	C	0.658783	0.378968	0.250023
C123	C	0.908783	0.628968	0.500023
C124	C	1.158783	0.878968	0.750023
C125	C	0.468181	0.129681	0.000010
C126	C	0.718181	0.379681	0.250010
C127	C	0.968181	0.629681	0.500010
C128	C	1.218181	0.879681	0.750010
C129	C	0.482328	0.025836	0.000036
C130	C	0.732328	0.275836	0.250036
C131	C	0.982328	0.525836	0.500036
C132	C	1.232328	0.775836	0.750036
C133	C	0.422929	0.025124	0.000042
C134	C	0.672929	0.275124	0.250042
C135	C	0.922929	0.525124	0.500042
C136	C	1.172929	0.775124	0.750042
C137	C	0.386157	0.076692	0.000040
C138	C	0.636157	0.326692	0.250040
C139	C	0.886157	0.576692	0.500040
C140	C	1.136157	0.826692	0.750040
C141	C	-0.064136	0.019297	0.000060
C142	C	0.185864	0.269297	0.250060
C143	C	0.435864	0.519297	0.500060
C144	C	0.685864	0.769297	0.750060
C145	C	-0.123538	0.018590	0.000056
C146	C	0.126462	0.268590	0.250056
C147	C	0.376462	0.518590	0.500056
C148	C	0.626462	0.768590	0.750056
C149	C	-0.137680	0.122435	0.000035
C150	C	0.112320	0.372435	0.250035
C151	C	0.362320	0.622435	0.500035
C152	C	0.612320	0.872435	0.750035
C153	C	-0.078284	0.123142	0.000035
C154	C	0.171716	0.373142	0.250035
C155	C	0.421716	0.623142	0.500035
C156	C	0.671716	0.873142	0.750035
C157	C	-0.041512	0.071568	0.000051
C158	C	0.208488	0.321568	0.250051
C159	C	0.458488	0.571568	0.500051
C160	C	0.708488	0.821568	0.750051
O161	O	0.009675	0.168390	0.000002
O162	O	0.259675	0.418390	0.250002
O163	O	0.509675	0.668390	0.500002
O164	O	0.759675	0.918390	0.750002
O165	O	0.035892	-0.023737	0.000089
O166	O	0.285892	0.226263	0.250089
O167	O	0.535892	0.476263	0.500089
O168	O	0.785892	0.726263	0.750089
C169	C	0.677071	-0.030012	0.000058
C170	C	0.927071	0.219988	0.250058
C171	C	1.177071	0.469988	0.500058
C172	C	1.427071	0.719988	0.750058
C173	C	0.676305	-0.093229	0.000065
C174	C	0.926305	0.156771	0.250065
C175	C	1.176305	0.406771	0.500065
C176	C	1.426305	0.656771	0.750065
C177	C	0.723538	-0.492332	0.000021
C178	C	0.973538	-0.242332	0.250021
C179	C	1.223538	0.007668	0.500021
C180	C	1.473538	0.257668	0.750021
C181	C	0.722827	-0.551733	0.000014
C182	C	0.972827	-0.301733	0.250014
C183	C	1.222827	-0.051733	0.500014
C184	C	1.472827	0.198267	0.750014
O185	O	0.766613	-0.588477	-0.000015
O186	O	1.016613	-0.338477	0.249985
O187	O	1.266613	-0.088477	0.499985
O188	O	1.516613	0.161523	0.749985
N189	N	0.670551	-0.574359	0.000010
N190	N	0.920551	-0.324359	0.250010
N191	N	1.170551	-0.074359	0.500010
N192	N	1.420551	0.175641	0.750010
C193	C	0.618982	-0.537581	0.000003
C194	C	0.868982	-0.287581	0.250003
C195	C	1.118982	-0.037581	0.500003
C196	C	1.368982	0.212419	0.750003
O197	O	0.574452	-0.562281	-0.000001
O198	O	0.824452	-0.312281	0.249999
O199	O	1.074452	-0.062281	0.499999
O200	O	1.324452	0.187719	0.749999
C201	C	0.619695	-0.478182	0.000004
C202	C	0.869695	-0.228182	0.250004
C203	C	1.119695	0.021818	0.500004
C204	C	1.369695	0.271818	0.750004
C205	C	0.671974	-0.455559	0.000017
C206	C	0.921974	-0.205559	0.250017
C207	C	1.171974	0.044441	0.500017
C208	C	1.421974	0.294441	0.750017
C209	C	0.775814	-0.469709	0.000033
C210	C	1.025814	-0.219709	0.250033
C211	C	1.275814	0.030291	0.500033
C212	C	1.525814	0.280291	0.750033
C213	C	0.776525	-0.410313	0.000041
C214	C	1.026525	-0.160313	0.250041
C215	C	1.276525	0.089687	0.500041
C216	C	1.526525	0.339687	0.750041
C217	C	0.724961	-0.373540	0.000038
C218	C	0.974961	-0.123540	0.250038
C219	C	1.224961	0.126460	0.500038
C220	C	1.474961	0.376460	0.750038
C221	C	0.672685	-0.396163	0.000025
C222	C	0.922685	-0.146163	0.250025
C223	C	1.172685	0.103837	0.500025
C224	C	1.422685	0.353837	0.750025
C225	C	0.568127	-0.441406	-0.000009
C226	C	0.818127	-0.191406	0.249991
C227	C	1.068127	0.058594	0.499991
C228	C	1.318127	0.308594	0.749991
C229	C	0.568843	-0.382003	-0.000009
C230	C	0.818843	-0.132003	0.249991
C231	C	1.068843	0.117997	0.499991
C232	C	1.318843	0.367997	0.749991
C233	C	0.621123	-0.359381	0.000004
C234	C	0.871123	-0.109381	0.250004
C235	C	1.121123	0.140619	0.500004
C236	C	1.371123	0.390619	0.750004
C237	C	0.621832	-0.299994	0.000030
C238	C	0.871832	-0.049994	0.250030
C239	C	1.121832	0.200006	0.500030
C240	C	1.371832	0.450006	0.750030
N241	N	0.674109	-0.277368	0.000034
N242	N	0.924109	-0.027368	0.250034
N243	N	1.174109	0.222632	0.500034
N244	N	1.424109	0.472632	0.750034
C245	C	0.725673	-0.314141	0.000038
C246	C	0.975673	-0.064141	0.250038
C247	C	1.225673	0.185859	0.500038
C248	C	1.475673	0.435859	0.750038
C249	C	0.617491	-0.662324	0.000001
C250	C	0.867491	-0.412324	0.250001
C251	C	1.117491	-0.162324	0.500001
C252	C	1.367491	0.087676	0.750001
C253	C	0.616778	-0.721722	0.000007
C254	C	0.866778	-0.471722	0.250007
C255	C	1.116778	-0.221722	0.500007
C256	C	1.366778	0.028278	0.750007
C257	C	0.720623	-0.735869	0.000016
C258	C	0.970623	-0.485869	0.250016
C259	C	1.220623	-0.235869	0.500016
C260	C	1.470623	0.014131	0.750016
C261	C	0.721335	-0.676470	0.000016
C262	C	0.971335	-0.426470	0.250016
C263	C	1.221335	-0.176470	0.500016
C264	C	1.471335	0.073530	0.750016
C265	C	0.669767	-0.639698	0.000005
C266	C	0.919767	-0.389698	0.250005
C267	C	1.169767	-0.139698	0.500005
C268	C	1.419767	0.110302	0.750005
C269	C	0.727163	-0.189404	0.000056
C270	C	0.977163	0.060596	0.250056
C271	C	1.227163	0.310596	0.500056
C272	C	1.477163	0.560596	0.750056
C273	C	0.727869	-0.130002	0.000068
C274	C	0.977869	0.119998	0.250068
C275	C	1.227869	0.369998	0.500068
C276	C	1.477869	0.619998	0.750068
C277	C	0.624025	-0.115860	0.000055
C278	C	0.874025	0.134140	0.250055
C279	C	1.124025	0.384140	0.500055
C280	C	1.374025	0.634140	0.750055
C281	C	0.623318	-0.175257	0.000047
C282	C	0.873318	0.074743	0.250047
C283	C	1.123318	0.324743	0.500047
C284	C	1.373318	0.574743	0.750047
C285	C	0.674891	-0.212028	0.000045
C286	C	0.924891	0.037972	0.250045
C287	C	1.174891	0.287972	0.500045
C288	C	1.424891	0.537972	0.750045
O289	O	0.578069	-0.263215	0.000055
O290	O	0.828069	-0.013215	0.250055
O291	O	1.078069	0.236785	0.500055
O292	O	1.328069	0.486785	0.750055
O293	O	0.770196	-0.289433	0.000031
O294	O	1.020196	-0.039433	0.250031
O295	O	1.270196	0.210567	0.500031
O296	O	1.520196	0.460567	0.750031
C297	C	0.776472	0.069389	0.000047
C298	C	1.026472	0.319389	0.250047
C299	C	1.276472	0.569389	0.500047
C300	C	1.526472	0.819389	0.750047
C301	C	0.839689	0.070155	0.000046
C302	C	1.089689	0.320155	0.250046
C303	C	1.339689	0.570155	0.500046
C304	C	1.589689	0.820155	0.750046
C305	C	0.667577	0.178283	0.000018
C306	C	0.917577	0.428283	0.250018
C307	C	1.167577	0.678283	0.500018
C308	C	1.417577	0.928283	0.750018
C309	C	0.668343	0.241500	0.000006
C310	C	0.918343	0.491500	0.250006
C311	C	1.168343	0.741500	0.500006
C312	C	1.418343	0.991500	0.750006
N313	N	0.672319	0.074133	0.228214
N314	N	0.922319	0.324133	0.478214
N315	N	1.172319	0.574133	0.728214
N316	N	1.422319	0.824133	0.978214
N317	N	0.672333	0.074133	-0.228135
N318	N	0.922333	0.324133	0.021865
N319	N	1.172333	0.574133	0.271865
N320	N	1.422333	0.824133	0.521865
C321	C	0.711269	0.035209	0.453947
C322	C	0.961269	0.285209	0.703947
C323	C	1.211269	0.535209	0.953947
C324	C	1.461269	0.785209	1.203947
C325	C	0.711271	0.035208	0.546137
C326	C	0.961271	0.285208	0.796137
C327	C	1.211271	0.535208	1.046137
C328	C	1.461271	0.785208	1.296137
C329	C	0.633379	0.113059	0.546125
C330	C	0.883379	0.363059	0.796125
C331	C	1.133379	0.613059	1.046125
C332	C	1.383379	0.863059	1.296125
C333	C	0.633375	0.113057	0.453937
C334	C	0.883375	0.363057	0.703937
C335	C	1.133375	0.613057	0.953937
C336	C	1.383375	0.863057	1.203937
C337	C	0.672323	0.074133	0.407850
C338	C	0.922323	0.324133	0.657850
C339	C	1.172323	0.574133	0.907850
C340	C	1.422323	0.824133	1.157850
C341	C	0.672329	0.074133	0.592228
C342	C	0.922329	0.324133	0.842228
C343	C	1.172329	0.574133	1.092228
C344	C	1.422329	0.824133	1.342228
C345	C	0.672331	0.074132	0.692184
C346	C	0.922331	0.324132	0.942184
C347	C	1.172331	0.574132	1.192184
C348	C	1.422331	0.824132	1.442184
C349	C	0.672321	0.074133	0.307888
C350	C	0.922321	0.324133	0.557888
C351	C	1.172321	0.574133	0.807888
C352	C	1.422321	0.824133	1.057888
H353	H	0.246104	-0.071347	0.000079
H354	H	0.496104	0.178653	0.250079
H355	H	0.746104	0.428653	0.500079
H356	H	0.996104	0.678653	0.750079
O357	O	0.753268	-0.006777	0.404235
O358	O	1.003268	0.243223	0.654235
O359	O	1.253268	0.493223	0.904235
O360	O	1.503268	0.743223	1.154235
H361	H	0.780345	-0.033847	0.451781
H362	H	1.030345	0.216153	0.701781
H363	H	1.280345	0.466153	0.951781
H364	H	1.530345	0.716153	1.201781
O365	O	0.591382	0.155047	0.595838
O366	O	0.841382	0.405047	0.845838
O367	O	1.091382	0.655047	1.095838
O368	O	1.341382	0.905047	1.345838
H369	H	0.564298	0.182111	0.548293
H370	H	0.814298	0.432111	0.798293
H371	H	1.064298	0.682111	1.048293
H372	H	1.314298	0.932111	1.298293
H373	H	0.574207	-0.740135	0.000011
H374	H	0.824207	-0.490135	0.250011
H375	H	1.074207	-0.240135	0.500011
H376	H	1.324207	0.009865	0.750011
O377	O	0.753283	-0.006766	0.595859
O378	O	1.003283	0.243234	0.845859
O379	O	1.253283	0.493234	1.095859
O380	O	1.503283	0.743234	1.345859
H381	H	0.780368	-0.033827	0.548322
H382	H	1.030368	0.216173	0.798322
H383	H	1.280368	0.466173	1.048322
H384	H	1.530368	0.716173	1.298322
H385	H	0.601658	0.144754	0.416402
H386	H	0.851658	0.394754	0.666402
H387	H	1.101658	0.644754	0.916402
H388	H	1.351658	0.894754	1.166402
H389	H	-0.141954	-0.023984	0.000059
H390	H	0.108046	0.226016	0.250059
H391	H	0.358046	0.476016	0.500059
H392	H	0.608046	0.726016	0.750059
O393	O	0.212258	0.234720	0.000038
O394	O	0.462258	0.484720	0.250038
O395	O	0.712258	0.734720	0.500038
O396	O	0.962258	0.984720	0.750038
H397	H	0.238985	0.237523	0.059729
H398	H	0.488985	0.487523	0.309729
H399	H	0.738985	0.737523	0.559729
H400	H	0.988985	0.987523	0.809729
H401	H	-0.034204	-0.022699	0.000073
H402	H	0.215796	0.227301	0.250073
H403	H	0.465796	0.477301	0.500073
H404	H	0.715796	0.727301	0.750073
H405	H	0.098525	0.219610	0.000051
H406	H	0.348525	0.469610	0.250051
H407	H	0.598525	0.719610	0.500051
H408	H	0.848525	0.969610	0.750051
H409	H	0.404515	-0.017447	0.000049
H410	H	0.654515	0.232553	0.250049
H411	H	0.904515	0.482553	0.500049
H412	H	1.154515	0.732553	0.750049
H413	H	0.769159	-0.219337	0.000051
H414	H	1.019159	0.030663	0.250051
H415	H	1.269159	0.280663	0.500051
H416	H	1.519159	0.530663	0.750051
O417	O	0.511737	-0.465794	-0.000030
O418	O	0.761737	-0.215794	0.249970
O419	O	1.011737	0.034206	0.499970
O420	O	1.261737	0.284206	0.749970
H421	H	0.508914	-0.492520	0.059663
H422	H	0.758914	-0.242520	0.309663
H423	H	1.008914	0.007480	0.559663
H424	H	1.258914	0.257480	0.809663
O425	O	0.492579	0.186068	-0.000010
O426	O	0.742579	0.436068	0.249990
O427	O	0.992579	0.686068	0.499990
O428	O	1.242579	0.936068	0.749990
H429	H	0.519305	0.188876	0.059680
H430	H	0.769305	0.438876	0.309680
H431	H	1.019305	0.688876	0.559680
H432	H	1.269305	0.938876	0.809680
H433	H	-0.059864	0.165712	0.000028
H434	H	0.190136	0.415712	0.250028
H435	H	0.440136	0.665712	0.500028
H436	H	0.690136	0.915712	0.750028
O437	O	0.561867	-0.622663	0.000002
O438	O	0.811867	-0.372663	0.250002
O439	O	1.061867	-0.122663	0.500002
O440	O	1.311867	0.127337	0.750002
H441	H	0.559708	-0.595267	0.059694
H442	H	0.809708	-0.345267	0.309694
H443	H	1.059708	-0.095267	0.559694
H444	H	1.309708	0.154733	0.809694
O445	O	0.568410	-0.076193	0.000050
O446	O	0.818410	0.173807	0.250050
O447	O	1.068410	0.423807	0.500050
O448	O	1.318410	0.673807	0.750050
H449	H	0.577693	-0.031090	0.000047
H450	H	0.827693	0.218910	0.250047
H451	H	1.077693	0.468910	0.500047
H452	H	1.327693	0.718910	0.750047
H453	H	-0.167631	0.164417	0.000023
H454	H	0.082369	0.414417	0.250023
H455	H	0.332369	0.664417	0.500023
H456	H	0.582369	0.914417	0.750023
H457	H	0.512280	-0.016150	0.000044
H458	H	0.762280	0.233850	0.250044
H459	H	1.012280	0.483850	0.500044
H460	H	1.262280	0.733850	0.750044
O461	O	0.132375	-0.086453	0.000098
O462	O	0.382375	0.163547	0.250098
O463	O	0.632375	0.413547	0.500098
O464	O	0.882375	0.663547	0.750098
H465	H	0.167932	-0.122184	0.000118
H466	H	0.417932	0.127816	0.250118
H467	H	0.667932	0.377816	0.500118
H468	H	0.917932	0.627816	0.750118
O469	O	0.369121	0.184591	0.000006
O470	O	0.619121	0.434591	0.250006
O471	O	0.869121	0.684591	0.500006
O472	O	1.119121	0.934591	0.750006
H473	H	0.394839	0.221057	-0.000015
H474	H	0.644839	0.471057	0.249985
H475	H	0.894839	0.721057	0.499985
H476	H	1.144839	0.971057	0.749985
O477	O	0.832915	-0.385921	0.000030
O478	O	1.082915	-0.135921	0.250030
O479	O	1.332915	0.114079	0.500030
O480	O	1.582915	0.364079	0.750030
H481	H	0.857681	-0.400728	0.059716
H482	H	1.107681	-0.150728	0.309716
H483	H	1.357681	0.099272	0.559716
H484	H	1.607681	0.349272	0.809716
O485	O	0.784258	-0.105601	0.000069
O486	O	1.034258	0.144399	0.250069
O487	O	1.284258	0.394399	0.500069
O488	O	1.534258	0.644399	0.750069
H489	H	0.819993	-0.141154	0.000057
H490	H	1.069993	0.108846	0.250057
H491	H	1.319993	0.358846	0.500057
H492	H	1.569993	0.608846	0.750057
O493	O	0.831434	-0.509368	0.000049
O494	O	1.081434	-0.259368	0.250049
O495	O	1.331434	-0.009368	0.500049
O496	O	1.581434	0.240632	0.750049
H497	H	0.867898	-0.483647	0.000067
H498	H	1.117898	-0.233647	0.250067
H499	H	1.367898	0.016353	0.500067
H500	H	1.617898	0.266353	0.750067
H501	H	0.762610	-0.765821	0.000015
H502	H	1.012610	-0.515821	0.250015
H503	H	1.262610	-0.265821	0.500015
H504	H	1.512610	-0.015821	0.750015
O505	O	0.777721	-0.652070	0.000014
O506	O	1.027721	-0.402070	0.250014
O507	O	1.277721	-0.152070	0.500014
O508	O	1.527721	0.097930	0.750014
H509	H	0.813454	-0.687625	0.000009
H510	H	1.063454	-0.437625	0.250009
H511	H	1.313454	-0.187625	0.500009
H512	H	1.563454	0.062375	0.750009
H513	H	0.526850	-0.352065	-0.000019
H514	H	0.776850	-0.102065	0.249981
H515	H	1.026850	0.147935	0.499981
H516	H	1.276850	0.397935	0.749981
O517	O	0.566933	-0.199663	0.000036
O518	O	0.816933	0.050337	0.250036
O519	O	1.066933	0.300337	0.500036
O520	O	1.316933	0.550337	0.750036
H521	H	0.531197	-0.164111	0.000031
H522	H	0.781197	0.085889	0.250031
H523	H	1.031197	0.335889	0.500031
H524	H	1.281197	0.585889	0.750031
