data_functionalizedCrystal
_audit_creation_method	'MofGen! by Chris Wilmer'
_symmetry_space_group_name_H-M	'P1'
_symmetry_Int_Tables_number	1
_symmetry_cell_setting	triclinic
loop_
_symmetry_equiv_pos_as_xyz
  x,y,z
_cell_length_a	23.532407
_cell_length_b	15.021413
_cell_length_c	23.532357
_cell_angle_alpha	89.998468
_cell_angle_beta	82.838485
_cell_angle_gamma	89.998075
loop_
_atom_site_label
_atom_site_type_symbol
_atom_site_fract_x
_atom_site_fract_y
_atom_site_fract_z
O1	O	0.755250	-0.073932	0.069129
O2	O	0.589385	-0.073959	0.079132
O3	O	0.677334	-0.073926	-0.008803
O4	O	0.667301	-0.073965	0.157064
O5	O	0.677320	0.074138	-0.008791
O6	O	0.589371	0.074105	0.079145
O7	O	0.755236	0.074133	0.069141
Zn8	Zn	0.672302	0.097627	0.074145
Zn9	Zn	0.672320	-0.097454	0.074129
O10	O	0.667287	0.074100	0.157077
C11	C	0.568162	0.000070	0.078884
C12	C	0.504945	0.000060	0.078118
N13	N	0.672293	0.230765	0.074156
N14	N	0.672333	-0.230591	0.074113
C15	C	0.105834	0.000089	0.125353
C16	C	0.046434	0.000095	0.124641
O17	O	0.009681	0.000117	0.168428
N18	N	0.023817	0.000106	0.072364
C19	C	0.060604	0.000120	0.020794
O20	O	0.035912	0.000130	-0.023737
C21	C	0.120003	0.000120	0.021506
C22	C	0.142616	0.000101	0.073787
C23	C	0.128448	0.000071	0.177629
C24	C	0.187844	0.000063	0.178341
C25	C	0.224626	0.000075	0.126775
C26	C	0.202012	0.000093	0.074498
C27	C	0.156788	0.000141	-0.030063
C28	C	0.216191	0.000142	-0.029346
C29	C	0.238804	0.000122	0.022935
C30	C	0.298190	0.000097	0.023644
N31	N	0.320807	0.000087	0.075922
C32	C	0.284025	0.000076	0.127487
C33	C	-0.064139	0.000119	0.019303
C34	C	-0.123536	0.000112	0.018590
C35	C	-0.137702	0.000089	0.122437
C36	C	-0.078303	0.000090	0.123149
C37	C	-0.041522	0.000109	0.071580
C38	C	0.408761	0.000060	0.128977
C39	C	0.468163	0.000049	0.129684
C40	C	0.482324	0.000076	0.025837
C41	C	0.422927	0.000082	0.025130
C42	C	0.386147	0.000077	0.076704
O43	O	0.334977	0.000079	-0.020120
O44	O	0.308725	0.000077	0.172011
C45	C	0.776459	0.000102	0.069390
C46	C	0.839676	0.000106	0.070156
C47	C	0.677076	0.000109	-0.030013
C48	C	0.676322	0.000117	-0.093232
C49	C	0.631619	0.470433	0.114798
C50	C	0.683017	0.529773	0.125561
C51	C	0.672308	0.412372	0.074142
C52	C	0.620924	0.529773	0.063392
C53	C	0.672317	0.587796	0.074129
C54	C	0.723731	0.470405	0.084930
C55	C	0.661605	0.470401	0.022738
C56	C	0.713039	0.529714	0.033479
C57	C	0.672301	0.311314	0.074150
C58	C	0.672330	0.688851	0.074120
C59	C	0.671593	-0.080642	-0.485250
C60	C	0.670875	-0.080647	-0.544650
O61	O	0.670492	-0.149288	-0.575372
N62	N	0.670512	0.000062	-0.574354
C63	C	0.670860	0.080781	-0.544655
O64	O	0.670485	0.149429	-0.575375
C65	C	0.671573	0.080785	-0.485256
C66	C	0.671943	0.000071	-0.455556
C67	C	0.671961	-0.161349	-0.455550
C68	C	0.672679	-0.161344	-0.396154
C69	C	0.673029	-0.080631	-0.366460
C70	C	0.672661	0.000077	-0.396160
C71	C	0.671917	0.161503	-0.455558
C72	C	0.672630	0.161500	-0.396155
C73	C	0.672999	0.080787	-0.366454
C74	C	0.673729	0.080795	-0.307071
N75	N	0.674092	0.000086	-0.277366
C76	C	0.673742	-0.080627	-0.307061
C77	C	0.669362	0.080766	-0.669397
C78	C	0.668653	0.080762	-0.728795
C79	C	0.668667	-0.080666	-0.728785
C80	C	0.669380	-0.080662	-0.669386
C81	C	0.669725	0.000057	-0.639692
C82	C	0.675251	-0.080609	-0.182327
C83	C	0.675972	-0.080596	-0.122927
C84	C	0.675955	0.080831	-0.122941
C85	C	0.675237	0.080819	-0.182336
C86	C	0.674883	0.000092	-0.212027
O87	O	0.674111	0.149401	-0.276310
O88	O	0.674110	-0.149263	-0.276332
C89	C	0.667545	0.000063	0.178287
C90	C	0.668300	0.000049	0.241506
H91	H	0.486571	0.000032	0.172259
H92	H	0.767199	0.444437	0.094069
F93	F	0.211902	0.000047	0.233986
H94	H	0.577466	0.555854	0.054305
F95	F	0.676366	-0.166507	-0.091321
F96	F	0.369625	0.000054	0.183869
F97	F	0.674855	0.166723	-0.213948
H98	H	0.747490	0.555579	-0.000911
F99	F	0.674875	-0.166528	-0.213918
H100	H	0.672978	-0.227069	-0.371977
F101	F	0.649740	0.436284	-0.034056
H102	H	0.668380	-0.146387	-0.752973
F103	F	0.669734	0.166683	-0.637799
F104	F	0.089309	0.000059	0.232518
F105	F	0.671588	-0.247263	-0.487144
H106	H	-0.141942	0.000114	-0.023982
H107	H	0.668361	0.146488	-0.752973
F108	F	0.669772	-0.166567	-0.637782
H109	H	0.597245	0.444404	0.149208
H110	H	0.671618	0.227229	-0.479730
F111	F	0.672997	0.247415	-0.364555
F112	F	0.676328	0.166727	-0.091328
H113	H	-0.059896	0.000079	0.165721
H114	H	-0.167662	0.000084	0.164425
F115	F	0.398860	0.000104	-0.030513
F116	F	0.132735	0.000149	-0.085708
F117	F	-0.024997	0.000131	-0.035588
H118	H	0.246136	0.000158	-0.071341
F119	F	0.694862	0.563861	0.182373
H120	H	0.512282	0.000082	-0.016147
