data_functionalizedCrystal
_audit_creation_method	'MofGen! by Chris Wilmer'
_symmetry_space_group_name_H-M	'P1'
_symmetry_Int_Tables_number	1
_symmetry_cell_setting	triclinic
loop_
_symmetry_equiv_pos_as_xyz
  x,y,z
_cell_length_a	14.853566
_cell_length_b	17.038272
_cell_length_c	13.330367
_cell_angle_alpha	89.995338
_cell_angle_beta	89.995295
_cell_angle_gamma	87.372985
loop_
_atom_site_label
_atom_site_type_symbol
_atom_site_fract_x
_atom_site_fract_y
_atom_site_fract_z
O1	O	1.204051	0.102081	-0.083358
O2	O	0.942507	0.114243	-0.083375
O3	O	1.071725	-0.005655	-0.083358
O4	O	1.074834	0.221980	-0.083374
O5	O	1.071705	-0.005658	0.083489
O6	O	0.942487	0.114241	0.083473
O7	O	1.204031	0.102079	0.083489
Cu8	Cu	1.073257	0.108159	0.098715
Cu9	Cu	1.073281	0.108162	-0.098601
O10	O	1.074813	0.221977	0.083473
C11	C	0.908867	0.113691	0.000047
C12	C	0.808659	0.112040	0.000041
C13	C	0.384959	0.105059	-0.090890
C14	C	0.384959	0.105057	0.091014
C15	C	0.479109	0.106607	0.091011
C16	C	0.526189	0.107385	0.000056
C17	C	0.479119	0.106612	-0.090896
C18	C	0.526187	0.107388	0.181960
C19	C	0.620343	0.108939	0.181961
C20	C	0.667425	0.109711	0.091005
C21	C	0.620349	0.108937	0.000050
C22	C	0.667429	0.109715	-0.090905
C23	C	0.620354	0.108936	-0.181861
C24	C	0.526201	0.107384	-0.181851
C25	C	0.761579	0.111263	0.090995
C26	C	0.761588	0.111268	-0.090911
C27	C	1.068887	-0.034788	0.000065
C28	C	1.060451	-0.121592	0.000064
C29	C	1.137904	-0.171605	0.000070
C30	C	1.129972	-0.253166	0.000060
C31	C	1.044586	-0.284713	0.000051
C32	C	0.967127	-0.234694	0.000042
C33	C	0.975060	-0.153134	0.000045
C34	C	1.016561	-0.530507	0.000036
C35	C	1.008634	-0.612073	0.000036
C36	C	1.171480	-0.630540	0.000052
C37	C	1.179405	-0.548978	0.000061
C38	C	1.101946	-0.498966	0.000046
C39	C	1.036476	-0.368081	0.000044
C40	C	1.110057	-0.415600	0.000046
C41	C	1.237671	0.102631	0.000065
C42	C	1.337879	0.104282	0.000065
C43	C	1.077651	0.251110	0.000048
C44	C	1.086087	0.337914	0.000042
N45	N	1.073247	0.108157	0.237497
N46	N	1.073298	0.108159	-0.237382
C47	C	1.016059	0.161233	0.710113
C48	C	1.130527	0.055086	0.710095
C49	C	1.130516	0.055084	0.605077
C50	C	1.073278	0.108157	0.552571
C51	C	1.016049	0.161233	0.605084
C52	C	1.187750	0.002014	0.552556
C53	C	1.187743	0.002010	0.447531
C54	C	1.130499	0.055081	0.395024
C55	C	1.073267	0.108158	0.447543
C56	C	1.016028	0.161232	0.395038
C57	C	0.958792	0.214306	0.447556
C58	C	0.958805	0.214304	0.552577
C59	C	1.130486	0.055083	0.290002
C60	C	1.016018	0.161233	0.290010
H61	H	0.658663	0.109572	0.256023
H62	H	1.179578	-0.389911	0.000031
H63	H	0.658699	0.109574	-0.255916
H64	H	0.487847	0.106760	0.256010
O65	O	1.262303	-0.518248	-0.000071
C66	C	1.271786	-0.471634	-0.086494
H67	H	1.202286	-0.451391	-0.115306
H68	H	1.308914	-0.507621	-0.147001
C69	C	1.411234	-0.424308	-0.024851
C70	C	1.325873	-0.399440	-0.060235
H71	H	1.444601	-0.379778	-0.008656
H72	H	1.404848	-0.455716	0.033372
H73	H	1.442162	-0.454299	-0.075280
H74	H	1.294943	-0.369459	-0.009802
H75	H	1.332256	-0.368026	-0.118449
H76	H	0.953488	-0.489797	0.000024
H77	H	0.346628	0.104422	-0.164944
O78	O	0.480419	0.106773	-0.270171
C79	C	0.420925	0.173535	-0.275592
H80	H	0.445798	0.221292	-0.223985
H81	H	0.350703	0.157063	-0.251143
C82	C	0.386645	0.145543	-0.447638
C83	C	0.417199	0.204202	-0.384259
H84	H	0.384343	0.164458	-0.514669
H85	H	0.426725	0.100562	-0.443985
H86	H	0.328130	0.131822	-0.427251
H87	H	0.475718	0.217915	-0.404638
H88	H	0.377129	0.249185	-0.387918
O89	O	0.807278	0.111879	0.179363
C90	C	0.789269	0.043847	0.234717
H91	H	0.766893	-0.003875	0.181510
H92	H	0.733482	0.058248	0.291430
C93	C	0.902667	0.073154	0.355795
C94	C	0.875191	0.014539	0.290444
H95	H	0.955666	0.055077	0.390175
H96	H	0.914798	0.118991	0.318505
H97	H	0.856170	0.085150	0.403048
H98	H	0.921683	0.002552	0.243186
H99	H	0.863070	-0.031300	0.327728
H100	H	1.207435	-0.145927	0.000083
H101	H	0.912206	0.257516	0.595344
O102	O	1.246626	-0.679233	0.000012
C103	C	1.221321	-0.757985	0.000033
H104	H	1.150266	-0.761186	-0.031557
H105	H	1.222923	-0.781575	0.080077
C106	C	1.374769	-0.803886	-0.026599
C107	C	1.287501	-0.807819	-0.065407
H108	H	1.415593	-0.834628	-0.066961
H109	H	1.391819	-0.750830	-0.026610
H110	H	1.376091	-0.823543	0.040103
H111	H	1.286178	-0.788153	-0.132103
H112	H	1.270452	-0.860873	-0.065410
O113	O	0.903318	0.265894	0.396437
C114	C	0.955302	0.314224	0.335698
H115	H	1.023468	0.283194	0.319967
H116	H	0.965853	0.372025	0.376165
C117	C	0.822032	0.368963	0.255259
C118	C	0.905752	0.330849	0.235930
H119	H	0.791466	0.379221	0.193719
H120	H	0.787009	0.336405	0.296182
H121	H	0.830836	0.417126	0.288983
H122	H	0.896946	0.282682	0.202218
H123	H	0.940773	0.363399	0.194999
O124	O	0.339197	0.104166	0.179334
C125	C	0.289731	0.035615	0.184772
H126	H	0.321616	-0.011213	0.133165
H127	H	0.217241	0.049742	0.160334
C128	C	0.251388	0.062425	0.356821
C129	C	0.290554	0.004907	0.293442
H130	H	0.251891	0.043484	0.423854
H131	H	0.284711	0.108610	0.353157
H132	H	0.190984	0.074192	0.336444
H133	H	0.350960	-0.006852	0.313812
H134	H	0.257241	-0.041281	0.297112
H135	H	1.234357	-0.041193	0.595309
O136	O	1.186072	0.003424	0.760989
C137	C	1.165453	-0.074002	0.735362
H138	H	1.130708	-0.073960	0.659112
H139	H	1.118716	-0.098243	0.794479
C140	C	1.295676	-0.125941	0.824165
C141	C	1.253008	-0.125890	0.730508
H142	H	1.349683	-0.157950	0.821175
H143	H	1.309566	-0.073778	0.841434
H144	H	1.256719	-0.146140	0.873419
H145	H	1.291961	-0.105682	0.681259
H146	H	1.239127	-0.178051	0.713231
H147	H	0.969455	0.204443	0.752875
H148	H	1.177091	0.011874	0.247247
O149	O	1.243112	-0.049725	0.396514
C150	C	1.190965	-0.098039	0.335957
H151	H	1.122894	-0.066875	0.320135
H152	H	1.180222	-0.155725	0.376628
C153	C	1.324076	-0.153265	0.255675
C154	C	1.240472	-0.114986	0.236235
H155	H	1.354615	-0.163722	0.194164
H156	H	1.359209	-0.120717	0.296476
H157	H	1.315111	-0.201332	0.289570
H158	H	1.249439	-0.066916	0.202352
H159	H	1.205342	-0.147526	0.195426
O160	O	0.807268	0.112163	-0.179292
C161	C	0.779219	0.179437	-0.234638
H162	H	0.749821	0.226303	-0.181424
H163	H	0.725704	0.163235	-0.291344
C164	C	0.896687	0.153942	-0.355737
C165	C	0.860587	0.211506	-0.290377
H166	H	0.946877	0.173723	-0.390123
H167	H	0.915582	0.108616	-0.318452
H168	H	0.852083	0.140445	-0.402982
H169	H	0.905187	0.224995	-0.243126
H170	H	0.841701	0.256836	-0.327656
O171	O	0.925616	-0.642588	-0.000028
C172	C	0.858949	-0.580958	-0.000020
H173	H	0.888476	-0.525523	-0.031600
H174	H	0.834735	-0.569451	0.080019
C175	C	0.742682	-0.672152	-0.026683
C176	C	0.778946	-0.604067	-0.065479
H177	H	0.693330	-0.686407	-0.067057
H178	H	0.787597	-0.713674	-0.026685
H179	H	0.722511	-0.662553	0.040016
H180	H	0.799126	-0.613670	-0.132171
H181	H	0.734033	-0.562547	-0.065489
H182	H	1.193043	-0.293884	0.000067
H183	H	0.911989	-0.112414	0.000040
O184	O	0.884232	-0.265429	-0.000101
C185	C	0.874775	-0.312034	-0.086525
H186	H	0.944283	-0.332268	-0.115329
H187	H	0.837659	-0.276041	-0.147037
C188	C	0.735316	-0.359376	-0.024901
C189	C	0.820688	-0.384234	-0.060274
H190	H	0.701950	-0.403911	-0.008711
H191	H	0.741686	-0.327976	0.033323
H192	H	0.704398	-0.329382	-0.075334
H193	H	0.851609	-0.414219	-0.009837
H194	H	0.814323	-0.415642	-0.118489
O195	O	0.960542	0.212824	0.238900
C196	C	1.012519	0.261158	0.178161
H197	H	1.080683	0.230129	0.162416
H198	H	1.023075	0.318956	0.218634
C199	C	0.879240	0.315905	0.097747
C200	C	0.962957	0.277792	0.078402
H201	H	0.848668	0.326169	0.036212
H202	H	0.844221	0.283344	0.138671
H203	H	0.888049	0.364065	0.131477
H204	H	0.954147	0.229628	0.044684
H205	H	0.997974	0.310345	0.037470
H206	H	0.966955	-0.393775	0.000039
