data_functionalizedCrystal
_audit_creation_method	'MofGen! by Chris Wilmer'
_symmetry_space_group_name_H-M	'P1'
_symmetry_Int_Tables_number	1
_symmetry_cell_setting	triclinic
loop_
_symmetry_equiv_pos_as_xyz
  x,y,z
_cell_length_a	14.044220
_cell_length_b	27.732048
_cell_length_c	12.503572
_cell_angle_alpha	93.489054
_cell_angle_beta	86.164750
_cell_angle_gamma	87.915767
loop_
_atom_site_label
_atom_site_type_symbol
_atom_site_fract_x
_atom_site_fract_y
_atom_site_fract_z
O1	O	1.261499	0.113903	-0.089228
O2	O	0.985593	0.109700	-0.089254
O3	O	1.132113	0.041807	-0.089220
O4	O	1.114978	0.181795	-0.089262
O5	O	1.121094	0.046922	0.089419
O6	O	0.974573	0.114815	0.089385
O7	O	1.250479	0.119018	0.089411
Cu8	Cu	1.111520	0.117384	0.105709
Cu9	Cu	1.124552	0.111334	-0.105552
O10	O	1.103958	0.186910	0.089377
C11	C	0.944796	0.110418	0.000062
C12	C	0.839651	0.104930	0.000053
C13	C	0.647135	0.094899	0.000077
C14	C	0.588932	0.133816	0.000070
C15	C	0.481809	0.128235	0.000084
C16	C	0.754267	0.100480	0.000064
C17	C	1.126244	0.026341	0.000103
C18	C	1.125160	-0.027364	0.000111
C19	C	1.204929	-0.362437	0.000064
C20	C	1.200910	-0.564286	0.000049
O21	O	1.273853	-0.592120	0.000008
N22	N	1.114029	-0.587487	0.000041
C23	C	1.028146	-0.560223	0.000031
O24	O	0.954156	-0.584589	0.000013
C25	C	1.032166	-0.358376	0.000038
C26	C	1.119052	-0.335177	0.000057
C27	C	1.291808	-0.339238	0.000081
C28	C	1.292811	-0.288779	0.000091
C29	C	1.206935	-0.261519	0.000083
C30	C	1.120056	-0.284718	0.000066
C31	C	0.946285	-0.331113	0.000020
C32	C	0.947297	-0.280648	0.000019
C33	C	1.034184	-0.257449	0.000038
C34	C	1.035183	-0.206998	0.000069
N35	N	1.122064	-0.183797	0.000076
C36	C	1.207940	-0.211057	0.000083
C37	C	1.026041	-0.666196	0.000029
C38	C	1.025036	-0.716658	0.000029
C39	C	1.197801	-0.720717	0.000045
C40	C	1.198805	-0.670254	0.000052
C41	C	1.112923	-0.642995	0.000036
C42	C	1.210041	-0.105089	0.000105
C43	C	1.211036	-0.054625	0.000119
C44	C	1.038272	-0.050570	0.000097
C45	C	1.037276	-0.101029	0.000089
C46	C	1.123168	-0.128288	0.000089
O47	O	0.962280	-0.179134	0.000097
O48	O	1.281921	-0.186683	0.000077
C49	C	1.203925	-0.412897	0.000054
C50	C	1.117046	-0.436096	0.000037
C51	C	1.031169	-0.408835	0.000030
C52	C	1.116040	-0.486557	0.000037
C53	C	1.201917	-0.513818	0.000044
C54	C	1.288798	-0.490616	0.000052
C55	C	1.289801	-0.440157	0.000061
C56	C	0.944288	-0.432037	0.000023
C57	C	0.943291	-0.482496	0.000014
C58	C	1.029168	-0.509756	0.000021
C59	C	1.291276	0.118300	0.000092
C60	C	1.396422	0.123787	0.000094
C61	C	1.109828	0.202377	0.000052
C62	C	1.110912	0.256082	0.000036
N63	N	1.102361	0.121638	0.254299
N64	N	1.133718	0.107076	-0.254143
C65	C	1.088888	0.127901	0.473411
C66	C	1.147188	0.100815	0.526752
C67	C	1.139692	0.104299	0.648674
C68	C	1.096383	0.124417	0.351479
H69	H	0.619555	0.171325	0.000054
C70	C	1.221305	0.066432	0.465565
C71	C	1.312737	0.078931	0.492686
C72	C	1.380993	0.047263	0.436289
H73	H	1.216593	0.068638	0.390575
H74	H	1.210305	0.034262	0.483919
H75	H	1.323734	0.111092	0.474325
H76	H	1.317480	0.076721	0.567667
H77	H	1.369993	0.015094	0.454643
H78	H	1.376272	0.049472	0.361302
H79	H	1.443037	0.055737	0.454690
H80	H	1.033350	0.153706	0.519306
H81	H	0.875533	-0.349993	-0.000001
C82	C	0.606353	0.044880	0.000307
C83	C	0.631828	0.022485	0.092225
C84	C	0.594255	-0.023589	0.092474
H85	H	0.631199	0.025990	-0.061916
H86	H	0.538729	0.047710	0.000368
H87	H	0.699438	0.019653	0.092154
H88	H	0.606982	0.041361	0.154464
H89	H	0.526631	-0.020760	0.092535
H90	H	0.619104	-0.042475	0.030247
H91	H	0.611527	-0.038788	0.154844
H92	H	1.281792	-0.035739	0.000136
H93	H	1.279983	-0.127277	0.000100
H94	H	1.363564	-0.269896	0.000101
H95	H	1.361743	-0.361429	0.000083
C96	C	1.293241	-0.645161	0.000004
C97	C	1.368227	-0.679842	-0.000014
C98	C	1.455240	-0.656748	-0.000077
H99	H	1.293525	-0.623781	0.062280
H100	H	1.301122	-0.627355	-0.062319
H101	H	1.360348	-0.697640	0.062303
H102	H	1.367974	-0.701224	-0.062285
H103	H	1.463121	-0.638942	-0.062401
H104	H	1.455514	-0.635368	0.062199
H105	H	1.506129	-0.680275	-0.000100
C106	C	1.291026	-0.750351	-0.000180
C107	C	1.301155	-0.782054	-0.092105
C108	C	1.387022	-0.809357	-0.092366
H109	H	1.290484	-0.768386	0.062039
H110	H	1.342951	-0.729328	-0.000239
H111	H	1.249243	-0.803074	-0.092035
H112	H	1.301713	-0.764031	-0.154338
H113	H	1.438947	-0.788334	-0.092425
H114	H	1.386473	-0.827390	-0.030143
H115	H	1.393910	-0.830868	-0.154740
C116	C	0.930606	-0.741753	-0.000033
C117	C	0.855623	-0.707074	-0.000070
C118	C	0.768619	-0.730173	-0.000149
H119	H	0.922639	-0.759574	0.062243
H120	H	0.930413	-0.763122	-0.062356
H121	H	0.855814	-0.685714	0.062246
H122	H	0.863558	-0.689252	-0.062342
H123	H	0.768427	-0.751541	-0.062472
H124	H	0.760662	-0.747992	0.062128
H125	H	0.717734	-0.706647	-0.000184
H126	H	0.877360	-0.258456	0.000005
C127	C	0.932832	-0.636587	-0.000202
C128	C	0.934004	-0.610134	-0.092122
C129	C	0.848151	-0.582860	-0.092373
H130	H	0.925697	-0.614998	0.062020
H131	H	0.880929	-0.657622	-0.000262
H132	H	0.985892	-0.589100	-0.092052
H133	H	0.941124	-0.631711	-0.154359
H134	H	0.796248	-0.603895	-0.092434
H135	H	0.841023	-0.561274	-0.030147
H136	H	0.848931	-0.564912	-0.154744
H137	H	0.966524	-0.119918	0.000104
C138	C	0.945083	-0.020948	-0.000137
C139	C	0.946292	0.005506	-0.092057
C140	C	0.860459	0.032795	-0.092326
H141	H	0.937954	0.000642	0.062085
H142	H	0.893165	-0.041973	-0.000207
H143	H	0.998196	0.026529	-0.091977
H144	H	0.953406	-0.016072	-0.154294
H145	H	0.808540	0.011770	-0.092396
H146	H	0.853337	0.054382	-0.030100
H147	H	0.861264	0.050744	-0.154697
C148	C	1.384239	-0.415065	0.000018
C149	C	1.459222	-0.449749	-0.000007
C150	C	1.546237	-0.426657	-0.000064
H151	H	1.384525	-0.393688	0.062297
H152	H	1.392123	-0.397257	-0.062302
H153	H	1.451341	-0.467549	0.062306
H154	H	1.458967	-0.471128	-0.062282
H155	H	1.554121	-0.408848	-0.062384
H156	H	1.546513	-0.405279	0.062216
H157	H	1.597124	-0.450186	-0.000091
C158	C	0.848965	-0.507700	0.000213
C159	C	0.837642	-0.533921	0.092121
C160	C	0.750759	-0.557139	0.092336
H161	H	0.848731	-0.529112	-0.062017
H162	H	0.797936	-0.484247	0.000265
H163	H	0.888657	-0.557372	0.092060
H164	H	0.837859	-0.512521	0.154366
H165	H	0.699731	-0.533685	0.092388
H166	H	0.750533	-0.578548	0.030102
H167	H	0.743062	-0.574929	0.154699
C168	C	1.382021	-0.520251	-0.000166
C169	C	1.392158	-0.551953	-0.092092
C170	C	1.478023	-0.579258	-0.092343
H171	H	1.381472	-0.538287	0.062052
H172	H	1.433947	-0.499228	-0.000217
H173	H	1.340245	-0.572973	-0.092031
H174	H	1.392724	-0.533930	-0.154325
H175	H	1.529949	-0.558235	-0.092395
H176	H	1.477466	-0.597291	-0.030121
H177	H	1.484916	-0.600768	-0.154718
C178	C	0.851085	-0.402426	-0.000202
C179	C	0.852257	-0.375969	-0.092115
C180	C	0.766404	-0.348694	-0.092359
H181	H	0.843952	-0.380840	0.062025
H182	H	0.799182	-0.423462	-0.000266
H183	H	0.904145	-0.354935	-0.092041
H184	H	0.859376	-0.397543	-0.154356
H185	H	0.714501	-0.369730	-0.092423
H186	H	0.759277	-0.327111	-0.030128
H187	H	0.767184	-0.330743	-0.154725
