data_functionalizedCrystal
_audit_creation_method	'MofGen! by Chris Wilmer'
_symmetry_space_group_name_H-M	'P1'
_symmetry_Int_Tables_number	1
_symmetry_cell_setting	triclinic
loop_
_symmetry_equiv_pos_as_xyz
  x,y,z
_cell_length_a	13.032721
_cell_length_b	13.032951
_cell_length_c	10.685880
_cell_angle_alpha	100.956036
_cell_angle_beta	102.020524
_cell_angle_gamma	89.099524
loop_
_atom_site_label
_atom_site_type_symbol
_atom_site_fract_x
_atom_site_fract_y
_atom_site_fract_z
Zn1	Zn	-0.684025	-1.578139	-1.059959
Zn2	Zn	-0.184025	-1.078139	-0.559959
Zn3	Zn	-0.842516	-1.545710	-0.868287
Zn4	Zn	-0.342516	-1.045710	-0.368287
Zn5	Zn	-0.644921	-1.392754	-0.814596
Zn6	Zn	-0.144921	-0.892754	-0.314596
Zn7	Zn	-0.833579	-1.383913	-1.053083
Zn8	Zn	-0.333579	-0.883913	-0.553083
O9	O	-0.751260	-1.475129	-0.948981
O10	O	-0.251260	-0.975129	-0.448981
O11	O	-0.725154	-1.719134	-1.059881
O12	O	-0.225154	-1.219134	-0.559881
O13	O	-0.803679	-1.515549	-0.681142
O14	O	-0.303679	-1.015549	-0.181142
O15	O	-0.504825	-1.434617	-0.827552
O16	O	-0.004825	-0.934617	-0.327552
O17	O	-0.841597	-1.695309	-0.919060
O18	O	-0.341597	-1.195309	-0.419060
O19	O	-0.533554	-1.570819	-1.007819
O20	O	-0.033554	-1.070819	-0.507819
O21	O	-0.658507	-1.403172	-0.641696
O22	O	-0.158507	-0.903172	-0.141696
O23	O	-0.649841	-1.246284	-0.820885
O24	O	-0.149841	-0.746284	-0.320885
O25	O	-0.826365	-1.419549	-1.234017
O26	O	-0.326365	-0.919549	-0.734017
O27	O	-0.788448	-1.239788	-0.996099
O28	O	-0.288448	-0.739788	-0.496099
O29	O	-0.716488	-1.562246	-1.239069
O30	O	-0.216488	-1.062246	-0.739069
O31	O	-0.986613	-1.506976	-0.912393
O32	O	-0.486613	-1.006976	-0.412393
O33	O	-0.980047	-1.388104	-1.048161
O34	O	-0.480047	-0.888104	-0.548161
C35	C	-0.713932	-1.205362	-0.901921
C36	C	-0.213932	-0.705362	-0.401921
C37	C	-0.697990	-1.089954	-0.881822
C38	C	-0.197990	-0.589954	-0.381822
C39	C	-1.021007	-1.443091	-0.985390
C40	C	-0.521007	-0.943091	-0.485390
C41	C	-1.136421	-1.429482	-1.001025
C42	C	-0.636421	-0.929482	-0.501025
C43	C	-0.759556	-1.035296	-0.959450
C44	C	-0.259556	-0.535296	-0.459450
C45	C	-0.743081	-0.916015	-0.938679
C46	C	-0.243081	-0.416015	-0.438679
C47	C	-1.191103	-1.482290	-0.940889
C48	C	-0.691103	-0.982290	-0.440889
C49	C	-1.310390	-1.468226	-0.957047
C50	C	-0.810390	-0.968226	-0.457047
C51	C	-0.480466	-1.507322	-0.912464
C52	C	0.019534	-1.007322	-0.412464
C53	C	-0.365070	-1.521040	-0.896902
C54	C	0.134930	-1.021040	-0.396902
C55	C	-0.774792	-1.493528	-1.284526
C56	C	-0.274792	-0.993528	-0.784526
C57	C	-0.784819	-1.501369	-1.427516
C58	C	-0.284819	-1.001369	-0.927516
C59	C	-0.788722	-0.745950	-0.996216
C60	C	-0.288722	-0.245950	-0.496216
C61	C	-0.804655	-0.861360	-1.016319
C62	C	-0.304655	-0.361360	-0.516319
C63	C	-0.727753	-1.456870	-0.614742
C64	C	-0.227753	-0.956870	-0.114742
C65	C	-0.717461	-1.449265	-0.471749
C66	C	-0.217461	-0.949265	0.028251
H67	H	-0.824458	-1.076809	-1.041293
H68	H	-0.324458	-0.576809	-0.541293
C69	C	-0.873093	-1.569747	-1.524124
C70	C	-0.373093	-1.069747	-1.024124
H71	H	-0.914009	-1.601378	-1.477202
H72	H	-0.414009	-1.101378	-0.977202
H73	H	-0.843271	-1.622549	-1.579065
H74	H	-0.343271	-1.122549	-1.079065
H75	H	-0.916471	-1.527488	-1.575700
H76	H	-0.416471	-1.027488	-1.075700
C77	C	-1.135055	-1.557433	-0.855176
C78	C	-0.635055	-1.057433	-0.355176
H79	H	-1.062232	-1.557023	-0.855554
H80	H	-0.562232	-1.057023	-0.355554
H81	H	-1.163685	-1.626153	-0.888613
H82	H	-0.663685	-1.126153	-0.388613
H83	H	-1.144658	-1.535467	-0.768466
H84	H	-0.644658	-1.035467	-0.268466
H85	H	-0.652118	-1.398646	-1.400218
H86	H	-0.152118	-0.898646	-0.900218
H87	H	-1.351884	-1.412604	-1.020505
H88	H	-0.851884	-0.912604	-0.520505
H89	H	-0.869559	-0.902868	-1.098170
H90	H	-0.369559	-0.402868	-0.598170
H91	H	-1.323579	-1.576671	-0.833455
H92	H	-0.823579	-1.076671	-0.333455
H93	H	-0.633081	-1.048442	-0.799988
H94	H	-0.133081	-0.548442	-0.299988
H95	H	-0.678167	-0.874507	-0.856840
H96	H	-0.178167	-0.374507	-0.356840
C97	C	-1.192470	-1.354341	-1.086740
C98	C	-0.692470	-0.854341	-0.586740
H99	H	-1.265291	-1.354741	-1.086349
H100	H	-0.765291	-0.854741	-0.586349
H101	H	-1.182862	-1.376296	-1.173442
H102	H	-0.682862	-0.876296	-0.673442
H103	H	-1.163841	-1.285615	-1.053290
H104	H	-0.663841	-0.785615	-0.553290
