data_functionalizedCrystal
_audit_creation_method	'MofGen! by Chris Wilmer'
_symmetry_space_group_name_H-M	'P1'
_symmetry_Int_Tables_number	1
_symmetry_cell_setting	triclinic
loop_
_symmetry_equiv_pos_as_xyz
  x,y,z
_cell_length_a	15.995343
_cell_length_b	15.995350
_cell_length_c	14.472310
_cell_angle_alpha	89.998838
_cell_angle_beta	89.991294
_cell_angle_gamma	96.509221
loop_
_atom_site_label
_atom_site_type_symbol
_atom_site_fract_x
_atom_site_fract_y
_atom_site_fract_z
O1	O	1.111001	-0.107890	-0.076744
O2	O	0.867224	-0.121224	-0.076765
O3	O	0.995776	0.007331	-0.076753
O4	O	0.982449	-0.236445	-0.076756
O5	O	0.995743	0.007323	0.076929
O6	O	0.867191	-0.121232	0.076917
O7	O	1.110968	-0.107897	0.076938
Cu8	Cu	0.989076	-0.114565	0.090960
Cu9	Cu	0.989116	-0.114556	-0.090787
O10	O	0.982416	-0.236452	0.076926
C11	C	0.836013	-0.120678	0.000073
C12	C	0.743062	-0.119028	0.000065
C13	C	0.572876	-0.116035	0.000077
C14	C	0.549530	-0.023238	0.000078
C15	C	0.452852	-0.021492	0.000432
C16	C	0.405316	-0.113086	0.000088
C17	C	0.434389	-0.159750	0.087673
C18	C	0.531181	-0.160851	0.087741
C19	C	0.531129	-0.162201	-0.087030
C20	C	0.434635	-0.158776	-0.088176
C21	C	0.310618	-0.111425	0.000098
C22	C	0.667574	-0.117699	0.000074
C23	C	0.995209	0.038522	0.000086
C24	C	0.993557	0.131472	0.000081
C25	C	1.142179	-0.108444	0.000098
C26	C	1.235130	-0.110093	0.000101
C27	C	0.982983	-0.267643	0.000085
C28	C	0.984635	-0.360594	0.000084
N29	N	0.989055	-0.114571	0.218791
C30	C	0.987625	0.469220	0.000083
C31	C	0.896073	0.421783	-0.000269
C32	C	0.897725	0.325093	0.000077
C33	C	0.990567	0.301659	0.000082
C34	C	1.035705	0.342734	0.087844
C35	C	1.033405	0.439369	0.087917
C36	C	1.035334	0.439736	-0.086848
C37	C	1.035313	0.342791	-0.088008
C38	C	0.992235	0.206962	0.000084
C39	C	0.985960	0.563917	0.000088
N40	N	0.989144	-0.114544	-0.218618
C41	C	0.989114	-0.114553	0.592882
C42	C	0.920098	-0.183109	0.553710
C43	C	0.920257	-0.183359	0.446622
C44	C	0.989084	-0.114562	0.407291
C45	C	1.076449	-0.133641	0.446136
C46	C	1.076061	-0.134128	0.553257
C47	C	0.971545	-0.026714	0.553410
C48	C	0.969541	-0.027299	0.446283
C49	C	0.989073	-0.114565	0.302403
C50	C	0.989132	-0.114551	0.697770
H51	H	0.545143	-0.230506	-0.087875
H52	H	1.005416	0.460278	-0.153366
H53	H	0.578501	0.012142	0.062793
C54	C	0.990771	0.305934	-0.175721
N55	N	0.957214	0.278176	-0.241785
C56	C	0.882717	-0.007739	0.411991
N57	N	0.817319	0.006990	0.386159
H58	H	0.859629	0.441373	0.062310
H59	H	0.545754	-0.228902	0.091485
H60	H	1.091544	-0.198189	0.578234
C61	C	0.587401	0.025367	-0.084750
N62	N	0.615936	0.061979	-0.148641
H63	H	1.103019	0.327431	-0.093303
C64	C	0.390136	-0.249075	-0.095672
N65	N	0.356622	-0.317094	-0.101310
H66	H	0.855317	-0.171992	0.420360
C67	C	0.569334	-0.122639	-0.176744
N68	N	0.598111	-0.092831	-0.244313
H69	H	0.402542	-0.227161	0.090683
C70	C	1.124208	0.482939	0.093315
N71	N	1.192600	0.515752	0.097387
H72	H	0.434402	0.014859	0.063585
C73	C	0.427176	0.027869	-0.084361
N74	N	0.407842	0.065057	-0.148226
C75	C	1.126523	0.482651	-0.087645
N76	N	1.195203	0.514980	-0.088239
C77	C	0.407233	-0.116502	0.176067
N78	N	0.386783	-0.083922	0.242643
H79	H	0.854948	-0.171929	0.579492
H80	H	0.931477	-0.248543	0.420988
H81	H	0.557953	-0.128918	0.153462
C82	C	0.935044	-0.270676	0.590062
N83	N	0.946304	-0.336630	0.617444
C84	C	0.849433	0.287440	0.085207
N85	N	0.813059	0.259081	0.149332
C86	C	1.033054	0.044851	0.410139
N87	N	1.080904	0.099192	0.382923
H88	H	1.021876	0.024304	0.578742
C89	C	0.409576	-0.112873	-0.175716
N90	N	0.390695	-0.078298	-0.241649
C91	C	1.147543	-0.069258	0.588265
N92	N	1.201392	-0.020409	0.614628
H93	H	1.092301	-0.196971	0.419299
C94	C	0.849782	0.286696	-0.084910
N95	N	0.813665	0.257778	-0.148922
C96	C	0.993311	0.304393	0.176072
N97	N	0.961375	0.275517	0.242523
C98	C	0.846648	0.446830	-0.085287
N99	N	0.809420	0.465704	-0.149323
C100	C	1.147491	-0.067981	0.411715
N101	N	1.200999	-0.018524	0.385786
C102	C	0.988892	0.464089	0.176535
N103	N	0.955360	0.482703	0.243282
H104	H	1.103913	0.328610	0.091111
H105	H	0.909222	-0.008367	0.580473
