data_functionalizedCrystal
_audit_creation_method	'MofGen! by Chris Wilmer'
_symmetry_space_group_name_H-M	'P1'
_symmetry_Int_Tables_number	1
_symmetry_cell_setting	triclinic
loop_
_symmetry_equiv_pos_as_xyz
  x,y,z
_cell_length_a	15.995350
_cell_length_b	16.992695
_cell_length_c	15.455313
_cell_angle_alpha	92.853997
_cell_angle_beta	87.325057
_cell_angle_gamma	87.080298
loop_
_atom_site_label
_atom_site_type_symbol
_atom_site_fract_x
_atom_site_fract_y
_atom_site_fract_z
O1	O	1.121182	0.097646	-0.071990
O2	O	1.621182	0.597646	0.428010
O3	O	0.878243	0.110125	-0.072018
O4	O	1.378243	0.610125	0.427982
O5	O	0.998739	-0.010258	-0.072012
O6	O	1.498739	0.489742	0.427988
O7	O	1.000686	0.218028	-0.071996
O8	O	1.500686	0.718028	0.428004
O9	O	0.991847	-0.003402	0.072250
O10	O	1.491847	0.496598	0.572250
O11	O	0.871351	0.116981	0.072243
O12	O	1.371351	0.616981	0.572243
O13	O	1.114290	0.104501	0.072272
O14	O	1.614290	0.604501	0.572272
Cu15	Cu	0.992191	0.111367	0.085430
Cu16	Cu	1.492191	0.611367	0.585430
Cu17	Cu	1.000342	0.103259	-0.085176
Cu18	Cu	1.500342	0.603259	0.414824
O19	O	0.993794	0.224884	0.072265
O20	O	1.493794	0.724884	0.572265
C21	C	0.843568	0.113037	0.000109
C22	C	1.343568	0.613037	0.500109
C23	C	0.750515	0.111489	0.000097
C24	C	1.250515	0.611489	0.500097
C25	C	1.148965	0.101590	0.000143
C26	C	1.648965	0.601590	0.500143
C27	C	1.242019	0.103137	0.000149
C28	C	1.742019	0.603137	0.500149
C29	C	0.999746	0.250669	0.000137
C30	C	1.499746	0.750669	0.500137
C31	C	1.007222	0.337713	0.000143
C32	C	1.507222	0.837713	0.500143
C33	C	1.580140	0.108690	0.000114
C34	C	2.080140	0.608690	0.500114
C35	C	1.538427	0.194441	0.000446
C36	C	2.038427	0.694441	0.500446
C37	C	1.441648	0.192878	0.000130
C38	C	1.941648	0.692878	0.500130
C39	C	1.412394	0.105936	0.000132
C40	C	1.912394	0.605936	0.500132
C41	C	1.454561	0.059733	-0.082253
C42	C	1.954561	0.559733	0.417747
C43	C	1.551345	0.061883	-0.082331
C44	C	2.051345	0.561883	0.417669
C45	C	1.543780	0.067909	0.081721
C46	C	2.043780	0.567909	0.581721
C47	C	1.446784	0.067981	0.082819
C48	C	1.946784	0.567981	0.582819
C49	C	1.317592	0.104374	0.000139
C50	C	1.817592	0.604374	0.500139
C51	C	1.674942	0.110249	0.000101
C52	C	2.174942	0.610249	0.500101
C53	C	0.992788	-0.036043	0.000115
C54	C	1.492788	0.463957	0.500115
C55	C	0.985312	-0.123087	0.000103
C56	C	1.485312	0.376913	0.500103
N57	N	0.986464	0.117069	0.205425
N58	N	1.486464	0.617069	0.705425
C59	C	0.935087	0.387953	0.000134
C60	C	1.435087	0.887953	0.500134
C61	C	0.942117	0.469740	0.000124
C62	C	1.442117	0.969740	0.500124
C63	C	1.021282	0.501284	0.000129
C64	C	1.521282	1.001284	0.500129
C65	C	1.093423	0.451038	0.000135
C66	C	1.593423	0.951038	0.500135
C67	C	1.086392	0.369253	0.000139
C68	C	1.586392	0.869253	0.500139
C69	C	1.050422	0.744881	0.000113
C70	C	1.550422	1.244881	0.500113
C71	C	1.057447	0.826673	0.000112
C72	C	1.557447	1.326673	0.500112
C73	C	0.906140	0.845369	0.000099
C74	C	1.406140	1.345369	0.500099
C75	C	0.899116	0.763582	0.000108
C76	C	1.399116	1.263582	0.500108
C77	C	0.971257	0.713342	0.000109
C78	C	1.471257	1.213342	0.500109
N79	N	1.028470	0.584883	0.000122
N80	N	1.528470	1.084883	0.500122
N81	N	0.964069	0.629745	0.000111
N82	N	1.464069	1.129745	0.500111
N83	N	1.006075	0.097551	-0.205172
N84	N	1.506075	0.597551	0.294828
C85	C	1.037675	0.065945	0.250822
C86	C	1.537675	0.565945	0.750822
C87	C	1.033352	0.070264	0.341630
C88	C	1.533352	0.570264	0.841630
C89	C	0.977822	0.125712	0.387039
C90	C	1.477822	0.625712	0.887039
C91	C	0.926605	0.176838	0.341635
C92	C	1.426605	0.676838	0.841635
C93	C	0.930925	0.172515	0.250829
C94	C	1.430925	0.672515	0.750829
C95	C	0.959178	0.144354	0.658619
C96	C	1.459178	0.644354	1.158619
C97	C	0.954864	0.148675	0.749431
C98	C	1.454864	0.648675	1.249431
C99	C	1.061611	0.042100	0.749419
C100	C	1.561611	0.542100	1.249419
C101	C	1.065928	0.037784	0.658612
C102	C	1.565928	0.537784	1.158612
C103	C	1.014709	0.088908	0.613216
C104	C	1.514709	0.588908	1.113216
N105	N	0.973404	0.130130	0.479859
N106	N	1.473404	0.630130	0.979859
N107	N	1.019123	0.084485	0.520398
N108	N	1.519123	0.584485	1.020398
H109	H	1.412641	0.228929	0.059184
H110	H	1.912641	0.728929	0.559184
Br111	Br	1.184294	0.301068	0.000142
Br112	Br	1.684294	0.801068	0.500142
H113	H	1.103310	0.000477	0.786388
H114	H	1.603310	0.500477	1.286388
H115	H	0.870621	0.362277	0.000140
H116	H	1.370621	0.862277	0.500140
H117	H	1.075052	0.028635	0.378591
H118	H	1.575052	0.528635	0.878591
H119	H	1.109164	0.703986	0.000119
H120	H	1.609164	1.203986	0.500119
H121	H	1.556442	0.231516	0.059520
H122	H	2.056442	0.731516	0.559520
H123	H	0.883377	0.510642	0.000114
H124	H	1.383377	1.010642	0.500114
Br125	Br	0.879499	0.223936	0.811053
Br126	Br	1.379499	0.723936	1.311053
H127	H	1.563227	0.098906	0.144159
H128	H	2.063227	0.598906	0.644159
H129	H	1.418651	0.101756	0.143767
H130	H	1.918651	0.601756	0.643767
H131	H	1.111146	-0.007366	0.621641
H132	H	1.611146	0.492634	1.121641
Br133	Br	1.200864	0.493847	0.000132
Br134	Br	1.700864	0.993847	0.500132
H135	H	1.431036	0.086171	-0.143555
H136	H	1.931036	0.586171	0.356445
H137	H	1.121916	0.852353	0.000116
H138	H	1.621916	1.352353	0.500116
H139	H	0.917474	0.185982	0.621665
H140	H	1.417474	0.685982	1.121665
Br141	Br	1.579542	0.246652	-0.097469
Br142	Br	2.079542	0.746652	0.402531
Br143	Br	1.113048	-0.009304	0.189205
Br144	Br	1.613048	0.490696	0.689205
Br145	Br	1.589633	-0.037399	0.082649
Br146	Br	2.089633	0.462601	0.582649
Br147	Br	1.403619	0.243964	-0.098460
Br148	Br	1.903619	0.743964	0.401540
H149	H	0.889222	0.214144	0.213868
H150	H	1.389222	0.714144	0.713868
H151	H	1.574639	0.089795	-0.143912
H152	H	2.074639	0.589795	0.356088
Br153	Br	1.598376	-0.043322	-0.088582
Br154	Br	2.098376	0.456678	0.411418
Br155	Br	1.424141	-0.046974	-0.087363
Br156	Br	1.924141	0.453026	0.412637
Br157	Br	1.413711	-0.037300	0.091119
Br158	Br	1.913711	0.462700	0.591119
H159	H	0.834652	0.737904	0.000094
H160	H	1.334652	1.237904	0.500094
H161	H	0.881387	0.221983	0.378613
H162	H	1.381387	0.721983	0.878613
Br163	Br	0.808241	0.913554	0.000093
Br164	Br	1.308241	1.413554	0.500093
