data_functionalizedCrystal
_audit_creation_method	'MofGen! by Chris Wilmer'
_symmetry_space_group_name_H-M	'P1'
_symmetry_Int_Tables_number	1
_symmetry_cell_setting	triclinic
loop_
_symmetry_equiv_pos_as_xyz
  x,y,z
_cell_length_a	10.686220
_cell_length_b	12.645330
_cell_length_c	10.686551
_cell_angle_alpha	94.406611
_cell_angle_beta	89.691918
_cell_angle_gamma	94.394340
loop_
_atom_site_label
_atom_site_type_symbol
_atom_site_fract_x
_atom_site_fract_y
_atom_site_fract_z
Zn1	Zn	1.972300	-0.258448	0.562381
Zn2	Zn	2.472300	0.241552	1.062381
Zn3	Zn	1.956079	-0.450323	0.352619
Zn4	Zn	2.456079	0.049677	0.852619
Zn5	Zn	1.746419	-0.285567	0.368698
Zn6	Zn	2.246419	0.214433	0.868698
Zn7	Zn	1.762509	-0.448175	0.578396
Zn8	Zn	2.262509	0.051825	1.078396
O9	O	1.859327	-0.360628	0.465524
O10	O	2.359327	0.139372	0.965524
O11	O	2.145689	-0.273451	0.521124
O12	O	2.645689	0.226549	1.021124
O13	O	1.914746	-0.440716	0.179206
O14	O	2.414746	0.059284	0.679206
O15	O	1.776437	-0.133617	0.394417
O16	O	2.276437	0.366383	0.894417
O17	O	2.133772	-0.414421	0.367012
O18	O	2.633772	0.085579	0.867012
O19	O	1.942391	-0.113693	0.536715
O20	O	2.442391	0.386307	1.036715
O21	O	1.760709	-0.319670	0.191019
O22	O	2.260709	0.180330	0.691019
O23	O	1.573012	-0.317587	0.409947
O24	O	2.073012	0.182413	0.909947
O25	O	1.803860	-0.410759	0.751818
O26	O	2.303860	0.089241	1.251818
O27	O	1.584834	-0.437055	0.564011
O28	O	2.084834	0.062945	1.064011
O29	O	1.957992	-0.271368	0.740051
O30	O	2.457992	0.228632	1.240051
O31	O	1.930347	-0.598391	0.382542
O32	O	2.430347	-0.098391	0.882542
O33	O	1.788132	-0.596812	0.548420
O34	O	2.288132	-0.096812	1.048420
C35	C	1.533407	-0.380031	0.490462
C36	C	2.033407	0.119969	0.990462
C37	C	1.393979	-0.388355	0.501161
C38	C	1.893979	0.111645	1.001161
C39	C	1.859262	-0.636064	0.465499
C40	C	2.359262	-0.136064	0.965499
C41	C	1.859352	-0.753887	0.465521
C42	C	2.359352	-0.253887	0.965521
C43	C	1.948649	-0.922422	0.360983
C44	C	2.448649	-0.422422	0.860983
C45	C	1.948982	-0.799827	0.361196
C46	C	2.448982	-0.299827	0.861196
C47	C	1.905354	-0.786941	0.595009
C48	C	2.405354	-0.286941	1.095009
C49	C	1.906083	-0.909530	0.594435
C50	C	2.406083	-0.409530	1.094435
C51	C	1.724115	-0.931468	0.441878
C52	C	2.224115	-0.431468	0.941878
C53	C	1.724523	-0.809031	0.438864
C54	C	2.224523	-0.309031	0.938864
C55	C	2.186519	-0.341150	0.440488
C56	C	2.686519	0.158850	0.940488
C57	C	2.325949	-0.332850	0.429820
C58	C	2.825949	0.167150	0.929820
C59	C	1.884531	-0.337799	0.792724
C60	C	2.384531	0.162201	1.292724
C61	C	1.895271	-0.328070	0.932158
C62	C	2.395271	0.171930	1.432158
C63	C	1.859429	-0.084113	0.465573
C64	C	2.359429	0.415887	0.965573
C65	C	1.859472	0.033721	0.465595
C66	C	2.359472	0.533721	0.965595
C67	C	1.834293	-0.383288	0.139590
C68	C	2.334293	0.116712	0.639590
C69	C	1.823796	-0.392704	0.000139
C70	C	2.323796	0.107296	0.500139
H71	H	1.374372	-0.278963	0.360555
H72	H	1.874372	0.221037	0.860555
O73	O	1.909327	-0.770866	0.233591
O74	O	2.409327	-0.270866	0.733591
H75	H	1.889741	-0.844501	0.171171
H76	H	2.389741	-0.344501	0.671171
H77	H	1.918949	-0.960130	0.264343
H78	H	2.418949	-0.460130	0.764343
O79	O	1.329848	-0.459745	0.592920
O80	O	1.829848	0.040255	1.092920
H81	H	1.226727	-0.455300	0.587214
H82	H	1.726727	0.044700	1.087214
H83	H	1.964690	-0.265292	0.980632
H84	H	2.464690	0.234708	1.480632
O85	O	2.080460	-0.953343	0.380414
O86	O	2.580460	-0.453343	0.880414
H87	H	2.082736	-0.999809	0.464257
H88	H	2.582736	-0.499809	0.964257
H89	H	2.003537	-0.748408	0.616842
H90	H	2.503537	-0.248408	1.116842
H91	H	2.049030	-0.763002	0.376077
H92	H	2.549030	-0.263002	0.876077
H93	H	1.653672	-0.778379	0.510288
H94	H	2.153672	-0.278379	1.010288
O95	O	1.824531	-0.947259	0.700485
O96	O	2.324531	-0.447259	1.200485
H97	H	1.784755	-0.877946	0.751959
H98	H	2.284755	-0.377946	1.251959
O99	O	2.037537	-0.937011	0.622593
O100	O	2.537537	-0.437011	1.122593
H101	H	2.099991	-0.862791	0.636485
H102	H	2.599991	-0.362791	1.136485
O103	O	1.822539	-0.746870	0.700458
O104	O	2.322539	-0.246870	1.200458
H105	H	1.747537	-0.702860	0.661600
H106	H	2.247537	-0.202860	1.161600
H107	H	1.690020	-0.788409	0.343621
H108	H	2.190020	-0.288409	0.843621
O109	O	1.671292	-0.983817	0.319676
O110	O	2.171292	-0.483817	0.819676
H111	H	1.740934	-1.035238	0.274477
H112	H	2.240934	-0.535238	0.774477
O113	O	1.635855	-0.969285	0.542782
O114	O	2.135855	-0.469285	1.042782
H115	H	1.688067	-1.012639	0.609533
H116	H	2.188067	-0.512639	1.109533
H117	H	1.754390	-0.455484	0.951670
H118	H	2.254390	0.044516	1.451670
