data_functionalizedCrystal
_audit_creation_method	'MofGen! by Chris Wilmer'
_symmetry_space_group_name_H-M	'P1'
_symmetry_Int_Tables_number	1
_symmetry_cell_setting	triclinic
loop_
_symmetry_equiv_pos_as_xyz
  x,y,z
_cell_length_a	14.044191
_cell_length_b	12.503572
_cell_length_c	17.699081
_cell_angle_alpha	86.481254
_cell_angle_beta	88.236907
_cell_angle_gamma	93.837835
loop_
_atom_site_label
_atom_site_type_symbol
_atom_site_fract_x
_atom_site_fract_y
_atom_site_fract_z
O1	O	1.262758	0.089256	0.178461
O2	O	0.986804	0.089270	0.171871
O3	O	1.132578	0.089263	0.065515
O4	O	1.116983	0.089264	0.284817
O5	O	1.121615	-0.089378	0.073528
O6	O	0.975841	-0.089371	0.179884
O7	O	1.251794	-0.089385	0.186474
Cu8	Cu	1.112817	-0.105689	0.183911
Cu9	Cu	1.125782	0.105575	0.174435
O10	O	1.106020	-0.089378	0.292831
C11	C	0.946015	-0.000048	0.172995
C12	C	0.840809	-0.000043	0.164397
N13	N	1.103705	-0.254281	0.190576
C14	C	0.590417	-0.000053	0.209658
C15	C	0.648187	-0.000052	0.148691
C16	C	0.755372	-0.000047	0.157432
C17	C	0.483223	-0.000058	0.200918
C18	C	1.090300	-0.473396	0.200387
C19	C	1.148303	-0.526726	0.157955
C20	C	1.140844	-0.648649	0.163414
C21	C	1.097757	-0.351462	0.194929
C22	C	1.292584	-0.000064	0.185350
C23	C	1.397790	-0.000062	0.193948
N24	N	1.134901	0.254167	0.167764
C25	C	1.112060	-0.000057	0.317060
C26	C	1.113735	-0.000057	0.401193
C27	C	1.120499	0.097321	0.436349
C28	C	1.122086	0.097321	0.515401
C29	C	1.116901	-0.000059	0.559297
C30	C	1.110139	-0.097444	0.524136
C31	C	1.108560	-0.097443	0.445085
C32	C	1.116510	-0.097451	0.842940
C33	C	1.118087	-0.097445	0.921996
C34	C	1.130035	0.097312	0.913256
C35	C	1.128456	0.097313	0.834205
C36	C	1.121700	-0.000072	0.799051
C37	C	1.119981	-0.000070	0.713333
C38	C	1.118612	-0.000061	0.645013
C39	C	1.126537	-0.000060	1.041286
C40	C	1.124858	-0.000066	0.957153
H41	H	0.621455	-0.000050	0.268414
C42	C	1.134145	0.203152	0.786677
C43	C	1.140436	0.288435	0.834385
C44	C	1.145696	0.385951	0.790630
H45	H	1.078558	0.207359	0.757689
H46	H	1.189050	0.207252	0.753630
H47	H	1.085537	0.284337	0.867419
H48	H	1.196021	0.284264	0.863373
H49	H	1.200600	0.390051	0.757582
H50	H	1.090107	0.390146	0.761643
H51	H	1.149973	0.443826	0.822992
C52	C	1.101161	-0.203281	0.407056
C53	C	1.096932	-0.288563	0.462417
C54	C	1.090108	-0.386079	0.427415
H55	H	1.155518	-0.207483	0.374363
H56	H	1.045027	-0.207386	0.378461
H57	H	1.153061	-0.284461	0.490999
H58	H	1.042577	-0.284397	0.495113
H59	H	1.033973	-0.390184	0.398820
H60	H	1.144466	-0.390270	0.394722
H61	H	1.087229	-0.443955	0.464971
H62	H	1.111009	-0.176748	0.814327
H63	H	1.113860	-0.176748	0.957735
C64	C	1.221754	-0.465325	0.103947
C65	C	1.214537	-0.354850	0.109104
C66	C	1.282099	-0.298251	0.059295
H67	H	1.210219	-0.483692	0.053593
H68	H	1.284025	-0.483494	0.117028
H69	H	1.152281	-0.336689	0.096019
H70	H	1.226083	-0.336451	0.159446
H71	H	1.344370	-0.316419	0.072375
H72	H	1.270558	-0.316626	0.008944
H73	H	1.277217	-0.223288	0.062791
H74	H	1.035046	-0.519300	0.240813
H75	H	1.124712	0.176618	0.400615
H76	H	0.617153	0.000024	0.089926
H77	H	1.127595	0.176615	0.544021
H78	H	1.135540	0.176607	0.941888
C79	C	1.104472	-0.203061	0.571925
C80	C	1.107274	-0.182223	0.648680
C81	C	1.102039	-0.279492	0.692724
H82	H	1.156985	-0.243155	0.558818
H83	H	1.046491	-0.243078	0.562849
H84	H	1.165248	-0.142222	0.657751
H85	H	1.054765	-0.142144	0.661810
H86	H	1.044058	-0.319510	0.683649
H87	H	1.154554	-0.319579	0.679611
H88	H	1.103931	-0.265367	0.744808
