data_functionalizedCrystal
_audit_creation_method	'MofGen! by Chris Wilmer'
_symmetry_space_group_name_H-M	'P1'
_symmetry_Int_Tables_number	1
_symmetry_cell_setting	triclinic
loop_
_symmetry_equiv_pos_as_xyz
  x,y,z
_cell_length_a	12.811439
_cell_length_b	11.892095
_cell_length_c	12.837942
_cell_angle_alpha	85.697431
_cell_angle_beta	90.588939
_cell_angle_gamma	91.497754
loop_
_atom_site_label
_atom_site_type_symbol
_atom_site_fract_x
_atom_site_fract_y
_atom_site_fract_z
O1	O	-1.403420	-0.049853	0.143153
O2	O	-1.101351	-0.018888	0.156174
O3	O	-1.245687	-0.033691	-0.001316
O4	O	-1.259084	-0.035050	0.300643
O5	O	-1.233650	-0.220464	0.011795
O6	O	-1.089315	-0.205661	0.169285
O7	O	-1.391383	-0.236626	0.156264
Zn8	Zn	-1.238438	-0.250798	0.164856
Zn9	Zn	-1.254296	-0.004716	0.147582
O10	O	-1.247047	-0.221823	0.313754
C11	C	-1.056401	-0.108284	0.161599
C12	C	-0.940395	-0.096392	0.158218
C13	C	-0.709283	-0.277688	0.166140
C14	C	-0.600285	-0.266521	0.162963
C15	C	-0.613399	-0.062890	0.148680
C16	C	-0.722397	-0.074057	0.151857
C17	C	-0.770335	-0.181460	0.160589
C18	C	-0.879335	-0.192627	0.163773
C19	C	-0.892447	0.011003	0.149483
C20	C	-0.783449	0.022171	0.146306
N21	N	-1.227622	-0.418743	0.176644
C22	C	-1.340373	-0.666954	0.053696
C23	C	-1.332821	-0.784522	0.061944
C24	C	-1.204963	-0.771447	0.201382
C25	C	-1.212514	-0.653879	0.193134
C26	C	-1.280223	-0.601638	0.119290
C27	C	-1.287779	-0.484069	0.111048
C28	C	-1.159916	-0.470995	0.250480
C29	C	-1.152364	-0.588563	0.258728
C30	C	-0.436333	-0.147231	0.150843
C31	C	-0.552338	-0.159125	0.154235
C32	C	-1.235143	-0.126613	-0.033433
C33	C	-1.221647	-0.125228	-0.148666
N34	N	-1.265119	0.163228	0.135785
C35	C	-1.383905	-0.141837	-0.387757
C36	C	-1.371229	-0.140536	-0.496029
C37	C	-1.183618	-0.121315	-0.473484
C38	C	-1.196295	-0.122617	-0.365212
C39	C	-1.296441	-0.132880	-0.322353
C40	C	-1.309117	-0.134189	-0.214078
C41	C	-1.121508	-0.114961	-0.191536
C42	C	-1.108831	-0.113659	-0.299808
C43	C	-1.257591	-0.128899	0.345871
C44	C	-1.271088	-0.130277	0.461103
H45	H	-0.748314	-0.365140	0.173263
H46	H	-1.465448	-0.150205	-0.352860
H47	H	-0.550580	-0.344880	0.167489
N48	N	-1.465563	-0.150195	-0.566575
H49	H	-1.530925	-0.156893	-0.522990
H50	H	-1.459932	-0.219314	-0.607132
N51	N	-1.397705	-0.854974	-0.008794
H52	H	-1.441745	-0.804035	-0.056820
H53	H	-1.444632	-0.908865	0.034925
H54	H	-1.102084	-0.112948	-0.508401
H55	H	-1.149829	-0.813997	0.261497
H56	H	-1.027295	-0.105299	-0.334720
H57	H	-1.097234	-0.631111	0.318848
H58	H	-1.050288	-0.107676	-0.138271
H59	H	-0.918364	-0.280080	0.170889
H60	H	-0.574349	0.024553	0.141554
H61	H	-1.390661	-0.142550	-0.179184
N62	N	-0.731732	0.138002	0.136883
H63	H	-0.684726	0.147383	0.199441
H64	H	-0.787010	0.197201	0.133816
N65	N	-0.958295	0.114802	0.143505
H66	H	-1.034620	0.091433	0.146846
H67	H	-0.944183	0.161008	0.075635
H68	H	-1.342913	-0.441535	0.050923
N69	N	-1.413392	-0.610580	-0.025937
H70	H	-1.487306	-0.638723	-0.011661
H71	H	-1.392666	-0.629072	-0.098273
N72	N	-1.095031	-0.400557	0.321240
H73	H	-1.142591	-0.356325	0.364251
H74	H	-1.048041	-0.346714	0.277542
