data_functionalizedCrystal
_audit_creation_method	'MofGen! by Chris Wilmer'
_symmetry_space_group_name_H-M	'P1'
_symmetry_Int_Tables_number	1
_symmetry_cell_setting	triclinic
loop_
_symmetry_equiv_pos_as_xyz
  x,y,z
_cell_length_a	6.817900
_cell_length_b	7.190396
_cell_length_c	12.850268
_cell_angle_alpha	86.122989
_cell_angle_beta	91.777450
_cell_angle_gamma	113.844160
loop_
_atom_site_label
_atom_site_type_symbol
_atom_site_fract_x
_atom_site_fract_y
_atom_site_fract_z
V1	V	3.556587	-0.621536	0.124408
O2	O	3.607577	-0.619017	-0.025827
O3	O	3.458879	-0.608329	0.265769
O4	O	3.327052	-0.896695	0.113785
O5	O	3.740316	-0.328654	0.127209
V6	V	4.070075	-0.587593	0.107467
O7	O	3.752115	-0.695993	0.161568
O8	O	4.324745	-0.513136	0.070306
O9	O	3.944577	-0.600800	-0.033894
O10	O	4.136483	-0.590112	0.257701
O11	O	4.003744	-0.880475	0.104665
O12	O	4.076404	-0.312433	0.118090
C13	C	3.297754	-0.596222	0.300503
C14	C	3.297947	-0.587094	0.418182
C15	C	3.129602	-0.964051	0.106626
C16	C	3.020884	-1.193163	0.098729
C17	C	3.769068	-0.612912	-0.068622
C18	C	3.747700	-0.622088	-0.186300
V19	V	3.554239	-0.590692	0.609039
O20	O	3.589924	-0.598059	0.761757
O21	O	3.459225	-0.593090	0.462154
O22	O	3.590401	-0.304660	0.614107
O23	O	3.457841	-0.888485	0.608752
V24	V	4.007580	-0.678978	0.653696
O25	O	3.810514	-0.541637	0.584827
O26	O	4.177256	-0.777281	0.703025
O27	O	3.891407	-0.652163	0.788128
O28	O	4.082968	-0.684454	0.507528
O29	O	4.215052	-0.394027	0.660532
O30	O	3.760231	-0.940593	0.636176
C31	C	3.573427	0.009973	0.619870
C32	C	3.465269	-0.219174	0.612003
