data_functionalizedCrystal
_audit_creation_method	'MofGen! by Chris Wilmer'
_symmetry_space_group_name_H-M	'P1'
_symmetry_Int_Tables_number	1
_symmetry_cell_setting	triclinic
loop_
_symmetry_equiv_pos_as_xyz
  x,y,z
_cell_length_a	26.374263
_cell_length_b	26.373608
_cell_length_c	26.370205
_cell_angle_alpha	60.005297
_cell_angle_beta	60.010839
_cell_angle_gamma	59.993700
loop_
_atom_site_label
_atom_site_type_symbol
_atom_site_fract_x
_atom_site_fract_y
_atom_site_fract_z
O1	O	0.070152	-0.740800	0.619517
O2	O	0.026377	-0.576764	0.499159
O3	O	0.130245	-0.680560	0.499088
O4	O	-0.033715	-0.637003	0.619589
O5	O	0.164701	-0.646107	0.533470
O6	O	0.060833	-0.542310	0.533541
O7	O	0.104608	-0.706346	0.653899
Cu8	Cu	0.085867	-0.621182	0.596859
Cu9	Cu	0.045119	-0.661927	0.556199
O10	O	0.000741	-0.602549	0.653971
N11	N	0.114528	-0.592529	0.625461
N12	N	0.016463	-0.690587	0.527598
C13	C	0.181428	-0.355400	0.692330
C14	C	0.181530	-0.525690	0.862573
C15	C	0.181440	-0.525667	0.692313
C16	C	0.351736	-0.525673	0.692271
C17	C	0.200174	-0.411588	0.711047
C18	C	0.200232	-0.506954	0.806384
C19	C	0.295546	-0.506943	0.711016
C20	C	0.200182	-0.506940	0.711037
C21	C	0.157567	-0.283881	0.668507
C22	C	0.157587	-0.549500	0.668479
C23	C	0.224035	-0.483107	0.734871
C24	C	0.455739	-0.507754	0.637520
C25	C	0.520749	-0.529425	0.615835
C26	C	0.520768	-0.634611	0.655947
C27	C	0.455759	-0.612939	0.677633
C28	C	0.173240	-0.251367	0.604595
C29	C	0.151546	-0.186351	0.582941
C30	C	0.098512	-0.186369	0.689113
C31	C	0.120206	-0.251385	0.710768
C32	C	0.093669	-0.533798	0.684205
C33	C	0.071992	-0.555464	0.662532
C34	C	0.178144	-0.608536	0.609422
C35	C	0.199825	-0.586869	0.631088
C36	C	0.093821	-0.533842	0.966616
C37	C	0.072187	-0.555526	1.031630
C38	C	0.178370	-0.608608	1.031591
C39	C	0.200004	-0.586926	0.966576
C40	C	0.157728	-0.549541	0.934090
C41	C	0.423247	-0.549509	0.668416
C42	C	-0.097522	-0.709158	0.508557
C43	C	-0.002050	-0.709295	0.413344
C44	C	-0.002241	-0.804604	0.508735
C45	C	-0.002225	-0.709288	0.508793
C46	C	-0.026009	-0.733087	0.484858
N47	N	0.552340	-0.592538	0.625346
O48	O	0.750867	-0.598274	0.477076
O49	O	0.751048	-0.718989	0.640960
O50	O	0.750981	-0.718715	0.537020
O51	O	0.750934	-0.598547	0.581017
O52	O	0.647701	-0.684348	0.571512
O53	O	0.647768	-0.684622	0.675452
O54	O	0.647587	-0.563907	0.511569
Cu55	Cu	0.638247	-0.621127	0.596660
Cu56	Cu	0.760388	-0.661769	0.555869
O57	O	0.647654	-0.564181	0.615509
N58	N	0.846295	-0.690358	0.527176
N59	N	0.114503	-0.154778	0.625499
O60	O	-0.033701	0.043855	0.619632
O61	O	0.130190	0.043858	0.498933
O62	O	0.026233	0.043841	0.499224
O63	O	0.070257	0.043872	0.619341
O64	O	0.060690	-0.059448	0.533654
O65	O	0.164647	-0.059431	0.533363
O66	O	0.000756	-0.059434	0.654062
Cu67	Cu	0.085848	-0.068863	0.596857
Cu68	Cu	0.045099	0.053287	0.556138
O69	O	0.104714	-0.059417	0.653771
N70	N	0.016435	0.139202	0.527497
N71	N	0.114760	-0.592585	1.063190
O72	O	0.108896	-0.740779	1.261808
O73	O	-0.011787	-0.576838	1.261822
O74	O	-0.011509	-0.680779	1.261780
O75	O	0.108618	-0.636838	1.261850
O76	O	0.022916	-0.646341	1.158496
O77	O	0.022638	-0.542399	1.158538
O78	O	0.143321	-0.706341	1.158524
Cu79	Cu	0.086123	-0.621225	1.149100
Cu80	Cu	0.045411	-0.661953	1.271246
O81	O	0.143044	-0.602399	1.158566
N82	N	0.016774	-0.690600	1.357156
C83	C	0.039504	-0.538867	0.499769
C84	C	0.168130	-0.667407	0.499680
C85	C	0.091482	-0.744243	0.653289
C86	C	-0.037145	-0.615703	0.653378
C87	C	0.699429	-0.718429	0.678853
C88	C	0.699348	-0.718091	0.550135
C89	C	0.699202	-0.564465	0.473677
C90	C	0.699287	-0.564805	0.602393
C91	C	0.168023	-0.007659	0.499484
C92	C	0.039327	-0.007807	0.499887
C93	C	-0.037119	-0.007789	0.653468
C94	C	0.091620	-0.007770	0.653109
C95	C	-0.011194	-0.538964	1.210181
C96	C	-0.010843	-0.667676	1.210109
C97	C	0.142729	-0.744214	1.210165
C98	C	0.142386	-0.615494	1.210214
H99	H	0.059391	-0.503396	0.940172
H100	H	0.029900	-0.007810	0.462151
O101	O	0.699353	-0.519845	0.613667
C102	C	0.752876	-0.541209	0.628236
H103	H	0.770752	-0.594148	0.646049
H104	H	0.740862	-0.523269	0.665608
H105	H	0.790293	-0.523485	0.584832
H106	H	-0.084239	-0.606419	0.691217
H107	H	-0.084187	-0.007791	0.691362
O108	O	0.699573	-0.763719	0.734950
C109	C	0.753099	-0.816021	0.726732
H110	H	0.770901	-0.815312	0.677175
H111	H	0.741117	-0.860147	0.760755
H112	H	0.790558	-0.814896	0.735622
H113	H	-0.048566	-0.677061	1.210046
O114	O	0.224005	-0.007239	0.454084
C115	C	0.215508	0.046371	0.401927
H116	H	0.165930	0.064004	0.402770
H117	H	0.249496	0.034564	0.357698
H118	H	0.224225	0.083895	0.403135
H119	H	0.101045	-0.007760	0.690842
H120	H	0.699142	-0.526565	0.426612
H121	H	-0.049082	-0.491880	1.210184
H122	H	0.180620	-0.791296	1.210154
H123	H	0.180125	-0.606093	1.210228
O124	O	0.699339	-0.763051	0.538814
C125	C	0.699302	-0.740433	0.477771
H126	H	0.679707	-0.687534	0.461449
H127	H	0.669326	-0.759361	0.476886
H128	H	0.748840	-0.756114	0.445618
H129	H	0.212798	-0.639038	1.058038
O130	O	0.010091	-0.540290	1.063152
C131	C	-0.016920	-0.562527	1.047281
H132	H	0.013886	-0.568894	1.000071
H133	H	-0.064746	-0.527677	1.045071
H134	H	-0.021741	-0.608990	1.083864
O135	O	0.262101	-0.602285	0.935051
C136	C	0.289115	-0.667404	0.950909
H137	H	0.258311	-0.690162	0.998116
H138	H	0.336941	-0.682601	0.953120
H139	H	0.293937	-0.682106	0.914318
O140	O	0.052614	-0.497405	0.720428
C141	C	0.014996	-0.442882	0.687619
H142	H	0.040079	-0.433838	0.635603
H143	H	0.005168	-0.401931	0.699255
H144	H	-0.030677	-0.448787	0.701467
O145	O	0.009917	-0.540326	0.677829
C146	C	-0.005768	-0.594957	0.710557
H147	H	0.037080	-0.635801	0.698809
H148	H	-0.043479	-0.589141	0.696732
H149	H	-0.023590	-0.604106	0.762592
O150	O	0.219206	-0.644746	0.573013
C151	C	0.256777	-0.611915	0.518496
H152	H	0.231660	-0.559901	0.509470
H153	H	0.266593	-0.623537	0.477539
H154	H	0.302460	-0.625757	0.524393
O155	O	0.261908	-0.602010	0.615744
C156	C	0.277589	-0.547377	0.583038
H157	H	0.240916	-0.508320	0.561055
H158	H	0.324771	-0.555933	0.545139
H159	H	0.279760	-0.533701	0.616470
O160	O	0.224262	-0.678487	0.454476
C161	C	0.216101	-0.671513	0.402147
H162	H	0.170608	-0.678335	0.417097
H163	H	0.256366	-0.707600	0.379994
H164	H	0.214732	-0.622969	0.367035
H165	H	0.547237	-0.686258	0.663446
O166	O	0.424231	-0.653517	0.707543
C167	C	0.440121	-0.683968	0.667752
H168	H	0.457964	-0.654360	0.617425
H169	H	0.397371	-0.691282	0.675436
H170	H	0.477875	-0.730884	0.678220
O171	O	0.552221	-0.488776	0.585807
C172	C	0.509585	-0.428145	0.582335
H173	H	0.463236	-0.425609	0.586609
H174	H	0.528350	-0.393789	0.535867
H175	H	0.502694	-0.416008	0.621721
H176	H	0.429268	-0.456103	0.630015
H177	H	0.203661	-0.277820	0.570179
H178	H	0.100832	-0.791364	0.691090
H179	H	0.164306	-0.159876	0.530897
H180	H	0.068098	-0.159910	0.723527
H181	H	0.030155	-0.491745	0.461969
O182	O	0.104946	-0.282872	0.772873
C183	C	0.067303	-0.240245	0.805526
H184	H	0.075582	-0.193896	0.774522
H185	H	0.079507	-0.259034	0.848907
H186	H	0.016381	-0.233334	0.819553
