data_functionalizedCrystal
_audit_creation_method	'MofGen! by Chris Wilmer'
_symmetry_space_group_name_H-M	'P1'
_symmetry_Int_Tables_number	1
_symmetry_cell_setting	triclinic
loop_
_symmetry_equiv_pos_as_xyz
  x,y,z
_cell_length_a	19.805407
_cell_length_b	25.639239
_cell_length_c	25.639243
_cell_angle_alpha	90.014050
_cell_angle_beta	90.011919
_cell_angle_gamma	90.038686
loop_
_atom_site_label
_atom_site_type_symbol
_atom_site_fract_x
_atom_site_fract_y
_atom_site_fract_z
Zn1	Zn	1.034627	-0.208239	0.295633
Zn2	Zn	1.534627	0.291761	0.795633
Zn3	Zn	1.034532	-0.295650	0.208197
Zn4	Zn	1.534532	0.204350	0.708197
Zn5	Zn	0.921457	-0.208231	0.208209
Zn6	Zn	1.421457	0.291769	0.708209
Zn7	Zn	0.921381	-0.295645	0.295599
Zn8	Zn	1.421381	0.204355	0.795599
O9	O	0.977999	-0.251941	0.251910
O10	O	1.477999	0.248059	0.751910
O11	O	1.129331	-0.219840	0.284044
O12	O	1.629331	0.280160	0.784044
O13	O	1.019525	-0.284053	0.135034
O14	O	1.519525	0.215947	0.635034
O15	O	0.936540	-0.135067	0.219825
O16	O	1.436540	0.364933	0.719825
O17	O	1.129262	-0.284061	0.219805
O18	O	1.629262	0.215939	0.719805
O19	O	1.019686	-0.135072	0.284055
O20	O	1.519686	0.364928	0.784055
O21	O	0.936449	-0.219826	0.135042
O22	O	1.436449	0.280174	0.635042
O23	O	0.826730	-0.219821	0.219792
O24	O	1.326730	0.280179	0.719792
O25	O	0.936411	-0.284051	0.368769
O26	O	1.436411	0.215949	0.868769
O27	O	0.826674	-0.284044	0.283997
O28	O	1.326674	0.215956	0.783997
O29	O	1.019612	-0.219834	0.368794
O30	O	1.519612	0.280166	0.868794
O31	O	1.019451	-0.368815	0.219772
O32	O	1.519451	0.131185	0.719772
O33	O	0.936319	-0.368811	0.283986
O34	O	1.436319	0.131189	0.783986
C35	C	0.802143	-0.251931	0.251893
C36	C	1.302143	0.248069	0.751893
C37	C	0.726911	-0.251939	0.251898
C38	C	1.226911	0.248061	0.751898
C39	C	0.691556	-0.285431	0.285275
C40	C	1.191556	0.214569	0.785275
C41	C	0.620867	-0.285431	0.285283
C42	C	1.120867	0.214569	0.785283
C43	C	0.585536	-0.251944	0.251910
C44	C	1.085536	0.248056	0.751910
C45	C	0.620896	-0.218449	0.218531
C46	C	1.120896	0.281551	0.718531
C47	C	0.691583	-0.218446	0.218526
C48	C	1.191583	0.281554	0.718526
C49	C	0.335823	-0.218460	0.218548
C50	C	0.835823	0.281540	0.718548
C51	C	0.265131	-0.218467	0.218554
C52	C	0.765131	0.281533	0.718554
C53	C	0.265107	-0.285446	0.285304
C54	C	0.765107	0.214554	0.785304
C55	C	0.335794	-0.285443	0.285300
C56	C	0.835794	0.214557	0.785300
C57	C	0.371148	-0.251947	0.251923
C58	C	0.871148	0.248053	0.751923
C59	C	0.447797	-0.251945	0.251916
C60	C	0.947797	0.248055	0.751916
C61	C	0.508888	-0.251947	0.251914
C62	C	1.008888	0.248053	0.751914
C63	C	0.977885	-0.387784	0.251886
C64	C	1.477885	0.112216	0.751886
C65	C	0.977898	-0.445898	0.251893
C66	C	1.477898	0.054102	0.751893
C67	C	1.021399	-0.806250	0.218531
C68	C	1.521399	-0.306250	0.718531
C69	C	1.021425	-0.860855	0.218538
C70	C	1.521425	-0.360855	0.718538
O71	O	1.058293	-0.889082	0.190145
O72	O	1.558293	-0.389082	0.690145
N73	N	0.978118	-0.888180	0.251944
N74	N	1.478118	-0.388180	0.751944
C75	C	0.934787	-0.860899	0.285350
C76	C	1.434787	-0.360899	0.785350
O77	O	0.897954	-0.889155	0.313766
O78	O	1.397954	-0.389155	0.813766
C79	C	0.934764	-0.806295	0.285345
C80	C	1.434764	-0.306295	0.785345
C81	C	0.978070	-0.778973	0.251933
C82	C	1.478070	-0.278973	0.751933
C83	C	1.064701	-0.778927	0.185121
C84	C	1.564701	-0.278927	0.685121
C85	C	1.064674	-0.724327	0.185113
C86	C	1.564674	-0.224327	0.685113
C87	C	1.021344	-0.697049	0.218515
C88	C	1.521344	-0.197049	0.718515
C89	C	0.978042	-0.724372	0.251925
C90	C	1.478042	-0.224372	0.751925
C91	C	0.891437	-0.779015	0.318753
C92	C	1.391437	-0.279015	0.818753
C93	C	0.891419	-0.724408	0.318746
C94	C	1.391419	-0.224408	0.818746
C95	C	0.934724	-0.697085	0.285333
C96	C	1.434724	-0.197085	0.785333
C97	C	0.934686	-0.642494	0.285320
C98	C	1.434686	-0.142494	0.785320
N99	N	0.977993	-0.615168	0.251913
N100	N	1.477993	-0.115168	0.751913
C101	C	1.021322	-0.642446	0.218511
C102	C	1.521322	-0.142446	0.718511
C103	C	0.934838	-0.975569	0.285358
C104	C	1.434838	-0.475569	0.785358
C105	C	0.934856	-1.030172	0.285361
C106	C	1.434856	-0.530172	0.785361
C107	C	1.021496	-1.030124	0.218549
C108	C	1.521496	-0.530124	0.718549
C109	C	1.021473	-0.975520	0.218544
C110	C	1.521473	-0.475520	0.718544
C111	C	0.978145	-0.948244	0.251951
C112	C	1.478145	-0.448244	0.751951
C113	C	1.021261	-0.527781	0.218497
C114	C	1.521261	-0.027781	0.718497
C115	C	1.021228	-0.473175	0.218491
C116	C	1.521228	0.026825	0.718491
C117	C	0.934591	-0.473228	0.285305
C118	C	1.434591	0.026772	0.785305
C119	C	0.934622	-0.527829	0.285309
C120	C	1.434622	-0.027829	0.785309
C121	C	0.977962	-0.555104	0.251904
C122	C	1.477962	-0.055104	0.751904
O123	O	0.897839	-0.614231	0.313699
O124	O	1.397839	-0.114231	0.813699
O125	O	1.058155	-0.614183	0.190104
O126	O	1.558155	-0.114183	0.690104
C127	C	1.154542	-0.251952	0.251927
C128	C	1.654542	0.248048	0.751927
C129	C	1.229774	-0.251956	0.251934
C130	C	1.729774	0.248044	0.751934
C131	C	0.978013	-0.251943	0.388283
C132	C	1.478013	0.248057	0.888283
C133	C	0.978020	-0.251944	0.446397
C134	C	1.478020	0.248056	0.946397
C135	C	0.978132	-0.115568	0.251945
C136	C	1.478132	0.384432	0.751945
C137	C	0.978188	-0.057454	0.251960
C138	C	1.478188	0.442546	0.751960
C139	C	1.021254	-0.285390	0.697578
C140	C	1.521254	0.214610	1.197578
C141	C	1.021256	-0.285391	0.642974
C142	C	1.521256	0.214609	1.142974
O143	O	1.058023	-0.313841	0.614727
O144	O	1.558023	0.186159	1.114727
N145	N	0.978006	-0.251950	0.615671
N146	N	1.478006	0.248050	1.115671
C147	C	0.934748	-0.218509	0.642975
C148	C	1.434748	0.281491	1.142975
O149	O	0.897960	-0.190065	0.614737
O150	O	1.397960	0.309935	1.114737
C151	C	0.934743	-0.218511	0.697578
C152	C	1.434743	0.281489	1.197578
C153	C	0.978000	-0.251951	0.724878
C154	C	1.478000	0.248049	1.224878
C155	C	1.064507	-0.318828	0.724879
C156	C	1.564507	0.181172	1.224879
C157	C	1.064506	-0.318826	0.779479
C158	C	1.564506	0.181174	1.279479
C159	C	1.021252	-0.285387	0.806779
C160	C	1.521252	0.214613	1.306779
C161	C	0.977999	-0.251949	0.779479
C162	C	1.477999	0.248051	1.279479
C163	C	0.891481	-0.185074	0.724881
C164	C	1.391481	0.314926	1.224881
C165	C	0.891480	-0.185079	0.779488
C166	C	1.391480	0.314921	1.279488
C167	C	0.934737	-0.218519	0.806788
C168	C	1.434737	0.281481	1.306788
C169	C	0.934744	-0.218509	0.861379
C170	C	1.434744	0.281491	1.361379
N171	N	0.977993	-0.251950	0.888683
N172	N	1.477993	0.248050	1.388683
C173	C	1.021247	-0.285389	0.861383
C174	C	1.521247	0.214611	1.361383
C175	C	0.934760	-0.218508	0.528304
C176	C	1.434760	0.281492	1.028304
C177	C	0.934768	-0.218503	0.473702
C178	C	1.434768	0.281497	0.973702
C179	C	1.021275	-0.285385	0.473705
C180	C	1.521275	0.214615	0.973705
C181	C	1.021270	-0.285388	0.528308
C182	C	1.521270	0.214612	1.028308
C183	C	0.978009	-0.251949	0.555607
C184	C	1.478009	0.248051	1.055607
C185	C	1.021242	-0.285382	0.976048
C186	C	1.521242	0.214618	1.476048
C187	C	1.021239	-0.285376	1.030653
C188	C	1.521239	0.214624	1.530653
C189	C	0.934729	-0.218496	1.030645
C190	C	1.434729	0.281504	1.530645
C191	C	0.934734	-0.218500	0.976045
C192	C	1.434734	0.281500	1.476045
C193	C	0.977993	-0.251947	0.948747
C194	C	1.477993	0.248053	1.448747
O195	O	0.897993	-0.190074	0.889661
O196	O	1.397993	0.309926	1.389661
O197	O	1.058022	-0.313833	0.889627
O198	O	1.558022	0.186167	1.389627
C199	C	0.977983	-0.251948	1.116067
C200	C	1.477983	0.248052	1.616067
C201	C	0.977985	-0.251937	1.057953
C202	C	1.477985	0.248063	1.557953
H203	H	1.056492	-0.450931	0.191281
H204	H	1.556492	0.049069	0.691281
O205	O	0.849468	-0.805603	0.351241
O206	O	1.349468	-0.305603	0.851241
C207	C	0.887990	-0.837131	0.385053
C208	C	1.387990	-0.337131	0.885053
H209	H	0.939299	-0.845287	0.366645
H210	H	1.439299	-0.345287	0.866645
H211	H	0.860427	-0.875543	0.392058
H212	H	1.360427	-0.375543	0.892058
H213	H	0.895395	-0.816059	0.423796
H214	H	1.395395	-0.316059	0.923796
O215	O	1.106562	-0.351239	0.698307
O216	O	1.606562	0.148761	1.198307
C217	C	1.150326	-0.321474	0.666752
C218	C	1.650326	0.178526	1.166752
H219	H	1.126492	-0.281852	0.658570
H220	H	1.626492	0.218148	1.158570
H221	H	1.159391	-0.342774	0.628355
H222	H	1.659391	0.157226	1.128355
H223	H	1.200484	-0.315728	0.687815
H224	H	1.700484	0.184272	1.187815
H225	H	0.364557	-0.312714	0.312474
H226	H	0.864557	0.187286	0.812474
H227	H	1.056554	-0.549982	0.191296
H228	H	1.556554	-0.049982	0.691296
O229	O	0.892763	-1.056629	0.317863
O230	O	1.392763	-0.556629	0.817863
C231	C	0.854504	-1.020837	0.347330
C232	C	1.354504	-0.520837	0.847330
H233	H	0.882211	-0.981892	0.349152
H234	H	1.382211	-0.481892	0.849152
H235	H	0.847250	-1.036600	0.388522
H236	H	1.347250	-0.536600	0.888522
H237	H	0.803114	-1.015077	0.328144
H238	H	1.303114	-0.515077	0.828144
O239	O	0.849549	-0.152570	0.806063
O240	O	1.349549	0.347430	1.306063
C241	C	0.888113	-0.118790	0.837653
C242	C	1.388113	0.381210	1.337653
H243	H	0.939389	-0.137231	0.845841
H244	H	1.439389	0.362769	1.345841
H245	H	0.860545	-0.111781	0.876045
H246	H	1.360545	0.388219	1.376045
H247	H	0.895586	-0.080045	0.816618
H248	H	1.395586	0.419955	1.316618
H249	H	0.899551	-0.191267	0.451478
H250	H	1.399551	0.308733	0.951478
O251	O	0.849266	-0.697993	0.351217
O252	O	1.349266	-0.197993	0.851217
C253	C	0.811068	-0.733822	0.380716
C254	C	1.311068	-0.233822	0.880716
H255	H	0.808761	-0.772754	0.359301
H256	H	1.308761	-0.272754	0.859301
H257	H	0.757727	-0.718088	0.386260
H258	H	1.257727	-0.218088	0.886260
H259	H	0.835826	-0.739597	0.420441
H260	H	1.335826	-0.239597	0.920441
H261	H	0.720369	-0.191171	0.191350
H262	H	1.220369	0.308829	0.691350
H263	H	0.592123	-0.191180	0.191360
H264	H	1.092123	0.308820	0.691360
O265	O	0.892705	-0.949017	0.317735
O266	O	1.392705	-0.449017	0.817735
C267	C	0.848989	-0.917488	0.287934
C268	C	1.348989	-0.417488	0.787934
H269	H	0.872897	-0.909296	0.248329
H270	H	1.372897	-0.409296	0.748329
H271	H	0.839874	-0.879093	0.309224
H272	H	1.339874	-0.379093	0.809224
H273	H	0.798848	-0.938576	0.282150
H274	H	1.298848	-0.438576	0.782150
O275	O	1.063308	-0.317922	0.554744
O276	O	1.563308	0.182078	1.054744
C277	C	1.101497	-0.347422	0.518933
C278	C	1.601497	0.152578	1.018933
H279	H	1.073773	-0.349225	0.480004
H280	H	1.573773	0.150775	0.980004
H281	H	1.108677	-0.388619	0.534694
H282	H	1.608677	0.111381	1.034694
H283	H	1.152921	-0.328278	0.513142
H284	H	1.652921	0.171722	1.013142
H285	H	0.236313	-0.312719	0.312483
H286	H	0.736313	0.187281	0.812483
O287	O	0.586628	-0.318020	0.317716
O288	O	1.086628	0.181980	0.817716
C289	C	0.632970	-0.347573	0.347175
C290	C	1.132970	0.152427	0.847175
H291	H	0.683350	-0.349340	0.325754
H292	H	1.183350	0.150660	0.825754
H293	H	0.612518	-0.388779	0.352669
H294	H	1.112518	0.111221	0.852669
H295	H	0.640515	-0.328497	0.386923
H296	H	1.140515	0.171503	0.886923
H297	H	0.899361	-0.550076	0.312518
H298	H	1.399361	-0.050076	0.812518
H299	H	0.236365	-0.191194	0.191377
H300	H	0.736365	0.308806	0.691377
H301	H	1.056736	-0.953277	0.191337
H302	H	1.556736	-0.453277	0.691337
H303	H	1.099938	-0.702084	0.157908
H304	H	1.599938	-0.202084	0.657908
H305	H	0.720318	-0.312702	0.312450
H306	H	1.220318	0.187298	0.812450
O307	O	0.370055	-0.185906	0.186078
O308	O	0.870055	0.314094	0.686078
C309	C	0.323710	-0.156342	0.156634
C310	C	0.823710	0.343658	0.656634
H311	H	0.273307	-0.177762	0.154785
H312	H	0.773307	0.322238	0.654785
H313	H	0.344123	-0.150693	0.115449
H314	H	0.844123	0.349307	0.615449
H315	H	0.316224	-0.116666	0.175857
H316	H	0.816224	0.383334	0.675857
H317	H	1.056494	-0.312614	0.451467
H318	H	1.556494	0.187386	0.951467
O319	O	1.106815	-0.805339	0.152621
O320	O	1.606815	-0.305339	0.652621
C321	C	1.145036	-0.769504	0.123147
C322	C	1.645036	-0.269504	0.623147
H323	H	1.117292	-0.730605	0.121323
H324	H	1.617292	-0.230605	0.621323
H325	H	1.152299	-0.785280	0.081955
H326	H	1.652299	-0.285280	0.581955
H327	H	1.196422	-0.763650	0.142327
H328	H	1.696422	-0.263650	0.642327
H329	H	1.056779	-1.052343	0.191353
H330	H	1.556779	-0.552343	0.691353
H331	H	0.899311	-0.451010	0.312499
H332	H	1.399311	0.048990	0.812499
H333	H	0.899534	-0.191273	0.550528
H334	H	1.399534	0.308727	1.050528
O335	O	1.063281	-0.317912	1.057091
O336	O	1.563281	0.182088	1.557091
C337	C	1.101467	-0.347417	1.021282
C338	C	1.601467	0.152583	1.521282
H339	H	1.073740	-0.349224	0.982354
H340	H	1.573740	0.150776	1.482354
H341	H	1.108647	-0.388612	1.037048
H342	H	1.608647	0.111388	1.537048
H343	H	1.152891	-0.328274	1.015487
H344	H	1.652891	0.171726	1.515487
O345	O	1.063298	-0.317799	0.949479
O346	O	1.563298	0.182201	1.449479
C347	C	1.107060	-0.288037	0.917920
C348	C	1.607060	0.211963	1.417920
H349	H	1.083226	-0.248415	0.909737
H350	H	1.583226	0.251585	1.409737
H351	H	1.116121	-0.309339	0.879524
H352	H	1.616121	0.190661	1.379524
H353	H	1.157220	-0.282290	0.938980
H354	H	1.657220	0.217710	1.438980
O355	O	1.106542	-0.351363	0.805914
O356	O	1.606542	0.148637	1.305914
C357	C	1.144724	-0.380866	0.770100
C358	C	1.644724	0.119134	1.270100
H359	H	1.116996	-0.382665	0.731173
H360	H	1.616996	0.117335	1.231173
H361	H	1.151899	-0.422064	0.785860
H362	H	1.651899	0.077936	1.285860
H363	H	1.196151	-0.361725	0.764307
H364	H	1.696151	0.138275	1.264307
O365	O	0.849422	-0.152666	0.698314
O366	O	1.349422	0.347334	1.198314
C367	C	0.805664	-0.182432	0.666727
C368	C	1.305664	0.317568	1.166727
H369	H	0.829504	-0.222052	0.658531
H370	H	1.329504	0.277948	1.158531
H371	H	0.796600	-0.161131	0.628338
H372	H	1.296600	0.338869	1.128338
H373	H	0.755506	-0.188183	0.687767
H374	H	1.255506	0.311817	1.187767
O375	O	0.892653	-0.186000	0.949603
O376	O	1.392653	0.314000	1.449603
C377	C	0.854489	-0.156476	0.985410
C378	C	1.354489	0.343524	1.485410
H379	H	0.852133	-0.177887	1.024330
H380	H	1.352133	0.322113	1.524330
H381	H	0.801163	-0.150901	0.969631
H382	H	1.301163	0.349099	1.469631
H383	H	0.879309	-0.116766	0.991225
H384	H	1.379309	0.383234	1.491225
H385	H	0.899515	-0.191269	1.052883
H386	H	1.399515	0.308731	1.552883
