data_functionalizedCrystal
_audit_creation_method	'MofGen! by Chris Wilmer'
_symmetry_space_group_name_H-M	'P1'
_symmetry_Int_Tables_number	1
_symmetry_cell_setting	triclinic
loop_
_symmetry_equiv_pos_as_xyz
  x,y,z
_cell_length_a	12.811438
_cell_length_b	17.038272
_cell_length_c	11.892095
_cell_angle_alpha	94.170821
_cell_angle_beta	91.498957
_cell_angle_gamma	87.562882
loop_
_atom_site_label
_atom_site_type_symbol
_atom_site_fract_x
_atom_site_fract_y
_atom_site_fract_z
O1	O	1.398772	0.107970	0.049411
O2	O	1.096282	0.117779	0.018394
O3	O	1.245728	-0.000956	0.033727
O4	O	1.249325	0.226706	0.034078
O5	O	1.233266	0.008928	0.220456
O6	O	1.083820	0.127664	0.205123
O7	O	1.386310	0.117855	0.236140
Zn8	Zn	1.233086	0.124329	0.250279
Zn9	Zn	1.249505	0.111305	0.004255
O10	O	1.236863	0.236590	0.220807
C11	C	1.051155	0.121868	0.107771
C12	C	0.935259	0.119315	0.095887
C13	C	0.778698	0.110330	-0.022635
C14	C	0.887594	0.112727	-0.011479
C15	C	0.874022	0.123504	0.192105
C16	C	0.765126	0.121107	0.180948
C17	C	0.717469	0.114521	0.073575
C18	C	0.608571	0.112129	0.062420
C19	C	0.595001	0.122900	0.266003
C20	C	0.703897	0.125297	0.277159
C21	C	1.236227	-0.025171	0.126756
C22	C	1.226470	-0.112051	0.125755
C23	C	1.316049	-0.161367	0.134942
C24	C	1.306876	-0.243000	0.133991
C25	C	1.208123	-0.275315	0.123861
C26	C	1.118538	-0.225993	0.114670
C27	C	1.127712	-0.144362	0.115614
C28	C	1.175711	-0.521363	0.120522
C29	C	1.166543	-0.603000	0.119583
C30	C	1.354883	-0.620001	0.138901
C31	C	1.364048	-0.538368	0.139850
C32	C	1.274463	-0.489053	0.130654
C33	C	1.198744	-0.358756	0.122892
C34	C	1.283844	-0.405614	0.131615
C35	C	1.431436	0.113766	0.146761
C36	C	1.547333	0.116318	0.158637
C37	C	1.246365	0.260805	0.127776
C38	C	1.256122	0.347685	0.128769
N39	N	1.221888	0.133216	0.418184
N40	N	1.260711	0.102412	-0.163649
C41	C	1.338629	0.040523	0.666809
C42	C	1.330809	0.046741	0.784349
C43	C	1.198426	0.151866	0.770805
C44	C	1.206245	0.145648	0.653265
C45	C	1.276350	0.089975	0.601272
C46	C	1.284174	0.083761	0.483730
C47	C	1.151785	0.188883	0.470188
C48	C	1.143966	0.195101	0.587728
H49	H	0.545136	0.126316	0.344344
Br50	Br	0.714013	0.101409	-0.168351
H51	H	1.086121	-0.629306	0.111351
Br52	Br	0.768585	0.134234	0.422872
Br53	Br	1.450077	-0.117519	0.148706
Br54	Br	1.006136	-0.077432	0.103137
H55	H	0.912845	0.128857	0.279523
Br56	Br	0.970690	0.107034	-0.142056
H57	H	1.427818	-0.660161	0.146386
H58	H	1.379821	-0.283150	0.141474
H59	H	1.118338	-0.385076	0.114646
Br60	Br	1.498078	-0.494519	0.153562
H61	H	1.102764	-0.481220	0.113034
Br62	Br	0.984514	-0.269849	0.100904
H63	H	1.341259	0.038432	0.441399
Br64	Br	1.417863	-0.361757	0.145352
Br65	Br	1.433783	-0.035021	0.596245
Br66	Br	1.415329	-0.020380	0.873290
Br67	Br	0.543892	0.103197	-0.083298
H68	H	1.141341	0.197189	0.813152
Br69	Br	1.048823	0.270650	0.658296
Br70	Br	1.067271	0.256007	0.381235
