data_functionalizedCrystal
_audit_creation_method	'MofGen! by Chris Wilmer'
_symmetry_space_group_name_H-M	'P1'
_symmetry_Int_Tables_number	1
_symmetry_cell_setting	triclinic
loop_
_symmetry_equiv_pos_as_xyz
  x,y,z
_cell_length_a	9.065215
_cell_length_b	15.995292
_cell_length_c	8.140239
_cell_angle_alpha	89.999675
_cell_angle_beta	89.997810
_cell_angle_gamma	84.241657
loop_
_atom_site_label
_atom_site_type_symbol
_atom_site_fract_x
_atom_site_fract_y
_atom_site_fract_z
O1	O	1.957465	0.122762	-0.136581
O2	O	2.457465	0.622762	0.363419
O3	O	1.527938	0.132835	-0.136588
O4	O	2.027938	0.632835	0.363412
O5	O	1.754488	0.005996	-0.136587
O6	O	2.254488	0.505996	0.363413
O7	O	1.730915	0.249600	-0.136582
O8	O	2.230915	0.749600	0.363418
O9	O	1.754475	0.005995	0.136640
O10	O	2.254475	0.505995	0.636640
O11	O	1.527926	0.132833	0.136640
O12	O	2.027926	0.632833	0.636640
O13	O	1.957452	0.122760	0.136646
O14	O	2.457452	0.622760	0.636646
Zn15	Zn	1.742687	0.127796	0.180023
Zn16	Zn	2.242687	0.627796	0.680023
Zn17	Zn	1.742703	0.127798	-0.179965
Zn18	Zn	2.242703	0.627798	0.320035
O19	O	1.730903	0.249598	0.136645
O20	O	2.230903	0.749598	0.636645
C21	C	1.472969	0.131866	0.000025
C22	C	1.972969	0.631866	0.500025
C23	C	1.309195	0.128973	0.000022
C24	C	1.809195	0.628973	0.500022
C25	C	1.753522	-0.025207	0.000023
C26	C	2.253522	0.474793	0.500023
C27	C	1.750646	-0.118182	0.000010
C28	C	2.250646	0.381818	0.500010
C29	C	1.740072	-0.456001	0.000025
C30	C	2.240072	0.043999	0.500025
C31	C	1.903589	-0.431449	0.000638
C32	C	2.403589	0.068551	0.500638
C33	C	1.906697	-0.334750	0.000016
C34	C	2.406697	0.165250	0.500016
C35	C	1.745319	-0.288405	0.000019
C36	C	2.245319	0.211595	0.500019
C37	C	1.663575	-0.318124	-0.156003
C38	C	2.163575	0.181876	0.343997
C39	C	1.661606	-0.414930	-0.156128
C40	C	2.161606	0.085070	0.343872
C41	C	1.658253	-0.414814	0.154582
C42	C	2.158253	0.085186	0.654582
C43	C	1.664313	-0.318276	0.156638
C44	C	2.164313	0.181724	0.656638
C45	C	1.748275	-0.193686	0.000010
C46	C	2.248275	0.306314	0.500010
C47	C	1.737110	-0.550719	0.000023
C48	C	2.237110	-0.050719	0.500023
C49	C	2.012422	0.123728	0.000030
C50	C	2.512422	0.623728	0.500030
C51	C	2.176196	0.126621	0.000022
C52	C	2.676196	0.626621	0.500022
C53	C	1.731869	0.280802	0.000032
C54	C	2.231869	0.780802	0.500032
C55	C	1.734745	0.373777	0.000034
C56	C	2.234745	0.873777	0.500034
N57	N	1.742687	0.127795	0.425706
N58	N	2.242687	0.627795	0.925706
N59	N	1.742716	0.127794	-0.425648
N60	N	2.242716	0.627794	0.074352
H61	H	1.970717	-0.315240	0.111857
H62	H	2.470717	0.184760	0.611857
H63	H	1.718229	-0.441317	-0.272759
H64	H	2.218229	0.058683	0.227241
H65	H	1.966611	-0.458969	0.112528
H66	H	2.466611	0.041031	0.612528
F67	F	1.737784	-0.291345	-0.307774
F68	F	2.237784	0.208655	0.192226
H69	H	1.709743	-0.442513	0.272846
H70	H	2.209743	0.057487	0.772846
F71	F	1.500934	-0.434293	0.155962
F72	F	2.000934	0.065707	0.655962
F73	F	1.504904	-0.435139	-0.165390
F74	F	2.004904	0.064861	0.334610
F75	F	1.510349	-0.276351	0.168959
F76	F	2.010349	0.223649	0.668959
F77	F	1.985524	-0.468754	-0.144787
F78	F	2.485524	0.031246	0.355213
H79	H	1.971105	-0.315857	-0.112020
H80	H	2.471105	0.184143	0.387980
F81	F	1.508358	-0.277645	-0.163594
F82	F	2.008358	0.222355	0.336406
H83	H	1.723835	-0.299260	0.272062
H84	H	2.223835	0.200740	0.772062
