data_functionalizedCrystal
_audit_creation_method	'MofGen! by Chris Wilmer'
_symmetry_space_group_name_H-M	'P1'
_symmetry_Int_Tables_number	1
_symmetry_cell_setting	triclinic
loop_
_symmetry_equiv_pos_as_xyz
  x,y,z
_cell_length_a	15.944551
_cell_length_b	14.971491
_cell_length_c	14.048226
_cell_angle_alpha	89.991693
_cell_angle_beta	89.992615
_cell_angle_gamma	83.557487
loop_
_atom_site_label
_atom_site_type_symbol
_atom_site_fract_x
_atom_site_fract_y
_atom_site_fract_z
O1	O	0.109484	1.186826	-0.079203
O2	O	0.122588	0.926412	-0.079197
O3	O	-0.006232	1.063731	-0.079192
O4	O	0.238304	1.049508	-0.079208
O5	O	-0.006240	1.063714	0.079130
O6	O	0.122580	0.926396	0.079125
O7	O	0.109476	1.186810	0.079118
Zn8	Zn	0.116027	1.056600	0.104258
Zn9	Zn	0.116037	1.056622	-0.104337
O10	O	0.238296	1.049491	0.079113
C11	C	0.121997	0.893080	-0.000035
C12	C	0.120239	0.793785	-0.000032
C13	C	0.112655	0.366097	-0.086355
C14	C	0.114305	0.459395	-0.086351
C15	C	0.115131	0.506031	-0.000047
C16	C	0.114299	0.459365	0.086259
C17	C	0.112643	0.366069	0.086255
C18	C	0.117752	0.653823	0.086263
C19	C	0.119409	0.747125	0.086268
C20	C	0.119413	0.747149	-0.086343
C21	C	0.117758	0.653853	-0.086348
C22	C	0.116927	0.607193	-0.000041
C23	C	-0.037530	1.063132	-0.000031
C24	C	-0.130778	1.061362	-0.000030
C25	C	-0.345721	0.972014	-0.000041
C26	C	-0.406702	1.013496	0.078020
C27	C	-0.301507	1.058159	-0.000037
C28	C	-0.406678	1.013533	-0.078073
C29	C	-0.466423	1.055060	-0.000049
C30	C	-0.361260	1.099665	0.078088
C31	C	-0.361229	1.099689	-0.078075
C32	C	-0.422192	1.141234	0.000005
C33	C	-0.206503	1.059942	-0.000030
C34	C	-0.561426	1.053283	-0.000049
C35	C	0.269594	1.050090	-0.000050
C36	C	0.362842	1.051860	-0.000057
C37	C	0.110067	1.220142	-0.000046
C38	C	0.111825	1.319437	-0.000055
N39	N	0.116020	1.056592	0.246619
N40	N	0.116038	1.056637	-0.246698
C41	C	0.059002	1.117415	0.296439
C42	C	0.059001	1.117421	0.396097
C43	C	0.116023	1.056607	0.445932
C44	C	0.173044	0.995777	0.396105
C45	C	0.173040	0.995768	0.296449
C46	C	0.173050	0.995803	0.603819
C47	C	0.173056	0.995814	0.703482
C48	C	0.059012	1.117457	0.703467
C49	C	0.059007	1.117447	0.603811
C50	C	0.116029	1.056618	0.553991
H51	H	0.117086	0.615834	0.156543
H52	H	-0.341237	1.136063	0.144155
O53	O	0.111821	0.320941	-0.170277
C54	C	0.112928	0.382133	-0.246446
H55	H	0.087534	0.452335	-0.221138
H56	H	0.071704	0.360865	-0.306805
H57	H	0.180440	0.382681	-0.272988
O58	O	0.120095	0.792547	0.170039
C59	C	0.048353	0.856628	0.175207
H60	H	0.024375	0.873984	0.100273
H61	H	0.065864	0.919955	0.211726
H62	H	-0.003191	0.827766	0.217801
O63	O	0.115229	0.504799	-0.170124
C64	C	0.188886	0.548622	-0.175305
H65	H	0.213363	0.559217	-0.100374
H66	H	0.173703	0.616508	-0.211834
H67	H	0.239153	0.505579	-0.217894
O68	O	-0.461690	1.226602	-0.000135
C69	C	-0.512008	1.240265	-0.082506
H70	H	-0.487028	1.190304	-0.139816
H71	H	-0.509713	1.311696	-0.109698
H72	H	-0.579972	1.229843	-0.064612
O73	O	-0.306100	0.886698	0.000217
C74	C	-0.329146	0.841596	0.082667
H75	H	-0.351090	0.892936	0.139905
H76	H	-0.272407	0.795584	0.109910
H77	H	-0.382575	0.799797	0.064857
H78	H	0.219468	0.946238	0.255887
O79	O	-0.337183	1.142998	-0.156906
C80	C	-0.360078	1.097367	-0.239049
H81	H	-0.366915	1.024442	-0.220344
H82	H	-0.309147	1.099558	-0.295695
H83	H	-0.422684	1.131201	-0.267530
O84	O	0.003537	1.176555	0.555546
C85	C	-0.046778	1.230261	0.620886
H86	H	-0.047786	1.193603	0.691937
H87	H	-0.113837	1.243903	0.592098
H88	H	-0.019398	1.296704	0.631458
H89	H	0.111976	0.328078	0.156529
O90	O	-0.430804	0.970170	0.156820
C91	C	-0.486674	1.029439	0.211235
H92	H	-0.476382	1.101774	0.193791
H93	H	-0.474291	1.016221	0.290189
H94	H	-0.554524	1.018250	0.193727
H95	H	0.219481	0.946267	0.563259
H96	H	0.012583	1.166986	0.744036
O97	O	0.003735	1.176544	0.444602
C98	C	0.048817	1.231734	0.502206
H99	H	0.114488	1.196105	0.517127
H100	H	0.013785	1.245890	0.572290
H101	H	0.054631	1.297834	0.463785
O102	O	0.114990	0.504779	0.170035
C103	C	0.043249	0.568860	0.175221
H104	H	0.019263	0.586226	0.100292
H105	H	0.060764	0.632181	0.211747
H106	H	-0.008291	0.539992	0.217816
O107	O	-0.430566	0.969941	-0.156776
C108	C	-0.391258	0.880755	-0.156461
H109	H	-0.331866	0.876463	-0.110761
H110	H	-0.373565	0.859323	-0.232376
H111	H	-0.436555	0.834362	-0.125994
H112	H	0.012571	1.166941	0.255870
O113	O	0.228465	0.936641	0.751747
C114	C	0.278798	0.882954	0.686407
H115	H	0.244361	0.881948	0.615372
H116	H	0.291478	0.811528	0.715219
H117	H	0.341254	0.911973	0.675796
O118	O	0.228349	0.936577	0.444472
C119	C	0.214563	0.848037	0.420132
H120	H	0.147310	0.847601	0.392749
H121	H	0.224153	0.803158	0.485681
H122	H	0.261078	0.821757	0.362285
H123	H	0.117091	0.615884	-0.156624
H124	H	0.120091	0.785144	-0.156618
