data_functionalizedCrystal
_audit_creation_method	'MofGen! by Chris Wilmer'
_symmetry_space_group_name_H-M	'P1'
_symmetry_Int_Tables_number	1
_symmetry_cell_setting	triclinic
loop_
_symmetry_equiv_pos_as_xyz
  x,y,z
_cell_length_a	10.967926
_cell_length_b	10.489716
_cell_length_c	9.482900
_cell_angle_alpha	99.433190
_cell_angle_beta	92.549900
_cell_angle_gamma	84.621228
loop_
_atom_site_label
_atom_site_type_symbol
_atom_site_fract_x
_atom_site_fract_y
_atom_site_fract_z
O1	O	1.612132	0.225254	0.283014
O2	O	1.262943	0.228052	0.195528
O3	O	1.445499	0.041373	0.241261
O4	O	1.429576	0.411932	0.237282
O5	O	1.408419	0.079452	0.473764
O6	O	1.225863	0.266130	0.428032
O7	O	1.575052	0.263332	0.515518
Cu8	Cu	1.397072	0.268208	0.493004
Cu9	Cu	1.440923	0.223176	0.218042
O10	O	1.392495	0.450010	0.469785
C11	C	1.199689	0.244010	0.300577
C12	C	1.066457	0.234815	0.267197
C13	C	0.987849	0.250441	0.372758
C14	C	0.850146	0.240938	0.338260
C15	C	1.425763	0.012831	0.357209
C16	C	1.422186	-0.128946	0.356299
C17	C	1.534133	-0.222099	0.384360
C18	C	1.493259	-0.320622	0.254906
C19	C	1.456675	-0.283045	0.484129
C20	C	1.381374	-0.225617	0.226762
C21	C	1.344790	-0.188017	0.456093
C22	C	1.303837	-0.286498	0.326591
C23	C	1.638306	0.247373	0.410466
C24	C	1.771540	0.256567	0.443837
C25	C	1.412232	0.478552	0.353834
C26	C	1.415810	0.620328	0.354735
N27	N	1.366238	0.299880	0.686400
N28	N	1.471766	0.191493	0.024648
C29	C	1.431820	0.232511	0.775028
C30	C	1.406174	0.258873	0.936021
H31	H	1.022496	0.270847	0.488673
Br32	Br	0.829264	0.290570	0.637054
H33	H	0.815507	0.220520	0.222338
Br34	Br	1.597289	0.063133	0.952562
Br35	Br	1.008727	0.200774	0.073990
Br36	Br	1.696460	-0.174445	0.424838
Br37	Br	1.597782	-0.416395	0.113106
Br38	Br	1.328441	-0.183114	0.045327
H39	H	1.291099	0.377071	0.729707
H40	H	1.282116	-0.130532	0.541183
Br41	Br	1.509716	-0.325868	0.665397
Br42	Br	1.141432	-0.333794	0.285805
Br43	Br	1.556746	0.103508	0.702783
H44	H	1.331031	0.336068	0.979322
