data_functionalizedCrystal
_audit_creation_method	'MofGen! by Chris Wilmer'
_symmetry_space_group_name_H-M	'P1'
_symmetry_Int_Tables_number	1
_symmetry_cell_setting	triclinic
loop_
_symmetry_equiv_pos_as_xyz
  x,y,z
_cell_length_a	16.109301
_cell_length_b	16.776229
_cell_length_c	17.699104
_cell_angle_alpha	89.988821
_cell_angle_beta	96.623501
_cell_angle_gamma	90.004422
loop_
_atom_site_label
_atom_site_type_symbol
_atom_site_fract_x
_atom_site_fract_y
_atom_site_fract_z
O1	O	1.102975	0.066246	-0.097286
O2	O	0.860893	0.066260	-0.109393
O3	O	0.988765	0.066238	0.006839
O4	O	0.975104	0.066268	-0.213518
O5	O	0.988748	-0.066339	0.006846
O6	O	0.860876	-0.066317	-0.109386
O7	O	1.102958	-0.066331	-0.097279
Zn8	Zn	0.981915	-0.087373	-0.103331
Zn9	Zn	0.981937	0.087302	-0.103341
O10	O	0.975087	-0.066309	-0.213511
C11	C	0.829911	-0.000027	-0.108899
C12	C	0.737618	-0.000023	-0.107429
C13	C	0.515238	-0.000023	-0.172980
C14	C	0.428520	-0.000028	-0.171592
C15	C	0.448621	-0.000043	-0.033687
C16	C	0.535337	-0.000044	-0.035076
C17	C	0.568643	-0.000030	-0.104724
C18	C	0.395209	-0.000034	-0.101948
C19	C	0.301185	-0.000040	-0.100444
C20	C	0.662673	-0.000025	-0.106229
N21	N	0.981906	-0.206584	-0.103325
C22	C	1.038544	-0.248311	-0.051878
C23	C	1.038549	-0.331763	-0.051878
C24	C	0.981918	-0.373487	-0.103327
C25	C	0.925273	-0.331755	-0.154776
C26	C	0.925266	-0.248304	-0.154773
C27	C	0.925304	-0.668302	-0.154791
C28	C	0.925317	-0.751758	-0.154792
C29	C	1.038587	-0.751761	-0.051896
C30	C	1.038579	-0.668310	-0.051893
C31	C	0.981932	-0.626585	-0.103338
C32	C	0.981926	-0.536097	-0.103337
C33	C	0.981927	-0.463974	-0.103333
C34	C	1.133941	-0.000042	-0.097773
C35	C	1.226234	-0.000041	-0.099243
C36	C	0.988264	-0.000052	0.035040
C37	C	0.986786	-0.000058	0.119059
N38	N	0.981953	0.206513	-0.103342
C39	C	1.053513	-0.000074	0.643835
C40	C	1.054896	-0.000076	0.564889
C41	C	0.979831	-0.000070	0.516379
C42	C	0.903377	-0.000071	0.546818
C43	C	0.901995	-0.000075	0.625762
C44	C	0.908950	-0.000057	0.228444
C45	C	0.910338	-0.000051	0.149494
C46	C	1.061851	-0.000058	0.167571
C47	C	1.060469	-0.000062	0.246515
C48	C	0.984016	-0.000067	0.276947
C49	C	0.982517	-0.000066	0.362549
C50	C	0.981329	-0.000065	0.430778
C51	C	0.975588	-0.000034	0.758288
C52	C	0.977065	-0.000072	0.674269
H53	H	1.084668	-0.365737	-0.009986
C54	C	0.821813	0.000061	0.494239
C55	C	0.775772	0.068261	0.507999
C56	C	0.700625	0.068408	0.459587
H57	H	0.833467	0.000107	0.442838
H58	H	0.790406	-0.046146	0.503478
H59	H	0.807173	0.114456	0.498754
H60	H	0.764096	0.068229	0.559390
H61	H	0.669217	0.022201	0.468826
H62	H	0.712287	0.068452	0.408189
H63	H	0.669373	0.114676	0.468921
C64	C	0.863823	-0.376948	-0.210756
C65	C	0.877136	-0.356609	-0.285135
C66	C	0.820535	-0.398214	-0.336726
H67	H	0.871877	-0.432637	-0.203500
H68	H	0.808338	-0.363264	-0.202562
H69	H	0.932608	-0.370298	-0.293326
H70	H	0.869075	-0.300927	-0.292415
H71	H	0.765050	-0.384530	-0.328531
H72	H	0.828594	-0.453901	-0.329463
H73	H	0.829555	-0.384414	-0.387197
H74	H	0.542353	-0.000017	-0.229692
H75	H	0.421492	-0.000060	0.023018
H76	H	0.846697	-0.000051	0.253211
C77	C	0.863770	-0.623151	-0.210734
C78	C	0.814197	-0.677556	-0.255806
C79	C	0.757509	-0.635989	-0.307358
H80	H	0.829132	-0.590609	-0.183586
H81	H	0.893587	-0.590600	-0.242291
H82	H	0.784383	-0.710094	-0.224253
H83	H	0.848813	-0.710100	-0.282970
H84	H	0.787326	-0.603438	-0.338915
H85	H	0.722877	-0.603448	-0.280204
H86	H	0.723873	-0.672896	-0.337950
C87	C	0.593286	0.000115	0.039060
C88	C	0.578280	0.068329	0.080983
C89	C	0.631654	0.068504	0.149272
H90	H	0.583250	-0.046066	0.067713
H91	H	0.649714	0.000157	0.028289
H92	H	0.521866	0.068279	0.091756
H93	H	0.588321	0.114521	0.052353
H94	H	0.688081	0.068546	0.138500
H95	H	0.621614	0.022320	0.177918
H96	H	0.621485	0.114790	0.177722
C97	C	0.370675	0.000022	-0.245782
C98	C	0.418408	0.000054	-0.307069
C99	C	0.365151	0.000111	-0.375427
H100	H	0.336408	-0.046198	-0.248214
H101	H	0.336443	0.046273	-0.248151
H102	H	0.452626	-0.046191	-0.304701
H103	H	0.452673	0.046271	-0.304662
H104	H	0.330919	0.046361	-0.377796
H105	H	0.330886	-0.046110	-0.377851
H106	H	0.397529	0.000140	-0.417019
H107	H	1.084663	-0.214345	-0.009985
H108	H	1.084695	-0.634341	-0.010000
H109	H	1.084710	-0.785743	-0.010004
H110	H	1.114640	-0.000071	0.683327
H111	H	0.879199	-0.785729	-0.196690
H112	H	0.879144	-0.214331	-0.196664
H113	H	1.117147	-0.000078	0.540114
C114	C	0.819054	0.000054	0.658912
C115	C	0.813851	0.068248	0.703715
C116	C	0.737462	0.068385	0.734272
H117	H	0.774473	0.000100	0.618795
H118	H	0.815354	-0.046157	0.689381
H119	H	0.817544	0.114447	0.673248
H120	H	0.858415	0.068217	0.743844
H121	H	0.733761	0.022174	0.764741
H122	H	0.692886	0.068429	0.694151
H123	H	0.733925	0.114650	0.764680
C124	C	1.142033	0.000056	0.299092
C125	C	1.188096	0.068250	0.285319
C126	C	1.263244	0.068376	0.333730
H127	H	1.130381	0.000095	0.350494
H128	H	1.173426	-0.046155	0.289861
H129	H	1.156710	0.114449	0.294556
H130	H	1.199771	0.068225	0.233928
H131	H	1.294636	0.022165	0.324499
H132	H	1.251583	0.068414	0.385129
H133	H	1.294510	0.114641	0.324387
C134	C	1.144776	-0.000102	0.134382
C135	C	1.129926	-0.000121	0.054864
C136	C	1.206294	-0.000170	0.024267
H137	H	1.175743	0.046117	0.150943
H138	H	1.175680	-0.046353	0.150999
H139	H	1.099035	0.046126	0.038254
H140	H	1.098971	-0.046337	0.038283
H141	H	1.237198	-0.046421	0.040884
H142	H	1.237255	0.046050	0.040833
H143	H	1.196229	-0.000190	-0.029689
C144	C	0.828859	0.000114	0.096787
C145	C	0.825222	0.068336	0.050944
C146	C	0.750177	0.068521	0.002388
H147	H	0.826171	-0.046062	0.065548
H148	H	0.783104	0.000151	0.126190
H149	H	0.870965	0.068291	0.021543
H150	H	0.827897	0.114522	0.082163
H151	H	0.704422	0.068559	0.031792
H152	H	0.747495	0.022343	-0.028845
H153	H	0.747696	0.114812	-0.028717
