data_functionalizedCrystal
_audit_creation_method	'MofGen! by Chris Wilmer'
_symmetry_space_group_name_H-M	'P1'
_symmetry_Int_Tables_number	1
_symmetry_cell_setting	triclinic
loop_
_symmetry_equiv_pos_as_xyz
  x,y,z
_cell_length_a	11.792241
_cell_length_b	11.792241
_cell_length_c	9.198806
_cell_angle_alpha	89.996670
_cell_angle_beta	90.000255
_cell_angle_gamma	84.193416
loop_
_atom_site_label
_atom_site_type_symbol
_atom_site_fract_x
_atom_site_fract_y
_atom_site_fract_z
O1	O	1.506908	0.155565	-0.120752
O2	O	1.176567	0.171598	-0.120786
O3	O	1.349754	-0.001589	-0.120758
O4	O	1.333721	0.328752	-0.120780
O5	O	1.349740	-0.001589	0.121027
O6	O	1.176553	0.171598	0.120999
O7	O	1.506894	0.155565	0.121033
Cu8	Cu	1.341723	0.163581	0.143093
Cu9	Cu	1.341739	0.163582	-0.142846
O10	O	1.333707	0.328752	0.121005
C11	C	1.348740	-0.043880	0.000134
C12	C	1.345726	-0.169894	0.000132
C13	C	1.134269	0.170591	0.000102
C14	C	1.008255	0.167576	0.000090
C15	C	0.777543	0.162034	0.000132
C16	C	0.905928	0.165113	0.000109
C17	C	1.340183	-0.400606	0.000108
C18	C	1.343262	-0.272221	0.000121
C19	C	1.549192	0.156572	0.000142
C20	C	1.675206	0.159587	0.000145
C21	C	1.334721	0.371043	0.000110
C22	C	1.337736	0.497057	0.000102
N23	N	1.341719	0.163580	0.344207
N24	N	1.341751	0.163574	-0.343960
C25	C	1.414436	0.090544	0.416416
C26	C	1.414454	0.090540	0.583828
H27	H	1.476676	0.028013	0.354300
N28	N	1.492537	0.012083	0.661732
N29	N	1.455823	-0.058428	0.746698
H30	H	1.510968	-0.113845	0.801720
N31	N	1.263660	0.242042	0.578163
N32	N	1.300367	0.312558	0.493199
H33	H	1.245217	0.367979	0.438189
N34	N	1.263615	0.242006	0.422121
N35	N	1.192894	0.205656	0.507089
H36	H	1.137727	0.261045	0.562114
