data_functionalizedCrystal
_audit_creation_method	'MofGen! by Chris Wilmer'
_symmetry_space_group_name_H-M	'P1'
_symmetry_Int_Tables_number	1
_symmetry_cell_setting	triclinic
loop_
_symmetry_equiv_pos_as_xyz
  x,y,z
_cell_length_a	19.188930
_cell_length_b	17.699086
_cell_length_c	16.176319
_cell_angle_alpha	89.999188
_cell_angle_beta	90.021299
_cell_angle_gamma	96.785650
loop_
_atom_site_label
_atom_site_type_symbol
_atom_site_fract_x
_atom_site_fract_y
_atom_site_fract_z
O1	O	-0.926254	0.094493	-0.069002
O2	O	-0.722957	0.107213	-0.068943
O3	O	-0.830349	-0.009343	-0.068981
O4	O	-0.818863	0.211050	-0.068964
O5	O	-0.830334	-0.009351	0.068512
O6	O	-0.722942	0.107206	0.068550
O7	O	-0.926239	0.094486	0.068492
Cu8	Cu	-0.824590	0.100845	0.081075
Cu9	Cu	-0.824607	0.100854	-0.081527
O10	O	-0.818848	0.211043	0.068530
C11	C	-0.696938	0.106798	-0.000190
C12	C	-0.619432	0.105561	-0.000168
C13	C	-0.952258	0.094902	-0.000264
C14	C	-1.029764	0.096138	-0.000291
C15	C	-0.829929	-0.037543	-0.000238
C16	C	-0.828694	-0.121560	-0.000248
C17	C	-0.574586	0.173953	-0.000175
C18	C	-0.501761	0.172791	-0.000185
C19	C	-0.473785	0.103234	-0.000203
C20	C	-0.518642	0.034833	-0.000191
C21	C	-0.591466	0.035997	-0.000173
N22	N	-0.365750	0.050069	-0.047035
N23	N	-0.296571	0.048968	-0.047054
C24	C	-0.254373	0.099724	-0.000254
N25	N	-0.283967	0.151634	0.046555
N26	N	-0.353153	0.152737	0.046570
C27	C	-0.394822	0.101964	-0.000221
C28	C	-0.130560	0.166861	-0.000270
C29	C	-0.057734	0.165696	-0.000274
C30	C	-0.074617	0.027736	-0.000289
C31	C	-0.147442	0.028903	-0.000276
C32	C	-0.175409	0.098467	-0.000271
C33	C	-0.819267	0.239243	-0.000215
C34	C	-0.820503	0.323259	-0.000210
C35	C	-0.828122	0.838968	-0.075194
C36	C	-0.826953	0.760027	-0.075190
C37	C	-0.826363	0.720558	-0.000239
C38	C	-0.826933	0.760036	0.074713
C39	C	-0.828096	0.838977	0.074708
C40	C	-0.822241	0.441678	0.074736
C41	C	-0.821080	0.362732	0.074736
C42	C	-0.821099	0.362729	-0.075161
C43	C	-0.822262	0.441669	-0.075166
C44	C	-0.822828	0.481140	-0.000215
C45	C	-0.824094	0.566738	-0.000221
C46	C	-0.825102	0.634962	-0.000232
N47	N	-0.824582	0.100839	0.195440
N48	N	-0.824620	0.100855	-0.195892
C49	C	-0.872150	0.049248	0.238688
C50	C	-0.872153	0.049248	0.325235
C51	C	-0.824592	0.100841	0.368533
C52	C	-0.777020	0.152434	0.325279
C53	C	-0.777014	0.152431	0.238734
C54	C	-0.777044	0.152448	0.674308
C55	C	-0.777055	0.152449	0.760859
C56	C	-0.872183	0.049265	0.760808
C57	C	-0.872177	0.049262	0.674263
C58	C	-0.824603	0.100851	0.631017
C59	C	-0.824599	0.100851	0.537173
C60	C	-0.824599	0.100846	0.462375
H61	H	-0.597351	0.230598	-0.000173
H62	H	-0.828606	0.871098	-0.136228
C63	C	-0.826278	0.716618	0.157160
N64	N	-0.825786	0.683917	0.219261
C65	C	-0.043849	-0.048778	-0.000307
N66	N	-0.020671	-0.106411	-0.000320
H67	H	-0.820634	0.330582	-0.136189
H68	H	-0.910885	0.007238	0.360446
C69	C	-0.008402	0.240936	-0.000270
N70	N	0.028756	0.297609	-0.000265
H71	H	-0.910908	0.007252	0.639012
H72	H	-0.153332	0.223504	-0.000254
C73	C	-0.924511	-0.007492	0.808387
N74	N	-0.963923	-0.050240	0.844221
H75	H	-0.183957	-0.026789	-0.000275
H76	H	-0.828552	0.871115	0.135736
H77	H	-0.738292	0.194440	0.360538
C78	C	-0.820423	0.319319	0.157192
N79	N	-0.819927	0.286620	0.219295
C80	C	-0.924471	-0.007510	0.191068
N81	N	-0.963879	-0.050265	0.155203
H82	H	-0.822716	0.473804	0.135766
C83	C	-0.724801	0.209296	0.626748
N84	N	-0.685482	0.252152	0.590924
H85	H	-0.822746	0.473800	-0.136199
H86	H	-0.465239	0.228486	-0.000188
C87	C	-0.826388	0.716602	-0.157636
N88	N	-0.825985	0.683892	-0.219738
H89	H	-0.738323	0.194464	0.796111
H90	H	-0.495860	-0.021801	-0.000217
C91	C	-0.640799	-0.039243	-0.000170
N92	N	-0.677959	-0.095914	-0.000171
H93	H	-0.738279	0.194440	0.203523
