data_functionalizedCrystal
_audit_creation_method	'MofGen! by Chris Wilmer'
_symmetry_space_group_name_H-M	'P1'
_symmetry_Int_Tables_number	1
_symmetry_cell_setting	triclinic
loop_
_symmetry_equiv_pos_as_xyz
  x,y,z
_cell_length_a	6.394989
_cell_length_b	10.723023
_cell_length_c	9.798715
_cell_angle_alpha	89.996770
_cell_angle_beta	89.999935
_cell_angle_gamma	85.482629
loop_
_atom_site_label
_atom_site_type_symbol
_atom_site_fract_x
_atom_site_fract_y
_atom_site_fract_z
O1	O	0.293014	1.660298	-0.113467
O2	O	0.321064	1.297443	-0.113472
O3	O	0.003048	1.484021	-0.113471
O4	O	0.611029	1.473720	-0.113468
O5	O	0.003047	1.484006	0.113511
O6	O	0.321063	1.297429	0.113510
O7	O	0.293013	1.660283	0.113515
Zn8	Zn	0.307038	1.478854	0.149551
Zn9	Zn	0.307039	1.478873	-0.149508
O10	O	0.611028	1.473706	0.113514
C11	C	0.319022	1.250914	0.000018
C12	C	0.312916	1.112295	0.000016
C13	C	0.310193	1.050487	0.117599
C14	C	0.303882	0.907217	0.117599
C15	C	0.688879	1.475749	0.000017
C16	C	0.925203	1.481974	0.000013
C17	C	0.295054	1.706812	0.000022
C18	C	0.301161	1.845431	0.000015
N19	N	0.307036	1.478850	0.353651
N20	N	0.307024	1.478886	-0.353608
C21	C	0.172922	1.557183	0.421428
C22	C	0.172914	1.557203	0.578591
H23	H	0.301552	0.854063	0.218266
C24	C	0.313395	1.122261	0.253610
C25	C	0.131541	1.115787	0.355735
C26	C	0.134762	1.187551	0.491754
C27	C	0.319838	1.265789	0.525648
C28	C	0.501706	1.272267	0.423520
C29	C	0.498485	1.200503	0.287501
H30	H	-0.005475	1.057867	0.330647
H31	H	0.000130	1.182755	0.567356
H32	H	0.322222	1.318913	0.626338
H33	H	0.638722	1.330186	0.448609
H34	H	0.633116	1.205299	0.211900
C35	C	0.304323	0.917218	-0.135994
C36	C	0.127168	1.018120	-0.169900
C37	C	0.130331	1.089918	-0.305909
C38	C	0.310648	1.060814	-0.408012
C39	C	0.487815	0.959907	-0.374108
C40	C	0.484653	0.888109	-0.238099
H41	H	-0.006325	1.039669	-0.094315
H42	H	-0.000822	1.164617	-0.331006
H43	H	0.312989	1.113964	-0.508694
H44	H	0.621309	0.938359	-0.449693
H45	H	0.615805	0.813411	-0.213002
H46	H	0.058097	1.624228	0.363106
C47	C	0.462156	1.388278	0.567672
C48	C	0.456063	1.246021	0.586388
C49	C	0.611194	1.155413	0.507656
C50	C	0.772418	1.207061	0.410208
C51	C	0.778516	1.349325	0.391487
C52	C	0.623385	1.439933	0.470219
H53	H	0.336711	1.207781	0.658529
H54	H	0.606679	1.050100	0.521515
H55	H	0.887255	1.139988	0.351925
H56	H	0.897869	1.387565	0.319346
H57	H	0.627901	1.545247	0.456361
H58	H	0.310569	1.059145	-0.100650
H59	H	0.058101	1.624271	0.636876
H60	H	0.421844	1.411796	0.411975
