data_functionalizedCrystal
_audit_creation_method	'MofGen! by Chris Wilmer'
_symmetry_space_group_name_H-M	'P1'
_symmetry_Int_Tables_number	1
_symmetry_cell_setting	triclinic
loop_
_symmetry_equiv_pos_as_xyz
  x,y,z
_cell_length_a	18.050591
_cell_length_b	13.897449
_cell_length_c	13.897441
_cell_angle_alpha	89.978378
_cell_angle_beta	90.018081
_cell_angle_gamma	89.997485
loop_
_atom_site_label
_atom_site_type_symbol
_atom_site_fract_x
_atom_site_fract_y
_atom_site_fract_z
Zn1	Zn	-1.135476	-0.383987	-0.545373
Zn2	Zn	-0.635476	0.116013	-0.045373
Zn3	Zn	-1.135427	-0.545308	-0.384100
Zn4	Zn	-0.635427	-0.045308	0.115900
Zn5	Zn	-1.011280	-0.384029	-0.384099
Zn6	Zn	-0.511280	0.115971	0.115901
Zn7	Zn	-1.011298	-0.545241	-0.545360
Zn8	Zn	-0.511298	-0.045241	-0.045360
O9	O	-1.073370	-0.464641	-0.464733
O10	O	-0.573370	0.035359	0.035267
O11	O	-1.239394	-0.405397	-0.523986
O12	O	-0.739394	0.094603	-0.023986
O13	O	-1.118930	-0.523960	-0.249118
O14	O	-0.618930	-0.023960	0.250882
O15	O	-1.027767	-0.249042	-0.405498
O16	O	-0.527767	0.250958	0.094502
O17	O	-1.239358	-0.523919	-0.405499
O18	O	-0.739358	-0.023919	0.094501
O19	O	-1.119014	-0.249011	-0.523985
O20	O	-0.619014	0.250989	-0.023985
O21	O	-1.027720	-0.405469	-0.249117
O22	O	-0.527720	0.094531	0.250883
O23	O	-0.907358	-0.405403	-0.405485
O24	O	-0.407358	0.094597	0.094515
O25	O	-1.027799	-0.523805	-0.680343
O26	O	-0.527799	-0.023805	-0.180343
O27	O	-0.907371	-0.523845	-0.523962
O28	O	-0.407371	-0.023845	-0.023962
O29	O	-1.119032	-0.405332	-0.680353
O30	O	-0.619032	0.094668	-0.180353
O31	O	-1.118948	-0.680281	-0.405486
O32	O	-0.618948	-0.180281	0.094514
O33	O	-1.027752	-0.680232	-0.523963
O34	O	-0.527752	-0.180232	-0.023963
C35	C	-0.880418	-0.464622	-0.464723
C36	C	-0.380418	0.035378	0.035277
C37	C	-0.797872	-0.464638	-0.464741
C38	C	-0.297872	0.035362	0.035259
C39	C	-0.549076	-0.529186	-0.529078
C40	C	-0.049076	-0.029186	-0.029078
C41	C	-0.598445	-0.552670	-0.441040
C42	C	-0.098445	-0.052670	0.058960
C43	C	-0.500752	-0.464675	-0.464735
C44	C	-0.000752	0.035325	0.035265
C45	C	-0.598464	-0.441217	-0.552771
C46	C	-0.098464	0.058783	-0.052771
C47	C	-0.646737	-0.464659	-0.464743
C48	C	-0.146737	0.035341	0.035257
C49	C	-0.549034	-0.488206	-0.376651
C50	C	-0.049034	0.011794	0.123349
C51	C	-0.549048	-0.376711	-0.488441
C52	C	-0.049048	0.123289	0.011559
C53	C	-0.598396	-0.400163	-0.400342
C54	C	-0.098396	0.099837	0.099658
C55	C	-0.416654	-0.464687	-0.464733
C56	C	0.083346	0.035313	0.035267
C57	C	-0.730834	-0.464647	-0.464736
C58	C	-0.230834	0.035353	0.035264
C59	C	-1.073367	-0.715256	-0.464744
C60	C	-0.573367	-0.215256	0.035256
C61	C	-1.073433	-0.822470	-0.464781
C62	C	-0.573433	-0.322470	0.035219
C63	C	-1.073423	-0.464556	-0.716326
C64	C	-0.573423	0.035444	-0.216326
C65	C	-1.073445	-0.464520	-0.823540
C66	C	-0.573445	0.035480	-0.323540
C67	C	-0.267076	-0.464667	-0.464741
C68	C	0.232924	0.035333	0.035259
C69	C	-0.349622	-0.464693	-0.464736
C70	C	0.150378	0.035307	0.035264
C71	C	-1.073394	-0.213048	-0.464743
C72	C	-0.573394	0.286952	0.035257
C73	C	-1.073404	-0.105834	-0.464747
C74	C	-0.573404	0.394166	0.035253
C75	C	-1.073427	0.090461	-0.464777
C76	C	-0.573427	0.590461	0.035223
C77	C	-1.073416	-0.018772	-0.464763
C78	C	-0.573416	0.481228	0.035237
C79	C	-1.073465	-0.464454	-1.019835
C80	C	-0.573465	0.035546	-0.519835
C81	C	-1.073452	-0.464493	-0.910603
C82	C	-0.573452	0.035507	-0.410603
C83	C	-1.073360	-0.464657	-0.214119
C84	C	-0.573360	0.035343	0.285881
C85	C	-1.073482	-0.464421	-0.106905
C86	C	-0.573482	0.035579	0.393095
H87	H	-0.527414	-0.508130	-0.302183
H88	H	-0.027414	-0.008130	0.197817
N89	N	-0.520381	-0.601513	-0.601051
N90	N	-0.020381	-0.101513	-0.101051
H91	H	-0.464432	-0.600575	-0.600972
H92	H	0.035568	-0.100575	-0.100972
H93	H	-0.539185	-0.584444	-0.667348
H94	H	-0.039185	-0.084444	-0.167348
N95	N	-0.626911	-0.327895	-0.328191
N96	N	-0.126911	0.172105	0.171809
H97	H	-0.682862	-0.327889	-0.328986
H98	H	-0.182862	0.172111	0.171014
H99	H	-0.608095	-0.261687	-0.345538
H100	H	-0.108095	0.238313	0.154462
N101	N	-0.520306	-0.278195	-0.515016
N102	N	-0.020306	0.221805	-0.015016
H103	H	-0.538262	-0.260532	-0.581557
H104	H	-0.038262	0.239468	-0.081557
H105	H	-0.464360	-0.278820	-0.514139
H106	H	0.035640	0.221180	-0.014139
H107	H	-0.620142	-0.627053	-0.420985
H108	H	-0.120142	-0.127053	0.079015
H109	H	-0.620176	-0.421383	-0.627219
H110	H	-0.120176	0.078617	-0.127219
