data_functionalizedCrystal
_audit_creation_method	'MofGen! by Chris Wilmer'
_symmetry_space_group_name_H-M	'P1'
_symmetry_Int_Tables_number	1
_symmetry_cell_setting	triclinic
loop_
_symmetry_equiv_pos_as_xyz
  x,y,z
_cell_length_a	17.038272
_cell_length_b	9.730223
_cell_length_c	10.654550
_cell_angle_alpha	89.999807
_cell_angle_beta	87.798230
_cell_angle_gamma	90.005285
loop_
_atom_site_label
_atom_site_type_symbol
_atom_site_fract_x
_atom_site_fract_y
_atom_site_fract_z
O1	O	1.038886	-0.114112	0.272859
O2	O	0.811231	-0.114153	0.268526
O3	O	0.930293	-0.114126	0.088439
O4	O	0.919825	-0.114139	0.452946
O5	O	0.930292	0.114453	0.088444
O6	O	0.811230	0.114427	0.268531
O7	O	1.038885	0.114468	0.272864
Zn8	Zn	0.925057	0.150739	0.270698
Zn9	Zn	0.925059	-0.150424	0.270692
O10	O	0.919823	0.114441	0.452950
C11	C	0.782081	0.000132	0.264588
C12	C	0.695222	0.000117	0.252831
N13	N	0.925062	0.356276	0.270702
C14	C	0.929524	0.000162	0.041572
C15	C	0.927224	0.000156	-0.098084
C16	C	0.645711	0.000114	0.360775
C17	C	0.564098	0.000133	0.349720
C18	C	0.531999	0.000145	0.230720
C19	C	0.581517	0.000152	0.122768
C20	C	0.663127	0.000143	0.133824
C21	C	0.286023	0.000183	0.191663
C22	C	0.204406	0.000189	0.180615
C23	C	0.186993	0.000173	0.407568
C24	C	0.268606	0.000155	0.418614
C25	C	0.318117	0.000169	0.310661
C26	C	0.448578	0.000161	0.219418
C27	C	0.401536	0.000163	0.321965
C28	C	1.068036	0.000180	0.276802
C29	C	1.154895	0.000186	0.288559
N30	N	0.925061	-0.355961	0.270678
C31	C	0.977796	0.428213	0.190990
C32	C	0.977794	0.572096	0.190974
C33	C	0.872321	0.572091	0.350394
C34	C	0.872320	0.428211	0.350402
C35	C	1.038692	0.428218	0.098954
C36	C	1.038690	0.572101	0.098938
C37	C	0.997326	0.000173	-0.171061
C38	C	0.995160	0.000163	-0.302283
C39	C	0.852785	0.000126	-0.287540
C40	C	0.854952	0.000126	-0.156320
C41	C	1.079525	0.000201	-0.179574
C42	C	1.077359	0.000191	-0.310796
C43	C	0.920593	0.000150	0.499817
C44	C	0.922892	0.000146	0.639474
H45	H	0.671839	0.000103	0.457677
H46	H	1.108330	0.095855	-0.349678
Cl47	Cl	1.129162	-0.147468	-0.129631
Cl48	Cl	0.348254	0.000199	0.055949
H49	H	0.523789	0.000130	0.437620
Cl50	Cl	1.018070	0.367911	-0.051994
H51	H	0.294735	0.000129	0.515516
H52	H	0.703439	0.000144	0.045924
H53	H	0.829373	0.369641	0.415299
H54	H	0.829379	0.630676	0.415283
Cl55	Cl	0.441891	0.000152	0.471559
Cl56	Cl	0.408218	0.000170	0.069822
H57	H	1.098807	0.611161	0.126039
Cl58	Cl	0.124748	0.000161	0.543270
H59	H	0.797868	0.000093	-0.096907
Cl60	Cl	1.009340	0.640994	-0.044618
H61	H	0.178274	0.000197	0.083706
H62	H	0.793943	0.000100	-0.334971
H63	H	1.095490	0.383601	0.134816
Cl64	Cl	1.119923	0.152594	-0.120801
Cl65	Cl	1.115713	-0.152173	-0.377718
H66	H	0.555375	0.000181	0.025876
