data_functionalizedCrystal
_audit_creation_method	'MofGen! by Chris Wilmer'
_symmetry_space_group_name_H-M	'P1'
_symmetry_Int_Tables_number	1
_symmetry_cell_setting	triclinic
loop_
_symmetry_equiv_pos_as_xyz
  x,y,z
_cell_length_a	10.685909
_cell_length_b	19.077068
_cell_length_c	19.077174
_cell_angle_alpha	85.342852
_cell_angle_beta	87.756993
_cell_angle_gamma	87.782494
loop_
_atom_site_label
_atom_site_type_symbol
_atom_site_fract_x
_atom_site_fract_y
_atom_site_fract_z
Zn1	Zn	-1.925624	0.375770	-0.330478
Zn2	Zn	-1.425624	0.875770	0.169522
Zn3	Zn	-1.909269	0.488253	-0.217995
Zn4	Zn	-1.409269	0.988253	0.282005
Zn5	Zn	-1.707778	0.362108	-0.221586
Zn6	Zn	-1.207778	0.862108	0.278414
Zn7	Zn	-1.707695	0.484669	-0.344149
Zn8	Zn	-1.207695	0.984669	0.155851
O9	O	-1.812592	0.427700	-0.278552
O10	O	-1.312592	0.927700	0.221448
O11	O	-2.098983	0.397908	-0.308332
O12	O	-1.598983	0.897908	0.191668
O13	O	-1.875731	0.467302	-0.120104
O14	O	-1.375731	0.967302	0.379896
O15	O	-1.743556	0.265553	-0.231812
O16	O	-1.243556	0.765553	0.268188
O17	O	-2.086967	0.480549	-0.225692
O18	O	-1.586967	0.980549	0.274308
O19	O	-1.903606	0.275591	-0.311814
O20	O	-1.403606	0.775591	0.188186
O21	O	-1.727697	0.374623	-0.122743
O22	O	-1.227697	0.874623	0.377257
O23	O	-1.532239	0.371148	-0.245069
O24	O	-1.032239	0.871148	0.254931
O25	O	-1.743413	0.474441	-0.440703
O26	O	-1.243413	0.974441	0.059297
O27	O	-1.532177	0.461193	-0.335115
O28	O	-1.032177	0.961193	0.164885
O29	O	-1.903525	0.394433	-0.430659
O30	O	-1.403525	0.894433	0.069341
O31	O	-1.875650	0.586144	-0.238949
O32	O	-1.375650	1.086144	0.261051
O33	O	-1.727555	0.583511	-0.331633
O34	O	-1.227555	1.083511	0.168367
C35	C	-1.486695	0.414300	-0.291966
C36	C	-0.986695	0.914300	0.208034
C37	C	-1.347276	0.408585	-0.297722
C38	C	-0.847276	0.908585	0.202278
C39	C	-1.139761	0.441146	-0.265081
C40	C	-0.639761	0.941146	0.234919
C41	C	-1.279181	0.446859	-0.259328
C42	C	-0.779181	0.946859	0.240672
C43	C	-1.799854	0.610335	-0.286399
C44	C	-1.299854	1.110335	0.213601
C45	C	-1.794521	0.688473	-0.289774
C46	C	-1.294521	1.188473	0.210226
C47	C	-1.825284	0.435561	-0.461899
C48	C	-1.325284	0.935561	0.038101
C49	C	-1.830693	0.438911	-0.540031
C50	C	-1.330693	0.938911	-0.040031
C51	C	-1.825415	0.244354	-0.270689
C52	C	-1.325415	0.744354	0.229311
C53	C	-1.830879	0.166222	-0.267338
C54	C	-1.330879	0.666222	0.232662
C55	C	-1.869185	0.726534	-0.243139
C56	C	-1.369185	1.226534	0.256861
C57	C	-1.864177	0.799953	-0.246318
C58	C	-1.364177	1.299953	0.253682
C59	C	-1.784497	0.835309	-0.296129
C60	C	-1.284497	1.335309	0.203871
C61	C	-1.709829	0.797243	-0.342770
C62	C	-1.209829	1.297243	0.157230
C63	C	-1.714845	0.723826	-0.339594
C64	C	-1.214845	1.223826	0.160406
C65	C	-1.761227	1.054739	-0.310802
C66	C	-1.261227	1.554739	0.189198
C67	C	-1.756214	1.128161	-0.313973
C68	C	-1.256214	1.628161	0.186027
C69	C	-1.910565	1.130866	-0.217522
C70	C	-1.410565	1.630866	0.282478
C71	C	-1.915568	1.057447	-0.214348
C72	C	-1.415568	1.557447	0.285652
C73	C	-1.840905	1.019388	-0.260990
C74	C	-1.340905	1.519388	0.239010
N75	N	-1.779373	0.910355	-0.299378
N76	N	-1.279373	1.410355	0.200622
N77	N	-1.846036	0.944343	-0.257744
N78	N	-1.346036	1.444343	0.242256
C79	C	-1.756164	0.392234	-0.578111
C80	C	-1.256164	0.892234	-0.078111
C81	C	-1.761241	0.395387	-0.651524
C82	C	-1.261241	0.895387	-0.151524
C83	C	-1.840855	0.445215	-0.686856
C84	C	-1.340855	0.945215	-0.186856
C85	C	-1.915386	0.491898	-0.648772
C86	C	-1.415386	0.991898	-0.148772
C87	C	-1.910302	0.488747	-0.575360
C88	C	-1.410302	0.988747	-0.075360
C89	C	-1.864319	0.459815	-0.906267
C90	C	-1.364319	0.959815	-0.406267
C91	C	-1.869401	0.462961	-0.979684
C92	C	-1.369401	0.962961	-0.479684
C93	C	-1.715253	0.366450	-0.982431
C94	C	-1.215253	0.866450	-0.482431
C95	C	-1.710182	0.363301	-0.909017
C96	C	-1.210182	0.863301	-0.409017
C97	C	-1.784708	0.409986	-0.870940
C98	C	-1.284708	0.909986	-0.370940
N99	N	-1.846049	0.448438	-0.761897
N100	N	-1.346049	0.948438	-0.261897
N101	N	-1.779507	0.406766	-0.795901
N102	N	-1.279507	0.906766	-0.295901
C103	C	-1.800024	0.419821	-0.095913
C104	C	-1.300024	0.919821	0.404087
C105	C	-1.794872	0.416283	-0.017763
C106	C	-1.294872	0.916283	0.482237
H107	H	-1.298908	0.371446	-0.334999
H108	H	-0.798908	0.871446	0.165001
C109	C	-1.344513	0.497032	-0.208971
C110	C	-0.844513	0.997032	0.291029
N111	N	-1.393730	0.534822	-0.171040
N112	N	-0.893730	1.034822	0.328960
H113	H	-1.934064	0.697751	-0.202575
H114	H	-1.434064	1.197751	0.297425
H115	H	-1.924976	0.830939	-0.208342
H116	H	-1.424976	1.330939	0.291658
H117	H	-1.980450	1.028661	-0.173787
H118	H	-1.480450	1.528661	0.326213
C119	C	-1.992692	1.172738	-0.166221
C120	C	-1.492692	1.672738	0.333779
N121	N	-2.054557	1.204276	-0.127580
N122	N	-1.554557	1.704276	0.372420
C123	C	-1.622598	0.308488	-0.870157
C124	C	-1.122598	0.808488	-0.370157
N125	N	-1.556630	0.267200	-0.840888
N126	N	-1.056630	0.767200	-0.340888
H127	H	-1.691342	0.351654	-0.549348
H128	H	-1.191342	0.851654	-0.049348
H129	H	-1.654577	0.328443	-1.013442
H130	H	-1.154577	0.828443	-0.513442
C131	C	-1.668564	1.167052	-0.368776
C132	C	-1.168564	1.667052	0.131224
N133	N	-1.602550	1.196345	-0.410052
N134	N	-1.102550	1.696345	0.089948
H135	H	-1.700431	1.023756	-0.348779
H136	H	-1.200431	1.523756	0.151221
H137	H	-1.644957	0.826036	-0.383330
H138	H	-1.144957	1.326036	0.116670
H139	H	-1.971001	0.526752	-0.544356
H140	H	-1.471001	1.026752	-0.044356
H141	H	-1.654046	0.692837	-0.377570
H142	H	-1.154046	1.192837	0.122430
C143	C	-1.679266	0.344031	-0.693407
C144	C	-1.179266	0.844031	-0.193407
N145	N	-1.617523	0.305345	-0.724953
N146	N	-1.117523	0.805345	-0.224953
H147	H	-1.934237	0.503538	-1.008449
H148	H	-1.434237	1.003538	-0.508449
C149	C	-1.946375	0.511134	-0.864386
C150	C	-1.446375	1.011134	-0.364386
N151	N	-2.008208	0.549777	-0.832838
N152	N	-1.508208	1.049777	-0.332838
H153	H	-1.980203	0.532472	-0.677546
H154	H	-1.480203	1.032472	-0.177546
