data_functionalizedCrystal
_audit_creation_method	'MofGen! by Chris Wilmer'
_symmetry_space_group_name_H-M	'P1'
_symmetry_Int_Tables_number	1
_symmetry_cell_setting	triclinic
loop_
_symmetry_equiv_pos_as_xyz
  x,y,z
_cell_length_a	15.538191
_cell_length_b	10.489741
_cell_length_c	14.750779
_cell_angle_alpha	77.226586
_cell_angle_beta	97.572172
_cell_angle_gamma	65.905634
loop_
_atom_site_label
_atom_site_type_symbol
_atom_site_fract_x
_atom_site_fract_y
_atom_site_fract_z
O1	O	1.226910	-0.375937	-0.079837
O2	O	0.953648	-0.229122	-0.079837
O3	O	1.096498	-0.491086	-0.079831
O4	O	1.084059	-0.113973	-0.079843
O5	O	1.136881	-0.565134	0.079820
O6	O	0.994030	-0.303170	0.079815
O7	O	1.267292	-0.449985	0.079814
Zn8	Zn	1.137073	-0.388334	0.105163
Zn9	Zn	1.083867	-0.290773	-0.105185
O10	O	1.124442	-0.188021	0.079809
C11	C	0.938847	-0.250786	-0.000011
C12	C	0.834584	-0.205032	-0.000010
C13	C	0.543710	-0.659589	-0.000011
C14	C	0.445735	-0.616562	-0.000013
C15	C	0.424932	-0.374552	-0.000021
C16	C	0.522908	-0.417560	-0.000014
C17	C	0.582289	-0.560080	-0.000010
C18	C	0.561488	-0.318051	-0.000013
C19	C	0.659454	-0.361054	-0.000011
C20	C	0.718840	-0.503566	-0.000011
C21	C	0.680255	-0.603083	-0.000009
C22	C	0.502103	-0.175529	-0.000023
C23	C	0.540683	-0.076020	-0.000022
C24	C	0.638652	-0.119026	-0.000013
C25	C	0.698039	-0.261538	-0.000013
C26	C	0.677237	-0.019509	-0.000015
C27	C	0.775203	-0.062512	-0.000014
C28	C	0.796005	-0.304540	-0.000011
C29	C	1.115750	-0.575195	-0.000006
C30	C	1.112940	-0.715488	-0.000008
C31	C	1.022047	-0.740411	-0.000014
C32	C	1.084893	-0.889457	0.078702
C33	C	1.045101	-0.816436	-0.078702
C34	C	1.175840	-0.862716	0.078774
C35	C	1.136017	-0.789647	-0.078701
C36	C	1.198935	-0.938706	0.000035
C37	C	1.282092	-0.428320	-0.000014
C38	C	1.386354	-0.474071	-0.000020
C39	C	1.105189	-0.103911	-0.000018
C40	C	1.107998	0.036385	-0.000023
N41	N	1.173391	-0.454921	0.248720
N42	N	1.047557	-0.224199	-0.248742
C43	C	0.946125	-0.038287	0.600530
C44	C	0.971581	-0.084942	0.701030
C45	C	1.098102	-0.316860	0.700997
C46	C	1.072654	-0.270227	0.600495
C47	C	0.996665	-0.130939	0.550269
C48	C	1.123193	-0.362879	0.550235
C49	C	1.097750	-0.316246	0.449741
C50	C	1.021766	-0.176962	0.399508
C51	C	0.971221	-0.084307	0.449776
C52	C	1.199186	-0.502162	0.600462
C53	C	1.249726	-0.594814	0.550202
C54	C	1.224278	-0.548186	0.449707
C55	C	1.148295	-0.408902	0.399474
C56	C	1.274823	-0.640842	0.399439
C57	C	1.249379	-0.594209	0.298946
C58	C	1.122851	-0.362270	0.298980
H59	H	0.422333	-0.140520	-0.000027
H60	H	1.219903	-0.540122	0.682290
H61	H	0.376570	-0.258511	-0.000027
H62	H	0.947337	-0.655267	0.000065
O63	O	1.161910	-0.737816	-0.158067
C64	C	1.283675	-0.783014	-0.248705
C65	C	1.254475	-0.841918	-0.158788
H66	H	1.358524	-0.867138	-0.249307
H67	H	1.227928	-0.761946	-0.315799
H68	H	1.286212	-0.676283	-0.247541
H69	H	1.251948	-0.948680	-0.159858
H70	H	1.310230	-0.862882	-0.091733
H71	H	1.231116	-0.881053	0.145397
H72	H	1.273743	-1.023712	0.000078
H73	H	1.336700	-0.754246	0.440346
H74	H	0.628872	0.096534	-0.000028
O75	O	0.872198	0.096903	0.551691
C76	C	0.715450	0.235858	0.438216
C77	C	0.799087	0.082677	0.493481
H78	H	0.656327	0.224410	0.391125
H79	H	0.683612	0.294104	0.491358
H80	H	0.744532	0.302478	0.391200
H81	H	0.770081	0.015939	0.540499
H82	H	0.830912	0.024546	0.440288
H83	H	0.492321	0.040021	-0.000029
H84	H	1.063268	-0.933050	0.145251
O85	O	0.922346	0.005220	0.749705
C86	C	0.794187	0.240218	0.739130
C87	C	0.849849	0.138252	0.683887
H88	H	0.735575	0.347808	0.685940
H89	H	0.758751	0.185265	0.786158
H90	H	0.847085	0.263101	0.786200
H91	H	0.797015	0.115334	0.636765
H92	H	0.885300	0.193257	0.636919
H93	H	0.592063	-0.775645	-0.000003
H94	H	1.060966	-0.248853	0.258085
O95	O	1.298541	-0.684416	0.250265
C96	C	1.426761	-0.919353	0.260827
C97	C	1.371147	-0.817357	0.316077
H98	H	1.485488	-1.026846	0.314012
H99	H	1.373933	-0.942426	0.213814
H100	H	1.462076	-0.864239	0.213742
H101	H	1.335828	-0.872382	0.363215
H102	H	1.424018	-0.794284	0.363030
O103	O	0.979121	-0.794511	-0.158168
C104	C	0.860020	-0.621020	-0.303379
C105	C	0.934733	-0.645660	-0.213443
H106	H	0.824097	-0.500672	-0.348084
H107	H	0.898474	-0.691958	-0.347946
H108	H	0.802126	-0.652183	-0.280650
H109	H	0.992647	-0.614481	-0.236087
H110	H	0.896210	-0.574742	-0.168898
H111	H	1.001054	-0.138994	0.317680
H112	H	1.159976	-0.430268	0.741903
O113	O	0.812692	0.034165	-0.000174
C114	C	0.890377	0.164353	-0.082844
C115	C	0.847931	0.054875	-0.082791
H116	H	0.918897	0.181108	-0.149623
H117	H	0.831134	0.273664	-0.082904
H118	H	0.952589	0.119251	-0.015998
H119	H	0.785732	0.099842	-0.149626
H120	H	0.907231	-0.054418	-0.082682
H121	H	0.909337	0.029110	0.408880
O122	O	1.323464	-0.730224	0.598893
C123	C	1.384718	-0.991013	0.629677
C124	C	1.301158	-0.837742	0.574458
H125	H	1.366703	-1.077983	0.609957
H126	H	1.455054	-1.000160	0.609886
H127	H	1.394229	-1.008361	0.710130
H128	H	1.291557	-0.820291	0.493992
H129	H	1.230867	-0.828667	0.594328
H130	H	0.798607	-0.538570	-0.000022
O131	O	0.738027	-0.741594	0.000170
C132	C	0.881663	-0.968933	0.082860
C133	C	0.816311	-0.812125	0.082790
H134	H	0.944982	-1.025993	0.149640
H135	H	0.837324	-1.032774	0.082926
H136	H	0.911098	-0.964078	0.016016
H137	H	0.786861	-0.816843	0.149622
H138	H	0.860693	-0.748346	0.082673
O139	O	0.408185	-0.713169	0.000118
C140	C	0.330632	-0.843526	0.082859
C141	C	0.373104	-0.734081	0.082821
H142	H	0.302276	-0.860491	0.149727
H143	H	0.268338	-0.798470	0.016090
H144	H	0.389911	-0.952731	0.082814
H145	H	0.313894	-0.624845	0.082900
H146	H	0.435420	-0.779257	0.149584
O147	O	0.853617	-0.442923	-0.000176
C148	C	0.880436	-0.624613	-0.082851
C149	C	0.815119	-0.467865	-0.082792
H150	H	0.849325	-0.644839	-0.149629
H151	H	0.957081	-0.638296	-0.082915
H152	H	0.883225	-0.706792	-0.016004
H153	H	0.812249	-0.385590	-0.149628
H154	H	0.738508	-0.454306	-0.082679
