data_functionalizedCrystal
_audit_creation_method	'MofGen! by Chris Wilmer'
_symmetry_space_group_name_H-M	'P1'
_symmetry_Int_Tables_number	1
_symmetry_cell_setting	triclinic
loop_
_symmetry_equiv_pos_as_xyz
  x,y,z
_cell_length_a	10.654550
_cell_length_b	27.732048
_cell_length_c	9.130313
_cell_angle_alpha	89.990549
_cell_angle_beta	89.999724
_cell_angle_gamma	83.563793
loop_
_atom_site_label
_atom_site_type_symbol
_atom_site_fract_x
_atom_site_fract_y
_atom_site_fract_z
O1	O	1.664986	0.067886	-0.121708
O2	O	1.299235	0.074354	-0.121737
O3	O	1.493470	0.000794	-0.121693
O4	O	1.470751	0.141446	-0.121751
O5	O	1.493457	0.000792	0.121905
O6	O	1.299222	0.074351	0.121862
O7	O	1.664973	0.067884	0.121891
Cu8	Cu	1.482096	0.071117	0.144119
Cu9	Cu	1.482112	0.071120	-0.143965
O10	O	1.470738	0.141444	0.121848
C11	C	1.252451	0.073878	0.000060
C12	C	1.113067	0.072457	0.000050
C13	C	1.031761	0.115768	0.000036
C14	C	0.900796	0.114430	0.000063
C15	C	0.932457	0.026466	0.000110
C16	C	1.063419	0.027805	0.000094
C17	C	1.492986	-0.017217	0.000110
C18	C	1.491550	-0.070881	0.000122
C19	C	1.597290	-0.409038	0.000055
C20	C	1.591962	-0.610730	0.000034
O21	O	1.688653	-0.641384	-0.000022
N22	N	1.476789	-0.630571	0.000027
C23	C	1.362940	-0.599986	0.000015
O24	O	1.264855	-0.621490	-0.000008
C25	C	1.368269	-0.398294	0.000025
C26	C	1.483449	-0.378456	0.000047
C27	C	1.712461	-0.389199	0.000076
C28	C	1.713792	-0.338779	0.000089
C29	C	1.599951	-0.308197	0.000081
C30	C	1.484780	-0.328036	0.000061
C31	C	1.254421	-0.367709	0.000002
C32	C	1.255764	-0.317284	0.000001
C33	C	1.370944	-0.297446	0.000024
C34	C	1.372271	-0.247034	0.000066
N35	N	1.487444	-0.227193	0.000074
C36	C	1.601284	-0.257774	0.000081
C37	C	1.360150	-0.705877	0.000012
C38	C	1.358817	-0.756300	0.000012
C39	C	1.587840	-0.767041	0.000029
C40	C	1.589171	-0.716617	0.000039
C41	C	1.475323	-0.686036	0.000020
C42	C	1.604070	-0.151888	0.000110
C43	C	1.605391	-0.101463	0.000130
C44	C	1.376369	-0.090726	0.000105
C45	C	1.375047	-0.141147	0.000093
C46	C	1.488908	-0.171727	0.000091
O47	O	1.275631	-0.216352	0.000106
O48	O	1.699354	-0.236261	0.000071
C49	C	1.595959	-0.459458	0.000042
C50	C	1.480788	-0.479296	0.000021
C51	C	1.366947	-0.448715	0.000013
C52	C	1.479455	-0.529719	0.000021
C53	C	1.593296	-0.560301	0.000029
C54	C	1.708469	-0.540460	0.000036
C55	C	1.709799	-0.490040	0.000049
C56	C	1.251774	-0.468556	0.000006
C57	C	1.250453	-0.518976	-0.000006
C58	C	1.364293	-0.549558	0.000002
C59	C	1.711757	0.068360	0.000092
C60	C	1.851141	0.069781	0.000092
C61	C	1.471221	0.159455	0.000041
C62	C	1.472657	0.213118	0.000020
N63	N	1.482094	0.071115	0.346742
N64	N	1.482123	0.071118	-0.346587
C65	C	1.568130	0.038557	0.423413
C66	C	1.568142	0.038557	0.576750
C67	C	1.396079	0.103678	0.576731
C68	C	1.396062	0.103675	0.423397
H69	H	1.129623	-0.007466	0.000109
C70	C	1.251154	-0.057080	0.000088
H71	H	1.268453	-0.024210	0.000081
H72	H	1.203867	-0.063138	0.085023
H73	H	1.203901	-0.063130	-0.084884
H74	H	0.892018	-0.009888	0.000154
H75	H	1.805169	-0.414094	0.000077
C76	C	1.836499	-0.468224	0.000059
H77	H	1.904098	-0.493664	0.000049
H78	H	1.841789	-0.448783	0.085007
H79	H	1.841788	-0.448774	-0.084900
C80	C	1.713065	-0.800685	0.000029
H81	H	1.781858	-0.781652	0.000039
H82	H	1.717293	-0.820573	-0.084920
H83	H	1.717301	-0.820583	0.084987
H84	H	1.699189	-0.085314	0.000152
C85	C	1.301430	0.139494	0.339046
H86	H	1.313737	0.134826	0.236748
H87	H	1.314439	0.171801	0.364150
H88	H	1.217725	0.133944	0.364187
C89	C	1.662750	0.002738	0.339096
H90	H	1.713982	-0.016655	0.406726
H91	H	1.714675	0.020309	0.279257
H92	H	1.617957	-0.017546	0.279307
H93	H	0.834601	0.149698	0.000054
H94	H	1.160629	-0.383852	-0.000025
H95	H	1.682961	-0.700469	0.000056
C96	C	1.662778	0.002744	0.661088
H97	H	1.650461	0.007403	0.763388
H98	H	1.746476	0.008293	0.635946
H99	H	1.649763	-0.029565	0.635977
C100	C	1.833690	-0.574106	0.000033
H101	H	1.816388	-0.606976	0.000010
H102	H	1.880967	-0.568061	0.084981
H103	H	1.880954	-0.568045	-0.084926
C104	C	1.729314	-0.185519	0.000120
H105	H	1.798087	-0.166476	0.000148
H106	H	1.733577	-0.205408	-0.084828
H107	H	1.733551	-0.205416	0.085079
H108	H	1.265026	-0.772447	0.000019
H109	H	1.326035	0.130189	0.639159
C110	C	1.840491	-0.316963	0.000086
H111	H	1.908090	-0.342404	0.000072
H112	H	1.845788	-0.297521	0.085030
H113	H	1.845773	-0.297515	-0.084877
H114	H	1.281258	-0.157299	0.000116
H115	H	1.072179	0.152126	0.000012
C116	C	1.234908	-0.672244	0.000010
H117	H	1.166134	-0.691286	0.000022
H118	H	1.230653	-0.652344	-0.084934
H119	H	1.230663	-0.652357	0.084973
H120	H	1.163052	-0.292386	-0.000017
C121	C	1.123746	-0.540792	-0.000035
H122	H	1.056144	-0.515353	-0.000053
H123	H	1.118442	-0.560248	0.084900
H124	H	1.118476	-0.560229	-0.085007
H125	H	1.159069	-0.443660	-0.000004
