data_functionalizedCrystal
_audit_creation_method	'MofGen! by Chris Wilmer'
_symmetry_space_group_name_H-M	'P1'
_symmetry_Int_Tables_number	1
_symmetry_cell_setting	triclinic
loop_
_symmetry_equiv_pos_as_xyz
  x,y,z
_cell_length_a	16.109301
_cell_length_b	10.654550
_cell_length_c	15.186229
_cell_angle_alpha	89.996404
_cell_angle_beta	89.999362
_cell_angle_gamma	83.973206
loop_
_atom_site_label
_atom_site_type_symbol
_atom_site_fract_x
_atom_site_fract_y
_atom_site_fract_z
O1	O	1.104090	0.161419	-0.073173
O2	O	1.604090	0.661419	0.426827
O3	O	0.862148	0.181507	-0.073187
O4	O	1.362148	0.681507	0.426813
O5	O	0.988682	-0.011352	-0.073174
O6	O	1.488682	0.488648	0.426826
O7	O	0.977556	0.354278	-0.073185
O8	O	1.477556	0.854278	0.426815
O9	O	0.988673	-0.011354	0.073284
O10	O	1.488673	0.488646	0.573284
O11	O	0.862139	0.181504	0.073271
O12	O	1.362139	0.681504	0.573271
O13	O	1.104082	0.161416	0.073285
O14	O	1.604082	0.661416	0.573285
Zn15	Zn	0.983109	0.171460	0.096531
Zn16	Zn	1.483109	0.671460	0.596531
Zn17	Zn	0.983120	0.171463	-0.096433
Zn18	Zn	1.483120	0.671463	0.403567
O19	O	0.977548	0.354275	0.073272
O20	O	1.477548	0.854275	0.573272
C21	C	0.831164	0.180692	0.000040
C22	C	1.331164	0.680692	0.500040
C23	C	0.738854	0.178253	0.000035
C24	C	1.238854	0.678253	0.500035
C25	C	0.517228	0.287019	0.000042
C26	C	1.017228	0.787019	0.500042
C27	C	0.430494	0.284717	0.000048
C28	C	0.930494	0.784717	0.500048
C29	C	0.449008	0.055896	0.000051
C30	C	0.949008	0.555896	0.500051
C31	C	0.535741	0.058199	0.000052
C32	C	1.035741	0.558199	0.500052
C33	C	0.569848	0.173764	0.000043
C34	C	1.069848	0.673764	0.500043
C35	C	0.396382	0.169159	0.000048
C36	C	0.896382	0.669159	0.500048
C37	C	0.302341	0.166662	0.000054
C38	C	0.802341	0.666662	0.500054
C39	C	0.663895	0.176262	0.000038
C40	C	1.163895	0.676262	0.500038
C41	C	0.987861	-0.058140	0.000054
C42	C	1.487861	0.441860	0.500054
C43	C	0.985417	-0.197550	0.000053
C44	C	1.485417	0.302450	0.500053
C45	C	1.059918	-0.278046	0.000057
C46	C	1.559918	0.221954	0.500057
C47	C	1.057616	-0.409036	0.000046
C48	C	1.557616	0.090964	0.500046
C49	C	0.906306	-0.379020	0.000031
C50	C	1.406306	0.120980	0.500031
C51	C	0.908608	-0.248033	0.000035
C52	C	1.408608	0.251967	0.500035
C53	C	1.145364	-0.606070	-0.051264
C54	C	1.645364	-0.106070	0.448736
C55	C	1.219869	-0.686572	-0.051245
C56	C	1.719869	-0.186572	0.448755
C57	C	1.287407	-0.657317	0.000083
C58	C	1.787407	-0.157317	0.500083
C59	C	1.280443	-0.547563	0.051414
C60	C	1.780443	-0.047563	0.551414
C61	C	1.205937	-0.467068	0.051402
C62	C	1.705937	0.032932	0.551402
C63	C	1.138402	-0.496322	0.000054
C64	C	1.638402	0.003678	0.500054
C65	C	0.820866	-0.050997	0.051353
C66	C	1.320866	0.449003	0.551353
C67	C	0.746359	0.029500	0.051348
C68	C	1.246359	0.529500	0.551348
C69	C	0.678814	0.000249	0.000025
C70	C	1.178814	0.500249	0.500025
C71	C	0.685769	-0.109507	-0.051292
C72	C	1.185769	0.390493	0.448708
C73	C	0.760277	-0.190004	-0.051287
C74	C	1.260277	0.309996	0.448713
C75	C	0.827822	-0.160745	0.000034
C76	C	1.327822	0.339255	0.500034
C77	C	1.135066	0.162231	0.000056
C78	C	1.635066	0.662231	0.500056
C79	C	1.227376	0.164671	0.000055
C80	C	1.727376	0.664671	0.500055
C81	C	0.978369	0.401063	0.000042
C82	C	1.478369	0.901063	0.500042
C83	C	0.980813	0.540473	0.000037
C84	C	1.480813	1.040473	0.500037
N85	N	0.983108	0.171457	0.228224
N86	N	1.483108	0.671457	0.728224
N87	N	0.983129	0.171457	-0.228126
N88	N	1.483129	0.671457	0.271874
C89	C	1.039156	0.086088	0.453952
C90	C	1.539156	0.586088	0.953952
C91	C	1.039159	0.086085	0.546142
C92	C	1.539159	0.586085	1.046142
C93	C	0.927074	0.256830	0.546140
C94	C	1.427074	0.756830	1.046140
C95	C	0.927068	0.256826	0.453952
C96	C	1.427068	0.756826	0.953952
C97	C	0.983114	0.171456	0.407860
C98	C	1.483114	0.671456	0.907860
C99	C	0.983122	0.171457	0.592238
C100	C	1.483122	0.671457	1.092238
C101	C	0.983125	0.171455	0.692194
C102	C	1.483125	0.671455	1.192194
C103	C	0.983111	0.171457	0.307898
C104	C	1.483111	0.671457	0.807898
H105	H	0.544996	0.381119	0.000041
H106	H	1.044996	0.881119	0.500041
Cl107	Cl	1.109611	-0.021239	0.396013
Cl108	Cl	1.609611	0.478761	0.896013
Cl109	Cl	0.905784	-0.014212	0.115874
Cl110	Cl	1.405784	0.485788	0.615874
H111	H	0.843771	-0.420140	0.000018
H112	H	1.343771	0.079860	0.500018
Cl113	Cl	0.601896	-0.084189	0.000060
Cl114	Cl	1.101896	0.415811	0.500060
H115	H	0.881427	0.326344	0.416421
H116	H	1.381427	0.826344	0.916421
H117	H	1.225534	-0.775932	-0.093046
H118	H	1.725534	-0.275932	0.406954
Cl119	Cl	0.364347	0.427100	0.000048
Cl120	Cl	0.864347	0.927100	0.500048
Cl121	Cl	1.365352	-0.510800	0.115950
Cl122	Cl	1.865352	-0.010800	0.615950
H123	H	0.421227	-0.038193	0.000064
H124	H	0.921227	0.461807	0.500064
Cl125	Cl	0.737606	0.167462	0.115884
Cl126	Cl	1.237606	0.667462	0.615884
Cl127	Cl	1.197177	-0.329103	0.115927
Cl128	Cl	1.697177	0.170897	0.615927
Cl129	Cl	1.156476	-0.214586	0.000077
Cl130	Cl	1.656476	0.285414	0.500077
Cl131	Cl	1.060465	-0.642843	-0.115812
Cl132	Cl	1.560465	-0.142843	0.384188
H133	H	0.765940	-0.279365	-0.093086
H134	H	1.265940	0.220635	0.406914
Cl135	Cl	0.600852	-0.146291	-0.115810
Cl136	Cl	1.100852	0.353709	0.384190
Cl137	Cl	1.109613	-0.021243	0.604083
Cl138	Cl	1.609613	0.478757	1.104083
Cl139	Cl	0.856623	0.364152	0.604087
Cl140	Cl	1.356623	0.864152	1.104087
H141	H	1.348071	-0.722871	0.000097
H142	H	1.848071	-0.222871	0.500097
H143	H	0.618142	0.065794	0.000037
H144	H	1.118142	0.565794	0.500037
