data_functionalizedCrystal
_audit_creation_method	'MofGen! by Chris Wilmer'
_symmetry_space_group_name_H-M	'P1'
_symmetry_Int_Tables_number	1
_symmetry_cell_setting	triclinic
loop_
_symmetry_equiv_pos_as_xyz
  x,y,z
_cell_length_a	19.805407
_cell_length_b	19.121063
_cell_length_c	19.805399
_cell_angle_alpha	92.409585
_cell_angle_beta	89.983114
_cell_angle_gamma	92.469032
loop_
_atom_site_label
_atom_site_type_symbol
_atom_site_fract_x
_atom_site_fract_y
_atom_site_fract_z
Zn1	Zn	1.023216	-0.279621	-0.394202
Zn2	Zn	1.018304	-0.397076	-0.285838
Zn3	Zn	0.910035	-0.279643	-0.281028
Zn4	Zn	0.905164	-0.397036	-0.398983
O5	O	0.964180	-0.338344	-0.340013
O6	O	1.117280	-0.295209	-0.379840
O7	O	1.003925	-0.381524	-0.190484
O8	O	0.929142	-0.181355	-0.292027
O9	O	1.113672	-0.381503	-0.300225
O10	O	1.012296	-0.181339	-0.375176
O11	O	0.924380	-0.295247	-0.186950
O12	O	0.814672	-0.295208	-0.296663
O13	O	0.920841	-0.381434	-0.493064
O14	O	0.811094	-0.381456	-0.383323
O15	O	1.007573	-0.295170	-0.489552
O16	O	0.999202	-0.495355	-0.304860
O17	O	0.916079	-0.495326	-0.387987
C18	C	0.788324	-0.338330	-0.339990
C19	C	0.713092	-0.338341	-0.339997
C20	C	0.675899	-0.383318	-0.385054
C21	C	0.605211	-0.383320	-0.385064
C22	C	0.571716	-0.338347	-0.340013
C23	C	0.608914	-0.293365	-0.294954
C24	C	0.679601	-0.293361	-0.294948
C25	C	0.323840	-0.293381	-0.294977
C26	C	0.253147	-0.293390	-0.294985
C27	C	0.249449	-0.383339	-0.385093
C28	C	0.320137	-0.383335	-0.385087
C29	C	0.357328	-0.338351	-0.340031
C30	C	0.433977	-0.338349	-0.340022
C31	C	0.495069	-0.338352	-0.340018
C32	C	0.956597	-0.520824	-0.347479
C33	C	0.953415	-0.598890	-0.350696
C34	C	0.995232	-0.635558	-0.308963
C35	C	0.992244	-0.708909	-0.311992
C36	C	0.947434	-0.745592	-0.356751
C37	C	0.905616	-0.708919	-0.398489
C38	C	0.908608	-0.635569	-0.395462
C39	C	0.936236	-0.967062	-0.368055
C40	C	0.933245	-1.040417	-0.371077
C41	C	1.019874	-1.040402	-0.284581
C42	C	1.022860	-0.967051	-0.281556
C43	C	0.981044	-0.930384	-0.323296
C44	C	0.944377	-0.820569	-0.359847
C45	C	0.984105	-0.855409	-0.320203
C46	C	1.140722	-0.338358	-0.340036
C47	C	1.215954	-0.338364	-0.340045
C48	C	0.964211	-0.338295	-0.516553
C49	C	0.964225	-0.338274	-0.591785
C50	C	0.971810	-0.155150	-0.332532
C51	C	0.975062	-0.077084	-0.329344
C52	C	0.922818	-0.293345	-0.625288
C53	C	0.922828	-0.293332	-0.695976
C54	C	0.964249	-0.338244	-0.733159
C55	C	1.005657	-0.383178	-0.699651
C56	C	1.005643	-0.383194	-0.628964
C57	C	1.005713	-0.383112	-0.984721
C58	C	1.005726	-0.383090	-1.055413
C59	C	0.922898	-0.293249	-1.051733
C60	C	0.922884	-0.293266	-0.981047
C61	C	0.964290	-0.338202	-0.947545
C62	C	0.964278	-0.338217	-0.870897
C63	C	0.964265	-0.338226	-0.809805
C64	C	0.964189	-0.338342	-0.164157
C65	C	0.964315	-0.338164	-0.088918
H66	H	1.026295	-0.738761	-0.278008
C67	C	0.877771	-0.244557	-0.585042
C68	C	0.841497	-0.205222	-0.629517
C69	C	0.799983	-0.160279	-0.592470
H70	H	0.904856	-0.213899	-0.556216
H71	H	0.847120	-0.271415	-0.558575
H72	H	0.872144	-0.178366	-0.655973
H73	H	0.814399	-0.235861	-0.658345
H74	H	0.769332	-0.187137	-0.566003
H75	H	0.827073	-0.129627	-0.563645
H76	H	0.775361	-0.133590	-0.622641
C77	C	0.564804	-0.432041	-0.434061
C78	C	0.525902	-0.392341	-0.475905
C79	C	0.488679	-0.437201	-0.521059
H80	H	0.535893	-0.462624	-0.409453
H81	H	0.594858	-0.458813	-0.460925
H82	H	0.495850	-0.365581	-0.449045
H83	H	0.554795	-0.361760	-0.500528
H84	H	0.518734	-0.463973	-0.547922
H85	H	0.459773	-0.467781	-0.496445
H86	H	0.462285	-0.410271	-0.549459
C87	C	0.877824	-0.244506	-1.088023
C88	C	0.810217	-0.259784	-1.071426
C89	C	0.768679	-0.214890	-1.104834
H90	H	0.883669	-0.250882	-1.135455
H91	H	0.889656	-0.197308	-1.074499
H92	H	0.798389	-0.306971	-1.084954
H93	H	0.804351	-0.253403	-1.024000
H94	H	0.780511	-0.167692	-1.091310
H95	H	0.774530	-0.221270	-1.152264
H96	H	0.722804	-0.225246	-1.093573
H97	H	1.059347	-0.937185	-0.245109
H98	H	0.896764	-1.070281	-0.407537
H99	H	0.907892	-0.850443	-0.396289
C100	C	1.065251	-1.080339	-0.239355
C101	C	1.053058	-1.152427	-0.251598
C102	C	1.094860	-1.189237	-0.209957
H103	H	1.055910	-1.068447	-0.193349
H104	H	1.111225	-1.068308	-0.248822
H105	H	1.007095	-1.164453	-0.242126
H106	H	1.062403	-1.164340	-0.297596
H107	H	1.140833	-1.177207	-0.219424
H108	H	1.085515	-1.177340	-0.163953
H109	H	1.086597	-1.238153	-0.218262
C110	C	0.857071	-0.748834	-0.447128
C111	C	0.893650	-0.790896	-0.492269
C112	C	0.848951	-0.827681	-0.537078
H113	H	0.832576	-0.716570	-0.471618
H114	H	0.826436	-0.777531	-0.422409
H115	H	0.924273	-0.762202	-0.516985
H116	H	0.918143	-0.823173	-0.467797
H117	H	0.818316	-0.856378	-0.512359
H118	H	0.824458	-0.795412	-0.561563
H119	H	0.873762	-0.856229	-0.567707
C120	C	0.863130	-0.595882	-0.440806
C121	C	0.823236	-0.643704	-0.480641
C122	C	0.781330	-0.607172	-0.522419
H123	H	0.890101	-0.567225	-0.469197
H124	H	0.834783	-0.567324	-0.413728
H125	H	0.851580	-0.672250	-0.507717
H126	H	0.796251	-0.672363	-0.452268
H127	H	0.752982	-0.578614	-0.495341
H128	H	0.808306	-0.578516	-0.550806
H129	H	0.754252	-0.639613	-0.549447
H130	H	0.347404	-0.419959	-0.421770
H131	H	0.219160	-0.419965	-0.421782
C132	C	0.877773	-0.244672	-0.732385
C133	C	0.832725	-0.284433	-0.774560
C134	C	0.791196	-0.239634	-0.808100
H135	H	0.904855	-0.214047	-0.758775
H136	H	0.853066	-0.217943	-0.700132
H137	H	0.857430	-0.311151	-0.806809
H138	H	0.805628	-0.315056	-0.748187
H139	H	0.766489	-0.212905	-0.775847
H140	H	0.818284	-0.209012	-0.834486
H141	H	0.760622	-0.266606	-0.836715
C142	C	1.050554	-0.432089	-0.592676
C143	C	1.032933	-0.501573	-0.612719
C144	C	1.074293	-0.546638	-0.579311
H145	H	1.044650	-0.425764	-0.545247
H146	H	1.096473	-0.421856	-0.603859
H147	H	0.987025	-0.511802	-0.601530
H148	H	1.038840	-0.507920	-0.660143
H149	H	1.120212	-0.536405	-0.590495
H150	H	1.068386	-0.540306	-0.531883
H151	H	1.062347	-0.593787	-0.592910
H152	H	1.039379	-0.419750	-0.729931
H153	H	1.039457	-0.419666	-1.085685
C154	C	0.890746	-0.927385	-0.413391
C155	C	0.850847	-0.975212	-0.453217
C156	C	0.808922	-0.938685	-0.494979
H157	H	0.917703	-0.898723	-0.441789
H158	H	0.862401	-0.898834	-0.386303
H159	H	0.879188	-1.003752	-0.480302
H160	H	0.823875	-1.003877	-0.424837
H161	H	0.780577	-0.910134	-0.467891
H162	H	0.835885	-0.910024	-0.523373
H163	H	0.781841	-0.971130	-0.522001
C164	C	1.050750	-0.431914	-0.948476
C165	C	1.087044	-0.471222	-0.996171
C166	C	1.128551	-0.516178	-0.962804
H167	H	1.023659	-0.462588	-0.922145
H168	H	1.081390	-0.405067	-0.919826
H169	H	1.056409	-0.498068	-1.024810
H170	H	1.114149	-0.440567	-1.022504
H171	H	1.159190	-0.489331	-0.934154
H172	H	1.101454	-0.546847	-0.936474
H173	H	1.153185	-0.542850	-0.995159
H174	H	0.889158	-0.256691	-0.950776
H175	H	0.225878	-0.256763	-0.258298
H176	H	0.703165	-0.419943	-0.421738
H177	H	0.354113	-0.256757	-0.258284
H178	H	0.581637	-0.256745	-0.258275
H179	H	0.709883	-0.256732	-0.258261
H180	H	1.020591	-0.825540	-0.283762
C181	C	1.043951	-0.595861	-0.260344
C182	C	1.079945	-0.643677	-0.224457
C183	C	1.124838	-0.607137	-0.179670
H184	H	1.019319	-0.567289	-0.229589
H185	H	1.074631	-0.567218	-0.285065
H186	H	1.049269	-0.672308	-0.199737
H187	H	1.104590	-0.672251	-0.255194
H188	H	1.155518	-0.578493	-0.204391
H189	H	1.100201	-0.578566	-0.148920
H190	H	1.149270	-0.639574	-0.155320
