data_functionalizedCrystal
_audit_creation_method	'MofGen! by Chris Wilmer'
_symmetry_space_group_name_H-M	'P1'
_symmetry_Int_Tables_number	1
_symmetry_cell_setting	triclinic
loop_
_symmetry_equiv_pos_as_xyz
  x,y,z
_cell_length_a	10.540539
_cell_length_b	10.540539
_cell_length_c	9.730223
_cell_angle_alpha	90.001832
_cell_angle_beta	90.000775
_cell_angle_gamma	84.525492
loop_
_atom_site_label
_atom_site_type_symbol
_atom_site_fract_x
_atom_site_fract_y
_atom_site_fract_z
O1	O	0.178895	1.685880	-0.114218
O2	O	0.195751	1.316467	-0.114234
O3	O	0.002616	1.509601	-0.114224
O4	O	0.372029	1.492745	-0.114228
O5	O	0.002621	1.509599	0.114356
O6	O	0.195756	1.316465	0.114346
O7	O	0.178900	1.685878	0.114362
Zn8	Zn	0.187329	1.501171	0.150646
Zn9	Zn	0.187322	1.501174	-0.150518
O10	O	0.372034	1.492743	0.114352
C11	C	0.194489	1.269163	0.000053
C12	C	0.190707	1.128215	0.000047
C13	C	0.045790	0.944788	0.000582
C14	C	0.049624	1.091406	0.000053
C15	C	0.258600	1.066543	-0.130479
C16	C	0.253785	0.919999	-0.130574
C17	C	0.256660	0.919508	0.129364
C18	C	0.257960	1.066490	0.131075
C19	C	-0.044684	1.508336	0.000063
C20	C	-0.185632	1.504554	0.000056
C21	C	-0.369059	1.359637	-0.000464
C22	C	-0.222441	1.363471	0.000051
C23	C	-0.247287	1.572449	0.130589
C24	C	-0.393832	1.567634	0.130699
C25	C	-0.394355	1.570506	-0.129239
C26	C	-0.247374	1.571805	-0.130965
C27	C	0.419335	1.494008	0.000061
C28	C	0.560283	1.497790	0.000060
C29	C	0.180161	1.733182	0.000071
C30	C	0.183943	1.874130	0.000068
N31	N	0.187332	1.501178	0.356182
N32	N	0.187308	1.501176	-0.356055
C33	C	0.101842	1.586720	0.428113
C34	C	0.101826	1.586717	0.571996
C35	C	0.272803	1.415625	0.572005
C36	C	0.272811	1.415623	0.428124
C37	C	0.003133	1.685503	0.428109
C38	C	0.003117	1.685499	0.571992
H39	H	-0.004177	1.133152	-0.093675
F40	F	-0.167854	1.293148	0.122551
H41	H	-0.223152	1.674666	-0.138843
H42	H	0.034084	1.777680	0.383486
F43	F	-0.117410	1.645135	0.630314
F44	F	0.188192	0.883123	-0.258102
F45	F	-0.124409	1.657128	0.377055
F46	F	-0.020203	1.147108	0.122350
H47	H	-0.441581	1.672409	-0.130112
F48	F	-0.166754	1.293643	-0.122254
H49	H	0.355250	0.872030	-0.136500
F50	F	-0.218071	1.707872	0.136944
F51	F	0.196952	1.122207	-0.257450
H52	H	0.342414	1.345957	0.369560
F53	F	-0.435586	1.510815	-0.258557
H54	H	0.362207	1.088896	-0.135337
H55	H	0.360819	1.090716	0.138955
H56	H	0.342397	1.345968	0.630596
F57	F	-0.406440	1.286789	-0.122818
F58	F	-0.456534	1.700252	0.138459
F59	F	-0.193377	1.507382	-0.257202
F60	F	0.196982	0.878280	0.258684
F61	F	0.031582	1.813016	0.623046
H62	H	0.358564	0.872281	0.130245
F63	F	-0.026763	0.905300	-0.121078
F64	F	-0.027058	0.907418	0.122935
H65	H	-0.399265	1.304132	0.092615
F66	F	0.193029	1.119902	0.257289
F67	F	-0.430691	1.502041	0.258229
H68	H	-0.204686	1.525284	0.227723
