data_functionalizedCrystal
_audit_creation_method	'MofGen! by Chris Wilmer'
_symmetry_space_group_name_H-M	'P1'
_symmetry_Int_Tables_number	1
_symmetry_cell_setting	triclinic
loop_
_symmetry_equiv_pos_as_xyz
  x,y,z
_cell_length_a	19.188930
_cell_length_b	23.532357
_cell_length_c	17.666332
_cell_angle_alpha	89.987974
_cell_angle_beta	89.976766
_cell_angle_gamma	82.986534
loop_
_atom_site_label
_atom_site_type_symbol
_atom_site_fract_x
_atom_site_fract_y
_atom_site_fract_z
O1	O	0.925907	0.071104	-0.063201
O2	O	1.425907	0.571104	0.436799
O3	O	0.722563	0.080675	-0.063150
O4	O	1.222563	0.580675	0.436850
O5	O	0.830385	-0.007031	-0.063161
O6	O	1.330385	0.492969	0.436839
O7	O	0.818085	0.158810	-0.063189
O8	O	1.318085	0.658810	0.436811
O9	O	0.830366	-0.007036	0.062735
O10	O	1.330366	0.492964	0.562735
O11	O	0.722544	0.080671	0.062747
O12	O	1.222544	0.580671	0.562747
O13	O	0.925888	0.071099	0.062696
O14	O	1.425888	0.571099	0.562696
Cu15	Cu	0.824215	0.075885	0.074217
Cu16	Cu	1.324215	0.575885	0.574217
Cu17	Cu	0.824237	0.075890	-0.074671
Cu18	Cu	1.324237	0.575890	0.425329
O19	O	0.818066	0.158806	0.062707
O20	O	1.318066	0.658806	0.562707
C21	C	0.696544	0.080363	-0.000195
C22	C	1.196544	0.580363	0.499805
C23	C	0.619042	0.079433	-0.000175
C24	C	1.119042	0.579433	0.499825
C25	C	0.830068	-0.028251	-0.000211
C26	C	1.330068	0.471749	0.499789
C27	C	0.829143	-0.091471	-0.000203
C28	C	1.329143	0.408529	0.499797
C29	C	0.573943	0.130896	-0.000196
C30	C	1.073943	0.630896	0.499804
C31	C	0.501122	0.130022	-0.000204
C32	C	1.001122	0.630022	0.499796
C33	C	0.473404	0.077681	-0.000206
C34	C	0.973404	0.577681	0.499794
C35	C	0.518513	0.026211	-0.000182
C36	C	1.018513	0.526211	0.499818
C37	C	0.591333	0.027087	-0.000166
C38	C	1.091333	0.527087	0.499834
N39	N	0.365567	0.037675	-0.043078
N40	N	0.865567	0.537675	0.456922
N41	N	0.296391	0.036847	-0.043095
N42	N	0.796391	0.536847	0.456905
C43	C	0.254004	0.075040	-0.000252
C44	C	0.754004	0.575040	0.499748
N45	N	0.283406	0.114101	0.042598
N46	N	0.783406	0.614101	0.542598
N47	N	0.352587	0.114931	0.042611
N48	N	0.852587	0.614931	0.542611
C49	C	0.394445	0.076726	-0.000223
C50	C	0.894445	0.576726	0.499777
C51	C	0.129944	0.125559	-0.000281
C52	C	0.629944	0.625559	0.499719
C53	C	0.057122	0.124683	-0.000284
C54	C	0.557122	0.624683	0.499716
C55	C	0.074515	0.020871	-0.000270
C56	C	0.574515	0.520871	0.499730
C57	C	0.147335	0.021749	-0.000259
C58	C	0.647335	0.521749	0.499741
C59	C	0.175045	0.074094	-0.000268
C60	C	0.675045	0.574094	0.499732
C61	C	0.823346	-0.483492	-0.068869
C62	C	1.323346	0.016508	0.431131
C63	C	0.822467	-0.542894	-0.068873
C64	C	1.322467	-0.042894	0.431127
O65	O	0.821997	-0.573609	-0.127237
O66	O	1.321997	-0.073609	0.372763
N67	N	0.822021	-0.572608	-0.000248
N68	N	1.322021	-0.072608	0.499752
C69	C	0.822447	-0.542918	0.068387
C70	C	1.322447	-0.042918	0.568387
O71	O	0.821986	-0.573647	0.126757
O72	O	1.321986	-0.073647	0.626757
C73	C	0.823321	-0.483517	0.068390
C74	C	1.323321	0.016483	0.568390
C75	C	0.823774	-0.453806	-0.000240
C76	C	1.323774	0.046194	0.499760
C77	C	0.823799	-0.453781	-0.137493
C78	C	1.323799	0.046219	0.362507
C79	C	0.824679	-0.394384	-0.137489
C80	C	1.324679	0.105616	0.362511
C81	C	0.825107	-0.364698	-0.068860
C82	C	1.325107	0.135302	0.431140
C83	C	0.824655	-0.394409	-0.000236
C84	C	1.324655	0.105591	0.499764
C85	C	0.823742	-0.453827	0.137023
C86	C	1.323742	0.046173	0.637023
C87	C	0.824616	-0.394422	0.137021
C88	C	1.324616	0.105578	0.637021
C89	C	0.825069	-0.364711	0.068391
C90	C	1.325069	0.135289	0.568391
C91	C	0.825963	-0.305326	0.068397
C92	C	1.325963	0.194674	0.568397
N93	N	0.826410	-0.275611	-0.000228
N94	N	1.326410	0.224389	0.499772
C95	C	0.825982	-0.305297	-0.068857
C96	C	1.325982	0.194703	0.431143
C97	C	0.820609	-0.667663	0.068374
C98	C	1.320609	-0.167663	0.568374
C99	C	0.819740	-0.727063	0.068372
C100	C	1.319740	-0.227063	0.568372
C101	C	0.819759	-0.727035	-0.068888
C102	C	1.319759	-0.227035	0.431112
C103	C	0.820633	-0.667634	-0.068885
C104	C	1.320633	-0.167634	0.431115
C105	C	0.821056	-0.637949	-0.000251
C106	C	1.321056	-0.137949	0.499749
C107	C	0.827831	-0.180559	-0.068842
C108	C	1.327831	0.319441	0.431158
C109	C	0.828715	-0.121157	-0.068832
C110	C	1.328715	0.378843	0.431168
C111	C	0.828692	-0.121190	0.068427
C112	C	1.328692	0.378810	0.568427
C113	C	0.827812	-0.180588	0.068417
C114	C	1.327812	0.319412	0.568417
C115	C	0.827380	-0.210270	-0.000224
C116	C	1.327380	0.289730	0.499776
O117	O	0.826431	-0.274573	0.126731
O118	O	1.326431	0.225427	0.626731
O119	O	0.826433	-0.274560	-0.127218
O120	O	1.326433	0.225440	0.372782
C121	C	0.951908	0.071411	-0.000261
C122	C	1.451908	0.571411	0.499739
C123	C	1.029409	0.072342	-0.000286
C124	C	1.529409	0.572342	0.499714
C125	C	0.818383	0.180025	-0.000245
C126	C	1.318383	0.680025	0.499755
C127	C	0.819308	0.243246	-0.000257
C128	C	1.319308	0.743246	0.499743
N129	N	0.824204	0.075880	0.178936
N130	N	1.324204	0.575880	0.678936
N131	N	0.824253	0.075890	-0.179390
N132	N	1.324253	0.575890	0.320610
C133	C	0.871963	0.037063	0.218541
C134	C	1.371963	0.537063	0.718541
C135	C	0.871967	0.037060	0.297789
C136	C	1.371967	0.537060	0.797789
C137	C	0.824219	0.075885	0.337428
C138	C	1.324219	0.575885	0.837428
C139	C	0.776451	0.114705	0.297814
C140	C	1.276451	0.614705	0.797814
C141	C	0.776444	0.114703	0.218568
C142	C	1.276444	0.614703	0.718568
N143	N	0.814971	0.126301	0.461840
N144	N	1.314971	0.626301	0.961840
N145	N	0.814982	0.126301	0.537120
N146	N	1.314982	0.626301	1.037120
C147	C	0.824237	0.075893	0.576192
C148	C	1.324237	0.575893	1.076192
N149	N	0.833495	0.025482	0.537140
N150	N	1.333495	0.525482	1.037140
N151	N	0.833487	0.025482	0.461853
N152	N	1.333487	0.525482	0.961853
C153	C	0.824221	0.075891	0.423357
C154	C	1.324221	0.575891	0.923357
C155	C	0.872003	0.037069	0.701726
C156	C	1.372003	0.537069	1.201726
C157	C	0.872002	0.037065	0.780975
C158	C	1.372002	0.537065	1.280975
C159	C	0.776490	0.114715	0.780999
C160	C	1.276490	0.614715	1.280999
C161	C	0.776487	0.114714	0.701752
C162	C	1.276487	0.614714	1.201752
C163	C	0.824248	0.075891	0.662120
C164	C	1.324248	0.575891	1.162120
H165	H	0.596499	0.173520	-0.000204
H166	H	1.096499	0.673520	0.499796
H167	H	0.910859	0.005449	0.330041
H168	H	1.410859	0.505449	0.830041
H169	H	0.824949	-0.370254	0.192912
H170	H	1.324949	0.129746	0.692912
N171	N	0.490216	-0.027258	-0.000178
N172	N	0.990216	0.472742	0.499822
N173	N	0.504142	-0.061915	0.052900
N174	N	1.004142	0.438085	0.552900
H175	H	0.484159	-0.099680	0.052906
H176	H	0.984159	0.400320	0.552906
H177	H	0.823448	-0.477945	-0.193382
H178	H	1.323448	0.022055	0.306618
N179	N	0.727713	0.154365	0.821492
N180	N	1.227713	0.654365	1.321492
N181	N	0.727722	0.154360	0.892247
N182	N	1.227722	0.654360	1.392247
H183	H	0.693270	0.182361	0.920850
H184	H	1.193270	0.682361	1.420850
N185	N	0.158266	0.179021	-0.000272
N186	N	0.658266	0.679021	0.499728
N187	N	0.223283	0.179796	-0.000261
N188	N	0.723283	0.679796	0.499739
H189	H	0.243286	0.217554	-0.000254
H190	H	0.743286	0.717554	0.499746
H191	H	0.737573	0.146316	0.330093
H192	H	1.237573	0.646316	0.830093
H193	H	0.051948	-0.021746	-0.000319
H194	H	0.551948	0.478254	0.499681
N195	N	0.821076	-0.637287	-0.138988
N196	N	1.321076	-0.137287	0.361012
N197	N	0.772340	-0.598767	-0.154293
N198	N	1.272340	-0.098767	0.345707
H199	H	0.772650	-0.577336	-0.203807
H200	H	1.272650	-0.077336	0.296193
H201	H	0.823374	-0.478007	0.192909
H202	H	1.323374	0.021993	0.692909
H203	H	0.819408	-0.751216	-0.124769
H204	H	1.319408	-0.251216	0.375231
N205	N	0.727698	0.154370	0.661304
N206	N	1.227698	0.654370	1.161304
N207	N	0.685065	0.189030	0.696702
N208	N	1.185065	0.689030	1.196702
H209	H	0.650603	0.217038	0.668137
H210	H	1.150603	0.717038	1.168137
N211	N	0.825121	-0.364037	-0.207593
N212	N	1.325121	0.135963	0.292407
N213	N	0.776386	-0.325516	-0.222894
N214	N	1.276386	0.174484	0.277106
H215	H	0.776695	-0.304085	-0.272408
H216	H	1.276695	0.195915	0.227592
N217	N	0.727660	0.154367	0.178122
N218	N	1.227660	0.654367	0.678122
N219	N	0.728237	0.207007	0.186959
N220	N	1.228237	0.707007	0.686959
H221	H	0.693784	0.235022	0.158394
H222	H	1.193784	0.735022	0.658394
N223	N	0.455053	0.182598	-0.000221
N224	N	0.955053	0.682598	0.499779
N225	N	0.479803	0.229329	-0.000224
N226	N	0.979803	0.729329	0.499776
H227	H	0.447270	0.266462	-0.000236
H228	H	0.947270	0.766462	0.499764
H229	H	0.910891	0.005455	0.669457
H230	H	1.410891	0.505455	1.169457
H231	H	0.020402	0.166592	-0.000297
H232	H	0.520402	0.666592	0.499703
N233	N	0.819293	-0.757401	0.138483
N234	N	1.319293	-0.257401	0.638483
N235	N	0.819679	-0.730882	0.199750
N236	N	1.319679	-0.230882	0.699750
H237	H	0.819360	-0.752305	0.249269
H238	H	1.319360	-0.252305	0.749269
H239	H	0.827450	-0.204780	0.124301
H240	H	1.327450	0.295220	0.624301
H241	H	0.820955	-0.643497	0.124267
H242	H	1.320955	-0.143497	0.624267
N243	N	0.920789	-0.002597	0.821422
N244	N	1.420789	0.497403	1.321422
N245	N	0.963423	-0.037255	0.786023
N246	N	1.463423	0.462745	1.286023
H247	H	0.997880	-0.065268	0.814588
H248	H	1.497880	0.434732	1.314588
H249	H	0.829044	-0.097010	0.124303
H250	H	1.329044	0.402990	0.624303
H251	H	0.628054	-0.014822	-0.000150
H252	H	1.128054	0.485178	0.499850
H253	H	0.184056	-0.020159	-0.000246
H254	H	0.684056	0.479841	0.499754
H255	H	0.827476	-0.204720	-0.124737
H256	H	1.327476	0.295280	0.375263
N257	N	0.829184	-0.090819	-0.138946
N258	N	1.329184	0.409181	0.361054
N259	N	0.828801	-0.117336	-0.200215
N260	N	1.328801	0.382664	0.299785
H261	H	0.829132	-0.095912	-0.249732
H262	H	1.329132	0.404088	0.250268
N263	N	0.920810	-0.002548	0.178071
N264	N	1.420810	0.497452	0.678071
N265	N	0.963488	-0.037173	0.213449
N266	N	1.463488	0.462827	0.713449
H267	H	0.998009	-0.065131	0.184866
H268	H	1.498009	0.434869	0.684866
