data_functionalizedCrystal
_audit_creation_method	'MofGen! by Chris Wilmer'
_symmetry_space_group_name_H-M	'P1'
_symmetry_Int_Tables_number	1
_symmetry_cell_setting	triclinic
loop_
_symmetry_equiv_pos_as_xyz
  x,y,z
_cell_length_a	27.732048
_cell_length_b	10.654545
_cell_length_c	9.730223
_cell_angle_alpha	89.997167
_cell_angle_beta	89.996620
_cell_angle_gamma	96.437133
loop_
_atom_site_label
_atom_site_type_symbol
_atom_site_fract_x
_atom_site_fract_y
_atom_site_fract_z
O1	O	-0.067875	1.664989	-0.114250
O2	O	-0.074345	1.299238	-0.114253
O3	O	-0.000784	1.493473	-0.114270
O4	O	-0.141436	1.470754	-0.114233
O5	O	-0.000782	1.493461	0.114310
O6	O	-0.074343	1.299225	0.114327
O7	O	-0.067873	1.664977	0.114330
Zn8	Zn	-0.071108	1.482099	0.150620
Zn9	Zn	-0.071111	1.482115	-0.150544
O10	O	-0.141434	1.470742	0.114346
C11	C	-0.073870	1.252454	0.000036
C12	C	-0.072450	1.113070	0.000033
C13	C	-0.071780	1.047587	0.124633
C14	C	-0.070438	0.916624	0.124633
C15	C	-0.070437	0.916638	-0.124578
C16	C	-0.071776	1.047600	-0.124576
C17	C	-0.159445	1.471225	0.000061
C18	C	-0.213109	1.472661	0.000075
C19	C	-0.551266	1.366921	0.000007
C20	C	-0.752959	1.372249	-0.000009
O21	O	-0.783613	1.275558	-0.000070
N22	N	-0.772799	1.487422	-0.000006
C23	C	-0.742213	1.601272	-0.000008
O24	O	-0.763716	1.699356	-0.000020
C25	C	-0.540521	1.595943	-0.000001
C26	C	-0.520684	1.480762	0.000010
C27	C	-0.531429	1.251750	0.000017
C28	C	-0.481008	1.250419	0.000028
C29	C	-0.450426	1.364259	0.000030
C30	C	-0.470264	1.479431	0.000021
C31	C	-0.509936	1.709791	-0.000013
C32	C	-0.459510	1.708448	-0.000015
C33	C	-0.439673	1.593267	-0.000004
C34	C	-0.389261	1.591941	0.000035
N35	N	-0.369421	1.476767	0.000032
C36	C	-0.400003	1.362927	0.000030
C37	C	-0.848105	1.604062	-0.000009
C38	C	-0.898527	1.605394	-0.000008
C39	C	-0.909270	1.376371	-0.000011
C40	C	-0.858846	1.375040	-0.000002
C41	C	-0.828264	1.488888	-0.000012
C42	C	-0.294117	1.360141	0.000055
C43	C	-0.243692	1.358820	0.000072
C44	C	-0.232953	1.587843	0.000069
C45	C	-0.283374	1.589164	0.000059
C46	C	-0.313955	1.475303	0.000047
O47	O	-0.358578	1.688580	0.000080
O48	O	-0.378491	1.264857	0.000011
C49	C	-0.601687	1.368252	-0.000004
C50	C	-0.621524	1.483423	-0.000014
C51	C	-0.590942	1.597264	-0.000011
C52	C	-0.671947	1.484756	-0.000013
C53	C	-0.702530	1.370915	-0.000015
C54	C	-0.682689	1.255742	-0.000018
C55	C	-0.632269	1.254411	-0.000006
C56	C	-0.610782	1.712437	-0.000008
C57	C	-0.661203	1.713759	-0.000018
C58	C	-0.691785	1.599918	-0.000021
C59	C	0.017227	1.492990	0.000013
C60	C	0.070890	1.491554	-0.000010
C61	C	-0.068349	1.711761	0.000038
C62	C	-0.069769	1.851145	0.000031
N63	N	-0.071106	1.482097	0.356157
N64	N	-0.071109	1.482127	-0.356080
C65	C	-0.038547	1.568133	0.428075
C66	C	-0.038547	1.568146	0.571958
C67	C	-0.103670	1.396082	0.571991
C68	C	-0.103667	1.396065	0.428111
H69	H	-0.319010	1.267424	0.000045
O70	O	-0.072342	1.111305	-0.245584
C71	C	-0.031337	1.202122	-0.253027
H72	H	-0.001728	1.173161	-0.182328
H73	H	-0.017327	1.208670	-0.363235
H74	H	-0.041798	1.297971	-0.219541
H75	H	-0.130180	1.326038	0.630591
O76	O	-0.006987	1.651774	0.641971
C77	C	-0.033151	1.728760	0.725160
H78	H	-0.070793	1.678007	0.746729
H79	H	-0.013048	1.749032	0.826331
H80	H	-0.036768	1.821491	0.669693
O81	O	-0.069850	0.852850	0.245579
C82	C	-0.110865	0.762066	0.253060
H83	H	-0.124596	0.737436	0.144878
H84	H	-0.100523	0.673356	0.305790
H85	H	-0.140642	0.801994	0.314559
H86	H	-0.069889	0.863316	-0.226030
H87	H	-0.227543	1.265022	0.000088
O88	O	-0.135343	1.312437	0.358453
C89	C	-0.164078	1.236493	0.452811
H90	H	-0.164813	1.287973	0.555365
H91	H	-0.202607	1.216573	0.411235
H92	H	-0.148049	1.143524	0.468133
H93	H	-0.072329	1.100888	0.226098
H94	H	-0.934179	1.283678	-0.000007
H95	H	-0.464862	1.156627	0.000025
O96	O	-0.561063	1.141040	0.000080
C97	C	-0.532730	1.039118	0.000051
H98	H	-0.495214	1.071761	0.043317
H99	H	-0.551050	0.959409	0.066425
H100	H	-0.529017	1.003766	-0.109607
O101	O	-0.839658	1.263044	-0.000065
C102	C	-0.877469	1.162860	-0.000028
H103	H	-0.911835	1.197394	-0.043295
H104	H	-0.866662	1.082388	-0.066395
H105	H	-0.884486	1.127786	0.109634
O106	O	-0.917714	1.717392	-0.000064
C107	C	-0.879903	1.817576	-0.000031
H108	H	-0.845536	1.783046	-0.043303
H109	H	-0.890708	1.898054	-0.066398
H110	H	-0.872890	1.852639	0.109629
H111	H	-0.823208	1.696777	-0.000014
O112	O	-0.429873	1.819160	0.000039
C113	C	-0.458199	1.921094	-0.000009
H114	H	-0.495719	1.888467	0.043263
H115	H	-0.439878	2.000801	0.066350
H116	H	-0.461907	1.956442	-0.109674
O117	O	-0.302567	1.701159	-0.000012
C118	C	-0.264759	1.801350	0.000031
H119	H	-0.230387	1.766825	-0.043216
H120	H	-0.275563	1.881819	-0.066353
H121	H	-0.257755	1.836424	0.109691
O122	O	-0.529253	1.821602	-0.000219
C123	C	-0.558081	1.829246	-0.118630
H124	H	-0.570307	1.730025	-0.158081
H125	H	-0.591260	1.878673	-0.092024
H126	H	-0.535988	1.885218	-0.201532
O127	O	-0.613083	1.142413	-0.000066
C128	C	-0.650896	1.042234	-0.000037
H129	H	-0.685259	1.076773	-0.043313
H130	H	-0.640088	0.961760	-0.066401
H131	H	-0.657916	1.007161	0.109623
O132	O	-0.203220	1.698388	-0.000176
C133	C	-0.173721	1.704437	-0.118541
H134	H	-0.191967	1.639860	-0.201278
H135	H	-0.168390	1.805697	-0.158291
H136	H	-0.136953	1.672648	-0.091771
H137	H	-0.677349	1.807560	-0.000016
O138	O	-0.712422	1.145189	-0.000267
C139	C	-0.741912	1.139148	-0.118641
H140	H	-0.723659	1.203730	-0.201375
H141	H	-0.747240	1.037891	-0.158386
H142	H	-0.778682	1.170936	-0.091883
H143	H	-0.585886	1.805142	-0.000008
O144	O	-0.006869	1.651742	0.358391
C145	C	0.021860	1.727700	0.452729
H146	H	0.022587	1.676240	0.555302
H147	H	0.060392	1.747606	0.411157
H148	H	0.005833	1.820675	0.468013
