data_functionalizedCrystal
_audit_creation_method	'MofGen! by Chris Wilmer'
_symmetry_space_group_name_H-M	'P1'
_symmetry_Int_Tables_number	1
_symmetry_cell_setting	triclinic
loop_
_symmetry_equiv_pos_as_xyz
  x,y,z
_cell_length_a	14.908782
_cell_length_b	14.908178
_cell_length_c	14.908308
_cell_angle_alpha	90.221621
_cell_angle_beta	83.240320
_cell_angle_gamma	90.210875
loop_
_atom_site_label
_atom_site_type_symbol
_atom_site_fract_x
_atom_site_fract_y
_atom_site_fract_z
Zn1	Zn	1.329186	-0.459296	0.406715
Zn2	Zn	1.829186	0.040704	0.906715
Zn3	Zn	1.330096	-0.601055	0.247621
Zn4	Zn	1.830096	-0.101055	0.747621
Zn5	Zn	1.187450	-0.442980	0.265011
Zn6	Zn	1.687450	0.057020	0.765011
Zn7	Zn	1.170072	-0.601006	0.407684
Zn8	Zn	1.670072	-0.101006	0.907684
O9	O	1.254201	-0.526084	0.331758
O10	O	1.754201	-0.026084	0.831758
O11	O	1.455594	-0.484950	0.377928
O12	O	1.955594	0.015050	0.877928
O13	O	1.318828	-0.573279	0.123637
O14	O	1.818828	-0.073279	0.623637
O15	O	1.213143	-0.319684	0.290681
O16	O	1.713143	0.180316	0.790681
O17	O	1.456263	-0.589100	0.261042
O18	O	1.956263	-0.089100	0.761042
O19	O	1.317276	-0.331671	0.394791
O20	O	1.817276	0.168329	0.894791
O21	O	1.214027	-0.457142	0.136414
O22	O	1.714027	0.042858	0.636414
O23	O	1.058858	-0.457094	0.291620
O24	O	1.558858	0.042906	0.791620
O25	O	1.183525	-0.589015	0.533846
O26	O	1.683525	-0.089015	1.033846
O27	O	1.046090	-0.573194	0.396442
O28	O	1.546090	-0.073194	0.896442
O29	O	1.300425	-0.484902	0.533135
O30	O	1.800425	0.015098	1.033135
O31	O	1.301977	-0.726509	0.261981
O32	O	1.801977	-0.226509	0.761981
O33	O	1.184408	-0.726473	0.379579
O34	O	1.684408	-0.226473	0.879579
C35	C	1.019729	-0.513369	0.346024
C36	C	1.519729	-0.013369	0.846024
C37	C	0.919418	-0.507952	0.352147
C38	C	1.419418	-0.007952	0.852147
C39	C	0.731638	-0.606057	0.241772
C40	C	1.231638	-0.106057	0.741772
C41	C	0.637388	-0.600970	0.247522
C42	C	1.137388	-0.100970	0.747522
C43	C	0.636664	-0.492696	0.369402
C44	C	1.136664	0.007304	0.869402
C45	C	0.730914	-0.497783	0.363651
C46	C	1.230914	0.002217	0.863651
C47	C	0.778399	-0.554464	0.299833
C48	C	1.278399	-0.054464	0.799833
C49	C	0.872652	-0.559546	0.294079
C50	C	1.372652	-0.059546	0.794079
C51	C	0.871926	-0.451278	0.415962
C52	C	1.371926	0.048722	0.915962
C53	C	0.777675	-0.446191	0.421713
C54	C	1.277675	0.053809	0.921713
C55	C	1.241429	-0.759024	0.319016
C56	C	1.741429	-0.259024	0.819016
C57	C	1.236046	-0.858683	0.313590
C58	C	1.736046	-0.358683	0.813590
C59	C	1.334268	-1.058287	0.411932
C60	C	1.834268	-0.558287	0.911932
C61	C	1.329213	-1.151925	0.406837
C62	C	1.829213	-0.651925	0.906837
C63	C	1.220877	-1.139601	0.298310
C64	C	1.720877	-0.639601	0.798310
C65	C	1.225932	-1.045962	0.303405
C66	C	1.725932	-0.545962	0.803405
C67	C	1.282630	-1.005308	0.360217
C68	C	1.782630	-0.505308	0.860217
C69	C	1.287690	-0.911668	0.365307
C70	C	1.787690	-0.411668	0.865307
C71	C	1.179349	-0.899345	0.256785
C72	C	1.679349	-0.399345	0.756785
C73	C	1.174294	-0.992984	0.251690
C74	C	1.674294	-0.492984	0.751690
C75	C	1.489589	-0.538850	0.317437
C76	C	1.989589	-0.038850	0.817437
C77	C	1.589897	-0.544290	0.311334
C78	C	2.089897	-0.044290	0.811334
C79	C	1.239935	-0.538773	0.567152
C80	C	1.739935	-0.038773	1.067152
C81	C	1.233856	-0.544180	0.667463
C82	C	1.733856	-0.044180	1.167463
C83	C	1.267046	-0.292237	0.344568
C84	C	1.767046	0.207763	0.844568
C85	C	1.272520	-0.192586	0.350027
C86	C	1.772520	0.307414	0.850027
C87	C	1.268467	-0.513383	0.097280
C88	C	1.768467	-0.013383	0.597280
C89	C	1.274735	-0.507733	-0.003027
C90	C	1.774735	-0.007733	0.496973
C91	C	1.344158	-0.445906	0.855219
C92	C	1.844158	0.054094	1.355219
C93	C	1.338449	-0.450984	0.949470
C94	C	1.838449	0.049016	1.449470
C95	C	1.216725	-0.559407	0.950218
C96	C	1.716725	-0.059407	1.450218
C97	C	1.222434	-0.554330	0.855967
C98	C	1.722434	-0.054330	1.355967
C99	C	1.286154	-0.497578	0.808471
C100	C	1.786154	0.002422	1.308471
C101	C	1.291866	-0.492506	0.714218
C102	C	1.791866	0.007494	1.214218
C103	C	1.170138	-0.600924	0.714967
C104	C	1.670138	-0.100924	1.214967
C105	C	1.164429	-0.606002	0.809218
C106	C	1.664429	-0.106002	1.309218
H107	H	0.739000	-0.400045	0.473674
H108	H	1.239000	0.099955	0.973674
H109	H	0.770301	-0.652203	0.189804
H110	H	1.270301	-0.152203	0.689804
H111	H	0.910008	-0.409263	0.463237
H112	H	1.410008	0.090737	0.963237
H113	H	0.911312	-0.605697	0.242114
H114	H	1.411312	-0.105697	0.742114
H115	H	1.343751	-0.446298	0.675548
H116	H	1.843751	0.053702	1.175548
H117	H	1.137304	-0.856199	0.214672
H118	H	1.637304	-0.356199	0.714672
H119	H	1.396046	-0.399702	0.816547
H120	H	1.896046	0.100298	1.316547
H121	H	1.333859	-0.878569	0.411564
H122	H	1.833859	-0.378569	0.911564
H123	H	1.385680	-0.408904	0.987530
H124	H	1.885680	0.091096	1.487530
C125	C	1.440845	-1.079870	0.518698
C126	C	1.940845	-0.579870	1.018698
C127	C	1.396586	-1.013594	0.474381
C128	C	1.896586	-0.513594	0.974381
H129	H	1.479311	-1.052278	0.557257
H130	H	1.979311	-0.552278	1.057257
H131	H	1.475811	-1.116127	0.475320
H132	H	1.975811	-0.616127	0.975320
H133	H	1.397424	-1.116146	0.553587
H134	H	1.897424	-0.616146	1.053587
H135	H	1.440007	-0.977323	0.439487
H136	H	1.940007	-0.477323	0.939487
H137	H	1.361617	-0.977322	0.517766
H138	H	1.861617	-0.477322	1.017766
H139	H	1.164847	-0.605611	0.988906
H140	H	1.664847	-0.105611	1.488906
H141	H	1.122909	-0.643002	0.676894
H142	H	1.622909	-0.143002	1.176894
C143	C	1.101629	-0.661929	0.954031
C144	C	1.601629	-0.161929	1.454031
C145	C	1.094393	-0.668382	0.861431
C146	C	1.594393	-0.168382	1.361431
H147	H	1.058395	-0.700447	0.986261
H148	H	1.558395	-0.200447	1.486261
H149	H	1.090786	-0.601814	0.973573
H150	H	1.590786	-0.101814	1.473573
H151	H	1.160613	-0.679165	0.965060
H152	H	1.660613	-0.179165	1.465060
H153	H	1.035411	-0.651140	0.850401
H154	H	1.535411	-0.151140	1.350401
H155	H	1.105230	-0.728511	0.841883
H156	H	1.605230	-0.228511	1.341883
C157	C	1.067715	-0.971395	0.144928
C158	C	1.567715	-0.471395	0.644928
C159	C	1.111972	-1.037674	0.189244
C160	C	1.611972	-0.537674	0.689244
H161	H	1.029237	-0.998986	0.106379
H162	H	1.529237	-0.498986	0.606379
H163	H	1.111130	-0.935130	0.110037
H164	H	1.611130	-0.435130	0.610037
H165	H	1.032752	-0.935130	0.188315
H166	H	1.532752	-0.435130	0.688315
H167	H	1.146941	-1.073936	0.145857
H168	H	1.646941	-0.573936	0.645857
H169	H	1.068551	-1.073955	0.224137
H170	H	1.568551	-0.573955	0.724137
H171	H	0.599319	-0.642983	0.200244
H172	H	1.099319	-0.142983	0.700244
H173	H	0.597985	-0.446557	0.421366
H174	H	1.097985	0.053443	0.921366
C175	C	1.369566	-1.300937	0.447218
C176	C	1.869566	-0.800937	0.947218
C177	C	1.385975	-1.210161	0.463683
C178	C	1.885975	-0.710161	0.963683
H179	H	1.404606	-1.336888	0.482319
H180	H	1.904606	-0.836888	0.982319
H181	H	1.385675	-1.313742	0.384957
H182	H	1.885675	-0.813742	0.884957
H183	H	1.307288	-1.313746	0.463226
H184	H	1.807288	-0.813746	0.963226
H185	H	1.448253	-1.197350	0.447668
H186	H	1.948253	-0.697350	0.947668
H187	H	1.369872	-1.197351	0.525957
H188	H	1.869872	-0.697351	1.025957
H189	H	1.174711	-1.172717	0.252060
H190	H	1.674711	-0.672717	0.752060
