data_functionalizedCrystal
_audit_creation_method	'MofGen! by Chris Wilmer'
_symmetry_space_group_name_H-M	'P1'
_symmetry_Int_Tables_number	1
_symmetry_cell_setting	triclinic
loop_
_symmetry_equiv_pos_as_xyz
  x,y,z
_cell_length_a	10.540495
_cell_length_b	9.016244
_cell_length_c	10.540495
_cell_angle_alpha	90.000914
_cell_angle_beta	84.507509
_cell_angle_gamma	89.991052
loop_
_atom_site_label
_atom_site_type_symbol
_atom_site_fract_x
_atom_site_fract_y
_atom_site_fract_z
O1	O	-1.685897	0.123385	-0.178633
O2	O	-1.316475	0.123374	-0.195547
O3	O	-1.509643	0.123382	-0.002379
O4	O	-1.492729	0.123377	-0.371801
O5	O	-1.509615	-0.123299	-0.002383
O6	O	-1.316446	-0.123306	-0.195552
O7	O	-1.685869	-0.123296	-0.178637
Cu8	Cu	-1.501155	-0.145825	-0.187095
Cu9	Cu	-1.501189	0.145903	-0.187090
O10	O	-1.492700	-0.123303	-0.371806
C11	C	-1.269157	0.000033	-0.194293
C12	C	-1.128206	0.000029	-0.190533
N13	N	-1.501140	-0.351011	-0.187098
C14	C	-1.057478	0.000029	-0.328680
C15	C	-0.910865	0.000594	-0.324816
C16	C	-0.935895	0.140627	-0.115415
C17	C	-1.082435	0.140741	-0.120259
C18	C	-1.082806	-0.139791	-0.118220
C19	C	-0.935826	-0.141635	-0.116897
C20	C	-1.397491	-0.586048	-0.290084
C21	C	-1.397720	-0.414157	-0.290469
C22	C	-1.633861	-0.413346	-0.217211
C23	C	-1.633295	-0.585291	-0.217940
C24	C	-1.473387	-0.585554	-0.053661
C25	C	-1.470342	-0.413600	-0.054526
C26	C	-0.733185	0.000043	-0.179909
C27	C	-0.874129	0.000040	-0.183718
C28	C	-1.508372	0.000045	0.044923
C29	C	-1.504613	0.000056	0.185873
N30	N	-1.501213	0.351090	-0.187077
C31	C	-1.642760	0.000056	0.256601
C32	C	-1.638895	-0.000515	0.403215
C33	C	-1.429481	-0.140551	0.378196
C34	C	-1.434325	-0.140659	0.231656
C35	C	-1.432313	0.139873	0.231262
C36	C	-1.430990	0.141711	0.378242
C37	C	-1.493988	0.000037	0.580895
C38	C	-1.497798	0.000035	0.439951
H39	H	-0.868180	-0.100162	-0.378539
C40	C	-1.294662	0.141724	0.167399
H41	H	-1.251454	0.226452	0.195205
H42	H	-1.295986	0.145354	0.077467
H43	H	-1.251621	0.054500	0.190146
C44	C	-1.711130	-0.137459	0.459606
H45	H	-1.742943	-0.192968	0.392894
H46	H	-1.780153	-0.106335	0.518110
H47	H	-1.654842	-0.197585	0.502588
C48	C	-0.880418	-0.282150	-0.184311
H49	H	-0.918117	-0.367476	-0.143454
H50	H	-0.790827	-0.284751	-0.180082
H51	H	-0.898147	-0.280917	-0.270992
C52	C	-1.498419	0.282221	0.433646
H53	H	-1.566996	0.254675	0.494138
H54	H	-1.530387	0.337425	0.366849
H55	H	-1.439469	0.341236	0.474163
C56	C	-1.575537	-0.640477	0.049915
H57	H	-1.634861	-0.701722	0.012106
H58	H	-1.618813	-0.557785	0.089609
H59	H	-1.535951	-0.695843	0.111914
C60	C	-1.292053	0.153744	0.410883
H61	H	-1.272883	0.072152	0.462796
H62	H	-1.281159	0.243685	0.455505
H63	H	-1.236392	0.152781	0.334472
C64	C	-0.905769	0.147171	0.024579
H65	H	-0.855127	0.064026	0.042656
H66	H	-0.983053	0.145640	0.078902
H67	H	-0.860511	0.235882	0.038538
H68	H	-1.299105	-0.372015	-0.272353
H69	H	-1.415605	-0.373011	-0.389452
C70	C	-1.666159	-0.639457	-0.349433
H71	H	-1.679723	-0.556377	-0.401905
H72	H	-1.741311	-0.698103	-0.339407
H73	H	-1.597693	-0.697285	-0.388124
C74	C	-1.146670	-0.141643	0.019430
H75	H	-1.118858	-0.226374	0.062647
H76	H	-1.236602	-0.145271	0.018106
H77	H	-1.123931	-0.054422	0.062464
C78	C	-1.096010	-0.136131	-0.404397
H79	H	-1.155583	-0.194199	-0.352444
H80	H	-1.022550	-0.194029	-0.429413
H81	H	-1.133701	-0.104162	-0.478042
H82	H	-1.692629	0.100240	0.445891
C83	C	-1.338444	-0.358575	-0.023686
H84	H	-1.302289	-0.297703	-0.091308
H85	H	-1.284368	-0.441243	-0.013849
H86	H	-1.347308	-0.302799	0.053119
H87	H	-1.087709	0.100696	-0.383896
H88	H	-1.712929	-0.372439	-0.144233
C89	C	-1.718487	0.136223	0.218063
H90	H	-1.666539	0.194293	0.158486
H91	H	-1.743507	0.194116	0.291521
H92	H	-1.792131	0.104262	0.180375
H93	H	-1.378653	-0.629004	-0.024996
C94	C	-1.297242	-0.148764	0.166775
H95	H	-1.238843	-0.151989	0.230011
H96	H	-1.280474	-0.063747	0.114631
H97	H	-1.287838	-0.235588	0.115675
C98	C	-0.903138	-0.153707	0.022024
H99	H	-0.851217	-0.072127	0.041181
H100	H	-0.858504	-0.243657	0.032882
H101	H	-0.979525	-0.152756	0.077719
C102	C	-1.667479	-0.355169	-0.347218
H103	H	-1.600814	-0.292909	-0.383312
H104	H	-1.744631	-0.300209	-0.335946
H105	H	-1.677704	-0.436510	-0.402616
H106	H	-1.478305	0.246467	0.199775
C107	C	-1.492746	-0.282435	0.435698
H108	H	-1.450727	-0.366918	0.397719
H109	H	-1.579945	-0.284043	0.419838
H110	H	-1.486576	-0.283885	0.525018
H111	H	-1.698004	-0.100536	0.226290
H112	H	-1.540883	-0.370622	0.025807
H113	H	-1.484191	-0.246149	0.203436
C114	C	-1.289483	-0.147101	0.408313
H115	H	-1.249981	-0.232935	0.370066
H116	H	-1.286213	-0.151327	0.497991
H117	H	-1.245877	-0.061080	0.375437
C118	C	-0.854479	0.137504	-0.397111
H119	H	-0.921194	0.193005	-0.428943
H120	H	-0.795987	0.106330	-0.466124
H121	H	-0.811485	0.197654	-0.340863
C122	C	-0.878408	0.282506	-0.178705
H123	H	-0.816782	0.256366	-0.246743
H124	H	-0.838898	0.339264	-0.117544
H125	H	-0.944088	0.339404	-0.210903
H126	H	-1.110664	0.246232	-0.170137
H127	H	-1.114281	-0.246383	-0.164204
H128	H	-1.130458	0.146745	-0.018780
C129	C	-1.263845	-0.641949	-0.265993
H130	H	-1.202626	-0.602747	-0.329169
H131	H	-1.262168	-0.747202	-0.269821
H132	H	-1.244276	-0.610357	-0.184120
C133	C	-1.421357	-0.644335	-0.423056
H134	H	-1.358278	-0.605815	-0.484725
H135	H	-1.503318	-0.613557	-0.443023
H136	H	-1.417186	-0.749589	-0.423460
H137	H	-1.712950	-0.626871	-0.145937
