data_functionalizedCrystal
_audit_creation_method	'MofGen! by Chris Wilmer'
_symmetry_space_group_name_H-M	'P1'
_symmetry_Int_Tables_number	1
_symmetry_cell_setting	triclinic
loop_
_symmetry_equiv_pos_as_xyz
  x,y,z
_cell_length_a	21.295418
_cell_length_b	16.120484
_cell_length_c	16.120297
_cell_angle_alpha	95.614431
_cell_angle_beta	87.141709
_cell_angle_gamma	87.057675
loop_
_atom_site_label
_atom_site_type_symbol
_atom_site_fract_x
_atom_site_fract_y
_atom_site_fract_z
Zn1	Zn	0.929946	0.356428	0.489852
Zn2	Zn	0.929866	0.489118	0.357163
Zn3	Zn	0.830299	0.349398	0.350056
Zn4	Zn	0.819029	0.496197	0.496838
O5	O	0.877285	0.422785	0.423477
O6	O	1.018023	0.374009	0.472302
O7	O	0.921342	0.464679	0.239260
O8	O	0.848268	0.233364	0.362702
O9	O	1.017965	0.471496	0.374815
O10	O	0.921478	0.238529	0.465410
O11	O	0.848191	0.362028	0.234039
O12	O	0.740716	0.368892	0.369476
O13	O	0.829059	0.483561	0.612871
O14	O	0.732436	0.476745	0.477316
O15	O	0.910549	0.380873	0.607739
O16	O	0.910414	0.607024	0.381589
O17	O	0.828982	0.612225	0.484207
C18	C	0.713736	0.422824	0.423383
C19	C	0.643767	0.422862	0.423364
C20	C	0.868482	0.639953	0.434445
C21	C	0.864773	0.732860	0.439166
C22	C	0.868555	0.433791	0.641479
C23	C	0.864835	0.438481	0.734379
C24	C	0.606605	0.479088	0.479440
C25	C	0.540862	0.479069	0.479476
C26	C	0.512283	0.422833	0.423422
C27	C	0.549453	0.366597	0.367342
C28	C	0.615195	0.366612	0.367313
N29	N	0.412215	0.412594	0.349988
N30	N	0.349763	0.412585	0.350018
C31	C	0.314207	0.422784	0.423508
N32	N	0.343462	0.433009	0.496969
N33	N	0.405920	0.433022	0.496938
C34	C	0.440998	0.422810	0.423448
C35	C	0.205759	0.478992	0.479628
C36	C	0.140015	0.478968	0.479666
C37	C	0.148607	0.366500	0.367524
C38	C	0.214350	0.366520	0.367494
C39	C	0.242922	0.422771	0.423545
C40	C	1.041473	0.422747	0.423572
C41	C	1.111440	0.422730	0.423612
C42	C	0.886139	0.204770	0.412484
C43	C	0.889912	0.111865	0.407800
C44	C	0.858003	0.902963	0.447801
C45	C	0.896679	0.941768	0.399167
C46	C	0.892912	1.036419	0.403972
C47	C	0.861769	0.808303	0.442997
C48	C	0.886020	0.411762	0.206320
C49	C	0.889871	0.406837	0.113409
C50	C	0.858021	0.447025	0.904466
C51	C	0.896684	0.398295	0.943327
C52	C	0.892892	0.403049	1.037970
C53	C	0.861811	0.442272	0.809815
H54	H	0.510599	0.524854	0.525143
C55	C	0.810059	0.953294	0.508208
C56	C	0.775122	0.898894	0.552150
C57	C	0.730955	0.945240	0.607809
H58	H	0.782546	0.985799	0.477975
H59	H	0.831314	0.989123	0.546401
H60	H	0.753867	0.863080	0.513962
H61	H	0.802617	0.866388	0.582400
H62	H	0.752210	0.981069	0.646003
H63	H	0.703447	0.977743	0.577569
H64	H	0.707248	0.908337	0.637636
C65	C	0.944520	0.337841	0.892821
C66	C	0.913020	0.281817	0.839960
C67	C	0.957063	0.226120	0.793414
H68	H	0.968296	0.307810	0.929558
H69	H	0.971983	0.368097	0.860351
H70	H	0.885567	0.251564	0.872427
H71	H	0.889247	0.311824	0.803206
H72	H	0.984526	0.256376	0.760944
H73	H	0.980836	0.196095	0.830158
H74	H	0.935697	0.188107	0.757537
C75	C	0.637507	0.540189	0.540393
C76	C	0.590885	0.589411	0.589525
C77	C	0.619330	0.645697	0.645691
H78	H	0.662926	0.575026	0.510284
H79	H	0.663002	0.510140	0.575287
H80	H	0.565401	0.619458	0.554635
H81	H	0.565464	0.554597	0.619651
H82	H	0.644825	0.615648	0.680585
H83	H	0.644748	0.680528	0.615576
H84	H	0.587702	0.679096	0.679039
C85	C	0.518309	0.305638	0.306513
C86	C	0.452781	0.317677	0.318522
C87	C	0.424072	0.261542	0.262493
H88	H	0.530818	0.250082	0.315938
H89	H	0.530770	0.314961	0.250929
H90	H	0.440325	0.308347	0.374093
H91	H	0.440254	0.373222	0.309090
H92	H	0.436532	0.270865	0.206908
H93	H	0.436585	0.205989	0.271922
H94	H	0.379608	0.269708	0.270627
C95	C	0.236667	0.540089	0.540583
C96	C	0.190047	0.589305	0.589724
C97	C	0.218493	0.645587	0.645893
H98	H	0.262083	0.574929	0.510477
H99	H	0.262165	0.510036	0.575471
H100	H	0.164560	0.619356	0.554840
H101	H	0.164628	0.554488	0.619849
H102	H	0.243991	0.615534	0.680781
H103	H	0.243909	0.680421	0.615780
H104	H	0.186867	0.678982	0.679247
H105	H	0.822076	0.492312	0.942272
H106	H	0.645452	0.320823	0.321648
H107	H	0.109758	0.524752	0.525335
C108	C	0.944564	0.891391	0.338699
C109	C	0.933395	0.908455	0.257042
C110	C	0.977495	0.862069	0.201318
H111	H	0.940804	0.833543	0.343330
H112	H	0.985819	0.906210	0.351653
H113	H	0.892150	0.893631	0.244092
H114	H	0.937160	0.966294	0.252385
H115	H	1.018750	0.876888	0.214272
H116	H	0.973731	0.804224	0.205957
H117	H	0.969927	0.873647	0.145909
H118	H	0.125339	0.320707	0.321888
H119	H	0.244608	0.320739	0.321827
