data_functionalizedCrystal
_audit_creation_method	'MofGen! by Chris Wilmer'
_symmetry_space_group_name_H-M	'P1'
_symmetry_Int_Tables_number	1
_symmetry_cell_setting	triclinic
loop_
_symmetry_equiv_pos_as_xyz
  x,y,z
_cell_length_a	17.640112
_cell_length_b	12.645330
_cell_length_c	17.640968
_cell_angle_alpha	78.771593
_cell_angle_beta	92.139080
_cell_angle_gamma	101.241872
loop_
_atom_site_label
_atom_site_type_symbol
_atom_site_fract_x
_atom_site_fract_y
_atom_site_fract_z
Zn1	Zn	1.247780	-0.030458	-0.195081
Zn2	Zn	1.581114	0.302875	0.138252
Zn3	Zn	1.914447	0.636208	0.471586
Zn4	Zn	1.222027	-0.249165	-0.068107
Zn5	Zn	1.555360	0.084168	0.265226
Zn6	Zn	1.888693	0.417501	0.598559
Zn7	Zn	1.095118	-0.099415	-0.093730
Zn8	Zn	1.428451	0.233919	0.239603
Zn9	Zn	1.761784	0.567252	0.572937
Zn10	Zn	1.120767	-0.235211	-0.220689
Zn11	Zn	1.454100	0.098122	0.112645
Zn12	Zn	1.787433	0.431455	0.445978
O13	O	1.171423	-0.153562	-0.144402
O14	O	1.504756	0.179771	0.188932
O15	O	1.838089	0.513104	0.522265
O16	O	1.350632	-0.036452	-0.156798
O17	O	1.683965	0.296882	0.176536
O18	O	2.017298	0.630215	0.509869
O19	O	1.183680	-0.263999	0.034766
O20	O	1.517013	0.069335	0.368099
O21	O	1.850346	0.402668	0.701432
O22	O	1.115413	0.058093	-0.107181
O23	O	1.448746	0.391427	0.226153
O24	O	1.782079	0.724760	0.559486
O25	O	1.331711	-0.197135	-0.063511
O26	O	1.665044	0.136199	0.269823
O27	O	1.998377	0.469532	0.603156
O28	O	1.227573	0.108755	-0.181643
O29	O	1.560907	0.442089	0.151690
O30	O	1.894240	0.775422	0.485024
O31	O	1.090440	-0.153978	0.015941
O32	O	1.423773	0.179356	0.349274
O33	O	1.757107	0.512689	0.682607
O34	O	0.992252	-0.140447	-0.132011
O35	O	1.325586	0.192886	0.201322
O36	O	1.658919	0.526219	0.534655
O37	O	1.159127	-0.173352	-0.323563
O38	O	1.492461	0.159981	0.009770
O39	O	1.825794	0.493315	0.343103
O40	O	1.011096	-0.240216	-0.225287
O41	O	1.344430	0.093117	0.108046
O42	O	1.677763	0.426450	0.441379
O43	O	1.252444	-0.022921	-0.304750
O44	O	1.585777	0.310412	0.028584
O45	O	1.919111	0.643746	0.361917
O46	O	1.208550	-0.395675	-0.088341
O47	O	1.541884	-0.062342	0.244992
O48	O	1.875217	0.270992	0.578326
O49	O	1.134155	-0.385423	-0.200442
O50	O	1.467488	-0.052090	0.132891
O51	O	1.800822	0.281243	0.466225
C52	C	0.974120	-0.196301	-0.184209
C53	C	1.307454	0.137032	0.149125
C54	C	1.640787	0.470366	0.482458
C55	C	0.889717	-0.214604	-0.201257
C56	C	1.223051	0.118729	0.132077
C57	C	1.556384	0.452062	0.465410
C58	C	1.171365	-0.429008	-0.144402
C59	C	1.504699	-0.095674	0.188931
C60	C	1.838032	0.237659	0.522264
C61	C	1.171415	-0.546821	-0.144414
C62	C	1.504749	-0.213488	0.188919
C63	C	1.838082	0.119846	0.522253
C64	C	0.563040	-0.014493	-0.014899
C65	C	0.896373	0.318840	0.318435
C66	C	1.229707	0.652174	0.651768
C67	C	0.483733	-0.031710	-0.030928
C68	C	0.817066	0.301623	0.302406
C69	C	1.150399	0.634957	0.635739
C70	C	0.503375	-0.135841	-0.127889
C71	C	0.836709	0.197493	0.205445
C72	C	1.170042	0.530826	0.538778
C73	C	0.582687	-0.118628	-0.111870
C74	C	0.916020	0.214705	0.221463
C75	C	1.249354	0.548039	0.554796
C76	C	0.612512	-0.057954	-0.055374
C77	C	0.945846	0.275379	0.277959
C78	C	1.279179	0.608712	0.611293
C79	C	0.632159	-0.162089	-0.152345
C80	C	0.965492	0.171244	0.180988
C81	C	1.298826	0.504577	0.514321
C82	C	0.711463	-0.144883	-0.136325
C83	C	1.044796	0.188451	0.197008
C84	C	1.378130	0.521784	0.530341
C85	C	0.741294	-0.084215	-0.079830
C86	C	1.074628	0.249119	0.253503
C87	C	1.407961	0.582452	0.586837
C88	C	0.691816	-0.040748	-0.039354
C89	C	1.025150	0.292586	0.293980
C90	C	1.358483	0.625919	0.627313
C91	C	0.602331	-0.222769	-0.208838
C92	C	0.935665	0.110564	0.124496
C93	C	1.268998	0.443897	0.457829
C94	C	0.651804	-0.266231	-0.249313
C95	C	0.985137	0.067103	0.084020
C96	C	1.318470	0.400436	0.417354
C97	C	0.731110	-0.249018	-0.233297
C98	C	1.064443	0.084316	0.100036
C99	C	1.397776	0.417649	0.433370
C100	C	0.760941	-0.188350	-0.176801
C101	C	1.094275	0.144984	0.156532
C102	C	1.427608	0.478317	0.489865
C103	C	0.780588	-0.292485	-0.273773
C104	C	1.113921	0.040849	0.059560
C105	C	1.447255	0.374182	0.392894
C106	C	0.859892	-0.275278	-0.257753
C107	C	1.193225	0.058055	0.075580
C108	C	1.526558	0.391389	0.408914
C109	C	0.840245	-0.171143	-0.160781
C110	C	1.173578	0.162190	0.172552
C111	C	1.506912	0.495524	0.505885
C112	C	1.124892	-0.707868	-0.215069
C113	C	1.458225	-0.374535	0.118265
C114	C	1.791558	-0.041201	0.451598
C115	C	1.124554	-0.585435	-0.214940
C116	C	1.457888	-0.252102	0.118394
C117	C	1.791221	0.081231	0.451727
C118	C	1.133571	-0.622203	-0.068749
C119	C	1.466904	-0.288870	0.264585
C120	C	1.800238	0.044463	0.597918
C121	C	1.133287	-0.744763	-0.069178
C122	C	1.466620	-0.411429	0.264155
C123	C	1.799953	-0.078096	0.597489
C124	C	1.256009	-0.689787	-0.148703
C125	C	1.589342	-0.356453	0.184630
C126	C	1.922676	-0.023120	0.517964
C127	C	1.255870	-0.566716	-0.150553
C128	C	1.589203	-0.233383	0.182781
C129	C	1.922537	0.099951	0.516114
C130	C	1.369496	-0.110658	-0.104440
C131	C	1.702829	0.222676	0.228894
C132	C	2.036162	0.556009	0.562227
C133	C	1.453902	-0.092374	-0.087410
C134	C	1.787236	0.240959	0.245923
C135	C	2.120569	0.574292	0.579257
C136	C	1.211520	-0.088888	-0.342482
C137	C	1.544853	0.244445	-0.009149
C138	C	1.878186	0.577779	0.324185
C139	C	1.228606	-0.061328	-0.426892
C140	C	1.561940	0.272006	-0.093559
C141	C	1.895273	0.605339	0.239774
C142	C	1.171505	0.122968	-0.144414
C143	C	1.504838	0.456302	0.188920
C144	C	1.838171	0.789635	0.522253
C145	C	1.171539	0.240809	-0.144419
C146	C	1.504873	0.574143	0.188915
C147	C	1.838206	0.907476	0.522248
C148	C	1.041907	-0.362295	-0.753477
C149	C	1.375240	-0.028962	-0.420144
C150	C	1.708574	0.304371	-0.086810
C151	C	1.057979	-0.336381	-0.832790
C152	C	1.391312	-0.003048	-0.499456
C153	C	1.724646	0.330285	-0.166123
C154	C	1.155141	-0.179751	-0.813190
C155	C	1.488474	0.153583	-0.479857
C156	C	1.821808	0.486916	-0.146524
C157	C	1.139075	-0.205649	-0.733875
C158	C	1.472408	0.127685	-0.400541
C159	C	1.805742	0.461018	-0.067208
C160	C	1.082458	-0.296923	-0.704024
C161	C	1.415791	0.036410	-0.370691
C162	C	1.749124	0.369744	-0.037358
C163	C	1.179626	-0.140276	-0.684422
C164	C	1.512959	0.193057	-0.351089
C165	C	1.846292	0.526391	-0.017756
C166	C	1.163563	-0.166176	-0.605113
C167	C	1.496897	0.167158	-0.271780
C168	C	1.830230	0.500491	0.061554
C169	C	1.106950	-0.257448	-0.575256
C170	C	1.440284	0.075886	-0.241923
C171	C	1.773617	0.409219	0.091411
C172	C	1.066395	-0.322822	-0.624715
C173	C	1.399729	0.010511	-0.291382
C174	C	1.733062	0.343844	0.041951
C175	C	1.236246	-0.049007	-0.714273
C176	C	1.569580	0.284327	-0.380940
C177	C	1.902913	0.617660	-0.047606
C178	C	1.276797	0.016366	-0.664821
C179	C	1.610130	0.349699	-0.331487
C180	C	1.943464	0.683032	0.001846
C181	C	1.260731	-0.009529	-0.585511
C182	C	1.594064	0.323805	-0.252177
C183	C	1.927398	0.657138	0.081156
C184	C	1.204118	-0.100801	-0.555654
C185	C	1.537451	0.232533	-0.222321
C186	C	1.870785	0.565866	0.111013
C187	C	1.301286	0.055846	-0.536052
C188	C	1.634619	0.389179	-0.202718
C189	C	1.967953	0.722513	0.130615
C190	C	1.285224	0.029947	-0.456742
C191	C	1.618557	0.363280	-0.123409
C192	C	1.951890	0.696613	0.209924
C193	C	1.188056	-0.126700	-0.476345
C194	C	1.521389	0.206633	-0.143011
C195	C	1.854722	0.539966	0.190322
C196	C	1.131526	-0.217899	0.052917
C197	C	1.464859	0.115434	0.386250
C198	C	1.798192	0.448767	0.719584
C199	C	1.114586	-0.245129	0.137356
C200	C	1.447919	0.088204	0.470690
C201	C	1.781253	0.421538	0.804023
H202	H	0.864533	-0.121717	-0.114788
H203	H	1.197866	0.211616	0.218546
H204	H	1.531199	0.544950	0.551879
F205	F	1.014813	-0.405965	-0.885420
F206	F	1.348146	-0.072632	-0.552086
F207	F	1.681479	0.260701	-0.218753
H208	H	1.093876	-0.278537	-0.510676
H209	H	1.427210	0.054797	-0.177343
H210	H	1.760543	0.388130	0.155990
F211	F	1.006131	-0.419960	-0.592944
F212	F	1.339464	-0.086627	-0.259610
F213	F	1.672797	0.246706	0.073723
H214	H	1.150358	-0.714958	-0.271900
H215	H	1.483691	-0.381625	0.061433
H216	H	1.817025	-0.048291	0.394766
F217	F	0.981642	-0.459433	-0.721705
F218	F	1.314976	-0.126100	-0.388372
F219	F	1.648309	0.207233	-0.055039
F220	F	1.215398	-0.082616	-0.844967
F221	F	1.548731	0.250718	-0.511634
F222	F	1.882064	0.584051	-0.178301
F223	F	0.748832	-0.357076	-0.333886
F224	F	1.082166	-0.023743	-0.000553
F225	F	1.415499	0.309590	0.332780
F226	F	0.620051	-0.330815	-0.309431
F227	F	0.953384	0.002518	0.023903
F228	F	1.286717	0.335851	0.357236
H229	H	1.318243	0.083181	-0.416477
H230	H	1.651576	0.416514	-0.083143
H231	H	1.984910	0.749848	0.250190
F232	F	1.044004	-0.770745	-0.213171
F233	F	1.377337	-0.437412	0.120162
F234	F	1.710671	-0.104079	0.453496
H235	H	1.249324	-0.027925	-0.778852
H236	H	1.582657	0.305409	-0.445519
H237	H	1.915991	0.638742	-0.112185
F238	F	1.337053	0.113501	-0.696598
F239	F	1.670387	0.446834	-0.363264
F240	F	2.003720	0.780167	-0.029931
F241	F	1.361547	0.152975	-0.567830
F242	F	1.694880	0.486308	-0.234496
F243	F	2.028214	0.819641	0.098837
H244	H	1.164912	-0.780360	-0.015614
H245	H	1.498245	-0.447026	0.317719
H246	H	1.831578	-0.113693	0.651052
F247	F	1.052949	-0.606190	-0.060971
F248	F	1.386282	-0.272857	0.272362
F249	F	1.719615	0.060477	0.605695
H250	H	0.443454	0.003695	0.002031
H251	H	0.776788	0.337029	0.335364
H252	H	1.110121	0.670362	0.668698
F253	F	0.825697	-0.065908	-0.062776
F254	F	1.159030	0.267426	0.270557
F255	F	1.492364	0.600759	0.603891
H256	H	0.716104	0.008678	0.006640
H257	H	1.049437	0.342012	0.339973
H258	H	1.382770	0.675345	0.673307
F259	F	1.175635	-0.591591	0.001008
F260	F	1.508969	-0.258258	0.334341
F261	F	1.842302	0.075076	0.667675
F262	F	1.305388	-0.530571	-0.086512
F263	F	1.638721	-0.197238	0.246821
F264	F	1.972054	0.136095	0.580154
F265	F	1.043130	-0.569871	-0.212904
F266	F	1.376463	-0.236537	0.120429
F267	F	1.709797	0.096796	0.453762
H268	H	0.587328	0.034933	0.031095
H269	H	0.920661	0.368266	0.364428
H270	H	1.253994	0.701600	0.697762
H271	H	1.150106	-0.532996	-0.271552
H272	H	1.483439	-0.199662	0.061782
H273	H	1.816773	0.133671	0.395115
F274	F	1.301699	-0.733595	-0.081196
F275	F	1.635033	-0.400262	0.252137
F276	F	1.968366	-0.066928	0.585471
H277	H	1.287369	-0.697644	-0.202086
H278	H	1.620703	-0.364311	0.131248
H279	H	1.954036	-0.030977	0.464581
H280	H	0.479080	-0.185245	-0.173886
H281	H	0.812413	0.148088	0.159448
H282	H	1.145746	0.481422	0.492781
H283	H	0.537756	-0.236777	-0.221879
H284	H	0.871090	0.096556	0.111454
H285	H	1.204423	0.429889	0.444787
H286	H	0.900174	-0.310667	-0.290713
H287	H	1.233507	0.022666	0.042621
H288	H	1.566841	0.355999	0.375954
H289	H	1.071058	-0.791839	-0.063665
H290	H	1.404391	-0.458506	0.269668
H291	H	1.737724	-0.125172	0.603001
F292	F	1.292791	-0.498887	-0.223234
F293	F	1.626124	-0.165554	0.110100
F294	F	1.959457	0.167780	0.443433
H295	H	1.141934	-0.201003	-0.452043
H296	H	1.475268	0.132330	-0.118710
H297	H	1.808601	0.465663	0.214624
