data_functionalizedCrystal
_audit_creation_method	'MofGen! by Chris Wilmer'
_symmetry_space_group_name_H-M	'P1'
_symmetry_Int_Tables_number	1
_symmetry_cell_setting	triclinic
loop_
_symmetry_equiv_pos_as_xyz
  x,y,z
_cell_length_a	15.944499
_cell_length_b	15.944551
_cell_length_c	10.868271
_cell_angle_alpha	89.993912
_cell_angle_beta	89.993092
_cell_angle_gamma	83.488174
loop_
_atom_site_label
_atom_site_type_symbol
_atom_site_fract_x
_atom_site_fract_y
_atom_site_fract_z
O1	O	1.114551	0.108126	-0.102399
O2	O	0.869995	0.121527	-0.102385
O3	O	0.998951	-0.007450	-0.102381
O4	O	0.985595	0.237103	-0.102403
O5	O	0.998941	-0.007455	0.102263
O6	O	0.869985	0.121522	0.102259
O7	O	1.114540	0.108121	0.102246
Zn8	Zn	0.992261	0.114821	0.134744
Zn9	Zn	0.992275	0.114827	-0.134884
O10	O	0.985584	0.237098	0.102242
C11	C	0.838695	0.120976	-0.000061
C12	C	0.745447	0.119331	-0.000056
C13	C	0.998392	-0.038746	-0.000059
C14	C	0.996729	-0.131992	-0.000058
C15	C	0.453911	0.194263	-0.000081
C16	C	0.514945	0.155314	-0.100980
C17	C	0.409810	0.113355	-0.000084
C18	C	0.514921	0.155288	0.100784
C19	C	0.574719	0.116296	-0.000068
C20	C	0.469617	0.074383	-0.101066
C21	C	0.469586	0.074368	0.100788
C22	C	0.530603	0.035360	-0.000136
C23	C	0.314810	0.111663	-0.000094
C24	C	0.669718	0.117981	-0.000067
C25	C	0.912823	-0.346833	-0.000070
C26	C	0.951781	-0.407860	0.100830
C27	C	0.993722	-0.302717	-0.000067
C28	C	0.951811	-0.407838	-0.100934
C29	C	0.990811	-0.467629	-0.000082
C30	C	1.032702	-0.362516	0.100916
C31	C	1.032720	-0.362488	-0.100938
C32	C	1.071737	-0.423497	-0.000013
C33	C	0.995397	-0.207715	-0.000058
C34	C	0.989143	-0.562630	-0.000082
C35	C	1.145840	0.108672	-0.000081
C36	C	1.239089	0.110317	-0.000094
C37	C	0.986144	0.268394	-0.000083
C38	C	0.987806	0.361640	-0.000092
N39	N	0.992258	0.114816	0.318759
N40	N	0.992285	0.114826	-0.318898
C41	C	0.992270	0.114826	0.569765
C42	C	0.992261	0.114823	0.430087
H43	H	0.420581	0.261409	-0.000184
N44	N	0.906480	-0.434431	-0.213929
H45	H	0.946247	-0.474487	-0.264494
H46	H	0.856276	-0.463582	-0.188087
H47	H	0.534992	0.189520	0.186083
N48	N	0.541558	0.200634	-0.213995
H49	H	0.513372	0.260649	-0.213931
H50	H	0.604869	0.200892	-0.213520
N51	N	0.443170	0.029091	-0.214183
H52	H	0.379926	0.028261	-0.213510
H53	H	0.460106	0.059448	-0.290241
N54	N	0.574546	-0.053662	-0.000204
H55	H	0.611406	-0.062618	-0.075710
H56	H	0.610594	-0.062936	0.076059
H57	H	0.449465	0.040173	0.186099
N58	N	0.906451	-0.434482	0.213831
H59	H	0.856248	-0.463669	0.188099
H60	H	0.946279	-0.474515	0.264331
N61	N	1.160757	-0.467448	0.000042
H62	H	1.202121	-0.423938	0.000795
H63	H	1.169633	-0.504311	0.075550
N64	N	0.823877	-0.302695	0.000052
H65	H	0.793424	-0.319070	0.076346
H66	H	0.825693	-0.239588	-0.000776
N67	N	1.077987	-0.336058	0.214034
H68	H	1.078806	-0.272814	0.213360
H69	H	1.047632	-0.352999	0.290091
N70	N	1.078019	-0.335827	-0.213935
H71	H	1.047410	-0.352122	-0.290115
H72	H	1.079274	-0.272647	-0.212550
