data_functionalizedCrystal
_audit_creation_method	'MofGen! by Chris Wilmer'
_symmetry_space_group_name_H-M	'P1'
_symmetry_Int_Tables_number	1
_symmetry_cell_setting	triclinic
loop_
_symmetry_equiv_pos_as_xyz
  x,y,z
_cell_length_a	25.639239
_cell_length_b	19.121224
_cell_length_c	19.120904
_cell_angle_alpha	90.128641
_cell_angle_beta	92.410104
_cell_angle_gamma	87.529144
loop_
_atom_site_label
_atom_site_type_symbol
_atom_site_fract_x
_atom_site_fract_y
_atom_site_fract_z
Zn1	Zn	-0.188807	-1.054808	-0.442259
Zn2	Zn	0.061193	-0.804808	-0.192259
Zn3	Zn	0.311193	-0.554808	0.057741
Zn4	Zn	0.561193	-0.304808	0.307741
Zn5	Zn	-0.272363	-1.059701	-0.325017
Zn6	Zn	-0.022363	-0.809701	-0.075017
Zn7	Zn	0.227637	-0.559701	0.174983
Zn8	Zn	0.477637	-0.309701	0.424983
Zn9	Zn	-0.188493	-0.942575	-0.320020
Zn10	Zn	0.061507	-0.692575	-0.070020
Zn11	Zn	0.311507	-0.442575	0.179980
Zn12	Zn	0.561507	-0.192575	0.429980
Zn13	Zn	-0.279766	-0.937508	-0.437194
Zn14	Zn	-0.029766	-0.687508	-0.187194
Zn15	Zn	0.220234	-0.437508	0.062806
Zn16	Zn	0.470234	-0.187508	0.312806
O17	O	-0.232357	-0.998648	-0.381122
O18	O	0.017643	-0.748648	-0.131122
O19	O	0.267643	-0.498648	0.118878
O20	O	0.517643	-0.248648	0.368878
O21	O	-0.196923	-1.153566	-0.430917
O22	O	0.053077	-0.903566	-0.180917
O23	O	0.303077	-0.653566	0.069083
O24	O	0.553077	-0.403566	0.319083
O25	O	-0.258008	-1.048333	-0.226250
O26	O	-0.008008	-0.798333	0.023750
O27	O	0.241992	-0.548333	0.273750
O28	O	0.491992	-0.298333	0.523750
O29	O	-0.115368	-0.957535	-0.336264
O30	O	0.134632	-0.707535	-0.086264
O31	O	0.384632	-0.457535	0.163736
O32	O	0.634632	-0.207535	0.413736
O33	O	-0.258312	-1.157161	-0.344780
O34	O	-0.008312	-0.907161	-0.094780
O35	O	0.241688	-0.657161	0.155220
O36	O	0.491688	-0.407161	0.405220
O37	O	-0.115599	-1.039993	-0.426072
O38	O	0.134401	-0.789993	-0.176072
O39	O	0.384401	-0.539993	0.073928
O40	O	0.634401	-0.289993	0.323928
O41	O	-0.196389	-0.962280	-0.222579
O42	O	0.053611	-0.712280	0.027421
O43	O	0.303611	-0.462280	0.277421
O44	O	0.553611	-0.212280	0.527421
O45	O	-0.203568	-0.843794	-0.331353
O46	O	0.046432	-0.593794	-0.081353
O47	O	0.296432	-0.343794	0.168647
O48	O	0.546432	-0.093794	0.418647
O49	O	-0.270930	-0.948900	-0.535970
O50	O	-0.020930	-0.698900	-0.285970
O51	O	0.229070	-0.448900	-0.035970
O52	O	0.479070	-0.198900	0.214030
O53	O	-0.270626	-0.840072	-0.417440
O54	O	-0.020626	-0.590072	-0.167440
O55	O	0.229374	-0.340072	0.082560
O56	O	0.479374	-0.090072	0.332560
O57	O	-0.204102	-1.035080	-0.539691
O58	O	0.045898	-0.785080	-0.289691
O59	O	0.295898	-0.535080	-0.039691
O60	O	0.545898	-0.285080	0.210309
O61	O	-0.346512	-1.043419	-0.339869
O62	O	-0.096512	-0.793419	-0.089869
O63	O	0.153488	-0.543419	0.160131
O64	O	0.403488	-0.293419	0.410131
O65	O	-0.351951	-0.953644	-0.422285
O66	O	-0.101951	-0.703644	-0.172285
O67	O	0.148049	-0.453644	0.077715
O68	O	0.398049	-0.203644	0.327715
C69	C	-0.237867	-0.816495	-0.373305
C70	C	0.012133	-0.566495	-0.123305
C71	C	0.262133	-0.316495	0.126695
C72	C	0.512133	-0.066495	0.376695
C73	C	-0.240237	-0.738568	-0.369977
C74	C	0.009763	-0.488568	-0.119977
C75	C	0.259763	-0.238568	0.130023
C76	C	0.509763	0.011432	0.380023
C77	C	-0.368202	-0.998532	-0.381085
C78	C	-0.118202	-0.748532	-0.131085
C79	C	0.131798	-0.498532	0.118915
C80	C	0.381798	-0.248532	0.368915
C81	C	-0.426316	-0.998545	-0.381096
C82	C	-0.176316	-0.748545	-0.131096
C83	C	0.073684	-0.498545	0.118904
C84	C	0.323684	-0.248545	0.368904
C85	C	-0.255243	-0.297922	-0.348926
C86	C	-0.005243	-0.047922	-0.098926
C87	C	0.244757	0.202078	0.151074
C88	C	0.494757	0.452078	0.401074
C89	C	-0.253013	-0.371143	-0.352048
C90	C	-0.003013	-0.121143	-0.102048
C91	C	0.246987	0.128857	0.147952
C92	C	0.496987	0.378857	0.397952
C93	C	-0.219994	-0.405880	-0.398529
C94	C	0.030006	-0.155880	-0.148529
C95	C	0.280006	0.094120	0.101471
C96	C	0.530006	0.344120	0.351471
C97	C	-0.189199	-0.367393	-0.441886
C98	C	0.060801	-0.117393	-0.191886
C99	C	0.310801	0.132607	0.058114
C100	C	0.560801	0.382607	0.308114
C101	C	-0.191426	-0.294174	-0.438761
C102	C	0.058574	-0.044174	-0.188761
C103	C	0.308574	0.205826	0.061239
C104	C	0.558574	0.455826	0.311239
C105	C	-0.211669	-0.626862	-0.410209
C106	C	0.038331	-0.376862	-0.160209
C107	C	0.288331	-0.126862	0.089791
C108	C	0.538331	0.123138	0.339791
C109	C	-0.209445	-0.700086	-0.413333
C110	C	0.040555	-0.450086	-0.163333
C111	C	0.290555	-0.200086	0.086667
C112	C	0.540555	0.049914	0.336667
C113	C	-0.273260	-0.703830	-0.323493
C114	C	-0.023260	-0.453830	-0.073493
C115	C	0.226740	-0.203830	0.176507
C116	C	0.476740	0.046170	0.426507
C117	C	-0.275487	-0.630609	-0.320375
C118	C	-0.025487	-0.380609	-0.070375
C119	C	0.224513	-0.130609	0.179625
C120	C	0.474513	0.119391	0.429625
C121	C	-0.244689	-0.592129	-0.363730
C122	C	0.005311	-0.342129	-0.113730
C123	C	0.255311	-0.092129	0.136270
C124	C	0.505311	0.157871	0.386270
C125	C	-0.217715	-0.480724	-0.401722
C126	C	0.032285	-0.230724	-0.151722
C127	C	0.282285	0.019276	0.098278
C128	C	0.532285	0.269276	0.348278
C129	C	-0.246966	-0.517287	-0.360532
C130	C	0.003034	-0.267287	-0.110532
C131	C	0.253034	-0.017287	0.139468
C132	C	0.503034	0.232713	0.389468
C133	C	-0.783831	-1.045508	-0.338290
C134	C	-0.533831	-0.795508	-0.088290
C135	C	-0.283831	-0.545508	0.161710
C136	C	-0.033831	-0.295508	0.411710
C137	C	-0.838435	-1.045534	-0.338300
C138	C	-0.588435	-0.795534	-0.088300
C139	C	-0.338435	-0.545534	0.161700
C140	C	-0.088435	-0.295534	0.411700
O141	O	-0.864252	-1.085343	-0.301865
O142	O	-0.614252	-0.835343	-0.051865
O143	O	-0.364252	-0.585343	0.198135
O144	O	-0.114252	-0.335343	0.448135
N145	N	-0.868594	-0.998769	-0.381174
N146	N	-0.618594	-0.748769	-0.131174
N147	N	-0.368594	-0.498769	0.118826
N148	N	-0.118594	-0.248769	0.368826
C149	C	-0.844147	-0.951979	-0.424045
C150	C	-0.594147	-0.701979	-0.174045
C151	C	-0.344147	-0.451979	0.075955
C152	C	-0.094147	-0.201979	0.325955
O153	O	-0.874814	-0.912205	-0.460514
O154	O	-0.624814	-0.662205	-0.210514
O155	O	-0.374814	-0.412205	0.039486
O156	O	-0.124814	-0.162205	0.289486
C157	C	-0.789544	-0.951956	-0.424038
C158	C	-0.539544	-0.701956	-0.174038
C159	C	-0.289544	-0.451956	0.075962
C160	C	-0.039544	-0.201956	0.325962
C161	C	-0.759388	-0.998720	-0.381156
C162	C	-0.509388	-0.748720	-0.131156
C163	C	-0.259388	-0.498720	0.118844
C164	C	-0.009388	-0.248720	0.368844
C165	C	-0.753675	-1.092268	-0.295412
C166	C	-0.503675	-0.842268	-0.045412
C167	C	-0.253675	-0.592268	0.204588
C168	C	-0.003675	-0.342268	0.454588
C169	C	-0.699075	-1.092240	-0.295401
C170	C	-0.449075	-0.842240	-0.045401
C171	C	-0.199075	-0.592240	0.204599
C172	C	0.050925	-0.342240	0.454599
C173	C	-0.674631	-1.045452	-0.338267
C174	C	-0.424631	-0.795452	-0.088267
C175	C	-0.174631	-0.545452	0.161733
C176	C	0.075369	-0.295452	0.411733
C177	C	-0.704788	-0.998692	-0.381145
C178	C	-0.454788	-0.748692	-0.131145
C179	C	-0.204788	-0.498692	0.118855
C180	C	0.045212	-0.248692	0.368855
C181	C	-0.765098	-0.905170	-0.466913
C182	C	-0.515098	-0.655170	-0.216913
C183	C	-0.265098	-0.405170	0.033087
C184	C	-0.015098	-0.155170	0.283087
C185	C	-0.710491	-0.905152	-0.466902
C186	C	-0.460491	-0.655152	-0.216902
C187	C	-0.210491	-0.405152	0.033098
C188	C	0.039509	-0.155152	0.283098
C189	C	-0.680335	-0.951915	-0.424020
C190	C	-0.430335	-0.701915	-0.174020
C191	C	-0.180335	-0.451915	0.075980
C192	C	0.069665	-0.201915	0.325980
C193	C	-0.625744	-0.951876	-0.424000
C194	C	-0.375744	-0.701876	-0.174000
C195	C	-0.125744	-0.451876	0.076000
C196	C	0.124256	-0.201876	0.326000
N197	N	-0.595585	-0.998641	-0.381126
N198	N	-0.345585	-0.748641	-0.131126
N199	N	-0.095585	-0.498641	0.118874
N200	N	0.154415	-0.248641	0.368874
C201	C	-0.620028	-1.045429	-0.338260
C202	C	-0.370028	-0.795429	-0.088260
C203	C	-0.120028	-0.545429	0.161740
C204	C	0.129972	-0.295429	0.411740
C205	C	-0.958816	-0.952032	-0.424059
C206	C	-0.708816	-0.702032	-0.174059
C207	C	-0.458816	-0.452032	0.075941
C208	C	-0.208816	-0.202032	0.325941
C209	C	-1.013418	-0.952050	-0.424063
C210	C	-0.763418	-0.702050	-0.174063
C211	C	-0.513418	-0.452050	0.075937
C212	C	-0.263418	-0.202050	0.325937
C213	C	-1.007702	-1.045607	-0.338318
C214	C	-0.757702	-0.795607	-0.088318
C215	C	-0.507702	-0.545607	0.161682
C216	C	-0.257702	-0.295607	0.411682
C217	C	-0.953099	-1.045584	-0.338311
C218	C	-0.703099	-0.795584	-0.088311
C219	C	-0.453099	-0.545584	0.161689
C220	C	-0.203099	-0.295584	0.411689
C221	C	-0.928657	-0.998797	-0.381185
C222	C	-0.678657	-0.748797	-0.131185
C223	C	-0.428657	-0.498797	0.118815
C224	C	-0.178657	-0.248797	0.368815
C225	C	-0.505364	-1.045367	-0.338239
C226	C	-0.255364	-0.795367	-0.088239
C227	C	-0.005364	-0.545367	0.161761
C228	C	0.244636	-0.295367	0.411761
C229	C	-0.450760	-1.045333	-0.338229
C230	C	-0.200760	-0.795333	-0.088229
C231	C	0.049240	-0.545333	0.161771
C232	C	0.299240	-0.295333	0.411771
C233	C	-0.456481	-0.951779	-0.423976
C234	C	-0.206481	-0.701779	-0.173976
C235	C	0.043519	-0.451779	0.076024
C236	C	0.293519	-0.201779	0.326024
C237	C	-0.511080	-0.951810	-0.423983
C238	C	-0.261080	-0.701810	-0.173983
C239	C	-0.011080	-0.451810	0.076017
C240	C	0.238920	-0.201810	0.326017
C241	C	-0.535521	-0.998610	-0.381112
C242	C	-0.285521	-0.748610	-0.131112
C243	C	-0.035521	-0.498610	0.118888
C244	C	0.214479	-0.248610	0.368888
O245	O	-0.599891	-0.912090	-0.460419
O246	O	-0.349891	-0.662090	-0.210419
O247	O	-0.099891	-0.412090	0.039581
O248	O	0.150109	-0.162090	0.289581
O249	O	-0.589355	-1.085203	-0.301804
O250	O	-0.339355	-0.835203	-0.051804
O251	O	-0.089355	-0.585203	0.198196
O252	O	0.160645	-0.335203	0.448196
C253	C	-0.095982	-0.998783	-0.381176
C254	C	0.154018	-0.748783	-0.131176
C255	C	0.404018	-0.498783	0.118824
C256	C	0.654018	-0.248783	0.368824
C257	C	-0.037867	-0.998841	-0.381199
C258	C	0.212133	-0.748841	-0.131199
C259	C	0.462133	-0.498841	0.118801
C260	C	0.712133	-0.248841	0.368801
C261	C	-0.238377	-0.990879	-0.563979
C262	C	0.011623	-0.740879	-0.313979
C263	C	0.261623	-0.490879	-0.063979
C264	C	0.511623	-0.240879	0.186021
C265	C	-0.240942	-0.987568	-0.641901
C266	C	0.009058	-0.737568	-0.391901
C267	C	0.259058	-0.487568	-0.141901
C268	C	0.509058	-0.237568	0.108099
C269	C	-0.226822	-0.181513	-0.388962
C270	C	0.023178	0.068487	-0.138962
C271	C	0.273178	0.318487	0.111038
C272	C	0.523178	0.568487	0.361038
C273	C	-0.224451	-0.259440	-0.392282
C274	C	0.025549	-0.009440	-0.142282
C275	C	0.275549	0.240560	0.107718
C276	C	0.525549	0.490560	0.357718
C277	C	-0.207356	-1.030879	-0.680448
C278	C	0.042644	-0.780879	-0.430448
C279	C	0.292644	-0.530879	-0.180448
C280	C	0.542644	-0.280879	0.069552
C281	C	-0.209764	-1.027760	-0.753664
C282	C	0.040236	-0.777760	-0.503664
C283	C	0.290236	-0.527760	-0.253664
C284	C	0.540236	-0.277760	-0.003664
C285	C	-0.245763	-0.981332	-0.788332
C286	C	0.004237	-0.731332	-0.538332
C287	C	0.254237	-0.481332	-0.288332
C288	C	0.504237	-0.231332	-0.038332
C289	C	-0.279351	-0.938016	-0.749780
C290	C	-0.029351	-0.688016	-0.499780
C291	C	0.220649	-0.438016	-0.249780
C292	C	0.470649	-0.188016	0.000220
C293	C	-0.276939	-0.941132	-0.676565
C294	C	-0.026939	-0.691132	-0.426565
C295	C	0.223061	-0.441132	-0.176565
C296	C	0.473061	-0.191132	0.073435
C297	C	-0.254782	-0.969674	-1.009296
C298	C	-0.004782	-0.719674	-0.759296
C299	C	0.245218	-0.469674	-0.509296
C300	C	0.495218	-0.219674	-0.259296
C301	C	-0.257192	-0.966563	-1.082516
C302	C	-0.007192	-0.716563	-0.832516
C303	C	0.242808	-0.466563	-0.582516
C304	C	0.492808	-0.216563	-0.332516
C305	C	-0.187605	-1.056306	-1.086395
C306	C	0.062395	-0.806306	-0.836395
C307	C	0.312395	-0.556306	-0.586395
C308	C	0.562395	-0.306306	-0.336395
C309	C	-0.185198	-1.059422	-1.013179
C310	C	0.064802	-0.809422	-0.763179
C311	C	0.314802	-0.559422	-0.513179
C312	C	0.564802	-0.309422	-0.263179
C313	C	-0.218785	-1.016103	-0.974633
C314	C	0.031215	-0.766103	-0.724633
C315	C	0.281215	-0.516103	-0.474633
C316	C	0.531215	-0.266103	-0.224633
C317	C	-0.248227	-0.978144	-0.863171
C318	C	0.001773	-0.728144	-0.613171
C319	C	0.251773	-0.478144	-0.363171
C320	C	0.501773	-0.228144	-0.113171
C321	C	-0.216318	-1.019288	-0.899796
C322	C	0.033682	-0.769288	-0.649796
C323	C	0.283682	-0.519288	-0.399796
C324	C	0.533682	-0.269288	-0.149796
C325	C	-0.226322	-1.006428	-0.198979
C326	C	0.023678	-0.756428	0.051021
C327	C	0.273678	-0.506428	0.301021
C328	C	0.523678	-0.256428	0.551021
C329	C	-0.223605	-1.009874	-0.121063
C330	C	0.026395	-0.759874	0.128937
C331	C	0.276395	-0.509874	0.378937
C332	C	0.526395	-0.259874	0.628937
H333	H	-0.282134	-0.269644	-0.311080
H334	H	-0.032134	-0.019644	-0.061080
H335	H	0.217866	0.230356	0.188920
H336	H	0.467866	0.480356	0.438920
Cl337	Cl	-0.176209	-0.524400	-0.460158
Cl338	Cl	0.073791	-0.274400	-0.210158
Cl339	Cl	0.323791	-0.024400	0.039842
Cl340	Cl	0.573791	0.225600	0.289842
H341	H	-0.674524	-1.130320	-0.260485
H342	H	-0.424524	-0.880320	-0.010485
H343	H	-0.174524	-0.630320	0.239515
H344	H	0.075476	-0.380320	0.489515
Cl345	Cl	-0.319163	-0.886679	-0.628106
Cl346	Cl	-0.069163	-0.636679	-0.378106
Cl347	Cl	0.180837	-0.386679	-0.128106
Cl348	Cl	0.430837	-0.136679	0.121894
H349	H	-0.302374	-0.602331	-0.282525
H350	H	-0.052374	-0.352331	-0.032525
H351	H	0.197626	-0.102331	0.217475
H352	H	0.447626	0.147669	0.467475
Cl353	Cl	-0.784393	-1.151095	-0.241515
Cl354	Cl	-0.534393	-0.901095	0.008485
Cl355	Cl	-0.284393	-0.651095	0.258485
Cl356	Cl	-0.034393	-0.401095	0.508485
Cl357	Cl	-0.139942	-1.117791	-0.969601
Cl358	Cl	0.110058	-0.867791	-0.719601
Cl359	Cl	0.360058	-0.617791	-0.469601
Cl360	Cl	0.610058	-0.367791	-0.219601
H361	H	-0.938919	-0.913926	-0.458969
H362	H	-0.688919	-0.663926	-0.208969
H363	H	-0.438919	-0.413926	0.041031
H364	H	-0.188919	-0.163926	0.291031
Cl365	Cl	-0.288472	-0.473616	-0.302099
Cl366	Cl	-0.038472	-0.223616	-0.052099
Cl367	Cl	0.211528	0.026384	0.197901
Cl368	Cl	0.461528	0.276384	0.447901
Cl369	Cl	-0.425741	-0.892967	-0.477866
Cl370	Cl	-0.175741	-0.642967	-0.227866
Cl371	Cl	0.074259	-0.392967	0.022134
Cl372	Cl	0.324259	-0.142967	0.272134
H373	H	-0.160260	-1.091573	-1.117787
H374	H	0.089740	-0.841573	-0.867787
H375	H	0.339740	-0.591573	-0.617787
H376	H	0.589740	-0.341573	-0.367787
Cl377	Cl	-0.802996	-0.846386	-0.520834
Cl378	Cl	-0.552996	-0.596386	-0.270834
Cl379	Cl	-0.302996	-0.346386	-0.020834
Cl380	Cl	-0.052996	-0.096386	0.229166
H381	H	-0.286508	-0.928753	-1.110741
H382	H	-0.036508	-0.678753	-0.860741
H383	H	0.213492	-0.428753	-0.610741
H384	H	0.463492	-0.178753	-0.360741
Cl385	Cl	-0.412852	-1.104126	-0.284316
Cl386	Cl	-0.162852	-0.854126	-0.034316
Cl387	Cl	0.087148	-0.604126	0.215684
Cl388	Cl	0.337148	-0.354126	0.465684
H389	H	-0.282138	-0.934411	-0.977922
H390	H	-0.032138	-0.684411	-0.727922
H391	H	0.217862	-0.434411	-0.477922
H392	H	0.467862	-0.184411	-0.227922
Cl393	Cl	-0.152712	-0.245797	-0.493264
Cl394	Cl	0.097288	0.004203	-0.243264
Cl395	Cl	0.347288	0.254203	0.006736
Cl396	Cl	0.597288	0.504203	0.256736
H397	H	-0.525257	-1.083477	-0.303331
H398	H	-0.275257	-0.833477	-0.053331
H399	H	-0.025257	-0.583477	0.196669
H400	H	0.224743	-0.333477	0.446669
H401	H	-0.308660	-0.900210	-0.778013
H402	H	-0.058660	-0.650210	-0.528013
H403	H	0.191340	-0.400210	-0.278013
H404	H	0.441340	-0.150210	-0.028013
Cl405	Cl	-0.291712	-0.419518	-0.297524
Cl406	Cl	-0.041712	-0.169518	-0.047524
Cl407	Cl	0.208288	0.080482	0.202476
Cl408	Cl	0.458288	0.330482	0.452476
H409	H	-0.298333	-0.735169	-0.288196
H410	H	-0.048333	-0.485169	-0.038196
H411	H	0.201667	-0.235169	0.211804
H412	H	0.451667	0.014831	0.461804
Cl413	Cl	-0.162101	-1.089252	-0.636872
Cl414	Cl	0.087899	-0.839252	-0.386872
Cl415	Cl	0.337899	-0.589252	-0.136872
Cl416	Cl	0.587899	-0.339252	0.113128
H417	H	-0.182553	-0.728367	-0.451182
H418	H	0.067447	-0.478367	-0.201182
H419	H	0.317447	-0.228367	0.048818
H420	H	0.567447	0.021633	0.298818
Cl421	Cl	-0.167561	-1.082242	-0.802121
Cl422	Cl	0.082439	-0.832242	-0.552121
Cl423	Cl	0.332439	-0.582242	-0.302121
Cl424	Cl	0.582439	-0.332242	-0.052121
H425	H	-0.187006	-1.057086	-0.871566
H426	H	0.062994	-0.807086	-0.621566
H427	H	0.312994	-0.557086	-0.371566
H428	H	0.562994	-0.307086	-0.121566
H429	H	-0.928549	-1.083663	-0.303393
H430	H	-0.678549	-0.833663	-0.053393
H431	H	-0.428549	-0.583663	0.196607
H432	H	-0.178549	-0.333663	0.446607
H433	H	-1.027614	-1.083706	-0.303416
H434	H	-0.777614	-0.833706	-0.053416
H435	H	-0.527614	-0.583706	0.196584
H436	H	-0.277614	-0.333706	0.446584
Cl437	Cl	-0.172957	-0.578495	-0.464719
Cl438	Cl	0.077043	-0.328495	-0.214719
Cl439	Cl	0.327043	-0.078495	0.035281
Cl440	Cl	0.577043	0.171505	0.285281
H441	H	-0.162311	-0.395683	-0.479729
H442	H	0.087689	-0.145683	-0.229729
H443	H	0.337689	0.104317	0.020271
H444	H	0.587689	0.354317	0.270271
Cl445	Cl	-0.293483	-0.919782	-0.906760
Cl446	Cl	-0.043483	-0.669782	-0.656760
Cl447	Cl	0.206517	-0.419782	-0.406760
Cl448	Cl	0.456517	-0.169782	-0.156760
H449	H	-1.037968	-0.913965	-0.458975
H450	H	-0.787968	-0.663965	-0.208975
H451	H	-0.537968	-0.413965	0.041025
H452	H	-0.287968	-0.163965	0.291025
H453	H	-0.690593	-0.867053	-0.501817
H454	H	-0.440593	-0.617053	-0.251817
H455	H	-0.190593	-0.367053	-0.001817
H456	H	0.059407	-0.117053	0.248183
H457	H	-0.535635	-0.913734	-0.458903
H458	H	-0.285635	-0.663734	-0.208903
H459	H	-0.035635	-0.413734	0.041097
H460	H	0.214365	-0.163734	0.291097
