data_functionalizedCrystal
_audit_creation_method	'MofGen! by Chris Wilmer'
_symmetry_space_group_name_H-M	'P1'
_symmetry_Int_Tables_number	1
_symmetry_cell_setting	triclinic
loop_
_symmetry_equiv_pos_as_xyz
  x,y,z
_cell_length_a	12.759395
_cell_length_b	16.959454
_cell_length_c	12.759387
_cell_angle_alpha	90.031237
_cell_angle_beta	90.018815
_cell_angle_gamma	90.021612
loop_
_atom_site_label
_atom_site_type_symbol
_atom_site_fract_x
_atom_site_fract_y
_atom_site_fract_z
Zn1	Zn	1.606212	-0.314598	0.594010
Zn2	Zn	1.606091	-0.446801	0.418333
Zn3	Zn	1.430515	-0.314644	0.418347
Zn4	Zn	1.430486	-0.446742	0.593972
O5	O	1.518326	-0.380697	0.506166
O6	O	1.753217	-0.332141	0.570716
O7	O	1.582762	-0.429314	0.271314
O8	O	1.453885	-0.204027	0.441671
O9	O	1.753128	-0.429270	0.441647
O10	O	1.582968	-0.203994	0.570730
O11	O	1.453768	-0.332219	0.271324
O12	O	1.283490	-0.332162	0.441634
O13	O	1.453835	-0.429169	0.740998
O14	O	1.283469	-0.429214	0.570665
O15	O	1.582940	-0.332084	0.741026
O16	O	1.582734	-0.557404	0.441610
O17	O	1.453718	-0.557361	0.570651
C18	C	1.245359	-0.380687	0.506148
C19	C	1.128582	-0.380702	0.506165
C20	C	1.128598	-0.481926	0.640307
C21	C	1.073745	-0.532544	0.707381
C22	C	0.964024	-0.532553	0.707394
C23	C	0.909152	-0.481938	0.640328
C24	C	0.964005	-0.431320	0.573254
C25	C	1.073729	-0.431317	0.573246
C26	C	0.963989	-0.330093	0.439118
C27	C	1.073711	-0.330086	0.439098
C28	C	0.909117	-0.279478	0.372052
C29	C	0.963970	-0.228862	0.304971
C30	C	1.073698	-0.228855	0.304960
C31	C	1.128563	-0.279468	0.372024
C32	C	1.518238	-0.586063	0.506148
C33	C	1.518297	-0.673919	0.506175
C34	C	1.451245	-1.045402	0.573350
C35	C	1.585700	-1.045388	0.439088
C36	C	1.585663	-0.962842	0.439078
C37	C	1.518415	-0.921572	0.506205
C38	C	1.451204	-0.962849	0.573340
C39	C	1.652866	-0.921559	0.371936
C40	C	1.652831	-0.839008	0.371923
C41	C	1.585588	-0.797737	0.439055
C42	C	1.518374	-0.839019	0.506195
C43	C	1.451126	-0.797749	0.573321
C44	C	1.383917	-0.839030	0.640466
C45	C	1.383960	-0.921578	0.640473
C46	C	1.585545	-0.715189	0.439049
C47	C	1.451085	-0.715196	0.573311
C48	C	1.792359	-0.380707	0.506184
C49	C	1.909136	-0.380711	0.506192
C50	C	1.518397	-0.380615	0.780199
C51	C	1.518428	-0.380580	0.896976
C52	C	1.518443	-0.174528	0.506207
C53	C	1.518493	-0.086672	0.506224
C54	C	1.518316	-0.380721	0.233198
C55	C	1.518489	-0.380533	0.116422
C56	C	1.384114	-0.279468	0.897006
C57	C	1.316977	-0.228896	0.951882
C58	C	1.317008	-0.228868	1.061603
C59	C	1.384182	-0.279418	1.116452
C60	C	1.451320	-0.329990	1.061576
C61	C	1.451283	-0.330011	0.951852
C62	C	1.585626	-0.431105	1.061546
C63	C	1.585602	-0.431130	0.951825
C64	C	1.652800	-0.481655	1.116395
C65	C	1.719945	-0.532224	1.061519
C66	C	1.719912	-0.532250	0.951791
C67	C	1.652739	-0.481702	0.896949
H68	H	1.118353	-0.187630	0.250347
O69	O	1.235181	-0.482002	0.640448
C70	C	1.271849	-0.537547	0.713994
H71	H	1.208648	-0.548674	0.775367
H72	H	1.345292	-0.513739	0.753901
H73	H	1.291259	-0.595143	0.672189
H74	H	1.640444	-1.078994	0.384431
O75	O	1.235146	-0.279319	0.372020
C76	C	1.271848	-0.203594	0.399211
H77	H	1.208632	-0.158049	0.381374
H78	H	1.345243	-0.189496	0.351855
H79	H	1.291347	-0.202003	0.486389
O80	O	1.318745	-0.798900	0.705782
C81	C	1.378505	-0.751063	0.773656
H82	H	1.461259	-0.775894	0.780224
H83	H	1.340465	-0.750096	0.854477
H84	H	1.382116	-0.688519	0.741153
O85	O	1.386073	-1.085462	0.638722
C86	C	1.408951	-1.065206	0.743449
H87	H	1.492868	-1.042462	0.748820
H88	H	1.399902	-1.119472	0.795358
H89	H	1.352583	-1.017308	0.770852
O90	O	1.251938	-0.179705	1.115030
C91	C	1.311813	-0.128633	1.178494
H92	H	1.391420	-0.156515	1.194917
H93	H	1.269055	-0.118021	1.255657
H94	H	1.323379	-0.070066	1.136229
H95	H	0.819811	-0.481943	0.640354
H96	H	1.118434	-0.573753	0.761987
O97	O	1.385910	-0.675073	0.638632
C98	C	1.445663	-0.627239	0.706514
H99	H	1.528420	-0.652064	0.713077
H100	H	1.407623	-0.626284	0.787335
H101	H	1.449265	-0.564691	0.674022
O102	O	1.318787	-0.961643	0.705837
C103	C	1.341659	-0.941402	0.810569
H104	H	1.425576	-0.918658	0.815950
H105	H	1.332608	-0.995674	0.862465
H106	H	1.285290	-0.893508	0.837982
O107	O	1.718209	-0.961718	0.306835
C108	C	1.786046	-1.009464	0.366639
H109	H	1.792620	-0.984539	0.449375
H110	H	1.866872	-1.010445	0.328609
H111	H	1.753505	-1.072016	0.370292
O112	O	1.785302	-0.581210	1.114844
C113	C	1.853184	-0.536201	1.178356
H114	H	1.859709	-0.473955	1.145312
H115	H	1.934019	-0.564796	1.179602
H116	H	1.820718	-0.533458	1.261508
H117	H	1.707557	-0.805403	0.317251
O118	O	1.650767	-0.675175	0.373684
C119	C	1.627844	-0.695392	0.268955
H120	H	1.587488	-0.755352	0.266751
H121	H	1.703690	-0.698194	0.221903
H122	H	1.573821	-0.648979	0.233524
O123	O	1.383922	-0.279417	0.790423
C124	C	1.310262	-0.223942	0.753780
H125	H	1.248904	-0.212850	0.817010
H126	H	1.270357	-0.247804	0.680364
H127	H	1.351960	-0.166317	0.734334
O128	O	1.652701	-0.481873	0.790366
C129	C	1.625623	-0.557628	0.753687
H130	H	1.643563	-0.603145	0.816903
H131	H	1.672973	-0.571702	0.680275
H132	H	1.538440	-0.559296	0.734223
H133	H	0.819776	-0.279486	0.372072
H134	H	1.262282	-0.187741	0.907212
O135	O	1.384402	-0.279386	1.223035
C136	C	1.485110	-0.259065	1.259703
H137	H	1.545601	-0.272593	1.196473
H138	H	1.503782	-0.294698	1.333101
H139	H	1.487384	-0.193475	1.279185
H140	H	0.919363	-0.573767	0.762017
H141	H	0.919285	-0.187651	0.250376
O142	O	1.652925	-0.481498	1.222978
C143	C	1.679948	-0.405730	1.259650
H144	H	1.725754	-0.373078	1.196426
H145	H	1.730345	-0.411374	1.333054
H146	H	1.605598	-0.371471	1.279126
O147	O	1.785226	-0.581404	0.898650
C148	C	1.844493	-0.626027	0.970593
H149	H	1.848178	-0.593631	1.048816
H150	H	1.927255	-0.634483	0.938894
H151	H	1.805972	-0.686048	0.982245
