data_functionalizedCrystal
_audit_creation_method	'MofGen! by Chris Wilmer'
_symmetry_space_group_name_H-M	'P1'
_symmetry_Int_Tables_number	1
_symmetry_cell_setting	triclinic
loop_
_symmetry_equiv_pos_as_xyz
  x,y,z
_cell_length_a	16.992694
_cell_length_b	16.109301
_cell_length_c	15.186229
_cell_angle_alpha	89.986602
_cell_angle_beta	90.001788
_cell_angle_gamma	92.935148
loop_
_atom_site_label
_atom_site_type_symbol
_atom_site_fract_x
_atom_site_fract_y
_atom_site_fract_z
O1	O	1.040349	-0.176298	0.073123
O2	O	0.812064	-0.174364	0.073149
O3	O	0.932478	-0.054718	0.073126
O4	O	0.919936	-0.295943	0.073146
O5	O	0.932462	-0.054696	-0.073331
O6	O	0.812048	-0.174342	-0.073308
O7	O	1.040333	-0.176276	-0.073334
Zn8	Zn	0.926188	-0.175306	-0.096574
Zn9	Zn	0.926209	-0.175334	0.096389
O10	O	0.919919	-0.295921	-0.073312
C11	C	0.782844	-0.171865	-0.000076
C12	C	0.695802	-0.164441	-0.000067
C13	C	0.931962	-0.023699	-0.000103
C14	C	0.930439	0.068698	-0.000104
N15	N	0.926179	-0.175286	-0.228267
C16	C	0.645543	-0.236067	-0.000062
C17	C	0.563758	-0.229087	-0.000074
C18	C	0.532234	-0.150480	-0.000086
C19	C	0.582499	-0.078849	-0.000094
C20	C	0.664282	-0.085830	-0.000087
C21	C	0.288644	-0.121548	-0.000112
C22	C	0.206854	-0.114572	-0.000116
C23	C	0.188119	-0.264811	-0.000098
C24	C	0.269904	-0.271785	-0.000086
C25	C	0.320163	-0.200154	-0.000099
N26	N	0.448637	-0.143344	-0.000096
N27	N	0.403758	-0.207291	-0.000095
C28	C	1.069553	-0.178775	-0.000107
C29	C	1.156595	-0.186198	-0.000111
C30	C	0.920435	-0.326941	-0.000081
C31	C	0.921959	-0.419338	-0.000074
C32	C	0.998348	0.286439	-0.000097
C33	C	0.996911	0.373256	-0.000090
C34	C	0.854044	0.362915	-0.000077
C35	C	0.855482	0.276100	-0.000078
C36	C	0.927636	0.237865	-0.000093
C37	C	0.924761	0.411496	-0.000084
C38	C	0.923202	0.505626	-0.000076
C39	C	0.929196	0.143729	-0.000099
C40	C	0.878665	-0.121712	-0.546218
C41	C	0.878659	-0.121700	-0.454028
C42	C	0.973744	-0.228923	-0.453974
C43	C	0.973754	-0.228931	-0.546162
C44	C	0.926210	-0.175327	-0.592281
C45	C	0.926193	-0.175307	-0.407904
C46	C	0.926186	-0.175293	-0.307948
C47	C	0.926218	-0.175339	-0.692244
N48	N	0.926225	-0.175348	0.228082
H49	H	0.671204	-0.300077	-0.000052
N50	N	1.025058	-0.286740	-0.595853
H51	H	1.055176	-0.320695	-0.552649
H52	H	0.990883	-0.325101	-0.634107
N53	N	0.776225	0.404158	-0.000080
H54	H	0.731648	0.360210	-0.000076
H55	H	0.772518	0.439943	0.054212
N56	N	0.779211	0.223701	-0.000067
H57	H	0.733284	0.261095	-0.000064
H58	H	0.776692	0.187466	-0.054360
N59	N	0.718489	-0.008573	-0.000097
H60	H	0.708354	0.025477	0.054189
H61	H	0.775060	-0.024988	-0.000129
H62	H	0.522840	-0.287413	-0.000069
H63	H	0.556826	-0.014846	-0.000116
N64	N	0.827395	-0.063894	-0.595963
H65	H	0.797278	-0.029925	-0.552790
H66	H	0.861599	-0.025546	-0.634218
N67	N	0.827382	-0.063870	-0.404344
H68	H	0.797268	-0.029915	-0.447552
H69	H	0.789041	-0.097546	-0.366086
H70	H	0.295565	-0.335795	-0.000067
H71	H	1.054491	0.412802	-0.000092
H72	H	0.147190	-0.323129	-0.000090
H73	H	0.329554	-0.063220	-0.000123
H74	H	1.057100	0.255311	-0.000107
N75	N	0.172850	-0.029785	-0.000123
H76	H	0.217097	0.014534	-0.000130
H77	H	0.139322	-0.023613	-0.054416
N78	N	1.025021	-0.286737	-0.404230
H79	H	1.017800	-0.278599	-0.338839
H80	H	1.009519	-0.346167	-0.420327
