data_functionalizedCrystal
_audit_creation_method	'MofGen! by Chris Wilmer'
_symmetry_space_group_name_H-M	'P1'
_symmetry_Int_Tables_number	1
_symmetry_cell_setting	triclinic
loop_
_symmetry_equiv_pos_as_xyz
  x,y,z
_cell_length_a	19.188900
_cell_length_b	23.532407
_cell_length_c	17.666332
_cell_angle_alpha	89.988854
_cell_angle_beta	90.017738
_cell_angle_gamma	97.009417
loop_
_atom_site_label
_atom_site_type_symbol
_atom_site_fract_x
_atom_site_fract_y
_atom_site_fract_z
O1	O	-0.925936	0.071020	-0.063103
O2	O	-0.592603	0.404354	0.270231
O3	O	-0.259270	0.737687	0.603564
O4	O	-0.722591	0.080610	-0.063073
O5	O	-0.389258	0.413943	0.270260
O6	O	-0.055925	0.747276	0.603594
O7	O	-0.830396	-0.007104	-0.063075
O8	O	-0.497062	0.326229	0.270258
O9	O	-0.163729	0.659563	0.603592
O10	O	-0.818132	0.158734	-0.063101
O11	O	-0.484799	0.492068	0.270232
O12	O	-0.151465	0.825401	0.603566
O13	O	-0.830377	-0.007109	0.062822
O14	O	-0.497044	0.326225	0.396155
O15	O	-0.163710	0.659558	0.729488
O16	O	-0.722573	0.080605	0.062824
O17	O	-0.389239	0.413938	0.396157
O18	O	-0.055906	0.747272	0.729490
O19	O	-0.925918	0.071016	0.062794
O20	O	-0.592584	0.404349	0.396127
O21	O	-0.259251	0.737682	0.729461
Cu22	Cu	-0.824243	0.075810	0.074304
Cu23	Cu	-0.490910	0.409143	0.407638
Cu24	Cu	-0.157577	0.742477	0.740971
Cu25	Cu	-0.824266	0.075816	-0.074583
Cu26	Cu	-0.490932	0.409149	0.258750
Cu27	Cu	-0.157599	0.742482	0.592083
O28	O	-0.818113	0.158730	0.062796
O29	O	-0.484780	0.492063	0.396129
O30	O	-0.151447	0.825396	0.729463
C31	C	-0.696572	0.080300	-0.000121
C32	C	-0.363238	0.413633	0.333213
C33	C	-0.029905	0.746966	0.666546
C34	C	-0.619069	0.079376	-0.000109
C35	C	-0.285736	0.412709	0.333225
C36	C	0.047598	0.746043	0.666558
C37	C	-0.582689	0.078935	-0.068736
C38	C	-0.249355	0.412268	0.264597
C39	C	0.083978	0.745602	0.597931
C40	C	-0.509868	0.078061	-0.068744
C41	C	-0.176534	0.411394	0.264590
C42	C	0.156799	0.744728	0.597923
C43	C	-0.473432	0.077616	-0.000120
C44	C	-0.140098	0.410950	0.333213
C45	C	0.193235	0.744283	0.666547
C46	C	-0.509820	0.078061	0.068516
C47	C	-0.176487	0.411394	0.401850
C48	C	0.156847	0.744727	0.735183
C49	C	-0.582639	0.078941	0.068522
C50	C	-0.249305	0.412274	0.401855
C51	C	0.084028	0.745607	0.735189
N52	N	-0.364511	0.043824	0.050957
N53	N	-0.031178	0.377157	0.384291
N54	N	0.302155	0.710490	0.717624
N55	N	-0.295337	0.042986	0.050947
N56	N	0.037996	0.376320	0.384281
N57	N	0.371330	0.709653	0.717614
C58	C	-0.254033	0.074967	-0.000133
C59	C	0.079300	0.408300	0.333201
C60	C	0.412634	0.741633	0.666534
N61	N	-0.284518	0.107808	-0.051214
N62	N	0.048815	0.441141	0.282120
N63	N	0.382149	0.774475	0.615453
N64	N	-0.353699	0.108643	-0.051206
N65	N	-0.020366	0.441976	0.282127
N66	N	0.312968	0.775309	0.615461
C67	C	-0.394472	0.076663	-0.000118
C68	C	-0.061139	0.409996	0.333215
C69	C	0.272195	0.743329	0.666548
C70	C	-0.138692	0.073578	-0.068773
C71	C	0.194642	0.406912	0.264560
C72	C	0.527975	0.740245	0.597894
C73	C	-0.065869	0.072708	-0.068778
C74	C	0.267465	0.406041	0.264556
C75	C	0.600798	0.739374	0.597889
C76	C	-0.065823	0.072702	0.068485
C77	C	0.267510	0.406035	0.401818
C78	C	0.600843	0.739369	0.735151
C79	C	-0.138644	0.073578	0.068487
C80	C	0.194689	0.406912	0.401821
C81	C	0.528023	0.740245	0.735154
C82	C	-0.175074	0.074014	-0.000144
C83	C	0.158259	0.407347	0.333190
C84	C	0.491592	0.740680	0.666523
C85	C	-0.830074	-0.028323	-0.000125
C86	C	-0.496741	0.305010	0.333209
C87	C	-0.163407	0.638344	0.666542
C88	C	-0.829135	-0.091542	-0.000119
C89	C	-0.495802	0.241791	0.333215
C90	C	-0.162468	0.575125	0.666548
C91	C	-0.887042	-0.490527	-0.000169
C92	C	-0.553709	-0.157194	0.333165
C93	C	-0.220376	0.176139	0.666498
C94	C	-0.886170	-0.549929	-0.000174
C95	C	-0.552837	-0.216596	0.333159
C96	C	-0.219503	0.116737	0.666492
O97	O	-0.939851	-0.586565	-0.000210
O98	O	-0.606517	-0.253231	0.333123
O99	O	-0.273184	0.080102	0.666457
N100	N	-0.822080	-0.572686	-0.000164
N101	N	-0.488747	-0.239353	0.333169
N102	N	-0.155414	0.093981	0.666502
C103	C	-0.758859	-0.536037	-0.000156
C104	C	-0.425526	-0.202704	0.333177
C105	C	-0.092192	0.130630	0.666510
O106	O	-0.704266	-0.560848	-0.000149
O107	O	-0.370932	-0.227514	0.333184
O108	O	-0.037599	0.105819	0.666517
C109	C	-0.759732	-0.476636	-0.000156
C110	C	-0.426399	-0.143303	0.333177
C111	C	-0.093065	0.190031	0.666510
C112	C	-0.823826	-0.453883	-0.000159
C113	C	-0.490492	-0.120550	0.333175
C114	C	-0.157159	0.212784	0.666508
C115	C	-0.951131	-0.467774	-0.000172
C116	C	-0.617798	-0.134440	0.333162
C117	C	-0.284464	0.198893	0.666495
C118	C	-0.952003	-0.408376	-0.000165
C119	C	-0.618669	-0.075042	0.333169
C120	C	-0.285336	0.258291	0.666502
C121	C	-0.888786	-0.371731	-0.000155
C122	C	-0.555453	-0.038398	0.333179
C123	C	-0.222119	0.294935	0.666512
C124	C	-0.824698	-0.394485	-0.000151
C125	C	-0.491364	-0.061152	0.333182
C126	C	-0.158031	0.272182	0.666515
C127	C	-0.696511	-0.439988	-0.000154
C128	C	-0.363178	-0.106655	0.333179
C129	C	-0.029844	0.226678	0.666513
C130	C	-0.697390	-0.380584	-0.000154
C131	C	-0.364056	-0.047251	0.333179
C132	C	-0.030723	0.286083	0.666512
C133	C	-0.761483	-0.357831	-0.000156
C134	C	-0.428150	-0.024498	0.333177
C135	C	-0.094817	0.308836	0.666510
C136	C	-0.762353	-0.298443	-0.000134
C137	C	-0.429020	0.034890	0.333199
C138	C	-0.095686	0.368224	0.666532
N139	N	-0.826443	-0.275686	-0.000144
N140	N	-0.493109	0.057647	0.333189
N141	N	-0.159776	0.390980	0.666522
C142	C	-0.889659	-0.312331	-0.000154
C143	C	-0.556326	0.021003	0.333179
C144	C	-0.222992	0.354336	0.666512
C145	C	-0.757031	-0.660783	-0.000158
C146	C	-0.423697	-0.327450	0.333175
C147	C	-0.090364	0.005883	0.666508
C148	C	-0.756157	-0.720183	-0.000153
C149	C	-0.422823	-0.386850	0.333180
C150	C	-0.089490	-0.053516	0.666514
C151	C	-0.883468	-0.734071	-0.000172
C152	C	-0.550135	-0.400738	0.333161
C153	C	-0.216802	-0.067405	0.666494
C154	C	-0.884341	-0.674670	-0.000172
C155	C	-0.551008	-0.341337	0.333161
C156	C	-0.217675	-0.008004	0.666495
C157	C	-0.821120	-0.638027	-0.000168
C158	C	-0.487787	-0.304693	0.333165
C159	C	-0.154453	0.028640	0.666499
C160	C	-0.891485	-0.187590	-0.000139
C161	C	-0.558152	0.145743	0.333194
C162	C	-0.224819	0.479077	0.666528
C163	C	-0.892352	-0.128186	-0.000129
C164	C	-0.559018	0.205147	0.333205
C165	C	-0.225685	0.538480	0.666538
C166	C	-0.765041	-0.114303	-0.000114
C167	C	-0.431707	0.219030	0.333220
C168	C	-0.098374	0.552363	0.666553
C169	C	-0.764174	-0.173702	-0.000120
C170	C	-0.430841	0.159631	0.333214
C171	C	-0.097507	0.492965	0.666547
C172	C	-0.827402	-0.210344	-0.000135
C173	C	-0.494069	0.122989	0.333198
C174	C	-0.160735	0.456322	0.666532
O175	O	-0.708701	-0.261773	-0.000102
O176	O	-0.375367	0.071560	0.333232
O177	O	-0.042034	0.404894	0.666565
O178	O	-0.944243	-0.287512	-0.000171
O179	O	-0.610910	0.045822	0.333162
O180	O	-0.277577	0.379155	0.666495
C181	C	0.048063	0.071330	-0.000154
C182	C	0.381397	0.404663	0.333179
C183	C	0.714730	0.737996	0.666513
C184	C	-0.029438	0.072264	-0.000153
C185	C	0.303896	0.405598	0.333180
C186	C	0.637229	0.738931	0.666514
C187	C	-0.818435	0.179949	-0.000156
C188	C	-0.485102	0.513282	0.333177
C189	C	-0.151768	0.846615	0.666510
C190	C	-0.819374	0.243168	-0.000167
C191	C	-0.486041	0.576501	0.333166
C192	C	-0.152707	0.909834	0.666500
N193	N	-0.824233	0.075806	0.179024
N194	N	-0.490900	0.409139	0.512357
N195	N	-0.157566	0.742473	0.845690
N196	N	-0.824282	0.075815	-0.179303
N197	N	-0.490948	0.409149	0.154031
N198	N	-0.157615	0.742482	0.487364
C199	C	-0.871984	0.036985	0.218633
C200	C	-0.538651	0.370318	0.551966
C201	C	-0.205317	0.703652	0.885299
C202	C	-0.871988	0.036982	0.297880
C203	C	-0.538655	0.370316	0.631213
C204	C	-0.205321	0.703649	0.964547
C205	C	-0.824248	0.075810	0.337516
C206	C	-0.490914	0.409143	0.670849
C207	C	-0.157581	0.742477	1.004182
C208	C	-0.776488	0.114634	0.297897
C209	C	-0.443154	0.447967	0.631231
C210	C	-0.109821	0.781301	0.964564
C211	C	-0.776480	0.114632	0.218651
C212	C	-0.443147	0.447965	0.551985
C213	C	-0.109814	0.781298	0.885318
N214	N	-0.815010	0.126226	0.461927
N215	N	-0.481677	0.459559	0.795261
N216	N	-0.148344	0.792893	1.128594
N217	N	-0.815022	0.126226	0.537208
N218	N	-0.481688	0.459560	0.870541
N219	N	-0.148355	0.792893	1.203874
C220	C	-0.824266	0.075818	0.576280
C221	C	-0.490933	0.409151	0.909613
C222	C	-0.157599	0.742485	1.242946
N223	N	-0.833513	0.025408	0.537227
N224	N	-0.500179	0.358741	0.870561
N225	N	-0.166846	0.692075	1.203894
N226	N	-0.833505	0.025408	0.461940
N227	N	-0.500172	0.358742	0.795273
N228	N	-0.166838	0.692075	1.128607
C229	C	-0.824250	0.075817	0.423445
C230	C	-0.490917	0.409150	0.756778
C231	C	-0.157583	0.742483	1.090112
C232	C	-0.872024	0.036991	0.701818
C233	C	-0.538691	0.370324	1.035151
C234	C	-0.205357	0.703658	1.368485
C235	C	-0.872023	0.036988	0.781067
C236	C	-0.538690	0.370321	1.114400
C237	C	-0.205357	0.703654	1.447734
C238	C	-0.776526	0.114644	0.781083
C239	C	-0.443193	0.447977	1.114416
C240	C	-0.109860	0.781311	1.447749
C241	C	-0.776524	0.114643	0.701835
C242	C	-0.443190	0.447976	1.035169
C243	C	-0.109857	0.781309	1.368502
C244	C	-0.824276	0.075817	0.662208
C245	C	-0.490943	0.409150	0.995541
C246	C	-0.157610	0.742483	1.328874
H247	H	-0.944547	-0.109664	-0.000129
H248	H	-0.611213	0.223669	0.333205
H249	H	-0.277880	0.557002	0.666538
H250	H	-0.480241	0.077703	-0.124630
H251	H	-0.146908	0.411036	0.208703
H252	H	0.186426	0.744369	0.542037
Cl253	Cl	-0.716446	0.163440	0.168854
Cl254	Cl	-0.383113	0.496773	0.502187
Cl255	Cl	-0.049780	0.830106	0.835520
H256	H	-0.737643	0.146257	0.669583
H257	H	-0.404310	0.479590	1.002917
H258	H	-0.070976	0.812923	1.336250
H259	H	-0.910865	0.005369	0.186370
H260	H	-0.577532	0.338703	0.519703
H261	H	-0.244198	0.672036	0.853037
Cl262	Cl	-0.932024	-0.011825	0.347683
Cl263	Cl	-0.598691	0.321508	0.681016
Cl264	Cl	-0.265357	0.654842	1.014349
Cl265	Cl	-0.020024	0.072149	0.154756
Cl266	Cl	0.313309	0.405482	0.488089
Cl267	Cl	0.646643	0.738816	0.821422
H268	H	-0.612259	0.079300	0.124408
H269	H	-0.278926	0.412634	0.457742
H270	H	0.054408	0.745967	0.791075
H271	H	-0.612346	0.079290	-0.124621
H272	H	-0.279012	0.412623	0.208712
H273	H	0.054321	0.745956	0.542046
H274	H	-0.910905	0.005375	0.669552
H275	H	-0.577572	0.338708	1.002885
H276	H	-0.244238	0.672042	1.336219
H277	H	-0.703965	-0.738703	-0.000138
H278	H	-0.370632	-0.405369	0.333195
H279	H	-0.037299	-0.072036	0.666529
H280	H	-0.168266	0.073934	0.124371
H281	H	0.165068	0.407267	0.457705
H282	H	0.498401	0.740600	0.791038
H283	H	-0.942972	-0.217418	-0.000154
H284	H	-0.609639	0.115915	0.333179
H285	H	-0.276305	0.449249	0.666512
H286	H	-0.036249	0.072352	-0.124664
H287	H	0.297085	0.405685	0.208669
H288	H	0.630418	0.739019	0.542002
Cl289	Cl	-1.032582	-0.379781	-0.000189
Cl290	Cl	-0.699249	-0.046448	0.333144
Cl291	Cl	-0.365916	0.286886	0.666478
H292	H	-0.713572	-0.084457	-0.000103
H293	H	-0.380238	0.248876	0.333231
H294	H	-0.046905	0.582210	0.666564
H295	H	-0.480149	0.077700	0.124390
H296	H	-0.146816	0.411034	0.457724
H297	H	0.186518	0.744367	0.791057
Cl298	Cl	-0.932054	-0.011823	0.830864
Cl299	Cl	-0.598721	0.321510	1.164198
Cl300	Cl	-0.265387	0.654844	1.497531
Cl301	Cl	-0.617906	-0.334521	-0.000150
Cl302	Cl	-0.284573	-0.001188	0.333183
Cl303	Cl	0.048760	0.332146	0.666516
H304	H	-0.168354	0.073939	-0.124656
H305	H	0.164980	0.407272	0.208677
H306	H	0.498313	0.740606	0.542010
H307	H	-0.737616	0.146247	0.330173
H308	H	-0.404282	0.479581	0.663506
H309	H	-0.070949	0.812914	0.996839
H310	H	-0.737653	0.146256	0.813353
H311	H	-0.404319	0.479590	1.146687
H312	H	-0.070986	0.812923	1.480020
H313	H	-0.711984	-0.192228	-0.000097
H314	H	-0.378650	0.141105	0.333236
H315	H	-0.045317	0.474439	0.666570
Cl316	Cl	-0.964919	-0.646073	-0.000176
Cl317	Cl	-0.631586	-0.312740	0.333158
Cl318	Cl	-0.298252	0.020594	0.666491
Cl319	Cl	-1.030615	-0.513831	-0.000183
Cl320	Cl	-0.697281	-0.180498	0.333150
Cl321	Cl	-0.363948	0.152836	0.666484
Cl322	Cl	-0.962941	-0.780149	-0.000190
Cl323	Cl	-0.629608	-0.446816	0.333143
Cl324	Cl	-0.296275	-0.113483	0.666476
Cl325	Cl	-0.615931	-0.468577	-0.000156
Cl326	Cl	-0.282598	-0.135244	0.333177
Cl327	Cl	0.050736	0.198090	0.666511
Cl328	Cl	-0.677544	-0.614722	-0.000145
Cl329	Cl	-0.344211	-0.281389	0.333188
Cl330	Cl	-0.010877	0.051945	0.666522
