data_functionalizedCrystal
_audit_creation_method	'MofGen! by Chris Wilmer'
_symmetry_space_group_name_H-M	'P1'
_symmetry_Int_Tables_number	1
_symmetry_cell_setting	triclinic
loop_
_symmetry_equiv_pos_as_xyz
  x,y,z
_cell_length_a	15.995350
_cell_length_b	10.723023
_cell_length_c	9.198806
_cell_angle_alpha	89.996513
_cell_angle_beta	89.999047
_cell_angle_gamma	83.979961
loop_
_atom_site_label
_atom_site_type_symbol
_atom_site_fract_x
_atom_site_fract_y
_atom_site_fract_z
O1	O	0.117432	1.655690	-0.120870
O2	O	0.128673	1.292394	-0.120875
O3	O	0.001222	1.483973	-0.120871
O4	O	0.244883	1.464111	-0.120874
O5	O	0.001221	1.483958	0.120914
O6	O	0.128673	1.292379	0.120910
O7	O	0.117431	1.655675	0.120915
Cu8	Cu	0.123052	1.474026	0.142990
Cu9	Cu	0.123052	1.474044	-0.142949
O10	O	0.244883	1.464096	0.120911
C11	C	0.127855	1.245898	0.000017
C12	C	0.125408	1.107374	0.000014
C13	C	0.124316	1.045608	0.125265
C14	C	0.121787	0.902438	0.125266
C15	C	-0.029978	1.483144	0.000019
C16	C	-0.122942	1.480683	0.000011
C17	C	-0.460741	1.471842	0.000015
C18	C	-0.414090	1.335403	-0.000529
C19	C	-0.317386	1.337865	0.000016
C20	C	-0.293155	1.476227	0.000012
C21	C	-0.333846	1.543515	0.138082
C22	C	-0.430502	1.540088	0.138197
C23	C	-0.430843	1.542923	-0.136758
C24	C	-0.333898	1.542891	-0.138582
C25	C	-0.198443	1.478713	0.000015
C26	C	-0.555453	1.469361	0.000022
C27	C	0.276082	1.464925	0.000018
C28	C	0.369047	1.467387	0.000017
C29	C	0.118249	1.702172	0.000020
C30	C	0.120696	1.840695	0.000013
N31	N	0.123051	1.474022	0.344103
N32	N	0.123047	1.474057	-0.344063
C33	C	0.069302	1.554464	0.416302
C34	C	0.069299	1.554483	0.583714
H35	H	0.125250	1.098723	0.232496
C36	C	0.120520	0.830682	0.270137
N37	N	0.119564	0.776633	0.379258
H38	H	-0.449085	1.491008	0.241409
C39	C	0.185214	1.380995	0.428029
N40	N	0.232037	1.310924	0.491239
H41	H	0.023285	1.623357	0.645802
H42	H	0.121640	0.893803	-0.107224
H43	H	-0.462026	1.643519	-0.137688
H44	H	-0.289267	1.284972	-0.098958
C45	C	0.124139	1.035627	-0.144856
N46	N	0.123185	0.981588	-0.253977
C47	C	-0.295874	1.480356	0.276894
N48	N	-0.267276	1.432776	0.381445
C49	C	0.007122	1.647465	0.332377
N50	N	-0.039718	1.717511	0.269166
H51	H	-0.433996	1.281106	0.097930
C52	C	-0.439557	1.261728	-0.134280
N53	N	-0.458747	1.206234	-0.235022
H54	H	-0.289827	1.284604	0.099157
H55	H	0.169069	1.405189	0.593858
H56	H	-0.319137	1.645166	0.143214
C57	C	-0.473293	1.675411	0.146679
N58	N	-0.505519	1.777335	0.153077
H59	H	-0.451639	1.498321	-0.241406
H60	H	-0.306932	1.493695	-0.240722
H61	H	-0.317957	1.643791	-0.146922
