data_functionalizedCrystal
_audit_creation_method	'MofGen! by Chris Wilmer'
_symmetry_space_group_name_H-M	'P1'
_symmetry_Int_Tables_number	1
_symmetry_cell_setting	triclinic
loop_
_symmetry_equiv_pos_as_xyz
  x,y,z
_cell_length_a	14.519709
_cell_length_b	15.072220
_cell_length_c	14.519731
_cell_angle_alpha	90.002099
_cell_angle_beta	83.684499
_cell_angle_gamma	90.006889
loop_
_atom_site_label
_atom_site_type_symbol
_atom_site_fract_x
_atom_site_fract_y
_atom_site_fract_z
O1	O	1.223888	0.073669	0.120884
O2	O	0.955412	0.073696	0.135120
O3	O	1.096758	0.073674	-0.006235
O4	O	1.082542	0.073691	0.262239
O5	O	1.096723	-0.073891	-0.006227
O6	O	0.955377	-0.073869	0.135128
O7	O	1.223853	-0.073896	0.120892
Zn8	Zn	1.089610	-0.097312	0.128011
Zn9	Zn	1.089656	0.097112	0.128001
O10	O	1.082507	-0.073874	0.262247
C11	C	0.921035	-0.000083	0.134461
C12	C	0.818654	-0.000073	0.132473
N13	N	1.089585	-0.230000	0.128018
C14	C	0.443757	-0.000113	0.125153
C15	C	0.548065	-0.000102	0.127186
C16	C	0.631202	-0.000092	0.128813
C17	C	0.735517	-0.000082	0.130846
C18	C	1.089654	-0.589202	0.127997
C19	C	1.013768	-0.551583	0.203379
C20	C	1.013942	-0.448757	0.203655
C21	C	1.089619	-0.410998	0.128007
C22	C	1.185881	-0.448297	0.149183
C23	C	1.185456	-0.551155	0.149719
C24	C	1.070135	-0.551306	0.031217
C25	C	1.067929	-0.448442	0.031859
C26	C	1.089605	-0.310284	0.128011
C27	C	1.089674	-0.689915	0.127995
C28	C	1.258230	-0.000115	0.121551
C29	C	1.360612	-0.000119	0.123539
C30	C	1.096075	-0.000109	-0.040591
C31	C	1.094079	-0.000109	-0.142971
N32	N	1.089688	0.229801	0.127987
C33	C	1.092457	-0.000107	-0.226115
C34	C	1.090430	-0.000100	-0.330424
C35	C	1.088822	-0.000094	-0.413563
C36	C	1.086795	-0.000089	-0.517878
C37	C	1.083191	-0.000089	0.296603
C38	C	1.085187	-0.000083	0.398983
H39	H	0.942394	-0.423540	0.191015
Br40	Br	1.162368	-0.591850	-0.062285
H41	H	1.001456	-0.577291	0.010895
H42	H	0.941988	-0.576338	0.190945
H43	H	0.997116	-0.424064	0.015793
Br44	Br	1.154055	-0.405622	-0.066042
H45	H	1.026423	-0.424140	0.275471
Br46	Br	1.034293	-0.594622	0.322409
H47	H	1.202631	-0.575134	0.220305
Br48	Br	1.282265	-0.407538	0.060117
H49	H	1.243698	-0.576039	0.096988
H50	H	1.203462	-0.422526	0.218965
