data_functionalizedCrystal
_audit_creation_method	'MofGen! by Chris Wilmer'
_symmetry_space_group_name_H-M	'P1'
_symmetry_Int_Tables_number	1
_symmetry_cell_setting	triclinic
loop_
_symmetry_equiv_pos_as_xyz
  x,y,z
_cell_length_a	13.032721
_cell_length_b	12.827893
_cell_length_c	12.827885
_cell_angle_alpha	89.980728
_cell_angle_beta	97.149035
_cell_angle_gamma	97.204267
loop_
_atom_site_label
_atom_site_type_symbol
_atom_site_fract_x
_atom_site_fract_y
_atom_site_fract_z
Zn1	Zn	-0.415987	1.544798	-0.643644
Zn2	Zn	-0.082654	1.878131	-0.310310
Zn3	Zn	0.250680	2.211465	0.023023
Zn4	Zn	-0.590766	1.522478	-0.491086
Zn5	Zn	-0.257433	1.855811	-0.157753
Zn6	Zn	0.075901	2.189145	0.175581
Zn7	Zn	-0.416038	1.370033	-0.468924
Zn8	Zn	-0.082705	1.703366	-0.135590
Zn9	Zn	0.250629	2.036700	0.197743
Zn10	Zn	-0.590688	1.347821	-0.665776
Zn11	Zn	-0.257355	1.681154	-0.332443
Zn12	Zn	0.075978	2.014487	0.000891
O13	O	-0.503370	1.446282	-0.567357
O14	O	-0.170037	1.779616	-0.234024
O15	O	0.163297	2.112949	0.099309
O16	O	-0.439183	1.688072	-0.623419
O17	O	-0.105850	2.021405	-0.290086
O18	O	0.227483	2.354739	0.043248
O19	O	-0.567642	1.502211	-0.341917
O20	O	-0.234309	1.835544	-0.008584
O21	O	0.099025	2.168878	0.324750
O22	O	-0.269794	1.411853	-0.473563
O23	O	0.063539	1.745186	-0.140230
O24	O	0.396873	2.078520	0.193103
O25	O	-0.567593	1.671673	-0.511336
O26	O	-0.234259	2.005007	-0.178002
O27	O	0.099074	2.338340	0.155331
O28	O	-0.269756	1.540252	-0.601929
O29	O	0.063577	1.873586	-0.268596
O30	O	0.396910	2.206919	0.064737
O31	O	-0.439270	1.390210	-0.325634
O32	O	-0.105937	1.723544	0.007699
O33	O	0.227397	2.056877	0.341032
O34	O	-0.439194	1.220852	-0.495024
O35	O	-0.105861	1.554185	-0.161691
O36	O	0.227472	1.887519	0.171642
O37	O	-0.567460	1.373995	-0.809070
O38	O	-0.234127	1.707328	-0.475736
O39	O	0.099207	2.040662	-0.142403
O40	O	-0.567509	1.204532	-0.639651
O41	O	-0.234176	1.537866	-0.306317
O42	O	0.099157	1.871199	0.027016
O43	O	-0.439108	1.518714	-0.792809
O44	O	-0.105774	1.852047	-0.459476
O45	O	0.227559	2.185380	-0.126142
O46	O	-0.736993	1.480672	-0.532797
O47	O	-0.403660	1.814006	-0.199463
O48	O	-0.070327	2.147339	0.133870
O49	O	-0.736936	1.352352	-0.661141
O50	O	-0.403603	1.685686	-0.327807
O51	O	-0.070269	2.019019	0.005526
C52	C	-0.503350	1.174775	-0.567335
C53	C	-0.170016	1.508108	-0.234002
C54	C	0.163317	1.841442	0.099332
C55	C	-0.503366	1.058620	-0.567353
C56	C	-0.170033	1.391953	-0.234020
C57	C	0.163300	1.725287	0.099313
C58	C	-0.439806	0.894847	-0.495910
C59	C	-0.106473	1.228180	-0.162577
C60	C	0.226860	1.561514	0.170757
C61	C	-0.439788	1.014900	-0.495889
C62	C	-0.106454	1.348233	-0.162556
C63	C	0.226879	1.681566	0.170777
C64	C	-0.774882	1.411708	-0.601798
C65	C	-0.441549	1.745042	-0.268465
C66	C	-0.108216	2.078375	0.064869
C67	C	-0.891037	1.397013	-0.616567
C68	C	-0.557703	1.730346	-0.283233
C69	C	-0.224370	2.063679	0.050100
C70	C	-0.942815	1.454008	-0.559696
C71	C	-0.609482	1.787341	-0.226363
C72	C	-0.276149	2.120674	0.106970
C73	C	-1.062867	1.438821	-0.574959
C74	C	-0.729533	1.772154	-0.241626
C75	C	-0.396200	2.105487	0.091707
C76	C	-0.230797	1.481020	-0.532805
C77	C	0.102536	1.814354	-0.199472
C78	C	0.435869	2.147687	0.133861
C79	C	-0.114643	1.495823	-0.518081
C80	C	0.218690	1.829157	-0.184748
C81	C	0.552024	2.162490	0.148586
C82	C	-0.503270	1.446366	-0.839915
C83	C	-0.169936	1.779700	-0.506582
C84	C	0.163397	2.113033	-0.173248
C85	C	-0.503227	1.446402	-0.956063
C86	C	-0.169893	1.779735	-0.622729
C87	C	0.163440	2.113069	-0.289396
C88	C	-0.503391	1.718850	-0.567381
C89	C	-0.170058	2.052183	-0.234047
C90	C	0.163276	2.385517	0.099286
C91	C	-0.503400	1.835002	-0.567391
C92	C	-0.170066	2.168335	-0.234057
C93	C	0.163267	2.501669	0.099276
C94	C	-0.439702	1.518022	-0.999800
C95	C	-0.106368	1.851355	-0.666466
C96	C	0.226965	2.184689	-0.333133
C97	C	-0.439656	1.518061	-1.119844
C98	C	-0.106323	1.851394	-0.786511
C99	C	0.227011	2.184727	-0.453178
C100	C	-0.503394	1.446269	-0.295851
C101	C	-0.170061	1.779602	0.037483
C102	C	0.163272	2.112935	0.370816
C103	C	-0.503143	1.446473	-0.179666
C104	C	-0.169809	1.779806	0.153667
C105	C	0.163524	2.113139	0.487001
H106	H	-0.557817	1.007191	-0.628551
H107	H	-0.224483	1.340525	-0.295218
H108	H	0.108850	1.673858	0.038116
O109	O	-1.055655	1.575367	-0.438618
O110	O	-0.722322	1.908701	-0.105284
O111	O	-0.388988	2.242034	0.228049
H112	H	-1.006009	1.534866	-0.379134
H113	H	-0.672675	1.868200	-0.045801
H114	H	-0.339342	2.201533	0.287533
O115	O	-0.575225	1.365214	-1.024177
O116	O	-0.241891	1.698547	-0.690844
O117	O	0.091442	2.031881	-0.357510
H118	H	-0.557313	1.285457	-1.001016
H119	H	-0.223980	1.618790	-0.667683
H120	H	0.109353	1.952123	-0.334349
H121	H	-0.557536	1.385157	-1.142030
H122	H	-0.224202	1.718490	-0.808697
H123	H	0.109131	2.051823	-0.475363
O124	O	-0.575502	0.884849	-0.648443
O125	O	-0.242169	1.218182	-0.315110
O126	O	0.091164	1.551516	0.018223
H127	H	-0.557685	0.866264	-0.728248
H128	H	-0.224352	1.199598	-0.394915
H129	H	0.108981	1.532931	-0.061581
O130	O	-0.367726	0.844998	-0.414837
O131	O	-0.034393	1.178331	-0.081504
O132	O	0.298940	1.511665	0.251830
H133	H	-0.379071	0.758524	-0.427559
H134	H	-0.045737	1.091857	-0.094226
H135	H	0.287596	1.425191	0.239107
H136	H	-0.898270	1.514051	-0.499712
H137	H	-0.564937	1.847384	-0.166378
H138	H	-0.231603	2.180718	0.166955
H139	H	-1.107411	1.378782	-0.634956
H140	H	-0.774077	1.712115	-0.301622
H141	H	-0.440744	2.045449	0.031711
H142	H	-0.385347	1.066334	-0.434689
H143	H	-0.052013	1.399667	-0.101356
H144	H	0.281320	1.733000	0.231978
H145	H	-0.935584	1.336978	-0.676559
H146	H	-0.602251	1.670312	-0.343226
H147	H	-0.268918	2.003645	-0.009892
H148	H	-0.385345	1.579306	-0.948371
H149	H	-0.052012	1.912640	-0.615038
H150	H	0.281321	2.245973	-0.281705
H151	H	-0.385273	1.579380	-1.157488
H152	H	-0.051940	1.912713	-0.824155
H153	H	0.281394	2.246047	-0.490822
