data_functionalizedCrystal
_audit_creation_method	'MofGen! by Chris Wilmer'
_symmetry_space_group_name_H-M	'P1'
_symmetry_Int_Tables_number	1
_symmetry_cell_setting	triclinic
loop_
_symmetry_equiv_pos_as_xyz
  x,y,z
_cell_length_a	9.130307
_cell_length_b	14.971486
_cell_length_c	14.971486
_cell_angle_alpha	83.614129
_cell_angle_beta	89.996495
_cell_angle_gamma	90.003437
loop_
_atom_site_label
_atom_site_type_symbol
_atom_site_fract_x
_atom_site_fract_y
_atom_site_fract_z
O1	O	0.121632	-1.186941	-0.116561
O2	O	0.621632	-0.686941	0.383439
O3	O	0.121672	-0.926541	-0.130520
O4	O	0.621672	-0.426541	0.369480
O5	O	0.121640	-1.063720	0.006659
O6	O	0.621640	-0.563720	0.506659
O7	O	0.121663	-1.049762	-0.253741
O8	O	0.621663	-0.549762	0.246259
O9	O	-0.121959	-1.063716	0.006661
O10	O	0.378041	-0.563716	0.506661
O11	O	-0.121927	-0.926536	-0.130519
O12	O	0.378073	-0.426536	0.369481
O13	O	-0.121967	-1.186937	-0.116560
O14	O	0.378033	-0.686937	0.383440
Cu15	Cu	-0.144190	-1.056736	-0.123539
Cu16	Cu	0.355810	-0.556736	0.376461
Cu17	Cu	0.143894	-1.056741	-0.123541
Cu18	Cu	0.643894	-0.556741	0.376459
O19	O	-0.121936	-1.049757	-0.253739
O20	O	0.378064	-0.549757	0.246261
C21	C	-0.000123	-0.893214	-0.129895
C22	C	0.499877	-0.393214	0.370105
C23	C	-0.000108	-0.793917	-0.128024
C24	C	0.499892	-0.293917	0.371976
C25	C	-0.000159	-1.063094	0.039985
C26	C	0.499841	-0.563094	0.539985
C27	C	-0.000157	-1.061223	0.139282
C28	C	0.499843	-0.561223	0.639282
N29	N	-0.346813	-1.056739	-0.123538
N30	N	0.153187	-0.556739	0.376462
C31	C	-0.346831	-1.178261	-0.002100
C32	C	0.153169	-0.678261	0.497900
C33	C	-0.423506	-1.239027	0.058616
C34	C	0.076494	-0.739027	0.558616
C35	C	-0.576840	-1.239036	0.058617
C36	C	-0.076840	-0.739036	0.558617
C37	C	-0.653501	-1.178270	-0.002104
C38	C	-0.153501	-0.678270	0.497896
C39	C	-0.576825	-1.117503	-0.062820
C40	C	-0.076825	-0.617503	0.437180
C41	C	-0.423488	-1.117503	-0.062816
C42	C	0.076512	-0.617503	0.437184
C43	C	-0.576807	-0.995979	-0.184251
C44	C	-0.076807	-0.495979	0.315749
C45	C	-0.423474	-0.995973	-0.184258
C46	C	0.076526	-0.495973	0.315742
C47	C	-0.653469	-0.935213	-0.244972
C48	C	-0.153469	-0.435213	0.255028
C49	C	-0.576793	-0.874449	-0.305694
C50	C	-0.076793	-0.374449	0.194306
C51	C	-0.423450	-0.874443	-0.305692
C52	C	0.076550	-0.374443	0.194308
C53	C	-0.346798	-0.935206	-0.244974
C54	C	0.153202	-0.435206	0.255026
N55	N	0.346517	-1.056746	-0.123535
N56	N	0.846517	-0.556746	0.376465
C57	C	-0.000170	-1.220263	-0.117185
C58	C	0.499830	-0.720263	0.382815
C59	C	-0.000175	-1.319561	-0.119056
C60	C	0.499825	-0.819561	0.380944
C61	C	-0.000103	-0.736692	-0.208614
C62	C	0.499897	-0.236692	0.291386
C63	C	-0.000125	-0.643392	-0.206850
C64	C	0.499875	-0.143392	0.293150
C65	C	-0.000141	-0.607320	-0.124497
C66	C	0.499859	-0.107320	0.375503
C67	C	-0.000151	-0.664552	-0.043902
C68	C	0.499849	-0.164552	0.456098
C69	C	-0.000139	-0.757850	-0.045666
C70	C	0.499861	-0.257850	0.454334
C71	C	-0.000171	-0.470090	-0.040231
C72	C	0.499829	0.029910	0.459769
C73	C	-0.000180	-0.376786	-0.038466
C74	C	0.499820	0.123214	0.461534
C75	C	-0.000157	-0.355632	-0.201415
C76	C	0.499843	0.144368	0.298585
C77	C	-0.000145	-0.448930	-0.203179
C78	C	0.499855	0.051070	0.296821
C79	C	-0.000152	-0.506156	-0.122584
C80	C	0.499848	-0.006156	0.377416
C81	C	-0.000134	-1.050384	-0.287065
C82	C	0.499866	-0.550384	0.212935
C83	C	-0.000126	-1.052254	-0.386362
C84	C	0.499874	-0.552254	0.113638
C85	C	-0.000171	-1.141812	0.196507
C86	C	0.499829	-0.641812	0.696507
C87	C	-0.000156	-1.140049	0.289807
C88	C	0.499844	-0.640049	0.789807
C89	C	-0.000138	-1.057696	0.325879
C90	C	0.499862	-0.557696	0.825879
C91	C	-0.000120	-0.977101	0.268646
C92	C	0.499880	-0.477101	0.768646
C93	C	-0.000124	-0.978865	0.175349
C94	C	0.499876	-0.478865	0.675349
C95	C	-0.000114	-0.973430	0.463109
C96	C	0.499886	-0.473430	0.963109
C97	C	-0.000112	-0.971665	0.556413
C98	C	0.499888	-0.471665	1.056413
C99	C	-0.000145	-1.134614	0.577567
C100	C	0.499855	-0.634614	1.077567
C101	C	-0.000150	-1.136378	0.484269
C102	C	0.499850	-0.636378	0.984269
C103	C	-0.000135	-1.055782	0.427043
C104	C	0.499865	-0.555782	0.927043
H105	H	-0.221978	-1.178267	-0.002102
H106	H	0.278022	-0.678267	0.497898
H107	H	-0.361075	-1.288501	0.108056
H108	H	0.138925	-0.788501	0.608056
Cl109	Cl	-0.000156	-1.235935	0.649508
Cl110	Cl	0.499844	-0.735935	1.149508
Cl111	Cl	-0.000181	-0.619204	0.059629
Cl112	Cl	0.499819	-0.119204	0.559629
Cl113	Cl	-0.846232	-0.935218	-0.244969
Cl114	Cl	-0.346232	-0.435218	0.255031
Cl115	Cl	-0.000091	-0.868134	0.601760
Cl116	Cl	0.499909	-0.368134	1.101760
Cl117	Cl	-0.154035	-0.935208	-0.244970
Cl118	Cl	0.345965	-0.435208	0.255030
H119	H	-0.000179	-0.516682	0.025399
H120	H	0.499821	-0.016682	0.525399
Cl121	Cl	-0.673234	-1.315425	0.134951
Cl122	Cl	-0.173234	-0.815425	0.634951
H123	H	-0.778353	-1.178274	-0.002092
H124	H	-0.278353	-0.678274	0.497908
H125	H	-0.000098	-0.907800	0.416517
H126	H	0.499902	-0.407800	0.916517
H127	H	-0.000143	-0.804443	0.019958
H128	H	0.499857	-0.304443	0.519958
H129	H	-0.000096	-0.910047	0.298024
H130	H	0.499904	-0.410047	0.798024
H131	H	-0.639220	-0.824973	-0.355124
H132	H	-0.139220	-0.324973	0.144876
H133	H	-0.000113	-0.913240	0.128756
H134	H	0.499887	-0.413240	0.628756
H135	H	-0.361029	-0.824956	-0.355131
H136	H	0.138971	-0.324956	0.144869
H137	H	-0.000088	-0.766054	-0.275675
H138	H	0.499912	-0.266054	0.224325
H139	H	-0.000175	-1.203437	0.454903
H140	H	0.499825	-0.703437	0.954903
Cl141	Cl	-0.000109	-0.571455	-0.308168
Cl142	Cl	0.499891	-0.071455	0.191832
H143	H	-0.000118	-0.478296	-0.270239
H144	H	0.499882	0.021704	0.229761
H145	H	-0.000158	-0.309033	-0.267039
H146	H	0.499842	0.190967	0.232961
Cl147	Cl	-0.000250	-0.331439	0.065065
Cl148	Cl	0.499750	0.168561	0.565065
H149	H	-0.000194	-1.208874	0.167145
H150	H	0.499806	-0.708874	0.667145
Cl151	Cl	-0.000177	-1.241366	0.361744
Cl152	Cl	0.499823	-0.741366	0.861744
