data_functionalizedCrystal
_audit_creation_method	'MofGen! by Chris Wilmer'
_symmetry_space_group_name_H-M	'P1'
_symmetry_Int_Tables_number	1
_symmetry_cell_setting	triclinic
loop_
_symmetry_equiv_pos_as_xyz
  x,y,z
_cell_length_a	8.597340
_cell_length_b	10.654549
_cell_length_c	7.088929
_cell_angle_alpha	83.716913
_cell_angle_beta	103.954719
_cell_angle_gamma	84.911299
loop_
_atom_site_label
_atom_site_type_symbol
_atom_site_fract_x
_atom_site_fract_y
_atom_site_fract_z
O1	O	2.103280	0.172468	0.187491
O2	O	1.638825	0.192968	0.110978
O3	O	1.881728	-0.000106	0.151001
O4	O	1.860377	0.365542	0.147468
O5	O	1.914189	-0.025967	0.474324
O6	O	1.671286	0.167107	0.434302
O7	O	2.135741	0.146607	0.510815
Cu8	Cu	1.906478	0.154496	0.502080
Cu9	Cu	1.868089	0.185079	0.119712
O10	O	1.892838	0.339682	0.470792
C11	C	1.595584	0.179277	0.262842
C12	C	1.418377	0.176995	0.233650
C13	C	1.896389	-0.059822	0.312402
C14	C	1.891694	-0.199227	0.311622
C15	C	2.173337	-0.491453	0.358029
C16	C	2.320775	-0.441089	0.382321
C17	C	2.325192	-0.310106	0.383046
C18	C	2.182154	-0.229482	0.359482
C19	C	2.034716	-0.279846	0.335189
C20	C	2.030314	-0.410834	0.334461
C21	C	1.744255	-0.249591	0.287329
C22	C	1.739834	-0.380573	0.286590
C23	C	1.601218	-0.168968	0.263765
C24	C	1.453774	-0.219330	0.239458
C25	C	1.449363	-0.350322	0.238731
C26	C	1.592395	-0.430937	0.262297
C27	C	2.178982	0.160299	0.358946
C28	C	2.356187	0.162582	0.388126
C29	C	1.878177	0.399398	0.309387
C30	C	1.882871	0.538804	0.310154
N31	N	1.933490	0.132984	0.771019
N32	N	1.841089	0.206581	-0.149224
H33	H	1.336042	0.187588	0.079045
O34	O	1.588290	-0.558174	0.261365
C35	C	1.649632	-0.596832	0.106765
H36	H	1.731367	-0.525713	0.065321
H37	H	1.721866	-0.694910	0.155706
H38	H	1.545271	-0.601134	-0.025742
H39	H	1.604825	-0.062316	0.264368
H40	H	1.745326	0.282848	0.753351
H41	H	2.029271	0.056721	0.868456
O42	O	1.314985	-0.140831	0.216511
C43	C	1.350507	-0.014430	0.222432
H44	H	1.469784	-0.004648	0.181894
H45	H	1.250015	0.052532	0.113561
H46	H	1.360443	0.011039	0.376623
H47	H	1.438515	0.151980	0.542720
O48	O	2.169222	-0.618688	0.357079
C49	C	2.230558	-0.657335	0.202468
H50	H	2.312301	-0.586218	0.161040
H51	H	2.302782	-0.755417	0.251389
H52	H	2.126194	-0.661621	0.069957
H53	H	2.437233	-0.506747	0.401513
H54	H	2.185766	-0.122832	0.360098
O55	O	2.468406	-0.261145	0.406979
C56	C	2.496433	-0.199646	0.576249
H57	H	2.424441	-0.239899	0.679495
H58	H	2.630576	-0.216029	0.653628
H59	H	2.456948	-0.093284	0.532505
O60	O	1.306064	-0.399154	0.214780
C61	C	1.201967	-0.344515	0.032973
H62	H	1.276410	-0.307997	-0.069863
H63	H	1.127541	-0.419292	-0.034572
H64	H	1.117777	-0.262079	0.056340
