data_functionalizedCrystal
_audit_creation_method	'MofGen! by Chris Wilmer'
_symmetry_space_group_name_H-M	'P1'
_symmetry_Int_Tables_number	1
_symmetry_cell_setting	triclinic
loop_
_symmetry_equiv_pos_as_xyz
  x,y,z
_cell_length_a	14.853569
_cell_length_b	14.853559
_cell_length_c	13.930277
_cell_angle_alpha	90.006833
_cell_angle_beta	89.995365
_cell_angle_gamma	83.633509
loop_
_atom_site_label
_atom_site_type_symbol
_atom_site_fract_x
_atom_site_fract_y
_atom_site_fract_z
O1	O	1.196364	0.117699	-0.079782
O2	O	1.696364	0.617699	0.420218
O3	O	0.933905	0.131719	-0.079793
O4	O	1.433905	0.631719	0.420207
O5	O	1.072149	-0.006522	-0.079786
O6	O	1.572149	0.493478	0.420214
O7	O	1.058120	0.255939	-0.079789
O8	O	1.558120	0.755939	0.420211
O9	O	1.072129	-0.006500	0.079876
O10	O	1.572129	0.493500	0.579876
O11	O	0.933884	0.131740	0.079869
O12	O	1.433884	0.631740	0.579869
O13	O	1.196344	0.117720	0.079880
O14	O	1.696344	0.617720	0.579880
Zn15	Zn	1.065111	0.124733	0.105224
Zn16	Zn	1.565111	0.624733	0.605224
Zn17	Zn	1.065138	0.124705	-0.105137
Zn18	Zn	1.565138	0.624705	0.394863
O19	O	1.058100	0.255960	0.079873
O20	O	1.558100	0.755960	0.579873
C21	C	0.900306	0.131094	0.000036
C22	C	1.400306	0.631094	0.500036
C23	C	0.800222	0.129189	0.000032
C24	C	1.300222	0.629189	0.500032
C25	C	0.763848	0.046178	0.000029
C26	C	1.263848	0.546178	0.500029
C27	C	0.742554	0.210411	0.000039
C28	C	1.242554	0.710411	0.500039
C29	C	0.648520	0.208625	0.000040
C30	C	1.148520	0.708625	0.500040
C31	C	0.612146	0.125614	0.000037
C32	C	1.112146	0.625614	0.500037
C33	C	0.669806	0.044389	0.000033
C34	C	1.169806	0.544389	0.500033
C35	C	0.590853	0.289848	0.000053
C36	C	1.090853	0.789848	0.500053
C37	C	0.496812	0.288065	0.000055
C38	C	0.996812	0.788065	0.500055
C39	C	0.460437	0.205053	0.000046
C40	C	0.960437	0.705053	0.500046
C41	C	0.518103	0.123825	0.000041
C42	C	1.018103	0.623825	0.500041
C43	C	0.481729	0.040813	0.000039
C44	C	0.981729	0.540813	0.500039
C45	C	0.539394	-0.040416	0.000027
C46	C	1.039394	0.459584	0.500027
C47	C	0.633430	-0.038623	0.000024
C48	C	1.133430	0.461377	0.500024
C49	C	0.366401	0.203260	0.000049
C50	C	0.866401	0.703260	0.500049
C51	C	0.387687	0.039024	0.000042
C52	C	0.887687	0.539024	0.500042
C53	C	1.071505	-0.040100	0.000043
C54	C	1.571505	0.459900	0.500043
C55	C	1.069604	-0.140184	0.000037
C56	C	1.569604	0.359816	0.500037
C57	C	1.061551	-0.563371	-0.086995
C58	C	1.561551	-0.063371	0.413005
C59	C	1.061529	-0.563342	0.087075
C60	C	1.561529	-0.063342	0.587075
C61	C	1.063323	-0.469309	0.087076
C62	C	1.563323	0.030691	0.587076
C63	C	1.064229	-0.422302	0.000040
C64	C	1.564229	0.077698	0.500040
C65	C	1.063342	-0.469328	-0.086997
C66	C	1.563342	0.030672	0.413003
C67	C	1.064200	-0.422274	0.174111
C68	C	1.564200	0.077726	0.674111
C69	C	1.065993	-0.328235	0.174115
C70	C	1.565993	0.171765	0.674115
C71	C	1.066906	-0.281227	0.087078
C72	C	1.566906	0.218773	0.587078
C73	C	1.066020	-0.328260	0.000038
C74	C	1.566020	0.171740	0.500038
C75	C	1.066926	-0.281253	-0.086997
C76	C	1.566926	0.218747	0.413003
C77	C	1.066047	-0.328284	-0.174039
C78	C	1.566047	0.171716	0.325961
C79	C	1.064255	-0.422320	-0.174033
C80	C	1.564255	0.077680	0.325967
C81	C	1.068698	-0.187191	0.087073
C82	C	1.568698	0.312809	0.587073
C83	C	1.068717	-0.187210	-0.086999
C84	C	1.568717	0.312790	0.413001
C85	C	1.229943	0.118345	0.000048
C86	C	1.729943	0.618345	0.500048
C87	C	1.330027	0.120249	0.000046
C88	C	1.830027	0.620249	0.500046
C89	C	1.058744	0.289538	0.000042
C90	C	1.558744	0.789538	0.500042
C91	C	1.060645	0.389622	0.000041
C92	C	1.560645	0.889622	0.500041
N93	N	1.065099	0.124752	0.248790
N94	N	1.565099	0.624752	0.748790
N95	N	1.065157	0.124680	-0.248703
N96	N	1.565157	0.624680	0.251297
C97	C	1.119892	0.179469	0.701051
C98	C	1.619892	0.679469	1.201051
C99	C	1.010412	0.069905	0.701037
C100	C	1.510412	0.569905	1.201037
C101	C	1.010398	0.069919	0.600541
C102	C	1.510398	0.569919	1.100541
C103	C	1.065133	0.124708	0.550296
C104	C	1.565133	0.624708	1.050296
C105	C	1.119882	0.179483	0.600546
C106	C	1.619882	0.679483	1.100546
C107	C	0.955657	0.015139	0.550283
C108	C	1.455657	0.515139	1.050283
C109	C	0.955642	0.015151	0.449782
C110	C	1.455642	0.515151	0.949782
C111	C	1.010373	0.069945	0.399534
C112	C	1.510373	0.569945	0.899534
C113	C	1.065123	0.124723	0.449791
C114	C	1.565123	0.624723	0.949791
C115	C	1.119858	0.179512	0.399545
C116	C	1.619858	0.679512	0.899545
C117	C	1.174604	0.234295	0.449800
C118	C	1.674604	0.734295	0.949800
C119	C	1.174613	0.234277	0.550299
C120	C	1.674613	0.734277	1.050299
C121	C	1.010364	0.069963	0.299035
C122	C	1.510364	0.569963	0.799035
C123	C	1.119848	0.179526	0.299040
C124	C	1.619848	0.679526	0.799040
H125	H	0.772176	0.277995	0.000047
H126	H	1.272176	0.777995	0.500047
C127	C	1.060535	-0.615047	0.182805
C128	C	1.560535	-0.115047	0.682805
H129	H	1.059347	-0.677789	0.170341
H130	H	1.559347	-0.177789	0.670341
H131	H	1.008297	-0.592821	0.218571
H132	H	1.508297	-0.092821	0.718571
H133	H	1.113366	-0.606445	0.218561
H134	H	1.613366	-0.106445	0.718561
C135	C	0.950208	0.009642	0.756304
C136	C	1.450208	0.509642	1.256304
H137	H	0.958052	0.017482	0.823355
H138	H	1.458052	0.517482	1.323355
H139	H	0.966879	-0.052011	0.739813
H140	H	1.466879	0.447989	1.239813
H141	H	0.888541	0.026292	0.739852
H142	H	1.388541	0.526292	1.239852
C143	C	0.302971	0.292597	0.000065
C144	C	0.802971	0.792597	0.500065
H145	H	0.241756	0.279644	0.000072
H146	H	0.741756	0.779644	0.500072
H147	H	0.314011	0.326634	-0.055606
H148	H	0.814011	0.826634	0.444394
H149	H	0.314005	0.326627	0.055756
H150	H	0.814005	0.826627	0.555756
C151	C	1.063211	-0.473982	0.269840
C152	C	1.563211	0.026018	0.769840
H153	H	1.062032	-0.536724	0.257373
H154	H	1.562032	-0.036724	0.757373
H155	H	1.010970	-0.451764	0.305606
H156	H	1.510970	0.048236	0.805606
H157	H	1.116040	-0.465374	0.305597
H158	H	1.616040	0.034626	0.805597
H159	H	1.063538	-0.460622	-0.244897
H160	H	1.563538	0.039378	0.255103
H161	H	1.069460	-0.148944	-0.157875
H162	H	1.569460	0.351056	0.342125
C163	C	0.827272	-0.043167	0.000021
C164	C	1.327272	0.456833	0.500021
H165	H	0.888488	-0.030217	0.000023
H166	H	1.388488	0.469783	0.500023
H167	H	0.816234	-0.077206	-0.055656
H168	H	1.316234	0.422794	0.444344
H169	H	0.816232	-0.077192	0.055706
H170	H	1.316232	0.422808	0.555706
H171	H	0.911064	-0.029456	0.408873
H172	H	1.411064	0.470544	0.908873
H173	H	1.066778	-0.289998	-0.244903
H174	H	1.566778	0.210002	0.255097
C175	C	1.060580	-0.615099	-0.182733
C176	C	1.560580	-0.115099	0.317267
H177	H	1.059379	-0.677836	-0.170271
H178	H	1.559379	-0.177836	0.329729
H179	H	1.113407	-0.606499	-0.218493
H180	H	1.613407	-0.106499	0.281507
H181	H	1.008338	-0.592880	-0.218492
H182	H	1.508338	-0.092880	0.281508
C183	C	1.066972	-0.276510	0.269854
C184	C	1.566972	0.223490	0.769854
H185	H	1.066183	-0.317976	0.321688
H186	H	1.566183	0.182024	0.821688
H187	H	1.015144	-0.233009	0.273475
H188	H	1.515144	0.266991	0.773475
H189	H	1.120213	-0.246646	0.273469
H190	H	1.620213	0.253354	0.773469
C191	C	0.950151	0.009711	0.243760
C192	C	1.450151	0.509711	0.743760
H193	H	0.917553	-0.022919	0.288078
H194	H	1.417553	0.477081	0.788078
H195	H	0.987040	-0.031704	0.204532
H196	H	1.487040	0.468296	0.704532
H197	H	0.908694	0.046591	0.204578
H198	H	1.408694	0.546591	0.704578
C199	C	1.069662	-0.135456	0.182802
C200	C	1.569662	0.364544	0.682802
H201	H	1.070854	-0.072718	0.170337
H202	H	1.570854	0.427282	0.670337
H203	H	1.121891	-0.157674	0.218573
H204	H	1.621891	0.342326	0.718573
H205	H	1.016821	-0.144048	0.218553
H206	H	1.516821	0.355952	0.718553
H207	H	0.358079	-0.028574	0.000035
H208	H	0.858079	0.471426	0.500035
H209	H	1.164416	0.224147	0.258138
H210	H	1.664416	0.724147	0.758138
C211	C	1.234809	0.294559	0.394524
C212	C	1.734809	0.794559	0.894524
H213	H	1.226956	0.286719	0.327474
H214	H	1.726956	0.786719	0.827474
H215	H	1.296473	0.277926	0.410977
H216	H	1.796473	0.777926	0.910977
H217	H	1.218124	0.356217	0.411005
H218	H	1.718124	0.856217	0.911005
C219	C	1.234837	0.294521	0.605580
C220	C	1.734837	0.794521	1.105580
H221	H	1.227011	0.286655	0.672629
H222	H	1.727011	0.786655	1.172629
H223	H	1.218164	0.356181	0.589137
H224	H	1.718164	0.856181	1.089137
H225	H	1.296499	0.277875	0.589090
H226	H	1.796499	0.777875	1.089090
H227	H	1.164462	0.224074	0.741973
H228	H	1.664462	0.724074	1.241973
H229	H	0.680389	-0.104755	0.000016
H230	H	1.180389	0.395245	0.500016
C231	C	0.499376	-0.131722	0.000022
C232	C	0.999376	0.368278	0.500022
H233	H	0.435112	-0.121148	0.000023
H234	H	0.935112	0.378852	0.500023
H235	H	0.519158	-0.165172	0.055693
H236	H	1.019158	0.334828	0.555693
H237	H	0.519155	-0.165170	-0.055669
H238	H	1.019155	0.334830	0.444331
C239	C	0.630860	0.381153	0.000051
C240	C	1.130860	0.881153	0.500051
H241	H	0.583052	0.429272	0.000065
H242	H	1.083052	0.929272	0.500065
H243	H	0.667100	0.385257	-0.055632
H244	H	1.167100	0.885257	0.444368
H245	H	0.667103	0.385268	0.055730
H246	H	1.167103	0.885268	0.555730
C247	C	0.433390	0.377411	0.000056
C248	C	0.933390	0.877411	0.500056
H249	H	0.468523	0.427104	0.000051
H250	H	0.968523	0.927104	0.500051
H251	H	0.396255	0.380136	0.055731
H252	H	0.896255	0.880136	0.555731
H253	H	0.396273	0.380119	-0.055631
H254	H	0.896273	0.880119	0.444369
H255	H	0.911102	-0.029475	0.591201
H256	H	1.411102	0.470525	1.091201
