data_functionalizedCrystal
_audit_creation_method	'MofGen! by Chris Wilmer'
_symmetry_space_group_name_H-M	'P1'
_symmetry_Int_Tables_number	1
_symmetry_cell_setting	triclinic
loop_
_symmetry_equiv_pos_as_xyz
  x,y,z
_cell_length_a	19.188930
_cell_length_b	10.489741
_cell_length_c	8.965430
_cell_angle_alpha	89.992413
_cell_angle_beta	90.017096
_cell_angle_gamma	96.158023
loop_
_atom_site_label
_atom_site_type_symbol
_atom_site_fract_x
_atom_site_fract_y
_atom_site_fract_z
O1	O	0.927210	-0.159241	0.124519
O2	O	0.724042	-0.180677	0.124416
O3	O	0.830249	0.015742	0.124461
O4	O	0.821003	-0.355660	0.124474
O5	O	0.830243	0.015760	-0.123618
O6	O	0.724036	-0.180659	-0.123663
O7	O	0.927204	-0.159223	-0.123560
Cu8	Cu	0.825620	-0.169939	-0.146263
Cu9	Cu	0.825627	-0.169961	0.147119
O10	O	0.820997	-0.355642	-0.123605
C11	C	0.698024	-0.179974	0.000364
C12	C	0.620505	-0.177890	0.000325
C13	C	0.829548	0.063267	0.000422
C14	C	0.827459	0.204850	0.000424
N15	N	0.825620	-0.169923	-0.352612
C16	C	0.576353	-0.293142	0.000352
C17	C	0.503516	-0.291184	0.000368
C18	C	0.474835	-0.173968	0.000387
C19	C	0.518996	-0.058700	0.000351
C20	C	0.591831	-0.060661	0.000320
N21	N	0.366256	-0.084377	0.084876
N22	N	0.297065	-0.082522	0.084909
C23	C	0.255386	-0.168053	0.000478
N24	N	0.285511	-0.255528	-0.083968
N25	N	0.354708	-0.257387	-0.083994
C26	C	0.395858	-0.171829	0.000420
C27	C	0.132256	-0.281190	0.000521
C28	C	0.059418	-0.279228	0.000528
C29	C	0.074899	-0.046740	0.000526
C30	C	0.147736	-0.048706	0.000504
C31	C	0.176409	-0.165935	0.000509
C32	C	0.953223	-0.159926	0.000496
C33	C	1.030741	-0.162010	0.000545
C34	C	0.821699	-0.403167	0.000437
C35	C	0.823788	-0.544750	0.000445
C36	C	0.759882	0.271479	0.000400
C37	C	0.791802	0.364325	-0.121899
C38	C	0.791824	0.364282	0.122687
C39	C	0.859406	0.295831	-0.121977
C40	C	0.859418	0.295778	0.122719
C41	C	0.891387	0.388597	0.000390
C42	C	0.874352	-0.078387	-0.549262
C43	C	0.889039	-0.193206	-0.449772
C44	C	0.810964	-0.055113	-0.449895
C45	C	0.840351	-0.284844	-0.549231
C46	C	0.762248	-0.146675	-0.549362
C47	C	0.776908	-0.261578	-0.449917
N48	N	0.825632	-0.169966	0.353468
H49	H	0.599694	-0.388599	0.000359
C50	C	0.640403	0.066118	0.000301
H51	H	0.687888	0.048161	0.000275
H52	H	0.631665	0.114197	0.086812
H53	H	0.631630	0.114203	-0.086220
H54	H	0.023470	-0.373084	0.000542
H55	H	0.763206	0.394704	-0.225323
C56	C	0.897990	0.255062	-0.261818
H57	H	0.899059	0.164727	-0.261000
H58	H	0.944565	0.296218	-0.262154
H59	H	0.874134	0.279068	-0.348580
C60	C	0.857194	-0.416058	-0.607919
H61	H	0.857120	-0.415258	-0.713881
H62	H	0.822790	-0.481117	-0.573110
H63	H	0.902075	-0.432734	-0.572991
H64	H	0.051547	0.048700	0.000634
C65	C	0.689868	-0.120025	-0.608517
H66	H	0.679520	-0.038357	-0.574568
H67	H	0.655154	-0.184229	-0.573024
H68	H	0.690282	-0.121015	-0.714468
C69	C	0.966507	0.457059	0.000338
H70	H	0.990393	0.433645	-0.086617
H71	H	0.990695	0.432554	0.086414
H72	H	0.964774	0.547226	0.001151
C73	C	0.898014	0.254677	0.262437
H74	H	0.873940	0.277832	0.349255
H75	H	0.944466	0.296389	0.263342
H76	H	0.899429	0.164436	0.260931
C77	C	0.196308	0.078069	0.000496
H78	H	0.243793	0.060114	0.000465
H79	H	0.187570	0.126145	0.087010
H80	H	0.187532	0.126157	-0.086022
C81	C	0.753190	0.405253	0.262366
H82	H	0.706475	0.364721	0.262181
H83	H	0.752507	0.495667	0.261857
H84	H	0.776748	0.380615	0.349235
H85	H	0.735701	-0.339089	-0.406571
H86	H	0.704321	0.220586	0.000249
H87	H	0.942636	-0.212897	-0.406028
C88	C	0.454941	-0.417966	0.000421
H89	H	0.482450	-0.488062	0.000432
H90	H	0.426180	-0.422042	-0.086068
H91	H	0.426233	-0.422018	0.086964
C92	C	0.487449	0.070234	0.000381
H93	H	0.437747	0.054896	0.000420
H94	H	0.502543	0.117684	-0.086135
H95	H	0.502588	0.117662	0.086897
C96	C	0.794204	0.076068	-0.390941
H97	H	0.752650	0.065067	-0.332667
H98	H	0.787621	0.131198	-0.472638
H99	H	0.832005	0.112861	-0.331122
C100	C	0.930052	0.026088	-0.608207
H101	H	0.975058	0.009336	-0.574103
H102	H	0.920079	0.107507	-0.572736
H103	H	0.929390	0.025849	-0.714160
H104	H	0.155603	-0.376644	0.000503
