data_functionalizedCrystal
_audit_creation_method	'MofGen! by Chris Wilmer'
_symmetry_space_group_name_H-M	'P1'
_symmetry_Int_Tables_number	1
_symmetry_cell_setting	triclinic
loop_
_symmetry_equiv_pos_as_xyz
  x,y,z
_cell_length_a	12.645331
_cell_length_b	21.295417
_cell_length_c	12.645323
_cell_angle_alpha	89.966008
_cell_angle_beta	89.977324
_cell_angle_gamma	90.029485
loop_
_atom_site_label
_atom_site_type_symbol
_atom_site_fract_x
_atom_site_fract_y
_atom_site_fract_z
Zn1	Zn	1.620637	-0.250621	-0.599379
Zn2	Zn	1.620479	-0.355896	-0.422091
Zn3	Zn	1.443351	-0.250643	-0.422123
Zn4	Zn	1.443294	-0.355855	-0.599306
O5	O	1.531940	-0.303254	-0.510725
O6	O	1.768963	-0.264595	-0.575878
O7	O	1.596941	-0.341960	-0.273748
O8	O	1.466959	-0.162550	-0.445681
O9	O	1.768847	-0.341939	-0.445625
O10	O	1.597210	-0.162535	-0.575910
O11	O	1.466806	-0.264631	-0.273772
O12	O	1.294996	-0.264591	-0.445610
O13	O	1.466860	-0.341869	-0.747663
O14	O	1.294954	-0.341890	-0.575786
O15	O	1.597154	-0.264555	-0.747717
O16	O	1.596884	-0.443980	-0.445555
O17	O	1.466707	-0.443950	-0.575754
C18	C	1.256510	-0.303239	-0.510694
C19	C	1.138680	-0.303247	-0.510706
C20	C	0.971108	-0.254395	-0.429265
C21	C	1.093667	-0.254521	-0.428906
C22	C	1.094135	-0.369560	-0.480174
C23	C	0.971537	-0.369293	-0.479618
C24	C	0.971537	-0.286418	-0.622995
C25	C	1.094144	-0.284937	-0.622372
C26	C	1.531801	-0.466805	-0.510666
C27	C	1.531839	-0.536773	-0.510677
C28	C	1.599682	-0.569635	-0.442951
C29	C	1.599732	-0.635377	-0.442975
C30	C	1.531919	-0.668256	-0.510713
C31	C	1.464071	-0.635386	-0.578452
C32	C	1.464031	-0.569645	-0.578433
N33	N	1.439183	-0.771521	-0.518784
N34	N	1.439224	-0.833972	-0.518796
C35	C	1.532038	-0.866331	-0.510774
N36	N	1.624811	-0.833879	-0.502720
N37	N	1.624768	-0.771421	-0.502703
C38	C	1.531956	-0.739541	-0.510741
C39	C	1.599941	-0.970478	-0.443071
C40	C	1.599993	-1.036221	-0.443102
C41	C	1.464322	-1.036229	-0.578573
C42	C	1.464280	-0.970487	-0.578547
C43	C	1.532088	-0.937615	-0.510791
C44	C	1.808445	-0.303269	-0.510756
C45	C	1.926275	-0.303276	-0.510770
C46	C	1.532018	-0.303205	-0.787230
C47	C	1.532052	-0.303184	-0.905061
C48	C	1.532109	-0.139063	-0.510807
C49	C	1.532180	-0.069095	-0.510842
C50	C	1.449831	-0.351594	-1.072591
C51	C	1.450046	-0.351833	-0.950031
C52	C	1.643744	-0.321189	-0.949576
C53	C	1.643293	-0.321492	-1.072174
C54	C	1.503635	-0.236500	-1.072276
C55	C	1.501143	-0.236899	-0.949670
C56	C	1.531923	-0.303257	-0.235295
C57	C	1.532096	-0.303100	-0.117466
H58	H	1.123787	-0.205348	-0.448045
H59	H	1.123290	-0.406953	-0.537674
H60	H	1.123266	-0.236138	-0.645395
H61	H	0.942545	-0.322021	-0.683723
H62	H	1.124789	-0.317942	-0.686348
H63	H	1.409112	-1.062998	-0.633731
H64	H	1.124785	-0.384101	-0.399012
H65	H	1.468434	-0.400659	-1.103397
C66	C	1.674262	-0.533480	-0.368405
N67	N	1.730432	-0.506247	-0.312252
H68	H	0.940659	-0.238907	-0.650759
H69	H	1.468832	-0.401207	-0.920704
C70	C	1.389667	-0.934338	-0.653073
N71	N	1.333477	-0.907110	-0.709222
C72	C	1.674362	-0.671532	-0.368463
N73	N	1.730572	-0.698762	-0.312338
H74	H	1.408859	-0.662160	-0.633606
C75	C	1.389407	-0.533497	-0.652953
N76	N	1.333204	-0.506268	-0.709087
H77	H	1.655158	-0.943712	-0.387902
C78	C	0.931324	-0.187762	-0.454838
N79	N	0.901351	-0.137573	-0.474101
C80	C	0.931466	-0.420163	-0.556311
N81	N	0.901290	-0.458480	-0.614070
H82	H	1.655246	-1.062976	-0.387954
C83	C	1.675878	-0.387267	-1.110811
N84	N	1.700418	-0.436810	-1.139907
C85	C	1.338154	-0.336610	-0.909366
N86	N	1.253871	-0.325147	-0.878742
C87	C	0.932828	-0.388598	-0.368778
N88	N	0.903678	-0.403136	-0.285289
C89	C	1.337601	-0.336516	-1.112402
N90	N	1.253067	-0.325159	-1.142396
C91	C	0.929412	-0.269271	-0.317578
N92	N	0.898003	-0.280476	-0.233456
C93	C	1.728919	-0.275859	-1.112283
N94	N	1.793417	-0.241493	-1.142489
C95	C	1.728772	-0.274986	-0.910223
N96	N	1.792813	-0.240185	-0.880579
C97	C	1.133220	-0.269577	-0.316557
N98	N	1.163009	-0.280920	-0.231931
C99	C	1.676896	-0.386275	-0.908107
N100	N	1.701860	-0.435299	-0.876876
C101	C	1.390122	-0.218540	-0.910319
N102	N	1.306507	-0.204709	-0.880659
C103	C	1.395515	-0.214332	-1.114021
N104	N	1.314074	-0.197643	-1.145461
C105	C	1.576163	-0.185504	-0.908297
N106	N	1.632670	-0.146794	-0.877127
H107	H	1.563553	-0.200370	-1.101300
