data_functionalizedCrystal
_audit_creation_method	'MofGen! by Chris Wilmer'
_symmetry_space_group_name_H-M	'P1'
_symmetry_Int_Tables_number	1
_symmetry_cell_setting	triclinic
loop_
_symmetry_equiv_pos_as_xyz
  x,y,z
_cell_length_a	10.723023
_cell_length_b	15.625429
_cell_length_c	9.798715
_cell_angle_alpha	71.919703
_cell_angle_beta	89.996770
_cell_angle_gamma	84.344239
loop_
_atom_site_label
_atom_site_type_symbol
_atom_site_fract_x
_atom_site_fract_y
_atom_site_fract_z
O1	O	1.655907	0.126439	-0.176041
O2	O	1.292631	0.138543	-0.182036
O3	O	1.483975	0.001315	-0.114122
O4	O	1.464563	0.263667	-0.243955
O5	O	1.483961	0.001315	0.112861
O6	O	1.292617	0.138543	0.044946
O7	O	1.655892	0.126439	0.050941
Zn8	Zn	1.474252	0.132491	0.083982
Zn9	Zn	1.474271	0.132491	-0.215077
O10	O	1.464549	0.263667	-0.016973
C11	C	1.246134	0.137662	-0.068110
C12	C	1.107606	0.135027	-0.066808
C13	C	1.045838	0.133852	0.051356
C14	C	0.902663	0.131129	0.052704
C15	C	1.483089	-0.032277	0.015991
C16	C	1.480456	-0.132373	0.065518
C17	C	1.471799	-0.461575	-0.390185
C18	C	1.469319	-0.555630	-0.343605
C19	C	1.469303	-0.555616	-0.096165
C20	C	1.471790	-0.461561	-0.142724
C21	C	1.473036	-0.414547	-0.289736
C22	C	1.473027	-0.414533	-0.042275
C23	C	1.475506	-0.320484	-0.088831
C24	C	1.476748	-0.273464	-0.235837
C25	C	1.475515	-0.320499	-0.336292
C26	C	1.471772	-0.461547	0.104736
C27	C	1.473009	-0.414519	0.205186
C28	C	1.475497	-0.320470	0.158630
C29	C	1.476739	-0.273449	0.011625
C30	C	1.476730	-0.273435	0.259086
C31	C	1.479210	-0.179386	0.212529
C32	C	1.479219	-0.179401	-0.034932
C33	C	1.702390	0.127320	-0.062988
C34	C	1.840918	0.129955	-0.064299
C35	C	1.465435	0.297260	-0.147088
C36	C	1.468068	0.397355	-0.196624
N37	N	1.474249	0.132490	0.288082
N38	N	1.474285	0.132485	-0.419173
C39	C	1.554591	0.074618	0.384500
C40	C	1.554611	0.074615	0.541664
H41	H	1.054491	0.134015	-0.166973
C42	C	1.381352	0.199426	0.468977
C43	C	1.383330	0.302069	0.438519
C44	C	1.290397	0.369010	0.326658
C45	C	1.195486	0.333309	0.245256
C46	C	1.193504	0.230661	0.275713
C47	C	1.286437	0.163720	0.387573
H48	H	1.453593	0.328501	0.498779
H49	H	1.291865	0.444996	0.304113
H50	H	1.126691	0.382862	0.162450
H51	H	1.123241	0.204228	0.215452
H52	H	1.284969	0.087733	0.410119
C53	C	1.480569	-0.127645	0.323016
C54	C	1.371953	-0.130998	0.426755
C55	C	1.373304	-0.079254	0.537241
C56	C	1.483270	-0.024158	0.543988
C57	C	1.591895	-0.020804	0.440245
C58	C	1.590544	-0.072547	0.329759
H59	H	1.290542	-0.171785	0.421764
H60	H	1.292892	-0.081738	0.614038
H61	H	1.484270	0.014146	0.625776
H62	H	1.673306	0.019984	0.445236
H63	H	1.670956	-0.070064	0.252962
H64	H	1.405474	0.182031	0.321889
C65	C	0.912658	0.131319	-0.200983
C66	C	0.880852	0.209129	-0.341593
C67	C	0.952603	0.210493	-0.478277
C68	C	1.056160	0.134049	-0.474351
C69	C	1.087971	0.056234	-0.333736
C70	C	1.016220	0.054869	-0.197052
H71	H	0.804188	0.265722	-0.344504
H72	H	0.929053	0.268098	-0.582369
H73	H	1.109274	0.135059	-0.575533
H74	H	1.164635	-0.000360	-0.330825
H75	H	1.039769	-0.002735	-0.092959
H76	H	1.480245	-0.141121	-0.154643
C77	C	1.467930	-0.607343	0.065540
C78	C	1.357951	-0.662427	0.126828
C79	C	1.356578	-0.714156	0.288534
C80	C	1.465184	-0.710801	0.388952
C81	C	1.575171	-0.655715	0.327665
C82	C	1.576544	-0.603986	0.165960
H83	H	1.277546	-0.664913	0.052491
H84	H	1.275157	-0.754934	0.333901
H85	H	1.464168	-0.749093	0.508656
H86	H	1.655576	-0.653229	0.402002
H87	H	1.657965	-0.563208	0.120592
C88	C	1.647502	0.007682	0.338851
C89	C	1.647234	0.007693	0.181689
C90	C	1.740149	-0.059246	0.136046
C91	C	1.833330	-0.126196	0.247566
C92	C	1.833601	-0.126210	0.404737
C93	C	1.740687	-0.059271	0.450380
H94	H	1.578253	0.057255	0.099127
H95	H	1.739948	-0.059236	0.019697
H96	H	1.902111	-0.175749	0.213778
H97	H	1.902583	-0.175773	0.487299
H98	H	1.740888	-0.059281	0.566729
C99	C	1.647541	0.007676	0.653521
C100	C	1.598318	-0.061387	0.786024
C101	C	1.691251	-0.128328	0.897885
C102	C	1.833407	-0.126206	0.877243
C103	C	1.882637	-0.057140	0.744734
C104	C	1.789704	0.009801	0.632873
H105	H	1.493079	-0.062960	0.801309
H106	H	1.654806	-0.179455	0.995976
H107	H	1.902201	-0.175760	0.960049
H108	H	1.987875	-0.055567	0.729449
H109	H	1.826148	0.060928	0.534782
H110	H	1.098955	0.134858	0.151525
H111	H	0.849543	0.130124	0.153868
H112	H	1.469739	-0.538126	0.142637
H113	H	1.478754	-0.196883	-0.273741
H114	H	1.476541	-0.282219	-0.456003
H115	H	1.472824	-0.423295	-0.509896
H116	H	1.468300	-0.593916	-0.425415
H117	H	1.471989	-0.452810	0.324883
H118	H	1.475703	-0.311726	0.378783
