data_functionalizedCrystal
_audit_creation_method	'MofGen! by Chris Wilmer'
_symmetry_space_group_name_H-M	'P1'
_symmetry_Int_Tables_number	1
_symmetry_cell_setting	triclinic
loop_
_symmetry_equiv_pos_as_xyz
  x,y,z
_cell_length_a	16.959455
_cell_length_b	16.120484
_cell_length_c	16.120256
_cell_angle_alpha	95.616173
_cell_angle_beta	92.879573
_cell_angle_gamma	92.922454
loop_
_atom_site_label
_atom_site_type_symbol
_atom_site_fract_x
_atom_site_fract_y
_atom_site_fract_z
Zn1	Zn	1.167702	-0.356828	-0.489438
Zn2	Zn	1.667702	0.143172	0.010562
Zn3	Zn	1.167602	-0.489513	-0.356747
Zn4	Zn	1.667602	0.010487	0.143253
Zn5	Zn	1.042579	-0.349752	-0.349685
Zn6	Zn	1.542579	0.150248	0.150315
Zn7	Zn	1.028427	-0.496551	-0.496473
Zn8	Zn	1.528427	0.003449	0.003527
O9	O	1.101578	-0.423161	-0.423086
O10	O	1.601578	0.076839	0.076914
O11	O	1.278298	-0.374444	-0.471847
O12	O	1.778298	0.125556	0.028153
O13	O	1.156899	-0.465067	-0.238848
O14	O	1.656899	0.034933	0.261152
O15	O	1.065142	-0.233726	-0.362323
O16	O	1.565142	0.266274	0.137677
O17	O	1.278225	-0.471928	-0.374360
O18	O	1.778225	0.028072	0.125640
O19	O	1.157068	-0.238924	-0.464999
O20	O	1.657068	0.261076	0.035001
O21	O	1.065045	-0.362386	-0.233659
O22	O	1.565045	0.137614	0.266341
O23	O	0.930093	-0.369210	-0.369145
O24	O	1.430093	0.130790	0.130855
O25	O	1.041021	-0.483923	-0.612502
O26	O	1.541021	0.016077	-0.112502
O27	O	0.919695	-0.477062	-0.476990
O28	O	1.419695	0.022938	0.023010
O29	O	1.143345	-0.381269	-0.607333
O30	O	1.643345	0.118731	-0.107333
O31	O	1.143176	-0.607412	-0.381182
O32	O	1.643176	-0.107412	0.118818
O33	O	1.040924	-0.612583	-0.483838
O34	O	1.540924	-0.112583	0.016162
C35	C	0.896214	-0.423133	-0.423065
C36	C	1.396214	0.076867	0.076935
C37	C	0.808356	-0.423142	-0.423077
C38	C	1.308356	0.076858	0.076923
C39	C	0.442265	-0.366964	-0.367040
C40	C	0.942265	0.133036	0.132960
C41	C	0.431487	-0.479429	-0.479182
C42	C	0.931487	0.020571	0.020818
C43	C	0.514034	-0.479417	-0.479176
C44	C	1.014034	0.020583	0.020824
C45	C	0.560700	-0.423178	-0.423101
C46	C	1.060700	0.076822	0.076899
C47	C	0.524820	-0.366952	-0.367031
C48	C	1.024820	0.133048	0.132969
C49	C	0.549920	-0.535648	-0.535239
C50	C	1.049920	-0.035648	-0.035239
C51	C	0.632472	-0.535638	-0.535235
C52	C	1.132472	-0.035638	-0.035235
C53	C	0.679140	-0.479395	-0.479163
C54	C	1.179140	0.020605	0.020837
C55	C	0.643255	-0.423166	-0.423092
C56	C	1.143255	0.076834	0.076908
C57	C	0.689921	-0.366928	-0.367016
C58	C	1.189921	0.133072	0.132984
C59	C	0.654038	-0.310694	-0.310948
C60	C	1.154038	0.189306	0.189052
C61	C	0.571488	-0.310709	-0.310959
C62	C	1.071488	0.189291	0.189041
C63	C	0.761690	-0.479380	-0.479153
C64	C	1.261690	0.020620	0.020847
C65	C	0.772476	-0.366915	-0.367007
C66	C	1.272476	0.133085	0.132993
C67	C	1.090524	-0.640326	-0.434058
C68	C	1.590524	-0.140326	0.065942
C69	C	1.085866	-0.733231	-0.438780
C70	C	1.585866	-0.233231	0.061220
C71	C	1.077366	-0.903331	-0.447418
C72	C	1.577366	-0.403331	0.052582
C73	C	1.125930	-0.942151	-0.398767
C74	C	1.625930	-0.442151	0.101233
C75	C	1.121200	-1.036801	-0.403573
C76	C	1.621200	-0.536801	0.096427
C77	C	1.082095	-0.808673	-0.442613
C78	C	1.582095	-0.308673	0.057387
C79	C	1.307743	-0.423190	-0.423107
C80	C	1.807743	0.076810	0.076893
C81	C	1.395599	-0.423203	-0.423116
C82	C	1.895599	0.076797	0.076884
C83	C	1.090615	-0.434170	-0.641093
C84	C	1.590615	0.065830	-0.141093
C85	C	1.085944	-0.438861	-0.733995
C86	C	1.585944	0.061139	-0.233995
C87	C	1.112695	-0.205149	-0.412089
C88	C	1.612695	0.294851	0.087911
C89	C	1.117432	-0.112246	-0.407402
C90	C	1.617432	0.387754	0.092598
C91	C	1.125938	-0.398675	-0.942920
C92	C	1.625938	0.101325	-0.442920
C93	C	1.077390	-0.447392	-0.904080
C94	C	1.577390	0.052608	-0.404080
C95	C	1.082151	-0.442644	-0.809435
C96	C	1.582151	0.057356	-0.309435
C97	C	1.121179	-0.403422	-1.037572
C98	C	1.621179	0.096578	-0.537572
C99	C	1.112546	-0.412135	-0.205923
C100	C	1.612546	0.087865	0.294077
C101	C	1.117382	-0.407208	-0.113010
C102	C	1.617382	0.092792	0.386990
H103	H	0.692045	-0.264908	-0.265288
H104	H	1.192045	0.235092	0.234712
H105	H	1.032248	-0.492660	-0.941907
H106	H	1.532248	0.007340	-0.441907
H107	H	1.171058	-0.904302	-0.353505
H108	H	1.671058	-0.404302	0.146495
O109	O	1.023504	-0.948351	-0.501481
O110	O	1.523504	-0.448351	-0.001481
C111	C	0.979258	-0.893621	-0.545760
C112	C	1.479258	-0.393621	-0.045760
H113	H	1.014532	-0.831481	-0.545592
H114	H	1.514532	-0.331481	-0.045592
H115	H	0.966221	-0.922234	-0.612861
H116	H	1.466221	-0.422234	-0.112861
H117	H	0.921244	-0.882894	-0.514632
H118	H	1.421244	-0.382894	-0.014632
H119	H	1.171074	-0.353406	-0.905094
H120	H	1.671074	0.146594	-0.405094
H121	H	0.542264	-0.264927	-0.265311
H122	H	1.042264	0.235073	0.234689
O123	O	0.817889	-0.312398	-0.312498
O124	O	1.317889	0.187602	0.187502
C125	C	0.865919	-0.357166	-0.260815
C126	C	1.365919	0.142834	0.239185
H127	H	0.873595	-0.422038	-0.293389
H128	H	1.373595	0.077962	0.206611
H129	H	0.926256	-0.322534	-0.247940
H130	H	1.426256	0.177466	0.252060
H131	H	0.836745	-0.363127	-0.199323
H132	H	1.336745	0.136873	0.300677
O133	O	0.407286	-0.312421	-0.312609
O134	O	0.907286	0.187579	0.187391
C135	C	0.324418	-0.324468	-0.324655
C136	C	0.824418	0.175532	0.175345
H137	H	0.308496	-0.390394	-0.355183
H138	H	0.808496	0.109606	0.144817
H139	H	0.296474	-0.315540	-0.261770
H140	H	0.796474	0.184460	0.238230
H141	H	0.301275	-0.277213	-0.366749
H142	H	0.801275	0.222787	0.133251
H143	H	0.393486	-0.525221	-0.524832
H144	H	0.893486	-0.025221	-0.024832
H145	H	0.511919	-0.581440	-0.580887
H146	H	1.011919	-0.081440	-0.080887
H147	H	0.661681	-0.581427	-0.580890
H148	H	1.161681	-0.081427	-0.080890
H149	H	0.790902	-0.525167	-0.524800
H150	H	1.290902	-0.025167	-0.024800
