data_functionalizedCrystal
_audit_creation_method	'MofGen! by Chris Wilmer'
_symmetry_space_group_name_H-M	'P1'
_symmetry_Int_Tables_number	1
_symmetry_cell_setting	triclinic
loop_
_symmetry_equiv_pos_as_xyz
  x,y,z
_cell_length_a	13.635800
_cell_length_b	9.109307
_cell_length_c	19.551833
_cell_angle_alpha	79.353108
_cell_angle_beta	101.663477
_cell_angle_gamma	68.235001
loop_
_atom_site_label
_atom_site_type_symbol
_atom_site_fract_x
_atom_site_fract_y
_atom_site_fract_z
V1	V	2.030522	-0.227172	0.231482
O2	O	1.996019	0.009159	0.213162
O3	O	2.033029	-0.448753	0.243280
O4	O	2.001541	-0.224449	0.326334
O5	O	2.027725	-0.216698	0.129533
V6	V	2.269495	-0.198813	0.217662
O7	O	2.167268	-0.289380	0.261796
O8	O	2.357848	-0.136605	0.187348
O9	O	2.155385	0.022768	0.205864
O10	O	2.362696	-0.435143	0.235982
O11	O	2.330991	-0.209286	0.319611
O12	O	2.186873	-0.201536	0.122810
V13	V	2.530522	-0.227172	0.231482
O14	O	2.496019	0.009159	0.213162
O15	O	2.533029	-0.448753	0.243280
O16	O	2.501541	-0.224449	0.326334
O17	O	2.527725	-0.216698	0.129533
V18	V	2.769495	-0.198813	0.217662
O19	O	2.667268	-0.289380	0.261796
O20	O	2.857848	-0.136605	0.187348
O21	O	2.655385	0.022768	0.205864
O22	O	2.862696	-0.435143	0.235982
O23	O	2.830991	-0.209286	0.319611
O24	O	2.686873	-0.201536	0.122810
C25	C	1.962181	-0.502745	0.243081
C26	C	2.004841	-0.683896	0.253360
C27	C	1.922015	-0.216621	0.349023
C28	C	1.939138	-0.215861	0.426653
C29	C	2.057906	0.076752	0.206061
C30	C	2.004864	0.257901	0.195787
C31	C	2.098071	-0.209369	0.100117
C32	C	2.070566	-0.210121	0.022486
C33	C	2.462181	-0.502745	0.243081
C34	C	2.504841	-0.683896	0.253360
C35	C	2.422015	-0.216621	0.349023
C36	C	2.439138	-0.215861	0.426653
C37	C	2.039055	-0.223684	0.467170
C38	C	2.055144	-0.222970	0.540112
C39	C	1.971319	-0.214466	0.572538
C40	C	1.871385	-0.206633	0.532011
C41	C	1.855295	-0.207330	0.459069
C42	C	1.950597	-0.303070	0.697164
C43	C	1.966694	-0.302383	0.770106
C44	C	2.020942	-0.212306	0.797515
C45	C	2.059114	-0.122938	0.751977
C46	C	2.043024	-0.123636	0.679034
C47	C	1.988756	-0.213707	0.651631
C48	C	2.138311	-0.219352	0.917123
C49	C	2.154395	-0.218627	0.990065
C50	C	1.970637	-0.202307	0.981965
C51	C	1.954552	-0.203015	0.909023
C52	C	2.038395	-0.211546	0.876607
C53	C	2.557906	0.076752	0.206061
C54	C	2.504864	0.257901	0.195787
C55	C	2.598071	-0.209369	0.100117
C56	C	2.570566	-0.210121	0.022486
C57	C	2.616782	-0.777302	0.262178
C58	C	2.656884	-0.947517	0.271847
C59	C	2.585042	-1.024321	0.272693
C60	C	2.473092	-0.930902	0.263876
C61	C	2.432994	-0.760692	0.254212
C62	C	2.539058	-0.223657	0.467160
C63	C	2.555156	-0.222921	0.540099
C64	C	2.471335	-0.214401	0.572532
C65	C	2.371406	-0.206600	0.532020
C66	C	2.355306	-0.207324	0.459080
C67	C	2.565417	0.351306	0.186971
C68	C	2.515587	0.521520	0.177305
C69	C	2.405206	0.598323	0.176461
C70	C	2.344648	0.504906	0.185276
C71	C	2.394476	0.334697	0.194936
C72	C	2.472153	-0.218622	-0.009930
C73	C	2.446290	-0.219309	-0.082875
C74	C	2.518844	-0.211507	-0.123401
C75	C	2.617264	-0.203000	-0.090980
C76	C	2.643122	-0.202301	-0.018038
H77	H	1.972268	-0.653341	0.138617
H78	H	2.414608	-0.993462	0.264566
C79	C	2.751385	-0.192972	0.017618
H80	H	2.756404	-0.193664	0.066863
H81	H	2.812544	-0.285260	0.016102
H82	H	2.751989	-0.094207	-0.008113
C83	C	2.223237	0.589402	0.184356
H84	H	2.202250	0.704144	0.177349
H85	H	2.177258	0.573318	0.145733
H86	H	2.215308	0.542887	0.229433
H87	H	2.675294	-0.714791	0.261487
C88	C	2.279219	-0.197249	0.567706
H89	H	2.303134	-0.197957	0.616949
H90	H	2.214759	-0.098504	0.541986
H91	H	2.262908	-0.289557	0.566212
C92	C	2.631268	-0.233020	0.431496
H93	H	2.693072	-0.237539	0.466072
H94	H	2.652883	-0.329159	0.415324
H95	H	2.604742	-0.138106	0.391096
H96	H	2.366147	-0.226236	-0.109261
C97	C	2.309854	-0.657958	0.244501
H98	H	2.272817	-0.728085	0.246381
H99	H	2.303155	-0.606402	0.282407
H100	H	2.277611	-0.576022	0.198710
C101	C	2.048875	-0.803799	0.330597
H102	H	2.072709	-0.913912	0.327622
H103	H	2.109334	-0.791091	0.358464
H104	H	1.991732	-0.780380	0.353350
H105	H	2.655297	0.288796	0.187657
H106	H	2.136514	-0.229348	0.573108
H107	H	2.364646	0.736920	0.168594
C108	C	2.118784	-0.023842	0.782115
H109	H	2.122890	-0.036205	0.832076
H110	H	2.191344	-0.063617	0.777380
H111	H	2.078913	0.089445	0.755490
H112	H	2.074103	-0.050867	0.641959
C113	C	2.665081	-0.231519	0.584655
H114	H	2.662670	-0.229850	0.632739
H115	H	2.724245	-0.330517	0.586475
H116	H	2.676132	-0.139468	0.562241
C117	C	2.489061	-0.213623	0.652767
H118	H	2.560583	-0.219504	0.672243
H119	H	2.434717	-0.114934	0.655671
H120	H	2.482844	-0.305985	0.679891
C121	C	2.245397	-0.198776	0.414534
H122	H	2.197795	-0.193618	0.444304
H123	H	2.211221	-0.103207	0.373794
H124	H	2.259369	-0.294260	0.398036
C125	C	2.230527	-0.228719	0.881461
H126	H	2.292335	-0.233252	0.916039
H127	H	2.252132	-0.324854	0.865287
H128	H	2.204006	-0.133803	0.841063
C129	C	2.264308	-0.227230	1.034633
H130	H	2.311936	-0.232424	1.004880
H131	H	2.250351	-0.131776	1.051146
H132	H	2.298460	-0.322826	1.075367
H133	H	2.564913	0.597557	0.170130
C134	C	1.890918	-0.402152	0.667016
H135	H	1.886790	-0.389756	0.617051
H136	H	1.930775	-0.515434	0.693635
H137	H	1.818353	-0.362359	0.671753
H138	H	2.413063	-0.224975	0.023057
H139	H	2.345160	0.258656	0.202120
H140	H	2.107327	-0.230623	0.440781
C141	C	2.490394	-0.212296	-0.203632
H142	H	2.421395	-0.218495	-0.217126
H143	H	2.485833	-0.113931	-0.233749
H144	H	2.546399	-0.304983	-0.209514
C145	C	1.878413	-0.192907	1.017616
H146	H	1.816594	-0.188330	0.983033
H147	H	1.904909	-0.287796	1.058017
H148	H	1.856820	-0.096748	1.033781
H149	H	1.873194	-0.196662	0.876036
C150	C	1.924677	-0.400641	0.820185
H151	H	1.890037	-0.454350	0.793411
H152	H	1.985221	-0.480643	0.859967
H153	H	1.872819	-0.327520	0.838062
H154	H	2.617707	-1.162918	0.280563
C155	C	2.697068	-0.194437	-0.135562
H156	H	2.667570	-0.196092	-0.183642
H157	H	2.706163	-0.095460	-0.137391
H158	H	2.766709	-0.286513	-0.113162
H159	H	1.773926	-0.200948	0.426078
H160	H	2.748040	-1.023555	0.279023
H161	H	1.803134	-0.199703	0.558416
