data_functionalizedCrystal
_audit_creation_method	'MofGen! by Chris Wilmer'
_symmetry_space_group_name_H-M	'P1'
_symmetry_Int_Tables_number	1
_symmetry_cell_setting	triclinic
loop_
_symmetry_equiv_pos_as_xyz
  x,y,z
_cell_length_a	18.100771
_cell_length_b	10.686220
_cell_length_c	10.686551
_cell_angle_alpha	90.308082
_cell_angle_beta	94.074957
_cell_angle_gamma	85.331976
loop_
_atom_site_label
_atom_site_type_symbol
_atom_site_fract_x
_atom_site_fract_y
_atom_site_fract_z
Zn1	Zn	0.180545	1.970835	-0.564155
Zn2	Zn	0.314583	1.953527	-0.355710
Zn3	Zn	0.199489	1.744801	-0.370659
Zn4	Zn	0.313082	1.759970	-0.581473
O5	O	0.251925	1.857283	-0.467999
O6	O	0.191025	2.144140	-0.523001
O7	O	0.307872	1.912248	-0.182232
O8	O	0.093341	1.775680	-0.395335
O9	O	0.289503	2.131424	-0.369858
O10	O	0.079423	1.941746	-0.537496
O11	O	0.223313	1.758898	-0.193214
O12	O	0.221857	1.571213	-0.412127
O13	O	0.286945	1.801533	-0.754638
O14	O	0.305314	1.582357	-0.567012
O15	O	0.189570	1.956455	-0.741914
O16	O	0.418019	1.926956	-0.386650
O17	O	0.416916	1.784750	-0.552517
C18	C	0.265479	1.531254	-0.493071
C19	C	0.271294	1.391779	-0.503827
C20	C	0.058759	1.858952	-0.466151
C21	C	-0.023557	1.859663	-0.465363
C22	C	-0.322648	1.856615	-0.468909
C23	C	-0.300077	1.961111	-0.558334
C24	C	-0.214465	1.962343	-0.557005
C25	C	-0.174265	1.858127	-0.467151
C26	C	-0.201566	1.883486	-0.332639
C27	C	-0.287269	1.883358	-0.334163
C28	C	-0.286037	1.726756	-0.512481
C29	C	-0.200543	1.728555	-0.514330
C30	C	-0.090405	1.858979	-0.466149
C31	C	-0.406507	1.855766	-0.469902
C32	C	0.444336	1.855657	-0.469866
C33	C	0.526644	1.855080	-0.470697
C34	C	0.235977	1.882616	-0.795043
C35	C	0.229181	1.893412	-0.934410
C36	C	0.238318	2.184586	-0.442830
C37	C	0.232520	2.324063	-0.432105
C38	C	0.267754	1.832121	-0.142222
C39	C	0.274332	1.821571	-0.002835
H40	H	0.194875	1.372791	-0.362470
C41	C	-0.334325	2.090670	-0.518737
H42	H	-0.320418	2.153261	-0.573251
H43	H	-0.316762	2.108061	-0.435075
H44	H	-0.386931	2.090618	-0.523480
H45	H	0.308946	1.343044	-0.573458
C46	C	-0.190132	1.942532	-0.691348
H47	H	-0.232601	1.933663	-0.747230
H48	H	-0.157178	1.868848	-0.694038
H49	H	-0.165617	2.012888	-0.715668
H50	H	-0.323701	1.946293	-0.658564
C51	C	0.169935	1.987672	-0.999302
H52	H	0.172983	1.982807	-1.087601
H53	H	0.178301	2.070250	-0.971513
H54	H	0.121968	1.968092	-0.978839
C55	C	-0.191979	2.093196	-0.516286
H56	H	-0.235192	2.145804	-0.500480
H57	H	-0.167125	2.128796	-0.581133
H58	H	-0.159757	2.085717	-0.442097
H59	H	-0.310767	1.978011	-0.298345
C60	C	-0.306623	1.784284	-0.240296
H61	H	-0.262121	1.744299	-0.201393
H62	H	-0.334284	1.723472	-0.283426
H63	H	-0.335393	1.823974	-0.178138
H64	H	-0.174781	1.809716	-0.263242
C65	C	-0.177259	2.010436	-0.283018
H66	H	-0.150482	2.048144	-0.344074
H67	H	-0.146382	1.997379	-0.207816
H68	H	-0.219925	2.064121	-0.266577
H69	H	-0.310015	1.701189	-0.609929
C70	C	0.333588	1.727337	-0.937953
H71	H	0.361009	1.683726	-0.999565
H72	H	0.310006	1.668989	-0.890782
H73	H	0.366321	1.771176	-0.883489
C74	C	-0.176685	1.702302	-0.648064
H75	H	-0.150827	1.770026	-0.675054
H76	H	-0.219429	1.693747	-0.703382
H77	H	-0.145024	1.626910	-0.648226
C78	C	-0.162961	1.619490	-0.433171
H79	H	-0.130612	1.651695	-0.369161
H80	H	-0.135223	1.562820	-0.484224
H81	H	-0.199870	1.576684	-0.396030
H82	H	-0.299842	1.649056	-0.447444
