data_functionalizedCrystal
_audit_creation_method	'MofGen! by Chris Wilmer'
_symmetry_space_group_name_H-M	'P1'
_symmetry_Int_Tables_number	1
_symmetry_cell_setting	triclinic
loop_
_symmetry_equiv_pos_as_xyz
  x,y,z
_cell_length_a	15.995350
_cell_length_b	15.995350
_cell_length_c	14.472310
_cell_angle_alpha	90.001162
_cell_angle_beta	89.990621
_cell_angle_gamma	83.492375
loop_
_atom_site_label
_atom_site_type_symbol
_atom_site_fract_x
_atom_site_fract_y
_atom_site_fract_z
O1	O	1.110997	0.107921	-0.076758
O2	O	0.867221	0.121248	-0.076776
O3	O	0.995773	-0.007303	-0.076766
O4	O	0.982445	0.236472	-0.076769
O5	O	0.995740	-0.007296	0.076916
O6	O	0.867188	0.121256	0.076906
O7	O	1.110963	0.107928	0.076924
Cu8	Cu	0.989073	0.114593	0.090947
Cu9	Cu	0.989112	0.114584	-0.090800
O10	O	0.982412	0.236480	0.076913
C11	C	0.836010	0.120701	0.000062
C12	C	0.743060	0.119049	0.000055
C13	C	0.405312	0.113117	0.000074
C14	C	0.452746	0.021565	0.000418
C15	C	0.549436	0.023217	0.000065
C16	C	0.572873	0.116060	0.000065
C17	C	0.531804	0.161212	-0.087692
C18	C	0.435169	0.158912	-0.087759
C19	C	0.434792	0.160812	0.087007
C20	C	0.531737	0.160790	0.088160
C21	C	0.667570	0.117727	0.000057
C22	C	0.310614	0.111452	0.000076
C23	C	0.995205	-0.038494	0.000073
C24	C	0.993553	-0.131444	0.000068
C25	C	0.987621	-0.469192	0.000071
C26	C	0.896069	-0.421758	-0.000281
C27	C	0.897721	-0.325068	0.000066
C28	C	0.990564	-0.301631	0.000069
C29	C	1.035701	-0.342705	0.087831
C30	C	1.033401	-0.439340	0.087904
C31	C	1.035330	-0.439707	-0.086861
C32	C	1.035309	-0.342762	-0.088021
C33	C	0.992231	-0.206934	0.000071
C34	C	0.985956	-0.563890	0.000075
C35	C	1.142175	0.108476	0.000083
C36	C	1.235125	0.110127	0.000084
C37	C	0.982980	0.267671	0.000072
C38	C	0.984631	0.360621	0.000071
N39	N	0.989051	0.114598	0.218778
N40	N	0.989140	0.114572	-0.218631
C41	C	0.989111	0.114581	0.592869
C42	C	0.920095	0.183135	0.553698
C43	C	0.920254	0.183385	0.446610
C44	C	0.989081	0.114590	0.407278
C45	C	1.076445	0.133671	0.446122
C46	C	1.076057	0.134159	0.553243
C47	C	0.971542	0.026741	0.553398
C48	C	0.969538	0.027327	0.446270
C49	C	0.989069	0.114593	0.302390
C50	C	0.989128	0.114579	0.697757
H51	H	0.545930	0.229421	-0.090955
H52	H	1.002307	-0.315516	-0.152945
C53	C	0.887327	0.001971	0.589925
N54	N	0.823892	-0.016677	0.617436
H55	H	0.905272	0.012845	0.420883
H56	H	1.000459	-0.457639	0.153505
C57	C	1.126519	-0.482619	-0.087659
N58	N	1.195199	-0.514946	-0.088254
C59	C	1.126780	-0.322016	-0.095174
N60	N	1.195681	-0.306394	-0.100553
C61	C	1.147487	0.068013	0.411700
N62	N	1.200995	0.018558	0.385771
H63	H	0.855314	0.172016	0.420349
H64	H	0.854945	0.171953	0.579481
H65	H	0.931159	0.247952	0.580608
C66	C	0.993308	-0.304366	0.176059
N67	N	0.961371	-0.275490	0.242511
H68	H	1.092297	0.197002	0.419285
H69	H	0.402921	0.226128	-0.091741
H70	H	0.434210	-0.015027	0.063352
C71	C	0.568590	0.116237	0.175868
N72	N	0.596346	0.082671	0.241928
H73	H	0.577852	-0.012275	0.062973
H74	H	0.862239	-0.296649	-0.062846
C75	C	0.849430	-0.287416	0.085196
N76	N	0.813056	-0.259058	0.149322
H77	H	1.016541	-0.026079	0.419500
H78	H	0.560193	0.129845	-0.153002
C79	C	1.039530	-0.042181	0.587625
N80	N	1.090741	-0.094086	0.613411
C81	C	0.935416	0.271445	0.411975
N82	N	0.946841	0.337775	0.385890
H83	H	0.433166	-0.014865	-0.062168
C84	C	0.846844	-0.448198	0.084281
N85	N	0.809773	-0.468105	0.147981
H86	H	0.577308	-0.012521	-0.062951
C87	C	1.096957	0.220708	0.586987
N88	N	1.112692	0.285901	0.612399
H89	H	1.129018	0.086196	0.579154
C90	C	0.410453	0.114412	-0.176376
N91	N	0.391842	0.080889	-0.243123
C92	C	0.552507	0.252252	0.095333
N93	N	0.568155	0.321141	0.100733
C94	C	0.407039	0.120375	0.176870
N95	N	0.386137	0.089909	0.244550
C96	C	0.846645	-0.446806	-0.085298
N97	N	0.809417	-0.465681	-0.149334
C98	C	0.391881	0.252001	0.087811
N99	N	0.359555	0.320681	0.088411
H100	H	1.005412	-0.460250	-0.153379
C101	C	1.127842	-0.323605	0.092258
N102	N	1.197241	-0.309212	0.095595
C103	C	1.124204	-0.482908	0.093301
N104	N	1.192595	-0.515719	0.097372
