data_functionalizedCrystal
_audit_creation_method	'MofGen! by Chris Wilmer'
_symmetry_space_group_name_H-M	'P1'
_symmetry_Int_Tables_number	1
_symmetry_cell_setting	triclinic
loop_
_symmetry_equiv_pos_as_xyz
  x,y,z
_cell_length_a	14.519731
_cell_length_b	12.996460
_cell_length_c	10.654550
_cell_angle_alpha	90.000114
_cell_angle_beta	84.086892
_cell_angle_gamma	90.006310
loop_
_atom_site_label
_atom_site_type_symbol
_atom_site_fract_x
_atom_site_fract_y
_atom_site_fract_z
O1	O	1.224713	0.085569	0.164742
O2	O	1.724713	0.585569	0.664742
O3	O	0.956339	0.085570	0.184101
O4	O	1.456339	0.585570	0.684101
O5	O	1.096696	0.085563	-0.008377
O6	O	1.596696	0.585563	0.491623
O7	O	1.084355	0.085576	0.357219
O8	O	1.584355	0.585576	0.857219
O9	O	1.096678	-0.085571	-0.008366
O10	O	1.596678	0.414429	0.491634
O11	O	0.956321	-0.085563	0.184112
O12	O	1.456321	0.414437	0.684112
O13	O	1.224694	-0.085565	0.164753
O14	O	1.724694	0.414435	0.664753
Cu15	Cu	1.090506	-0.101190	0.174433
Cu16	Cu	1.590506	0.398810	0.674433
Cu17	Cu	1.090527	0.101195	0.174420
Cu18	Cu	1.590527	0.601195	0.674420
O19	O	1.084337	-0.085558	0.357230
O20	O	1.584337	0.414442	0.857230
C21	C	0.921965	0.000004	0.183199
C22	C	1.421965	0.500004	0.683199
C23	C	0.819571	0.000004	0.180481
C24	C	1.319571	0.500004	0.680481
C25	C	0.736416	0.000008	0.178272
C26	C	1.236416	0.500008	0.678272
C27	C	0.632093	0.000008	0.175513
C28	C	1.132093	0.500008	0.675513
C29	C	0.548942	0.000008	0.173322
C30	C	1.048942	0.500008	0.673322
C31	C	0.444612	0.000010	0.170563
C32	C	0.944612	0.500010	0.670563
N33	N	1.090497	-0.243537	0.174442
N34	N	1.590497	0.256463	0.674442
C35	C	1.090502	-0.336643	0.174445
C36	C	1.590502	0.163357	0.674445
C37	C	1.090510	-0.453448	0.174437
C38	C	1.590510	0.046552	0.674437
C39	C	1.090522	-0.546547	0.174423
C40	C	1.590522	-0.046547	0.674423
C41	C	1.090531	-0.663359	0.174416
C42	C	1.590531	-0.163359	0.674416
C43	C	1.259068	0.000004	0.165655
C44	C	1.759068	0.500004	0.665655
C45	C	1.361462	0.000010	0.168373
C46	C	1.861462	0.500010	0.668373
C47	C	1.095781	-0.000003	-0.055160
C48	C	1.595781	0.499997	0.444840
C49	C	1.093070	-0.000002	-0.194578
C50	C	1.593070	0.499998	0.305422
N51	N	1.090543	0.243543	0.174402
N52	N	1.590543	0.743543	0.674402
C53	C	1.175710	-0.000002	-0.274850
C54	C	1.675710	0.499998	0.225150
C55	C	1.173157	0.000011	-0.405846
C56	C	1.673157	0.500011	0.094154
C57	C	1.005317	0.000019	-0.376286
C58	C	1.505317	0.500019	0.123714
C59	C	1.007871	0.000014	-0.245293
C60	C	1.507871	0.500014	0.254707
C61	C	1.270494	0.059972	-0.602621
C62	C	1.770494	0.559972	-0.102621
C63	C	1.353139	0.059954	-0.682897
C64	C	1.853139	0.559954	-0.182897
C65	C	1.428052	-0.000019	-0.653434
C66	C	1.928052	0.499981	-0.153434
C67	C	1.420324	-0.059998	-0.543697
C68	C	1.920324	0.440002	-0.043697
C69	C	1.337678	-0.059990	-0.463426
C70	C	1.837678	0.440010	0.036574
C71	C	1.262768	0.000007	-0.492888
C72	C	1.762768	0.500007	0.007112
C73	C	0.910540	-0.059956	-0.048517
C74	C	1.410540	0.440044	0.451483
C75	C	0.827893	-0.059954	0.031756
C76	C	1.327893	0.440046	0.531756
C77	C	0.752972	0.000012	0.002297
C78	C	1.252972	0.500012	0.502297
C79	C	0.760690	0.059976	-0.107443
C80	C	1.260690	0.559976	0.392557
C81	C	0.843337	0.059975	-0.187716
C82	C	1.343337	0.559975	0.312284
C83	C	0.918259	0.000011	-0.158248
C84	C	1.418259	0.500011	0.341752
C85	C	1.085252	0.000011	0.404014
C86	C	1.585252	0.500011	0.904014
C87	C	1.087963	0.000016	0.543432
C88	C	1.587963	0.500016	1.043432
H89	H	1.245085	-0.000012	-0.233562
H90	H	1.745085	0.499988	0.266438
H91	H	0.699675	0.108784	-0.131447
H92	H	1.199675	0.608784	0.368553
H93	H	1.331385	-0.108827	-0.374083
H94	H	1.831385	0.391173	0.125917
H95	H	0.935950	0.000030	-0.417595
H96	H	1.435950	0.500030	0.082405
H97	H	1.481325	-0.108841	-0.519726
H98	H	1.981325	0.391159	-0.019726
H99	H	1.209503	0.108821	-0.626612
H100	H	1.709503	0.608821	-0.126612
H101	H	1.495343	-0.000031	-0.718805
H102	H	1.995343	0.499969	-0.218805
H103	H	0.685672	-0.000006	0.067658
H104	H	1.185672	0.499994	0.567658
H105	H	1.359425	0.108797	-0.772244
H106	H	1.859425	0.608797	-0.272244
H107	H	0.821609	-0.108794	0.121105
H108	H	1.321609	0.391206	0.621105
H109	H	0.849622	0.108816	-0.277063
H110	H	1.349622	0.608816	0.222937
H111	H	0.971553	-0.108766	-0.024501
H112	H	1.471553	0.391234	0.475499
