data_functionalizedCrystal
_audit_creation_method	'MofGen! by Chris Wilmer'
_symmetry_space_group_name_H-M	'P1'
_symmetry_Int_Tables_number	1
_symmetry_cell_setting	triclinic
loop_
_symmetry_equiv_pos_as_xyz
  x,y,z
_cell_length_a	23.532407
_cell_length_b	23.532407
_cell_length_c	9.798715
_cell_angle_alpha	89.992208
_cell_angle_beta	89.999003
_cell_angle_gamma	82.848712
loop_
_atom_site_label
_atom_site_type_symbol
_atom_site_fract_x
_atom_site_fract_y
_atom_site_fract_z
O1	O	0.755259	0.069134	-0.113419
O2	O	1.255259	0.569134	0.386581
O3	O	0.589396	0.079137	-0.113442
O4	O	1.089396	0.579137	0.386558
O5	O	0.677329	-0.008796	-0.113405
O6	O	1.177329	0.491204	0.386595
O7	O	0.667326	0.157067	-0.113456
O8	O	1.167326	0.657067	0.386544
O9	O	0.677322	-0.008796	0.113577
O10	O	1.177322	0.491204	0.613577
O11	O	0.589389	0.079137	0.113540
O12	O	1.089389	0.579137	0.613540
O13	O	0.755252	0.069134	0.113564
O14	O	1.255252	0.569134	0.613564
Zn15	Zn	0.672320	0.074135	0.149590
Zn16	Zn	1.172320	0.574135	0.649590
Zn17	Zn	0.672328	0.074136	-0.149469
Zn18	Zn	1.172328	0.574136	0.350531
O19	O	0.667319	0.157067	0.113526
O20	O	1.167319	0.657067	0.613526
C21	C	0.568176	0.078882	0.000046
C22	C	1.068176	0.578882	0.500046
C23	C	0.504959	0.078116	0.000038
C24	C	1.004959	0.578116	0.500038
C25	C	0.238792	0.022921	0.000093
C26	C	0.738792	0.522921	0.500093
C27	C	0.298192	0.023632	0.000092
C28	C	0.798192	0.523632	0.500092
O29	O	0.334937	-0.020153	0.000153
O30	O	0.834937	0.479847	0.500153
N31	N	0.320818	0.075909	0.000067
N32	N	0.820818	0.575909	0.500067
C33	C	0.284041	0.127477	0.000056
C34	C	0.784041	0.627477	0.500056
O35	O	0.308740	0.172007	0.000035
O36	O	0.808740	0.672007	0.500035
C37	C	0.224642	0.126765	0.000066
C38	C	0.724642	0.626765	0.500066
C39	C	0.202019	0.074485	0.000078
C40	C	0.702019	0.574485	0.500078
C41	C	0.216169	-0.029354	0.000106
C42	C	0.716169	0.470646	0.500106
C43	C	0.156772	-0.030066	0.000104
C44	C	0.656772	0.469934	0.500104
C45	C	0.119999	0.021499	0.000089
C46	C	0.619999	0.521499	0.500089
C47	C	0.142623	0.073774	0.000076
C48	C	0.642623	0.573774	0.500076
C49	C	0.187865	0.178333	0.000065
C50	C	0.687865	0.678333	0.500065
C51	C	0.128463	0.177616	0.000076
C52	C	0.628463	0.677616	0.500076
C53	C	0.105840	0.125336	0.000088
C54	C	0.605840	0.625336	0.500088
C55	C	0.046454	0.124627	0.000058
C56	C	0.546454	0.624627	0.500058
N57	N	0.023828	0.072351	0.000084
N58	N	0.523828	0.572351	0.500084
C59	C	0.060600	0.020787	0.000099
C60	C	0.560600	0.520787	0.500099
C61	C	0.408783	0.128968	0.000036
C62	C	0.908783	0.628968	0.500036
C63	C	0.468181	0.129681	0.000016
C64	C	0.968181	0.629681	0.500016
C65	C	0.482328	0.025836	0.000055
C66	C	0.982328	0.525836	0.500055
C67	C	0.422929	0.025124	0.000066
C68	C	0.922929	0.525124	0.500066
C69	C	0.386157	0.076692	0.000062
C70	C	0.886157	0.576692	0.500062
C71	C	-0.064136	0.019297	0.000094
C72	C	0.435864	0.519297	0.500094
C73	C	-0.123538	0.018590	0.000086
C74	C	0.376462	0.518590	0.500086
C75	C	-0.137680	0.122435	0.000054
C76	C	0.362320	0.622435	0.500054
C77	C	-0.078284	0.123142	0.000055
C78	C	0.421716	0.623142	0.500055
C79	C	-0.041512	0.071568	0.000079
C80	C	0.458488	0.571568	0.500079
O81	O	0.009675	0.168390	0.000003
O82	O	0.509675	0.668390	0.500003
O83	O	0.035892	-0.023737	0.000137
O84	O	0.535892	0.476263	0.500137
C85	C	0.677071	-0.030012	0.000090
C86	C	1.177071	0.469988	0.500090
C87	C	0.676305	-0.093229	0.000100
C88	C	1.176305	0.406771	0.500100
C89	C	0.723538	-0.492332	0.000032
C90	C	1.223538	0.007668	0.500032
C91	C	0.722827	-0.551733	0.000022
C92	C	1.222827	-0.051733	0.500022
O93	O	0.766613	-0.588477	-0.000022
O94	O	1.266613	-0.088477	0.499978
N95	N	0.670551	-0.574359	0.000015
N96	N	1.170551	-0.074359	0.500015
C97	C	0.618982	-0.537581	0.000005
C98	C	1.118982	-0.037581	0.500005
O99	O	0.574452	-0.562281	-0.000002
O100	O	1.074452	-0.062281	0.499998
C101	C	0.619695	-0.478182	0.000006
C102	C	1.119695	0.021818	0.500006
C103	C	0.671974	-0.455559	0.000026
C104	C	1.171974	0.044441	0.500026
C105	C	0.775814	-0.469709	0.000051
C106	C	1.275814	0.030291	0.500051
C107	C	0.776525	-0.410313	0.000064
C108	C	1.276525	0.089687	0.500064
C109	C	0.724961	-0.373540	0.000058
C110	C	1.224961	0.126460	0.500058
C111	C	0.672685	-0.396163	0.000039
C112	C	1.172685	0.103837	0.500039
C113	C	0.568127	-0.441406	-0.000014
C114	C	1.068127	0.058594	0.499986
C115	C	0.568843	-0.382003	-0.000014
C116	C	1.068843	0.117997	0.499986
C117	C	0.621123	-0.359381	0.000006
C118	C	1.121123	0.140619	0.500006
C119	C	0.621832	-0.299994	0.000047
C120	C	1.121832	0.200006	0.500047
N121	N	0.674109	-0.277368	0.000053
N122	N	1.174109	0.222632	0.500053
C123	C	0.725673	-0.314141	0.000059
C124	C	1.225673	0.185859	0.500059
C125	C	0.617491	-0.662324	0.000002
C126	C	1.117491	-0.162324	0.500002
C127	C	0.616778	-0.721722	0.000011
C128	C	1.116778	-0.221722	0.500011
C129	C	0.720623	-0.735869	0.000024
C130	C	1.220623	-0.235869	0.500024
C131	C	0.721335	-0.676470	0.000025
C132	C	1.221335	-0.176470	0.500025
C133	C	0.669767	-0.639698	0.000008
C134	C	1.169767	-0.139698	0.500008
C135	C	0.727163	-0.189404	0.000087
C136	C	1.227163	0.310596	0.500087
C137	C	0.727869	-0.130002	0.000106
C138	C	1.227869	0.369998	0.500106
C139	C	0.624025	-0.115860	0.000085
C140	C	1.124025	0.384140	0.500085
C141	C	0.623318	-0.175257	0.000074
C142	C	1.123318	0.324743	0.500074
C143	C	0.674891	-0.212028	0.000070
C144	C	1.174891	0.287972	0.500070
O145	O	0.578069	-0.263215	0.000085
O146	O	1.078069	0.236785	0.500085
O147	O	0.770196	-0.289433	0.000049
O148	O	1.270196	0.210567	0.500049
C149	C	0.776472	0.069389	0.000072
C150	C	1.276472	0.569389	0.500072
C151	C	0.839689	0.070155	0.000071
C152	C	1.339689	0.570155	0.500071
C153	C	0.667577	0.178283	0.000029
C154	C	1.167577	0.678283	0.500029
C155	C	0.668343	0.241500	0.000009
C156	C	1.168343	0.741500	0.500009
N157	N	0.672318	0.074135	0.353690
N158	N	1.172318	0.574135	0.853690
N159	N	0.672334	0.074132	-0.353568
N160	N	1.172334	0.574132	0.146432
C161	C	0.709241	0.037054	0.421482
C162	C	1.209241	0.537054	0.921482
C163	C	0.709250	0.037052	0.578645
C164	C	1.209250	0.537052	1.078645
H165	H	0.246104	-0.071347	0.000123
H166	H	0.746104	0.428653	0.500123
H167	H	0.640723	0.105882	0.588142
H168	H	1.140723	0.605882	1.088142
H169	H	0.762610	-0.765821	0.000024
H170	H	1.262610	-0.265821	0.500024
C171	C	0.568000	-0.075994	-0.000144
C172	C	1.068000	0.424006	0.499856
C173	C	0.536505	-0.086174	-0.116920
C174	C	1.036505	0.413826	0.383080
C175	C	0.484889	-0.049464	-0.117182
C176	C	0.984889	0.450536	0.382818
H177	H	0.575836	-0.037360	-0.000212
H178	H	1.075836	0.462640	0.499788
H179	H	0.546510	-0.082829	0.078958
H180	H	1.046510	0.417171	0.578958
H181	H	0.557991	-0.079334	-0.196001
H182	H	1.057991	0.420666	0.303999
H183	H	0.528654	-0.124801	-0.116877
H184	H	1.028654	0.375199	0.383123
H185	H	0.463398	-0.056299	-0.038080
H186	H	0.963398	0.443701	0.461920
H187	H	0.492731	-0.010832	-0.117245
H188	H	0.992731	0.489168	0.382755
H189	H	0.463511	-0.056369	-0.196406
H190	H	0.963511	0.443631	0.303594
C191	C	-0.177586	0.178434	-0.000240
C192	C	0.322414	0.678434	0.499760
C193	C	-0.167423	0.209932	-0.117040
C194	C	0.332577	0.709932	0.382960
C195	C	-0.204180	0.261517	-0.117357
C196	C	0.295820	0.761517	0.382643
H197	H	-0.170794	0.199951	0.078817
H198	H	0.329206	0.699951	0.578817
H199	H	-0.216209	0.170541	-0.000308
H200	H	0.283791	0.670541	0.499692
H201	H	-0.128810	0.217826	-0.116960
H202	H	0.371190	0.717826	0.383040
H203	H	-0.174218	0.188432	-0.196116
H204	H	0.325782	0.688432	0.303884
H205	H	-0.242803	0.253624	-0.117424
H206	H	0.257197	0.753624	0.382576
H207	H	-0.197386	0.283029	-0.038294
H208	H	0.302614	0.783029	0.461706
H209	H	-0.197294	0.282893	-0.196610
H210	H	0.302706	0.782893	0.303390
H211	H	-0.059864	0.165712	0.000044
H212	H	0.440136	0.665712	0.500044
H213	H	0.740864	0.005307	0.636944
H214	H	1.240864	0.505307	1.136944
C215	C	0.492657	0.186486	-0.000229
C216	C	0.992657	0.686486	0.499771
C217	C	0.473923	0.217638	-0.117002
C218	C	0.973923	0.717638	0.382998
C219	C	0.496448	0.269975	-0.117259
C220	C	0.996448	0.769975	0.382741
H221	H	0.533298	0.179615	-0.000299
H222	H	1.033298	0.679615	0.499701
H223	H	0.479994	0.207733	0.078875
H224	H	0.979994	0.707733	0.578875
H225	H	0.486589	0.196395	-0.196086
H226	H	0.986589	0.696395	0.303914
H227	H	0.433285	0.224524	-0.116957
H228	H	0.933285	0.724524	0.383043
H229	H	0.483785	0.291222	-0.038155
H230	H	0.983785	0.791222	0.461845
H231	H	0.537088	0.263098	-0.117324
H232	H	1.037088	0.763098	0.382676
H233	H	0.483736	0.291120	-0.196480
H234	H	0.983736	0.791120	0.303520
C235	C	0.831865	-0.509534	0.000134
C236	C	1.331865	-0.009534	0.500134
C237	C	0.877790	-0.476995	0.000184
C238	C	1.377790	0.023005	0.500184
C239	C	0.929437	-0.513658	0.000291
C240	C	1.429437	-0.013658	0.500291
H241	H	0.833838	-0.533011	-0.078995
H242	H	1.333838	-0.033011	0.421005
H243	H	0.833776	-0.532994	0.079323
H244	H	1.333776	-0.032994	0.579323
H245	H	0.875880	-0.453545	-0.078998
H246	H	1.375880	0.046455	0.421002
H247	H	0.875836	-0.453519	0.079306
H248	H	1.375836	0.046481	0.579306
H249	H	0.931348	-0.537117	0.079480
H250	H	1.431348	-0.037117	0.579480
H251	H	0.931404	-0.537133	-0.078839
H252	H	1.431404	-0.037133	0.421161
H253	H	0.960603	-0.491586	0.000337
H254	H	1.460603	0.008414	0.500337
C255	C	0.751320	-0.005356	0.343781
C256	C	1.251320	0.494644	0.843781
C257	C	0.742265	-0.061253	0.378392
C258	C	1.242265	0.438747	0.878392
C259	C	0.781014	-0.100331	0.306815
C260	C	1.281014	0.399669	0.806815
H261	H	0.789358	0.000446	0.367044
H262	H	1.289358	0.500446	0.867044
H263	H	0.745700	0.000247	0.248476
H264	H	1.245700	0.500247	0.748476
H265	H	0.747890	-0.066853	0.473676
H266	H	1.247890	0.433147	0.973676
H267	H	0.704235	-0.067072	0.355126
H268	H	1.204235	0.432928	0.855126
H269	H	0.775394	-0.094728	0.211510
H270	H	1.275394	0.405272	0.711510
H271	H	0.819049	-0.094524	0.330083
H272	H	1.319049	0.405476	0.830083
H273	H	0.774872	-0.138261	0.330279
H274	H	1.274872	0.361739	0.830279
H275	H	-0.034204	-0.022699	0.000113
H276	H	0.465796	0.477301	0.500113
H277	H	0.770443	-0.111587	0.000126
H278	H	1.270443	0.388413	0.500126
H279	H	0.640711	0.105878	0.412001
H280	H	1.140711	0.605878	0.912001
C281	C	0.783217	-0.229227	0.000160
C282	C	1.283217	0.270773	0.500160
C283	C	0.829144	-0.196690	0.000216
C284	C	1.329144	0.303310	0.500216
C285	C	0.880789	-0.233355	0.000311
C286	C	1.380789	0.266645	0.500311
H287	H	0.785189	-0.252701	-0.078974
H288	H	1.285189	0.247299	0.421026
H289	H	0.785129	-0.252690	0.079344
H290	H	1.285129	0.247310	0.579344
H291	H	0.827234	-0.173237	-0.078959
H292	H	1.327234	0.326763	0.421041
H293	H	0.827192	-0.173218	0.079345
H294	H	1.327192	0.326782	0.579345
H295	H	0.882701	-0.256818	0.079494
H296	H	1.382701	0.243182	0.579494
H297	H	0.882755	-0.256827	-0.078825
H298	H	1.382755	0.243173	0.421175
H299	H	0.911957	-0.211284	0.000362
H300	H	1.411957	0.288716	0.500362
C301	C	0.132326	-0.086886	0.000208
C302	C	0.632326	0.413114	0.500208
C303	C	0.177253	-0.131885	0.000263
C304	C	0.677253	0.368115	0.500263
C305	C	0.154761	-0.184239	0.000385
C306	C	0.654761	0.315761	0.500385
H307	H	0.109457	-0.089413	-0.078917
H308	H	0.609457	0.410587	0.421083
H309	H	0.109469	-0.089353	0.079400
H310	H	0.609469	0.410647	0.579400
H311	H	0.200101	-0.129420	-0.078922
H312	H	0.700101	0.370580	0.421078
H313	H	0.200127	-0.129378	0.079382
H314	H	0.700127	0.370622	0.579382
H315	H	0.131903	-0.186706	0.079577
H316	H	0.631903	0.313294	0.579577
H317	H	0.131891	-0.186760	-0.078742
H318	H	0.631891	0.313240	0.421258
H319	H	0.185239	-0.214777	0.000435
H320	H	0.685239	0.285223	0.500435
H321	H	0.580747	-0.193677	0.000095
H322	H	1.080747	0.306323	0.500095
C323	C	0.368794	0.184918	-0.000207
C324	C	0.868794	0.684918	0.499793
C325	C	0.334270	0.187537	-0.116966
C326	C	0.834270	0.687537	0.383034
C327	C	0.297424	0.239065	-0.117227
C328	C	0.797424	0.739065	0.382773
H329	H	0.390710	0.216197	-0.000297
H330	H	0.890710	0.716197	0.499703
H331	H	0.345295	0.186810	0.078906
H332	H	0.845295	0.686810	0.578906
H333	H	0.357767	0.185650	-0.196059
H334	H	0.857767	0.685650	0.303941
H335	H	0.312342	0.156270	-0.116901
H336	H	0.812342	0.656270	0.383099
H337	H	0.273924	0.240957	-0.038114
H338	H	0.773924	0.740957	0.461886
H339	H	0.319344	0.270340	-0.117314
H340	H	0.819344	0.770340	0.382686
H341	H	0.273991	0.240847	-0.196440
H342	H	0.773991	0.740847	0.303560
H343	H	0.574207	-0.740135	0.000018
H344	H	1.074207	-0.240135	0.500018
H345	H	0.763906	-0.658055	0.000040
H346	H	1.263906	-0.158055	0.500040
C347	C	-0.147988	-0.038232	0.000173
C348	C	0.352012	0.461768	0.500173
C349	C	-0.103066	-0.083236	0.000227
C350	C	0.396934	0.416764	0.500227
C351	C	-0.125565	-0.135586	0.000327
C352	C	0.374435	0.364414	0.500327
H353	H	-0.170855	-0.040752	-0.078959
H354	H	0.329145	0.459248	0.421041
H355	H	-0.170850	-0.040700	0.079359
H356	H	0.329150	0.459300	0.579359
H357	H	-0.080214	-0.080769	-0.078951
H358	H	0.419786	0.419231	0.421049
H359	H	-0.080195	-0.080735	0.079352
H360	H	0.419805	0.419265	0.579352
H361	H	-0.148427	-0.138054	0.079513
H362	H	0.351573	0.361946	0.579513
H363	H	-0.148432	-0.138100	-0.078806
H364	H	0.351568	0.361900	0.421194
H365	H	-0.095089	-0.166127	0.000376
H366	H	0.404911	0.333873	0.500376
C367	C	0.561516	-0.622374	-0.000277
C368	C	1.061516	-0.122374	0.499723
C369	C	0.558880	-0.587862	-0.117069
C370	C	1.058880	-0.087862	0.382931
C371	C	0.507322	-0.551062	-0.117383
C372	C	1.007322	-0.051062	0.382617
H373	H	0.559576	-0.598859	0.078786
H374	H	1.059576	-0.098859	0.578786
H375	H	0.530268	-0.644341	-0.000353
H376	H	1.030268	-0.144341	0.499647
H377	H	0.590119	-0.565896	-0.116981
H378	H	1.090119	-0.065896	0.383019
H379	H	0.560810	-0.611361	-0.196150
H380	H	1.060810	-0.111361	0.303850
H381	H	0.476073	-0.573029	-0.117459
H382	H	0.976073	-0.073029	0.382541
H383	H	0.505386	-0.527551	-0.038316
H384	H	1.005386	-0.027551	0.461684
H385	H	0.505524	-0.527645	-0.196631
H386	H	1.005524	-0.027645	0.303369
H387	H	0.404515	-0.017447	0.000076
H388	H	0.904515	0.482553	0.500076
H389	H	0.512280	-0.016150	0.000068
H390	H	1.012280	0.483850	0.500068
H391	H	0.206274	0.220904	0.000049
H392	H	0.706274	0.720904	0.500049
C393	C	0.088634	0.233667	-0.000005
C394	C	0.588634	0.733667	0.499995
C395	C	0.121165	0.279599	-0.000053
C396	C	0.621165	0.779599	0.499947
C397	C	0.084496	0.331241	-0.000151
C398	C	0.584496	0.831241	0.499849
H399	H	0.065153	0.235631	0.079125
H400	H	0.565153	0.735631	0.579125
H401	H	0.065177	0.235582	-0.079193
H402	H	0.565177	0.735582	0.420807
H403	H	0.144611	0.277685	0.079127
H404	H	0.644611	0.777685	0.579127
H405	H	0.144644	0.277654	-0.079177
H406	H	0.644644	0.777654	0.420823
H407	H	0.061039	0.333155	-0.079339
H408	H	0.561039	0.833155	0.420661
H409	H	0.061017	0.333198	0.078980
H410	H	0.561017	0.833198	0.578980
H411	H	0.106563	0.362411	-0.000196
H412	H	0.606563	0.862411	0.499804
H413	H	0.819097	-0.391900	0.000075
H414	H	1.319097	0.108100	0.500075
H415	H	0.525555	-0.459814	-0.000038
H416	H	1.025555	0.040186	0.499962
H417	H	0.526850	-0.352065	-0.000030
H418	H	1.026850	0.147935	0.499970
