data_functionalizedCrystal
_audit_creation_method	'MofGen! by Chris Wilmer'
_symmetry_space_group_name_H-M	'P1'
_symmetry_Int_Tables_number	1
_symmetry_cell_setting	triclinic
loop_
_symmetry_equiv_pos_as_xyz
  x,y,z
_cell_length_a	16.959455
_cell_length_b	19.077068
_cell_length_c	19.076919
_cell_angle_alpha	85.529249
_cell_angle_beta	87.722556
_cell_angle_gamma	92.325375
loop_
_atom_site_label
_atom_site_type_symbol
_atom_site_fract_x
_atom_site_fract_y
_atom_site_fract_z
Zn1	Zn	-1.176470	0.296719	-0.409918
Zn2	Zn	-0.676470	0.796719	0.090082
Zn3	Zn	-1.176372	0.409872	-0.296762
Zn4	Zn	-0.676372	0.909872	0.203238
Zn5	Zn	-1.049827	0.291999	-0.292040
Zn6	Zn	-0.549827	0.791999	0.207960
Zn7	Zn	-1.038717	0.414565	-0.414598
Zn8	Zn	-0.538717	0.914565	0.085402
O9	O	-1.110346	0.353289	-0.353330
O10	O	-0.610346	0.853289	0.146670
O11	O	-1.287066	0.311740	-0.394925
O12	O	-0.787066	0.811740	0.105075
O13	O	-1.164194	0.390297	-0.197489
O14	O	-0.664194	0.890297	0.302511
O15	O	-1.071316	0.193976	-0.303742
O16	O	-0.571316	0.693976	0.196258
O17	O	-1.286995	0.394873	-0.311790
O18	O	-0.786995	0.894873	0.188210
O19	O	-1.164361	0.197444	-0.390346
O20	O	-0.664361	0.697444	0.109654
O21	O	-1.071222	0.303696	-0.194020
O22	O	-0.571222	0.803696	0.305980
O23	O	-0.937743	0.308246	-0.308280
O24	O	-0.437743	0.808246	0.191720
O25	O	-1.052382	0.402871	-0.512624
O26	O	-0.552382	0.902871	-0.012624
O27	O	-0.929581	0.398295	-0.398323
O28	O	-0.429581	0.898295	0.101677
O29	O	-1.153588	0.316290	-0.509185
O30	O	-0.653588	0.816290	-0.009185
O31	O	-1.153422	0.509144	-0.316328
O32	O	-0.653422	1.009144	0.183672
O33	O	-1.052287	0.512591	-0.402902
O34	O	-0.552287	1.012591	0.097098
C35	C	-0.904983	0.353268	-0.353298
C36	C	-0.404983	0.853268	0.146702
C37	C	-0.817125	0.353277	-0.353301
C38	C	-0.317125	0.853277	0.146699
C39	C	-0.780077	0.306331	-0.306488
C40	C	-0.280077	0.806331	0.193512
C41	C	-0.771619	0.400228	-0.400122
C42	C	-0.271619	0.900228	0.099878
C43	C	-0.689073	0.400235	-0.400129
C44	C	-0.189073	0.900235	0.099871
C45	C	-0.652025	0.353289	-0.353316
C46	C	-0.152025	0.853289	0.146684
C47	C	-0.697523	0.306336	-0.306496
C48	C	-0.197523	0.806336	0.193504
C49	C	-0.643568	0.447183	-0.446954
C50	C	-0.143568	0.947183	0.053046
C51	C	-0.561017	0.447191	-0.446964
C52	C	-0.061017	0.947191	0.053036
C53	C	-0.523967	0.400248	-0.400147
C54	C	-0.023967	0.900248	0.099853
C55	C	-0.569471	0.353294	-0.353324
C56	C	-0.069471	0.853294	0.146676
C57	C	-0.532423	0.306348	-0.306511
C58	C	-0.032423	0.806348	0.193489
C59	C	-0.577925	0.259396	-0.259684
C60	C	-0.077925	0.759396	0.240316
C61	C	-0.660474	0.259392	-0.259679
C62	C	-0.160474	0.759392	0.240321
C63	C	-0.441418	0.400252	-0.400152
C64	C	0.058582	0.900252	0.099848
C65	C	-0.449868	0.306352	-0.306519
C66	C	0.050132	0.806352	0.193481
C67	C	-1.101659	0.536447	-0.360651
C68	C	-0.601659	1.036447	0.139349
C69	C	-1.098014	0.614804	-0.363806
C70	C	-0.598014	1.114804	0.136194
C71	C	-1.101757	0.360631	-0.537198
C72	C	-0.601757	0.860631	-0.037198
C73	C	-1.098096	0.363759	-0.615551
C74	C	-0.598096	0.863759	-0.115551
C75	C	-0.316513	0.353307	-0.353353
C76	C	0.183487	0.853307	0.146647
C77	C	-0.404370	0.353306	-0.353339
C78	C	0.095630	0.853306	0.146661
C79	C	-1.119089	0.169416	-0.345995
C80	C	-0.619089	0.669416	0.154005
C81	C	-1.122814	0.091060	-0.342870
C82	C	-0.622814	0.591060	0.157130
C83	C	-1.148994	0.649799	-0.320252
C84	C	-0.648994	1.149799	0.179748
C85	C	-1.145570	0.723424	-0.323224
C86	C	-0.645570	1.223424	0.176776
C87	C	-1.091161	0.762052	-0.369747
C88	C	-0.591161	1.262052	0.130253
C89	C	-1.040179	0.727051	-0.413306
C90	C	-0.540179	1.227051	0.086694
C91	C	-1.043607	0.653428	-0.410337
C92	C	-0.543607	1.153428	0.089663
C93	C	-1.075260	0.982437	-0.383460
C94	C	-0.575260	1.482437	0.116540
C95	C	-1.071834	1.056065	-0.386424
C96	C	-0.571834	1.556065	0.113576
C97	C	-1.177226	1.052432	-0.296342
C98	C	-0.677226	1.552432	0.203658
C99	C	-1.180647	0.978808	-0.293375
C100	C	-0.680647	1.478808	0.206625
C101	C	-1.129667	0.943814	-0.336936
C102	C	-0.629667	1.443814	0.163064
N103	N	-1.087658	0.837308	-0.372785
N104	N	-0.587658	1.337308	0.127215
N105	N	-1.133175	0.868559	-0.333902
N106	N	-0.633175	1.368559	0.166098
C107	C	-1.149067	0.320153	-0.650573
C108	C	-0.649067	0.820153	-0.150573
C109	C	-1.145618	0.323090	-0.724195
C110	C	-0.645618	0.823090	-0.224195
C111	C	-1.091202	0.369637	-0.762793
C112	C	-0.591202	0.869637	-0.262793
C113	C	-1.040226	0.413245	-0.727767
C114	C	-0.540226	0.913245	-0.227767
C115	C	-1.043672	0.410304	-0.654146
C116	C	-0.543672	0.910304	-0.154146
C117	C	-1.075243	0.383264	-0.983166
C118	C	-0.575243	0.883264	-0.483166
C119	C	-1.071803	0.386203	-1.056792
C120	C	-0.571803	0.886203	-0.556792
C121	C	-1.177194	0.296047	-1.053215
C122	C	-0.677194	0.796047	-0.553215
C123	C	-1.180638	0.293113	-0.979593
C124	C	-0.680638	0.793113	-0.479593
C125	C	-1.129660	0.336718	-0.944573
C126	C	-0.629660	0.836718	-0.444573
N127	N	-1.087677	0.372642	-0.838046
N128	N	-0.587677	0.872642	-0.338046
N129	N	-1.133181	0.333709	-0.869321
N130	N	-0.633181	0.833709	-0.369321
C131	C	-1.118951	0.345924	-0.170175
C132	C	-0.618951	0.845924	0.329825
C133	C	-1.122773	0.342597	-0.091813
C134	C	-0.622773	0.842597	0.408187
H135	H	-0.547749	0.221169	-0.221572
H136	H	-0.047749	0.721169	0.278428
H137	H	-1.218732	1.080932	-0.260878
H138	H	-0.718732	1.580932	0.239122
C139	C	-0.463316	0.460928	-0.542181
C140	C	0.036684	0.960928	-0.042181
C141	C	-0.511007	0.498804	-0.498431
C142	C	-0.011007	0.998804	0.001569
H143	H	-0.432446	0.492794	-0.573956
H144	H	0.067554	0.992794	-0.073956
H145	H	-0.429438	0.432979	-0.514304
H146	H	0.070562	0.932979	-0.014304
H147	H	-0.495723	0.431331	-0.567964
H148	H	0.004277	0.931331	-0.067964
H149	H	-0.478598	0.528397	-0.472644
H150	H	0.021402	1.028397	0.027356
H151	H	-0.544888	0.526765	-0.526312
H152	H	-0.044888	1.026765	-0.026312
H153	H	-1.033749	0.953951	-0.418928
H154	H	-0.533749	1.453951	0.081072
H155	H	-0.817129	0.268106	-0.268361
H156	H	-0.317129	0.768106	0.231639
C157	C	-0.940752	0.416789	-0.571729
C158	C	-0.440752	0.916789	-0.071729
C159	C	-0.987644	0.458243	-0.615653
C160	C	-0.487644	0.958243	-0.115653
H161	H	-0.906157	0.446386	-0.547972
H162	H	-0.406157	0.946386	-0.047972
H163	H	-0.973649	0.388655	-0.538206
H164	H	-0.473649	0.888655	-0.038206
H165	H	-0.910638	0.387219	-0.599226
H166	H	-0.410638	0.887219	-0.099226
H167	H	-1.017762	0.487808	-0.588156
H168	H	-0.517762	0.987808	-0.088156
H169	H	-0.954742	0.486389	-0.649181
H170	H	-0.454742	0.986389	-0.149181
H171	H	-1.193380	0.282252	-0.619151
H172	H	-0.693380	0.782252	-0.119151
C173	C	-0.789867	0.439501	-0.520812
C174	C	-0.289867	0.939501	-0.020812
C175	C	-0.812344	0.451825	-0.451579
C176	C	-0.312344	0.951825	0.048421
H177	H	-0.815015	0.471354	-0.552579
H178	H	-0.315015	0.971354	-0.052579
H179	H	-0.734199	0.446231	-0.527513
H180	H	-0.234199	0.946231	-0.027513
H181	H	-0.805155	0.392562	-0.529300
H182	H	-0.305155	0.892562	-0.029300
H183	H	-0.797050	0.498762	-0.443089
H184	H	-0.297050	0.998762	0.056911
H185	H	-0.868024	0.445101	-0.444875
H186	H	-0.368024	0.945101	0.055125
H187	H	-1.187125	0.287583	-0.752706
H188	H	-0.687125	0.787583	-0.252706
H189	H	-1.027537	1.087515	-0.424321
H190	H	-0.527537	1.587515	0.075679
H191	H	-1.187083	0.751913	-0.287757
H192	H	-0.687083	1.251913	0.212243
H193	H	-1.002095	0.624936	-0.445805
H194	H	-0.502095	1.124936	0.054195
H195	H	-1.033744	0.418781	-0.954662
H196	H	-0.533744	0.918781	-0.454662
C197	C	-0.988120	0.841522	-0.457850
C198	C	-0.488120	1.341522	0.042150
C199	C	-0.980369	0.769510	-0.464444
C200	C	-0.480369	1.269510	0.035556
H201	H	-0.951189	0.867731	-0.489417
H202	H	-0.451189	1.367731	0.010583
H203	H	-1.040167	0.853958	-0.468701
H204	H	-0.540167	1.353958	0.031299
H205	H	-0.978245	0.851715	-0.410960
H206	H	-0.478245	1.351715	0.089040
H207	H	-0.990250	0.759315	-0.511333
H208	H	-0.490250	1.259315	-0.011333
H209	H	-0.928309	0.757069	-0.453598
H210	H	-0.428309	1.257069	0.046402
C211	C	-1.284459	0.204285	-0.983455
C212	C	-0.784459	0.704285	-0.483455
C213	C	-1.240450	0.241943	-0.937168
C214	C	-0.740450	0.741943	-0.437168
H215	H	-1.321382	0.172693	-0.957262
H216	H	-0.821382	0.672693	-0.457262
H217	H	-1.311889	0.236149	-1.013399
H218	H	-0.811889	0.736149	-0.513399
H219	H	-1.249951	0.178465	-1.011089
H220	H	-0.749951	0.678465	-0.511089
H221	H	-1.274958	0.267768	-0.909538
H222	H	-0.774958	0.767768	-0.409538
H223	H	-1.213018	0.210075	-0.907211
H224	H	-0.713018	0.710075	-0.407211
H225	H	-0.404374	0.438475	-0.438282
H226	H	0.095626	0.938475	0.061718
C227	C	-1.218705	0.260517	-1.164481
C228	C	-0.718705	0.760517	-0.664481
C229	C	-1.233219	0.248111	-1.091711
C230	C	-0.733219	0.748111	-0.591711
H231	H	-1.253290	0.230916	-1.188244
H232	H	-0.753290	0.730916	-0.688244
H233	H	-1.227462	0.308358	-1.178434
H234	H	-0.727462	0.808358	-0.678434
H235	H	-1.165520	0.250677	-1.176115
H236	H	-0.665520	0.750677	-0.676115
H237	H	-1.286403	0.257956	-1.080076
H238	H	-0.786403	0.757956	-0.580076
H239	H	-1.224468	0.200258	-1.077751
H240	H	-0.724468	0.700258	-0.577751
C241	C	-0.661733	0.567964	-0.485886
C242	C	-0.161733	1.067964	0.014114
C243	C	-0.684285	0.498783	-0.498413
C244	C	-0.184285	0.998783	0.001587
H245	H	-0.686868	0.599820	-0.517660
H246	H	-0.186868	1.099820	-0.017660
H247	H	-0.676978	0.576317	-0.438921
H248	H	-0.176978	1.076317	0.061079
H249	H	-0.606056	0.574674	-0.492594
H250	H	-0.106056	1.074674	0.007406
H251	H	-0.739962	0.492071	-0.491700
H252	H	-0.239962	0.992071	0.008300
H253	H	-0.669045	0.490426	-0.545389
H254	H	-0.169045	0.990426	-0.045389
C255	C	-1.252827	0.653611	-0.231513
C256	C	-0.752827	1.153611	0.268487
C257	C	-1.208802	0.607342	-0.269111
C258	C	-0.708802	1.107342	0.230889
H259	H	-1.289755	0.627400	-0.199944
H260	H	-0.789755	1.127400	0.300056
H261	H	-1.218335	0.681283	-0.205679
H262	H	-0.718335	1.181283	0.294321
H263	H	-1.280260	0.683521	-0.263418
H264	H	-0.780260	1.183521	0.236582
H265	H	-1.181364	0.577436	-0.237206
H266	H	-0.681364	1.077436	0.262794
H267	H	-1.243299	0.579658	-0.294946
H268	H	-0.743299	1.079658	0.205054
C269	C	-0.967960	0.475020	-1.052937
C270	C	-0.467960	0.975020	-0.552937
C271	C	-1.011981	0.437369	-1.099221
C272	C	-0.511981	0.937369	-0.599221
H273	H	-0.931030	0.506603	-1.079132
H274	H	-0.431030	1.006603	-0.579132
H275	H	-1.002455	0.500843	-1.025304
H276	H	-0.502455	1.000843	-0.525304
H277	H	-0.940531	0.443146	-1.022991
H278	H	-0.440531	0.943146	-0.522991
H279	H	-1.039415	0.469242	-1.129164
H280	H	-0.539415	0.969242	-0.629164
H281	H	-0.977482	0.411544	-1.126866
H282	H	-0.477482	0.911544	-0.626866
H283	H	-1.224951	0.947358	-0.255492
H284	H	-0.724951	1.447358	0.244508
C285	C	-0.936396	0.502062	-0.723902
C286	C	-0.436396	1.002062	-0.223902
C287	C	-0.980409	0.464411	-0.770192
C288	C	-0.480409	0.964411	-0.270192
H289	H	-0.899466	0.533648	-0.750094
H290	H	-0.399466	1.033648	-0.250094
H291	H	-0.970895	0.527882	-0.696271
H292	H	-0.470895	1.027882	-0.196271
H293	H	-0.908968	0.470189	-0.693955
H294	H	-0.408968	0.970189	-0.193955
H295	H	-1.007843	0.496284	-0.800135
H296	H	-0.507843	0.996284	-0.300135
H297	H	-0.945905	0.438590	-0.797835
H298	H	-0.445905	0.938590	-0.297835
C299	C	-0.431639	0.267075	-0.185824
C300	C	0.068361	0.767075	0.314176
C301	C	-0.409155	0.254746	-0.255055
C302	C	0.090845	0.754746	0.244945
H303	H	-0.406509	0.235212	-0.154053
H304	H	0.093491	0.735212	0.345947
H305	H	-0.416340	0.314004	-0.177335
H306	H	0.083660	0.814004	0.322665
H307	H	-0.487316	0.260358	-0.179132
H308	H	0.012684	0.760358	0.320868
H309	H	-0.353478	0.261468	-0.261749
H310	H	0.146522	0.761468	0.238251
H311	H	-0.424449	0.207805	-0.263547
H312	H	0.075551	0.707805	0.236453
C313	C	-0.790770	0.217686	-0.218103
C314	C	-0.290770	0.717686	0.281897
C315	C	-0.710491	0.207780	-0.208217
C316	C	-0.210491	0.707780	0.291783
H317	H	-0.821648	0.185818	-0.186337
H318	H	-0.321648	0.685818	0.313663
H319	H	-0.802536	0.264614	-0.209599
H320	H	-0.302536	0.764614	0.290401
H321	H	-0.802570	0.209333	-0.265077
H322	H	-0.302570	0.709333	0.234923
H323	H	-0.698689	0.216138	-0.161245
H324	H	-0.198689	0.716138	0.338755
H325	H	-0.698720	0.160841	-0.216716
H326	H	-0.198720	0.660841	0.283284
