data_functionalizedCrystal
_audit_creation_method	'MofGen! by Chris Wilmer'
_symmetry_space_group_name_H-M	'P1'
_symmetry_Int_Tables_number	1
_symmetry_cell_setting	triclinic
loop_
_symmetry_equiv_pos_as_xyz
  x,y,z
_cell_length_a	16.120490
_cell_length_b	12.594515
_cell_length_c	16.120297
_cell_angle_alpha	92.876747
_cell_angle_beta	89.870317
_cell_angle_gamma	92.879353
loop_
_atom_site_label
_atom_site_type_symbol
_atom_site_fract_x
_atom_site_fract_y
_atom_site_fract_z
Zn1	Zn	1.247412	0.539329	0.534565
Zn2	Zn	1.747412	1.039329	1.034565
Zn3	Zn	1.254352	0.708771	0.395517
Zn4	Zn	1.754352	1.208771	0.895517
Zn5	Zn	1.115403	0.521334	0.388485
Zn6	Zn	1.615403	1.021334	0.888485
Zn7	Zn	1.108307	0.707781	0.527490
Zn8	Zn	1.608307	1.207781	1.027490
O9	O	1.181368	0.619304	0.461514
O10	O	1.681368	1.119304	0.961514
O11	O	1.364699	0.569752	0.522024
O12	O	1.864699	1.069752	1.022024
O13	O	1.241793	0.676790	0.278218
O14	O	1.741793	1.176790	0.778218
O15	O	1.132979	0.374781	0.407881
O16	O	1.632979	0.874781	0.907881
O17	O	1.369797	0.694240	0.419866
O18	O	1.869797	1.194240	0.919866
O19	O	1.229966	0.388002	0.515206
O20	O	1.729966	0.888002	1.015206
O21	O	1.139708	0.539081	0.273052
O22	O	1.639708	1.039081	0.773052
O23	O	0.998095	0.538121	0.401021
O24	O	1.498095	1.038121	0.901021
O25	O	1.120886	0.692552	0.644794
O26	O	1.620886	1.192552	1.144794
O27	O	0.992882	0.675103	0.503146
O28	O	1.492882	1.175103	1.003146
O29	O	1.223086	0.568791	0.649992
O30	O	1.723086	1.068791	1.149992
O31	O	1.234913	0.857580	0.413005
O32	O	1.734913	1.357580	0.913005
O33	O	1.127615	0.856852	0.509965
O34	O	1.627615	1.356852	1.009965
C35	C	0.965316	0.604553	0.450553
C36	C	1.465316	1.104553	0.950553
C37	C	0.872887	0.598269	0.445884
C38	C	1.372887	1.098269	0.945884
C39	C	0.659922	0.651891	0.485736
C40	C	1.159922	1.151891	0.985736
C41	C	0.703663	0.586806	0.437357
C42	C	1.203663	1.086806	0.937357
C43	C	0.797828	0.593186	0.442103
C44	C	1.297828	1.093186	0.942103
C45	C	0.565748	0.645512	0.480992
C46	C	1.065748	1.145512	0.980992
C47	C	1.181269	0.895837	0.461499
C48	C	1.681269	1.395837	0.961499
C49	C	1.181301	1.014147	0.461525
C50	C	1.681301	1.514147	0.961525
C51	C	1.122970	1.153806	0.514235
C52	C	1.622970	1.653806	1.014235
C53	C	1.197755	1.089320	0.538475
C54	C	1.697755	1.589320	1.038475
C55	C	1.106522	1.077064	0.437323
C56	C	1.606522	1.577064	0.937323
C57	C	1.256230	1.160460	0.485843
C58	C	1.756230	1.660460	0.985843
C59	C	1.164948	1.148205	0.384653
C60	C	1.664948	1.648205	0.884653
C61	C	1.239787	1.083752	0.408867
C62	C	1.739787	1.583752	0.908867
C63	C	1.398264	0.634113	0.472518
C64	C	1.898264	1.134113	0.972518
C65	C	1.490692	0.640424	0.477208
C66	C	1.990692	1.140424	0.977208
C67	C	1.170420	0.632568	0.678409
C68	C	1.670420	1.132568	1.178409
C69	C	1.165755	0.638221	0.770837
C70	C	1.665755	1.138221	1.270837
C71	C	1.181456	1.341691	0.461548
C72	C	1.681456	1.841691	0.961548
C73	C	1.181406	1.223383	0.461562
C74	C	1.681406	1.723383	0.961562
C75	C	1.192322	0.606017	0.245465
C76	C	1.692322	1.106017	0.745465
C77	C	1.197148	0.600076	0.153046
C78	C	1.697148	1.100076	0.653046
C79	C	1.157206	0.648515	0.940062
C80	C	1.657206	1.148515	1.440062
C81	C	1.205694	0.589784	0.983826
C82	C	1.705694	1.089784	1.483826
C83	C	1.200938	0.595512	1.077989
C84	C	1.700938	1.095512	1.577989
C85	C	1.161962	0.642789	0.845891
C86	C	1.661962	1.142789	1.345891
H87	H	1.073652	1.184582	0.558834
H88	H	1.573652	1.684582	1.058834
O89	O	1.097494	0.720816	0.984104
O90	O	1.597494	1.220816	1.484104
H91	H	1.062701	0.762957	0.937522
H92	H	1.562701	1.262957	1.437522
H93	H	1.043238	1.040639	0.416838
H94	H	1.543238	1.540639	0.916838
O95	O	1.305259	1.043253	0.349847
O96	O	1.805259	1.543253	0.849847
H97	H	1.292122	1.067985	0.286268
H98	H	1.792122	1.567985	0.786268
O99	O	0.659602	0.506663	0.377756
O100	O	1.159602	1.006663	0.877756
H101	H	0.591484	0.514177	0.383323
H102	H	1.091484	1.014177	0.883323
O103	O	1.216150	1.054789	0.624602
O104	O	1.716150	1.554789	1.124602
H105	H	1.216532	0.966634	0.623663
H106	H	1.716532	1.466634	1.123663
O107	O	0.703983	0.732029	0.545333
O108	O	1.203983	1.232029	1.045333
H109	H	0.772100	0.724518	0.539754
H110	H	1.272100	1.224518	1.039754
H111	H	1.319530	1.196758	0.506404
H112	H	1.819530	1.696758	1.006404
H113	H	1.151044	1.174289	0.319646
H114	H	1.651044	1.674289	0.819646
H115	H	1.250777	0.535200	0.950574
H116	H	1.750777	1.035200	1.450574
