data_functionalizedCrystal
_audit_creation_method	'MofGen! by Chris Wilmer'
_symmetry_space_group_name_H-M	'P1'
_symmetry_Int_Tables_number	1
_symmetry_cell_setting	triclinic
loop_
_symmetry_equiv_pos_as_xyz
  x,y,z
_cell_length_a	16.625548
_cell_length_b	19.077356
_cell_length_c	19.077174
_cell_angle_alpha	89.923556
_cell_angle_beta	92.315520
_cell_angle_gamma	92.300340
loop_
_atom_site_label
_atom_site_type_symbol
_atom_site_fract_x
_atom_site_fract_y
_atom_site_fract_z
Zn1	Zn	1.236930	-0.295704	0.386130
Zn2	Zn	1.226077	-0.408496	0.263925
Zn3	Zn	1.096910	-0.291007	0.268636
Zn4	Zn	1.096488	-0.413178	0.381394
O5	O	1.164101	-0.352096	0.325021
O6	O	1.348323	-0.310672	0.369930
O7	O	1.204577	-0.388985	0.166217
O8	O	1.120203	-0.193298	0.288175
O9	O	1.340350	-0.393540	0.280146
O10	O	1.223075	-0.196749	0.374498
O11	O	1.109679	-0.302667	0.169678
O12	O	0.984021	-0.307207	0.283583
O13	O	1.119484	-0.401520	0.480355
O14	O	0.983711	-0.396966	0.366426
O15	O	1.222666	-0.315213	0.483835
O16	O	1.204168	-0.507449	0.275554
O17	O	1.108960	-0.510889	0.361858
C18	C	1.155363	-0.534666	0.317696
C19	C	1.151699	-0.612771	0.314586
C20	C	0.954610	-0.352085	0.325002
C21	C	0.864989	-0.352098	0.325010
C22	C	1.172238	-0.359413	0.508305
C23	C	1.175706	-0.362530	0.586409
C24	C	0.536814	-0.352104	0.325040
C25	C	0.628122	-0.352101	0.325029
C26	C	0.700899	-0.352102	0.325024
C27	C	0.792213	-0.352097	0.325015
C28	C	1.374411	-0.352108	0.325041
C29	C	1.464032	-0.352113	0.325049
C30	C	1.172897	-0.168814	0.332390
C31	C	1.176645	-0.090710	0.335531
C32	C	1.124849	-0.052219	0.292064
C33	C	1.128369	0.021167	0.295022
C34	C	1.183690	0.056061	0.341443
C35	C	1.235489	0.017565	0.384915
C36	C	1.231964	-0.055820	0.381960
C37	C	1.199973	0.275347	0.355102
C38	C	1.203496	0.348738	0.358052
C39	C	1.096375	0.352335	0.268160
C40	C	1.092858	0.278948	0.265207
C41	C	1.144653	0.240458	0.308681
N42	N	1.187292	0.131074	0.344466
N43	N	1.141047	0.165446	0.305661
C44	C	1.156045	-0.344758	0.142453
C45	C	1.152743	-0.341442	0.064356
C46	C	1.127929	-0.319055	0.624904
C47	C	1.131183	-0.321990	0.698292
C48	C	1.182220	-0.368398	0.733183
C49	C	1.229999	-0.411878	0.694682
C50	C	1.226740	-0.408946	0.621296
C51	C	1.197263	-0.381990	0.952470
C52	C	1.200520	-0.384918	1.025861
C53	C	1.101703	-0.295030	1.029466
C54	C	1.098451	-0.292099	0.956078
C55	C	1.146227	-0.335582	0.917584
N56	N	1.185550	-0.371398	0.808196
N57	N	1.142893	-0.332585	0.842572
H58	H	1.086192	0.052506	0.259628
N59	N	1.282121	-0.459285	0.730331
N60	N	1.285026	-0.461898	0.795853
H61	H	1.321839	-0.495379	0.821030
N62	N	1.284874	-0.095151	0.426348
N63	N	1.281721	-0.160673	0.423704
H64	H	1.319089	-0.188451	0.455055
H65	H	1.056889	-0.254311	0.927675
N66	N	1.275559	-0.453343	0.581973
N67	N	1.326308	-0.426986	0.542023
H68	H	1.360787	-0.458344	0.514252
N69	N	1.291981	0.053217	0.432341
N70	N	1.295118	0.118739	0.434977
H71	H	1.335016	0.143918	0.468474
H72	H	1.054204	0.383680	0.232766
H73	H	1.086374	-0.281261	0.596502
H74	H	1.047811	0.250542	0.227404
H75	H	1.092275	-0.286590	0.729631
H76	H	1.062806	-0.259629	1.060815
H77	H	1.248548	0.377145	0.395856
H78	H	1.242157	0.244018	0.390494
H79	H	1.079803	-0.080625	0.254260
H80	H	1.242084	-0.422709	1.054267
N81	N	1.246067	-0.426411	0.913166
N82	N	1.291632	-0.467841	0.944330
H83	H	1.326103	-0.499216	0.916570
