data_functionalizedCrystal
_audit_creation_method	'MofGen! by Chris Wilmer'
_symmetry_space_group_name_H-M	'P1'
_symmetry_Int_Tables_number	1
_symmetry_cell_setting	triclinic
loop_
_symmetry_equiv_pos_as_xyz
  x,y,z
_cell_length_a	27.732048
_cell_length_b	14.519709
_cell_length_c	12.996460
_cell_angle_alpha	90.001234
_cell_angle_beta	90.000676
_cell_angle_gamma	83.161400
loop_
_atom_site_label
_atom_site_type_symbol
_atom_site_fract_x
_atom_site_fract_y
_atom_site_fract_z
O1	O	0.641453	0.109725	0.085437
O2	O	0.500739	0.126410	0.085468
O3	O	0.574827	-0.016236	0.085442
O4	O	0.567365	0.252371	0.085462
O5	O	0.574818	-0.016228	-0.085692
O6	O	0.500730	0.126418	-0.085666
O7	O	0.641444	0.109733	-0.085697
Cu8	Cu	0.571086	0.118076	-0.101307
Cu9	Cu	0.571097	0.118067	0.101078
O10	O	0.567356	0.252379	-0.085671
C11	C	0.482726	0.126064	-0.000095
C12	C	0.429066	0.125009	-0.000083
C13	C	0.574475	-0.050586	-0.000125
C14	C	0.573433	-0.152949	-0.000125
C15	C	0.569596	-0.527778	-0.000098
C16	C	0.570662	-0.423488	-0.000106
C17	C	0.571514	-0.340367	-0.000112
C18	C	0.572580	-0.236071	-0.000118
C19	C	0.090622	0.202664	-0.000122
C20	C	-0.111056	0.198751	-0.000131
O21	O	-0.141972	0.269761	-0.000171
N22	N	-0.130584	0.114168	-0.000136
C23	C	-0.099689	0.030557	-0.000145
O24	O	-0.120926	-0.041476	-0.000160
C25	C	0.101988	0.034471	-0.000143
C26	C	0.121513	0.119060	-0.000128
C27	C	0.110148	0.287246	-0.000108
C28	C	0.160564	0.288223	-0.000100
C29	C	0.191455	0.204619	-0.000106
C30	C	0.171930	0.120037	-0.000120
C31	C	0.132882	-0.049139	-0.000159
C32	C	0.183304	-0.048153	-0.000161
C33	C	0.202829	0.036436	-0.000146
C34	C	0.253238	0.037410	-0.000118
N35	N	0.272766	0.121993	-0.000113
C36	C	0.241875	0.205597	-0.000107
C37	C	-0.205573	0.028508	-0.000144
C38	C	-0.255992	0.027530	-0.000143
C39	C	-0.267356	0.195724	-0.000131
C40	C	-0.216936	0.196702	-0.000125
C41	C	-0.186045	0.113091	-0.000139
C42	C	0.347754	0.207643	-0.000090
C43	C	0.398175	0.208613	-0.000077
C44	C	0.409534	0.040420	-0.000094
C45	C	0.359117	0.039449	-0.000101
C46	C	0.328227	0.123069	-0.000102
O47	O	0.284182	-0.033562	-0.000090
O48	O	0.263121	0.277620	-0.000116
C49	C	0.040206	0.201687	-0.000130
C50	C	0.020680	0.117105	-0.000144
C51	C	0.051571	0.033501	-0.000150
C52	C	-0.029739	0.116126	-0.000142
C53	C	-0.060630	0.199731	-0.000137
C54	C	-0.041102	0.284314	-0.000132
C55	C	0.009315	0.285291	-0.000124
C56	C	0.032043	-0.051082	-0.000154
C57	C	-0.018374	-0.052053	-0.000161
C58	C	-0.049265	0.031552	-0.000155
C59	C	0.659457	0.110079	-0.000132
C60	C	0.713117	0.111134	-0.000137
C61	C	0.567708	0.286729	-0.000102
C62	C	0.568751	0.389092	-0.000095
N63	N	0.571081	0.118083	-0.243654
C64	C	0.571084	0.118085	-0.336760
C65	C	0.571088	0.118079	-0.453566
C66	C	0.571094	0.118068	-0.546664
C67	C	0.571099	0.118063	-0.663476
N68	N	0.571105	0.118053	0.243425
H69	H	0.414069	0.277498	-0.000065
H70	H	0.116994	-0.118020	-0.000172
C71	C	0.313782	0.299629	-0.000085
N72	N	0.288195	0.368913	-0.000074
C73	C	-0.195463	0.289754	-0.000120
N74	N	-0.179293	0.359846	-0.000120
H75	H	0.176457	0.357103	-0.000088
H76	H	-0.292516	0.263798	-0.000127
C77	C	-0.075092	0.376279	-0.000129
N78	N	-0.100695	0.445542	-0.000135
H79	H	0.025207	0.354171	-0.000113
H80	H	0.208454	-0.116240	-0.000174
H81	H	-0.034266	-0.120940	-0.000165
H82	H	0.434695	-0.027649	-0.000095
H83	H	0.057190	-0.119165	-0.000161
C84	C	0.076175	0.379226	-0.000106
N85	N	0.050589	0.448511	-0.000098
H86	H	-0.271885	-0.041351	-0.000139
H87	H	0.343219	-0.029430	-0.000098
C88	C	-0.171599	-0.063476	-0.000152
N89	N	-0.146012	-0.132759	-0.000152
