data_functionalizedCrystal
_audit_creation_method	'MofGen! by Chris Wilmer'
_symmetry_space_group_name_H-M	'P1'
_symmetry_Int_Tables_number	1
_symmetry_cell_setting	triclinic
loop_
_symmetry_equiv_pos_as_xyz
  x,y,z
_cell_length_a	14.446369
_cell_length_b	14.446369
_cell_length_c	20.016444
_cell_angle_alpha	89.996446
_cell_angle_beta	59.996869
_cell_angle_gamma	60.001996
loop_
_atom_site_label
_atom_site_type_symbol
_atom_site_fract_x
_atom_site_fract_y
_atom_site_fract_z
Zr1	Zr	1.013248	0.891764	-0.087710
O2	O	1.206361	0.743970	-0.194382
O3	O	0.820135	0.937067	-0.055009
O4	O	1.013255	0.937076	-0.194388
O5	O	1.013234	0.743959	0.054942
O6	O	1.013261	1.089406	-0.194394
O7	O	1.013240	0.743961	-0.055002
O8	O	0.667804	1.089390	0.054931
O9	O	1.358691	0.743975	-0.194383
O10	O	0.899569	1.070075	-0.041066
O11	O	0.899560	0.956392	0.040988
O12	O	1.126935	0.956402	-0.123114
O13	O	1.126926	0.842718	-0.041059
Zr14	Zr	1.013248	1.134710	0.087630
Zr15	Zr	1.013257	1.134713	-0.087718
Zr16	Zr	1.013238	0.891761	0.087639
Zr17	Zr	1.256198	0.891772	-0.087711
Zr18	Zr	0.770297	1.134702	0.087631
O19	O	1.206360	1.089408	0.054929
O20	O	1.206374	1.089412	-0.194394
O21	O	1.206347	0.743966	0.054941
O22	O	0.820135	1.282504	0.194303
O23	O	0.820148	1.282509	-0.055021
O24	O	0.820121	0.937062	0.194315
O25	O	1.013261	1.282515	-0.055022
O26	O	1.013240	1.089399	0.194309
O27	O	1.013234	0.937069	0.194314
O28	O	1.013255	1.282513	0.054923
O29	O	1.358699	0.937087	-0.194390
O30	O	0.667796	1.089387	0.194310
O31	O	0.667804	1.282499	0.194303
O32	O	0.667811	1.282502	0.054924
O33	O	1.358684	0.743973	-0.055004
O34	O	1.358691	0.937085	-0.055011
O35	O	0.899560	1.070072	0.123034
O36	O	0.899569	1.183756	0.040980
O37	O	1.126935	1.070083	-0.041067
O38	O	1.126926	0.956399	0.040987
C39	C	0.709354	1.013227	-0.000039
C40	C	0.606215	1.013224	-0.000038
C41	C	0.566921	0.941518	0.051720
C42	C	0.459286	0.941848	0.051995
C43	C	0.371501	1.136805	0.037429
C44	C	0.478746	1.136397	0.037822
C45	C	0.653938	0.962375	-0.089297
C46	C	0.547765	0.959895	-0.089164
C47	C	1.013236	0.709345	-0.000029
C48	C	1.013232	0.606207	-0.000025
C49	C	1.013259	1.013241	-0.219374
C50	C	1.013263	1.013242	-0.293815
C51	C	1.317141	1.013247	-0.000041
C52	C	1.420280	1.013251	-0.000041
C53	C	0.869818	0.638622	0.051724
C54	C	0.869767	0.531367	0.051481
C55	C	1.084904	0.423419	-0.089230
C56	C	1.083950	0.531210	-0.088929
C57	C	1.086048	0.530249	0.036677
C58	C	1.083384	0.424260	0.038461
C59	C	1.013259	1.317129	-0.000050
C60	C	1.013263	1.420267	-0.000054
C61	C	1.013250	1.097161	-0.465073
C62	C	1.013241	1.097162	-0.535013
C63	C	1.013241	0.929309	-0.535000
C64	C	1.013241	0.929313	-0.465058
C65	C	1.013252	1.013239	-0.430099
C66	C	1.013243	1.013235	-0.569981
C67	C	1.013234	1.013235	-0.645813
C68	C	1.013259	1.013241	-0.354261
C69	C	1.013236	1.013233	0.219295
C70	C	1.013232	1.013232	0.293735
C71	C	0.709366	1.317119	-0.000049
C72	C	0.606231	1.420254	-0.000053
C73	C	0.709342	1.013223	0.219296
C74	C	0.606200	1.013219	0.293737
C75	C	0.709354	1.317115	0.219285
C76	C	0.606215	1.420249	0.293722
C77	C	1.317141	0.709359	-0.219365
C78	C	1.420280	0.606226	-0.293802
C79	C	1.317129	0.709355	-0.000030
C80	C	1.420264	0.606221	-0.000027
C81	C	1.317153	1.013251	-0.219376
C82	C	1.420295	1.013256	-0.293816
C83	C	0.557763	1.072556	0.371530
C84	C	0.460863	1.072548	0.441481
C85	C	0.412395	1.013207	0.433638
C86	C	0.460842	0.953862	0.355837
C87	C	0.557746	0.953865	0.285887
C88	C	0.557785	1.528033	0.285847
C89	C	0.460889	1.624947	0.355782
C90	C	0.412418	1.614074	0.433591
C91	C	0.460858	1.506278	0.441465
C92	C	0.557759	1.409367	0.371531
C93	C	1.468722	0.498441	-0.285927
C94	C	1.565648	0.401527	-0.355861
C95	C	1.614124	0.412400	-0.433670
C96	C	1.565678	0.520196	-0.441544
C97	C	1.468760	0.617107	-0.371610
C98	C	1.468732	1.072608	-0.285947
C99	C	1.565633	1.072635	-0.355885
C100	C	1.614101	1.013302	-0.433692
C101	C	1.565655	0.953948	-0.441559
C102	C	1.468749	0.953928	-0.371622
C103	C	0.459928	1.638607	0.051419
C104	C	0.566843	1.531383	0.051719
C105	C	0.479374	1.423577	0.037693
C106	C	0.372005	1.531338	0.038060
C107	C	0.546985	1.529972	-0.089368
C108	C	0.655449	1.424012	-0.089217
H109	H	0.495825	0.850878	0.026887
H110	H	1.693008	1.013326	-0.490633
Br111	Br	1.403035	0.873360	-0.382317
H112	H	1.693041	0.333479	-0.490608
H113	H	0.440813	1.421442	0.102769
Br114	Br	0.623513	1.153106	0.382197
Br115	Br	0.715814	1.534023	0.009456
H116	H	1.013238	0.860973	-0.436578
Br117	Br	1.402951	0.483654	-0.180337
Br118	Br	0.395133	1.153095	0.547057
H119	H	1.429285	1.120924	-0.222599
H120	H	0.501619	1.345314	0.001986
H121	H	1.605068	1.120966	-0.349463
Br122	Br	0.310487	1.730228	0.160527
Br123	Br	1.631458	0.873418	-0.547161
Br124	Br	0.522011	1.728537	0.009429
Br125	Br	0.395049	0.873333	0.345207
Br126	Br	0.280880	1.013214	0.528580
Br127	Br	0.504402	1.535470	0.161493
Br128	Br	0.623552	1.542820	0.180258
Br129	Br	0.220737	1.615248	0.147555
Br130	Br	0.708990	1.292086	-0.158563
H131	H	0.597171	0.905548	0.222548
H132	H	0.421459	1.712710	0.349357
Br133	Br	1.013261	1.211062	-0.417630
H134	H	0.333515	1.692995	0.490529
Br135	Br	1.631478	0.534933	-0.547149
H136	H	0.745937	1.424536	-0.117413
H137	H	1.605077	0.313765	-0.349434
H138	H	1.191696	0.502838	-0.000833
H139	H	0.342053	1.504685	0.002964
H140	H	0.421379	1.497442	0.504826
H141	H	0.747521	0.872738	-0.120625
Br142	Br	1.260785	0.293005	-0.156331
Br143	Br	1.013230	1.211065	-0.582474
Br144	Br	1.403022	0.763383	-0.382313
H145	H	0.522197	1.502525	-0.127927
Br146	Br	0.623469	1.263091	0.382234
Br147	Br	0.612957	1.613332	-0.141926
Br148	Br	0.776130	0.534258	0.160914
H149	H	0.655628	0.850306	0.026746
H150	H	0.531050	0.976481	0.117174
H151	H	0.814098	0.693446	0.026488
Br152	Br	0.311024	1.000682	0.161738
H153	H	0.501002	1.192756	0.002541
Br154	Br	0.323996	1.229777	-0.022414
Br155	Br	0.410741	1.204151	0.147286
H156	H	0.587212	0.868866	-0.117158
Br157	Br	0.217442	1.205099	0.145837
H158	H	0.526586	1.006799	-0.130912
H159	H	0.813207	0.692715	0.117559
Br160	Br	0.697531	1.049100	-0.153835
Br161	Br	1.000102	0.614855	-0.137869
Br162	Br	1.259351	0.486843	-0.156723
H163	H	0.813843	0.533653	0.025999
H164	H	1.039814	0.580415	0.101376
Br165	Br	1.003004	0.419575	-0.138528
H166	H	1.031137	0.424914	0.104163
H167	H	1.188052	0.345148	0.004700
H168	H	1.013235	0.860977	-0.563471
