data_functionalizedCrystal
_audit_creation_method	'MofGen! by Chris Wilmer'
_symmetry_space_group_name_H-M	'P1'
_symmetry_Int_Tables_number	1
_symmetry_cell_setting	triclinic
loop_
_symmetry_equiv_pos_as_xyz
  x,y,z
_cell_length_a	25.639233
_cell_length_b	16.120530
_cell_length_c	16.120484
_cell_angle_alpha	90.167327
_cell_angle_beta	87.119255
_cell_angle_gamma	92.909794
loop_
_atom_site_label
_atom_site_type_symbol
_atom_site_fract_x
_atom_site_fract_y
_atom_site_fract_z
Zn1	Zn	-0.348043	-1.254406	0.395720
Zn2	Zn	-0.014710	-0.921072	0.729053
Zn3	Zn	0.318624	-0.587739	1.062386
Zn4	Zn	-0.264801	-1.247265	0.534753
Zn5	Zn	0.068532	-0.913932	0.868086
Zn6	Zn	0.401865	-0.580599	1.201419
Zn7	Zn	-0.255980	-1.115363	0.388657
Zn8	Zn	0.077354	-0.782030	0.721990
Zn9	Zn	0.410687	-0.448697	1.055324
Zn10	Zn	-0.347564	-1.108258	0.527673
Zn11	Zn	-0.014231	-0.774925	0.861006
Zn12	Zn	0.319102	-0.441591	1.194339
O13	O	-0.304097	-1.181323	0.461701
O14	O	0.029236	-0.847990	0.795034
O15	O	0.362570	-0.514656	1.128367
O16	O	-0.340893	-1.369823	0.420082
O17	O	-0.007559	-1.036490	0.753415
O18	O	0.325774	-0.703157	1.086748
O19	O	-0.190466	-1.229753	0.515380
O20	O	0.142868	-0.896420	0.848713
O21	O	0.476201	-0.563087	1.182046
O22	O	-0.264700	-1.139770	0.273230
O23	O	0.068633	-0.806436	0.606563
O24	O	0.401966	-0.473103	0.939896
O25	O	-0.279735	-1.364577	0.522228
O26	O	0.053598	-1.031244	0.855562
O27	O	0.386931	-0.697911	1.188895
O28	O	-0.332339	-1.241923	0.278419
O29	O	0.000994	-0.908590	0.611752
O30	O	0.334328	-0.575257	0.945085
O31	O	-0.183984	-1.132846	0.408044
O32	O	0.149349	-0.799512	0.741377
O33	O	0.482682	-0.466179	1.074711
O34	O	-0.264237	-0.998056	0.401179
O35	O	0.069097	-0.664723	0.734512
O36	O	0.402430	-0.331389	1.067846
O37	O	-0.420793	-1.127660	0.510162
O38	O	-0.087460	-0.794326	0.843495
O39	O	0.245873	-0.460993	1.176829
O40	O	-0.331524	-0.992836	0.503313
O41	O	0.001810	-0.659503	0.836647
O42	O	0.335143	-0.326169	1.169980
O43	O	-0.421145	-1.235034	0.413217
O44	O	-0.087812	-0.901700	0.746550
O45	O	0.245522	-0.568367	1.079883
O46	O	-0.279272	-1.222864	0.650178
O47	O	0.054062	-0.889530	0.983511
O48	O	0.387395	-0.556197	1.316844
O49	O	-0.340077	-1.120736	0.644976
O50	O	-0.006744	-0.787402	0.978310
O51	O	0.326589	-0.454069	1.311643
C52	C	-0.296871	-0.965274	0.450712
C53	C	0.036462	-0.631940	0.784045
C54	C	0.369795	-0.298607	1.117379
C55	C	-0.293793	-0.872846	0.446031
C56	C	0.039540	-0.539513	0.779365
C57	C	0.372874	-0.206179	1.112698
C58	C	-0.310592	-1.170276	0.677750
C59	C	0.022741	-0.836943	1.011083
C60	C	0.356075	-0.503610	1.344417
C61	C	-0.313390	-1.165627	0.770181
C62	C	0.019943	-0.832293	1.103514
C63	C	0.353276	-0.498960	1.436848
C64	C	-0.440471	-1.181351	0.461687
C65	C	-0.107137	-0.848017	0.795021
C66	C	0.226196	-0.514684	1.128354
C67	C	-0.498585	-1.181362	0.461682
C68	C	-0.165251	-0.848029	0.795015
C69	C	0.168082	-0.514696	1.128348
C70	C	-0.859134	-1.237348	0.411048
C71	C	-0.525801	-0.904014	0.744381
C72	C	-0.192467	-0.570681	1.077714
C73	C	-0.913738	-1.237359	0.411025
C74	C	-0.580405	-0.904026	0.744359
C75	C	-0.247071	-0.570692	1.077692
O76	O	-0.942134	-1.284887	0.368069
O77	O	-0.608801	-0.951554	0.701402
O78	O	-0.275467	-0.618221	1.034736
N79	N	-0.940865	-1.181464	0.461491
N80	N	-0.607531	-0.848131	0.794825
N81	N	-0.274198	-0.514797	1.128158
C82	C	-0.913384	-1.125548	0.511977
C83	C	-0.580051	-0.792215	0.845310
C84	C	-0.246717	-0.458881	1.178644
O85	O	-0.941471	-1.078006	0.554900
O86	O	-0.608138	-0.744672	0.888233
O87	O	-0.274804	-0.411339	1.221566
C88	C	-0.858781	-1.125533	0.511995
C89	C	-0.525447	-0.792200	0.845328
C90	C	-0.192114	-0.458867	1.178661
C91	C	-0.831657	-1.181438	0.461531
C92	C	-0.498324	-0.848104	0.794865
C93	C	-0.164991	-0.514771	1.128198
C94	C	-0.832011	-1.293247	0.360588
C95	C	-0.498677	-0.959913	0.693921
C96	C	-0.165344	-0.626580	1.027255
C97	C	-0.777411	-1.293236	0.360612
C98	C	-0.444077	-0.959903	0.693945
C99	C	-0.110744	-0.626569	1.027278
C100	C	-0.749934	-1.237326	0.411095
C101	C	-0.416601	-0.903993	0.744429
C102	C	-0.083267	-0.570660	1.077762
C103	C	-0.777057	-1.181427	0.461555
C104	C	-0.443724	-0.848094	0.794888
C105	C	-0.110391	-0.514760	1.128222
C106	C	-0.831301	-1.069614	0.562475
C107	C	-0.497967	-0.736281	0.895809
C108	C	-0.164634	-0.402948	1.229142
C109	C	-0.776694	-1.069604	0.562488
C110	C	-0.443360	-0.736271	0.895821
C111	C	-0.110027	-0.402937	1.229155
C112	C	-0.749570	-1.125508	0.512025
C113	C	-0.416237	-0.792175	0.845358
C114	C	-0.082904	-0.458842	1.178691
C115	C	-0.694980	-1.125507	0.512063
C116	C	-0.361647	-0.792173	0.845396
C117	C	-0.028314	-0.458840	1.178729
N118	N	-0.667854	-1.181402	0.461596
N119	N	-0.334521	-0.848068	0.794930
N120	N	-0.001187	-0.514735	1.128263
C121	C	-0.695331	-1.237312	0.411113
C122	C	-0.361997	-0.903978	0.744446
C123	C	-0.028664	-0.570645	1.077779
C124	C	-1.028054	-1.125582	0.511935
C125	C	-0.694721	-0.792249	0.845269
C126	C	-0.361388	-0.458916	1.178602
C127	C	-1.082657	-1.125600	0.511923
C128	C	-0.749324	-0.792267	0.845256
C129	C	-0.415990	-0.458934	1.178590
C130	C	-1.083007	-1.237411	0.410970
C131	C	-0.749674	-0.904077	0.744303
C132	C	-0.416341	-0.570744	1.077636
C133	C	-1.028404	-1.237396	0.410987
C134	C	-0.695071	-0.904062	0.744321
C135	C	-0.361737	-0.570729	1.077654
C136	C	-1.000928	-1.181477	0.461469
C137	C	-0.667595	-0.848144	0.794803
C138	C	-0.334261	-0.514811	1.128136
C139	C	-0.580666	-1.237286	0.411167
C140	C	-0.247333	-0.903952	0.744501
C141	C	0.086000	-0.570619	1.077834
C142	C	-0.526062	-1.237272	0.411198
C143	C	-0.192728	-0.903939	0.744531
C144	C	0.140605	-0.570606	1.077865
C145	C	-0.525716	-1.125460	0.512148
C146	C	-0.192382	-0.792126	0.845481
C147	C	0.140951	-0.458793	1.178814
C148	C	-0.580316	-1.125475	0.512120
C149	C	-0.246983	-0.792142	0.845454
C150	C	0.086351	-0.458809	1.178787
C151	C	-0.607790	-1.181392	0.461624
C152	C	-0.274457	-0.848058	0.794957
C153	C	0.058877	-0.514725	1.128290
O154	O	-0.666550	-1.078000	0.554994
O155	O	-0.333217	-0.744667	0.888328
O156	O	0.000117	-0.411334	1.221661
O157	O	-0.667236	-1.284839	0.368189
O158	O	-0.333903	-0.951506	0.701522
O159	O	-0.000570	-0.618172	1.034856
C160	C	-0.168254	-1.181347	0.461656
C161	C	0.165079	-0.848013	0.794989
C162	C	0.498413	-0.514680	1.128323
C163	C	-0.110138	-1.181508	0.461436
C164	C	0.223195	-0.848174	0.794769
C165	C	0.556528	-0.514841	1.128102
C166	C	-0.311351	-1.398216	0.472732
C167	C	0.021982	-1.064883	0.806066
C168	C	0.355315	-0.731549	1.139399
C169	C	-0.314443	-1.490643	0.477434
C170	C	0.018891	-1.157309	0.810767
C171	C	0.352224	-0.823976	1.144100
C172	C	-0.288177	-0.703620	0.437466
C173	C	0.045156	-0.370287	0.770799
C174	C	0.378490	-0.036953	1.104132
C175	C	-0.320057	-0.659864	0.485997
C176	C	0.013276	-0.326530	0.819330
C177	C	0.346609	0.006803	1.152663
C178	C	-0.316932	-0.565700	0.481231
C179	C	0.016401	-0.232367	0.814564
C180	C	0.349734	0.100966	1.147897
C181	C	-0.291301	-0.797792	0.442231
C182	C	0.042032	-0.464458	0.775564
C183	C	0.375366	-0.131125	1.108897
C184	C	-0.297589	-1.192436	0.244809
C185	C	0.035744	-0.859102	0.578142
C186	C	0.369078	-0.525769	0.911475
C187	C	-0.294816	-1.197171	0.152382
C188	C	0.038518	-0.863838	0.485715
C189	C	0.371851	-0.530504	0.819049
C190	C	-0.318511	-1.157142	0.939413
C191	C	0.014823	-0.823809	1.272747
C192	C	0.348156	-0.490476	1.606080
C193	C	-0.289697	-1.205653	0.983155
C194	C	0.043636	-0.872320	1.316488
C195	C	0.376970	-0.538986	1.649821
C196	C	-0.292546	-1.200932	1.077322
C197	C	0.040788	-0.867599	1.410655
C198	C	0.374121	-0.534265	1.743988
C199	C	-0.315662	-1.161862	0.845238
C200	C	0.017671	-0.828529	1.178571
C201	C	0.351004	-0.495195	1.511905
H202	H	-0.503980	-1.282799	0.370104
H203	H	-0.170647	-0.949466	0.703438
H204	H	0.162686	-0.616133	1.036771
H205	H	-0.262888	-1.250729	0.949881
H206	H	0.070445	-0.917395	1.283214
H207	H	0.403778	-0.584062	1.616548
Cl208	Cl	-0.365824	-0.711208	0.555666
Cl209	Cl	-0.032491	-0.377874	0.888999
Cl210	Cl	0.300843	-0.044541	1.222332
Cl211	Cl	-0.242416	-0.652275	0.367798
Cl212	Cl	0.090918	-0.318942	0.701131
Cl213	Cl	0.424251	0.014392	1.034464
H214	H	-0.603029	-1.282815	0.370045
H215	H	-0.269696	-0.949482	0.703378
H216	H	0.063638	-0.616148	1.036712
Cl217	Cl	-0.994312	-1.307676	0.347544
Cl218	Cl	-0.660978	-0.974343	0.680877
Cl219	Cl	-0.327645	-0.641010	1.014210
Cl220	Cl	-0.743320	-1.363514	0.297162
Cl221	Cl	-0.409987	-1.030181	0.630496
Cl222	Cl	-0.076654	-0.696848	0.963829
Cl223	Cl	-0.866544	-1.363553	0.297125
Cl224	Cl	-0.533210	-1.030220	0.630458
Cl225	Cl	-0.199877	-0.696887	0.963792
Cl226	Cl	-1.117560	-1.307696	0.347502
Cl227	Cl	-0.784226	-0.974363	0.680835
Cl228	Cl	-0.450893	-0.641029	1.014168
Cl229	Cl	-0.993519	-1.055284	0.575412
Cl230	Cl	-0.660186	-0.721951	0.908746
Cl231	Cl	-0.326852	-0.388618	1.242079
H232	H	-1.104737	-1.080086	0.553025
H233	H	-0.771403	-0.746753	0.886358
H234	H	-0.438070	-0.413419	1.219691
Cl235	Cl	-0.865385	-0.999332	0.625922
Cl236	Cl	-0.532052	-0.665999	0.959255
Cl237	Cl	-0.198719	-0.332666	1.292589
H238	H	-0.754325	-1.024059	0.603588
H239	H	-0.420992	-0.690726	0.936921
H240	H	-0.087658	-0.357392	1.270255
Cl241	Cl	-0.359897	-1.087549	0.990782
Cl242	Cl	-0.026563	-0.754216	1.324116
Cl243	Cl	0.306770	-0.420883	1.657449
H244	H	-0.602401	-1.079961	0.553220
H245	H	-0.269068	-0.746628	0.886553
H246	H	0.064265	-0.413294	1.219886
H247	H	-0.503335	-1.079942	0.553253
H248	H	-0.170001	-0.746608	0.886586
H249	H	0.163332	-0.413275	1.219920
