data_functionalizedCrystal
_audit_creation_method	'MofGen! by Chris Wilmer'
_symmetry_space_group_name_H-M	'P1'
_symmetry_Int_Tables_number	1
_symmetry_cell_setting	triclinic
loop_
_symmetry_equiv_pos_as_xyz
  x,y,z
_cell_length_a	16.793024
_cell_length_b	16.793047
_cell_length_c	33.586455
_cell_angle_alpha	113.253857
_cell_angle_beta	66.219990
_cell_angle_gamma	112.758327
loop_
_atom_site_label
_atom_site_type_symbol
_atom_site_fract_x
_atom_site_fract_y
_atom_site_fract_z
O1	O	0.005016	-0.570216	-0.583573
O2	O	-0.034529	-0.474528	-0.453458
O3	O	0.114723	-0.474535	-0.528082
O4	O	-0.144235	-0.570209	-0.508949
O5	O	0.108729	-0.346329	-0.530229
O6	O	-0.040523	-0.346322	-0.455605
O7	O	-0.000977	-0.442010	-0.585721
Zn8	Zn	-0.021701	-0.373810	-0.521004
Zn9	Zn	-0.013805	-0.542728	-0.518175
O10	O	-0.150229	-0.442003	-0.511097
C11	C	0.005100	-0.790970	-0.238461
C12	C	0.009223	-0.693065	-0.217557
C13	C	0.003804	-0.645758	-0.241627
C14	C	-0.075059	-0.538459	-0.266316
C15	C	0.049838	-0.422849	-0.250165
C16	C	-0.040584	-0.395375	-0.435637
C17	C	-0.044693	-0.353446	-0.386631
C18	C	-0.039275	-0.401741	-0.363054
C19	C	-0.040566	-0.125547	-0.300731
C20	C	-0.044689	-0.223451	-0.321635
C21	C	-0.039266	-0.270752	-0.297563
C22	C	0.039597	-0.378051	-0.272874
C23	C	-0.085304	-0.493667	-0.289026
C24	C	0.005118	-0.521142	-0.103554
C25	C	0.009231	-0.563064	-0.152559
C26	C	0.003809	-0.514775	-0.176138
C27	C	0.010758	-0.652581	-0.172822
C28	C	0.001010	-0.556371	-0.220792
C29	C	-0.008251	-0.506059	-0.245823
C30	C	-0.046224	-0.263935	-0.366370
C31	C	-0.036476	-0.360146	-0.318399
C32	C	-0.027211	-0.410451	-0.293367
C33	C	0.815184	-0.521162	-0.508596
C34	C	0.415541	-0.125553	-0.528781
C35	C	0.375032	-0.223457	-0.531493
C36	C	0.423813	-0.270761	-0.529101
C37	C	0.149318	-0.395376	-0.530584
C38	C	0.246774	-0.353455	-0.532364
C39	C	0.294574	-0.401748	-0.529976
C40	C	0.548961	-0.790984	-0.510398
C41	C	0.286104	-0.263940	-0.532530
C42	C	0.383336	-0.360149	-0.528302
C43	C	0.432207	-0.407971	-0.525810
C44	C	0.392316	-0.497392	-0.524993
C45	C	0.303554	-0.538991	-0.526667
C46	C	0.254683	-0.491169	-0.529159
C47	C	0.263666	-0.628421	-0.525851
C48	C	0.312537	-0.676243	-0.523359
C49	C	0.401299	-0.634644	-0.521685
C50	C	0.441190	-0.545223	-0.522502
C51	C	0.529952	-0.503624	-0.520828
C52	C	0.578823	-0.551446	-0.518336
C53	C	0.538939	-0.640864	-0.517520
C54	C	0.450177	-0.682463	-0.519194
C55	C	0.587810	-0.688687	-0.515028
C56	C	0.676572	-0.647088	-0.513354
C57	C	0.716463	-0.557666	-0.514172
C58	C	0.667586	-0.509847	-0.516662
C59	C	0.569840	-0.414195	-0.521644
C60	C	0.658602	-0.372596	-0.519970
C61	C	0.707476	-0.420426	-0.517480
C62	C	0.698493	-0.283174	-0.520788
C63	C	0.649622	-0.235352	-0.523280
C64	C	0.560860	-0.276951	-0.524954
C65	C	0.520969	-0.366372	-0.524136
C66	C	0.511989	-0.229129	-0.527446
C67	C	-0.040530	-0.395407	-0.935652
C68	C	0.005063	-0.791004	-0.738448
C69	C	0.009186	-0.693099	-0.717543
C70	C	0.003779	-0.645796	-0.741620
C71	C	0.005077	-0.521171	-0.603544
C72	C	0.009198	-0.563096	-0.652550
C73	C	0.003786	-0.514804	-0.676131
C74	C	-0.040516	-0.125574	-0.800747
C75	C	0.010719	-0.652613	-0.672809
C76	C	0.000994	-0.556406	-0.720789
C77	C	-0.004621	-0.508585	-0.744908
C78	C	-0.007444	-0.419162	-0.724369
C79	C	-0.004651	-0.377560	-0.679711
C80	C	0.000964	-0.425381	-0.655592
C81	C	-0.007471	-0.288129	-0.659174
C82	C	-0.013086	-0.240308	-0.683293
C83	C	-0.015878	-0.281910	-0.727951
C84	C	-0.013056	-0.371333	-0.748490
C85	C	-0.015848	-0.412935	-0.793148
C86	C	-0.021463	-0.365114	-0.817267
C87	C	-0.024282	-0.275694	-0.796731
C88	C	-0.021490	-0.234092	-0.752073
C89	C	-0.029897	-0.227873	-0.820850
C90	C	-0.032690	-0.269476	-0.865508
C91	C	-0.029867	-0.358899	-0.886047
C92	C	-0.024255	-0.406717	-0.861925
C93	C	-0.013028	-0.502367	-0.813685
C94	C	-0.015821	-0.543969	-0.858343
C95	C	-0.021433	-0.496140	-0.882464
C96	C	-0.012998	-0.633392	-0.878882
C97	C	-0.007383	-0.681213	-0.854763
C98	C	-0.004591	-0.639611	-0.810105
C99	C	-0.007414	-0.550188	-0.789566
C100	C	0.001024	-0.687432	-0.785986
O101	O	-0.000965	0.173549	-0.277957
O102	O	-0.040516	-0.085616	-0.325254
O103	O	0.108737	0.059592	-0.327284
O104	O	-0.150219	0.028341	-0.275927
O105	O	0.114753	0.055151	-0.263265
O106	O	-0.034500	-0.090057	-0.261234
O107	O	0.005051	0.169108	-0.213937
Zn108	Zn	-0.013769	0.038820	-0.227421
Zn109	Zn	-0.021696	0.044672	-0.311770
O110	O	-0.144202	0.023900	-0.211907
O111	O	-0.034458	-0.474571	0.046517
O112	O	0.005076	-0.570190	-0.083599
O113	O	-0.144170	-0.570237	-0.008972
O114	O	0.114787	-0.474523	-0.028110
O115	O	-0.150200	-0.442024	-0.011093
O116	O	-0.000954	-0.441976	-0.085720
O117	O	-0.040488	-0.346357	0.044396
Zn118	Zn	-0.021679	-0.373810	-0.020999
Zn119	Zn	-0.013734	-0.542737	-0.018204
O120	O	0.108757	-0.346309	-0.030231
C121	C	-0.850734	0.086244	-0.289716
C122	C	-0.753280	0.087165	-0.312001
C123	C	-0.705462	0.081107	-0.288506
C124	C	-0.599592	0.000085	-0.264184
C125	C	-0.481080	0.121287	-0.283645
C126	C	-0.450996	0.035117	-0.097351
C127	C	-0.410501	0.028587	-0.146852
C128	C	-0.459292	0.034683	-0.169840
C129	C	-0.184802	0.024283	-0.235878
C130	C	-0.282257	0.023363	-0.213592
C131	C	-0.330068	0.029423	-0.237088
C132	C	-0.435938	0.110445	-0.261411
C133	C	-0.554456	-0.010759	-0.241948
C134	C	-0.584541	0.075410	-0.428242
C135	C	-0.625029	0.081943	-0.378743
C136	C	-0.576244	0.075844	-0.355753
C137	C	-0.713963	0.086424	-0.357292
C138	C	-0.616708	0.075351	-0.310510
C139	C	-0.565963	0.065400	-0.286043
C140	C	-0.321573	0.024104	-0.168302
C141	C	-0.418828	0.035176	-0.215083
C142	C	-0.469568	0.045131	-0.239552
O143	O	0.585213	0.169090	-0.504004
O144	O	0.494056	-0.090076	-0.525516
O145	O	0.488081	0.055124	-0.449918
O146	O	0.591189	0.023889	-0.579602
O147	O	0.359978	0.059584	-0.452885
O148	O	0.365953	-0.085616	-0.528483
O149	O	0.457110	0.173550	-0.506971
Zn150	Zn	0.391193	0.044675	-0.518198
Zn151	Zn	0.559974	0.038798	-0.514289
O152	O	0.463086	0.028349	-0.582569
C153	C	0.815354	-0.521094	-0.008709
C154	C	0.717898	-0.563028	-0.006927
C155	C	0.670072	-0.514739	-0.009298
C156	C	0.564182	-0.463204	-0.048354
C157	C	0.445681	-0.498945	0.013847
C158	C	0.415547	-0.125494	-0.028771
C159	C	0.375059	-0.223405	-0.031498
C160	C	0.423859	-0.270708	-0.029121
C161	C	0.149365	-0.395355	-0.030599
C162	C	0.246820	-0.353421	-0.032381
C163	C	0.294640	-0.401713	-0.030008
C164	C	0.400530	-0.453248	0.009048
C165	C	0.519038	-0.417504	-0.053155
C166	C	0.549171	-0.790955	-0.010537
C167	C	0.589653	-0.693047	-0.007809
C168	C	0.540859	-0.645741	-0.010187
C169	C	0.678588	-0.652551	-0.006775
C170	C	0.581317	-0.556344	-0.010973
C171	C	0.530562	-0.506029	-0.015250
C172	C	0.286131	-0.263897	-0.032533
C173	C	0.383402	-0.360104	-0.028335
C174	C	0.434150	-0.410423	-0.024057
O175	O	-0.620614	0.089309	0.052274
O176	O	-0.529507	0.043784	-0.078544
O177	O	-0.523494	0.194833	-0.006033
O178	O	-0.626628	-0.061740	-0.020236
O179	O	-0.395386	0.185419	-0.005549
O180	O	-0.401400	0.034370	-0.078059
O181	O	-0.492507	0.079895	0.052758
Zn182	Zn	-0.426614	0.055638	-0.012574
Zn183	Zn	-0.595401	0.068041	-0.013212
O184	O	-0.498521	-0.071154	-0.019752
C185	C	-0.437537	0.048335	0.402491
C186	C	-0.397043	0.041789	0.352989
C187	C	-0.445822	0.047883	0.329994
C188	C	-0.496646	0.126653	0.277022
C189	C	-0.465894	-0.000633	0.218811
C190	C	-0.837226	0.099430	0.210091
C191	C	-0.739773	0.100339	0.187806
C192	C	-0.691967	0.094287	0.211308
C193	C	-0.571027	0.088563	0.071568
C194	C	-0.611521	0.095108	0.121070
C195	C	-0.562739	0.089011	0.144061
C196	C	-0.511915	0.010241	0.197033
C197	C	-0.542670	0.137531	0.255247
C198	C	-0.171338	0.037467	0.263967
C199	C	-0.268788	0.036555	0.286249
C200	C	-0.316597	0.042611	0.262750
C201	C	-0.308112	0.037305	0.331542
C202	C	-0.405351	0.048369	0.284750
C203	C	-0.456092	0.058317	0.260279
C204	C	-0.700452	0.099593	0.142516
C205	C	-0.603213	0.088528	0.189308
C206	C	-0.552469	0.078578	0.213776
O207	O	-0.040608	-1.085661	-0.825229
O208	O	-0.001018	-0.826491	-0.777938
O209	O	-0.150287	-0.971682	-0.775894
O210	O	0.108661	-0.940470	-0.827272
O211	O	-0.144253	-0.976123	-0.711878
O212	O	0.005016	-0.830932	-0.713922
O213	O	-0.034575	-1.090102	-0.761213
Zn214	Zn	-0.013821	-0.961222	-0.727403
Zn215	Zn	-0.021771	-0.955371	-0.811747
O216	O	0.114695	-0.944911	-0.763256
O217	O	-0.036655	-0.230502	-0.253975
C218	C	-0.028374	-0.246595	-0.187665
C219	C	-0.031294	-0.292278	-0.237029
H220	H	-0.024058	-0.296526	-0.173946
H221	H	0.033332	-0.185832	-0.186477
H222	H	-0.092305	-0.223618	-0.166014
H223	H	0.032593	-0.315312	-0.258709
H224	H	-0.093041	-0.353001	-0.238182
H225	H	-0.490116	0.084434	0.126151
H226	H	-0.503619	0.071273	-0.373665
O227	O	-0.259894	0.033383	0.354633
C228	C	-0.178151	-0.051219	0.359544
C229	C	-0.232724	-0.046884	0.333345
H230	H	-0.156185	-0.116118	0.342349
H231	H	-0.115866	0.009044	0.359807
H232	H	-0.222063	-0.049815	0.395895
H233	H	-0.188887	-0.048316	0.296982
H234	H	-0.295017	-0.107142	0.333119
O235	O	-0.519796	-0.048603	0.156209
C236	C	-0.483771	-0.180853	0.097493
C237	C	-0.474799	-0.114291	0.143735
H238	H	-0.447381	-0.233968	0.087388
H239	H	-0.558306	-0.214983	0.100047
H240	H	-0.452216	-0.142841	0.070791
H241	H	-0.506305	-0.152236	0.170461
H242	H	-0.400251	-0.080162	0.141143
O243	O	-0.050588	-0.224762	-0.885623
C244	C	-0.004290	-0.091449	-0.909271
C245	C	0.016095	-0.141998	-0.886492
H246	H	0.049600	-0.024517	-0.909972
H247	H	-0.004149	-0.133938	-0.945445
H248	H	-0.073461	-0.078449	-0.889230
H249	H	0.085267	-0.155007	-0.906496
H250	H	0.015894	-0.099484	-0.850315
H251	H	-0.005085	-0.754331	-0.871556
O252	O	0.013741	-0.700201	-0.149016
C253	C	-0.059386	-0.756797	-0.083614
C254	C	-0.062884	-0.702865	-0.110536
H255	H	-0.121321	-0.758953	-0.052493
H256	H	-0.058646	-0.828331	-0.106019
H257	H	0.004444	-0.722977	-0.072385
H258	H	-0.126706	-0.736608	-0.121770
H259	H	-0.063575	-0.631333	-0.088115
O260	O	-0.153708	-0.530240	-0.308192
C261	C	-0.227835	-0.512901	-0.351367
C262	C	-0.150318	-0.471390	-0.329691
H263	H	-0.225131	-0.465331	-0.368745
H264	H	-0.220447	-0.580205	-0.377466
H265	H	-0.295360	-0.523877	-0.323904
H266	H	-0.082756	-0.460355	-0.357121
H267	H	-0.157786	-0.404117	-0.303582
H268	H	-0.518447	0.052455	0.347905
O269	O	0.454259	-0.686250	-0.011792
C270	C	0.354363	-0.807127	-0.052246
C271	C	0.452475	-0.761354	-0.050479
H272	H	0.352890	-0.867846	-0.083527
H273	H	0.311314	-0.830163	-0.020454
H274	H	0.326255	-0.757209	-0.054080
H275	H	0.480664	-0.811221	-0.048660
H276	H	0.495461	-0.738301	-0.082270
H277	H	0.003321	-0.760550	-0.802778
H278	H	0.279916	-0.749353	-0.522691
O279	O	0.177087	-0.669117	-0.527460
C280	C	0.054158	-0.804696	-0.528080
C281	C	0.152209	-0.758704	-0.526242
H282	H	0.034020	-0.877139	-0.527105
H283	H	0.007040	-0.766647	-0.497734
H284	H	0.048846	-0.804361	-0.560795
H285	H	0.157608	-0.759027	-0.493546
H286	H	0.199282	-0.796767	-0.556610
H287	H	0.245737	-0.223998	-0.033572
H288	H	0.001650	-0.679613	-0.278166
O289	O	-0.015559	-0.673877	-0.922470
C290	C	0.055815	-0.672555	-1.000563
C291	C	0.058841	-0.626632	-0.951223
H292	H	0.115949	-0.634366	-1.023821
H293	H	0.058867	-0.744971	-1.011180
H294	H	-0.009659	-0.672295	-1.003208
H295	H	0.124305	-0.626825	-0.948540
H296	H	0.055739	-0.554240	-0.940627
O297	O	0.013689	-0.700230	-0.648998
C298	C	-0.059461	-0.756811	-0.583591
C299	C	-0.062943	-0.702884	-0.610521
H300	H	-0.121400	-0.758958	-0.552472
H301	H	-0.058724	-0.828348	-0.605992
H302	H	0.004365	-0.722992	-0.572359
H303	H	-0.126760	-0.736625	-0.621758
H304	H	-0.063630	-0.631349	-0.588103
O305	O	-0.488814	0.185455	0.317864
C306	C	-0.524718	0.317781	0.376554
C307	C	-0.533668	0.251244	0.330304
H308	H	-0.560959	0.370999	0.386621
H309	H	-0.556344	0.279852	0.403295
H310	H	-0.450159	0.351786	0.373971
H311	H	-0.608204	0.217220	0.332843
H312	H	-0.501985	0.289220	0.303581
O313	O	-0.428260	-0.070699	0.200022
C314	C	-0.422818	-0.204585	0.208209
C315	C	-0.465527	-0.125294	0.229533
H316	H	-0.452917	-0.248737	0.232064
H317	H	-0.437213	-0.246188	0.174409
H318	H	-0.346646	-0.177489	0.202379
H319	H	-0.541706	-0.152313	0.235393
H320	H	-0.451059	-0.083705	0.263318
H321	H	-0.023718	-0.530163	-0.918978
O322	O	0.407550	-0.539055	0.047818
C323	C	0.278822	-0.569150	0.111741
C324	C	0.321887	-0.523699	0.073284
H325	H	0.209565	-0.556735	0.132347
H326	H	0.271006	-0.644663	0.096614
H327	H	0.324054	-0.539645	0.134752
H328	H	0.276696	-0.553131	0.050259
H329	H	0.329721	-0.448188	0.088442
H330	H	-0.283673	0.042875	0.225734
H331	H	0.001660	-0.441639	-0.159184
H332	H	-0.574318	0.196197	0.271049
H333	H	0.710767	-0.684484	-0.506030
H334	H	-0.297145	0.029698	-0.274103
H335	H	0.417564	-0.755580	-0.518528
O336	O	0.556892	-0.377435	-0.087132
C337	C	0.543985	-0.368602	-0.154082
C338	C	0.500999	-0.414041	-0.115623
H339	H	0.498824	-0.398194	-0.177133
H340	H	0.551703	-0.293104	-0.138957
H341	H	0.613297	-0.380912	-0.174645
H342	H	0.431667	-0.401801	-0.095046
H343	H	0.493350	-0.489525	-0.130777
H344	H	-0.669612	-0.046576	-0.265443
H345	H	0.780052	-0.386407	-0.516111
O346	O	-0.744643	0.080935	-0.244324
C347	C	-0.738974	0.154519	-0.167337
C348	C	-0.694520	0.154829	-0.217355
H349	H	-0.698457	0.214245	-0.145520
H350	H	-0.811049	0.159780	-0.155722
H351	H	-0.740294	0.089254	-0.163747
H352	H	-0.693134	0.220080	-0.220983
H353	H	-0.622469	0.149520	-0.228947
H354	H	0.330510	-0.448858	0.033327
H355	H	0.771070	-0.249160	-0.519423
H356	H	-0.724884	0.094041	0.248327
H357	H	0.682238	-0.162236	-0.523943
O358	O	0.510476	-0.230401	-0.027518
C359	C	0.615220	-0.185183	0.014680
C360	C	0.517094	-0.230861	0.012924
H361	H	0.620598	-0.185523	0.047379
H362	H	0.662156	-0.223400	-0.015690
H363	H	0.635538	-0.112744	0.013664
H364	H	0.496690	-0.303298	0.013954
H365	H	0.470214	-0.192576	0.043291
O366	O	0.237846	-0.216325	-0.533700
C367	C	0.106274	-0.159747	-0.496749
C368	C	0.160855	-0.213669	-0.495366
H369	H	0.044006	-0.157598	-0.465765
H370	H	0.150120	-0.088210	-0.496642
H371	H	0.084259	-0.193570	-0.528887
H372	H	0.182880	-0.179924	-0.463233
H373	H	0.116976	-0.285205	-0.495498
H374	H	-0.048864	-0.224020	-0.386283
O375	O	-0.036588	-0.488963	-0.383247
C376	C	0.047267	-0.596536	-0.407015
C377	C	0.044330	-0.497733	-0.384127
H378	H	0.112692	-0.603656	-0.407743
H379	H	-0.012938	-0.641349	-0.387091
H380	H	0.044244	-0.617739	-0.443189
H381	H	0.047380	-0.476446	-0.347954
H382	H	0.104528	-0.452978	-0.404086
H383	H	-0.123560	-0.607102	-0.263443
O384	O	-0.762008	0.090359	-0.380466
C385	C	-0.772921	0.172120	-0.422211
C386	C	-0.718411	0.167752	-0.395990
H387	H	-0.737705	0.234697	-0.434762
H388	H	-0.777653	0.109521	-0.452435
H389	H	-0.843804	0.175404	-0.398817
H390	H	-0.647502	0.164498	-0.419348
H391	H	-0.713753	0.230351	-0.365761
O392	O	-0.015787	-0.153079	-0.663199
C393	C	-0.015280	-0.027665	-0.595702
C394	C	-0.012188	-0.126449	-0.618407
H395	H	-0.012391	-0.006111	-0.559481
H396	H	0.044905	0.017060	-0.615684
H397	H	-0.080715	-0.020833	-0.595126
H398	H	0.053207	-0.133368	-0.618988
H399	H	-0.072418	-0.171127	-0.598417
H400	H	0.182115	-0.525189	-0.530531
H401	H	-0.365918	0.157102	-0.260160
H402	H	0.544602	-0.156012	-0.528109
O403	O	-0.592553	-0.077748	-0.221430
C404	C	-0.721315	-0.202081	-0.204634
C405	C	-0.678276	-0.126258	-0.227892
H406	H	-0.790637	-0.241309	-0.209842
H407	H	-0.676173	-0.249422	-0.220025
H408	H	-0.729020	-0.171597	-0.166783
H409	H	-0.670567	-0.156662	-0.265744
H410	H	-0.723437	-0.078927	-0.212464
O411	O	-0.004919	-0.247676	-0.615586
C412	C	-0.076485	-0.248908	-0.537487
C413	C	-0.079439	-0.294834	-0.586838
H414	H	-0.136737	-0.287005	-0.514229
H415	H	-0.011100	-0.249182	-0.534752
H416	H	-0.079459	-0.176486	-0.526942
H417	H	-0.076499	-0.367274	-0.597415
H418	H	-0.144819	-0.294488	-0.589546
O419	O	-0.024081	-0.146820	-0.732043
C420	C	0.051891	0.003725	-0.696235
C421	C	0.054953	-0.095070	-0.718917
H422	H	0.115773	0.045589	-0.685608
H423	H	0.047437	0.030937	-0.721237
H424	H	-0.009847	0.007773	-0.665037
H425	H	0.116685	-0.099197	-0.750112
H426	H	0.059359	-0.122239	-0.693885
H427	H	-0.281187	0.020914	-0.148901
O428	O	-0.748488	0.103507	0.119332
C429	C	-0.759392	0.185219	0.077559
C430	C	-0.704892	0.180886	0.103795
H431	H	-0.724177	0.247784	0.064998
H432	H	-0.764112	0.122606	0.047340
H433	H	-0.830281	0.188501	0.100946
H434	H	-0.633978	0.177633	0.080445
H435	H	-0.700247	0.243497	0.134018
O436	O	-0.442940	0.188208	-0.304210
C437	C	-0.314200	0.312569	-0.320989
C438	C	-0.357277	0.236809	-0.297688
H439	H	-0.244943	0.351896	-0.315716
H440	H	-0.306380	0.282116	-0.358851
H441	H	-0.359425	0.359824	-0.305621
H442	H	-0.312092	0.189528	-0.313019
H443	H	-0.365113	0.267324	-0.259826
H444	H	0.003251	-0.391359	-0.619081
O445	O	0.255508	-0.489014	-0.029379
C446	C	0.261119	-0.643152	-0.066295
C447	C	0.305542	-0.544319	-0.067055
H448	H	0.301541	-0.687895	-0.096757
H449	H	0.259863	-0.650406	-0.033684
H450	H	0.189019	-0.664327	-0.067896
H451	H	0.377660	-0.523078	-0.065471
H452	H	0.306727	-0.537119	-0.099664
H453	H	0.107243	-0.392097	-0.234140
H454	H	-0.531920	0.039247	-0.151930
H455	H	0.718963	-0.692464	-0.005731
H456	H	0.634201	-0.467612	-0.072637
O457	O	0.097565	-0.296230	-0.276345
C458	C	0.252015	-0.211967	-0.302533
C459	C	0.186460	-0.304691	-0.298645
H460	H	0.323903	-0.218773	-0.320553
H461	H	0.232489	-0.185388	-0.322747
H462	H	0.248184	-0.163077	-0.267144
H463	H	0.190258	-0.353647	-0.334015
H464	H	0.206007	-0.331195	-0.278407
O465	O	0.709377	-0.427441	-0.009911
C466	C	0.779283	-0.277232	0.029274
C467	C	0.734818	-0.376074	0.030012
H468	H	0.799847	-0.235671	0.061551
H469	H	0.841729	-0.273124	-0.001517
H470	H	0.729126	-0.249716	0.027251
H471	H	0.784905	-0.403653	0.032050
H472	H	0.672357	-0.380123	0.060798
