data_functionalizedCrystal
_audit_creation_method	'MofGen! by Chris Wilmer'
_symmetry_space_group_name_H-M	'P1'
_symmetry_Int_Tables_number	1
_symmetry_cell_setting	triclinic
loop_
_symmetry_equiv_pos_as_xyz
  x,y,z
_cell_length_a	16.992694
_cell_length_b	8.559649
_cell_length_c	16.053802
_cell_angle_alpha	92.204030
_cell_angle_beta	87.249047
_cell_angle_gamma	80.223444
loop_
_atom_site_label
_atom_site_type_symbol
_atom_site_fract_x
_atom_site_fract_y
_atom_site_fract_z
O1	O	1.023824	0.329978	-0.069320
O2	O	0.795762	0.326287	-0.069345
O3	O	0.929885	0.098096	-0.069329
O4	O	0.889700	0.558168	-0.069335
O5	O	0.922506	0.110601	0.069529
O6	O	0.788383	0.338792	0.069513
O7	O	1.016444	0.342483	0.069538
Zn8	Zn	0.901242	0.342623	0.091572
Zn9	Zn	0.910964	0.326147	-0.091379
O10	O	0.882321	0.570673	0.069523
C11	C	0.763145	0.327794	0.000081
C12	C	0.676954	0.313635	0.000072
C13	C	0.618488	0.450242	0.000071
C14	C	0.537502	0.436931	0.000082
C15	C	0.514985	0.287010	0.000089
C16	C	0.573459	0.150392	0.000093
C17	C	0.654442	0.163706	0.000087
C18	C	0.274709	0.231830	0.000112
C19	C	0.193719	0.218527	0.000115
C20	C	0.157768	0.505067	0.000106
C21	C	0.238755	0.518367	0.000096
C22	C	0.297221	0.381749	0.000104
N23	N	0.432206	0.273399	0.000099
N24	N	0.379998	0.395362	0.000100
C25	C	0.929241	0.045208	0.000098
C26	C	0.938306	-0.131015	0.000095
C27	C	1.049061	0.340975	0.000110
C28	C	1.135252	0.355134	0.000114
C29	C	0.882965	0.623562	0.000093
C30	C	0.873901	0.799784	0.000091
N31	N	0.894612	0.353867	0.216432
N32	N	0.917601	0.314891	-0.216239
C33	C	0.951698	0.256811	0.260132
C34	C	0.947067	0.264692	0.347539
C35	C	0.885353	0.369639	0.391243
C36	C	0.828261	0.466699	0.347536
C37	C	0.832890	0.458808	0.260132
C38	C	0.865138	0.404060	0.652650
C39	C	0.860515	0.411947	0.740061
C40	C	0.979321	0.209937	0.740057
C41	C	0.983946	0.202063	0.652651
C42	C	0.926852	0.299117	0.608952
N43	N	0.880619	0.377701	0.480586
N44	N	0.931583	0.291046	0.519610
H45	H	0.110157	0.616292	0.000102
O46	O	1.002515	0.170194	0.389893
C47	C	1.000456	0.009662	0.368561
H48	H	0.973808	0.000258	0.305107
H49	H	0.962090	-0.039946	0.417766
C50	C	1.118757	-0.074429	0.442443
C51	C	1.086035	-0.085980	0.364505
H52	H	1.171545	-0.133429	0.439944
H53	H	1.120143	0.033724	0.456818
H54	H	1.086777	-0.115767	0.483439
H55	H	1.118008	-0.044624	0.323513
H56	H	1.084656	-0.194128	0.350123
H57	H	0.811826	-0.124646	0.000087
O58	O	1.011538	0.154713	0.217609
C59	C	0.978412	0.046934	0.167106
H60	H	0.914434	0.101118	0.153995
H61	H	0.978358	-0.067850	0.200835
C62	C	1.107303	-0.055488	0.100191
C63	C	1.028726	0.011068	0.084083
H64	H	1.138340	-0.077619	0.048980
H65	H	1.129622	0.017120	0.134218
H66	H	1.107247	-0.151134	0.128301
H67	H	1.028782	0.106721	0.055984
H68	H	1.006408	-0.061525	0.050049
H69	H	1.034199	0.116607	0.617069
H70	H	0.636813	0.572324	0.000064
H71	H	0.786403	0.537840	0.224552
O72	O	0.809743	0.498584	0.610250
C73	C	0.811797	0.659103	0.631618
H74	H	0.872774	0.670063	0.655629
H75	H	0.763189	0.704692	0.682364
C76	C	0.722442	0.744596	0.524485
C77	C	0.797337	0.758059	0.553969
H78	H	0.713518	0.805640	0.476590
H79	H	0.721055	0.636452	0.510091
H80	H	0.681943	0.782585	0.566781
H81	H	0.837834	0.720052	0.511678
H82	H	0.798730	0.866200	0.568354
H83	H	1.000384	-0.206593	0.000108
O84	O	0.171981	0.072766	0.000159
C85	C	0.240951	-0.044965	0.000142
H86	H	0.292016	0.008884	0.026432
H87	H	0.258626	-0.093603	-0.066474
C88	C	0.160714	-0.246746	0.022309
C89	C	0.223431	-0.180611	0.054605
H90	H	0.149908	-0.330423	0.055901
H91	H	0.114248	-0.167430	0.022317
H92	H	0.175451	-0.287265	-0.033204
H93	H	0.208689	-0.140076	0.110113
H94	H	0.269895	-0.259923	0.054608
H95	H	0.322304	0.120586	0.000119
O96	O	0.480644	0.569510	-0.000038
C97	C	0.436550	0.563913	-0.071962
H98	H	0.441291	0.435365	-0.095926
H99	H	0.461563	0.635188	-0.122329
C100	C	0.342366	0.793050	-0.020686
C101	C	0.348184	0.635164	-0.050115
H102	H	0.287858	0.837007	-0.007212
H103	H	0.372074	0.796826	0.027769
H104	H	0.363215	0.852425	-0.062664
H105	H	0.327344	0.575787	-0.008134
H106	H	0.318469	0.631380	-0.098563
O107	O	1.034688	0.115717	0.782636
C108	C	1.017385	0.145206	0.869154
H109	H	0.951328	0.197580	0.881098
H110	H	1.055320	0.232646	0.893946
C111	C	1.117606	-0.075773	0.899366
C112	C	1.036471	-0.011459	0.914036
H113	H	1.129382	-0.172408	0.927054
H114	H	1.129266	-0.095638	0.841078
H115	H	1.149209	-0.002891	0.920026
H116	H	1.004870	-0.084332	0.893367
H117	H	1.024806	0.008390	0.972322
O118	O	0.800462	0.513707	0.782483
C119	C	0.726130	0.476078	0.761130
H120	H	0.734678	0.346910	0.737104
H121	H	0.700656	0.556447	0.710400
C122	C	0.657298	0.659538	0.868296
C123	C	0.667796	0.500888	0.838794
H124	H	0.621313	0.674848	0.916201
H125	H	0.707376	0.684895	0.882680
H126	H	0.636073	0.726495	0.826013
H127	H	0.689030	0.433936	0.881072
H128	H	0.617720	0.475520	0.824418
H129	H	0.257081	0.640447	0.000080
O130	O	0.551555	0.004780	-0.000048
C131	C	0.509583	-0.017956	-0.071951
H132	H	0.526452	0.062827	-0.122219
H133	H	0.442515	0.011912	-0.055691
C134	C	0.510826	-0.291481	-0.042817
C135	C	0.531550	-0.192271	-0.104559
H136	H	0.524372	-0.399008	-0.062930
H137	H	0.539101	-0.276163	0.005627
H138	H	0.454936	-0.266572	-0.029272
H139	H	0.587439	-0.217167	-0.118096
H140	H	0.503284	-0.207598	-0.153007
H141	H	0.702047	0.052465	0.000088
H142	H	0.778008	0.552143	0.383125
