data_functionalizedCrystal
_audit_creation_method	'MofGen! by Chris Wilmer'
_symmetry_space_group_name_H-M	'P1'
_symmetry_Int_Tables_number	1
_symmetry_cell_setting	triclinic
loop_
_symmetry_equiv_pos_as_xyz
  x,y,z
_cell_length_a	10.654550
_cell_length_b	13.930277
_cell_length_c	10.654549
_cell_angle_alpha	90.003542
_cell_angle_beta	84.484854
_cell_angle_gamma	90.003973
loop_
_atom_site_label
_atom_site_type_symbol
_atom_site_fract_x
_atom_site_fract_y
_atom_site_fract_z
O1	O	1.667846	0.079757	0.176398
O2	O	1.302368	0.079774	0.193204
O3	O	1.493510	0.079761	0.002062
O4	O	1.476703	0.079770	0.367540
O5	O	1.493483	-0.079901	0.002058
O6	O	1.302341	-0.079887	0.193200
O7	O	1.667819	-0.079905	0.176394
Zn8	Zn	1.485076	-0.105246	0.184796
Zn9	Zn	1.485111	0.105115	0.184802
O10	O	1.476677	-0.079892	0.367536
C11	C	1.255556	-0.000054	0.191968
C12	C	1.116113	-0.000048	0.188276
N13	N	1.485061	-0.248812	0.184792
C14	C	1.036627	-0.000048	0.300818
C15	C	0.905606	-0.000064	0.297341
C16	C	0.933570	-0.000077	0.068772
C17	C	1.064588	-0.000067	0.072250
C18	C	1.400470	-0.701075	0.269406
C19	C	1.569787	-0.701056	0.100188
C20	C	1.569772	-0.600561	0.100184
C21	C	1.485106	-0.550318	0.184794
C22	C	1.400454	-0.600570	0.269407
C23	C	1.654430	-0.550301	0.015581
C24	C	1.654420	-0.449799	0.015574
C25	C	1.569746	-0.399554	0.100179
C26	C	1.485091	-0.449813	0.184795
C27	C	1.400425	-0.399570	0.269404
C28	C	1.315762	-0.449827	0.354015
C29	C	1.315781	-0.550326	0.354012
C30	C	1.569727	-0.299055	0.100182
C31	C	1.400409	-0.299065	0.269405
C32	C	1.714631	-0.000074	0.177630
C33	C	1.854074	-0.000074	0.181322
C34	C	1.492263	-0.000069	-0.044738
C35	C	1.488571	-0.000065	-0.184181
N36	N	1.485136	0.248682	0.184797
C37	C	1.597634	-0.000064	-0.394696
C38	C	1.601113	-0.000072	-0.263676
C39	C	1.372543	-0.000061	-0.235714
C40	C	1.369066	-0.000060	-0.366732
C41	C	1.477924	-0.000060	0.414336
C42	C	1.481616	-0.000057	0.553780
H43	H	1.078574	-0.000039	0.395294
H44	H	1.280910	-0.000061	-0.170979
O45	O	1.150335	-0.000069	-0.049139
H46	H	1.092498	-0.000072	-0.130404
H47	H	1.638726	-0.741968	0.031307
H48	H	1.723369	-0.591212	-0.053300
O49	O	1.243926	-0.000053	-0.422319
H50	H	1.166248	-0.000042	-0.345037
H51	H	1.638664	-0.258140	0.031299
O52	O	0.819870	-0.000062	0.418724
H53	H	0.877715	-0.000040	0.499983
H54	H	0.891602	-0.000099	-0.025693
H55	H	1.723355	-0.408886	-0.053321
H56	H	1.246831	-0.408907	0.422911
O57	O	1.309093	-0.244874	0.360667
H58	H	1.250237	-0.296706	0.419503
H59	H	1.246853	-0.591251	0.422900
H60	H	1.331535	-0.741997	0.338292
O61	O	1.719019	-0.000078	-0.480436
H62	H	1.800278	-0.000096	-0.422590
H63	H	1.695586	-0.000079	-0.221732
