data_functionalizedCrystal
_audit_creation_method	'MofGen! by Chris Wilmer'
_symmetry_space_group_name_H-M	'P1'
_symmetry_Int_Tables_number	1
_symmetry_cell_setting	triclinic
loop_
_symmetry_equiv_pos_as_xyz
  x,y,z
_cell_length_a	25.639242
_cell_length_b	25.639240
_cell_length_c	18.050582
_cell_angle_alpha	89.968180
_cell_angle_beta	89.976905
_cell_angle_gamma	90.027658
loop_
_atom_site_label
_atom_site_type_symbol
_atom_site_fract_x
_atom_site_fract_y
_atom_site_fract_z
Zn1	Zn	0.799254	-0.208255	-0.420027
Zn2	Zn	0.799185	-0.295683	-0.295817
Zn3	Zn	0.711828	-0.208255	-0.295833
Zn4	Zn	0.711785	-0.295654	-0.419947
O5	O	0.755513	-0.251962	-0.357906
O6	O	0.872410	-0.219865	-0.403576
O7	O	0.787586	-0.284098	-0.191894
O8	O	0.723473	-0.135090	-0.312348
O9	O	0.872359	-0.284097	-0.312320
O10	O	0.787705	-0.135090	-0.403592
O11	O	0.723405	-0.219865	-0.191906
O12	O	0.638657	-0.219837	-0.312271
O13	O	0.723399	-0.284048	-0.523883
O14	O	0.638625	-0.284048	-0.403457
O15	O	0.787662	-0.219836	-0.523941
O16	O	0.787543	-0.368844	-0.312243
O17	O	0.723331	-0.368823	-0.403441
C18	C	0.619671	-0.251940	-0.357858
C19	C	0.561556	-0.251943	-0.357855
C20	C	0.310371	-0.218471	-0.310507
C21	C	0.364975	-0.218466	-0.310498
O22	O	0.393219	-0.189977	-0.270200
N23	N	0.392283	-0.251949	-0.357892
C24	C	0.364983	-0.285435	-0.405304
O25	O	0.393224	-0.313914	-0.445616
C26	C	0.310380	-0.285437	-0.405316
C27	C	0.283075	-0.251956	-0.357914
C28	C	0.283066	-0.184992	-0.263109
C29	C	0.228466	-0.184998	-0.263118
C30	C	0.201170	-0.218483	-0.310525
C31	C	0.228474	-0.251962	-0.357923
C32	C	0.283081	-0.318920	-0.452731
C33	C	0.228474	-0.318919	-0.452740
C34	C	0.201169	-0.285438	-0.405338
C35	C	0.146578	-0.285452	-0.405338
N36	N	0.119271	-0.251969	-0.357944
C37	C	0.146567	-0.218484	-0.310537
C38	C	0.479653	-0.285428	-0.405274
C39	C	0.534256	-0.285430	-0.405259
C40	C	0.534244	-0.218460	-0.310454
C41	C	0.479641	-0.218462	-0.310466
C42	C	0.452346	-0.251946	-0.357881
C43	C	0.031901	-0.218499	-0.310559
C44	C	-0.022704	-0.218509	-0.310569
C45	C	-0.022688	-0.285477	-0.405377
C46	C	0.031913	-0.285469	-0.405364
C47	C	0.059206	-0.251976	-0.357952
O48	O	0.118300	-0.313925	-0.445617
O49	O	0.118319	-0.190005	-0.270239
C50	C	0.755439	-0.387804	-0.357848
C51	C	0.755455	-0.445918	-0.357848
C52	C	0.788975	-0.806243	-0.405503
C53	C	0.788990	-0.860847	-0.405518
O54	O	0.817402	-0.889051	-0.445976
N55	N	0.755586	-0.888201	-0.357978
C56	C	0.722159	-0.860947	-0.310425
O57	O	0.693747	-0.889228	-0.269990
C58	C	0.722142	-0.806344	-0.310414
C59	C	0.755553	-0.778993	-0.357952
C60	C	0.822383	-0.778892	-0.453037
C61	C	0.822368	-0.724291	-0.453021
C62	C	0.788945	-0.697042	-0.405470
C63	C	0.755538	-0.724393	-0.357936
C64	C	0.688713	-0.779092	-0.262865
C65	C	0.688698	-0.724485	-0.262859
C66	C	0.722109	-0.697134	-0.310397
C67	C	0.722100	-0.642543	-0.310369
N68	N	0.755505	-0.615189	-0.357909
C69	C	0.788928	-0.642438	-0.405459
C70	C	0.722198	-0.975618	-0.310452
C71	C	0.722218	-1.030220	-0.310459
C72	C	0.789049	-1.030116	-0.405553
C73	C	0.789031	-0.975513	-0.405542
C74	C	0.755603	-0.948264	-0.357992
C75	C	0.788894	-0.527773	-0.405421
C76	C	0.788878	-0.473168	-0.405399
C77	C	0.722046	-0.473277	-0.310308
C78	C	0.722064	-0.527877	-0.310327
C79	C	0.755490	-0.555124	-0.357890
O80	O	0.693702	-0.614304	-0.269933
O81	O	0.817330	-0.614151	-0.445894
C82	C	0.891886	-0.251984	-0.357955
C83	C	0.950000	-0.251994	-0.357976
C84	C	0.755534	-0.251939	-0.551612
C85	C	0.755542	-0.251929	-0.634157
C86	C	0.755601	-0.115589	-0.357981
C87	C	0.755639	-0.057475	-0.358012
C88	C	0.720623	-0.286799	-0.833577
C89	C	0.768323	-0.299584	-0.882975
C90	C	0.755568	-0.251889	-0.785288
C91	C	0.707894	-0.239090	-0.882972
C92	C	0.755589	-0.251851	-0.931273
C93	C	0.803293	-0.264698	-0.833599
C94	C	0.742833	-0.204182	-0.833591
C95	C	0.790566	-0.216949	-0.882967
C96	C	0.755555	-0.251912	-0.701190
C97	C	0.755607	-0.251828	-1.015370
C98	C	0.755523	-0.251947	-0.164954
C99	C	0.755615	-0.251810	-0.082409
H100	H	0.305285	-0.157722	-0.224505
H101	H	-0.044922	-0.312741	-0.443971
C102	C	0.651928	-0.694514	-0.210551
H103	H	0.632037	-0.718627	-0.182241
H104	H	0.629128	-0.673215	-0.238919
H105	H	0.671938	-0.673217	-0.178211
C106	C	0.685471	-1.060303	-0.258164
H107	H	0.690265	-1.096726	-0.264975
H108	H	0.650335	-1.051372	-0.268978
H109	H	0.693147	-1.051373	-0.208273
C110	C	0.825627	-0.443085	-0.457699
H111	H	0.845528	-0.467137	-0.486026
H112	H	0.848417	-0.421780	-0.429325
H113	H	0.805600	-0.421785	-0.490023
H114	H	0.054145	-0.312736	-0.443957
H115	H	0.816237	-0.953247	-0.444252
H116	H	0.054117	-0.191223	-0.271955
H117	H	-0.044933	-0.191244	-0.271966
H118	H	0.457413	-0.191196	-0.271870
H119	H	0.779107	-0.339912	-0.904667
C120	C	0.198438	-0.148162	-0.210984
H121	H	0.222521	-0.128218	-0.182759
H122	H	0.177114	-0.168125	-0.178569
H123	H	0.177161	-0.125407	-0.239466
C124	C	0.825666	-0.557737	-0.457732
H125	H	0.845562	-0.533622	-0.486031
H126	H	0.805664	-0.579038	-0.490072
H127	H	0.848470	-0.579032	-0.429357
H128	H	0.843631	-0.275554	-0.812002
C129	C	0.685314	-0.557965	-0.258036
H130	H	0.665405	-0.533913	-0.229717
H131	H	0.705331	-0.579272	-0.225714
H132	H	0.662523	-0.579262	-0.286426
H133	H	0.820161	-0.187410	-0.904516
H134	H	0.694979	-0.953435	-0.271725
H135	H	0.849572	-0.702025	-0.491732
H136	H	0.556479	-0.191194	-0.271854
H137	H	0.849599	-0.801073	-0.491763
C138	C	0.825810	-1.060098	-0.457862
H139	H	0.821029	-1.096534	-0.451062
H140	H	0.860944	-1.051131	-0.447050
H141	H	0.818128	-1.051132	-0.507750
H142	H	0.732034	-0.163865	-0.811883
C143	C	0.651957	-0.809166	-0.210578
H144	H	0.632047	-0.785109	-0.182269
H145	H	0.671970	-0.830470	-0.178248
H146	H	0.629166	-0.830466	-0.238965
C147	C	0.653419	-0.224483	-0.912269
H148	H	0.628628	-0.249335	-0.895348
H149	H	0.653894	-0.224261	-0.964890
H150	H	0.644125	-0.190844	-0.894627
C151	C	0.313104	-0.355746	-0.504881
H152	H	0.289020	-0.375680	-0.533119
H153	H	0.334387	-0.378503	-0.476419
H154	H	0.334422	-0.335770	-0.537294
H155	H	0.206253	-0.346184	-0.491354
C156	C	0.685282	-0.443295	-0.258009
H157	H	0.690056	-0.406859	-0.264819
H158	H	0.692953	-0.452260	-0.208121
H159	H	0.650148	-0.452264	-0.268837
C160	C	0.564285	-0.322262	-0.457396
H161	H	0.540203	-0.342201	-0.485632
H162	H	0.585567	-0.345015	-0.428926
H163	H	0.585603	-0.302289	-0.489812
C164	C	0.680739	-0.326730	-0.804274
H165	H	0.689882	-0.360598	-0.821185
H166	H	0.646951	-0.317983	-0.821905
H167	H	0.680788	-0.326251	-0.751649
C168	C	0.449633	-0.322261	-0.457436
H169	H	0.473721	-0.342201	-0.485656
H170	H	0.428357	-0.302291	-0.489854
H171	H	0.428309	-0.345022	-0.428975
