data_functionalizedCrystal
_audit_creation_method	'MofGen! by Chris Wilmer'
_symmetry_space_group_name_H-M	'P1'
_symmetry_Int_Tables_number	1
_symmetry_cell_setting	triclinic
loop_
_symmetry_equiv_pos_as_xyz
  x,y,z
_cell_length_a	10.540510
_cell_length_b	17.038272
_cell_length_c	9.016244
_cell_angle_alpha	89.997742
_cell_angle_beta	89.992396
_cell_angle_gamma	87.812433
loop_
_atom_site_label
_atom_site_type_symbol
_atom_site_fract_x
_atom_site_fract_y
_atom_site_fract_z
O1	O	1.696188	0.110135	-0.123352
O2	O	1.327742	0.120547	-0.123353
O3	O	1.509775	0.001513	-0.123340
O4	O	1.514155	0.229169	-0.123364
O5	O	1.509747	0.001516	0.123340
O6	O	1.327714	0.120550	0.123328
O7	O	1.696160	0.110138	0.123329
Cu8	Cu	1.511934	0.115344	0.145853
Cu9	Cu	1.511968	0.115341	-0.145876
O10	O	1.514127	0.229171	0.123317
C11	C	1.280352	0.119772	-0.000012
C12	C	1.139185	0.117451	-0.000012
C13	C	1.505778	-0.027636	-0.000000
C14	C	1.493894	-0.114497	-0.000001
C15	C	0.929443	0.200143	-0.000588
C16	C	1.076270	0.202619	-0.000023
C17	C	1.090343	0.073855	0.140855
C18	C	0.943407	0.071982	0.140965
C19	C	0.943467	0.070205	-0.139557
C20	C	1.090185	0.074245	-0.141411
C21	C	1.603005	-0.163991	0.000001
C22	C	1.591831	-0.245605	-0.000013
C23	C	1.471544	-0.277723	-0.000018
C24	C	1.362425	-0.228222	-0.000025
C25	C	1.373600	-0.146610	-0.000021
C26	C	1.432064	-0.523705	-0.000039
C27	C	1.420897	-0.605324	-0.000038
C28	C	1.650304	-0.622701	-0.000029
C29	C	1.661469	-0.541087	-0.000016
C30	C	1.552349	-0.491593	-0.000030
C31	C	1.460120	-0.361146	-0.000028
C32	C	1.563775	-0.408172	-0.000031
C33	C	1.743550	0.110912	-0.000014
C34	C	1.884717	0.113234	-0.000024
C35	C	1.518124	0.258321	-0.000027
C36	C	1.530008	0.345181	-0.000036
N37	N	1.511920	0.115346	0.351039
N38	N	1.511991	0.115333	-0.351062
C39	C	1.414207	0.178807	0.586065
C40	C	1.414459	0.179045	0.414174
C41	C	1.646376	0.133907	0.413375
C42	C	1.645852	0.134356	0.585320
C43	C	1.476475	0.033115	0.585591
C44	C	1.473480	0.033648	0.413637
H45	H	1.108809	0.236726	-0.101007
N46	N	1.348774	0.009726	0.643081
H47	H	1.327855	-0.043183	0.601056
H48	H	1.351497	0.006567	0.754899
H49	H	1.680681	-0.285901	-0.000008
H50	H	0.915349	0.006261	-0.140503
N51	N	1.342399	0.015038	0.359661
H52	H	1.347029	-0.035276	0.300353
H53	H	1.284322	0.008636	0.447583
N54	N	1.791206	-0.506447	-0.000002
H55	H	1.858634	-0.550186	-0.000002
H56	H	1.800853	-0.472959	-0.091445
N57	N	1.745548	0.074350	0.359187
H58	H	1.831220	0.087430	0.400614
H59	H	1.722832	0.020215	0.393390
H60	H	1.539390	-0.015855	0.370666
N61	N	0.875891	0.243843	0.132471
H62	H	0.947772	0.262904	0.195373
H63	H	0.821225	0.290278	0.097961
N64	N	1.570774	-0.029477	0.639440
H65	H	1.658738	-0.016789	0.604636
H66	H	1.569185	-0.031379	0.751381
N67	N	1.686686	0.212467	0.356327
H68	H	1.773312	0.223885	0.397059
H69	H	1.690323	0.211187	0.244415
H70	H	1.700954	-0.137848	0.000015
H71	H	0.914469	0.008281	0.147370
N72	N	1.232682	-0.262855	-0.000031
H73	H	1.222942	-0.296328	-0.091474
H74	H	1.223001	-0.296289	0.091476
H75	H	1.721357	0.089987	0.626907
H76	H	0.903437	0.097062	-0.246328
N77	N	1.685505	0.213816	0.638410
H78	H	1.615121	0.239188	0.699903
H79	H	1.764821	0.207220	0.700708
H80	H	1.107863	0.236935	0.101120
N81	N	0.877991	0.244102	-0.134401
H82	H	0.825184	0.208110	-0.195958
H83	H	0.823513	0.290788	-0.100677
H84	H	1.322941	-0.631471	-0.000018
H85	H	0.905958	0.101778	0.246259
H86	H	1.661712	-0.382018	-0.000060
H87	H	1.438048	0.240044	0.373021
N88	N	1.314377	-0.470329	-0.000048
H89	H	1.236484	-0.503062	-0.000044
H90	H	1.314004	-0.436091	0.091400
N91	N	1.330387	-0.395791	-0.000009
H92	H	1.262952	-0.352055	-0.000002
H93	H	1.320765	-0.429270	-0.091459
H94	H	1.284750	-0.106312	-0.000023
H95	H	1.131883	0.011155	0.146101
N96	N	1.281804	0.164253	0.640896
H97	H	1.255926	0.110614	0.607369
H98	H	1.280324	0.166802	0.752798
H99	H	1.314799	0.167878	0.372031
N100	N	1.445135	0.259159	0.643193
H101	H	1.522206	0.254621	0.709631
H102	H	1.463276	0.294700	0.556711
H103	H	1.124009	0.104134	0.245683
H104	H	1.121775	0.105965	-0.245624
N105	N	1.147490	-0.008121	-0.152683
H106	H	1.206285	-0.018643	-0.065899
H107	H	1.077534	-0.047004	-0.151476
H108	H	1.739142	-0.663008	-0.000020
