data_functionalizedCrystal
_audit_creation_method	'MofGen! by Chris Wilmer'
_symmetry_space_group_name_H-M	'P1'
_symmetry_Int_Tables_number	1
_symmetry_cell_setting	triclinic
loop_
_symmetry_equiv_pos_as_xyz
  x,y,z
_cell_length_a	13.033293
_cell_length_b	13.031981
_cell_length_c	10.685880
_cell_angle_alpha	87.686082
_cell_angle_beta	77.914556
_cell_angle_gamma	103.320033
loop_
_atom_site_label
_atom_site_type_symbol
_atom_site_fract_x
_atom_site_fract_y
_atom_site_fract_z
Zn1	Zn	1.622220	-0.268674	-0.921430
Zn2	Zn	2.122220	0.231326	-0.421430
Zn3	Zn	1.585921	-0.432750	-0.679670
Zn4	Zn	2.085921	0.067250	-0.179670
Zn5	Zn	1.430948	-0.277656	-0.679686
Zn6	Zn	1.930948	0.222344	-0.179686
Zn7	Zn	1.418553	-0.465350	-0.859895
Zn8	Zn	1.918553	0.034650	-0.359895
O9	O	1.514410	-0.361107	-0.785170
O10	O	2.014410	0.138893	-0.285170
O11	O	1.767497	-0.273036	-0.915106
O12	O	2.267497	0.226964	-0.415106
O13	O	1.555360	-0.402292	-0.503076
O14	O	2.055360	0.097708	-0.003076
O15	O	1.476700	-0.129248	-0.737513
O16	O	1.976700	0.370752	-0.237513
O17	O	1.740828	-0.393582	-0.737486
O18	O	2.240828	0.106418	-0.237486
O19	O	1.617226	-0.122649	-0.915121
O20	O	2.117226	0.377351	-0.415121
O21	O	1.441502	-0.288346	-0.503088
O22	O	1.941502	0.211654	-0.003088
O23	O	1.279212	-0.319957	-0.677845
O24	O	1.779212	0.180043	-0.177845
O25	O	1.455573	-0.449144	-1.044654
O26	O	1.955573	0.050856	-0.544654
O27	O	1.270105	-0.457854	-0.810244
O28	O	1.770105	0.042146	-0.310244
O29	O	1.605207	-0.304647	-1.089863
O30	O	2.105207	0.195353	-0.589863
O31	O	1.543340	-0.584291	-0.677818
O32	O	2.043340	-0.084291	-0.177818
O33	O	1.420376	-0.608242	-0.810229
O34	O	1.920376	-0.108242	-0.310229
C35	C	1.235741	-0.393419	-0.737370
C36	C	1.735741	0.106581	-0.237370
C37	C	1.116523	-0.407269	-0.716946
C38	C	1.616523	0.092731	-0.216946
C39	C	1.076560	-0.353905	-0.795825
C40	C	1.576560	0.146095	-0.295825
C41	C	0.953343	-0.368219	-0.774718
C42	C	1.453343	0.131781	-0.274718
C43	C	1.476605	-0.634436	-0.737377
C44	C	1.976605	-0.134436	-0.237377
C45	C	1.460532	-0.751359	-0.716990
C46	C	1.960532	-0.251359	-0.216990
C47	C	1.522857	-0.800147	-0.795846
C48	C	2.022857	-0.300147	-0.295846
C49	C	1.506247	-0.920992	-0.774776
C50	C	2.006247	-0.420992	-0.274776
C51	C	1.794168	-0.328671	-0.833158
C52	C	2.294168	0.171329	-0.333158
C53	C	1.913384	-0.314848	-0.853608
C54	C	2.413384	0.185152	-0.353608
C55	C	1.533057	-0.379530	-1.114328
C56	C	2.033057	0.120470	-0.614328
C57	C	1.541002	-0.387381	-1.254595
C58	C	2.041002	0.112619	-0.754595
C59	C	1.552395	-0.086709	-0.833183
C60	C	2.052395	0.413291	-0.333183
C61	C	1.568581	0.030223	-0.853643
C62	C	2.068581	0.530223	-0.353643
C63	C	1.495909	-0.342673	-0.457317
C64	C	1.995909	0.157327	0.042683
C65	C	1.488212	-0.334502	-0.317138
C66	C	1.988212	0.165498	0.182862
H67	H	0.896338	-0.424503	-0.691553
H68	H	1.396338	0.075497	-0.191553
H69	H	1.440581	-0.968685	-0.691666
H70	H	1.940581	-0.468685	-0.191666
H71	H	1.592285	-0.438665	-1.308365
H72	H	2.092285	0.061335	-0.808365
H73	H	1.394870	-0.799055	-0.633885
H74	H	1.894870	-0.299055	-0.133885
H75	H	1.059516	-0.463549	-0.633787
H76	H	1.559516	0.036451	-0.133787
H77	H	1.588511	-0.752454	-0.878960
H78	H	2.088511	-0.252454	-0.378960
H79	H	1.133568	-0.297619	-0.878978
H80	H	1.633568	0.202381	-0.378978
H81	H	1.634239	-0.922087	-0.936763
H82	H	2.134239	-0.422087	-0.436763
Cl83	Cl	1.001386	-0.227935	-0.981999
Cl84	Cl	1.501386	0.272065	-0.481999
Cl85	Cl	1.409030	-0.255334	-1.234132
Cl86	Cl	1.909030	0.244666	-0.734132
