data_functionalizedCrystal
_audit_creation_method	'MofGen! by Chris Wilmer'
_symmetry_space_group_name_H-M	'P1'
_symmetry_Int_Tables_number	1
_symmetry_cell_setting	triclinic
loop_
_symmetry_equiv_pos_as_xyz
  x,y,z
_cell_length_a	21.295418
_cell_length_b	29.839131
_cell_length_c	21.295411
_cell_angle_alpha	90.028018
_cell_angle_beta	90.043738
_cell_angle_gamma	90.051038
loop_
_atom_site_label
_atom_site_type_symbol
_atom_site_fract_x
_atom_site_fract_y
_atom_site_fract_z
Zn1	Zn	0.962335	-0.178715	0.356206
Zn2	Zn	1.462335	0.321285	0.856206
Zn3	Zn	0.962229	-0.253830	0.250919
Zn4	Zn	1.462229	0.246170	0.750919
Zn5	Zn	0.857058	-0.178736	0.250916
Zn6	Zn	1.357058	0.321264	0.750916
Zn7	Zn	0.857019	-0.253839	0.356116
Zn8	Zn	1.357019	0.246161	0.856116
O9	O	0.909660	-0.216280	0.303539
O10	O	1.409660	0.283720	0.803539
O11	O	1.050410	-0.188667	0.342279
O12	O	1.550410	0.311333	0.842279
O13	O	0.948250	-0.243874	0.162829
O14	O	1.448250	0.256126	0.662829
O15	O	0.871084	-0.115866	0.264918
O16	O	1.371084	0.384134	0.764918
O17	O	1.050332	-0.243854	0.264925
O18	O	1.550332	0.256146	0.764925
O19	O	0.948431	-0.115851	0.342275
O20	O	1.448431	0.384149	0.842275
O21	O	0.870981	-0.188703	0.162827
O22	O	1.370981	0.311297	0.662827
O23	O	0.768964	-0.188711	0.264831
O24	O	1.268964	0.311289	0.764831
O25	O	0.871017	-0.243869	0.444217
O26	O	1.371017	0.256131	0.944217
O27	O	0.768935	-0.243889	0.342122
O28	O	1.268935	0.256111	0.842122
O29	O	0.948393	-0.188675	0.444283
O30	O	1.448393	0.311325	0.944283
O31	O	0.948212	-0.316699	0.264838
O32	O	1.448212	0.183301	0.764838
O33	O	0.870914	-0.316705	0.342125
O34	O	1.370914	0.183295	0.842125
C35	C	0.746109	-0.216304	0.303467
C36	C	1.246109	0.283696	0.803467
C37	C	0.676141	-0.216325	0.303451
C38	C	1.176141	0.283675	0.803451
C39	C	0.643275	-0.245094	0.343635
C40	C	1.143275	0.254906	0.843635
C41	C	0.577533	-0.245083	0.343664
C42	C	1.077533	0.254917	0.843664
C43	C	0.544658	-0.216307	0.303496
C44	C	1.044658	0.283693	0.803496
C45	C	0.577531	-0.187532	0.263308
C46	C	1.077531	0.312468	0.763308
C47	C	0.643272	-0.187541	0.263286
C48	C	1.143272	0.312459	0.763286
N49	N	0.441382	-0.212791	0.248439
N50	N	0.941382	0.287209	0.748439
N51	N	0.378931	-0.212785	0.248462
N52	N	0.878931	0.287215	0.748462
C53	C	0.346583	-0.216279	0.303563
C54	C	0.846583	0.283721	0.803563
N55	N	0.379046	-0.219787	0.358640
N56	N	0.879046	0.280213	0.858640
N57	N	0.441504	-0.219795	0.358616
N58	N	0.941504	0.280205	0.858616
C59	C	0.473373	-0.216294	0.303516
C60	C	0.973373	0.283706	0.803516
C61	C	0.242433	-0.245037	0.343782
C62	C	0.742433	0.254963	0.843782
C63	C	0.176689	-0.245023	0.343811
C64	C	0.676689	0.254977	0.843811
C65	C	0.176689	-0.187475	0.263450
C66	C	0.676689	0.312525	0.763450
C67	C	0.242431	-0.187487	0.263426
C68	C	0.742431	0.312513	0.763426
C69	C	0.275299	-0.216271	0.303591
C70	C	0.775299	0.283729	0.803591
C71	C	0.909564	-0.333003	0.303486
C72	C	1.409564	0.166997	0.803486
C73	C	0.909581	-0.382937	0.303484
C74	C	1.409581	0.117063	0.803484
C75	C	0.949926	-0.692538	0.343876
C76	C	1.449926	-0.192538	0.843876
C77	C	0.949994	-0.880211	0.343914
C78	C	1.449994	-0.380211	0.843914
O79	O	0.984203	-0.904439	0.378217
O80	O	1.484203	-0.404439	0.878217
N81	N	0.909767	-0.903722	0.303609
N82	N	1.409767	-0.403722	0.803609
C83	C	0.869517	-0.880313	0.263295
C84	C	1.369517	-0.380313	0.763295
O85	O	0.835299	-0.904617	0.229019
O86	O	1.335299	-0.404617	0.729019
C87	C	0.869446	-0.692640	0.263261
C88	C	1.369446	-0.192640	0.763261
C89	C	0.909680	-0.669131	0.303564
C90	C	1.409680	-0.169131	0.803564
C91	C	0.990156	-0.669028	0.384176
C92	C	1.490156	-0.169028	0.884176
C93	C	0.990141	-0.622113	0.384164
C94	C	1.490141	-0.122113	0.884164
C95	C	0.949896	-0.598707	0.343851
C96	C	1.449896	-0.098707	0.843851
C97	C	0.909665	-0.622216	0.303551
C98	C	1.409665	-0.122216	0.803551
C99	C	0.829194	-0.669232	0.222950
C100	C	1.329194	-0.169232	0.722950
C101	C	0.829179	-0.622311	0.222946
C102	C	1.329179	-0.122311	0.722946
C103	C	0.869413	-0.598802	0.263249
C104	C	1.369413	-0.098802	0.763249
C105	C	0.869405	-0.551894	0.263227
C106	C	1.369405	-0.051894	0.763227
N107	N	0.909632	-0.528383	0.303531
N108	N	1.409632	-0.028383	0.803531
C109	C	0.949877	-0.551789	0.343844
C110	C	1.449877	-0.051789	0.843844
C111	C	0.869558	-0.978843	0.263315
C112	C	1.369558	-0.478843	0.763315
C113	C	0.869577	-1.025761	0.263322
C114	C	1.369577	-0.525761	0.763322
C115	C	0.950053	-1.025656	0.343942
C116	C	1.450053	-0.525656	0.843942
C117	C	0.950037	-0.978737	0.343931
C118	C	1.450037	-0.478737	0.843931
C119	C	0.909785	-0.955332	0.303620
C120	C	1.409785	-0.455332	0.803620
C121	C	0.949843	-0.453263	0.343814
C122	C	1.449843	0.046737	0.843814
C123	C	0.949826	-0.406343	0.343797
C124	C	1.449826	0.093657	0.843797
C125	C	0.869348	-0.406453	0.263180
C126	C	1.369348	0.093547	0.763180
C127	C	0.869367	-0.453368	0.263195
C128	C	1.369367	0.046632	0.763195
C129	C	0.909616	-0.476772	0.303517
C130	C	1.409616	0.023228	0.803517
O131	O	0.835209	-0.527637	0.228947
O132	O	1.335209	-0.027637	0.728947
O133	O	0.984081	-0.527476	0.378125
O134	O	1.484081	-0.027476	0.878125
C135	C	0.949941	-0.739453	0.343888
C136	C	1.449941	-0.239453	0.843888
C137	C	0.909711	-0.762962	0.303588
C138	C	1.409711	-0.262962	0.803588
C139	C	0.869465	-0.739556	0.263276
C140	C	1.369465	-0.239556	0.763276
C141	C	0.909729	-0.809880	0.303596
C142	C	1.409729	-0.309880	0.803596
C143	C	0.949974	-0.833286	0.343908
C144	C	1.449974	-0.333286	0.843908
C145	C	0.990201	-0.809775	0.384213
C146	C	1.490201	-0.309775	0.884213
C147	C	0.990186	-0.762859	0.384201
C148	C	1.490186	-0.262859	0.884201
C149	C	0.829238	-0.763068	0.222971
C150	C	1.329238	-0.263068	0.722971
C151	C	0.829257	-0.809983	0.222986
C152	C	1.329257	-0.309983	0.722986
C153	C	0.869503	-0.833389	0.263298
C154	C	1.369503	-0.333389	0.763298
C155	C	1.073851	-0.216257	0.303612
C156	C	1.573851	0.283743	0.803612
C157	C	1.143819	-0.216247	0.303643
C158	C	1.643819	0.283753	0.803643
C159	C	0.909713	-0.216271	0.467729
C160	C	1.409713	0.283729	0.967729
C161	C	0.909735	-0.216267	0.537698
C162	C	1.409735	0.283733	1.037698
C163	C	0.909774	-0.099102	0.303606
C164	C	1.409774	0.400898	0.803606
C165	C	0.909822	-0.049167	0.303635
C166	C	1.409822	0.450833	0.803635
C167	C	0.909645	-0.216257	0.139988
C168	C	1.409645	0.283743	0.639988
C169	C	0.909744	-0.216135	0.070020
C170	C	1.409744	0.283865	0.570020
C171	C	0.950022	-0.187526	0.570600
C172	C	1.450022	0.312474	1.070600
C173	C	0.950022	-0.187507	0.636342
C174	C	1.450022	0.312493	1.136342
C175	C	0.909740	-0.216236	0.669180
C176	C	1.409740	0.283764	1.169180
C177	C	0.869444	-0.244978	0.636270
C178	C	1.369444	0.255022	1.136270
C179	C	0.869442	-0.244994	0.570529
C180	C	1.369442	0.255006	1.070529
N181	N	0.904879	-0.255537	0.772388
N182	N	1.404879	0.244463	1.272388
N183	N	0.904885	-0.255521	0.834839
N184	N	1.404885	0.244479	1.334839
C185	C	0.909744	-0.216190	0.867255
C186	C	1.409744	0.283810	1.367255
N187	N	0.914609	-0.176875	0.834860
N188	N	1.414609	0.323125	1.334860
N189	N	0.914606	-0.176891	0.772403
N190	N	1.414606	0.323109	1.272403
C191	C	0.909738	-0.216222	0.740466
C192	C	1.409738	0.283778	1.240466
C193	C	0.950033	-0.187426	0.971443
C194	C	1.450033	0.312574	1.471443
C195	C	0.950027	-0.187406	1.037186
C196	C	1.450027	0.312594	1.537186
C197	C	0.869453	-0.244882	1.037113
C198	C	1.369453	0.255118	1.537113
C199	C	0.869455	-0.244898	0.971371
C200	C	1.369455	0.255102	1.471371
C201	C	0.909748	-0.216171	0.938539
C202	C	1.409748	0.283829	1.438539
H203	H	0.550760	-0.164102	0.230604
H204	H	1.050760	0.335898	0.730604
H205	H	0.836583	-0.387388	0.230356
H206	H	1.336583	0.112612	0.730356
O207	O	0.144691	-0.272993	0.382761
O208	O	0.644691	0.227007	0.882761
C209	C	0.106589	-0.301969	0.346852
C210	C	0.606589	0.198031	0.846852
H211	H	0.096712	-0.286070	0.299196
H212	H	0.596712	0.213930	0.799196
H213	H	0.060379	-0.308011	0.372492
H214	H	0.560379	0.191989	0.872492
H215	H	0.131864	-0.335259	0.339830
H216	H	0.631864	0.164741	0.839830
O217	O	0.830303	-0.272861	0.939503
O218	O	1.330303	0.227139	1.439503
C219	C	0.794735	-0.298206	0.982582
C220	C	1.294735	0.201794	1.482582
H221	H	0.820519	-0.299749	1.029462
H222	H	1.320519	0.200251	1.529462
H223	H	0.787982	-0.333607	0.963573
H224	H	1.287982	0.166393	1.463573
H225	H	0.746944	-0.281758	0.989543
H226	H	1.246944	0.218242	1.489543
H227	H	0.796495	-0.829120	0.190161
H228	H	1.296495	-0.329120	0.690161
O229	O	0.989055	-1.048417	0.383172
O230	O	1.489055	-0.548417	0.883172
C231	C	0.953195	-1.075576	0.423770
C232	C	1.453195	-0.575576	0.923770
H233	H	0.903611	-1.061471	0.427587
H234	H	1.403611	-0.561471	0.927587
H235	H	0.975931	-1.076073	0.472247
H236	H	1.475931	-0.576073	0.972247
H237	H	0.951047	-1.111143	0.404306
H238	H	1.451047	-0.611143	0.904306
O239	O	0.790011	-0.599555	0.183876
O240	O	1.290011	-0.099555	0.683876
C241	C	0.749338	-0.572423	0.219657
C242	C	1.249338	-0.072423	0.719657
H243	H	0.745433	-0.586541	0.269235
H244	H	1.245433	-0.086541	0.769235
H245	H	0.700903	-0.571942	0.196831
H246	H	1.200903	-0.071942	0.696831
H247	H	0.768786	-0.536848	0.221839
H248	H	1.268786	-0.036848	0.721839
O249	O	0.274392	-0.273041	0.382711
O250	O	0.774392	0.226959	0.882711
C251	C	0.312345	-0.302019	0.346781
C252	C	0.812345	0.197981	0.846781
H253	H	0.292473	-0.304741	0.297202
H254	H	0.792473	0.195259	0.797202
H255	H	0.313061	-0.336616	0.369455
H256	H	0.813061	0.163384	0.869455
H257	H	0.362189	-0.288136	0.344632
H258	H	0.862189	0.211864	0.844632
O259	O	0.830226	-0.272839	0.668138
O260	O	1.330226	0.227161	1.168138
C261	C	0.767496	-0.263041	0.652022
C262	C	1.267496	0.236959	1.152022
H263	H	0.764351	-0.227155	0.633957
H264	H	1.264351	0.272845	1.133957
H265	H	0.736396	-0.266906	0.695234
H266	H	1.236396	0.233094	1.195234
H267	H	0.751015	-0.287137	0.613844
H268	H	1.251015	0.212863	1.113844
H269	H	0.836649	-0.268269	1.063849
H270	H	1.336649	0.231731	1.563849
H271	H	0.836610	-0.472510	0.230372
H272	H	1.336610	0.027490	0.730372
H273	H	0.836632	-0.268397	0.543740
H274	H	1.336632	0.231603	1.043740
H275	H	0.796465	-0.744014	0.190145
H276	H	1.296465	-0.244014	0.690145
H277	H	0.982592	-0.387204	0.376616
H278	H	1.482592	0.112796	0.876616
O279	O	0.675270	-0.159658	0.224214
O280	O	1.175270	0.340342	0.724214
C281	C	0.713198	-0.185201	0.183462
C282	C	1.213198	0.314799	0.683462
H283	H	0.723017	-0.219271	0.205566
H284	H	1.223017	0.280729	0.705566
H285	H	0.759448	-0.166901	0.175058
H286	H	1.259448	0.333099	0.675058
H287	H	0.687801	-0.190083	0.136808
H288	H	1.187801	0.309917	0.636808
O289	O	0.144665	-0.159575	0.224435
O290	O	0.644665	0.340425	0.724435
C291	C	0.079592	-0.165732	0.233076
C292	C	0.579592	0.334268	0.733076
H293	H	0.070587	-0.200417	0.253621
H294	H	0.570587	0.299583	0.753621
H295	H	0.054566	-0.162651	0.185935
H296	H	0.554566	0.337349	0.685935
H297	H	0.061001	-0.139108	0.266657
H298	H	0.561001	0.360892	0.766657
H299	H	0.982838	-0.164032	0.944710
H300	H	1.482838	0.335968	1.444710
H301	H	0.269190	-0.164062	0.230700
H302	H	0.769190	0.335938	0.730700
H303	H	0.982833	-0.163999	1.063974
H304	H	1.482833	0.336001	1.563974
H305	H	1.022948	-0.743722	0.417019
H306	H	1.522948	-0.243722	0.917019
O307	O	0.675105	-0.273065	0.382714
O308	O	1.175105	0.226935	0.882714
C309	C	0.631994	-0.298463	0.418177
C310	C	1.131994	0.201537	0.918177
H311	H	0.585161	-0.280058	0.420422
H312	H	1.085161	0.219942	0.920422
H313	H	0.651034	-0.303312	0.467755
H314	H	1.151034	0.196688	0.967755
H315	H	0.624926	-0.332558	0.395032
H316	H	1.124926	0.167442	0.895032
O317	O	0.545568	-0.272967	0.382765
O318	O	1.045568	0.227033	0.882765
C319	C	0.507610	-0.247428	0.423495
C320	C	1.007610	0.252572	0.923495
H321	H	0.527483	-0.212054	0.427482
H322	H	1.027483	0.287946	0.927482
H323	H	0.506884	-0.263731	0.471892
H324	H	1.006884	0.236269	0.971892
H325	H	0.457769	-0.245849	0.404047
H326	H	0.957769	0.254151	0.904047
H327	H	0.836780	-0.959790	0.230487
H328	H	1.336780	-0.459790	0.730487
O329	O	0.988998	-0.475924	0.383006
O330	O	1.488998	0.024076	0.883006
C331	C	1.024485	-0.445105	0.418581
C332	C	1.524485	0.054895	0.918581
H333	H	1.026664	-0.411674	0.392785
H334	H	1.526664	0.088326	0.892785
H335	H	1.074084	-0.458614	0.425369
H336	H	1.574084	0.041386	0.925369
H337	H	1.001404	-0.440107	0.466357
H338	H	1.501404	0.059893	0.966357
O339	O	0.989220	-0.159574	0.668215
O340	O	1.489220	0.340426	1.168215
C341	C	1.024770	-0.134213	0.625140
C342	C	1.524770	0.365787	1.125140
H343	H	1.026928	-0.152623	0.578273
H344	H	1.526928	0.347377	1.078273
H345	H	1.074372	-0.129415	0.644173
H346	H	1.574372	0.370585	1.144173
H347	H	1.001756	-0.100096	0.618142
H348	H	1.501756	0.399904	1.118142
O349	O	1.029242	-0.599349	0.423377
O350	O	1.529242	-0.099349	0.923377
C351	C	1.064772	-0.630077	0.458944
C352	C	1.564772	-0.130077	0.958944
H353	H	1.038994	-0.663540	0.461091
H354	H	1.538994	-0.163540	0.961091
H355	H	1.071458	-0.616498	0.508550
H356	H	1.571458	-0.116498	1.008550
H357	H	1.112594	-0.635039	0.435954
H358	H	1.612594	-0.135039	0.935954
H359	H	1.022929	-0.688081	0.417007
H360	H	1.522929	-0.188081	0.917007
O361	O	0.989061	-0.159585	0.538648
O362	O	1.489061	0.340415	1.038648
C363	C	0.953234	-0.130574	0.500627
C364	C	1.453234	0.369426	1.000627
H365	H	0.905521	-0.146438	0.490731
H366	H	1.405521	0.353562	0.990731
H367	H	0.978877	-0.124542	0.454421
H368	H	1.478877	0.375458	0.954421
H369	H	0.946334	-0.097285	0.525983
H370	H	1.446334	0.402715	1.025983
H371	H	1.022973	-0.828840	0.417034
H372	H	1.522973	-0.328840	0.917034
H373	H	0.982799	-0.959599	0.376749
H374	H	1.482799	-0.459599	0.876749
H375	H	0.836821	-1.044898	0.230497
H376	H	1.336821	-0.544898	0.730497
H377	H	0.796431	-0.688365	0.190131
H378	H	1.296431	-0.188365	0.690131
