data_functionalizedCrystal
_audit_creation_method	'MofGen! by Chris Wilmer'
_symmetry_space_group_name_H-M	'P1'
_symmetry_Int_Tables_number	1
_symmetry_cell_setting	triclinic
loop_
_symmetry_equiv_pos_as_xyz
  x,y,z
_cell_length_a	23.532407
_cell_length_b	23.532407
_cell_length_c	12.996460
_cell_angle_alpha	89.989202
_cell_angle_beta	89.999749
_cell_angle_gamma	82.848678
loop_
_atom_site_label
_atom_site_type_symbol
_atom_site_fract_x
_atom_site_fract_y
_atom_site_fract_z
O1	O	0.755260	0.069136	-0.085449
O2	O	0.589397	0.079139	-0.085480
O3	O	0.677330	-0.008794	-0.085445
O4	O	0.667327	0.157069	-0.085484
O5	O	0.677321	-0.008799	0.085689
O6	O	0.589388	0.079134	0.085653
O7	O	0.755251	0.069131	0.085685
Cu8	Cu	0.672319	0.074132	0.101295
Cu9	Cu	0.672329	0.074138	-0.101091
O10	O	0.667318	0.157064	0.085649
C11	C	0.677071	-0.030013	0.000125
C12	C	0.676305	-0.093230	0.000132
C13	C	0.568176	0.078882	0.000083
C14	C	0.504959	0.078116	0.000071
C15	C	0.723539	-0.492333	0.000085
C16	C	0.722827	-0.551733	0.000077
O17	O	0.766613	-0.588478	0.000047
N18	N	0.670551	-0.574359	0.000068
C19	C	0.618983	-0.537582	0.000056
O20	O	0.574452	-0.562281	0.000047
C21	C	0.619695	-0.478182	0.000057
C22	C	0.671974	-0.455560	0.000076
C23	C	0.775814	-0.469710	0.000104
C24	C	0.776525	-0.410313	0.000113
C25	C	0.724961	-0.373540	0.000105
C26	C	0.672685	-0.396164	0.000086
C27	C	0.568127	-0.441406	0.000038
C28	C	0.568844	-0.382004	0.000037
C29	C	0.621123	-0.359381	0.000057
C30	C	0.621832	-0.299995	0.000087
N31	N	0.674109	-0.277368	0.000097
C32	C	0.725673	-0.314141	0.000105
C33	C	0.617491	-0.662324	0.000053
C34	C	0.616778	-0.721722	0.000060
C35	C	0.720623	-0.735869	0.000079
C36	C	0.721335	-0.676470	0.000080
C37	C	0.669767	-0.639698	0.000062
C38	C	0.727163	-0.189405	0.000127
C39	C	0.727869	-0.130003	0.000141
C40	C	0.624025	-0.115860	0.000117
C41	C	0.623318	-0.175257	0.000108
C42	C	0.674891	-0.212029	0.000110
O43	O	0.578070	-0.263215	0.000113
O44	O	0.770196	-0.289433	0.000101
C45	C	0.105856	0.125350	0.000107
C46	C	0.046456	0.124638	0.000113
O47	O	0.009711	0.168424	0.000140
N48	N	0.023830	0.072362	0.000124
C49	C	0.060607	0.020794	0.000139
O50	O	0.035908	-0.023737	0.000149
C51	C	0.120006	0.021506	0.000140
C52	C	0.142629	0.073785	0.000118
C53	C	0.128479	0.177625	0.000087
C54	C	0.187876	0.178336	0.000078
C55	C	0.224649	0.126772	0.000090
C56	C	0.202025	0.074496	0.000110
C57	C	0.156783	-0.030062	0.000162
C58	C	0.216185	-0.029345	0.000163
C59	C	0.238808	0.022934	0.000142
C60	C	0.298194	0.023643	0.000113
N61	N	0.320820	0.075920	0.000103
C62	C	0.284048	0.127484	0.000091
C63	C	-0.064135	0.019302	0.000139
C64	C	-0.123533	0.018589	0.000130
C65	C	-0.137680	0.122434	0.000107
C66	C	-0.078281	0.123146	0.000108
C67	C	-0.041509	0.071578	0.000128
C68	C	0.408784	0.128974	0.000072
C69	C	0.468186	0.129680	0.000060
C70	C	0.482329	0.025836	0.000089
C71	C	0.422932	0.025129	0.000096
C72	C	0.386160	0.076702	0.000091
O73	O	0.334974	-0.020119	0.000091
O74	O	0.308755	0.172007	0.000094
C75	C	0.776472	0.069388	0.000120
C76	C	0.839689	0.070154	0.000124
C77	C	0.667577	0.178283	0.000078
C78	C	0.668343	0.241500	0.000063
N79	N	0.672315	0.074128	0.243642
N80	N	0.672337	0.074138	-0.243438
C81	C	0.672329	0.074138	0.663456
C82	C	0.672323	0.074137	0.546651
C83	C	0.672322	0.074134	0.453553
C84	C	0.672316	0.074132	0.336740
H85	H	0.769159	-0.219337	0.000124
H86	H	-0.141947	-0.023982	0.000132
H87	H	0.246123	-0.071339	0.000181
H88	H	-0.059867	0.165717	0.000096
H89	H	0.525555	-0.459814	0.000015
H90	H	0.526850	-0.352066	0.000022
C91	C	0.246473	0.239384	0.088009
C92	C	0.212746	0.235800	0.000047
H93	H	0.261828	0.274859	0.087980
H94	H	0.223598	0.236954	0.147682
H95	H	0.276874	0.208773	0.088008
H96	H	0.182342	0.266408	0.000052
H97	H	0.235623	0.238235	-0.059642
C98	C	0.788920	-0.071432	0.088139
C99	C	0.785339	-0.105138	0.000159
H100	H	0.824400	-0.056086	0.088149
H101	H	0.758318	-0.041030	0.088130
H102	H	0.786479	-0.094324	0.147806
H103	H	0.787776	-0.082244	-0.059509
H104	H	0.815950	-0.135544	0.000158
C105	C	0.558036	-0.587327	0.088022
C106	C	0.560803	-0.621904	0.000050
H107	H	0.523041	-0.562374	0.088013
H108	H	0.559915	-0.610801	0.147688
H109	H	0.589271	-0.565350	0.088016
H110	H	0.529570	-0.643884	0.000060
H111	H	0.558919	-0.598428	-0.059632
H112	H	0.580748	-0.193677	0.000120
H113	H	0.486602	0.172255	0.000042
H114	H	0.817806	-0.499645	0.000107
H115	H	0.763906	-0.658056	0.000095
H116	H	0.098544	0.219617	0.000081
C117	C	0.765634	-0.833210	0.000055
C118	C	0.777305	-0.776299	0.000070
H119	H	0.800625	-0.858169	0.000042
H120	H	0.744188	-0.840042	0.059728
H121	H	0.744180	-0.840018	-0.059628
H122	H	0.798755	-0.769489	0.059758
H123	H	0.798760	-0.769464	-0.059609
C124	C	0.579018	-0.018520	0.000104
C125	C	0.567347	-0.075432	0.000101
H126	H	0.544027	0.006439	0.000082
H127	H	0.600458	-0.011704	0.059788
H128	H	0.600478	-0.011696	-0.059569
H129	H	0.545891	-0.082257	0.059778
H130	H	0.545898	-0.082250	-0.059590
H131	H	-0.034198	-0.022693	0.000146
H132	H	0.574207	-0.740136	0.000062
C133	C	0.400783	0.231692	0.000028
C134	C	0.368371	0.185664	0.000054
H135	H	0.375833	0.266689	0.000005
H136	H	0.424243	0.229808	0.059703
H137	H	0.424247	0.229798	-0.059654
H138	H	0.344910	0.187555	0.059740
H139	H	0.344901	0.187548	-0.059627
C140	C	0.176758	-0.132632	0.000224
C141	C	0.131927	-0.087531	0.000200
H142	H	0.161413	-0.168112	0.000257
H143	H	0.199626	-0.130195	-0.059456
H144	H	0.199634	-0.130180	0.059900
H145	H	0.109054	-0.089980	-0.059480
H146	H	0.109049	-0.089969	0.059887
H147	H	0.404512	-0.017441	0.000098
C148	C	-0.145714	0.225157	0.000087
C149	C	-0.178109	0.179117	0.000101
H150	H	-0.170674	0.260147	0.000077
H151	H	-0.122251	0.223275	0.059760
H152	H	-0.122252	0.223277	-0.059597
H153	H	-0.201568	0.180994	0.059790
H154	H	-0.201581	0.181000	-0.059577
C155	C	0.879096	-0.430282	0.000121
C156	C	0.833993	-0.385452	0.000121
H157	H	0.914576	-0.414935	0.000117
H158	H	0.876654	-0.453159	0.059795
H159	H	0.876651	-0.453149	-0.059562
H160	H	0.836436	-0.362587	0.059808
H161	H	0.836437	-0.362565	-0.059559
C162	C	0.490361	-0.076883	0.000112
C163	C	0.522756	-0.030842	0.000097
H164	H	0.515322	-0.111873	0.000115
H165	H	0.466902	-0.075005	0.059788
H166	H	0.466896	-0.074999	-0.059569
H167	H	0.546219	-0.032724	0.059782
H168	H	0.546225	-0.032722	-0.059585
