data_functionalizedCrystal
_audit_creation_method	'MofGen! by Chris Wilmer'
_symmetry_space_group_name_H-M	'P1'
_symmetry_Int_Tables_number	1
_symmetry_cell_setting	triclinic
loop_
_symmetry_equiv_pos_as_xyz
  x,y,z
_cell_length_a	10.489746
_cell_length_b	10.489741
_cell_length_c	11.295483
_cell_angle_alpha	94.137284
_cell_angle_beta	85.855585
_cell_angle_gamma	84.540238
loop_
_atom_site_label
_atom_site_type_symbol
_atom_site_fract_x
_atom_site_fract_y
_atom_site_fract_z
O1	O	1.702556	0.171495	-0.098944
O2	O	1.331363	0.188379	-0.098964
O3	O	1.525405	-0.005660	-0.098946
O4	O	1.508514	0.365534	-0.098961
O5	O	1.508362	0.011357	0.099103
O6	O	1.314320	0.205396	0.099086
O7	O	1.685513	0.188512	0.099105
Cu8	Cu	1.498360	0.198507	0.117179
Cu9	Cu	1.518516	0.178384	-0.117037
O10	O	1.491470	0.382551	0.099088
C11	C	1.275310	0.195611	0.000058
C12	C	1.133681	0.191790	0.000051
C13	C	0.980822	0.066069	0.000073
C14	C	1.049813	0.137315	0.097716
C15	C	1.066572	0.120567	-0.097545
C16	C	0.950314	0.256304	0.097804
C17	C	0.967075	0.239531	-0.097545
C18	C	1.036015	0.310867	0.000121
C19	C	1.515608	-0.044683	0.000078
C20	C	1.511791	-0.186313	0.000075
C21	C	1.388328	-0.254457	0.000060
C22	C	1.438248	-0.338188	0.097712
C23	C	1.455080	-0.354939	-0.097549
C24	C	1.561755	-0.268172	0.097808
C25	C	1.578578	-0.284921	-0.097541
C26	C	1.628585	-0.368623	0.000134
C27	C	1.741566	0.181280	0.000081
C28	C	1.883195	0.185100	0.000080
C29	C	1.501268	0.421574	0.000062
C30	C	1.505086	0.563203	0.000056
N31	N	1.484193	0.212661	0.281914
N32	N	1.532693	0.164220	-0.281772
C33	C	1.634676	0.062265	0.531217
C34	C	1.623979	0.072970	0.655880
C35	C	1.452096	0.244768	0.655904
C36	C	1.462793	0.234064	0.531242
C37	C	1.554087	0.142810	0.468902
C38	C	1.564790	0.132112	0.344237
C39	C	1.392902	0.303904	0.344264
C40	C	1.382205	0.314609	0.468927
H41	H	1.286808	-0.204800	0.000153
N42	N	1.398458	-0.402729	-0.201118
N43	N	1.387328	-0.520083	-0.218147
H44	H	1.347333	-0.553833	-0.291288
H45	H	1.730183	-0.418040	0.000194
H46	H	1.606837	-0.230238	0.180457
H47	H	0.956092	-0.037424	0.000176
N48	N	1.358820	0.337952	0.719584
N49	N	1.242101	0.333841	0.705675
H50	H	1.176218	0.399647	0.750651
N51	N	0.887088	0.328222	0.201466
N52	N	0.767376	0.336876	0.218224
H53	H	0.722719	0.387670	0.291432
N54	N	1.363791	-0.368189	0.201268
N55	N	1.248031	-0.325581	0.218661
H56	H	1.195438	-0.346766	0.291793
H57	H	1.086185	0.094159	0.180272
H58	H	1.709020	-0.012028	0.480460
N59	N	1.066697	0.440816	0.000185
N60	N	1.023113	0.520895	0.084098
H61	H	1.044780	0.612673	0.084147
H62	H	1.637878	-0.260969	-0.180098
H63	H	1.639129	0.057813	0.293482
N64	N	0.921428	0.293607	-0.201122
N65	N	0.962258	0.244282	-0.302441
H66	H	0.930021	0.282464	-0.375603
H67	H	1.307871	0.388902	0.519698
N68	N	1.706301	-0.009321	0.719515
N69	N	1.787799	-0.090791	0.663835
H70	H	1.845942	-0.148916	0.708776
H71	H	1.327285	0.369492	0.293514
N72	N	1.130002	0.048634	-0.201111
N73	N	1.249659	0.040839	-0.218142
H74	H	1.294457	-0.009969	-0.291281
