data_functionalizedCrystal
_audit_creation_method	'MofGen! by Chris Wilmer'
_symmetry_space_group_name_H-M	'P1'
_symmetry_Int_Tables_number	1
_symmetry_cell_setting	triclinic
loop_
_symmetry_equiv_pos_as_xyz
  x,y,z
_cell_length_a	18.215407
_cell_length_b	14.908520
_cell_length_c	18.215399
_cell_angle_alpha	93.269364
_cell_angle_beta	89.980167
_cell_angle_gamma	93.321174
loop_
_atom_site_label
_atom_site_type_symbol
_atom_site_fract_x
_atom_site_fract_y
_atom_site_fract_z
Zn1	Zn	1.108178	-0.359158	-0.433017
Zn2	Zn	1.441511	-0.025825	-0.099684
Zn3	Zn	1.774844	0.307508	0.233649
Zn4	Zn	1.100989	-0.510027	-0.317051
Zn5	Zn	1.434323	-0.176694	0.016283
Zn6	Zn	1.767656	0.156639	0.349616
Zn7	Zn	0.985109	-0.359188	-0.309966
Zn8	Zn	1.318442	-0.025855	0.023367
Zn9	Zn	1.651775	0.307479	0.356701
Zn10	Zn	0.977982	-0.509977	-0.440073
Zn11	Zn	1.311315	-0.176644	-0.106740
Zn12	Zn	1.644648	0.156689	0.226593
O13	O	1.043064	-0.434588	-0.375027
O14	O	1.376398	-0.101254	-0.041693
O15	O	1.709731	0.232079	0.291640
O16	O	1.210208	-0.379180	-0.417646
O17	O	1.543541	-0.045847	-0.084313
O18	O	1.876875	0.287487	0.249021
O19	O	1.085592	-0.490052	-0.213128
O20	O	1.418925	-0.156718	0.120205
O21	O	1.752259	0.176615	0.453539
O22	O	1.007425	-0.232939	-0.320371
O23	O	1.340758	0.100394	0.012962
O24	O	1.674092	0.433728	0.346295
O25	O	1.204927	-0.490023	-0.332446
O26	O	1.538260	-0.156690	0.000887
O27	O	1.871593	0.176644	0.334221
O28	O	1.097843	-0.232917	-0.410776
O29	O	1.431177	0.100416	-0.077443
O30	O	1.764510	0.433749	0.255890
O31	O	1.000455	-0.379230	-0.207923
O32	O	1.333788	-0.045897	0.125410
O33	O	1.667122	0.287436	0.458744
O34	O	0.881180	-0.379182	-0.327213
O35	O	1.214513	-0.045848	0.006120
O36	O	1.547846	0.287485	0.339454
O37	O	0.995278	-0.489937	-0.542120
O38	O	1.328611	-0.156604	-0.208787
O39	O	1.661945	0.176729	0.124547
O40	O	0.875943	-0.489966	-0.422802
O41	O	1.209277	-0.156633	-0.089469
O42	O	1.542610	0.176701	0.243864
O43	O	1.090932	-0.379131	-0.536936
O44	O	1.424266	-0.045798	-0.203603
O45	O	1.757599	0.287535	0.129731
O46	O	1.078681	-0.636266	-0.339288
O47	O	1.412014	-0.302933	-0.005954
O48	O	1.745348	0.030401	0.327379
O49	O	0.988308	-0.636229	-0.429672
O50	O	1.321641	-0.302896	-0.096339
O51	O	1.654975	0.030438	0.236995
C52	C	0.851859	-0.434572	-0.375005
C53	C	1.185192	-0.101239	-0.041672
C54	C	1.518526	0.232094	0.291662
C55	C	0.770059	-0.434587	-0.375014
C56	C	1.103393	-0.101254	-0.041681
C57	C	1.436726	0.232079	0.291653
C58	C	1.031961	-0.668981	-0.386030
C59	C	1.365294	-0.335648	-0.052697
C60	C	1.698628	-0.002315	0.280636
C61	C	1.027278	-0.769256	-0.390762
C62	C	1.360612	-0.435923	-0.057429
C63	C	1.693945	-0.102589	0.275904
C64	C	0.579154	-0.492363	-0.424733
C65	C	0.912487	-0.159030	-0.091399
C66	C	1.245820	0.174303	0.241934
C67	C	0.502295	-0.492366	-0.424742
C68	C	0.835628	-0.159033	-0.091409
C69	C	1.168962	0.174300	0.241925
C70	C	0.507726	-0.376828	-0.325338
C71	C	0.841060	-0.043495	0.007995
C72	C	1.174393	0.289838	0.341329
C73	C	0.584584	-0.376822	-0.325333
C74	C	0.917917	-0.043488	0.008001
C75	C	1.251251	0.289845	0.341334
C76	C	0.620295	-0.434594	-0.375029
C77	C	0.953629	-0.101261	-0.041696
C78	C	1.286962	0.232072	0.291638
C79	C	0.466579	-0.434604	-0.375044
C80	C	0.799912	-0.101271	-0.041710
C81	C	1.133246	0.232063	0.291623
C82	C	0.383245	-0.434606	-0.375053
C83	C	0.716578	-0.101273	-0.041720
C84	C	1.049912	0.232060	0.291613
C85	C	0.703635	-0.434591	-0.375021
C86	C	1.036968	-0.101257	-0.041687
C87	C	1.370301	0.232076	0.291646
C88	C	1.112681	-0.957660	-0.305613
C89	C	1.446015	-0.624326	0.027720
C90	C	1.779348	-0.290993	0.361054
C91	C	1.108284	-1.051877	-0.310057
C92	C	1.441617	-0.718543	0.023277
C93	C	1.774951	-0.385210	0.356610
C94	C	1.014091	-1.051908	-0.404097
C95	C	1.347424	-0.718575	-0.070763
C96	C	1.680757	-0.385242	0.262570
C97	C	1.018488	-0.957691	-0.399653
C98	C	1.351821	-0.624358	-0.066320
C99	C	1.685155	-0.291025	0.267014
C100	C	1.067784	-0.910570	-0.350409
C101	C	1.401118	-0.577237	-0.017075
C102	C	1.734451	-0.243904	0.316258
C103	C	1.072177	-0.816352	-0.345962
C104	C	1.405511	-0.483018	-0.012628
C105	C	1.738844	-0.149685	0.320705
C106	C	0.977988	-0.816385	-0.440005
C107	C	1.311321	-0.483052	-0.106671
C108	C	1.644655	-0.149718	0.226662
C109	C	0.973591	-0.910602	-0.444449
C110	C	1.306924	-0.577269	-0.111115
C111	C	1.640257	-0.243935	0.222218
C112	C	1.235017	-0.434604	-0.375049
C113	C	1.568350	-0.101271	-0.041716
C114	C	1.901683	0.232063	0.291617
C115	C	1.316815	-0.434611	-0.375059
C116	C	1.650148	-0.101277	-0.041725
C117	C	1.983482	0.232056	0.291608
C118	C	1.043112	-0.434526	-0.566977
C119	C	1.376445	-0.101192	-0.233644
C120	C	1.709779	0.232141	0.099690
C121	C	1.043133	-0.434499	-0.648775
C122	C	1.376466	-0.101166	-0.315441
C123	C	1.709799	0.232168	0.017892
C124	C	1.054231	-0.199279	-0.363996
C125	C	1.387564	0.134054	-0.030663
C126	C	1.720898	0.467388	0.302670
C127	C	1.058990	-0.099004	-0.359296
C128	C	1.392323	0.234329	-0.025963
C129	C	1.725656	0.567662	0.307371
C130	C	1.092959	-0.376748	-0.834268
C131	C	1.426293	-0.043415	-0.500935
C132	C	1.759626	0.289918	-0.167601
C133	C	1.092969	-0.376722	-0.911126
C134	C	1.426303	-0.043389	-0.577792
C135	C	1.759636	0.289945	-0.244459
C136	C	0.993364	-0.492110	-0.916513
C137	C	1.326698	-0.158777	-0.583179
C138	C	1.660031	0.174557	-0.249846
C139	C	0.993351	-0.492131	-0.839656
C140	C	1.326685	-0.158798	-0.506323
C141	C	1.660018	0.174535	-0.172989
C142	C	1.043153	-0.434452	-0.798536
C143	C	1.376486	-0.101118	-0.465203
C144	C	1.709820	0.232215	-0.131869
C145	C	1.043176	-0.434404	-0.952250
C146	C	1.376509	-0.101071	-0.618917
C147	C	1.709843	0.232262	-0.285583
C148	C	1.043186	-0.434376	-1.035582
C149	C	1.376520	-0.101043	-0.702249
C150	C	1.709853	0.232290	-0.368916
C151	C	1.043142	-0.434478	-0.715198
C152	C	1.376475	-0.101145	-0.381865
C153	C	1.709808	0.232188	-0.048531
C154	C	1.043062	-0.434585	-0.183820
C155	C	1.376396	-0.101251	0.149513
C156	C	1.709729	0.232082	0.482846
C157	C	1.043196	-0.434357	-0.102011
C158	C	1.376530	-0.101024	0.231322
C159	C	1.709863	0.232310	0.564655
H160	H	0.608228	-0.539403	-0.465200
H161	H	0.941561	-0.206070	-0.131867
H162	H	1.274895	0.127263	0.201466
H163	H	0.468801	-0.539406	-0.465216
H164	H	0.802134	-0.206073	-0.131883
H165	H	1.135467	0.127260	0.201450
H166	H	0.952819	-0.539073	-0.950002
H167	H	1.286153	-0.205739	-0.616669
H168	H	1.619486	0.127594	-0.283335
H169	H	1.133509	-0.329780	-0.800790
H170	H	1.466842	0.003554	-0.467456
H171	H	1.800176	0.336887	-0.134123
C172	C	0.491281	-0.224011	-0.282519
C173	C	0.824614	0.109323	0.050814
C174	C	1.157948	0.442656	0.384148
C175	C	0.468471	-0.313331	-0.270709
C176	C	0.801804	0.020003	0.062624
C177	C	1.135137	0.353336	0.395958
H178	H	0.467044	-0.184811	-0.248794
H179	H	0.800377	0.148522	0.084540
H180	H	1.133711	0.481856	0.417873
H181	H	0.542937	-0.215746	-0.275402
H182	H	0.876270	0.117587	0.057931
H183	H	1.209603	0.450921	0.391264
H184	H	0.479320	-0.210896	-0.331369
H185	H	0.812654	0.122437	0.001964
H186	H	1.145987	0.455771	0.335298
H187	H	0.480436	-0.326447	-0.221860
H188	H	0.813770	0.006886	0.111473
H189	H	1.147103	0.340219	0.444806
H190	H	0.416803	-0.321599	-0.277820
H191	H	0.750137	0.011734	0.055514
H192	H	1.083470	0.345067	0.388847
C193	C	1.191429	-0.262680	-0.898076
C194	C	1.524762	0.070654	-0.564743
C195	C	1.858095	0.403987	-0.231409
C196	C	1.147721	-0.313297	-0.950402
C197	C	1.481055	0.020036	-0.617069
C198	C	1.814388	0.353370	-0.283736
H199	H	1.225234	-0.223526	-0.922325
H200	H	1.558567	0.109807	-0.588992
H201	H	1.891900	0.443140	-0.255659
H202	H	1.160998	-0.228179	-0.866477
H203	H	1.494331	0.105154	-0.533144
H204	H	1.827665	0.438488	-0.199811
H205	H	1.217706	-0.302009	-0.869947
H206	H	1.551039	0.031324	-0.536613
H207	H	1.884372	0.364658	-0.203280
H208	H	1.121440	-0.273968	-0.978528
H209	H	1.454773	0.059365	-0.645195
H210	H	1.788107	0.392699	-0.311862
H211	H	1.178156	-0.347800	-0.982014
H212	H	1.511489	-0.014467	-0.648680
H213	H	1.844823	0.318866	-0.315347
H214	H	0.618083	-0.329773	-0.284858
H215	H	0.951416	0.003560	0.048476
H216	H	1.284749	0.336893	0.381809
H217	H	1.144846	-1.090213	-0.273581
H218	H	1.478179	-0.756880	0.059753
H219	H	1.811512	-0.423547	0.393086
C220	C	1.164845	-0.825788	-0.253459
C221	C	1.498179	-0.492454	0.079875
C222	C	1.831512	-0.159121	0.413208
C223	C	1.126364	-0.764554	-0.291835
C224	C	1.459697	-0.431220	0.041498
C225	C	1.793031	-0.097887	0.374832
H226	H	1.198302	-0.793809	-0.220047
H227	H	1.531635	-0.460476	0.113286
H228	H	1.864969	-0.127143	0.446620
H229	H	1.131083	-0.862590	-0.227014
H230	H	1.464416	-0.529257	0.106320
H231	H	1.797749	-0.195923	0.439653
H232	H	1.191259	-0.862482	-0.287291
H233	H	1.524593	-0.529148	0.046042
H234	H	1.857926	-0.195815	0.379375
H235	H	1.099945	-0.727864	-0.258003
H236	H	1.433279	-0.394531	0.075330
H237	H	1.766612	-0.061197	0.408664
H238	H	1.160131	-0.727736	-0.318282
H239	H	1.493465	-0.394402	0.015052
H240	H	1.826798	-0.061069	0.348385
C241	C	0.965533	-1.196355	-0.452659
C242	C	1.298866	-0.863022	-0.119326
C243	C	1.632200	-0.529688	0.214008
C244	C	0.959907	-1.103715	-0.458221
C245	C	1.293240	-0.770381	-0.124888
C246	C	1.626574	-0.437048	0.208445
H247	H	0.932078	-1.228336	-0.486071
H248	H	1.265411	-0.895003	-0.152737
H249	H	1.598744	-0.561669	0.180596
H250	H	1.014250	-1.211723	-0.464206
H251	H	1.347584	-0.878389	-0.130873
H252	H	1.680917	-0.545056	0.202460
H253	H	0.954074	-1.211835	-0.403929
H254	H	1.287407	-0.878501	-0.070595
H255	H	1.620740	-0.545168	0.262738
H256	H	0.971372	-1.088234	-0.506951
H257	H	1.304705	-0.754900	-0.173617
H258	H	1.638039	-0.421567	0.159716
H259	H	0.911179	-1.088341	-0.446679
H260	H	1.244512	-0.755007	-0.113345
H261	H	1.577845	-0.421674	0.219988
H262	H	0.952788	-0.539119	-0.810563
H263	H	1.286121	-0.205786	-0.477229
H264	H	1.619455	0.127547	-0.143896
C265	C	0.880929	-0.901169	-0.536958
C266	C	1.214262	-0.567836	-0.203625
C267	C	1.547595	-0.234502	0.129709
C268	C	0.919408	-0.962401	-0.498578
C269	C	1.252741	-0.629068	-0.165244
C270	C	1.586074	-0.295735	0.168089
H271	H	0.847481	-0.933148	-0.570378
H272	H	1.180814	-0.599815	-0.237045
H273	H	1.514147	-0.266482	0.096289
H274	H	0.854512	-0.864481	-0.503134
H275	H	1.187845	-0.531148	-0.169801
H276	H	1.521178	-0.197815	0.163532
H277	H	0.914699	-0.864360	-0.563401
H278	H	1.248033	-0.531027	-0.230068
H279	H	1.581366	-0.197693	0.103265
H280	H	0.885637	-0.999206	-0.472130
H281	H	1.218970	-0.665873	-0.138796
H282	H	1.552304	-0.332540	0.194537
H283	H	0.945826	-0.999105	-0.532406
H284	H	1.279159	-0.665771	-0.199073
H285	H	1.612492	-0.332438	0.134261
C286	C	0.942902	-0.671973	-0.474953
C287	C	1.276235	-0.338640	-0.141620
C288	C	1.609568	-0.005307	0.191713
C289	C	0.928635	-0.764622	-0.489251
C290	C	1.261968	-0.431289	-0.155918
C291	C	1.595301	-0.097956	0.177416
H292	H	0.912435	-0.640019	-0.505358
H293	H	1.245768	-0.306686	-0.172024
H294	H	1.579102	0.026648	0.161309
H295	H	0.932879	-0.656589	-0.424776
H296	H	1.266212	-0.323256	-0.091443
H297	H	1.599546	0.010078	0.241891
H298	H	0.993067	-0.656477	-0.485043
H299	H	1.326400	-0.323144	-0.151710
H300	H	1.659733	0.010189	0.181624
H301	H	0.878471	-0.780119	-0.479156
H302	H	1.211804	-0.446786	-0.145823
H303	H	1.545137	-0.113453	0.187510
H304	H	0.938652	-0.780013	-0.539440
H305	H	1.271985	-0.446679	-0.206107
H306	H	1.605319	-0.113346	0.127227
H307	H	1.152815	-0.919293	-0.265511
H308	H	1.486149	-0.585960	0.067822
H309	H	1.819482	-0.252627	0.401155
