data_functionalizedCrystal
_audit_creation_method	'MofGen! by Chris Wilmer'
_symmetry_space_group_name_H-M	'P1'
_symmetry_Int_Tables_number	1
_symmetry_cell_setting	triclinic
loop_
_symmetry_equiv_pos_as_xyz
  x,y,z
_cell_length_a	19.188929
_cell_length_b	17.699097
_cell_length_c	16.176319
_cell_angle_alpha	90.004855
_cell_angle_beta	89.970652
_cell_angle_gamma	96.783395
loop_
_atom_site_label
_atom_site_type_symbol
_atom_site_fract_x
_atom_site_fract_y
_atom_site_fract_z
O1	O	-0.088340	1.003949	0.068855
O2	O	-0.099818	0.783557	0.068847
O3	O	0.007569	0.900113	0.068800
O4	O	-0.195727	0.887393	0.068902
O5	O	0.007579	0.900111	-0.068693
O6	O	-0.099808	0.783555	-0.068646
O7	O	-0.088330	1.003947	-0.068638
Cu8	Cu	-0.094068	0.893751	-0.081197
Cu9	Cu	-0.094080	0.893753	0.081405
O10	O	-0.195717	0.887391	-0.068591
C11	C	-0.099400	0.755360	0.000098
C12	C	-0.098161	0.671344	0.000092
C13	C	-0.090575	0.155637	0.075070
C14	C	-0.091734	0.234579	0.075066
C15	C	-0.092309	0.274043	0.000115
C16	C	-0.091719	0.234562	-0.074837
C17	C	-0.090555	0.155621	-0.074832
C18	C	-0.096412	0.552920	-0.074856
C19	C	-0.097578	0.631865	-0.074855
C20	C	-0.097591	0.631878	0.075042
C21	C	-0.096427	0.552937	0.075047
C22	C	-0.095833	0.513463	0.000095
C23	C	-0.094575	0.427865	0.000100
C24	C	-0.093572	0.359639	0.000110
C25	C	-0.221734	0.887804	0.000168
C26	C	-0.299240	0.889040	0.000208
C27	C	-0.344084	0.820649	0.000188
C28	C	-0.416909	0.821811	0.000170
C29	C	-0.444887	0.891368	0.000154
C30	C	-0.400033	0.959768	0.000178
C31	C	-0.327209	0.958604	0.000205
N32	N	-0.552914	0.944534	-0.046688
N33	N	-0.622094	0.945635	-0.046716
C34	C	-0.664299	0.894878	0.000075
N35	N	-0.634713	0.842967	0.046883
N36	N	-0.565527	0.841864	0.046906
C37	C	-0.523851	0.892637	0.000125
C38	C	-0.788110	0.827742	0.000036
C39	C	-0.860936	0.828906	0.000023
C40	C	-0.844058	0.966865	0.000022
C41	C	-0.771233	0.965699	0.000044
C42	C	-0.743264	0.896135	0.000047
C43	C	0.033586	0.899700	0.000042
C44	C	0.111092	0.898464	0.000008
C45	C	-0.088748	1.032144	0.000112
C46	C	-0.089987	1.116160	0.000123
N47	N	-0.094083	0.893756	0.195770
N48	N	-0.094059	0.893755	-0.195562
C49	C	-0.046625	0.945462	0.239014
C50	C	-0.046624	0.945465	0.325561
C51	C	-0.094077	0.893757	0.368863
C52	C	-0.141540	0.842048	0.325613
C53	C	-0.141544	0.842050	0.239068
C54	C	-0.141524	0.842043	0.674642
C55	C	-0.141514	0.842044	0.761193
C56	C	-0.046604	0.945458	0.761135
C57	C	-0.046608	0.945459	0.674589
C58	C	-0.094073	0.893754	0.631347
C59	C	-0.094075	0.893752	0.537503
C60	C	-0.094072	0.893755	0.462706
H61	H	-0.092209	0.266718	0.136095
C62	C	-0.094653	0.431932	0.141610
C63	C	-0.095797	0.509558	0.157434
H64	H	-0.094267	0.405154	0.192474
H65	H	-0.053764	0.424903	0.110801
H66	H	-0.135163	0.413094	0.110834
H67	H	-0.055284	0.528398	0.188205
H68	H	-0.136690	0.516592	0.188256
C69	C	0.047221	1.047681	0.752382
C70	C	0.005568	1.002301	0.808668
H71	H	0.079432	1.082767	0.781727
H72	H	0.018134	1.074740	0.718651
H73	H	0.072355	1.016309	0.718605
H74	H	-0.019570	1.033673	0.842441
H75	H	0.034660	0.975240	0.842414
H76	H	-0.422817	1.016402	0.000180
H77	H	-0.321316	0.764005	0.000198
H78	H	-0.453428	0.766117	0.000152
H79	H	-0.098072	0.664027	0.136071
C80	C	0.048423	0.962398	0.577200
C81	C	0.005555	1.002298	0.626994
H82	H	0.080628	0.997491	0.547822
H83	H	0.020159	0.931610	0.539062
H84	H	0.073565	0.931041	0.610950
H85	H	-0.019591	1.033651	0.593243
H86	H	0.033822	1.033099	0.665136
H87	H	-0.734720	1.021391	0.000055
C88	C	-0.149231	0.058123	-0.161760
C89	C	-0.089908	0.112223	-0.157214
H90	H	-0.148825	0.031330	-0.212619
H91	H	-0.190378	0.083013	-0.158633
H92	H	-0.148714	0.023329	-0.117117
H93	H	-0.090428	0.147021	-0.201854
H94	H	-0.048750	0.087333	-0.160349
H95	H	-0.098046	0.663995	-0.135892
H96	H	-0.180180	0.799949	0.360875
H97	H	-0.180159	0.799936	0.796448
C98	C	-0.317842	1.095086	0.000201
C99	C	-0.277911	1.033786	0.000217
H100	H	-0.287405	1.141500	0.000202
H101	H	-0.346625	1.092674	0.048137
H102	H	-0.346569	1.092665	-0.047757
H103	H	-0.249188	1.036204	0.048179
H104	H	-0.249116	1.036200	-0.047723
H105	H	-0.180170	0.799941	0.639441
C106	C	-0.812105	0.691493	0.000051
C107	C	-0.757360	0.751279	0.000057
H108	H	-0.793121	0.644289	0.000071
H109	H	-0.840124	0.694809	-0.047903
H110	H	-0.840190	0.694828	0.047991
H111	H	-0.729277	0.747947	-0.047886
H112	H	-0.729329	0.747962	0.048017
H113	H	-0.007981	0.987565	0.203763
C114	C	-0.235353	0.739816	0.247813
C115	C	-0.193706	0.785207	0.191531
H116	H	-0.267554	0.704721	0.218464
H117	H	-0.260493	0.771174	0.281586
H118	H	-0.206255	0.712760	0.281548
H119	H	-0.222803	0.812267	0.157799
H120	H	-0.168564	0.753844	0.157743
C121	C	-0.096528	0.560846	-0.223025
C122	C	-0.095769	0.509535	-0.157242
H123	H	-0.096137	0.534057	-0.273888
H124	H	-0.056285	0.597539	-0.219931
H125	H	-0.137684	0.585731	-0.219876
H126	H	-0.054611	0.484654	-0.160387
H127	H	-0.136016	0.472828	-0.160338
H128	H	-0.090112	0.123510	0.136103
C129	C	-0.093505	0.355564	-0.141404
C130	C	-0.092353	0.277939	-0.157225
H131	H	-0.093903	0.382339	-0.192269
H132	H	-0.053001	0.374408	-0.110637
H133	H	-0.134400	0.362588	-0.110587
H134	H	-0.051456	0.270914	-0.188037
H135	H	-0.132861	0.259088	-0.188005
C136	C	-0.952660	0.750173	0.070676
C137	C	-0.910230	0.753723	0.000007
H138	H	-0.983089	0.703755	0.070667
H139	H	-0.979742	0.791759	0.070664
H140	H	-0.923923	0.752587	0.118625
H141	H	-0.938968	0.751315	-0.047943
H142	H	-0.883146	0.712125	0.000011
H143	H	-0.866836	1.023500	0.000070
H144	H	-0.007981	0.987569	0.360769
