data_functionalizedCrystal
_audit_creation_method	'MofGen! by Chris Wilmer'
_symmetry_space_group_name_H-M	'P1'
_symmetry_Int_Tables_number	1
_symmetry_cell_setting	triclinic
loop_
_symmetry_equiv_pos_as_xyz
  x,y,z
_cell_length_a	13.032328
_cell_length_b	19.077105
_cell_length_c	19.076808
_cell_angle_alpha	89.927608
_cell_angle_beta	85.431946
_cell_angle_gamma	84.833390
loop_
_atom_site_label
_atom_site_type_symbol
_atom_site_fract_x
_atom_site_fract_y
_atom_site_fract_z
Zn1	Zn	-0.628486	-1.007147	0.374471
Zn2	Zn	-0.448275	-1.018353	0.477228
Zn3	Zn	-0.448872	-0.905601	0.355055
Zn4	Zn	-0.614553	-0.886124	0.486078
O5	O	-0.535046	-0.954306	0.423208
O6	O	-0.610161	-1.106469	0.392524
O7	O	-0.303597	-1.016238	0.449191
O8	O	-0.478779	-0.922533	0.259793
O9	O	-0.477761	-1.114702	0.468018
O10	O	-0.610740	-0.997138	0.274058
O11	O	-0.304035	-0.933399	0.359432
O12	O	-0.465269	-0.805182	0.368014
O13	O	-0.761159	-0.889336	0.483103
O14	O	-0.586995	-0.790872	0.464276
O15	O	-0.771395	-0.978251	0.401106
O16	O	-0.464251	-0.997351	0.576239
O17	O	-0.586415	-0.900203	0.582741
C18	C	-0.524685	-0.772659	0.414999
C19	C	-0.520276	-0.694947	0.411506
C20	C	-0.523780	-0.947897	0.604861
C21	C	-0.518999	-0.945215	0.682579
C22	C	-0.804860	-0.930371	0.445257
C23	C	-0.919839	-0.920171	0.454653
C24	C	-1.095001	-0.949085	0.427987
C25	C	-0.976165	-0.959624	0.418270
C26	C	-0.266288	-0.978190	0.401196
C27	C	-0.151330	-0.988532	0.391609
C28	C	-0.545448	-1.136663	0.431450
C29	C	-0.549881	-1.214372	0.434962
C30	C	-0.581473	-0.651013	0.460042
C31	C	-0.577336	-0.577994	0.456751
C32	C	-0.511996	-0.548911	0.404927
C33	C	-0.450797	-0.592851	0.356386
C34	C	-0.454941	-0.665868	0.359674
C35	C	-0.492825	-0.331329	0.389709
C36	C	-0.488684	-0.258306	0.386425
C37	C	-0.615225	-0.243454	0.486791
C38	C	-0.619358	-0.316474	0.490077
C39	C	-0.558163	-0.360407	0.441534
N40	N	-0.507763	-0.474274	0.401563
N41	N	-0.562402	-0.435042	0.444895
C42	C	-0.546380	-0.960758	0.240848
C43	C	-0.551210	-0.963507	0.163137
C44	C	-0.585509	-0.982760	0.726460
C45	C	-0.581018	-0.980238	0.799484
C46	C	-0.510011	-0.940174	0.828625
C47	C	-0.443497	-0.902625	0.784738
C48	C	-0.447994	-0.905144	0.711716
C49	C	-0.489193	-0.928477	1.046228
C50	C	-0.484699	-0.925963	1.119256
C51	C	-0.622222	-1.003575	1.133997
C52	C	-0.626708	-1.006093	1.060972
C53	C	-0.560199	-0.968541	1.017092
N54	N	-0.505416	-0.937597	0.903267
N55	N	-0.564799	-0.971115	0.942452
H56	H	-0.936416	-1.001197	0.379925
H57	H	-0.435037	-0.897902	1.010506
H58	H	-0.635170	-1.010817	0.835209
O59	O	-0.433321	-0.374075	0.342654
C60	C	-0.366322	-0.420826	0.378817
H61	H	-0.400011	-0.426685	0.435303
H62	H	-0.357200	-0.474394	0.351502
H63	H	-0.287579	-0.399204	0.378890
O64	O	-0.387445	-0.564629	0.305952
C65	C	-0.415540	-0.582925	0.238958
H66	H	-0.499542	-0.595795	0.243174
H67	H	-0.406127	-0.536907	0.201522
H68	H	-0.363669	-0.630865	0.218005
H69	H	-1.111577	-1.030103	0.353267
H70	H	-0.385686	-0.870001	0.808471
H71	H	-0.393836	-0.874570	0.675988
H72	H	-1.134754	-0.907510	0.466324
O73	O	-0.682751	-0.344839	0.540388
C74	C	-0.673307	-0.418706	0.532869
H75	H	-0.595518	-0.436554	0.503822
H76	H	-0.678535	-0.444002	0.587058
H77	H	-0.738231	-0.435291	0.501648
H78	H	-0.634676	-0.674686	0.502246
O79	O	-0.674787	-0.200737	0.533845
C80	C	-0.741744	-0.153966	0.497670
H81	H	-0.752925	-0.177336	0.444134
H82	H	-0.819674	-0.145197	0.529501
H83	H	-0.706777	-0.101546	0.490122
O84	O	-0.967205	-0.870479	0.500314
C85	C	-0.937842	-0.803655	0.479763
H86	H	-0.911345	-0.804718	0.421334
H87	H	-1.006608	-0.762644	0.489998
H88	H	-0.871833	-0.789569	0.511340
O89	O	-0.395335	-0.708530	0.312591
C90	C	-0.290246	-0.699276	0.318519
H91	H	-0.280286	-0.677707	0.373026
H92	H	-0.242257	-0.752035	0.310432
H93	H	-0.263215	-0.660604	0.276893
O94	O	-0.636804	-0.535419	0.503980
C95	C	-0.695371	-0.576745	0.550422
H96	H	-0.655802	-0.632465	0.551669
H97	H	-0.701638	-0.552745	0.605462
H98	H	-0.776029	-0.578443	0.531690
H99	H	-0.426876	-0.893335	1.142980
H100	H	-0.435484	-0.234630	0.344216
O101	O	-0.654581	-1.021687	0.698273
C102	C	-0.712306	-1.054295	0.752665
H103	H	-0.711007	-1.023546	0.803739
H104	H	-0.795544	-1.055202	0.738539
H105	H	-0.677049	-1.110504	0.759700
O106	O	-0.695774	-1.045025	1.032784
C107	C	-0.753495	-1.077640	1.087173
H108	H	-0.752215	-1.046888	1.138247
H109	H	-0.836727	-1.078561	1.073040
H110	H	-0.718221	-1.133844	1.094212
O111	O	-0.686934	-1.039932	1.176661
C112	C	-0.748800	-0.992707	1.222586
H113	H	-0.753329	-0.937837	1.198655
H114	H	-0.829833	-1.010853	1.231024
H115	H	-0.713267	-0.991243	1.275216
