data_functionalizedCrystal
_audit_creation_method	'MofGen! by Chris Wilmer'
_symmetry_space_group_name_H-M	'P1'
_symmetry_Int_Tables_number	1
_symmetry_cell_setting	triclinic
loop_
_symmetry_equiv_pos_as_xyz
  x,y,z
_cell_length_a	21.395362
_cell_length_b	19.077068
_cell_length_c	21.395355
_cell_angle_alpha	92.279051
_cell_angle_beta	89.956060
_cell_angle_gamma	92.343691
loop_
_atom_site_label
_atom_site_type_symbol
_atom_site_fract_x
_atom_site_fract_y
_atom_site_fract_z
Zn1	Zn	0.947861	-0.279990	-0.364586
Zn2	Zn	1.197861	-0.029990	-0.114586
Zn3	Zn	1.447861	0.220010	0.135414
Zn4	Zn	1.697861	0.470010	0.385414
Zn5	Zn	0.943561	-0.397672	-0.264012
Zn6	Zn	1.193561	-0.147672	-0.014012
Zn7	Zn	1.443561	0.102328	0.235988
Zn8	Zn	1.693561	0.352328	0.485988
Zn9	Zn	0.843074	-0.280023	-0.259789
Zn10	Zn	1.093074	-0.030023	-0.009789
Zn11	Zn	1.343074	0.219977	0.240211
Zn12	Zn	1.593074	0.469977	0.490211
Zn13	Zn	0.838842	-0.397686	-0.368717
Zn14	Zn	1.088842	-0.147686	-0.118717
Zn15	Zn	1.338842	0.102314	0.131283
Zn16	Zn	1.588842	0.352314	0.381283
O17	O	0.893334	-0.338843	-0.314276
O18	O	1.143334	-0.088843	-0.064276
O19	O	1.393334	0.161157	0.185724
O20	O	1.643334	0.411157	0.435724
O21	O	1.034969	-0.295581	-0.351283
O22	O	1.284969	-0.045581	-0.101283
O23	O	1.534969	0.204419	0.148717
O24	O	1.784969	0.454419	0.398717
O25	O	0.930203	-0.382073	-0.175774
O26	O	1.180203	-0.132073	0.074226
O27	O	1.430203	0.117927	0.324226
O28	O	1.680203	0.367927	0.574226
O29	O	0.860546	-0.181525	-0.270194
O30	O	1.110546	0.068475	-0.020194
O31	O	1.360546	0.318475	0.229806
O32	O	1.610546	0.568475	0.479806
O33	O	1.031810	-0.382041	-0.277392
O34	O	1.281810	-0.132041	-0.027392
O35	O	1.531810	0.117959	0.222608
O36	O	1.781810	0.367959	0.472608
O37	O	0.937532	-0.181501	-0.347188
O38	O	1.187532	0.068499	-0.097188
O39	O	1.437532	0.318499	0.152812
O40	O	1.687532	0.568499	0.402812
O41	O	0.856376	-0.295637	-0.172671
O42	O	1.106376	-0.045637	0.077329
O43	O	1.356376	0.204363	0.327329
O44	O	1.606376	0.454363	0.577329
O45	O	0.754834	-0.295651	-0.274200
O46	O	1.004834	-0.045651	-0.024200
O47	O	1.254834	0.204349	0.225800
O48	O	1.504834	0.454349	0.475800
O49	O	0.853331	-0.382066	-0.455847
O50	O	1.103331	-0.132066	-0.205847
O51	O	1.353331	0.117934	0.044153
O52	O	1.603331	0.367934	0.294153
O53	O	0.751725	-0.382098	-0.354229
O54	O	1.001725	-0.132098	-0.104229
O55	O	1.251725	0.117902	0.145771
O56	O	1.501725	0.367902	0.395771
O57	O	0.933427	-0.295595	-0.452812
O58	O	1.183427	-0.045595	-0.202812
O59	O	1.433427	0.204405	0.047188
O60	O	1.683427	0.454405	0.297188
O61	O	0.926098	-0.496167	-0.281398
O62	O	1.176098	-0.246167	-0.031398
O63	O	1.426098	0.003833	0.218602
O64	O	1.676098	0.253833	0.468602
O65	O	0.849162	-0.496177	-0.358324
O66	O	1.099162	-0.246177	-0.108324
O67	O	1.349162	0.003823	0.141676
O68	O	1.599162	0.253823	0.391676
C69	C	0.730545	-0.338880	-0.314205
C70	C	0.980545	-0.088880	-0.064205
C71	C	1.230545	0.161120	0.185795
C72	C	1.480545	0.411120	0.435795
C73	C	0.660903	-0.338913	-0.314190
C74	C	0.910903	-0.088913	-0.064190
C75	C	1.160903	0.161087	0.185810
C76	C	1.410903	0.411087	0.435810
C77	C	0.626585	-0.383985	-0.355803
C78	C	0.876585	-0.133985	-0.105803
C79	C	1.126585	0.116015	0.144197
C80	C	1.376585	0.366015	0.394197
C81	C	0.561150	-0.383968	-0.355830
C82	C	0.811150	-0.133968	-0.105830
C83	C	1.061150	0.116032	0.144170
C84	C	1.311150	0.366032	0.394170
C85	C	0.530036	-0.338886	-0.314233
C86	C	0.780036	-0.088886	-0.064233
C87	C	1.030036	0.161114	0.185767
C88	C	1.280036	0.411114	0.435767
C89	C	0.564362	-0.293804	-0.272617
C90	C	0.814362	-0.043804	-0.022617
C91	C	1.064362	0.206196	0.227383
C92	C	1.314362	0.456196	0.477383
C93	C	0.629796	-0.293818	-0.272595
C94	C	0.879796	-0.043818	-0.022595
C95	C	1.129796	0.206182	0.227405
C96	C	1.379796	0.456182	0.477405
C97	C	0.426513	-0.333216	-0.257626
C98	C	0.676513	-0.083216	-0.007626
C99	C	0.926513	0.166784	0.242374
C100	C	1.176513	0.416784	0.492374
C101	C	0.361081	-0.333207	-0.257647
C102	C	0.611081	-0.083207	-0.007647
C103	C	0.861081	0.166793	0.242353
C104	C	1.111081	0.416793	0.492353
C105	C	0.328216	-0.338840	-0.314301
C106	C	0.578216	-0.088840	-0.064301
C107	C	0.828216	0.161160	0.185699
C108	C	1.078216	0.411160	0.435699
C109	C	0.360792	-0.344496	-0.370937
C110	C	0.610792	-0.094496	-0.120937
C111	C	0.860792	0.155504	0.129063
C112	C	1.110792	0.405504	0.379063
C113	C	0.426226	-0.344510	-0.370915
C114	C	0.676226	-0.094510	-0.120915
C115	C	0.926226	0.155490	0.129085
C116	C	1.176226	0.405490	0.379085
C117	C	0.459084	-0.338866	-0.314253
C118	C	0.709084	-0.088866	-0.064253
C119	C	0.959084	0.161134	0.185747
C120	C	1.209084	0.411134	0.435747
C121	C	0.222946	-0.383896	-0.355947
C122	C	0.472946	-0.133896	-0.105947
C123	C	0.722946	0.116104	0.144053
C124	C	0.972946	0.366104	0.394053
C125	C	0.157511	-0.383874	-0.355976
C126	C	0.407511	-0.133874	-0.105976
C127	C	0.657511	0.116126	0.144024
C128	C	0.907511	0.366126	0.394024
C129	C	0.160724	-0.293714	-0.272756
C130	C	0.410724	-0.043714	-0.022756
C131	C	0.660724	0.206286	0.227244
C132	C	0.910724	0.456286	0.477244
C133	C	0.226158	-0.293732	-0.272734
C134	C	0.476158	-0.043732	-0.022734
C135	C	0.726158	0.206268	0.227266
C136	C	0.976158	0.456268	0.477266
C137	C	0.257266	-0.338827	-0.314328
C138	C	0.507266	-0.088827	-0.064328
C139	C	0.757266	0.161173	0.185672
C140	C	1.007266	0.411173	0.435672
C141	C	0.886721	-0.521710	-0.320781
C142	C	1.136721	-0.271710	-0.070781
C143	C	1.386721	-0.021710	0.179219
C144	C	1.636721	0.228290	0.429219
C145	C	0.883949	-0.599942	-0.323585
C146	C	1.133949	-0.349942	-0.073585
C147	C	1.383949	-0.099942	0.176415
C148	C	1.633949	0.150058	0.426415
C149	C	0.922735	-0.636666	-0.284884
C150	C	1.172735	-0.386666	-0.034884
C151	C	1.422735	-0.136666	0.215116
C152	C	1.672735	0.113334	0.465116
C153	C	0.920132	-0.710173	-0.287525
C154	C	1.170132	-0.460173	-0.037525
C155	C	1.420132	-0.210173	0.212475
C156	C	1.670132	0.039827	0.462475
C157	C	0.878739	-0.746954	-0.328864
C158	C	1.128739	-0.496954	-0.078864
C159	C	1.378739	-0.246954	0.171136
C160	C	1.628739	0.003046	0.421136
C161	C	0.839952	-0.710224	-0.367570
C162	C	1.089952	-0.460224	-0.117570
C163	C	1.339952	-0.210224	0.132430
C164	C	1.589952	0.039776	0.382430
C165	C	0.842559	-0.636719	-0.364931
C166	C	1.092559	-0.386719	-0.114931
C167	C	1.342559	-0.136719	0.135069
C168	C	1.592559	0.113281	0.385069
C169	C	0.866647	-0.966795	-0.341049
C170	C	1.116647	-0.716795	-0.091049
C171	C	1.366647	-0.466795	0.158951
C172	C	1.616647	-0.216795	0.408951
C173	C	0.864041	-1.040305	-0.343683
C174	C	1.114041	-0.790305	-0.093683
C175	C	1.364041	-0.540305	0.156317
C176	C	1.614041	-0.290305	0.406317
C177	C	0.944222	-1.040249	-0.263639
C178	C	1.194222	-0.790249	-0.013639
C179	C	1.444222	-0.540249	0.236361
C180	C	1.694222	-0.290249	0.486361
C181	C	0.946823	-0.966742	-0.261002
C182	C	1.196823	-0.716742	-0.011002
C183	C	1.446823	-0.466742	0.238998
C184	C	1.696823	-0.216742	0.488998
C185	C	0.908038	-0.930019	-0.299709
C186	C	1.158038	-0.680019	-0.049709
C187	C	1.408038	-0.430019	0.200291
C188	C	1.658038	-0.180019	0.450291
N189	N	0.876076	-0.822090	-0.331564
N190	N	1.126076	-0.572090	-0.081564
N191	N	1.376076	-0.322090	0.168436
N192	N	1.626076	-0.072090	0.418436
N193	N	0.910705	-0.854884	-0.297013
N194	N	1.160705	-0.604884	-0.047013
N195	N	1.410705	-0.354884	0.202987
N196	N	1.660705	-0.104884	0.452987
C197	C	1.056759	-0.338806	-0.314348
C198	C	1.306759	-0.088806	-0.064348
C199	C	1.556759	0.161194	0.185652
C200	C	1.806759	0.411194	0.435652
C201	C	1.126401	-0.338790	-0.314379
C202	C	1.376401	-0.088790	-0.064379
C203	C	1.626401	0.161210	0.185621
C204	C	1.876401	0.411210	0.435621
C205	C	0.893387	-0.338828	-0.477699
C206	C	1.143387	-0.088828	-0.227699
C207	C	1.393387	0.161172	0.022301
C208	C	1.643387	0.411172	0.272301
C209	C	0.893409	-0.338822	-0.547340
C210	C	1.143409	-0.088822	-0.297340
C211	C	1.393409	0.161178	-0.047340
C212	C	1.643409	0.411178	0.202660
C213	C	0.899990	-0.155261	-0.307759
C214	C	1.149990	0.094739	-0.057759
C215	C	1.399990	0.344739	0.192241
C216	C	1.649990	0.594739	0.442241
C217	C	0.902827	-0.077030	-0.304982
C218	C	1.152827	0.172970	-0.054982
C219	C	1.402827	0.422970	0.195018
C220	C	1.652827	0.672970	0.445018
C221	C	0.935113	-0.293795	-0.578474
C222	C	1.185113	-0.043795	-0.328474
C223	C	1.435113	0.206205	-0.078474
C224	C	1.685113	0.456205	0.171526
C225	C	0.935114	-0.293765	-0.643908
C226	C	1.185114	-0.043765	-0.393908
C227	C	1.435114	0.206235	-0.143908
C228	C	1.685114	0.456235	0.106092
C229	C	0.893416	-0.338774	-0.678207
C230	C	1.143416	-0.088774	-0.428207
C231	C	1.393416	0.161226	-0.178207
C232	C	1.643416	0.411226	0.071793
C233	C	0.851704	-0.383805	-0.647065
C234	C	1.101704	-0.133805	-0.397065
C235	C	1.351704	0.116195	-0.147065
C236	C	1.601704	0.366195	0.102935
C237	C	0.851700	-0.383829	-0.581632
C238	C	1.101700	-0.133829	-0.331632
C239	C	1.351700	0.116171	-0.081632
C240	C	1.601700	0.366171	0.168368
C241	C	0.886177	-0.402150	-0.784134
C242	C	1.136177	-0.152150	-0.534134
C243	C	1.386177	0.097850	-0.284134
C244	C	1.636177	0.347850	-0.034134
C245	C	0.886184	-0.402127	-0.849566
C246	C	1.136184	-0.152127	-0.599566
C247	C	1.386184	0.097873	-0.349566
C248	C	1.636184	0.347873	-0.099566
C249	C	0.893422	-0.338700	-0.880025
C250	C	1.143422	-0.088700	-0.630025
C251	C	1.393422	0.161300	-0.380025
C252	C	1.643422	0.411300	-0.130025
C253	C	0.900666	-0.275294	-0.845043
C254	C	1.150666	-0.025294	-0.595043
C255	C	1.400666	0.224706	-0.345043
C256	C	1.650666	0.474706	-0.095043
C257	C	0.900663	-0.275318	-0.779610
C258	C	1.150663	-0.025318	-0.529610
C259	C	1.400663	0.224682	-0.279610
C260	C	1.650663	0.474682	-0.029610
C261	C	0.893414	-0.338753	-0.749158
C262	C	1.143414	-0.088753	-0.499158
C263	C	1.393414	0.161247	-0.249158
C264	C	1.643414	0.411247	0.000842
C265	C	0.935129	-0.293636	-0.982110
C266	C	1.185129	-0.043636	-0.732110
C267	C	1.435129	0.206364	-0.482110
C268	C	1.685129	0.456364	-0.232110
C269	C	0.935125	-0.293605	-1.047545
C270	C	1.185125	-0.043605	-0.797545
C271	C	1.435125	0.206395	-0.547545
C272	C	1.685125	0.456395	-0.297545
C273	C	0.851718	-0.383651	-1.050701
C274	C	1.101718	-0.133651	-0.800701
C275	C	1.351718	0.116349	-0.550701
C276	C	1.601718	0.366349	-0.300701
C277	C	0.851719	-0.383676	-0.985267
C278	C	1.101719	-0.133676	-0.735267
C279	C	1.351719	0.116324	-0.485267
C280	C	1.601719	0.366324	-0.235267
C281	C	0.893428	-0.338670	-0.950975
C282	C	1.143428	-0.088670	-0.700975
C283	C	1.393428	0.161330	-0.450975
C284	C	1.643428	0.411330	-0.200975
C285	C	0.893320	-0.338806	-0.151487
C286	C	1.143320	-0.088806	0.098513
C287	C	1.393320	0.161194	0.348513
C288	C	1.643320	0.411194	0.598513
C289	C	0.893426	-0.338614	-0.081839
C290	C	1.143426	-0.088614	0.168161
C291	C	1.393426	0.161386	0.418161
C292	C	1.643426	0.411386	0.668161
H293	H	0.129570	-0.420576	-0.389866
H294	H	0.379570	-0.170576	-0.139866
H295	H	0.629570	0.079424	0.110134
H296	H	0.879570	0.329424	0.360134
H297	H	0.135391	-0.257003	-0.238890
H298	H	0.385391	-0.007003	0.011110
H299	H	0.635391	0.242997	0.261110
H300	H	0.885391	0.492997	0.511110
H301	H	0.906559	-0.223690	-0.751130
H302	H	1.156559	0.026310	-0.501130
H303	H	1.406559	0.276310	-0.251130
H304	H	1.656559	0.526310	-0.001130
F305	F	0.666321	-0.245843	-0.228302
F306	F	0.916321	0.004157	0.021698
F307	F	1.166321	0.254157	0.271698
F308	F	1.416321	0.504157	0.521698
H309	H	0.254101	-0.257033	-0.238845
H310	H	0.504101	-0.007033	0.011155
H311	H	0.754101	0.242967	0.261155
H312	H	1.004101	0.492967	0.511155
H313	H	0.334036	-0.349081	-0.417070
H314	H	0.584036	-0.099081	-0.167070
H315	H	0.834036	0.150919	0.082930
H316	H	1.084036	0.400919	0.332930
H317	H	0.806252	-0.740177	-0.401232
H318	H	1.056252	-0.490177	-0.151232
H319	H	1.306252	-0.240177	0.098768
H320	H	1.556252	0.009823	0.348768
F321	F	0.807333	-0.431604	-0.952131
F322	F	1.057333	-0.181604	-0.702131
F323	F	1.307333	0.068396	-0.452131
F324	F	1.557333	0.318396	-0.202131
F325	F	0.878480	-0.469610	-0.886791
F326	F	1.128480	-0.219610	-0.636791
F327	F	1.378480	0.030390	-0.386791
F328	F	1.628480	0.280390	-0.136791
H329	H	0.951715	-0.740071	-0.256010
H330	H	1.201715	-0.490071	-0.006010
H331	H	1.451715	-0.240071	0.243990
H332	H	1.701715	0.009929	0.493990
H333	H	0.334562	-0.328606	-0.211530
H334	H	0.584562	-0.078606	0.038470
H335	H	0.834562	0.171394	0.288470
H336	H	1.084562	0.421394	0.538470
F337	F	0.825367	-0.927720	-0.382245
F338	F	1.075367	-0.677720	-0.132245
F339	F	1.325367	-0.427720	0.117755
F340	F	1.575367	-0.177720	0.367755
F341	F	0.807311	-0.431755	-0.548496
F342	F	1.057311	-0.181755	-0.298496
F343	F	1.307311	0.068245	-0.048496
F344	F	1.557311	0.318245	0.201504
F345	F	0.985500	-1.079337	-0.222450
F346	F	1.235500	-0.829337	0.027550
F347	F	1.485500	-0.579337	0.277550
F348	F	1.735500	-0.329337	0.527550
H349	H	0.980528	-0.936796	-0.227340
H350	H	1.230528	-0.686796	0.022660
H351	H	1.480528	-0.436796	0.272660
H352	H	1.730528	-0.186796	0.522660
H353	H	0.830342	-1.070250	-0.377357
H354	H	1.080342	-0.820250	-0.127357
H355	H	1.330342	-0.570250	0.122643
H356	H	1.580342	-0.320250	0.372643
H357	H	0.956438	-0.606724	-0.251219
H358	H	1.206438	-0.356724	-0.001219
H359	H	1.456438	-0.106724	0.248781
H360	H	1.706438	0.143276	0.498781
H361	H	0.880115	-0.453787	-0.759340
H362	H	1.130115	-0.203787	-0.509340
H363	H	1.380115	0.046213	-0.259340
H364	H	1.630115	0.296213	-0.009340
F365	F	0.801279	-0.597634	-0.406124
F366	F	1.051279	-0.347634	-0.156124
F367	F	1.301279	-0.097634	0.093876
F368	F	1.551279	0.152366	0.343876
H369	H	0.969075	-0.257146	-0.550557
H370	H	1.219075	-0.007146	-0.300557
H371	H	1.469075	0.242854	-0.050557
H372	H	1.719075	0.492854	0.199443
F373	F	0.461483	-0.327222	-0.197322
F374	F	0.711483	-0.077222	0.052678
F375	F	0.961483	0.172778	0.302678
F376	F	1.211483	0.422778	0.552678
F377	F	0.979493	-0.245827	-0.677049
F378	F	1.229493	0.004173	-0.427049
F379	F	1.479493	0.254173	-0.177049
F380	F	1.729493	0.504173	0.072951
F381	F	0.908372	-0.207784	-0.877454
F382	F	1.158372	0.042216	-0.627454
F383	F	1.408372	0.292216	-0.377454
F384	F	1.658372	0.542216	-0.127454
F385	F	0.256055	-0.431886	-0.400218
F386	F	0.506055	-0.181886	-0.150218
F387	F	0.756055	0.068114	0.099782
F388	F	1.006055	0.318114	0.349782
H389	H	0.969088	-0.256985	-0.954188
H390	H	1.219088	-0.006985	-0.704188
H391	H	1.469088	0.243015	-0.454188
H392	H	1.719088	0.493015	-0.204188
H393	H	0.539024	-0.257097	-0.238749
H394	H	0.789024	-0.007097	0.011251
H395	H	1.039024	0.242903	0.261251
H396	H	1.289024	0.492903	0.511251
F397	F	0.807324	-0.431705	-0.683569
F398	F	1.057324	-0.181705	-0.433569
F399	F	1.307324	0.068295	-0.183569
F400	F	1.557324	0.318295	0.066431
H401	H	0.969085	-0.256934	-1.072893
H402	H	1.219085	-0.006934	-0.822893
H403	H	1.469085	0.243066	-0.572893
H404	H	1.719085	0.493066	-0.322893
H405	H	0.817761	-0.420292	-1.078627
H406	H	1.067761	-0.170292	-0.828627
H407	H	1.317761	0.079708	-0.578627
H408	H	1.567761	0.329708	-0.328627
H409	H	0.533203	-0.420671	-0.389719
H410	H	0.783203	-0.170671	-0.139719
H411	H	1.033203	0.079329	0.110281
H412	H	1.283203	0.329329	0.360281
F413	F	0.460894	-0.350526	-0.431189
F414	F	0.710894	-0.100526	-0.181189
F415	F	0.960894	0.149474	0.068811
F416	F	1.210894	0.399474	0.318811
F417	F	0.659688	-0.431977	-0.400074
F418	F	0.909688	-0.181977	-0.150074
F419	F	1.159688	0.068023	0.099926
F420	F	1.409688	0.318023	0.349926
