data_functionalizedCrystal
_audit_creation_method	'MofGen! by Chris Wilmer'
_symmetry_space_group_name_H-M	'P1'
_symmetry_Int_Tables_number	1
_symmetry_cell_setting	triclinic
loop_
_symmetry_equiv_pos_as_xyz
  x,y,z
_cell_length_a	9.065218
_cell_length_b	11.792241
_cell_length_c	7.540329
_cell_angle_alpha	89.996256
_cell_angle_beta	89.996962
_cell_angle_gamma	84.604650
loop_
_atom_site_label
_atom_site_type_symbol
_atom_site_fract_x
_atom_site_fract_y
_atom_site_fract_z
O1	O	1.958839	0.166430	-0.147488
O2	O	2.292172	0.499763	0.185845
O3	O	2.625505	0.833097	0.519179
O4	O	1.529426	0.180081	-0.147491
O5	O	1.862759	0.513415	0.185843
O6	O	2.196093	0.846748	0.519176
O7	O	1.754553	0.008143	-0.147477
O8	O	2.087886	0.341476	0.185857
O9	O	2.421220	0.674810	0.519190
O10	O	1.733712	0.338368	-0.147502
O11	O	2.067045	0.671702	0.185832
O12	O	2.400378	1.005035	0.519165
O13	O	1.754539	0.008141	0.147488
O14	O	2.087873	0.341474	0.480822
O15	O	2.421206	0.674807	0.814155
O16	O	1.529412	0.180079	0.147474
O17	O	1.862746	0.513412	0.480808
O18	O	2.196079	0.846746	0.814141
O19	O	1.958825	0.166428	0.147477
O20	O	2.292159	0.499761	0.480810
O21	O	2.625492	0.833094	0.814144
Cu22	Cu	1.744118	0.173253	0.174408
Cu23	Cu	2.077451	0.506586	0.507742
Cu24	Cu	2.410784	0.839920	0.841075
Cu25	Cu	1.744134	0.173256	-0.174422
Cu26	Cu	2.077467	0.506589	0.158911
Cu27	Cu	2.410800	0.839922	0.492245
O28	O	1.733698	0.338366	0.147463
O29	O	2.067032	0.671699	0.480797
O30	O	2.400365	1.005033	0.814130
C31	C	1.474445	0.178768	-0.000008
C32	C	1.807778	0.512102	0.333325
C33	C	2.141112	0.845435	0.666658
C34	C	1.310639	0.174845	-0.000009
C35	C	1.643972	0.508179	0.333324
C36	C	1.977305	0.841512	0.666658
C37	C	1.753237	-0.034156	0.000005
C38	C	2.086570	0.299177	0.333338
C39	C	2.419904	0.632510	0.666672
C40	C	1.749319	-0.160192	0.000003
C41	C	2.082652	0.173141	0.333337
C42	C	2.415985	0.506475	0.666670
C43	C	1.742113	-0.390944	-0.000026
C44	C	2.075447	-0.057611	0.333307
C45	C	2.408780	0.275723	0.666640
C46	C	1.746117	-0.262537	-0.000010
C47	C	2.079450	0.070797	0.333323
C48	C	2.412783	0.404130	0.666657
C49	C	2.013806	0.167741	-0.000009
C50	C	2.347140	0.501074	0.333324
C51	C	2.680473	0.834407	0.666658
C52	C	2.177612	0.171664	-0.000020
C53	C	2.510946	0.504997	0.333313
C54	C	2.844279	0.838330	0.666647
C55	C	1.735014	0.380665	-0.000023
C56	C	2.068347	0.713999	0.333311
C57	C	2.401681	1.047332	0.666644
C58	C	1.738933	0.506701	-0.000032
C59	C	2.072266	0.840034	0.333301
C60	C	2.405599	1.173367	0.666634
N61	N	1.744117	0.173251	0.419757
N62	N	2.077450	0.506584	0.753090
N63	N	2.410784	0.839917	1.086424
N64	N	1.744146	0.173249	-0.419770
N65	N	2.077479	0.506583	-0.086437
N66	N	2.410812	0.839916	0.246896
