data_functionalizedCrystal
_audit_creation_method	'MofGen! by Chris Wilmer'
_symmetry_space_group_name_H-M	'P1'
_symmetry_Int_Tables_number	1
_symmetry_cell_setting	triclinic
loop_
_symmetry_equiv_pos_as_xyz
  x,y,z
_cell_length_a	19.077399
_cell_length_b	19.077068
_cell_length_c	19.077237
_cell_angle_alpha	94.655611
_cell_angle_beta	89.890016
_cell_angle_gamma	94.530727
loop_
_atom_site_label
_atom_site_type_symbol
_atom_site_fract_x
_atom_site_fract_y
_atom_site_fract_z
Zn1	Zn	1.080466	-0.251454	-0.364727
Zn2	Zn	1.071294	-0.364995	-0.251954
Zn3	Zn	0.958236	-0.251857	-0.251961
Zn4	Zn	0.958183	-0.374421	-0.374522
O5	O	1.017045	-0.310682	-0.310791
O6	O	1.177740	-0.262402	-0.345665
O7	O	1.052481	-0.346212	-0.153467
O8	O	0.978311	-0.152993	-0.262824
O9	O	1.171002	-0.345820	-0.262812
O10	O	1.068112	-0.152697	-0.345672
O11	O	0.969417	-0.263090	-0.153473
O12	O	0.859738	-0.272229	-0.272322
O13	O	0.978221	-0.361885	-0.471711
O14	O	0.859700	-0.362276	-0.362366
O15	O	1.068061	-0.271542	-0.464514
O16	O	1.052429	-0.465056	-0.272310
O17	O	0.969327	-0.471981	-0.362360
C18	C	0.834181	-0.318320	-0.318408
C19	C	0.755952	-0.321605	-0.321684
C20	C	0.719204	-0.276201	-0.276413
C21	C	0.645699	-0.279293	-0.279491
C22	C	0.608942	-0.327788	-0.327844
C23	C	0.645695	-0.373197	-0.373118
C24	C	0.719199	-0.370107	-0.370036
C25	C	0.389109	-0.342067	-0.342078
C26	C	0.315600	-0.345152	-0.345158
C27	C	0.315609	-0.251249	-0.251530
C28	C	0.389114	-0.248160	-0.248455
C29	C	0.425860	-0.293572	-0.293726
N30	N	0.533808	-0.330949	-0.330993
N31	N	0.500993	-0.290414	-0.290573
C32	C	1.009897	-0.494139	-0.318411
C33	C	1.006905	-0.572621	-0.321692
C34	C	1.048802	-0.605863	-0.276385
C35	C	1.045992	-0.679606	-0.279475
C36	C	1.001280	-0.720105	-0.327869
C37	C	0.959381	-0.686858	-0.373181
C38	C	0.962195	-0.613116	-0.370094
C39	C	0.988222	-0.941036	-0.342127
C40	C	0.985409	-1.014782	-0.345209
C41	C	1.072021	-1.007525	-0.251504
C42	C	1.074829	-0.933783	-0.248419
C43	C	1.032933	-0.900542	-0.293733
N44	N	0.998405	-0.795481	-0.331026
N45	N	1.035812	-0.825167	-0.290578
C46	C	1.200622	-0.303015	-0.303145
C47	C	1.278852	-0.299747	-0.299887
C48	C	1.024158	-0.317720	-0.494363
C49	C	1.027189	-0.320719	-0.572591
C50	C	1.024240	-0.126508	-0.303156
C51	C	1.027307	-0.048024	-0.299902
C52	C	1.048931	-0.342281	-1.012928
C53	C	1.046073	-0.339459	-0.939425
C54	C	1.001402	-0.294767	-0.902684
C55	C	0.959581	-0.252900	-0.939450
C56	C	0.962436	-0.255726	-1.012951
C57	C	0.988223	-0.281678	-0.682858
C58	C	0.985373	-0.278853	-0.609351
C59	C	1.071864	-0.365413	-0.609332
C60	C	1.074719	-0.368232	-0.682835
C61	C	1.032895	-0.326368	-0.719595
N62	N	0.998481	-0.291880	-0.827552
N63	N	1.035813	-0.329259	-0.794725
C64	C	1.010002	-0.303619	-0.127930
C65	C	1.007115	-0.300415	-0.049688
H66	H	0.615782	-0.242324	-0.242622
H67	H	0.419036	-0.208676	-0.209076
O68	O	0.754874	-0.414141	-0.414113
C69	C	0.780664	-0.452275	-0.534261
C70	C	0.740238	-0.402353	-0.484424
H71	H	0.768834	-0.442773	-0.591118
H72	H	0.839523	-0.441738	-0.523812
H73	H	0.763524	-0.509316	-0.524741
H74	H	0.757319	-0.345295	-0.493915
H75	H	0.681387	-0.412952	-0.494884
O76	O	1.092295	-0.566631	-0.229352
C77	C	1.177873	-0.567225	-0.136707
C78	C	1.128659	-0.611737	-0.189950
H79	H	1.207276	-0.603675	-0.104826
H80	H	1.217268	-0.532373	-0.166034
H81	H	1.145468	-0.532667	-0.099811
H82	H	1.161006	-0.646336	-0.226860
H83	H	1.089263	-0.646543	-0.160578
O84	O	1.092423	-0.385653	-1.048532
C85	C	1.211680	-0.415774	-1.067466
C86	C	1.162505	-0.366614	-1.027088
H87	H	1.268353	-0.400391	-1.050155
H88	H	1.196587	-0.472679	-1.055868
H89	H	1.206504	-0.410618	-1.126313
H90	H	1.167655	-0.371709	-0.968230
H91	H	1.177612	-0.309730	-1.038745
H92	H	0.928079	-0.586052	-0.406988
O93	O	0.941933	-0.235538	-0.573585
C94	C	0.844041	-0.226828	-0.494193
C95	C	0.893192	-0.275958	-0.534648
H96	H	0.804612	-0.259490	-0.462714
H97	H	0.876424	-0.187247	-0.456862
H98	H	0.814669	-0.197374	-0.533099
H99	H	0.922575	-0.305460	-0.495794
H100	H	0.860771	-0.315495	-0.571989
H101	H	1.111094	-0.404625	-0.712745
H102	H	0.928385	-0.221634	-1.042881
O103	O	0.947446	-0.908865	-0.386164
C104	C	0.861254	-0.923852	-0.479443
C105	C	0.907391	-0.960379	-0.429604
H106	H	0.828869	-0.965484	-0.514587
H107	H	0.824496	-0.889697	-0.447220
H108	H	0.896285	-0.889323	-0.513453
H109	H	0.872415	-0.994943	-0.395583
H110	H	0.944153	-0.994491	-0.461869
O111	O	0.279802	-0.207216	-0.207581
C112	C	0.166572	-0.170334	-0.170853
C113	C	0.207033	-0.220251	-0.220660
H114	H	0.107731	-0.180844	-0.181420
H115	H	0.178281	-0.179868	-0.113976
H116	H	0.183759	-0.113291	-0.180322
H117	H	0.189868	-0.277312	-0.211254
H118	H	0.195322	-0.210655	-0.277520
O119	O	0.916029	-0.726166	-0.420288
C120	C	0.885519	-0.754698	-0.542346
C121	C	0.934676	-0.710153	-0.489075
H122	H	0.900568	-0.741757	-0.597971
H123	H	0.890708	-0.813124	-0.536830
H124	H	0.828850	-0.742156	-0.531665
H125	H	0.991365	-0.722634	-0.499722
H126	H	0.929427	-0.651740	-0.494603
H127	H	0.954166	-0.247590	-0.712779
O128	O	0.279816	-0.392299	-0.392041
C129	C	0.193522	-0.491516	-0.408798
C130	C	0.233982	-0.438161	-0.355629
H131	H	0.156466	-0.528619	-0.379379
H132	H	0.161759	-0.462054	-0.445746
H133	H	0.232432	-0.523406	-0.440635
H134	H	0.195121	-0.406257	-0.323744
H135	H	0.265756	-0.467665	-0.318728
O136	O	1.086593	-0.380204	-0.903695
C137	C	1.089121	-0.471928	-0.824231
C138	C	1.043147	-0.425838	-0.864667
H139	H	1.054015	-0.508824	-0.792656
H140	H	1.121526	-0.504401	-0.863091
H141	H	1.125869	-0.436637	-0.786972
H142	H	1.006359	-0.461076	-0.901927
H143	H	1.010791	-0.393360	-0.825768
O144	O	0.754795	-0.229074	-0.229376
C145	C	0.747039	-0.136242	-0.136856
C146	C	0.706647	-0.189588	-0.190084
H147	H	0.708130	-0.104293	-0.105084
H148	H	0.778737	-0.165712	-0.099857
H149	H	0.784166	-0.099193	-0.166261
H150	H	0.669484	-0.226651	-0.160737
H151	H	0.674996	-0.160072	-0.227081
O152	O	0.424690	-0.386205	-0.386127
C153	C	0.416916	-0.479697	-0.479291
C154	C	0.376529	-0.429738	-0.429456
H155	H	0.377994	-0.514917	-0.514325
H156	H	0.454005	-0.447342	-0.513408
H157	H	0.448652	-0.513851	-0.446995
H158	H	0.344753	-0.395573	-0.461697
H159	H	0.339482	-0.462135	-0.395337
O160	O	0.609964	-0.420206	-0.420161
C161	C	0.530274	-0.436974	-0.519018
C162	C	0.570712	-0.383663	-0.465792
H163	H	0.498516	-0.407451	-0.555914
H164	H	0.569134	-0.468890	-0.550900
H165	H	0.493195	-0.474061	-0.489605
H166	H	0.607791	-0.346531	-0.495148
H167	H	0.531812	-0.351799	-0.433911
O168	O	1.112446	-0.406186	-0.573705
C169	C	1.140996	-0.524013	-0.554728
C170	C	1.095005	-0.477915	-0.595135
H171	H	1.126901	-0.582015	-0.572028
H172	H	1.198805	-0.509865	-0.566312
H173	H	1.131295	-0.514282	-0.495885
H174	H	1.104645	-0.487621	-0.653989
H175	H	1.037211	-0.492072	-0.583493
O176	O	0.916248	-0.209502	-0.903651
C177	C	0.873489	-0.166813	-0.790431
C178	C	0.922605	-0.215983	-0.830882
H179	H	0.878602	-0.172047	-0.731591
H180	H	0.888638	-0.109900	-0.801961
H181	H	0.816823	-0.182129	-0.807805
H182	H	0.979287	-0.200730	-0.813532
H183	H	0.907397	-0.272884	-0.819350
O184	O	1.086865	-0.711874	-0.235607
C185	C	1.178512	-0.790578	-0.225899
C186	C	1.132211	-0.754103	-0.275630
H187	H	1.215174	-0.824740	-0.258238
H188	H	1.210999	-0.748937	-0.190857
H189	H	1.143597	-0.825098	-0.191780
H190	H	1.167072	-0.719586	-0.309794
H191	H	1.099717	-0.795781	-0.310625
H192	H	1.111237	-0.900810	-0.209013
H193	H	0.949009	-1.047755	-0.384629
H194	H	1.106132	-1.034598	-0.214613
