data_functionalizedCrystal
_audit_creation_method	'MofGen! by Chris Wilmer'
_symmetry_space_group_name_H-M	'P1'
_symmetry_Int_Tables_number	1
_symmetry_cell_setting	triclinic
loop_
_symmetry_equiv_pos_as_xyz
  x,y,z
_cell_length_a	19.805407
_cell_length_b	19.805404
_cell_length_c	19.805399
_cell_angle_alpha	90.025147
_cell_angle_beta	90.021725
_cell_angle_gamma	90.031990
loop_
_atom_site_label
_atom_site_type_symbol
_atom_site_fract_x
_atom_site_fract_y
_atom_site_fract_z
Zn1	Zn	-1.034715	0.269457	-0.382770
Zn2	Zn	-0.534715	0.769457	0.117230
Zn3	Zn	-1.034621	0.382645	-0.269587
Zn4	Zn	-0.534621	0.882645	0.230413
Zn5	Zn	-0.921530	0.269478	-0.269590
Zn6	Zn	-0.421530	0.769478	0.230410
Zn7	Zn	-0.921485	0.382612	-0.382729
Zn8	Zn	-0.421485	0.882612	0.117271
O9	O	-0.978088	0.326048	-0.326169
O10	O	-0.478088	0.826048	0.173831
O11	O	-1.129419	0.284477	-0.367771
O12	O	-0.629419	0.784477	0.132229
O13	O	-1.019599	0.367656	-0.174870
O14	O	-0.519599	0.867656	0.325130
O15	O	-0.936602	0.174758	-0.284623
O16	O	-0.436602	0.674758	0.215377
O17	O	-1.129350	0.367636	-0.284616
O18	O	-0.629350	0.867636	0.215384
O19	O	-1.019759	0.174743	-0.367775
O20	O	-0.519759	0.674743	0.132225
O21	O	-0.936511	0.284513	-0.174873
O22	O	-0.436511	0.784513	0.325127
O23	O	-0.826807	0.284480	-0.284583
O24	O	-0.326807	0.784480	0.215417
O25	O	-0.936525	0.367578	-0.477451
O26	O	-0.436525	0.867578	0.022549
O27	O	-0.826774	0.367599	-0.367705
O28	O	-0.326774	0.867599	0.132295
O29	O	-1.019715	0.284444	-0.477481
O30	O	-0.519715	0.784444	0.022519
O31	O	-1.019556	0.477357	-0.284576
O32	O	-0.519556	0.977357	0.215424
O33	O	-0.936435	0.477333	-0.367702
O34	O	-0.436435	0.977333	0.132298
C35	C	-0.802232	0.326039	-0.326140
C36	C	-0.302232	0.826039	0.173860
C37	C	-0.727000	0.326051	-0.326144
C38	C	-0.227000	0.826051	0.173856
C39	C	-0.265248	0.282819	-0.369544
C40	C	0.234752	0.782819	0.130456
C41	C	-0.335937	0.282821	-0.369541
C42	C	0.164063	0.782821	0.130459
C43	C	-0.371238	0.326050	-0.326177
C44	C	0.128762	0.826050	0.173823
C45	C	-0.335848	0.369285	-0.282818
C46	C	0.164152	0.869285	0.217182
C47	C	-0.265160	0.369286	-0.282825
C48	C	0.234840	0.869286	0.217175
C49	C	-0.620921	0.369284	-0.282789
C50	C	-0.120921	0.869284	0.217211
C51	C	-0.691613	0.369278	-0.282784
C52	C	-0.191613	0.869278	0.217216
C53	C	-0.691697	0.282819	-0.369504
C54	C	-0.191697	0.782819	0.130496
C55	C	-0.621010	0.282819	-0.369512
C56	C	-0.121010	0.782819	0.130488
C57	C	-0.585625	0.326057	-0.326156
C58	C	-0.085625	0.826057	0.173844
C59	C	-0.508977	0.326055	-0.326161
C60	C	-0.008977	0.826055	0.173839
C61	C	-0.447885	0.326049	-0.326168
C62	C	0.052115	0.826049	0.173832
C63	C	-0.977998	0.501904	-0.326149
C64	C	-0.477998	1.001904	0.173851
C65	C	-0.978022	0.577136	-0.326163
C66	C	-0.478022	1.077136	0.173837
C67	C	-0.154631	0.326054	-0.326192
C68	C	0.345369	0.826054	0.173808
C69	C	-0.229863	0.326049	-0.326187
C70	C	0.270137	0.826049	0.173813
C71	C	-1.021521	1.038917	-0.283005
C72	C	-0.521521	1.538917	0.216995
C73	C	-1.021490	0.968229	-0.282989
C74	C	-0.521490	1.468229	0.217011
C75	C	-0.978164	0.932897	-0.326226
C76	C	-0.478164	1.432897	0.173774
C77	C	-0.934861	0.968258	-0.369476
C78	C	-0.434861	1.468258	0.130524
C79	C	-0.934888	1.038945	-0.369487
C80	C	-0.434888	1.538945	0.130513
C81	C	-0.934749	0.683185	-0.369429
C82	C	-0.434749	1.183185	0.130571
C83	C	-0.934726	0.612493	-0.369415
C84	C	-0.434726	1.112493	0.130585
C85	C	-1.021351	0.612468	-0.282931
C86	C	-0.521351	1.112468	0.217069
C87	C	-1.021378	0.683155	-0.282942
C88	C	-0.521378	1.183155	0.217058
C89	C	-0.978073	0.718510	-0.326189
C90	C	-0.478073	1.218510	0.173811
C91	C	-0.978105	0.795159	-0.326205
C92	C	-0.478105	1.295159	0.173795
C93	C	-0.978135	0.856250	-0.326214
C94	C	-0.478135	1.356250	0.173786
C95	C	-0.978126	0.326005	-0.502712
C96	C	-0.478126	0.826005	-0.002712
C97	C	-0.978142	0.325987	-0.577944
C98	C	-0.478142	0.825987	-0.077944
C99	C	-0.978191	1.149505	-0.326212
C100	C	-0.478191	1.649505	0.173788
C101	C	-0.978222	1.074273	-0.326253
C102	C	-0.478222	1.574273	0.173747
C103	C	-1.021460	0.282697	-0.613305
C104	C	-0.521460	0.782697	-0.113305
C105	C	-1.021467	0.282677	-0.683993
C106	C	-0.521467	0.782677	-0.183993
C107	C	-0.978159	0.325952	-0.719319
C108	C	-0.478159	0.825952	-0.219319
C109	C	-0.934836	0.369244	-0.683954
C110	C	-0.434836	0.869244	-0.183954
C111	C	-0.934826	0.369259	-0.613266
C112	C	-0.434826	0.869259	-0.113266
C113	C	-0.934874	0.369181	-0.969027
C114	C	-0.434874	0.869181	-0.469027
C115	C	-0.934889	0.369163	-1.039719
C116	C	-0.434889	0.869163	-0.539719
C117	C	-1.021515	0.282598	-1.039754
C118	C	-0.521515	0.782598	-0.539754
C119	C	-1.021505	0.282614	-0.969067
C120	C	-0.521505	0.782614	-0.469067
C121	C	-0.978180	0.325903	-0.933707
C122	C	-0.478180	0.825903	-0.433707
C123	C	-0.978172	0.325923	-0.857058
C124	C	-0.478172	0.825923	-0.357058
C125	C	-0.978170	0.325936	-0.795967
C126	C	-0.478170	0.825936	-0.295967
C127	C	-0.978089	0.326041	-0.150313
C128	C	-0.478089	0.826041	0.349687
C129	C	-0.978204	0.325869	-0.075081
C130	C	-0.478204	0.825869	0.424919
H131	H	-0.364744	0.247621	-0.404848
H132	H	0.135256	0.747621	0.095152
C133	C	-0.887795	1.077370	-0.416332
C134	C	-0.387795	1.577370	0.083668
C135	C	-0.844440	1.118001	-0.377971
C136	C	-0.344440	1.618001	0.122029
C137	C	-0.801039	1.153399	-0.421099
C138	C	-0.301039	1.653399	0.078901
H139	H	-0.913600	1.104959	-0.445867
H140	H	-0.413600	1.604959	0.054133
H141	H	-0.861949	1.046226	-0.442070
H142	H	-0.361949	1.546226	0.057930
H143	H	-0.870283	1.149141	-0.352245
H144	H	-0.370283	1.649141	0.147755
H145	H	-0.818620	1.090429	-0.348438
H146	H	-0.318620	1.590429	0.151562
H147	H	-0.775193	1.122255	-0.446837
H148	H	-0.275193	1.622255	0.053163
H149	H	-0.826849	1.180984	-0.450632
H150	H	-0.326849	1.680984	0.049368
H151	H	-0.771613	1.180967	-0.395077
H152	H	-0.271613	1.680967	0.104923
C153	C	-0.887893	0.929779	-0.416393
C154	C	-0.387893	1.429779	0.083607
C155	C	-0.897150	0.860306	-0.407142
C156	C	-0.397150	1.360306	0.092858
C157	C	-0.853902	0.824840	-0.450360
C158	C	-0.353902	1.324840	0.049640
H159	H	-0.842399	0.941329	-0.406488
H160	H	-0.342399	1.441329	0.093512
H161	H	-0.897783	0.941289	-0.461897
H162	H	-0.397783	1.441289	0.038103
H163	H	-0.887255	0.848801	-0.361649
H164	H	-0.387255	1.348801	0.138351
H165	H	-0.942635	0.848736	-0.417052
H166	H	-0.442635	1.348736	0.082948
H167	H	-0.863792	0.836350	-0.495863
H168	H	-0.363792	1.336350	0.004137
H169	H	-0.808410	0.836396	-0.440451
H170	H	-0.308410	1.336396	0.059549
H171	H	-0.860181	0.777699	-0.444093
H172	H	-0.360181	1.277699	0.055907
C173	C	-1.068507	0.235637	-0.575076
C174	C	-0.568507	0.735637	-0.075076
C175	C	-1.106431	0.197708	-0.621177
C176	C	-0.606431	0.697708	-0.121177
C177	C	-1.149771	0.154341	-0.585988
C178	C	-0.649771	0.654341	-0.085988
H179	H	-1.098040	0.261460	-0.547499
H180	H	-0.598040	0.761460	-0.047499
H181	H	-1.042644	0.206114	-0.547516
H182	H	-0.542644	0.706114	-0.047516
H183	H	-1.132292	0.227228	-0.648725
H184	H	-0.632292	0.727228	-0.148725
H185	H	-1.076916	0.171872	-0.648755
H186	H	-0.576916	0.671872	-0.148755
H187	H	-1.123908	0.124818	-0.558427
H188	H	-0.623908	0.624818	-0.058427
H189	H	-1.179299	0.180169	-0.558412
H190	H	-0.679299	0.680169	-0.058412
H191	H	-1.175503	0.128597	-0.617262
H192	H	-0.675503	0.628597	-0.117262
C193	C	-1.068383	0.235584	-0.722415
C194	C	-0.568383	0.735584	-0.222415
C195	C	-1.030087	0.192174	-0.762975
C196	C	-0.530087	0.692174	-0.262975
C197	C	-1.073282	0.148770	-0.798368
C198	C	-0.573282	0.648770	-0.298368
H199	H	-1.097879	0.261384	-0.750052
H200	H	-0.597879	0.761384	-0.250052
H201	H	-1.094160	0.209778	-0.691268
H202	H	-0.594160	0.709778	-0.191268
H203	H	-1.004322	0.217978	-0.794118
H204	H	-0.504322	0.717978	-0.294118
H205	H	-1.000594	0.166359	-0.735355
H206	H	-0.500594	0.666359	-0.235355
H207	H	-1.099059	0.122964	-0.767222
H208	H	-0.599059	0.622964	-0.267222
H209	H	-1.102776	0.174576	-0.826001
H210	H	-0.602776	0.674576	-0.326001
H211	H	-1.047305	0.119307	-0.825887
H212	H	-0.547305	0.619307	-0.325887
H213	H	-0.592271	0.247615	-0.404820
H214	H	-0.092271	0.747615	0.095180
C215	C	-0.887759	0.416065	-0.930599
C216	C	-0.387759	0.916065	-0.430599
C217	C	-0.844385	0.377740	-0.890032
C218	C	-0.344385	0.877740	-0.390032
C219	C	-0.800966	0.420907	-0.854622
C220	C	-0.300966	0.920907	-0.354622
H221	H	-0.913549	0.445575	-0.902965
H222	H	-0.413549	0.945575	-0.402965
H223	H	-0.861927	0.441828	-0.961735
H224	H	-0.361927	0.941828	-0.461735
H225	H	-0.870215	0.351989	-0.858898
H226	H	-0.370215	0.851989	-0.358898
H227	H	-0.818580	0.348232	-0.917648
H228	H	-0.318580	0.848232	-0.417648
H229	H	-0.775134	0.446669	-0.885759
H230	H	-0.275134	0.946669	-0.385759
H231	H	-0.826762	0.450415	-0.826992
H232	H	-0.326762	0.950415	-0.326992
H233	H	-0.771528	0.394910	-0.827098
H234	H	-0.271528	0.894910	-0.327098
C235	C	-1.068475	0.235615	-1.078268
C236	C	-0.568475	0.735615	-0.578268
C237	C	-1.059203	0.244845	-1.147734
C238	C	-0.559203	0.744845	-0.647734
C239	C	-1.102443	0.201572	-1.183231
C240	C	-0.602443	0.701572	-0.683231
H241	H	-1.113972	0.245484	-1.066774
H242	H	-0.613972	0.745484	-0.566774
H243	H	-1.058589	0.190126	-1.066726
H244	H	-0.558589	0.690126	-0.566726
H245	H	-1.069093	0.290324	-1.159271
H246	H	-0.569093	0.790324	-0.659271
H247	H	-1.013715	0.234971	-1.159247
H248	H	-0.513715	0.734971	-0.659247
H249	H	-1.092558	0.156083	-1.171690
H250	H	-0.592558	0.656083	-0.671690
H251	H	-1.147938	0.211445	-1.171733
H252	H	-0.647938	0.711445	-0.671733
H253	H	-1.096154	0.207824	-1.230368
H254	H	-0.596154	0.707824	-0.730368
H255	H	-0.899481	0.711962	-0.404638
H256	H	-0.399481	1.211962	0.095362
C257	C	-0.729977	0.416108	-0.235621
C258	C	-0.229977	0.916108	0.264379
C259	C	-0.770545	0.377729	-0.192286
C260	C	-0.270545	0.877729	0.307714
C261	C	-0.805889	0.420841	-0.148828
C262	C	-0.305889	0.920841	0.351172
H263	H	-0.757606	0.445641	-0.261384
H264	H	-0.257606	0.945641	0.238616
H265	H	-0.698802	0.441849	-0.209762
H266	H	-0.198802	0.941849	0.290238
H267	H	-0.801717	0.352000	-0.218142
H268	H	-0.301717	0.852000	0.281858
H269	H	-0.742934	0.348198	-0.166508
H270	H	-0.242934	0.848198	0.333492
H271	H	-0.774713	0.446582	-0.122969
H272	H	-0.274713	0.946582	0.377031
H273	H	-0.833513	0.450372	-0.174597
H274	H	-0.333513	0.950372	0.325403
H275	H	-0.833413	0.394807	-0.119416
H276	H	-0.333413	0.894807	0.380584
H277	H	-0.899545	0.404504	-0.584476
H278	H	-0.399545	0.904504	-0.084476
H279	H	-1.056661	0.711919	-0.247737
H280	H	-0.556661	1.211919	0.252263
C281	C	-1.068468	0.929932	-0.235927
C282	C	-0.568468	1.429932	0.264073
C283	C	-1.053796	0.947198	-0.168947
C284	C	-0.553796	1.447198	0.331053
C285	C	-1.097067	0.911940	-0.125573
C286	C	-0.597067	1.411940	0.374427
H287	H	-1.062292	0.882762	-0.242015
H288	H	-0.562292	1.382762	0.257985
H289	H	-1.113953	0.941484	-0.245846
H290	H	-0.613953	1.441484	0.254154
H291	H	-1.008322	0.935641	-0.159032
H292	H	-0.508322	1.435641	0.340968
H293	H	-1.059976	0.994361	-0.162838
H294	H	-0.559976	1.494361	0.337162
H295	H	-1.142552	0.923493	-0.135492
H296	H	-0.642552	1.423493	0.364508
H297	H	-1.090887	0.864773	-0.131667
H298	H	-0.590887	1.364773	0.368333
H299	H	-1.087122	0.923655	-0.080123
H300	H	-0.587122	1.423655	0.419877
H301	H	-0.899571	0.404476	-0.712722
H302	H	-0.399571	0.904476	-0.212722
H303	H	-1.056773	0.247378	-0.940307
H304	H	-0.556773	0.747378	-0.440307
C305	C	-0.887901	0.416257	-1.077987
C306	C	-0.387901	0.916257	-0.577987
C307	C	-0.902576	0.483231	-1.060767
C308	C	-0.402576	0.983231	-0.560767
C309	C	-0.859302	0.526630	-1.095998
C310	C	-0.359302	1.026630	-0.595998
H311	H	-0.894071	0.410141	-1.125160
H312	H	-0.394071	0.910141	-0.625160
H313	H	-0.842417	0.406387	-1.066382
H314	H	-0.342417	0.906387	-0.566382
H315	H	-0.948049	0.493097	-1.072377
H316	H	-0.448049	0.993097	-0.572377
H317	H	-0.896402	0.489368	-1.013600
H318	H	-0.396402	0.989368	-0.513600
H319	H	-0.813818	0.516760	-1.084393
H320	H	-0.313818	1.016760	-0.584393
H321	H	-0.865476	0.520508	-1.143170
H322	H	-0.365476	1.020508	-0.643170
H323	H	-0.869250	0.572076	-1.084315
H324	H	-0.369250	1.072076	-0.584315
H325	H	-0.236511	0.247612	-0.404852
H326	H	0.263489	0.747612	0.095148
H327	H	-0.236350	0.404490	-0.247521
H328	H	0.263650	0.904490	0.252479
C329	C	-0.730030	0.235920	-0.416695
C330	C	-0.230030	0.735920	0.083305
C331	C	-0.712842	0.250733	-0.483638
C332	C	-0.212842	0.750733	0.016362
C333	C	-0.748132	0.207539	-0.527125
C334	C	-0.248132	0.707539	-0.027125
H335	H	-0.777195	0.242068	-0.410576
H336	H	-0.277195	0.742068	0.089424
H337	H	-0.718452	0.190419	-0.406909
H338	H	-0.218452	0.690419	0.093091
H339	H	-0.724424	0.296223	-0.493421
H340	H	-0.224424	0.796223	0.006579
H341	H	-0.665683	0.244581	-0.489777
H342	H	-0.165683	0.744581	0.010223
H343	H	-0.736554	0.162038	-0.517338
H344	H	-0.236554	0.662038	-0.017338
H345	H	-0.795295	0.213690	-0.521000
H346	H	-0.295295	0.713690	-0.021000
H347	H	-0.736470	0.217579	-0.572549
H348	H	-0.236470	0.717579	-0.072549
C349	C	-0.582631	0.416244	-0.235637
C350	C	-0.082631	0.916244	0.264363
C351	C	-0.628679	0.454084	-0.197645
C352	C	-0.128679	0.954084	0.302355
C353	C	-0.593429	0.497345	-0.154192
C354	C	-0.093429	0.997345	0.345808
H355	H	-0.555050	0.445833	-0.261400
H356	H	-0.055050	0.945833	0.238600
H357	H	-0.555071	0.390328	-0.206158
H358	H	-0.055071	0.890328	0.293842
H359	H	-0.656227	0.479999	-0.227121
H360	H	-0.156227	0.979999	0.272879
H361	H	-0.656262	0.424513	-0.171868
H362	H	-0.156262	0.924513	0.328132
H363	H	-0.565869	0.471429	-0.124713
H364	H	-0.065869	0.971429	0.375287
H365	H	-0.565848	0.526929	-0.179961
H366	H	-0.065848	1.026929	0.320039
H367	H	-0.624667	0.523020	-0.128405
H368	H	-0.124667	1.023020	0.371595
C369	C	-0.374295	0.416147	-0.235762
C370	C	0.125705	0.916147	0.264238
C371	C	-0.443774	0.406881	-0.245020
C372	C	0.056226	0.906881	0.254980
C373	C	-0.479210	0.450031	-0.201674
C374	C	0.020790	0.950031	0.298326
H375	H	-0.362773	0.461666	-0.245546
H376	H	0.137227	0.961666	0.254454
H377	H	-0.362731	0.406175	-0.190289
H378	H	0.137269	0.906175	0.309711
H379	H	-0.455333	0.416858	-0.290482
H380	H	0.044667	0.916858	0.209518
H381	H	-0.455315	0.361372	-0.235231
H382	H	0.044685	0.861372	0.264769
H383	H	-0.467647	0.440059	-0.156201
H384	H	0.032353	0.940059	0.343799
H385	H	-0.467683	0.495546	-0.211462
H386	H	0.032317	0.995546	0.288538
H387	H	-0.526355	0.443745	-0.207945
H388	H	-0.026355	0.943745	0.292055
H389	H	-1.056806	1.067679	-0.247800
H390	H	-0.556806	1.567679	0.252200
C391	C	-1.068291	0.573960	-0.235994
C392	C	-0.568291	1.073960	0.264006
C393	C	-1.058983	0.504493	-0.245219
C394	C	-0.558983	1.004493	0.254781
C395	C	-1.102206	0.469000	-0.201990
C396	C	-0.602206	0.969000	0.298010
H397	H	-1.113794	0.585413	-0.245905
H398	H	-0.613794	1.085413	0.254095
H399	H	-1.058412	0.585545	-0.190495
H400	H	-0.558412	1.085545	0.309505
H401	H	-1.068867	0.492912	-0.290708
H402	H	-0.568867	0.992912	0.209292
H403	H	-1.013489	0.493019	-0.235303
H404	H	-0.513489	0.993019	0.264697
H405	H	-1.092326	0.480586	-0.156491
H406	H	-0.592326	0.980586	0.343509
H407	H	-1.147706	0.480459	-0.211905
H408	H	-0.647706	0.980459	0.288095
H409	H	-1.095892	0.421863	-0.208239
H410	H	-0.595892	0.921863	0.291761
C411	C	-0.887607	0.574254	-0.416384
C412	C	-0.387607	1.074254	0.083616
C413	C	-0.849674	0.620344	-0.454248
C414	C	-0.349674	1.120344	0.045752
C415	C	-0.806259	0.585143	-0.497515
C416	C	-0.306259	1.085143	0.002485
H417	H	-0.913395	0.546636	-0.445957
H418	H	-0.413395	1.046636	0.054043
H419	H	-0.858089	0.546734	-0.390471
H420	H	-0.358089	1.046734	0.109529
H421	H	-0.879188	0.647852	-0.480160
H422	H	-0.379188	1.147852	0.019840
H423	H	-0.823872	0.647964	-0.424693
H424	H	-0.323872	1.147964	0.075307
H425	H	-0.776741	0.557624	-0.471601
H426	H	-0.276741	1.057624	0.028399
H427	H	-0.832053	0.557526	-0.527083
H428	H	-0.332053	1.057526	-0.027083
H429	H	-0.780512	0.616410	-0.523206
H430	H	-0.280512	1.116410	-0.023206
