data_functionalizedCrystal
_audit_creation_method	'MofGen! by Chris Wilmer'
_symmetry_space_group_name_H-M	'P1'
_symmetry_Int_Tables_number	1
_symmetry_cell_setting	triclinic
loop_
_symmetry_equiv_pos_as_xyz
  x,y,z
_cell_length_a	10.723024
_cell_length_b	13.596369
_cell_length_c	10.723024
_cell_angle_alpha	90.004647
_cell_angle_beta	95.532131
_cell_angle_gamma	89.994478
loop_
_atom_site_label
_atom_site_type_symbol
_atom_site_fract_x
_atom_site_fract_y
_atom_site_fract_z
O1	O	1.657191	-0.081782	-0.175029
O2	O	2.157191	0.418218	0.324971
O3	O	1.294038	-0.081785	-0.191782
O4	O	1.794038	0.418215	0.308218
O5	O	1.483991	-0.081780	-0.001829
O6	O	1.983991	0.418220	0.498171
O7	O	1.467238	-0.081788	-0.364982
O8	O	1.967238	0.418212	0.135018
O9	O	1.483970	0.081803	-0.001820
O10	O	1.983970	0.581803	0.498180
O11	O	1.294017	0.081797	-0.191773
O12	O	1.794017	0.581797	0.308227
O13	O	1.657170	0.081801	-0.175019
O14	O	2.157170	0.581801	0.324981
Zn15	Zn	1.475590	0.107771	-0.183395
Zn16	Zn	1.975590	0.607771	0.316605
Zn17	Zn	1.475618	-0.107756	-0.183407
Zn18	Zn	1.975618	0.392244	0.316593
O19	O	1.467217	0.081795	-0.364972
O20	O	1.967217	0.581795	0.135028
C21	C	1.247528	0.000006	-0.190558
C22	C	1.747528	0.500006	0.309442
C23	C	1.108974	0.000004	-0.186911
C24	C	1.608974	0.500004	0.313089
N25	N	1.475580	0.254863	-0.183385
N26	N	1.975580	0.754863	0.316615
C27	C	1.033991	0.000002	-0.293198
C28	C	1.533991	0.500002	0.206802
C29	C	0.890788	0.000000	-0.289431
C30	C	1.390788	0.500000	0.210569
C31	C	1.475607	0.656154	-0.183412
C32	C	1.975607	1.156154	0.316588
C33	C	1.475596	0.544503	-0.183409
C34	C	1.975596	1.044503	0.316591
C35	C	1.475594	0.455512	-0.183400
C36	C	1.975594	0.955512	0.316600
C37	C	1.475582	0.343854	-0.183394
C38	C	1.975582	0.843854	0.316606
C39	C	1.703680	0.000007	-0.176243
C40	C	2.203680	0.500007	0.323757
C41	C	1.842234	0.000002	-0.179891
C42	C	2.342234	0.500002	0.320109
C43	C	1.482762	0.000010	0.044675
C44	C	1.982762	0.500010	0.544675
C45	C	1.479114	0.000007	0.183229
C46	C	1.979114	0.500007	0.683229
N47	N	1.475626	0.745152	-0.183411
N48	N	1.975626	1.245152	0.316589
C49	C	1.468447	0.000003	-0.411477
C50	C	1.968447	0.500003	0.088523
C51	C	1.472094	-0.000000	-0.550031
C52	C	1.972094	0.500000	-0.050031
C53	C	1.585401	0.000006	0.258212
C54	C	2.085401	0.500006	0.758212
C55	C	1.581634	0.000003	0.401415
C56	C	2.081634	0.500003	0.901415
H57	H	0.826355	-0.000006	-0.380421
H58	H	1.326355	0.499994	0.119579
H59	H	1.381099	0.000007	0.385544
H60	H	1.881099	0.500007	0.885544
H61	H	1.672624	0.000007	0.465848
H62	H	2.172624	0.500007	0.965848
C63	C	1.354141	-0.000151	0.239150
C64	C	1.854141	0.499849	0.739150
C65	C	1.345661	-0.084301	0.313110
C66	C	1.845661	0.415699	0.813110
C67	C	1.230558	-0.084474	0.364653
C68	C	1.730558	0.415526	0.864653
H69	H	1.287837	-0.000200	0.173668
H70	H	1.787837	0.499800	0.673668
H71	H	1.348130	0.056862	0.289452
H72	H	1.848130	0.556862	0.789452
H73	H	1.351660	-0.141300	0.262811
H74	H	1.851660	0.358700	0.762811
H75	H	1.411939	-0.084270	0.378612
H76	H	1.911939	0.415730	0.878612
H77	H	1.224547	-0.027460	0.414954
H78	H	1.724547	0.472540	0.914954
H79	H	1.164263	-0.084521	0.299163
H80	H	1.664263	0.415479	0.799163
H81	H	1.224794	-0.141564	0.414849
H82	H	1.724794	0.358436	0.914849
H83	H	1.075814	0.000005	-0.386984
H84	H	1.575814	0.500005	0.113016
C85	C	1.053464	0.000055	-0.061724
C86	C	1.553464	0.500055	0.438276
C87	C	1.150393	0.000080	0.035603
C88	C	1.650393	0.500080	0.535603
C89	C	1.099310	0.000139	0.150945
C90	C	1.599310	0.500139	0.650945
H91	H	1.003266	-0.056975	-0.055560
H92	H	1.503266	0.443025	0.444440
H93	H	1.003272	0.057123	-0.055661
H94	H	1.503272	0.557123	0.444339
H95	H	1.200564	-0.056982	0.029543
H96	H	1.700564	0.443018	0.529543
H97	H	1.200599	0.057105	0.029480
H98	H	1.700599	0.557105	0.529480
H99	H	1.049117	0.057207	0.157009
H100	H	1.549117	0.557207	0.657009
H101	H	1.049112	-0.056891	0.157097
H102	H	1.549112	0.443109	0.657097
H103	H	1.165067	0.000166	0.216996
H104	H	1.665067	0.500166	0.716996
H105	H	1.679187	0.000013	0.216390
H106	H	2.179187	0.500013	0.716390
H107	H	0.906659	-0.000002	-0.088896
H108	H	1.406659	0.499998	0.411104
