data_functionalizedCrystal
_audit_creation_method	'MofGen! by Chris Wilmer'
_symmetry_space_group_name_H-M	'P1'
_symmetry_Int_Tables_number	1
_symmetry_cell_setting	triclinic
loop_
_symmetry_equiv_pos_as_xyz
  x,y,z
_cell_length_a	19.902436
_cell_length_b	14.560438
_cell_length_c	14.560438
_cell_angle_alpha	60.003849
_cell_angle_beta	89.995442
_cell_angle_gamma	60.007713
loop_
_atom_site_label
_atom_site_type_symbol
_atom_site_fract_x
_atom_site_fract_y
_atom_site_fract_z
Zr1	Zr	0.647367	1.005232	-0.120480
O2	O	0.540113	1.196788	-0.267082
O3	O	0.680231	0.813665	-0.075558
O4	O	0.680257	1.005238	-0.267133
O5	O	0.540085	1.005215	0.075632
O6	O	0.790822	1.005256	-0.267151
O7	O	0.540087	1.005215	-0.075508
O8	O	0.790776	0.662566	0.075541
O9	O	0.540131	1.347904	-0.267060
O10	O	0.776780	0.892477	-0.056389
O11	O	0.694264	0.892463	0.056418
O12	O	0.694295	1.118016	-0.169137
O13	O	0.611779	1.118003	-0.056329
Zr14	Zr	0.823704	1.005260	0.120542
Zr15	Zr	0.823707	1.005261	-0.120508
Zr16	Zr	0.647364	1.005232	0.120570
Zr17	Zr	0.647397	1.246245	-0.120444
Zr18	Zr	0.823674	0.764248	0.120506
O19	O	0.790840	1.196828	0.075620
O20	O	0.790845	1.196828	-0.267122
O21	O	0.540108	1.196787	0.075660
O22	O	0.930958	0.813705	0.267144
O23	O	0.930963	0.813705	-0.075599
O24	O	0.680226	0.813664	0.267184
O25	O	0.930986	1.005278	-0.075570
O26	O	0.790814	1.005255	0.267195
O27	O	0.680249	1.005237	0.267212
O28	O	0.930984	1.005278	0.075569
O29	O	0.680298	1.347926	-0.267082
O30	O	0.790773	0.662566	0.267144
O31	O	0.930940	0.662589	0.267122
O32	O	0.930942	0.662589	0.075519
O33	O	0.540129	1.347904	-0.075457
O34	O	0.680295	1.347926	-0.075479
O35	O	0.776776	0.892476	0.169198
O36	O	0.859292	0.892490	0.056391
O37	O	0.776807	1.118029	-0.056356
O38	O	0.694291	1.118016	0.056451
C39	C	0.735499	0.703777	-0.000014
C40	C	0.735487	0.601460	-0.000029
C41	C	0.692441	0.553340	0.058890
C42	C	0.692488	0.457128	0.058947
C43	C	0.778631	0.457162	-0.058835
C44	C	0.778580	0.553378	-0.058898
C45	C	0.642710	0.553316	0.126895
C46	C	0.642756	0.457104	0.126951
C47	C	0.514962	1.005211	0.000066
C48	C	0.440101	1.005199	0.000078
C49	C	0.168052	1.005263	0.000015
C50	C	0.248576	0.862988	0.070799
C51	C	0.326479	0.862899	0.071198
C52	C	0.303019	1.005230	0.000046
C53	C	0.248907	1.075886	0.051949
C54	C	0.171345	1.074977	0.052467
C55	C	0.170208	1.077899	-0.122701
C56	C	0.249086	1.075225	-0.122508
C57	C	0.379294	1.005219	0.000063
C58	C	0.091776	1.005278	0.000003
C59	C	0.956110	1.005282	-0.000004
C60	C	1.030970	1.005294	-0.000016
C61	C	0.735540	1.005247	-0.301486
C62	C	0.735541	1.005247	-0.403819
C63	C	0.735572	1.306716	0.000076
C64	C	0.735584	1.409032	0.000091
C65	C	0.796449	1.005262	-0.451912
C66	C	0.796445	1.005257	-0.548061
C67	C	0.674619	1.005226	-0.548017
C68	C	0.674627	1.005222	-0.451865
C69	C	0.866783	1.005286	-0.451942
C70	C	0.866779	1.005280	-0.548091
C71	C	0.735531	1.005246	0.301548
C72	C	0.735530	1.005245	0.403880
C73	C	0.956073	0.703812	-0.000049
C74	C	1.030922	0.601508	-0.000076
C75	C	0.735495	0.703776	0.301504
C76	C	0.735481	0.601460	0.403821
C77	C	0.956069	0.703811	0.301468
C78	C	1.030916	0.601507	0.403773
C79	C	0.515002	1.306681	-0.301406
C80	C	0.440155	1.408985	-0.403711
C81	C	0.514998	1.306680	0.000111
C82	C	0.440150	1.408985	0.000138
C83	C	0.735576	1.306717	-0.301442
C84	C	0.735590	1.409033	-0.403759
C85	C	1.023001	0.553458	-0.058969
C86	C	1.093322	0.457346	-0.059017
C87	C	1.171563	0.409279	-0.000165
C88	C	1.179483	0.457338	0.058730
C89	C	1.109162	0.553455	0.058771
C90	C	1.109144	0.553471	0.392933
C91	C	1.179478	0.457359	0.489050
C92	C	1.171581	0.409278	0.596007
C93	C	1.093344	0.457323	0.606845
C94	C	1.023012	0.553440	0.510729
C95	C	0.361927	1.457033	-0.392871
C96	C	0.291593	1.553175	-0.488988
C97	C	0.299490	1.601261	-0.595945
C98	C	0.377727	1.553210	-0.606783
C99	C	0.448059	1.457076	-0.510667
C100	C	0.448070	1.457044	0.059021
C101	C	0.377749	1.553183	0.059043
C102	C	0.299508	1.601254	0.000187
C103	C	0.291588	1.553190	-0.058704
C104	C	0.361909	1.457059	-0.058731
C105	C	0.778546	0.553393	0.510760
C106	C	0.778527	0.457261	0.606893
C107	C	0.692375	0.457267	0.489135
C108	C	0.692390	0.553404	0.393004
C109	C	0.828288	0.553385	0.578747
C110	C	0.828268	0.457253	0.674881
H111	H	0.576845	0.643275	0.089076
Br112	Br	0.773586	0.517441	0.759783
Br113	Br	0.204031	1.731731	-0.726379
H114	H	0.657313	0.592549	0.305932
H115	H	0.625037	1.005193	-0.412700
H116	H	0.675505	0.517273	0.213909
Br117	Br	0.633896	0.392046	0.474465
H118	H	0.579095	0.493140	0.082137
Br119	Br	0.392134	0.770498	0.013178
Br120	Br	0.204080	1.731718	0.000236
H121	H	0.959299	0.592593	-0.106908
H122	H	0.625024	1.005205	-0.587146
H123	H	1.115590	0.592605	0.305852
H124	H	0.800635	0.643379	0.578783
Br125	Br	0.388431	1.618481	-0.751948
H126	H	1.228816	0.331013	-0.000206
Br127	Br	0.916847	0.618615	0.525462
Br128	Br	0.688881	0.307138	0.277002
Br129	Br	1.082640	0.392057	0.752010
Br130	Br	0.185397	1.618439	-0.138571
Br131	Br	0.934416	0.493197	0.564160
Br132	Br	0.251400	0.769897	0.013076
Br133	Br	0.836981	0.618709	-0.138889
Br134	Br	0.249815	0.770368	0.220774
Br135	Br	0.351187	1.391791	-0.247727
H136	H	0.813715	0.418004	-0.106766
H137	H	0.894116	0.367254	0.727055
H138	H	0.365565	0.806956	0.161731
H139	H	0.113451	1.182709	-0.175688
H140	H	0.922713	0.912031	-0.531302
H141	H	0.384213	1.592301	0.107003
H142	H	0.114322	1.179362	0.004243
H143	H	0.171532	1.024765	0.142771
Br144	Br	0.966892	0.854659	-0.333157
Br145	Br	0.185426	1.618365	-0.474252
H146	H	1.086858	0.418228	-0.106977
Br147	Br	0.215975	1.250319	-0.029843
Br148	Br	1.285645	0.392172	0.474314
Br149	Br	0.846301	1.160727	-0.479936
Br150	Br	0.554224	1.391873	-0.525400
Br151	Br	0.554247	1.391831	0.138903
Br152	Br	0.856694	1.155927	-0.666911
Br153	Br	1.267040	0.278832	0.726441
Br154	Br	0.351144	1.391841	-0.138646
H155	H	0.286354	1.026815	0.141396
Br156	Br	0.165221	1.002009	-0.194962
Br157	Br	1.285674	0.392087	0.138599
Br158	Br	0.311280	0.989352	-0.187134
H159	H	1.115623	0.592565	0.106735
Br160	Br	0.218221	1.248307	-0.217813
