data_functionalizedCrystal
_audit_creation_method	'MofGen! by Chris Wilmer'
_symmetry_space_group_name_H-M	'P1'
_symmetry_Int_Tables_number	1
_symmetry_cell_setting	triclinic
loop_
_symmetry_equiv_pos_as_xyz
  x,y,z
_cell_length_a	19.288864
_cell_length_b	15.995350
_cell_length_c	18.366186
_cell_angle_alpha	89.995992
_cell_angle_beta	89.977106
_cell_angle_gamma	83.314311
loop_
_atom_site_label
_atom_site_type_symbol
_atom_site_fract_x
_atom_site_fract_y
_atom_site_fract_z
O1	O	0.921624	0.104451	-0.060780
O2	O	0.719400	0.118542	-0.060729
O3	O	0.826040	-0.010412	-0.060755
O4	O	0.814984	0.233405	-0.060754
O5	O	0.826022	-0.010418	0.060344
O6	O	0.719382	0.118535	0.060370
O7	O	0.921606	0.104445	0.060320
Zn8	Zn	0.820491	0.111489	0.079572
Zn9	Zn	0.820515	0.111498	-0.079982
O10	O	0.814966	0.233399	0.060346
C11	C	0.693513	0.118085	-0.000173
C12	C	0.616406	0.116724	-0.000154
C13	C	0.571906	0.192388	-0.000165
C14	C	0.499456	0.191110	-0.000173
C15	C	0.471508	0.114163	-0.000185
C16	C	0.516018	0.038489	-0.000170
C17	C	0.588467	0.039769	-0.000155
C18	C	0.363096	0.053676	-0.042636
C19	C	0.290648	0.052398	-0.042656
C20	C	0.248053	0.110209	-0.000229
C21	C	0.277912	0.169312	0.042208
C22	C	0.350361	0.170593	0.042224
C23	C	0.392951	0.112765	-0.000201
C24	C	0.124993	0.184492	-0.000248
C25	C	0.052542	0.183210	-0.000251
C26	C	0.069106	0.030587	-0.000255
C27	C	0.141556	0.031871	-0.000244
C28	C	0.169495	0.108826	-0.000244
C29	C	0.825574	-0.041608	-0.000207
C30	C	0.824203	-0.134553	-0.000211
C31	C	0.819282	-0.472282	-0.000207
C32	C	0.743335	-0.424562	-0.000460
C33	C	0.744706	-0.327877	-0.000187
C34	C	0.821723	-0.304731	-0.000209
C35	C	0.859173	-0.345953	0.068934
C36	C	0.857265	-0.442582	0.068992
C37	C	0.858854	-0.442939	-0.068721
C38	C	0.858836	-0.345993	-0.069635
C39	C	0.823107	-0.210039	-0.000208
C40	C	0.817901	-0.566975	-0.000203
C41	C	0.947492	0.104902	-0.000238
C42	C	1.024600	0.106263	-0.000262
C43	C	0.815432	0.264595	-0.000204
C44	C	0.816802	0.357540	-0.000206
N45	N	0.820480	0.111483	0.188463
N46	N	0.820531	0.111497	-0.188873
C47	C	0.867715	0.054410	0.226552
C48	C	0.867720	0.054407	0.302780
C49	C	0.820495	0.111490	0.340916
C50	C	0.773250	0.168567	0.302818
C51	C	0.773243	0.168564	0.226591
C52	C	0.811395	0.187781	0.461678
C53	C	0.811407	0.187785	0.537903
C54	C	0.820515	0.111500	0.576023
C55	C	0.829624	0.035208	0.537909
C56	C	0.829617	0.035204	0.461683
C57	C	0.820498	0.111500	0.423571
C58	C	0.867758	0.054419	0.696767
C59	C	0.867757	0.054414	0.772996
C60	C	0.773292	0.168582	0.773033
C61	C	0.773289	0.168579	0.696805
C62	C	0.820525	0.111499	0.658677
H63	H	0.266342	0.004277	-0.077214
H64	H	0.046352	-0.032065	-0.000310
O65	O	0.722340	0.230141	0.655722
H66	H	0.730263	0.220543	0.596310
O67	O	0.703121	-0.448964	-0.066125
H68	H	0.736830	-0.495368	-0.099284
H69	H	0.177789	-0.029743	-0.000239
H70	H	0.734838	0.215057	0.804083
O71	O	0.722325	0.230142	0.343952
H72	H	0.731174	0.295384	0.329302
O73	O	0.703291	-0.450349	0.064877
H74	H	0.737245	-0.497005	0.097530
O75	O	0.409037	-0.008677	-0.088404
H76	H	0.376103	-0.049977	-0.117925
H77	H	0.837032	-0.026916	0.430654
H78	H	0.374670	0.218714	0.076780
O79	O	0.801597	0.270067	0.579011
H80	H	0.795253	0.323112	0.539699
O81	O	0.918677	-0.007148	0.343869
H82	H	0.889453	-0.047762	0.378617
O83	O	0.934120	-0.327517	0.072332
H84	H	0.962327	-0.353280	0.023067
O85	O	0.918677	-0.007178	0.655640
H86	H	0.910736	0.002406	0.596236
H87	H	0.493259	-0.024162	-0.000189
H88	H	0.624700	-0.021848	-0.000146
H89	H	0.915001	-0.330843	-0.073826
H90	H	0.715267	-0.299341	-0.049751
H91	H	0.243232	0.216387	0.076757
H92	H	0.906220	0.007934	0.804009
O93	O	0.839442	-0.047081	0.579011
H94	H	0.837908	-0.034266	0.638419
H95	H	0.463217	0.252727	-0.000180
O96	O	0.705446	-0.290812	0.065605
H97	H	0.685411	-0.341956	0.097354
O98	O	0.821065	-0.466701	0.137469
H99	H	0.805082	-0.409375	0.170229
H100	H	0.831456	-0.318639	-0.120785
H101	H	0.913024	-0.475040	0.072114
O102	O	0.801577	0.270064	0.420564
H103	H	0.795257	0.323114	0.459870
O104	O	0.722299	0.230129	0.185502
H105	H	0.689462	0.269827	0.224823
H106	H	0.147742	0.247153	-0.000237
O107	O	0.602035	0.275390	-0.000145
H108	H	0.584183	0.311746	-0.049500
O109	O	0.004539	0.264823	-0.000261
H110	H	0.036142	0.318546	-0.000264
H111	H	0.833147	-0.317476	0.120403
O112	O	0.825999	-0.470012	-0.138156
H113	H	0.770722	-0.441660	-0.140601
O114	O	0.933025	-0.485291	-0.069370
H115	H	0.941697	-0.527043	-0.021160
H116	H	0.906177	0.007930	0.195510
