data_functionalizedCrystal
_audit_creation_method	'MofGen! by Chris Wilmer'
_symmetry_space_group_name_H-M	'P1'
_symmetry_Int_Tables_number	1
_symmetry_cell_setting	triclinic
loop_
_symmetry_equiv_pos_as_xyz
  x,y,z
_cell_length_a	12.837943
_cell_length_b	12.996460
_cell_length_c	12.837942
_cell_angle_alpha	90.000533
_cell_angle_beta	85.171060
_cell_angle_gamma	90.005470
loop_
_atom_site_label
_atom_site_type_symbol
_atom_site_fract_x
_atom_site_fract_y
_atom_site_fract_z
O1	O	1.402338	0.085548	-0.272134
O2	O	1.902338	0.585548	0.227866
O3	O	1.099205	0.085554	-0.258690
O4	O	1.599205	0.585554	0.241310
O5	O	1.244050	0.085544	-0.113845
O6	O	1.744050	0.585544	0.386155
O7	O	1.257493	0.085557	-0.416979
O8	O	1.757493	0.585557	0.083021
O9	O	1.244030	-0.085589	-0.113852
O10	O	1.744030	0.414411	0.386148
O11	O	1.099185	-0.085580	-0.258698
O12	O	1.599185	0.414420	0.241302
O13	O	1.402319	-0.085586	-0.272141
O14	O	1.902319	0.414414	0.227859
Cu15	Cu	1.250750	-0.101209	-0.265420
Cu16	Cu	1.750750	0.398791	0.234580
Cu17	Cu	1.250774	0.101176	-0.265411
Cu18	Cu	1.750774	0.601176	0.234589
O19	O	1.257474	-0.085577	-0.416986
O20	O	1.757474	0.414423	0.083014
C21	C	1.060126	-0.000013	-0.254153
C22	C	1.560126	0.499987	0.245847
C23	C	0.943711	-0.000010	-0.240608
C24	C	1.443711	0.499990	0.259392
C25	C	0.718837	-0.000018	-0.403437
C26	C	1.218837	0.499982	0.096563
C27	C	0.609454	-0.000017	-0.390716
C28	C	1.109454	0.499983	0.109284
C29	C	0.615562	-0.000014	-0.202445
C30	C	1.115562	0.499986	0.297555
C31	C	0.724944	-0.000015	-0.215166
C32	C	1.224944	0.499985	0.284834
C33	C	0.776578	-0.000016	-0.315666
C34	C	1.276578	0.499984	0.184334
C35	C	0.885962	-0.000010	-0.328386
C36	C	1.385962	0.499990	0.171614
C37	C	0.892067	-0.000014	-0.140116
C38	C	1.392067	0.499986	0.359884
C39	C	0.782685	-0.000013	-0.127395
C40	C	1.282685	0.499987	0.372605
N41	N	1.250741	-0.243556	-0.265426
N42	N	1.750741	0.256444	0.234574
C43	C	1.250746	-0.336662	-0.265429
C44	C	1.750746	0.163338	0.234571
C45	C	1.250755	-0.453467	-0.265423
C46	C	1.750755	0.046533	0.234577
C47	C	1.250767	-0.546566	-0.265413
C48	C	1.750767	-0.046566	0.234587
C49	C	1.250778	-0.663378	-0.265408
C50	C	1.750778	-0.163378	0.234592
C51	C	1.441398	-0.000018	-0.276679
C52	C	1.941398	0.499982	0.223321
C53	C	1.557813	-0.000013	-0.290223
C54	C	2.057813	0.499987	0.209777
C55	C	1.239499	-0.000022	-0.074780
C56	C	1.739499	0.499978	0.425220
C57	C	1.225954	-0.000020	0.041635
C58	C	1.725954	0.499980	0.541635
N59	N	1.250790	0.243524	-0.265398
N60	N	1.750790	0.743524	0.234602
C61	C	1.262025	-0.000008	-0.456052
C62	C	1.762025	0.499992	0.043948
C63	C	1.275569	-0.000004	-0.572467
C64	C	1.775569	0.499996	-0.072467
C65	C	1.388784	-0.000002	0.266510
C66	C	1.888784	0.499998	0.766510
C67	C	1.376062	0.000000	0.375892
C68	C	1.876062	0.500000	0.875892
C69	C	1.187791	-0.000007	0.369785
C70	C	1.687791	0.499993	0.869785
C71	C	1.200513	-0.000009	0.260402
C72	C	1.700513	0.499991	0.760402
C73	C	1.301012	-0.000008	0.208769
C74	C	1.801012	0.499992	0.708769
C75	C	1.313732	-0.000017	0.099384
C76	C	1.813732	0.499983	0.599384
C77	C	1.125462	-0.000017	0.093279
C78	C	1.625462	0.499983	0.593279
C79	C	1.112741	-0.000015	0.202661
C80	C	1.612741	0.499985	0.702661
H81	H	0.760878	-0.000017	-0.485268
H82	H	1.260878	0.499983	0.014732
H83	H	0.928000	-0.000012	-0.410218
H84	H	1.428000	0.499988	0.089782
H85	H	1.470614	-0.000011	0.224469
H86	H	1.970614	0.499989	0.724469
H87	H	0.740630	-0.000024	-0.045571
H88	H	1.240630	0.499976	0.454429
C89	C	0.450592	-0.000029	-0.099360
C90	C	0.950592	0.499971	0.400640
C91	C	0.558793	-0.000023	-0.091983
C92	C	1.058793	0.499977	0.408017
H93	H	0.415547	-0.000031	-0.031163
H94	H	0.915547	0.499969	0.468837
H95	H	0.431421	-0.059703	-0.135953
H96	H	0.931421	0.440297	0.364047
H97	H	0.431425	0.059654	-0.135952
H98	H	0.931425	0.559654	0.364048
H99	H	0.577961	-0.059710	-0.055397
H100	H	1.077961	0.440290	0.444603
H101	H	0.577971	0.059657	-0.055374
H102	H	1.077971	0.559657	0.444626
H103	H	1.105969	0.000004	0.411844
H104	H	1.605969	0.500004	0.911844
H105	H	1.030917	-0.000011	0.244717
H106	H	1.530917	0.499989	0.744717
C107	C	1.030537	0.087953	-0.033269
C108	C	1.530537	0.587953	0.466731
C109	C	1.028971	-0.000018	0.029812
C110	C	1.528971	0.499982	0.529812
H111	H	0.970964	0.087951	-0.072444
H112	H	1.470964	0.587951	0.427556
H113	H	1.092197	0.087944	-0.079676
H114	H	1.592197	0.587944	0.420324
H115	H	1.029494	0.147626	0.009537
H116	H	1.529494	0.647626	0.509537
H117	H	1.030022	-0.059692	-0.012995
H118	H	1.530022	0.440308	0.487005
H119	H	0.967295	-0.000018	0.076225
H120	H	1.467295	0.499982	0.576225
C121	C	0.614409	-0.000009	-0.578090
C122	C	1.114409	0.499991	-0.078090
C123	C	0.545984	-0.000011	-0.487197
C124	C	1.045984	0.499989	0.012803
H125	H	0.575223	0.000000	-0.637654
H126	H	1.075223	0.500000	-0.137654
H127	H	0.657188	-0.059686	-0.579136
H128	H	1.157188	0.440314	-0.079136
H129	H	0.657210	0.059671	-0.579127
H130	H	1.157210	0.559671	-0.079127
H131	H	0.503188	-0.059696	-0.486156
H132	H	1.003188	0.440304	0.013844
H133	H	0.503188	0.059671	-0.486150
H134	H	1.003188	0.559671	0.013850
H135	H	0.939092	-0.000005	-0.068646
H136	H	1.439092	0.499995	0.431354
C137	C	1.440158	0.000013	0.546277
C138	C	1.940158	0.500013	1.046277
C139	C	1.472542	0.000008	0.439363
C140	C	1.972542	0.500008	0.939363
H141	H	1.499725	0.000026	0.585459
H142	H	1.999725	0.500026	1.085459
H143	H	1.399403	-0.059664	0.562945
H144	H	1.899403	0.440336	1.062945
H145	H	1.399397	0.059693	0.562936
H146	H	1.899397	0.559693	1.062936
H147	H	1.513297	-0.059676	0.422703
H148	H	2.013297	0.440324	0.922703
H149	H	1.513315	0.059691	0.422689
H150	H	2.013315	0.559691	0.922689
H151	H	1.395564	-0.000020	0.057346
H152	H	1.895564	0.499980	0.557346
