data_functionalizedCrystal
_audit_creation_method	'MofGen! by Chris Wilmer'
_symmetry_space_group_name_H-M	'P1'
_symmetry_Int_Tables_number	1
_symmetry_cell_setting	triclinic
loop_
_symmetry_equiv_pos_as_xyz
  x,y,z
_cell_length_a	18.050590
_cell_length_b	17.638032
_cell_length_c	17.640968
_cell_angle_alpha	109.664724
_cell_angle_beta	78.788466
_cell_angle_gamma	78.783591
loop_
_atom_site_label
_atom_site_type_symbol
_atom_site_fract_x
_atom_site_fract_y
_atom_site_fract_z
Zn1	Zn	1.166717	0.234264	-0.399198
Zn2	Zn	1.103677	0.399986	-0.233489
Zn3	Zn	1.011062	0.262121	-0.261434
Zn4	Zn	1.011035	0.372047	-0.371313
O5	O	1.073123	0.317105	-0.316358
O6	O	1.262268	0.256282	-0.377191
O7	O	1.065020	0.405049	-0.121861
O8	O	1.058103	0.143067	-0.303073
O9	O	1.215953	0.378037	-0.255446
O10	O	1.172462	0.122600	-0.404288
O11	O	0.996976	0.303761	-0.142392
O12	O	0.907145	0.276669	-0.276034
O13	O	1.058058	0.330418	-0.490347
O14	O	0.907125	0.357430	-0.356763
O15	O	1.172436	0.229190	-0.510834
O16	O	1.064994	0.511639	-0.228407
O17	O	0.996930	0.491112	-0.329666
C18	C	0.880191	0.317041	-0.316405
C19	C	0.797654	0.317030	-0.316441
C20	C	0.598149	0.361132	-0.360178
C21	C	0.570545	0.281867	-0.395666
C22	C	0.646504	0.317084	-0.316391
C23	C	0.527017	0.396392	-0.280894
C24	C	0.500499	0.317143	-0.316344
C25	C	0.620006	0.237771	-0.351927
C26	C	0.576463	0.352354	-0.237109
C27	C	0.548886	0.273043	-0.272579
C28	C	0.730615	0.317051	-0.316421
C29	C	0.416393	0.317167	-0.316316
C30	C	1.024143	0.531284	-0.272996
C31	C	1.003263	0.622905	-0.254473
C32	C	1.232165	0.870606	-0.457310
C33	C	1.212518	0.956701	-0.439891
C34	C	1.093476	0.978141	-0.334394
C35	C	1.113114	0.892047	-0.351802
C36	C	1.182459	0.838286	-0.413261
C37	C	1.063409	0.859726	-0.307753
C38	C	1.083044	0.773639	-0.325162
C39	C	1.152384	0.719872	-0.386621
C40	C	1.202094	0.752198	-0.430671
C41	C	0.994062	0.913488	-0.246298
C42	C	0.944356	0.881168	-0.202249
C43	C	0.963993	0.795080	-0.219654
C44	C	1.033334	0.741313	-0.281112
C45	C	0.914284	0.762753	-0.175604
C46	C	0.933919	0.676666	-0.193014
C47	C	1.052969	0.655225	-0.298522
C48	C	1.266807	0.317169	-0.316312
C49	C	1.349344	0.317196	-0.316292
C50	C	1.122276	0.273580	-0.531331
C51	C	1.143222	0.255033	-0.622940
C52	C	1.122294	1.102087	-0.359903
C53	C	1.143187	1.010461	-0.378446
C54	C	0.914384	0.457560	-0.870896
C55	C	0.934084	0.440121	-0.956979
C56	C	1.053176	0.334721	-0.978299
C57	C	1.033484	0.352148	-0.892218
C58	C	0.964087	0.413569	-0.838522
C59	C	1.083188	0.308157	-0.859844
C60	C	1.063499	0.325586	-0.773769
C61	C	0.994107	0.387006	-0.720068
C62	C	0.944398	0.430998	-0.752447
C63	C	1.152587	0.246741	-0.913539
C64	C	1.202291	0.202750	-0.881165
C65	C	1.182600	0.220175	-0.795090
C66	C	1.113207	0.281594	-0.741389
C67	C	1.232308	0.176183	-0.762710
C68	C	1.212619	0.193612	-0.676635
C69	C	1.093518	0.299023	-0.655314
C70	C	1.024217	0.360400	-0.102234
C71	C	1.003467	0.378716	-0.010673
H72	H	0.567229	0.252057	-0.462695
H73	H	1.288636	0.826832	-0.507351
C74	C	0.519849	0.222681	-0.222545
N75	N	0.497976	0.184746	-0.184864
H76	H	1.252992	0.983009	-0.475777
C77	C	1.017234	1.037298	-0.266738
N78	N	0.959821	1.081859	-0.215758
H79	H	0.978072	0.983584	-0.232132
H80	H	1.253092	0.157789	-0.650277
C81	C	0.868114	0.940324	-0.134593
N82	N	0.810701	0.984885	-0.083613
C83	C	0.838035	0.821910	-0.107958
N84	N	0.780615	0.866470	-0.056990
H85	H	0.893442	0.650351	-0.157145
H86	H	0.619811	0.398290	-0.397276
H87	H	1.168370	0.649775	-0.400794
C88	C	1.017177	0.366589	-0.596244
N89	N	0.959681	0.417479	-0.551753
H90	H	1.168617	0.232554	-0.983626
H91	H	0.486895	0.463437	-0.250894
C92	C	0.868057	0.498564	-0.693377
N93	N	0.810561	0.549454	-0.648886
C94	C	0.838042	0.525125	-0.811826
N95	N	0.780546	0.576016	-0.767335
H96	H	0.579793	0.382183	-0.170094
H97	H	0.660054	0.170692	-0.382004
H98	H	0.978079	0.401199	-0.649980
C99	C	1.129251	0.596082	-0.366132
N100	N	1.186703	0.551536	-0.417057
H101	H	1.258566	0.708424	-0.480712
H102	H	0.893604	0.475949	-0.983333
H103	H	1.109681	0.284715	-1.022029
H104	H	1.258796	0.152744	-0.924895
H105	H	1.288815	0.126180	-0.806440
