data_functionalizedCrystal
_audit_creation_method	'MofGen! by Chris Wilmer'
_symmetry_space_group_name_H-M	'P1'
_symmetry_Int_Tables_number	1
_symmetry_cell_setting	triclinic
loop_
_symmetry_equiv_pos_as_xyz
  x,y,z
_cell_length_a	14.044220
_cell_length_b	11.026607
_cell_length_c	9.482944
_cell_angle_alpha	98.184571
_cell_angle_beta	99.591696
_cell_angle_gamma	100.887447
loop_
_atom_site_label
_atom_site_type_symbol
_atom_site_fract_x
_atom_site_fract_y
_atom_site_fract_z
O1	O	0.420767	1.672672	0.120890
O2	O	0.374719	1.314383	0.120896
O3	O	0.258839	1.488147	0.120879
O4	O	0.536647	1.498908	0.120907
O5	O	0.226086	1.450660	-0.120916
O6	O	0.341966	1.276895	-0.120898
O7	O	0.388014	1.635185	-0.120904
Cu8	Cu	0.362000	1.452617	-0.142979
Cu9	Cu	0.400733	1.496950	0.142971
O10	O	0.503894	1.461420	-0.120887
C11	C	0.206344	1.464695	-0.000019
C12	C	0.098722	1.450651	-0.000020
C13	C	0.349848	1.249508	-0.000001
C14	C	0.324524	1.112053	0.000001
C15	C	0.412886	1.700059	-0.000004
C16	C	0.438211	1.837516	0.000003
C17	C	-0.098317	1.424979	0.000001
C18	C	-0.138955	1.524584	0.000004
C19	C	-0.248594	1.510300	0.000016
C20	C	0.011332	1.439262	-0.000011
C21	C	0.556389	1.484873	0.000014
C22	C	0.664013	1.498918	0.000025
N23	N	0.334757	1.421444	-0.344101
C24	C	0.368286	1.903752	-0.000002
C25	C	0.394459	2.045820	0.000006
C26	C	0.392696	1.487747	-0.416297
C27	C	0.370022	1.461820	-0.583715
N28	N	0.427970	1.528132	0.344093
H29	H	-0.091389	1.620602	0.000100
F30	F	-0.160466	1.299506	0.000011
F31	F	0.264707	1.840402	-0.000025
H32	H	0.303627	1.385859	-0.645845
F33	F	0.498040	2.109161	0.000009
H34	H	0.494362	1.604099	-0.593780
H35	H	0.268366	1.345488	-0.406236
H36	H	0.245289	2.063604	0.000086
F37	F	0.479469	1.587039	-0.335089
F38	F	0.541787	1.900862	0.000006
