data_functionalizedCrystal
_audit_creation_method	'MofGen! by Chris Wilmer'
_symmetry_space_group_name_H-M	'P1'
_symmetry_Int_Tables_number	1
_symmetry_cell_setting	triclinic
loop_
_symmetry_equiv_pos_as_xyz
  x,y,z
_cell_length_a	19.288864
_cell_length_b	16.992695
_cell_length_c	18.366186
_cell_angle_alpha	89.993794
_cell_angle_beta	89.977106
_cell_angle_gamma	86.902234
loop_
_atom_site_label
_atom_site_type_symbol
_atom_site_fract_x
_atom_site_fract_y
_atom_site_fract_z
O1	O	0.927052	0.097795	-0.060785
O2	O	0.725561	0.110988	-0.060736
O3	O	0.825499	-0.009748	-0.060755
O4	O	0.827114	0.218531	-0.060767
O5	O	0.825480	-0.009754	0.060345
O6	O	0.725542	0.110982	0.060363
O7	O	0.927034	0.097789	0.060314
Zn8	Zn	0.826285	0.104385	0.079566
Zn9	Zn	0.826309	0.104392	-0.079988
O10	O	0.827096	0.218525	0.060333
C11	C	0.699650	0.110560	-0.000180
C12	C	0.622472	0.109286	-0.000161
C13	C	0.581905	0.180128	-0.000176
C14	C	0.509388	0.178931	-0.000184
C15	C	0.477442	0.106888	-0.000191
C16	C	0.518018	0.036036	-0.000172
C17	C	0.590534	0.037235	-0.000157
C18	C	0.365885	0.050255	-0.042639
C19	C	0.293371	0.049059	-0.042659
C20	C	0.253780	0.103186	-0.000235
C21	C	0.286712	0.158522	0.042199
C22	C	0.359227	0.159722	0.042214
C23	C	0.398811	0.105579	-0.000207
C24	C	0.134581	0.172735	-0.000258
C25	C	0.062063	0.171535	-0.000261
C26	C	0.070695	0.028638	-0.000257
C27	C	0.143212	0.029840	-0.000246
C28	C	0.175150	0.101891	-0.000250
C29	C	0.823411	-0.038957	-0.000205
C30	C	0.817211	-0.125979	-0.000203
C31	C	0.877039	-0.176431	-0.000217
C32	C	0.871208	-0.258197	-0.000223
C33	C	0.805549	-0.289509	-0.000209
C34	C	0.745717	-0.239051	-0.000197
C35	C	0.751548	-0.157287	-0.000197
C36	C	0.781382	-0.533022	-0.000213
C37	C	0.775556	-0.614793	-0.000211
C38	C	0.901048	-0.633933	-0.000238
C39	C	0.906873	-0.552166	-0.000233
C40	C	0.847041	-0.501715	-0.000225
N41	N	0.799588	-0.373087	-0.000212
N42	N	0.853002	-0.418138	-0.000227
C43	C	0.952944	0.098217	-0.000244
C44	C	1.030122	0.099491	-0.000268
C45	C	0.829183	0.247733	-0.000219
C46	C	0.835384	0.334756	-0.000225
N47	N	0.826273	0.104379	0.188457
N48	N	0.826326	0.104392	-0.188879
C49	C	0.870543	0.050943	0.226549
C50	C	0.870547	0.050940	0.302777
C51	C	0.826289	0.104385	0.340910
C52	C	0.782011	0.157825	0.302808
C53	C	0.782003	0.157822	0.226582
C54	C	0.821154	0.175814	0.461668
C55	C	0.821167	0.175819	0.537893
C56	C	0.826310	0.104395	0.576017
C57	C	0.831454	0.032964	0.537908
C58	C	0.831446	0.032961	0.461681
C59	C	0.826293	0.104394	0.423564
C60	C	0.870586	0.050951	0.696764
C61	C	0.870585	0.050947	0.772994
C62	C	0.782053	0.157839	0.773024
C63	C	0.782050	0.157837	0.696796
C64	C	0.826320	0.104394	0.658671
H65	H	0.044686	-0.030021	-0.000308
C66	C	0.966860	-0.689426	-0.000254
H67	H	1.006798	-0.659066	-0.000258
H68	H	0.967201	-0.721715	-0.042485
H69	H	0.967189	-0.721724	0.041981
C70	C	0.919247	-0.007840	0.344687
H71	H	0.945613	-0.039666	0.311064
H72	H	0.892462	-0.040402	0.374444
H73	H	0.949721	0.020289	0.374401
H74	H	0.492003	-0.022623	-0.000188
C75	C	0.635160	-0.040695	-0.000149
H76	H	0.605751	-0.083775	-0.000158
H77	H	0.663608	-0.043201	0.042084
H78	H	0.663646	-0.043191	-0.042381
H79	H	0.930505	-0.150943	-0.000224
H80	H	0.746014	0.201352	0.804071
H81	H	0.919927	-0.299272	-0.000232
C82	C	0.837106	-0.045607	0.579834
H83	H	0.836364	-0.035378	0.630689
H84	H	0.879351	-0.073692	0.567327
H85	H	0.799077	-0.076217	0.567361
H86	H	0.960340	-0.526677	-0.000244
C87	C	0.715569	-0.477536	-0.000192
H88	H	0.675631	-0.507898	-0.000173
H89	H	0.715234	-0.445234	-0.042419
H90	H	0.715231	-0.445251	0.042046
C91	C	0.017435	0.249464	-0.000279
H92	H	-0.030327	0.238432	-0.000279
H93	H	0.027569	0.279014	-0.042511
H94	H	0.027524	0.279018	0.041955
H95	H	0.266564	0.004004	-0.077214
H96	H	0.160587	0.231403	-0.000250
C97	C	0.187841	-0.048085	-0.000240
H98	H	0.235604	-0.037053	-0.000225
H99	H	0.177754	-0.077636	-0.042471
H100	H	0.177707	-0.077640	0.041994
H101	H	0.722085	-0.640283	-0.000188
H102	H	0.692255	-0.264552	-0.000191
H103	H	0.906633	0.007429	0.804009
H104	H	0.702829	-0.116209	-0.000186
C105	C	0.919230	-0.007850	0.184615
H106	H	0.945592	-0.039680	0.218224
H107	H	0.949699	0.020263	0.154856
H108	H	0.892431	-0.040418	0.154903
C109	C	0.815513	0.254388	0.579806
H110	H	0.812437	0.296925	0.546185
H111	H	0.855438	0.258628	0.609518
H112	H	0.775165	0.256089	0.609565
C113	C	0.409428	-0.009282	-0.089315
H114	H	0.379431	-0.042399	-0.114598
H115	H	0.439615	-0.040473	-0.058729
H116	H	0.436094	0.018303	-0.123426
H117	H	0.835633	-0.025201	0.430655
H118	H	0.906632	0.007432	0.665722
C119	C	0.733368	0.216629	0.654889
H120	H	0.739700	0.208972	0.604031
H121	H	0.743818	0.268926	0.667372
H122	H	0.686545	0.208251	0.667403
H123	H	0.816954	0.233980	0.430633
H124	H	0.745974	0.201340	0.333860
C125	C	0.733314	0.216610	0.184676
H126	H	0.739648	0.208953	0.133817
H127	H	0.743759	0.268909	0.197159
H128	H	0.686492	0.208227	0.197189
C129	C	0.617033	0.259381	-0.000167
H130	H	0.582482	0.301401	-0.000169
H131	H	0.645170	0.262826	-0.042388
H132	H	0.645114	0.262814	0.042078
H133	H	0.476351	0.236621	-0.000194
H134	H	0.386037	0.204776	0.076768
H135	H	0.254478	0.202597	0.076745
