data_functionalizedCrystal
_audit_creation_method	'MofGen! by Chris Wilmer'
_symmetry_space_group_name_H-M	'P1'
_symmetry_Int_Tables_number	1
_symmetry_cell_setting	triclinic
loop_
_symmetry_equiv_pos_as_xyz
  x,y,z
_cell_length_a	19.077105
_cell_length_b	12.759400
_cell_length_c	19.077314
_cell_angle_alpha	87.679098
_cell_angle_beta	89.892247
_cell_angle_gamma	87.711155
loop_
_atom_site_label
_atom_site_type_symbol
_atom_site_fract_x
_atom_site_fract_y
_atom_site_fract_z
Zn1	Zn	1.058331	-0.455462	-0.440445
Zn2	Zn	1.062989	-0.638478	-0.322944
Zn3	Zn	0.945547	-0.456042	-0.318236
Zn4	Zn	0.940812	-0.624324	-0.435698
O5	O	1.001920	-0.543577	-0.379331
O6	O	1.157282	-0.485420	-0.428815
O7	O	1.051341	-0.620444	-0.223987
O8	O	0.960540	-0.308945	-0.334464
O9	O	1.160704	-0.619882	-0.342488
O10	O	1.043402	-0.308519	-0.424250
O11	O	0.965056	-0.486408	-0.220528
O12	O	0.846586	-0.472684	-0.329861
O13	O	0.952470	-0.595758	-0.534660
O14	O	0.843107	-0.596320	-0.416160
O15	O	1.038811	-0.471695	-0.538148
O16	O	1.046750	-0.783621	-0.337885
O17	O	0.956987	-0.773222	-0.420725
C18	C	0.819350	-0.533030	-0.371985
C19	C	0.741245	-0.528542	-0.368859
C20	C	1.001879	-0.816542	-0.379317
C21	C	1.001924	-0.933320	-0.379337
C22	C	0.702762	-0.590911	-0.412251
C23	C	0.629374	-0.586680	-0.409317
C24	C	0.594471	-0.520086	-0.362987
C25	C	0.632960	-0.457710	-0.319594
C26	C	0.706346	-0.461936	-0.322531
C27	C	0.375181	-0.500528	-0.349393
C28	C	0.301790	-0.496309	-0.346457
C29	C	0.298209	-0.625278	-0.436182
C30	C	0.371597	-0.629502	-0.439113
C31	C	0.410079	-0.567123	-0.395722
N32	N	0.519457	-0.515762	-0.359986
N33	N	0.485092	-0.571442	-0.398727
C34	C	1.045050	-0.987867	-0.426126
C35	C	1.045088	-1.097592	-0.426147
C36	C	0.958875	-1.098215	-0.332583
C37	C	0.958833	-0.988491	-0.332566
C38	C	1.066873	-1.243715	-0.510069
C39	C	1.110009	-1.298266	-0.556853
C40	C	1.178119	-1.265837	-0.570449
C41	C	1.203106	-1.178859	-0.537252
C42	C	1.159973	-1.124313	-0.490464
C43	C	1.091853	-1.156740	-0.476881
C44	C	0.937056	-0.842367	-0.248643
C45	C	0.893927	-0.787820	-0.201851
C46	C	0.825816	-0.820248	-0.188247
C47	C	0.800832	-0.907231	-0.221431
C48	C	0.843962	-0.961777	-0.268224
C49	C	0.912071	-0.929342	-0.281828
C50	C	1.185202	-0.554165	-0.386706
C51	C	1.263306	-0.558677	-0.389849
C52	C	0.994593	-0.532083	-0.562614
C53	C	0.991471	-0.527186	-0.640718
C54	C	1.001979	-0.269545	-0.379361
C55	C	1.002005	-0.152769	-0.379374
C56	C	1.034924	-0.594666	-0.679215
C57	C	1.031990	-0.590051	-0.752602
C58	C	0.985599	-0.517960	-0.787491
C59	C	0.942144	-0.450473	-0.748988
C60	C	0.945082	-0.455083	-0.675603
C61	C	0.971999	-0.496684	-1.006777
C62	C	0.969063	-0.492081	-1.080168
C63	C	1.058911	-0.631659	-1.083776
C64	C	1.061842	-0.636267	-1.010389
C65	C	1.018389	-0.568775	-0.971893
N66	N	0.982598	-0.513244	-0.862504
N67	N	1.021395	-0.573488	-0.896881
C68	C	1.009258	-0.554952	-0.196763
C69	C	1.012517	-0.559561	-0.118665
H70	H	0.731174	-0.645143	-0.449975
H71	H	0.406505	-0.449742	-0.314056
C72	C	0.918028	-0.412771	-1.118543
N73	N	0.879588	-0.353039	-1.147448
H74	H	1.011410	-1.270120	-0.499010
C75	C	1.106597	-0.706050	-1.126123
N76	N	1.142477	-0.762140	-1.158017
H77	H	0.936614	-0.441732	-0.975442
C78	C	1.082519	-1.393935	-0.593371
N79	N	1.061817	-1.465994	-0.620876
H80	H	0.923792	-1.143148	-0.294503
H81	H	0.604536	-0.403483	-0.281874
H82	H	0.823614	-1.032603	-0.295244
C83	C	0.587046	-0.655312	-0.457038
N84	N	0.555165	-0.707015	-0.492980
H85	H	1.180318	-1.053499	-0.463435
C86	C	0.725907	-0.942904	-0.206468
N87	N	0.669472	-0.969771	-0.195195
H88	H	0.992513	-0.815944	-0.259726
H89	H	0.790702	-0.775827	-0.150143
C90	C	1.278055	-1.143252	-0.552162
N91	N	1.334516	-1.116449	-0.563377
H92	H	1.072703	-0.653367	-0.650814
C93	C	0.921414	-0.692142	-0.165342
N94	N	0.942118	-0.620077	-0.137845
H95	H	1.213241	-1.310260	-0.608542
H96	H	0.904374	-0.391771	-0.777401
H97	H	0.737679	-0.411143	-0.287201
H98	H	1.067375	-0.645001	-0.783943
C99	C	1.112917	-0.715514	-0.972019
N100	N	1.151400	-0.775185	-0.943119
C101	C	0.897278	-0.380851	-0.633256
N102	N	0.861271	-0.324936	-0.601362
C103	C	0.409984	-0.702766	-0.490076
N104	N	0.438898	-0.757955	-0.528459
C105	C	0.263399	-0.423046	-0.295490
N106	N	0.234482	-0.367868	-0.257102
C107	C	0.255872	-0.693882	-0.483914
N108	N	0.223984	-0.745554	-0.519870
H109	H	1.080137	-0.942950	-0.464210
