data_functionalizedCrystal
_audit_creation_method	'MofGen! by Chris Wilmer'
_symmetry_space_group_name_H-M	'P1'
_symmetry_Int_Tables_number	1
_symmetry_cell_setting	triclinic
loop_
_symmetry_equiv_pos_as_xyz
  x,y,z
_cell_length_a	6.817900
_cell_length_b	17.982783
_cell_length_c	12.908943
_cell_angle_alpha	95.935216
_cell_angle_beta	100.860631
_cell_angle_gamma	102.448572
loop_
_atom_site_label
_atom_site_type_symbol
_atom_site_fract_x
_atom_site_fract_y
_atom_site_fract_z
V1	V	-3.991103	-0.104460	-0.329116
O2	O	-3.984603	0.005998	-0.322400
O3	O	-3.937759	-0.208067	-0.327298
O4	O	-3.929480	-0.102423	-0.472457
O5	O	-3.992940	-0.100377	-0.176236
V6	V	-4.477085	-0.091298	-0.310777
O7	O	-4.246967	-0.133330	-0.369342
O8	O	-4.671418	-0.062428	-0.270551
O9	O	-4.307223	0.012309	-0.312595
O10	O	-4.600982	-0.201756	-0.317493
O11	O	-4.592645	-0.095381	-0.463657
O12	O	-4.315502	-0.093335	-0.167436
C13	C	-3.781985	-0.233338	-0.322218
C14	C	-3.819568	-0.318036	-0.321687
C15	C	-3.806468	-0.347226	-0.224856
C16	C	-3.841802	-0.426809	-0.224361
C17	C	-3.890220	-0.477200	-0.320697
C18	C	-3.903326	-0.448006	-0.417536
C19	C	-3.868008	-0.368424	-0.418030
C20	C	-4.045766	-0.768949	-0.415544
C21	C	-4.081078	-0.848536	-0.415042
C22	C	-4.019559	-0.827334	-0.221875
C23	C	-3.984241	-0.747753	-0.222369
C24	C	-3.997360	-0.718565	-0.319207
C25	C	-3.959051	-0.632272	-0.319743
C26	C	-3.928515	-0.563492	-0.320162
C27	C	-3.771423	-0.098578	-0.507381
C28	C	-3.802290	-0.097599	-0.624566
C29	C	-4.223182	-0.103319	-0.855536
C30	C	-4.252193	-0.102399	-0.965642
C31	C	-3.889324	-0.094834	-0.954885
C32	C	-3.860313	-0.095754	-0.844779
C33	C	-4.027250	-0.099998	-0.795109
C34	C	-3.998239	-0.100923	-0.685002
C35	C	-3.635370	-0.093352	-0.674245
C36	C	-3.664381	-0.092432	-0.784351
C37	C	-4.126339	0.037576	-0.317673
C38	C	-4.067993	0.122273	-0.318210
C39	C	-4.136901	-0.097183	-0.132507
C40	C	-4.085273	-0.098158	-0.015321
H41	H	-3.944807	-0.706727	-0.143922
H42	H	-4.359113	-0.106783	-0.815096
C43	C	-4.060155	-0.736853	-0.522067
N44	N	-4.070978	-0.712675	-0.602306
H45	H	-3.753419	-0.091374	-0.995344
C46	C	-3.956568	-0.503439	-0.523506
N47	N	-3.996655	-0.545190	-0.603325
C48	C	-4.467731	-0.106054	-1.032109
N49	N	-4.630082	-0.108806	-1.082172
H50	H	-4.008888	-0.851108	-0.143024
C51	C	-4.134359	-0.903966	-0.521025
N52	N	-4.174490	-0.945716	-0.600847
H53	H	-4.134171	-0.104381	-0.644563
C54	C	-3.419827	-0.089697	-0.607765
N55	N	-3.257485	-0.086945	-0.557692
H56	H	-3.767027	-0.306201	-0.146407
C57	C	-3.827378	-0.458913	-0.117839
N58	N	-3.816511	-0.483093	-0.037602
C59	C	-3.882413	-0.336316	-0.524551
N60	N	-3.893269	-0.312134	-0.604787
H61	H	-3.528472	-0.088974	-0.824807
