data_functionalizedCrystal
_audit_creation_method	'MofGen! by Chris Wilmer'
_symmetry_space_group_name_H-M	'P1'
_symmetry_Int_Tables_number	1
_symmetry_cell_setting	triclinic
loop_
_symmetry_equiv_pos_as_xyz
  x,y,z
_cell_length_a	19.288864
_cell_length_b	14.853567
_cell_length_c	18.366186
_cell_angle_alpha	89.997562
_cell_angle_beta	89.977106
_cell_angle_gamma	83.385589
loop_
_atom_site_label
_atom_site_type_symbol
_atom_site_fract_x
_atom_site_fract_y
_atom_site_fract_z
O1	O	0.921732	0.112464	-0.060777
O2	O	0.719523	0.127635	-0.060727
O3	O	0.826029	-0.011211	-0.060755
O4	O	0.815226	0.251310	-0.060748
O5	O	0.826011	-0.011217	0.060344
O6	O	0.719505	0.127629	0.060373
O7	O	0.921714	0.112457	0.060322
Zn8	Zn	0.820607	0.120042	0.079575
Zn9	Zn	0.820631	0.120051	-0.079979
O10	O	0.815208	0.251304	0.060351
C11	C	0.693636	0.127144	-0.000171
C12	C	0.616527	0.125679	-0.000152
C13	C	0.825530	-0.044800	-0.000208
C14	C	0.824064	-0.144875	-0.000214
C15	C	0.572106	0.207147	-0.000161
C16	C	0.499654	0.205770	-0.000169
C17	C	0.471627	0.122920	-0.000182
C18	C	0.516058	0.041441	-0.000169
C19	C	0.588508	0.042820	-0.000154
C20	C	0.363152	0.057794	-0.042635
C21	C	0.290702	0.056418	-0.042655
C22	C	0.248167	0.118664	-0.000227
C23	C	0.278088	0.182300	0.042212
C24	C	0.350538	0.183679	0.042228
C25	C	0.393068	0.121416	-0.000199
C26	C	0.125185	0.198645	-0.000243
C27	C	0.052732	0.197265	-0.000247
C28	C	0.069138	0.032933	-0.000254
C29	C	0.141589	0.034316	-0.000244
C30	C	0.169608	0.117174	-0.000242
C31	C	0.754596	-0.557014	-0.000182
C32	C	0.881128	-0.579015	-0.000214
C33	C	0.882507	-0.484989	-0.000219
C34	C	0.819930	-0.426971	-0.000204
C35	C	0.755974	-0.462979	-0.000185
C36	C	0.946462	-0.448973	-0.000231
C37	C	0.947844	-0.354942	-0.000235
C38	C	0.885266	-0.296923	-0.000225
C39	C	0.821307	-0.332936	-0.000207
C40	C	0.758730	-0.274918	-0.000192
C41	C	0.694770	-0.310930	-0.000179
C42	C	0.693396	-0.404960	-0.000176
C43	C	0.886641	-0.202893	-0.000228
C44	C	0.760107	-0.180883	-0.000194
C45	C	0.947601	0.112949	-0.000236
C46	C	1.024710	0.114414	-0.000259
C47	C	0.815707	0.284893	-0.000198
C48	C	0.817174	0.384968	-0.000197
N49	N	0.820595	0.120035	0.188466
N50	N	0.820647	0.120050	-0.188870
C51	C	0.867772	0.058584	0.226553
C52	C	0.867776	0.058580	0.302781
C53	C	0.820611	0.120043	0.340918
C54	C	0.773426	0.181498	0.302822
C55	C	0.773418	0.181495	0.226595
C56	C	0.811590	0.202186	0.461682
C57	C	0.811602	0.202191	0.537907
C58	C	0.820631	0.120054	0.576026
C59	C	0.829661	0.037908	0.537910
C60	C	0.829653	0.037905	0.461684
C61	C	0.820614	0.120053	0.423573
C62	C	0.867814	0.058594	0.696769
C63	C	0.867814	0.058588	0.772998
C64	C	0.773467	0.181514	0.773037
C65	C	0.773464	0.181512	0.696809
C66	C	0.820641	0.120052	0.658679
H67	H	0.594914	0.274617	-0.000161
F68	F	0.039314	-0.055242	-0.000262
H69	H	0.804254	0.269079	0.568935
H70	H	0.906194	0.008538	0.333798
H71	H	0.932075	-0.626258	-0.000220
H72	H	0.997409	-0.496218	-0.000236
F73	F	0.954706	-0.164570	-0.000231
F74	F	0.686529	-0.595340	-0.000175
H75	H	0.463479	0.272114	-0.000174
F76	F	0.155007	0.286829	-0.000236
H77	H	0.493234	-0.026016	-0.000190
F78	F	0.408415	-0.008462	-0.087796
H79	H	0.643820	-0.263680	-0.000162
F80	F	0.723204	0.246902	0.186058
F81	F	0.802031	0.289616	0.421121
H82	H	0.735051	0.231554	0.665796
H83	H	0.906227	0.008547	0.665722
H84	H	0.999924	-0.325630	-0.000246
F85	F	0.918024	-0.006824	0.813535
F86	F	0.917979	-0.006828	0.185975
H87	H	0.374897	0.235492	0.076785
F88	F	0.839258	-0.049518	0.421121
H89	H	0.735061	0.231555	0.804088
F90	F	0.232825	0.248553	0.087371
F91	F	0.693502	-0.119143	-0.000184
F92	F	0.635787	-0.043894	-0.000144
F93	F	0.839274	-0.049515	0.578472
H94	H	0.016564	0.263609	-0.000250
F95	F	0.723226	0.246908	0.343410
H96	H	0.177758	-0.032025	-0.000240
H97	H	0.266346	0.004605	-0.077214
H98	H	0.641323	-0.434289	-0.000164
