data_functionalizedCrystal
_audit_creation_method	'MofGen! by Chris Wilmer'
_symmetry_space_group_name_H-M	'P1'
_symmetry_Int_Tables_number	1
_symmetry_cell_setting	triclinic
loop_
_symmetry_equiv_pos_as_xyz
  x,y,z
_cell_length_a	8.597340
_cell_length_b	23.532407
_cell_length_c	7.088929
_cell_angle_alpha	96.183571
_cell_angle_beta	76.039802
_cell_angle_gamma	84.100404
loop_
_atom_site_label
_atom_site_type_symbol
_atom_site_fract_x
_atom_site_fract_y
_atom_site_fract_z
O1	O	2.100138	0.078220	-0.186947
O2	O	1.635302	0.087515	-0.110368
O3	O	1.881741	-0.000044	-0.151003
O4	O	1.853699	0.165779	-0.146313
O5	O	1.914698	-0.011764	-0.474412
O6	O	1.668259	0.075795	-0.433778
O7	O	2.133095	0.066500	-0.510357
Cu8	Cu	1.903687	0.070077	-0.501597
Cu9	Cu	1.864711	0.083937	-0.119128
O10	O	1.886657	0.154059	-0.469722
C11	C	1.592322	0.081310	-0.262278
C12	C	1.415155	0.080274	-0.233092
C13	C	1.897506	-0.027122	-0.312595
C14	C	1.895361	-0.090342	-0.312256
C15	C	2.027723	-0.489240	-0.333957
C16	C	2.025728	-0.548643	-0.333614
O17	O	2.148432	-0.585198	-0.353758
N18	N	1.879222	-0.571492	-0.309479
C19	C	1.734701	-0.534935	-0.285667
O20	O	1.609903	-0.559824	-0.265105
C21	C	1.736697	-0.475532	-0.285996
C22	C	1.883213	-0.452687	-0.310152
C23	C	2.174228	-0.466394	-0.358109
C24	C	2.176223	-0.406996	-0.358456
C25	C	2.031713	-0.370443	-0.334651
C26	C	1.885209	-0.393289	-0.310499
C27	C	1.592175	-0.438976	-0.262170
C28	C	1.594183	-0.379570	-0.262500
C29	C	1.740700	-0.356725	-0.286656
C30	C	1.742694	-0.297338	-0.287041
N31	N	1.889199	-0.274488	-0.311175
C32	C	2.033709	-0.311041	-0.334980
C33	C	1.730521	-0.659683	-0.284973
C34	C	1.728525	-0.719085	-0.284657
C35	C	2.019552	-0.732789	-0.332601
C36	C	2.021548	-0.673387	-0.332930
C37	C	1.877026	-0.636834	-0.309108
C38	C	2.037888	-0.186299	-0.335708
C39	C	2.039871	-0.126895	-0.336061
C40	C	1.748844	-0.113196	-0.288107
C41	C	1.746861	-0.172595	-0.287765
C42	C	1.891395	-0.209146	-0.311561
O43	O	1.620054	-0.260748	-0.266899
O44	O	2.158484	-0.286142	-0.355513
C45	C	2.176075	0.072705	-0.358443
C46	C	2.353240	0.073742	-0.387616
C47	C	1.870891	0.181136	-0.308126
C48	C	1.873034	0.244358	-0.308452
N49	N	1.931112	0.060329	-0.770607
N50	N	1.837298	0.093681	0.149880
H51	H	1.435773	0.068937	-0.542245
H52	H	1.740065	0.128247	-0.752432
H53	H	2.140854	-0.654790	-0.352598
C54	C	2.178519	-0.773003	-0.358770
C55	C	2.234273	-0.821822	-0.533060
C56	C	2.393230	-0.862037	-0.559230
C57	C	2.496432	-0.853433	-0.411111
C58	C	2.440679	-0.804611	-0.236809
C59	C	2.281722	-0.764396	-0.210639
H60	H	2.157876	-0.828194	-0.642718
H61	H	2.434501	-0.898179	-0.688260
H62	H	2.614101	-0.883202	-0.430483
H63	H	2.517077	-0.798239	-0.127152
H64	H	2.240451	-0.728255	-0.081609
C65	C	1.435202	-0.339363	-0.236302
C66	C	1.413652	-0.302737	-0.397877
C67	C	1.254673	-0.262532	-0.371685
C68	C	1.117246	-0.258954	-0.183919
C69	C	1.138792	-0.295582	-0.022331
C70	C	1.297770	-0.335787	-0.048523
H71	H	1.515388	-0.305384	-0.536884
H72	H	1.238724	-0.235417	-0.491304
H73	H	0.999560	-0.229192	-0.164530
H74	H	1.037056	-0.292935	0.116676
H75	H	1.313719	-0.362901	0.071096
H76	H	2.028350	0.025770	-0.868286
H77	H	2.159188	-0.108298	-0.355737
C78	C	1.303664	0.086761	-0.024177
C79	C	1.330490	0.042734	0.114418
C80	C	1.218999	0.049222	0.323329
C81	C	1.080682	0.099736	0.393646
C82	C	1.053850	0.143767	0.255049
C83	C	1.165341	0.137279	0.046138
H84	H	1.432886	0.005337	0.062367
H85	H	1.238863	0.016627	0.425927
H86	H	0.998150	0.104538	0.548294
H87	H	0.951454	0.181164	0.307099
H88	H	1.145477	0.169874	-0.056460
H89	H	2.155581	-0.216052	-0.355078
H90	H	2.295531	-0.388401	-0.378118
H91	H	2.291911	-0.496150	-0.377488
H92	H	1.609220	-0.737681	-0.265021
C93	C	1.571537	-0.619479	-0.258801
C94	C	1.434095	-0.615905	-0.071051
C95	C	1.275113	-0.575705	-0.044878
C96	C	1.253572	-0.539078	-0.206455
C97	C	1.391017	-0.542650	-0.394218
C98	C	1.550000	-0.582850	-0.420391
H99	H	1.450037	-0.643020	0.048570
H100	H	1.173366	-0.573061	0.094117
H101	H	1.135883	-0.509319	-0.187081
H102	H	1.375075	-0.515535	-0.513839
H103	H	1.651746	-0.585495	-0.559387
C104	C	1.589889	-0.072979	-0.261908
C105	C	1.452470	-0.069394	-0.074129
C106	C	1.293514	-0.029174	-0.047909
C107	C	1.271976	0.007460	-0.209468
C108	C	1.409400	0.003877	-0.397261
C109	C	1.568356	-0.036343	-0.423480
H110	H	1.468409	-0.096515	0.045478
H111	H	1.191784	-0.026522	0.091108
H112	H	1.154307	0.037234	-0.190059
H113	H	1.393461	0.030997	-0.516868
H114	H	1.670086	-0.038996	-0.562497
H115	H	1.472865	-0.457565	-0.242488
H116	H	1.627560	-0.191198	-0.268149
