data_functionalizedCrystal
_audit_creation_method	'MofGen! by Chris Wilmer'
_symmetry_space_group_name_H-M	'P1'
_symmetry_Int_Tables_number	1
_symmetry_cell_setting	triclinic
loop_
_symmetry_equiv_pos_as_xyz
  x,y,z
_cell_length_a	10.723023
_cell_length_b	23.532409
_cell_length_c	9.198806
_cell_angle_alpha	89.999886
_cell_angle_beta	89.996513
_cell_angle_gamma	83.658554
loop_
_atom_site_label
_atom_site_type_symbol
_atom_site_fract_x
_atom_site_fract_y
_atom_site_fract_z
O1	O	1.654702	0.079869	-0.120867
O2	O	1.291311	0.087514	-0.120872
O3	O	1.483963	0.000831	-0.120871
O4	O	1.462050	0.166552	-0.120868
O5	O	1.483948	0.000831	0.120914
O6	O	1.291296	0.087514	0.120913
O7	O	1.654686	0.079868	0.120918
Cu8	Cu	1.472990	0.083691	0.142993
Cu9	Cu	1.473008	0.083691	-0.142946
O10	O	1.462034	0.166552	0.120918
C11	C	1.244821	0.086958	0.000020
C12	C	1.106319	0.085293	0.000018
C13	C	1.044562	0.084551	0.125268
C14	C	0.901412	0.082831	0.125269
C15	C	1.483397	-0.020389	0.000018
C16	C	1.481718	-0.083617	0.000007
C17	C	1.474586	-0.356908	-0.131796
C18	C	1.476145	-0.297498	-0.131796
O19	O	1.477002	-0.266767	-0.243880
N20	N	1.476909	-0.267791	0.000003
C21	C	1.476126	-0.297498	0.131811
O22	O	1.476919	-0.266774	0.243916
C23	C	1.474575	-0.356907	0.131810
C24	C	1.473799	-0.386611	0.000002
C25	C	1.473811	-0.386611	-0.263593
C26	C	1.472250	-0.446017	-0.263592
C27	C	1.471463	-0.475720	-0.131794
C28	C	1.472238	-0.446017	0.000003
C29	C	1.473801	-0.386614	0.263616
C30	C	1.472252	-0.446028	0.263604
C31	C	1.471476	-0.475731	0.131796
C32	C	1.469890	-0.535126	0.131801
N33	N	1.469126	-0.564833	0.000002
C34	C	1.469913	-0.535130	-0.131796
C35	C	1.479383	-0.172733	0.131803
C36	C	1.480924	-0.113324	0.131806
C37	C	1.480946	-0.113328	-0.131802
C38	C	1.479396	-0.172738	-0.131803
C39	C	1.478620	-0.202440	0.000004
C40	C	1.466633	-0.659887	-0.131784
C41	C	1.465066	-0.719298	-0.131771
C42	C	1.465051	-0.719289	0.131835
C43	C	1.466611	-0.659883	0.131824
C44	C	1.467406	-0.630183	0.000002
O45	O	1.469037	-0.565894	0.243828
O46	O	1.469136	-0.565861	-0.243882
C47	C	1.701176	0.080425	0.000023
C48	C	1.839679	0.082089	0.000016
C49	C	1.462600	0.187771	0.000025
C50	C	1.464279	0.250999	0.000026
N51	N	1.472986	0.083691	0.344107
N52	N	1.473021	0.083687	-0.344060
C53	C	1.553880	0.047134	0.416304
C54	C	1.553900	0.047132	0.583716
H55	H	0.892779	0.082731	-0.107221
O56	O	1.107720	0.085283	0.253332
C57	C	1.022500	0.084274	0.369791
H58	H	0.935081	0.065163	0.331290
H59	H	0.995052	0.129715	0.410341
C60	C	1.191949	0.071075	0.541522
C61	C	1.084583	0.047599	0.494238
H62	H	1.230245	0.048454	0.618290
H63	H	1.249364	0.071757	0.463063
H64	H	1.169060	0.108942	0.575304
H65	H	1.107475	0.009736	0.460440
H66	H	1.027173	0.046909	0.572694
O67	O	1.636344	0.009795	0.342007
C68	C	1.569687	-0.025500	0.253961
H69	H	1.471832	-0.003121	0.231362
H70	H	1.561591	-0.067641	0.312478
C71	C	1.760186	-0.064849	0.137020
C72	C	1.640002	-0.037359	0.109253
H73	H	1.803561	-0.072166	0.047760
H74	H	1.805095	-0.041072	0.196342
H75	H	1.753422	-0.099962	0.185788
H76	H	1.646767	-0.002243	0.060503
H77	H	1.595095	-0.061131	0.049920
O78	O	1.464366	-0.748066	-0.259946
C79	C	1.465364	-0.709103	-0.376269
H80	H	1.505988	-0.668958	-0.337625
H81	H	1.365417	-0.697204	-0.416788
C82	C	1.496694	-0.786155	-0.548265
C83	C	1.546599	-0.736849	-0.500805
H84	H	1.546798	-0.803269	-0.625088
H85	H	1.496017	-0.812405	-0.469898
H86	H	1.413406	-0.776232	-0.582021
H87	H	1.629879	-0.746773	-0.467034
H88	H	1.547292	-0.710601	-0.579170
O89	O	1.467213	-0.630973	-0.259747
C90	C	1.360010	-0.590605	-0.267645
H91	H	1.324229	-0.579687	-0.153207
H92	H	1.283726	-0.609298	-0.332646
C93	C	1.438237	-0.549416	-0.483610
C94	C	1.394296	-0.536003	-0.343054
H95	H	1.459383	-0.515736	-0.530131
H96	H	1.510460	-0.576614	-0.478293
H97	H	1.374659	-0.564995	-0.537759
H98	H	1.457880	-0.520432	-0.288903
H99	H	1.322085	-0.508801	-0.348364
O100	O	1.636472	0.009714	0.657616
C101	C	1.616540	-0.046715	0.620561
H102	H	1.568510	-0.046824	0.510021
H103	H	1.554460	-0.064467	0.706206
C104	C	1.802499	-0.084096	0.749480
C105	C	1.743518	-0.084230	0.613707
H106	H	1.880824	-0.107238	0.745259
H107	H	1.815926	-0.046079	0.774450
H108	H	1.750753	-0.098888	0.820837
H109	H	1.795257	-0.069431	0.542357
H110	H	1.730103	-0.122245	0.588725
H111	H	1.403739	0.114984	0.406234
H112	H	1.053214	0.084654	-0.107214
H113	H	1.471627	-0.470197	-0.370924
O114	O	1.478812	-0.201657	-0.259753
C115	C	1.586008	-0.242029	-0.267685
H116	H	1.621806	-0.252946	-0.153258
H117	H	1.662286	-0.223339	-0.332716
C118	C	1.507740	-0.283218	-0.483615
C119	C	1.551701	-0.296630	-0.343073
H120	H	1.486581	-0.316898	-0.530123
H121	H	1.435521	-0.256018	-0.478275
H122	H	1.571312	-0.267642	-0.537789
H123	H	1.488124	-0.312199	-0.288896
H124	H	1.623909	-0.323835	-0.348405
H125	H	1.403765	0.114989	0.593863
H126	H	1.474456	-0.362434	-0.370925
H127	H	1.481583	-0.089133	-0.239119
H128	H	0.848302	0.082196	0.232500
H129	H	1.474446	-0.362441	0.370949
H130	H	1.481533	-0.089144	0.239138
H131	H	1.478740	-0.196913	0.239143
H132	H	1.471621	-0.470208	0.370940
H133	H	1.467193	-0.635694	0.239152
H134	H	1.464405	-0.743483	0.239142
