data_functionalizedCrystal
_audit_creation_method	'MofGen! by Chris Wilmer'
_symmetry_space_group_name_H-M	'P1'
_symmetry_Int_Tables_number	1
_symmetry_cell_setting	triclinic
loop_
_symmetry_equiv_pos_as_xyz
  x,y,z
_cell_length_a	10.723023
_cell_length_b	15.021413
_cell_length_c	10.723024
_cell_angle_alpha	89.994776
_cell_angle_beta	95.532291
_cell_angle_gamma	89.992127
loop_
_atom_site_label
_atom_site_type_symbol
_atom_site_fract_x
_atom_site_fract_y
_atom_site_fract_z
O1	O	-1.657196	0.074040	0.175006
O2	O	-1.294043	0.074039	0.191760
O3	O	-1.483996	0.074036	0.001807
O4	O	-1.467243	0.074043	0.364959
O5	O	-1.483966	-0.074028	0.001834
O6	O	-1.294013	-0.074025	0.191787
O7	O	-1.657166	-0.074024	0.175033
Zn8	Zn	-1.475585	-0.097533	0.183415
Zn9	Zn	-1.475624	0.097548	0.183379
O10	O	-1.467213	-0.074021	0.364986
C11	C	-1.247529	0.000007	0.190555
C12	C	-1.108974	0.000007	0.186908
C13	C	-1.047218	0.076708	0.185267
C14	C	-0.904015	0.076710	0.181498
N15	N	-1.475566	-0.230670	0.183438
C16	C	-1.387718	-0.470352	0.271231
C17	C	-1.500688	-0.529686	0.296416
C18	C	-1.475598	-0.412277	0.183407
C19	C	-1.362660	-0.529685	0.158250
C20	C	-1.475619	-0.587701	0.183380
C21	C	-1.588625	-0.470305	0.208649
C22	C	-1.450522	-0.470299	0.070433
C23	C	-1.563573	-0.529606	0.095572
C24	C	-1.475585	-0.311220	0.183426
C25	C	-1.475645	-0.688757	0.183361
C26	C	-0.703680	0.000008	0.176239
C27	C	-0.842235	0.000008	0.179886
C28	C	-1.482762	0.000005	-0.044679
C29	C	-1.479114	0.000009	-0.183233
N30	N	-1.475652	0.230686	0.183345
C31	C	-1.585402	0.000010	-0.258216
C32	C	-1.581634	0.000013	-0.401420
C33	C	-1.468447	0.000012	0.411473
C34	C	-1.472095	0.000015	0.550027
H35	H	-1.313477	-0.444336	0.345562
N36	N	-1.702165	0.000007	-0.486764
H37	H	-1.705750	0.054894	-0.541403
H38	H	-1.775716	-0.000029	-0.434596
N39	N	-1.351563	0.000013	-0.364630
H40	H	-1.301302	0.054900	-0.381142
H41	H	-1.301381	-0.054911	-0.381173
H42	H	-1.385328	0.000014	-0.225055
H43	H	-1.637980	-0.555459	0.021287
H44	H	-1.521916	-0.555771	0.391944
N45	N	-1.715185	-0.435911	0.236964
H46	H	-1.714386	-0.368676	0.236836
H47	H	-1.734263	-0.458103	0.321983
H48	H	-1.267141	-0.555771	0.136984
N49	N	-1.117599	0.163696	0.187110
H50	H	-1.209922	0.151365	0.189543
H51	H	-1.104369	0.198960	0.109279
H52	H	-1.055828	-0.065659	0.185528
N53	N	-1.422367	-0.435703	-0.056060
H54	H	-1.487856	-0.458196	-0.122614
H55	H	-1.336954	-0.457269	-0.074866
H56	H	-1.679188	0.000005	-0.216394
N57	N	-0.833683	0.163699	0.179616
H58	H	-0.741354	0.151370	0.177186
H59	H	-0.846926	0.198969	0.257432
N60	N	-0.912554	-0.086988	0.181753
H61	H	-0.976027	-0.090540	0.105954
H62	H	-0.957041	-0.090483	0.260448
