data_functionalizedCrystal
_audit_creation_method	'MofGen! by Chris Wilmer'
_symmetry_space_group_name_H-M	'P1'
_symmetry_Int_Tables_number	1
_symmetry_cell_setting	triclinic
loop_
_symmetry_equiv_pos_as_xyz
  x,y,z
_cell_length_a	11.026607
_cell_length_b	14.853567
_cell_length_c	10.065875
_cell_angle_alpha	98.805381
_cell_angle_beta	79.302338
_cell_angle_gamma	96.110474
loop_
_atom_site_label
_atom_site_type_symbol
_atom_site_fract_x
_atom_site_fract_y
_atom_site_fract_z
O1	O	1.628533	0.367252	-0.113466
O2	O	1.275155	0.324252	-0.113471
O3	O	1.461284	0.216045	-0.113472
O4	O	1.442404	0.475459	-0.113464
O5	O	1.425792	0.236785	0.113517
O6	O	1.239663	0.344992	0.113518
O7	O	1.593041	0.387992	0.113524
Zn8	Zn	1.410717	0.369785	0.149560
Zn9	Zn	1.457479	0.342459	-0.149507
O10	O	1.406912	0.496199	0.113525
C11	C	1.212185	0.326689	0.000023
C12	C	1.077432	0.303041	0.000021
C13	C	1.003736	0.368337	0.000022
C14	C	0.864461	0.343897	0.000019
C15	C	1.442683	0.192688	0.000018
C16	C	1.440122	0.092190	0.000007
C17	C	1.318718	-0.339931	0.000031
C18	C	1.539843	-0.325531	0.000034
C19	C	1.542254	-0.231109	0.000026
C20	C	1.432895	-0.191094	0.000022
C21	C	1.321126	-0.245500	0.000027
C22	C	1.654020	-0.176694	0.000035
C23	C	1.656436	-0.082266	0.000029
C24	C	1.547077	-0.042250	0.000016
C25	C	1.435303	-0.096663	0.000019
C26	C	1.325944	-0.056648	0.000015
C27	C	1.214170	-0.111060	0.000008
C28	C	1.211767	-0.205484	0.000014
C29	C	1.549480	0.052174	0.000010
C30	C	1.328352	0.037783	0.000011
C31	C	1.656012	0.385555	0.000027
C32	C	1.790767	0.409202	0.000020
C33	C	1.425514	0.519556	0.000031
C34	C	1.428077	0.620053	0.000034
N35	N	1.378812	0.388434	0.353666
N36	N	1.489394	0.323804	-0.353613
C37	C	1.446371	0.348941	0.421444
C38	C	1.421825	0.363303	0.578612
H39	H	1.037421	0.229043	-0.000017
N40	N	1.210387	0.080929	0.000021
H41	H	1.193299	0.127471	0.084171
H42	H	1.219681	0.112047	-0.084174
N43	N	1.321130	0.422175	0.655860
H44	H	1.339304	0.486190	0.631067
H45	H	1.238795	0.395613	0.631048
H46	H	1.125130	-0.078466	0.000015
N47	N	0.811475	0.245874	0.000005
H48	H	0.879791	0.205656	0.000004
H49	H	0.746395	0.240914	0.084152
N50	N	1.590082	0.264922	0.569151
H51	H	1.593346	0.263005	0.467824
H52	H	1.672406	0.291440	0.594037
N53	N	1.278114	0.447300	0.430910
H54	H	1.274851	0.449213	0.532237
H55	H	1.296351	0.511283	0.406008
N56	N	0.843745	0.507227	0.000037
H57	H	0.935727	0.510794	0.000040
H58	H	0.828572	0.530536	-0.084110
H59	H	1.043751	0.442332	0.000032
N60	N	1.091219	-0.264168	0.000012
H61	H	1.106290	-0.330057	0.000023
H62	H	1.030205	-0.243113	0.084159
N63	N	1.657778	-0.368693	0.000054
H64	H	1.674862	-0.415245	-0.084085
H65	H	1.728877	-0.319844	0.000103
N66	N	1.198162	-0.398605	0.000025
H67	H	1.205388	-0.445792	-0.084120
H68	H	1.179137	-0.430352	0.084225
N69	N	1.771952	-0.219861	0.000056
H70	H	1.789039	-0.266407	-0.084088
H71	H	1.843053	-0.171014	0.000119
H72	H	1.747449	-0.037972	0.000032
H73	H	1.640484	0.096473	0.000025
H74	H	1.522379	0.304493	0.363120
