data_functionalizedCrystal
_audit_creation_method	'MofGen! by Chris Wilmer'
_symmetry_space_group_name_H-M	'P1'
_symmetry_Int_Tables_number	1
_symmetry_cell_setting	triclinic
loop_
_symmetry_equiv_pos_as_xyz
  x,y,z
_cell_length_a	10.654541
_cell_length_b	23.532407
_cell_length_c	9.130307
_cell_angle_alpha	89.992076
_cell_angle_beta	89.999822
_cell_angle_gamma	83.666303
loop_
_atom_site_label
_atom_site_type_symbol
_atom_site_fract_x
_atom_site_fract_y
_atom_site_fract_z
O1	O	1.665305	0.079977	-0.121771
O2	O	1.299584	0.087599	-0.121786
O3	O	1.493473	0.000928	-0.121751
O4	O	1.471416	0.166648	-0.121806
O5	O	1.493467	0.000928	0.121848
O6	O	1.299578	0.087598	0.121813
O7	O	1.665299	0.079977	0.121828
Cu8	Cu	1.482438	0.083787	0.144063
Cu9	Cu	1.482445	0.083788	-0.144021
O10	O	1.471410	0.166647	0.121793
C11	C	1.252801	0.087039	0.000012
C12	C	1.113410	0.085366	0.000008
C13	C	1.492908	-0.020292	0.000052
C14	C	1.491219	-0.083520	0.000063
C15	C	1.082156	0.189004	-0.000044
C16	C	1.001045	0.240035	-0.000076
C17	C	0.870077	0.238459	-0.000077
C18	C	0.820218	0.185847	-0.000042
C19	C	0.901329	0.134816	-0.000010
C20	C	1.032299	0.136398	-0.000013
C21	C	0.932583	0.031179	0.000053
C22	C	1.063552	0.032754	0.000043
C23	C	0.882725	-0.021433	0.000088
C24	C	0.963837	-0.072465	0.000110
C25	C	1.094812	-0.070887	0.000109
C26	C	1.144663	-0.018277	0.000075
C27	C	1.595367	-0.481945	-0.000013
C28	C	1.593798	-0.541355	-0.000024
O29	O	1.690344	-0.577471	-0.000074
N30	N	1.478531	-0.564732	-0.000028
C31	C	1.364826	-0.528695	-0.000035
O32	O	1.266639	-0.554034	-0.000040
C33	C	1.366396	-0.469285	-0.000034
C34	C	1.481670	-0.445912	-0.000016
C35	C	1.710632	-0.458571	0.000004
C36	C	1.712200	-0.399164	0.000018
C37	C	1.598503	-0.363132	0.000015
C38	C	1.483238	-0.386506	-0.000002
C39	C	1.252692	-0.433249	-0.000052
C40	C	1.254272	-0.373836	-0.000052
C41	C	1.369546	-0.350463	-0.000034
C42	C	1.371110	-0.291067	0.000009
N43	N	1.486377	-0.267690	0.000013
C44	C	1.600073	-0.303723	0.000016
C45	C	1.361537	-0.653459	-0.000039
C46	C	1.359966	-0.712867	-0.000029
C47	C	1.588939	-0.725523	-0.000021
C48	C	1.590509	-0.666114	-0.000020
C49	C	1.476804	-0.630082	-0.000035
C50	C	1.603358	-0.178964	0.000046
C51	C	1.604916	-0.119552	0.000066
C52	C	1.375944	-0.106901	0.000050
C53	C	1.374385	-0.166308	0.000038
C54	C	1.488102	-0.202339	0.000031
O55	O	1.274615	-0.254916	0.000054
O56	O	1.698244	-0.278375	0.000002
C57	C	1.712082	0.080536	0.000026
C58	C	1.851472	0.082210	0.000021
C59	C	1.471975	0.187867	-0.000013
C60	C	1.473663	0.251096	-0.000034
N61	N	1.482442	0.083786	0.346686
N62	N	1.482451	0.083785	-0.346644
C63	C	1.654199	0.007062	0.346706
C64	C	1.740086	-0.031299	0.423383
C65	C	1.740098	-0.031299	0.576717
C66	C	1.654212	0.007064	0.653377
C67	C	1.568325	0.045425	0.576700
C68	C	1.568325	0.045422	0.423363
C69	C	1.396564	0.122146	0.576679
C70	C	1.396555	0.122150	0.423346
C71	C	1.310678	0.160509	0.653339
C72	C	1.224795	0.198873	0.576662
C73	C	1.224787	0.198872	0.423320
C74	C	1.310669	0.160510	0.346669
H75	H	1.188795	0.190293	-0.000076
O76	O	1.285922	-0.016577	0.000086
H77	H	1.306959	0.028579	0.000071
O78	O	1.310683	0.160510	0.818721
H79	H	1.330210	0.203142	0.859122
H80	H	1.154867	0.230103	0.639088
H81	H	1.654208	0.007063	0.221854
O82	O	1.836537	-0.373962	0.000023
H83	H	1.818548	-0.326597	0.000038
H84	H	1.803222	-0.487903	0.000001
O85	O	0.782580	0.293497	-0.000114
H86	H	0.839246	0.330346	-0.000146
O87	O	1.182297	-0.125928	0.000145
H88	H	1.125619	-0.162773	0.000162
H89	H	0.923230	-0.115298	0.000137
O90	O	1.132154	0.240249	0.340617
H91	H	1.072447	0.266925	0.419689
H92	H	1.684375	-0.647088	-0.000007
H93	H	1.698790	-0.100525	0.000085
H94	H	0.713576	0.184568	-0.000025
O95	O	1.054816	0.296781	-0.000118
H96	H	1.159512	0.289306	-0.000126
H97	H	1.310674	0.160508	0.221817
O98	O	0.741468	-0.023138	0.000092
H99	H	0.693440	0.021185	0.000050
O100	O	1.238888	-0.614598	-0.000013
H101	H	1.183679	-0.622965	-0.099290
H102	H	1.695957	-0.208294	0.000035
H103	H	1.266098	-0.731892	-0.000019
O104	O	1.711578	-0.764391	-0.000024
H105	H	1.716339	-0.791750	-0.099321
H106	H	1.158824	-0.452269	-0.000076
O107	O	1.131631	-0.334972	-0.000051
H108	H	1.051220	-0.361210	-0.000049
H109	H	1.280520	-0.185339	0.000064
O110	O	1.253316	-0.068032	0.000053
H111	H	1.248565	-0.040659	-0.099238
O112	O	1.832685	-0.072691	0.340706
H113	H	1.818247	-0.066251	0.221201
O114	O	1.832738	-0.072668	0.659433
H115	H	1.892465	-0.099341	0.580375
O116	O	1.654219	0.007066	0.818758
H117	H	1.728373	-0.026052	0.859197
