data_functionalizedCrystal
_audit_creation_method	'MofGen! by Chris Wilmer'
_symmetry_space_group_name_H-M	'P1'
_symmetry_Int_Tables_number	1
_symmetry_cell_setting	triclinic
loop_
_symmetry_equiv_pos_as_xyz
  x,y,z
_cell_length_a	14.519709
_cell_length_b	14.472310
_cell_length_c	14.519709
_cell_angle_alpha	89.997999
_cell_angle_beta	96.319855
_cell_angle_gamma	90.007418
loop_
_atom_site_label
_atom_site_type_symbol
_atom_site_fract_x
_atom_site_fract_y
_atom_site_fract_z
O1	O	1.223880	0.076723	-0.120885
O2	O	1.473880	0.326723	0.129115
O3	O	1.723880	0.576723	0.379115
O4	O	1.973880	0.826723	0.629115
O5	O	0.955403	0.076751	-0.135121
O6	O	1.205403	0.326751	0.114879
O7	O	1.455403	0.576751	0.364879
O8	O	1.705403	0.826751	0.614879
O9	O	1.096759	0.076728	0.006235
O10	O	1.346759	0.326728	0.256235
O11	O	1.596759	0.576728	0.506235
O12	O	1.846759	0.826728	0.756235
O13	O	1.082523	0.076746	-0.262242
O14	O	1.332523	0.326746	-0.012242
O15	O	1.582523	0.576746	0.237758
O16	O	1.832523	0.826746	0.487758
O17	O	1.096723	-0.076954	0.006227
O18	O	1.346723	0.173046	0.256227
O19	O	1.596723	0.423046	0.506227
O20	O	1.846723	0.673046	0.756227
O21	O	0.955366	-0.076931	-0.135130
O22	O	1.205366	0.173069	0.114870
O23	O	1.455366	0.423069	0.364870
O24	O	1.705366	0.673069	0.614870
O25	O	1.223843	-0.076959	-0.120893
O26	O	1.473843	0.173041	0.129107
O27	O	1.723843	0.423041	0.379107
O28	O	1.973843	0.673041	0.629107
Cu29	Cu	1.089601	-0.090978	-0.128012
Cu30	Cu	1.339601	0.159022	0.121988
Cu31	Cu	1.589601	0.409022	0.371988
Cu32	Cu	1.839601	0.659022	0.621988
Cu33	Cu	1.089644	0.090769	-0.128002
Cu34	Cu	1.339644	0.340769	0.121998
Cu35	Cu	1.589644	0.590769	0.371998
Cu36	Cu	1.839644	0.840769	0.621998
O37	O	1.082486	-0.076936	-0.262250
O38	O	1.332486	0.173064	-0.012250
O39	O	1.582486	0.423064	0.237750
O40	O	1.832486	0.673064	0.487750
C41	C	0.921025	-0.000086	-0.134462
C42	C	1.171025	0.249914	0.115538
C43	C	1.421025	0.499914	0.365538
C44	C	1.671025	0.749914	0.615538
C45	C	0.818643	-0.000076	-0.132474
C46	C	1.068643	0.249924	0.117526
C47	C	1.318643	0.499924	0.367526
C48	C	1.568643	0.749924	0.617526
N49	N	1.089578	-0.218808	-0.128018
N50	N	1.339578	0.031192	0.121982
N51	N	1.589578	0.281192	0.371982
N52	N	1.839578	0.531192	0.621982
C53	C	0.443748	-0.000118	-0.125154
C54	C	0.693748	0.249882	0.124846
C55	C	0.943748	0.499882	0.374846
C56	C	1.193748	0.749882	0.624846
C57	C	0.548056	-0.000106	-0.127187
C58	C	0.798056	0.249894	0.122813
C59	C	1.048056	0.499894	0.372813
C60	C	1.298056	0.749894	0.622813
C61	C	0.631192	-0.000096	-0.128814
C62	C	0.881192	0.249904	0.121186
C63	C	1.131192	0.499904	0.371186
C64	C	1.381192	0.749904	0.621186
C65	C	0.735507	-0.000086	-0.130847
C66	C	0.985507	0.249914	0.119153
C67	C	1.235507	0.499914	0.369153
C68	C	1.485507	0.749914	0.619153
C69	C	1.089643	-0.592900	-0.127999
C70	C	1.339643	-0.342900	0.122001
C71	C	1.589643	-0.092900	0.372001
C72	C	1.839643	0.157100	0.622001
C73	C	1.013752	-0.553721	-0.203381
C74	C	1.263752	-0.303721	0.046619
C75	C	1.513752	-0.053721	0.296619
C76	C	1.763752	0.196279	0.546619
C77	C	1.013927	-0.446633	-0.203657
C78	C	1.263927	-0.196633	0.046343
C79	C	1.513927	0.053367	0.296343
C80	C	1.763927	0.303367	0.546343
C81	C	1.089610	-0.407309	-0.128009
C82	C	1.339610	-0.157309	0.121991
C83	C	1.589610	0.092691	0.371991
C84	C	1.839610	0.342691	0.621991
C85	C	1.185870	-0.446154	-0.149184
C86	C	1.435870	-0.196154	0.100816
C87	C	1.685870	0.053846	0.350816
C88	C	1.935870	0.303846	0.600816
C89	C	1.185444	-0.553276	-0.149720
C90	C	1.435444	-0.303276	0.100280
C91	C	1.685444	-0.053276	0.350280
C92	C	1.935444	0.196724	0.600280
C93	C	1.070132	-0.553433	-0.031218
C94	C	1.320132	-0.303433	0.218782
C95	C	1.570132	-0.053433	0.468782
C96	C	1.820132	0.196567	0.718782
C97	C	1.067927	-0.446305	-0.031859
C98	C	1.317927	-0.196305	0.218141
C99	C	1.567927	0.053695	0.468141
C100	C	1.817927	0.303695	0.718141
C101	C	1.089597	-0.302420	-0.128012
C102	C	1.339597	-0.052420	0.121988
C103	C	1.589597	0.197580	0.371988
C104	C	1.839597	0.447580	0.621988
C105	C	1.089662	-0.697788	-0.127997
C106	C	1.339662	-0.447788	0.122003
C107	C	1.589662	-0.197788	0.372003
C108	C	1.839662	0.052212	0.622003
C109	C	1.258221	-0.000120	-0.121553
C110	C	1.508221	0.249880	0.128447
C111	C	1.758221	0.499880	0.378447
C112	C	2.008221	0.749880	0.628447
C113	C	1.360602	-0.000124	-0.123541
C114	C	1.610602	0.249876	0.126459
C115	C	1.860602	0.499876	0.376459
C116	C	2.110602	0.749876	0.626459
C117	C	1.096078	-0.000113	0.040591
C118	C	1.346078	0.249887	0.290591
C119	C	1.596078	0.499887	0.540591
C120	C	1.846078	0.749887	0.790591
C121	C	1.094089	-0.000114	0.142972
C122	C	1.344089	0.249886	0.392972
C123	C	1.594089	0.499886	0.642972
C124	C	1.844089	0.749886	0.892972
N125	N	1.089675	0.218600	-0.127989
N126	N	1.339675	0.468600	0.122011
N127	N	1.589675	0.718600	0.372011
N128	N	1.839675	0.968600	0.622011
C129	C	1.083168	-0.000093	-0.296606
C130	C	1.333168	0.249907	-0.046606
C131	C	1.583168	0.499907	0.203394
C132	C	1.833168	0.749907	0.453394
C133	C	1.085156	-0.000087	-0.398987
C134	C	1.335156	0.249913	-0.148987
C135	C	1.585156	0.499913	0.101013
C136	C	1.835156	0.749913	0.351013
C137	C	1.086770	-0.000089	0.517868
C138	C	1.336770	0.249911	0.767868
C139	C	1.586770	0.499911	1.017868
C140	C	1.836770	0.749911	1.267868
C141	C	1.088803	-0.000096	0.413560
C142	C	1.338803	0.249904	0.663560
C143	C	1.588803	0.499904	0.913560
C144	C	1.838803	0.749904	1.163560
C145	C	1.090430	-0.000102	0.330423
C146	C	1.340430	0.249898	0.580423
C147	C	1.590430	0.499898	0.830423
C148	C	1.840430	0.749898	1.080423
C149	C	1.092463	-0.000108	0.226109
C150	C	1.342463	0.249892	0.476109
C151	C	1.592463	0.499892	0.726109
C152	C	1.842463	0.749892	0.976109
H153	H	0.942380	-0.420371	-0.191017
H154	H	1.192380	-0.170371	0.058983
H155	H	1.442380	0.079629	0.308983
H156	H	1.692380	0.329629	0.558983
F157	F	1.261460	-0.412863	-0.079337
F158	F	1.511460	-0.162863	0.170663
F159	F	1.761460	0.087137	0.420663
F160	F	2.011460	0.337137	0.670663
H161	H	1.026403	-0.420996	-0.275473
H162	H	1.276403	-0.170996	-0.025473
H163	H	1.526403	0.079004	0.224527
H164	H	1.776403	0.329004	0.474527
F165	F	0.980350	-0.588778	-0.004668
F166	F	1.230350	-0.338778	0.245332
F167	F	1.480350	-0.088778	0.495332
F168	F	1.730350	0.161222	0.745332
H169	H	1.203446	-0.419314	-0.218967
H170	H	1.453446	-0.169314	0.031033
H171	H	1.703446	0.080686	0.281033
H172	H	1.953446	0.330686	0.531033
H173	H	1.026056	-0.580628	-0.274793
H174	H	1.276056	-0.330628	-0.024793
H175	H	1.526056	-0.080628	0.225207
H176	H	1.776056	0.169372	0.475207
F177	F	0.975371	-0.413122	-0.010857
F178	F	1.225371	-0.163122	0.239143
F179	F	1.475371	0.086878	0.489143
F180	F	1.725371	0.336878	0.739143
H181	H	1.202613	-0.578249	-0.220307
H182	H	1.452613	-0.328249	0.029693
H183	H	1.702613	-0.078249	0.279693
H184	H	1.952613	0.171751	0.529693
F185	F	1.142467	-0.586548	0.042109
F186	F	1.392467	-0.336548	0.292109
F187	F	1.642467	-0.086548	0.542109
F188	F	1.892467	0.163452	0.792109
H189	H	0.941973	-0.579502	-0.190947
H190	H	1.191973	-0.329502	0.059053
H191	H	1.441973	-0.079502	0.309053
H192	H	1.691973	0.170498	0.559053
H193	H	1.119600	-0.419540	0.026878
H194	H	1.369600	-0.169540	0.276878
H195	H	1.619600	0.080460	0.526878
H196	H	1.869600	0.330460	0.776878
F197	F	1.261420	-0.587152	-0.080624
F198	F	1.511420	-0.337152	0.169376
F199	F	1.761420	-0.087152	0.419376
F200	F	2.011420	0.162848	0.669376
