data_functionalizedCrystal
_audit_creation_method	'MofGen! by Chris Wilmer'
_symmetry_space_group_name_H-M	'P1'
_symmetry_Int_Tables_number	1
_symmetry_cell_setting	triclinic
loop_
_symmetry_equiv_pos_as_xyz
  x,y,z
_cell_length_a	11.026607
_cell_length_b	9.130307
_cell_length_c	11.026607
_cell_angle_alpha	90.001728
_cell_angle_beta	108.586017
_cell_angle_gamma	90.001089
loop_
_atom_site_label
_atom_site_type_symbol
_atom_site_fract_x
_atom_site_fract_y
_atom_site_fract_z
O1	O	1.726728	0.121796	0.533620
O2	O	1.360148	0.121798	0.472857
O3	O	1.513056	0.121792	0.319949
O4	O	1.573819	0.121802	0.686529
O5	O	1.513049	-0.121807	0.319945
O6	O	1.360141	-0.121801	0.472854
O7	O	1.726721	-0.121803	0.533617
Cu8	Cu	1.543430	-0.144045	0.503235
Cu9	Cu	1.543438	0.144040	0.503239
O10	O	1.573813	-0.121797	0.686525
C11	C	1.312485	-0.000001	0.461645
C12	C	1.170471	-0.000000	0.428228
N13	N	1.543434	-0.346667	0.503234
C14	C	1.116821	0.000003	0.520498
C15	C	0.970043	0.000004	0.485962
C16	C	1.678915	-0.346663	0.367899
C17	C	1.746665	-0.423327	0.300237
C18	C	1.746678	-0.576661	0.300238
C19	C	1.678930	-0.653333	0.367906
C20	C	1.611180	-0.576669	0.435569
C21	C	1.611178	-0.423332	0.435562
C22	C	1.475693	-0.576673	0.570894
C23	C	1.475686	-0.423340	0.570902
C24	C	1.407945	-0.653346	0.638563
C25	C	1.340201	-0.576681	0.706234
C26	C	1.340192	-0.423338	0.706230
C27	C	1.407936	-0.346675	0.638564
C28	C	1.774384	-0.000001	0.544828
C29	C	1.916398	0.000008	0.578245
C30	C	1.501843	-0.000006	0.272287
C31	C	1.468426	-0.000000	0.130273
N32	N	1.543443	0.346662	0.503232
C33	C	1.560695	0.000001	0.076624
C34	C	1.526160	0.000007	-0.070155
C35	C	1.585026	0.000004	0.734187
C36	C	1.618443	0.000008	0.876200
H37	H	0.907314	0.000039	0.381393
C38	C	1.328975	0.000308	0.046702
C39	C	1.268529	0.125651	0.072917
C40	C	1.140069	0.125996	-0.004052
H41	H	1.287576	-0.084542	0.064251
H42	H	1.324240	0.000392	-0.040851
H43	H	1.273256	0.125554	0.160450
H44	H	1.309889	0.210521	0.055362
H45	H	1.135333	0.126080	-0.091605
H46	H	1.098682	0.041141	0.013502
H47	H	1.099043	0.211046	0.013715
C48	C	1.700145	0.000306	0.160198
C49	C	1.760598	0.125654	0.133999
C50	C	1.889057	0.125998	0.210973
H51	H	1.741541	-0.084541	0.142643
H52	H	1.704876	0.000385	0.247750
H53	H	1.755875	0.125561	0.046468
H54	H	1.719240	0.210521	0.151562
H55	H	1.893789	0.126077	0.298525
H56	H	1.930441	0.041145	0.193412
H57	H	1.930088	0.211050	0.193217
C58	C	1.386702	0.000315	-0.153722
C59	C	1.326256	0.125659	-0.127507
C60	C	1.197796	0.126003	-0.204476
H61	H	1.345303	-0.084535	-0.136173
H62	H	1.381967	0.000399	-0.241274
H63	H	1.330983	0.125561	-0.039974
H64	H	1.367616	0.210528	-0.145062
H65	H	1.193061	0.126087	-0.292029
H66	H	1.156410	0.041148	-0.186922
H67	H	1.156770	0.211053	-0.186709
H68	H	1.723013	0.000118	-0.061072
C69	C	1.820050	-0.339853	0.226739
C70	C	1.735187	-0.251755	0.133880
C71	C	1.802764	-0.174811	0.066192
H72	H	1.860443	-0.407270	0.186330
H73	H	1.883056	-0.279975	0.284227
H74	H	1.672204	-0.311628	0.076401
H75	H	1.694792	-0.184311	0.174254
H76	H	1.865770	-0.114933	0.123680
H77	H	1.843154	-0.242239	0.025792
H78	H	1.745197	-0.115017	0.003188
H79	H	1.179555	-0.000002	0.625061
H80	H	1.678925	-0.221811	0.367903
C81	C	0.999972	-0.000283	0.717700
C82	C	0.973773	-0.125621	0.778164
C83	C	1.050752	-0.125945	0.906620
H84	H	0.982421	0.084571	0.759093
H85	H	1.087522	-0.000362	0.722428
H86	H	0.886242	-0.125529	0.773444
H87	H	0.991331	-0.210495	0.736809
H88	H	1.138302	-0.126024	0.911348
H89	H	1.033195	-0.041086	0.948001
H90	H	1.032995	-0.210991	0.947658
H91	H	1.107738	0.000035	0.323666
H92	H	1.801840	-0.639081	0.245137
H93	H	1.407952	-0.778198	0.638555
C94	C	1.266608	-0.340372	0.779825
C95	C	1.207311	-0.440344	0.839104
C96	C	1.139528	-0.363976	0.906926
H97	H	1.203458	-0.280556	0.722485
H98	H	1.324012	-0.280585	0.842984
H99	H	1.149912	-0.500106	0.775953
H100	H	1.270431	-0.500164	0.896465
H101	H	1.196932	-0.304188	0.970085
H102	H	1.076385	-0.304162	0.849577
H103	H	1.099297	-0.431794	0.947164
H104	H	1.407941	-0.221823	0.638560
H105	H	1.678931	-0.778185	0.367891
H106	H	1.285039	-0.639117	0.761317
