data_functionalizedCrystal
_audit_creation_method	'MofGen! by Chris Wilmer'
_symmetry_space_group_name_H-M	'P1'
_symmetry_Int_Tables_number	1
_symmetry_cell_setting	triclinic
loop_
_symmetry_equiv_pos_as_xyz
  x,y,z
_cell_length_a	14.560432
_cell_length_b	14.560438
_cell_length_c	14.560438
_cell_angle_alpha	60.000905
_cell_angle_beta	90.001606
_cell_angle_gamma	60.001007
loop_
_atom_site_label
_atom_site_type_symbol
_atom_site_fract_x
_atom_site_fract_y
_atom_site_fract_z
Zr1	Zr	0.884748	1.005300	-0.120509
O2	O	0.738099	1.196899	-0.267154
O3	O	0.929703	0.813699	-0.075557
O4	O	0.929699	1.005303	-0.267158
O5	O	0.738107	1.005293	0.075588
O6	O	1.080837	1.005307	-0.267158
O7	O	0.738104	1.005295	-0.075553
O8	O	1.080845	0.662563	0.075581
O9	O	0.738099	1.348037	-0.267151
O10	O	1.061669	0.892511	-0.056383
O11	O	0.948880	0.892506	0.056412
O12	O	0.948874	1.118095	-0.169173
O13	O	0.836085	1.118090	-0.056378
Zr14	Zr	1.125801	1.005302	0.120543
Zr15	Zr	1.125795	1.005306	-0.120509
Zr16	Zr	0.884754	1.005296	0.120543
Zr17	Zr	0.884748	1.246347	-0.120504
Zr18	Zr	1.125801	0.764254	0.120538
O19	O	1.080846	1.196902	0.075591
O20	O	1.080837	1.196908	-0.267154
O21	O	0.738108	1.196893	0.075591
O22	O	1.272450	0.813703	0.267188
O23	O	1.272441	0.813708	-0.075558
O24	O	0.929712	0.813694	0.267188
O25	O	1.272442	1.005309	-0.075554
O26	O	1.080850	1.005298	0.267191
O27	O	0.929713	1.005294	0.267192
O28	O	1.272446	1.005306	0.075587
O29	O	0.929700	1.348042	-0.267151
O30	O	1.080849	0.662560	0.267185
O31	O	1.272450	0.662565	0.267185
O32	O	1.272445	0.662568	0.075580
O33	O	0.738104	1.348034	-0.075547
O34	O	0.929704	1.348039	-0.075547
O35	O	1.061675	0.892507	0.169207
O36	O	1.174464	0.892512	0.056412
O37	O	1.061670	1.118096	-0.056378
O38	O	0.948880	1.118091	0.056417
C39	C	1.005274	0.703787	0.000011
C40	C	1.005274	0.601456	0.000009
C41	C	1.064146	0.553382	-0.058869
C42	C	1.064151	0.457223	-0.058858
C43	C	0.946401	0.457223	0.058910
C44	C	0.946404	0.553374	0.058905
C45	C	0.703761	1.005293	0.000018
C46	C	0.601431	1.005290	0.000018
C47	C	0.719172	0.769778	0.117761
C48	C	0.729966	0.652026	0.176627
C49	C	0.633814	0.652032	0.176624
C50	C	0.526859	0.769802	0.117751
C51	C	0.516065	0.887554	0.058885
C52	C	0.612226	0.887536	0.058892
C53	C	0.398325	1.123063	-0.058850
C54	C	0.494476	1.123061	-0.058855
C55	C	0.291370	1.240833	-0.117723
C56	C	0.280574	1.358588	-0.176597
C57	C	0.376735	1.358578	-0.176592
C58	C	0.483682	1.240813	-0.117721
C59	C	1.306788	1.005309	0.000016
C60	C	1.409119	1.005311	0.000016
C61	C	1.005267	1.005306	-0.301503
C62	C	1.005264	1.005308	-0.403835
C63	C	1.005275	1.306815	0.000023
C64	C	1.005275	1.409146	0.000025
C65	C	0.946388	1.123058	-0.510787
C66	C	0.946401	1.123052	-0.606936
C67	C	1.064169	0.887535	-0.489168
C68	C	1.064161	0.887542	-0.393021
C69	C	1.005282	1.005296	0.301536
C70	C	1.005285	1.005294	0.403869
C71	C	1.306787	0.703795	0.000011
C72	C	1.409118	0.601466	0.000009
C73	C	1.005282	0.703782	0.301531
C74	C	1.005284	0.601449	0.403862
C75	C	1.306795	0.703790	0.301530
C76	C	1.409128	0.601460	0.403861
C77	C	0.703754	1.306812	-0.301496
C78	C	0.601421	1.409142	-0.403827
C79	C	0.703762	1.306807	0.000023
C80	C	0.601431	1.409135	0.000025
C81	C	1.005267	1.306820	-0.301497
C82	C	1.005265	1.409152	-0.403828
C83	C	1.398318	0.553389	-0.058867
C84	C	1.494472	0.457249	-0.058873
C85	C	1.612223	0.457267	0.058882
C86	C	1.516070	0.553413	0.058880
C87	C	1.064162	0.553372	0.510815
C88	C	1.064151	0.457228	0.606962
C89	C	0.946383	0.457244	0.489189
C90	C	0.946388	0.553393	0.393045
C91	C	1.516079	0.553385	0.393061
C92	C	1.612228	0.457243	0.489216
C93	C	1.494461	0.457256	0.606966
C94	C	1.398314	0.553402	0.510813
H95	H	0.898470	0.418065	0.106859
H96	H	0.213081	1.240830	-0.117715
H97	H	1.112114	0.592501	0.519629
H98	H	1.699311	0.418105	0.480415
H99	H	1.112094	0.418089	0.694044
H100	H	0.898462	0.592515	0.106856
H101	H	1.112084	0.592526	-0.106823
N102	N	1.127671	0.760524	-0.477512
H103	H	1.164969	0.685930	-0.395166
H104	H	1.186864	0.755390	-0.514837
N105	N	0.587391	1.240802	-0.117725
H106	H	0.656778	1.148331	-0.071499
H107	H	0.587346	1.287079	-0.084232
H108	H	1.485671	0.418114	0.694056
H109	H	0.797471	0.769762	0.117760
N110	N	0.882805	0.605333	0.277677
H111	H	0.845477	0.560318	0.285412
H112	H	0.936807	0.588655	0.235155
N113	N	0.882870	0.405404	0.477525
H114	H	0.891805	0.337194	0.554660
H115	H	0.913788	0.365590	0.435003
N116	N	1.527737	0.605203	0.277707
H117	H	1.610083	0.560151	0.285461
H118	H	1.490411	0.701724	0.235228
H119	H	1.311224	0.592548	0.519615
H120	H	1.112092	0.418083	-0.106800
H121	H	0.193489	1.454467	-0.224521
N122	N	0.845319	0.525005	0.240115
H123	H	0.854333	0.473513	0.322481
H124	H	0.904528	0.542967	0.231097
N125	N	1.527709	0.605290	0.122373
H126	H	1.570179	0.531950	0.204743
H127	H	1.450525	0.673512	0.113336
N128	N	0.365090	1.485584	-0.240080
H129	H	0.282746	1.560183	-0.277372
H130	H	0.402409	1.490723	-0.299278
N131	N	1.127676	0.760529	-0.277659
H132	H	1.096799	0.709038	-0.268643
H133	H	1.118720	0.778511	-0.218462
H134	H	0.898459	1.218936	-0.694017
H135	H	0.448572	0.769796	0.117766
N136	N	0.645435	0.525039	0.240110
H137	H	0.687909	0.473542	0.322479
H138	H	0.687866	0.473665	0.209130
N139	N	0.882871	1.250070	-0.522445
H140	H	0.845578	1.324662	-0.604791
H141	H	0.936930	1.255204	-0.485115
H142	H	1.311237	0.592524	-0.106816
H143	H	1.699313	0.418128	0.106815
N144	N	1.482832	0.405380	-0.122365
H145	H	1.520094	0.422120	-0.181618
H146	H	1.400469	0.450433	-0.159587
