data_functionalizedCrystal
_audit_creation_method	'MofGen! by Chris Wilmer'
_symmetry_space_group_name_H-M	'P1'
_symmetry_Int_Tables_number	1
_symmetry_cell_setting	triclinic
loop_
_symmetry_equiv_pos_as_xyz
  x,y,z
_cell_length_a	14.044220
_cell_length_b	19.188930
_cell_length_c	12.503572
_cell_angle_alpha	93.506241
_cell_angle_beta	86.164750
_cell_angle_gamma	88.166830
loop_
_atom_site_label
_atom_site_type_symbol
_atom_site_fract_x
_atom_site_fract_y
_atom_site_fract_z
O1	O	1.262485	0.164589	-0.089229
O2	O	1.762485	0.664589	0.410771
O3	O	0.986542	0.158515	-0.089255
O4	O	1.486542	0.658515	0.410745
O5	O	1.132475	0.060411	-0.089220
O6	O	1.632475	0.560411	0.410780
O7	O	1.116552	0.262693	-0.089264
O8	O	1.616552	0.762693	0.410736
O9	O	1.121500	0.067803	0.089419
O10	O	1.621500	0.567803	0.589419
O11	O	0.975567	0.165907	0.089384
O12	O	1.475567	0.665907	0.589384
O13	O	1.251510	0.171980	0.089411
O14	O	1.751510	0.671980	0.589411
Cu15	Cu	1.112536	0.169618	0.105709
Cu16	Cu	1.612536	0.669618	0.605709
Cu17	Cu	1.125516	0.160877	-0.105553
Cu18	Cu	1.625516	0.660877	0.394447
O19	O	1.105577	0.270084	0.089376
O20	O	1.605577	0.770084	0.589376
C21	C	0.945752	0.159553	0.000061
C22	C	1.445752	0.659553	0.500061
C23	C	0.840559	0.151624	0.000052
C24	C	1.340559	0.651624	0.500052
C25	C	1.126472	0.038063	0.000102
C26	C	1.626472	0.538063	0.500102
C27	C	1.124923	-0.039541	0.000112
C28	C	1.624923	0.460459	0.500112
C29	C	0.647956	0.137129	0.000077
C30	C	1.147956	0.637129	0.500077
C31	C	0.590090	0.193363	0.000069
C32	C	1.090090	0.693363	0.500069
C33	C	0.482920	0.185298	0.000083
C34	C	0.982920	0.685298	0.500083
C35	C	0.755137	0.145193	0.000063
C36	C	1.255137	0.645193	0.500063
C37	C	1.210552	-0.078939	0.000125
C38	C	1.710552	0.421061	0.500125
C39	C	1.209099	-0.151857	0.000108
C40	C	1.709099	0.348143	0.500108
C41	C	1.122010	-0.185374	0.000098
C42	C	1.622010	0.314626	0.500098
C43	C	1.036370	-0.145968	0.000079
C44	C	1.536370	0.354032	0.500079
C45	C	1.037826	-0.073051	0.000086
C46	C	1.537826	0.426949	0.500086
N47	N	1.051706	-0.295160	0.060886
N48	N	1.551706	0.204840	0.560886
N49	N	1.050328	-0.364427	0.060882
N50	N	1.550328	0.135573	0.560882
C51	C	1.117616	-0.405067	0.000076
C52	C	1.617616	0.094933	0.500076
N53	N	1.186348	-0.373823	-0.060712
N54	N	1.686348	0.126177	0.439288
N55	N	1.187729	-0.304548	-0.060704
N56	N	1.687729	0.195452	0.439296
C57	C	1.120421	-0.264440	0.000091
C58	C	1.620421	0.235560	0.500091
C59	C	1.201676	-0.523532	0.000069
C60	C	1.701676	-0.023532	0.500069
C61	C	1.200219	-0.596451	0.000045
C62	C	1.700219	-0.096451	0.500045
C63	C	1.027487	-0.590560	0.000028
C64	C	1.527487	-0.090560	0.500028
C65	C	1.028947	-0.517642	0.000041
C66	C	1.528947	-0.017642	0.500041
C67	C	1.116043	-0.484132	0.000067
C68	C	1.616043	0.015868	0.500067
C69	C	1.292301	0.170943	0.000092
C70	C	1.792301	0.670943	0.500092
C71	C	1.397493	0.178872	0.000094
C72	C	1.897493	0.678872	0.500094
C73	C	1.111580	0.292433	0.000051
C74	C	1.611580	0.792433	0.500051
C75	C	1.113129	0.370037	0.000034
C76	C	1.613129	0.870037	0.500034
N77	N	1.103414	0.175766	0.254299
N78	N	1.603414	0.675766	0.754299
N79	N	1.134645	0.154724	-0.254143
N80	N	1.634645	0.654724	0.245857
C81	C	1.089995	0.184816	0.473411
C82	C	1.589995	0.684816	0.973411
C83	C	1.148061	0.145676	0.526752
C84	C	1.648061	0.645676	1.026752
C85	C	1.140595	0.150712	0.648673
C86	C	1.640595	0.650712	1.148673
C87	C	1.097461	0.179782	0.351478
C88	C	1.597461	0.679782	0.851478
H89	H	0.621038	0.247564	0.000052
H90	H	1.121038	0.747564	0.500052
O91	O	1.023923	0.229317	0.527991
O92	O	1.523923	0.729317	1.027991
C93	C	0.971414	0.264738	0.454391
C94	C	1.471414	0.764738	0.954391
H95	H	0.975226	0.232797	0.374195
H96	H	1.475226	0.732797	0.874195
H97	H	0.893741	0.272064	0.486994
H98	H	1.393741	0.772064	0.986994
H99	H	1.002814	0.317995	0.442470
H100	H	1.502814	0.817995	0.942470
O101	O	0.611201	0.072421	0.000132
O102	O	1.111201	0.572421	0.500132
C103	C	0.686108	0.021713	0.000100
C104	C	1.186108	0.521713	0.500100
H105	H	0.751158	0.046772	0.033917
H106	H	1.251158	0.546772	0.533917
H107	H	0.662349	-0.022253	0.051963
H108	H	1.162349	0.477747	0.551963
H109	H	0.705387	-0.000384	-0.085604
H110	H	1.205387	0.499616	0.414396
O111	O	1.295241	-0.046502	0.000095
O112	O	1.795241	0.453498	0.500095
C113	C	1.370507	-0.096916	0.000132
C114	C	1.870507	0.403084	0.500132
H115	H	1.346228	-0.149425	-0.033697
H116	H	1.846228	0.350575	0.466303
H117	H	1.434520	-0.080049	-0.051720
H118	H	1.934520	0.419951	0.448280
H119	H	1.391636	-0.102041	0.085838
H120	H	1.891636	0.397959	0.585838
H121	H	1.278831	-0.183941	0.000114
H122	H	1.778831	0.316059	0.500114
H123	H	0.965462	-0.173262	0.000069
H124	H	1.465462	0.326738	0.500069
H125	H	1.203381	0.108386	0.480852
H126	H	1.703381	0.608386	0.980852
H127	H	0.956578	-0.617849	0.000015
H128	H	1.456578	-0.117849	0.500015
O129	O	0.954552	-0.034879	0.000126
O130	O	1.454552	0.465121	0.500126
C131	C	0.877371	-0.080095	0.000081
C132	C	1.377371	0.419905	0.500081
H133	H	0.899571	-0.131543	0.033895
H134	H	1.399571	0.368457	0.533895
H135	H	0.814204	-0.054829	0.051940
H136	H	1.314204	0.445171	0.551940
H137	H	0.855929	-0.090476	-0.085626
H138	H	1.355929	0.409524	0.414374
H139	H	1.272595	-0.496247	0.000085
H140	H	1.772595	0.003753	0.500085
H141	H	1.269952	-0.628529	0.000050
H142	H	1.769952	-0.128529	0.500050
H143	H	0.959218	-0.485563	0.000036
H144	H	1.459218	0.014437	0.500036
