data_functionalizedCrystal
_audit_creation_method	'MofGen! by Chris Wilmer'
_symmetry_space_group_name_H-M	'P1'
_symmetry_Int_Tables_number	1
_symmetry_cell_setting	triclinic
loop_
_symmetry_equiv_pos_as_xyz
  x,y,z
_cell_length_a	14.519709
_cell_length_b	16.956995
_cell_length_c	16.053802
_cell_angle_alpha	87.607939
_cell_angle_beta	92.569364
_cell_angle_gamma	79.867308
loop_
_atom_site_label
_atom_site_type_symbol
_atom_site_fract_x
_atom_site_fract_y
_atom_site_fract_z
O1	O	0.034075	1.061452	-0.069487
O2	O	0.534075	1.561452	0.430513
O3	O	0.066448	0.829341	-0.069477
O4	O	0.566448	1.329341	0.430523
O5	O	-0.084457	0.951550	-0.069475
O6	O	0.415543	1.451550	0.430525
O7	O	0.184981	0.939243	-0.069489
O8	O	0.684981	1.439243	0.430511
O9	O	-0.076183	0.944824	0.069384
O10	O	0.423817	1.444824	0.569384
O11	O	0.074723	0.822614	0.069382
O12	O	0.574723	1.322614	0.569382
O13	O	0.042350	1.054726	0.069372
O14	O	0.542350	1.554726	0.569372
Zn15	Zn	0.059850	0.937602	0.091424
Zn16	Zn	0.559850	1.437602	0.591424
Zn17	Zn	0.048948	0.946465	-0.091529
Zn18	Zn	0.548948	1.446465	0.408471
O19	O	0.193255	0.932516	0.069369
O20	O	0.693255	1.432516	0.569369
C21	C	0.072243	0.796272	-0.000046
C22	C	0.572243	1.296272	0.499954
C23	C	0.077171	0.707758	-0.000042
C24	C	0.577171	1.207758	0.499958
C25	C	0.114035	0.208512	-0.000075
C26	C	0.614035	0.708512	0.499925
C27	C	0.109397	0.291680	-0.000074
C28	C	0.609397	0.791680	0.499926
C29	C	0.022351	0.342644	-0.000063
C30	C	0.522351	0.842644	0.499937
C31	C	-0.060063	0.310436	-0.000061
C32	C	0.439937	0.810436	0.499939
C33	C	-0.055426	0.227269	-0.000068
C34	C	0.444574	0.727269	0.499932
C35	C	-0.000605	0.592383	-0.000047
C36	C	0.499395	1.092383	0.499953
C37	C	-0.005237	0.675555	-0.000038
C38	C	0.494763	1.175555	0.499962
C39	C	0.164224	0.656794	-0.000052
C40	C	0.664224	1.156794	0.499948
C41	C	0.168855	0.573626	-0.000054
C42	C	0.668855	1.073626	0.499946
C43	C	0.086440	0.541425	-0.000057
C44	C	0.586440	1.041425	0.499943
N45	N	0.017609	0.427656	-0.000059
N46	N	0.517609	0.927656	0.499941
N47	N	0.091183	0.456415	-0.000066
N48	N	0.591183	0.956415	0.499934
C49	C	-0.114635	0.947613	-0.000045
C50	C	0.385365	1.447613	0.499955
C51	C	-0.216882	0.945894	-0.000045
C52	C	0.283118	1.445894	0.499955
C53	C	-0.591284	0.939567	-0.000066
C54	C	-0.091284	1.439567	0.499934
C55	C	-0.487113	0.941324	-0.000060
C56	C	0.012887	1.441324	0.499940
C57	C	-0.404086	0.942731	-0.000055
C58	C	0.095914	1.442731	0.499945
C59	C	-0.299909	0.944488	-0.000050
C60	C	0.200091	1.444488	0.499950
C61	C	0.223433	0.936453	-0.000062
C62	C	0.723433	1.436453	0.499938
C63	C	0.325679	0.938172	-0.000068
C64	C	0.825679	1.438172	0.499932
C65	C	0.036555	1.087795	-0.000061
C66	C	0.536555	1.587795	0.499939
C67	C	0.031626	1.176309	-0.000071
C68	C	0.531626	1.676309	0.499929
N69	N	0.067289	0.931559	0.216284
N70	N	0.567289	1.431559	0.716284
N71	N	0.041501	0.952514	-0.216389
N72	N	0.541501	1.452514	0.283611
C73	C	0.003098	0.983578	0.259979
C74	C	0.503098	1.483578	0.759979
C75	C	0.008310	0.979359	0.347385
C76	C	0.508310	1.479359	0.847385
C77	C	0.077717	0.923123	0.391096
C78	C	0.577717	1.423123	0.891096
C79	C	0.141911	0.871098	0.347395
C80	C	0.641911	1.371098	0.847395
C81	C	0.136694	0.875315	0.259990
C82	C	0.636694	1.375315	0.759990
C83	C	0.100478	0.904705	0.652505
C84	C	0.600478	1.404705	1.152505
C85	C	0.105692	0.900494	0.739916
C86	C	0.605692	1.400494	1.239916
C87	C	-0.027911	1.008754	0.739901
C88	C	0.472089	1.508754	1.239901
C89	C	-0.033118	1.012969	0.652494
C90	C	0.466882	1.512969	1.152494
C91	C	0.031073	0.960941	0.608801
C92	C	0.531073	1.460941	1.108801
N93	N	0.083048	0.918810	0.480439
N94	N	0.583048	1.418810	0.980439
N95	N	0.025737	0.965251	0.519459
N96	N	0.525737	1.465251	1.019459
H97	H	-0.053417	1.029375	0.224395
H98	H	0.446583	1.529375	0.724395
N99	N	0.166068	0.851579	0.607885
N100	N	0.666068	1.351579	1.107885
N101	N	0.218490	0.879309	0.559101
N102	N	0.718490	1.379309	1.059101
H103	H	0.264820	0.841788	0.527587
H104	H	0.764820	1.341788	1.027587
H105	H	0.176502	0.317896	-0.000085
H106	H	0.676502	0.817896	0.499915
H107	H	0.162216	0.854698	0.775501
H108	H	0.662216	1.354698	1.275501
H109	H	0.239737	0.532136	-0.000065
H110	H	0.739737	1.032136	0.499935
H111	H	-0.043959	1.021716	0.382961
H112	H	0.456041	1.521716	0.882961
N113	N	0.202943	0.156446	-0.000093
N114	N	0.702943	0.656446	0.499907
N115	N	0.207076	0.082192	-0.000100
N116	N	0.707076	0.582192	0.499900
H117	H	0.269870	0.045421	-0.000116
H118	H	0.769870	0.545421	0.499884
H119	H	-0.089634	1.058761	0.616907
H120	H	0.410366	1.558761	1.116907
H121	H	0.198421	0.825306	0.382989
H122	H	0.698421	1.325306	0.882989
H123	H	0.188964	0.832954	0.224414
H124	H	0.688964	1.332954	0.724414
N125	N	0.248394	0.689700	-0.000048
N126	N	0.748394	1.189700	0.499952
N127	N	0.244247	0.763956	-0.000040
N128	N	0.744247	1.263956	0.499960
H129	H	0.303695	0.787197	-0.000039
H130	H	0.803695	1.287197	0.499961
N131	N	-0.094165	0.727603	-0.000015
N132	N	0.405835	1.227603	0.499985
N133	N	-0.167741	0.698843	-0.000011
N134	N	0.332259	1.198843	0.499989
H135	H	-0.230543	0.735601	0.000010
H136	H	0.269457	1.235601	0.500010
H137	H	-0.067713	0.566176	-0.000047
H138	H	0.432287	1.066176	0.499953
H139	H	-0.130938	0.351937	-0.000057
H140	H	0.369062	0.851937	0.499943
H141	H	-0.122531	0.201051	-0.000067
H142	H	0.377469	0.701051	0.499933
N143	N	-0.093468	1.061890	0.784546
N144	N	0.406532	1.561890	1.284546
N145	N	-0.088805	1.058122	0.862585
N146	N	0.411195	1.558122	1.362585
H147	H	-0.135109	1.095649	0.894117
H148	H	0.364891	1.595649	1.394117
