data_functionalizedCrystal
_audit_creation_method	'MofGen! by Chris Wilmer'
_symmetry_space_group_name_H-M	'P1'
_symmetry_Int_Tables_number	1
_symmetry_cell_setting	triclinic
loop_
_symmetry_equiv_pos_as_xyz
  x,y,z
_cell_length_a	8.559649
_cell_length_b	8.597304
_cell_length_c	7.681481
_cell_angle_alpha	76.508647
_cell_angle_beta	94.913240
_cell_angle_gamma	77.624695
loop_
_atom_site_label
_atom_site_type_symbol
_atom_site_fract_x
_atom_site_fract_y
_atom_site_fract_z
O1	O	2.105024	-0.037138	-0.140767
O2	O	1.639817	0.045183	-0.153263
O3	O	1.885144	-0.229575	-0.111572
O4	O	1.859697	0.237620	-0.182458
O5	O	1.915339	-0.263461	0.186427
O6	O	1.670013	0.011297	0.144736
O7	O	2.135220	-0.071024	0.157232
Zn8	Zn	1.907410	-0.035244	0.198298
Zn9	Zn	1.867626	0.009403	-0.194329
O10	O	1.889893	0.203734	0.115541
C11	C	1.595385	0.034479	-0.005211
C12	C	1.418004	0.053049	-0.008031
C13	C	1.899191	-0.305775	0.046415
C14	C	1.896043	-0.482340	0.073193
C15	C	2.179651	-0.060319	0.009176
C16	C	2.357031	-0.078888	0.011985
C17	C	1.875845	0.279934	-0.042449
C18	C	1.878992	0.456501	-0.069239
N19	N	1.934574	-0.065716	0.466256
N20	N	1.840476	0.039861	-0.462285
H21	H	1.334494	0.180221	-0.027336
H22	H	1.440531	-0.206050	0.031270
C23	C	2.064354	-0.211303	0.589922
H24	H	2.120675	-0.274486	0.518321
H25	H	2.014150	-0.278806	0.672100
H26	H	2.138323	-0.170421	0.655620
C27	C	1.710705	0.185442	0.414057
H28	H	1.654396	0.248640	0.485653
H29	H	1.636745	0.144574	0.348346
H30	H	1.760926	0.252950	0.331890
C31	C	1.862543	-0.431769	-0.261666
H32	H	1.866908	-0.323779	-0.255036
H33	H	1.762174	-0.427728	-0.327922
H34	H	1.948428	-0.474855	-0.320749
C35	C	1.912498	-0.594079	0.265630
H36	H	1.908156	-0.702076	0.259004
H37	H	1.826633	-0.550996	0.324725
H38	H	2.012884	-0.598123	0.331872
