data_functionalizedCrystal
_audit_creation_method	'MofGen! by Chris Wilmer'
_symmetry_space_group_name_H-M	'P1'
_symmetry_Int_Tables_number	1
_symmetry_cell_setting	triclinic
loop_
_symmetry_equiv_pos_as_xyz
  x,y,z
_cell_length_a	25.639242
_cell_length_b	25.639239
_cell_length_c	14.908308
_cell_angle_alpha	86.737723
_cell_angle_beta	86.722498
_cell_angle_gamma	90.030990
loop_
_atom_site_label
_atom_site_type_symbol
_atom_site_fract_x
_atom_site_fract_y
_atom_site_fract_z
Zn1	Zn	0.782185	-0.225306	0.510092
Zn2	Zn	0.787148	-0.307702	0.359228
Zn3	Zn	0.699800	-0.220271	0.359248
Zn4	Zn	0.694708	-0.312699	0.510033
O5	O	0.740960	-0.266494	0.434650
O6	O	0.856008	-0.236252	0.490095
O7	O	0.779769	-0.291905	0.232990
O8	O	0.710782	-0.147775	0.379291
O9	O	0.859654	-0.296788	0.379257
O10	O	0.771310	-0.151474	0.490115
O11	O	0.715595	-0.227670	0.233005
O12	O	0.625960	-0.232516	0.379234
O13	O	0.702104	-0.305305	0.636282
O14	O	0.622219	-0.300422	0.490015
O15	O	0.766372	-0.241098	0.636325
O16	O	0.774832	-0.381529	0.379200
O17	O	0.706916	-0.385200	0.489996
C18	C	0.605119	-0.266465	0.434621
C19	C	0.547004	-0.266466	0.434630
C20	C	0.293916	-0.235037	0.492469
C21	C	0.348520	-0.235031	0.492464
O22	O	0.375146	-0.208286	0.541635
N23	N	0.377729	-0.266489	0.434661
C24	C	0.352331	-0.297958	0.376865
O25	O	0.382189	-0.324715	0.327699
C26	C	0.297727	-0.297965	0.376875
C27	C	0.268521	-0.266502	0.434676
C28	C	0.264710	-0.203576	0.550266
C29	C	0.210109	-0.203581	0.550270
C30	C	0.184714	-0.235046	0.492477
C31	C	0.213920	-0.266507	0.434680
C32	C	0.272330	-0.329437	0.319085
C33	C	0.217722	-0.329442	0.319101
C34	C	0.188516	-0.297979	0.376902
C35	C	0.133925	-0.297977	0.376891
N36	N	0.104716	-0.266519	0.434694
C37	C	0.130111	-0.235054	0.492487
C38	C	0.467002	-0.297940	0.376849
C39	C	0.521605	-0.297930	0.376833
C40	C	0.517791	-0.235004	0.492434
C41	C	0.463187	-0.235011	0.492444
C42	C	0.437793	-0.266482	0.434652
C43	C	0.015446	-0.235066	0.492490
C44	C	-0.039160	-0.235072	0.492486
C45	C	-0.035341	-0.297999	0.376889
C46	C	0.019260	-0.297992	0.376889
C47	C	0.044651	-0.266523	0.434697
O48	O	0.107264	-0.324710	0.327748
O49	O	0.100246	-0.208306	0.541654
C50	C	0.740874	-0.402336	0.434609
C51	C	0.740883	-0.460450	0.434622
C52	C	0.776407	-0.818893	0.377057
C53	C	0.776427	-0.873498	0.377069
O54	O	0.806542	-0.900101	0.328081
N55	N	0.741050	-0.902736	0.434710
C56	C	0.705654	-0.877366	0.492349
O57	O	0.675565	-0.907249	0.541379
C58	C	0.705637	-0.822762	0.492341
C59	C	0.741013	-0.793527	0.434690
C60	C	0.811781	-0.789658	0.319412
C61	C	0.811761	-0.735057	0.319399
C62	C	0.776366	-0.709691	0.377031
C63	C	0.740993	-0.738926	0.434677
C64	C	0.670244	-0.797394	0.549984
C65	C	0.670230	-0.742786	0.549971
C66	C	0.705606	-0.713551	0.492320
C67	C	0.705578	-0.658959	0.492296
N68	N	0.740955	-0.629722	0.434656
C69	C	0.776349	-0.655088	0.377023
C70	C	0.705693	-0.992037	0.492363
C71	C	0.705707	-1.046639	0.492367
C72	C	0.776481	-1.042768	0.377089
C73	C	0.776464	-0.988164	0.377080
C74	C	0.741070	-0.962799	0.434722
C75	C	0.776303	-0.540422	0.377000
C76	C	0.776278	-0.485816	0.376989
C77	C	0.705506	-0.489693	0.492271
C78	C	0.705529	-0.544294	0.492278
C79	C	0.740932	-0.569657	0.434640
O80	O	0.675480	-0.632321	0.541263
O81	O	0.806438	-0.625199	0.328010
C82	C	0.877332	-0.266524	0.434680
C83	C	0.935446	-0.266537	0.434693
C84	C	0.733116	-0.274320	0.669951
C85	C	0.729774	-0.277655	0.770222
C86	C	0.741061	-0.130123	0.434712
C87	C	0.741103	-0.072010	0.434738
C88	C	0.748803	-0.258662	0.200265
C89	C	0.752247	-0.255179	0.099994
C90	C	0.790414	-0.217051	0.958689
C91	C	0.787275	-0.220182	1.052903
C92	C	0.720355	-0.287047	1.052865
C93	C	0.723494	-0.283915	0.958652
C94	C	0.758525	-0.248916	0.911567
C95	C	0.761666	-0.245788	0.817351
C96	C	0.694743	-0.312649	0.817316
C97	C	0.691604	-0.315781	0.911529
H98	H	0.036113	-0.209441	0.539562
C99	C	0.276443	-0.183317	0.703103
C100	C	0.292616	-0.168982	0.613797
H101	H	0.293666	-0.161953	0.742321
H102	H	0.284952	-0.218885	0.716195
H103	H	0.239741	-0.178824	0.711360
H104	H	0.329318	-0.173478	0.605538
H105	H	0.284111	-0.133405	0.600700
C106	C	0.334115	-0.399333	0.306331
C107	C	0.304423	-0.364028	0.255554
H108	H	0.353929	-0.420688	0.267106
H109	H	0.311500	-0.420666	0.345578
H110	H	0.357060	-0.380588	0.340734
H111	H	0.281475	-0.382773	0.221156
H112	H	0.327041	-0.342693	0.216292
H113	H	0.663082	-0.344275	0.949879
C114	C	0.791056	-0.153374	1.158873
C115	C	0.822329	-0.185153	1.104698
H116	H	0.812698	-0.131745	1.190844
H117	H	0.769752	-0.174665	1.200399
H118	H	0.769515	-0.132153	1.122113
H119	H	0.843867	-0.206377	1.141460
H120	H	0.843642	-0.163860	1.063167
H121	H	0.439411	-0.209390	0.539510
C122	C	0.226981	-0.391646	0.204839
C123	C	0.189810	-0.364035	0.255569
H124	H	0.209749	-0.412998	0.165614
H125	H	0.246964	-0.412981	0.244082
H126	H	0.249434	-0.367682	0.170403
H127	H	0.167360	-0.387999	0.290010
H128	H	0.169819	-0.342698	0.216320
C129	C	0.709501	-0.360885	1.158811
C130	C	0.681845	-0.325507	1.104637
H131	H	0.685725	-0.384628	1.190770
H132	H	0.728043	-0.342352	1.200348
H133	H	0.733486	-0.379674	1.122052
H134	H	0.657863	-0.306715	1.141397
H135	H	0.663294	-0.344042	1.063095
C136	C	-0.037437	-0.172873	0.606759
C137	C	-0.071262	-0.200487	0.556030
H138	H	-0.057256	-0.151526	0.645991
H139	H	-0.014828	-0.151531	0.567515
H140	H	-0.017293	-0.196835	0.641187
H141	H	-0.091404	-0.176525	0.521597
H142	H	-0.093880	-0.221830	0.595280
C143	C	0.144683	-0.200472	0.671661
C144	C	0.178010	-0.169001	0.613818
H145	H	0.124867	-0.179123	0.710894
H146	H	0.164833	-0.224425	0.706080
H147	H	0.121739	-0.219206	0.637236
H148	H	0.200956	-0.150271	0.648243
H149	H	0.157858	-0.145039	0.579397
H150	H	0.818941	-0.188556	0.920352
C151	C	0.669839	-0.337542	0.672878
C152	C	0.659687	-0.347679	0.765517
H153	H	0.648196	-0.359166	0.640902
H154	H	0.705473	-0.344687	0.657449
H155	H	0.662723	-0.301898	0.657456
H156	H	0.666806	-0.383322	0.780939
H157	H	0.624044	-0.340538	0.780952
H158	H	0.538477	-0.209383	0.539493
C159	C	0.519877	-0.360130	0.262572
C160	C	0.553705	-0.332512	0.313292
H161	H	0.539693	-0.381484	0.223350
H162	H	0.499736	-0.336174	0.228141
H163	H	0.497264	-0.381468	0.301829
H164	H	0.576315	-0.311171	0.274034
H165	H	0.573854	-0.356471	0.347725
C166	C	0.638773	-0.660804	0.601158
C167	C	0.631323	-0.714906	0.613333
H168	H	0.614755	-0.643594	0.640278
H169	H	0.633163	-0.649861	0.540539
H170	H	0.673452	-0.652265	0.614414
H171	H	0.596644	-0.723445	0.600070
H172	H	0.636928	-0.725852	0.673966
H173	H	0.446330	-0.323566	0.329780
H174	H	-0.056027	-0.323615	0.329832
C175	C	0.081060	-0.367877	0.364133
C176	C	0.051370	-0.332572	0.313352
H177	H	0.100883	-0.389226	0.324910
H178	H	0.058443	-0.389216	0.403365
H179	H	0.103997	-0.349132	0.398553
H180	H	0.028431	-0.351317	0.278938
H181	H	0.073990	-0.311230	0.274105
C182	C	0.846240	-0.487482	0.263042
C183	C	0.815168	-0.453682	0.313619
H184	H	0.870251	-0.467644	0.223927
H185	H	0.824635	-0.507658	0.228505
H186	H	0.864914	-0.510062	0.302397
H187	H	0.796491	-0.431104	0.274263
H188	H	0.836776	-0.433497	0.348158
C189	C	0.827494	-0.180005	0.826855
C190	C	0.800170	-0.207316	0.765593
H191	H	0.851261	-0.156251	0.794901
H192	H	0.846254	-0.204008	0.863593
H193	H	0.803495	-0.161228	0.863608
H194	H	0.824168	-0.226097	0.728844
H195	H	0.781409	-0.183310	0.728839
C196	C	0.847096	-0.601330	0.364593
C197	C	0.815226	-0.568290	0.313649
H198	H	0.871128	-0.618530	0.325481
H199	H	0.826036	-0.626564	0.398904
H200	H	0.865746	-0.581302	0.403934
H201	H	0.796574	-0.588319	0.274312
H202	H	0.836289	-0.543053	0.279322
H203	H	0.676867	-0.971388	0.539299
C204	C	0.674064	-0.407703	0.543436
C205	C	0.666604	-0.461803	0.555623
H206	H	0.650051	-0.390486	0.582556
H207	H	0.668454	-0.396763	0.482817
H208	H	0.708746	-0.399170	0.556686
H209	H	0.631922	-0.470336	0.542366
H210	H	0.672210	-0.472747	0.616256
H211	H	0.676724	-0.568098	0.539225
H212	H	0.840568	-0.711257	0.272457
H213	H	0.840606	-0.810305	0.272480
H214	H	0.805271	-0.964364	0.330137
C215	C	0.807993	-1.124761	0.326043
C216	C	0.815432	-1.070660	0.313817
H217	H	0.832053	-1.141981	0.287009
H218	H	0.773336	-1.133318	0.312710
H219	H	0.813555	-1.135676	0.386701
H220	H	0.809867	-1.059745	0.253160
H221	H	0.850097	-1.062099	0.327143
C222	C	0.600299	-0.795713	0.663946
C223	C	0.631360	-0.829520	0.613363
H224	H	0.576295	-0.815547	0.703080
H225	H	0.581622	-0.773137	0.624603
H226	H	0.621915	-0.775534	0.698471
H227	H	0.609743	-0.849696	0.578832
H228	H	0.650038	-0.852105	0.652711
C229	C	0.635750	-1.044968	0.606314
C230	C	0.666817	-1.078771	0.555734
H231	H	0.611745	-1.064805	0.645441
H232	H	0.617075	-1.022392	0.566968
H233	H	0.657362	-1.024789	0.640846
H234	H	0.645205	-1.098947	0.521196
H235	H	0.685494	-1.101356	0.595084
