data_functionalizedCrystal
_audit_creation_method	'MofGen! by Chris Wilmer'
_symmetry_space_group_name_H-M	'P1'
_symmetry_Int_Tables_number	1
_symmetry_cell_setting	triclinic
loop_
_symmetry_equiv_pos_as_xyz
  x,y,z
_cell_length_a	11.792254
_cell_length_b	27.731996
_cell_length_c	10.268362
_cell_angle_alpha	89.988758
_cell_angle_beta	89.995475
_cell_angle_gamma	83.409992
loop_
_atom_site_label
_atom_site_type_symbol
_atom_site_fract_x
_atom_site_fract_y
_atom_site_fract_z
O1	O	1.504751	0.066279	-0.108318
O2	O	2.004751	0.566279	0.391682
O3	O	1.174191	0.073100	-0.108322
O4	O	1.674191	0.573100	0.391678
O5	O	1.349768	-0.000649	-0.108292
O6	O	1.849768	0.499351	0.391708
O7	O	1.329174	0.140028	-0.108348
O8	O	1.829174	0.640028	0.391652
O9	O	1.349753	-0.000652	0.108309
O10	O	1.849753	0.499348	0.608309
O11	O	1.174176	0.073097	0.108278
O12	O	1.674176	0.573097	0.608278
O13	O	1.504736	0.066276	0.108283
O14	O	2.004736	0.566276	0.608283
Cu15	Cu	1.339454	0.069686	0.128058
Cu16	Cu	1.839454	0.569686	0.628058
Cu17	Cu	1.339472	0.069690	-0.128097
Cu18	Cu	1.839472	0.569690	0.371903
O19	O	1.329158	0.140025	0.108252
O20	O	1.829158	0.640025	0.608252
C21	C	1.131906	0.072669	-0.000022
C22	C	1.631906	0.572669	0.499978
C23	C	1.005935	0.071383	-0.000023
C24	C	1.505935	0.571383	0.499977
C25	C	0.903632	0.070338	-0.000028
C26	C	1.403632	0.570338	0.499972
C27	C	0.775288	0.069031	-0.000028
C28	C	1.275288	0.569031	0.499972
C29	C	1.349337	-0.018660	0.000013
C30	C	1.849337	0.481340	0.500013
C31	C	1.348063	-0.072324	0.000026
C32	C	1.848063	0.427676	0.500026
C33	C	1.340054	-0.405085	-0.118106
C34	C	1.840054	0.094915	0.381894
C35	C	1.335215	-0.606772	-0.118129
C36	C	1.835215	-0.106772	0.381871
O37	O	1.334548	-0.632845	-0.218543
O38	O	1.834548	-0.132845	0.281457
N39	N	1.334606	-0.631994	-0.000062
N40	N	1.834606	-0.131994	0.499938
C41	C	1.335199	-0.606791	0.118020
C42	C	1.835199	-0.106791	0.618020
O43	O	1.334558	-0.632872	0.218444
O44	O	1.834558	-0.132872	0.718444
C45	C	1.340030	-0.405105	0.118042
C46	C	1.840030	0.094895	0.618042
C47	C	1.340651	-0.379886	-0.000034
C48	C	1.840651	0.120114	0.499966
C49	C	1.340674	-0.379866	-0.236172
C50	C	1.840674	0.120134	0.263828
C51	C	1.341890	-0.329448	-0.236166
C52	C	1.841890	0.170552	0.263834
C53	C	1.342486	-0.304249	-0.118093
C54	C	1.842486	0.195751	0.381907
C55	C	1.341867	-0.329468	-0.000027
C56	C	1.841867	0.170532	0.499973
C57	C	1.340615	-0.379903	0.236123
C58	C	1.840615	0.120097	0.736123
C59	C	1.341820	-0.329478	0.236118
C60	C	1.841820	0.170522	0.736118
C61	C	1.342440	-0.304259	0.118042
C62	C	1.842440	0.195741	0.618042
C63	C	1.343679	-0.253851	0.118053
C64	C	1.843679	0.246149	0.618053
N65	N	1.344288	-0.228628	-0.000015
N66	N	1.844288	0.271372	0.499985
C67	C	1.343692	-0.253827	-0.118088
C68	C	1.843692	0.246173	0.381912
C69	C	1.332665	-0.712679	0.118001
C70	C	1.832665	-0.212679	0.618001
C71	C	1.331460	-0.763101	0.117996
C72	C	1.831460	-0.263101	0.617996
C73	C	1.331474	-0.763078	-0.118155
C74	C	1.831474	-0.263078	0.381845
C75	C	1.332688	-0.712656	-0.118148
C76	C	1.832688	-0.212656	0.381852
C77	C	1.333275	-0.687457	-0.000067
C78	C	1.833275	-0.187457	0.499933
C79	C	1.346246	-0.147946	-0.118064
C80	C	1.846246	0.352054	0.381936
C81	C	1.347467	-0.097523	-0.118047
C82	C	1.847467	0.402477	0.381953
C83	C	1.347447	-0.097550	0.118103
C84	C	1.847447	0.402450	0.618103
C85	C	1.346232	-0.147969	0.118086
C86	C	1.846232	0.352031	0.618086
C87	C	1.345628	-0.173165	-0.000008
C88	C	1.845628	0.326835	0.499992
O89	O	1.344334	-0.227746	0.218415
O90	O	1.844334	0.272254	0.718415
O91	O	1.344308	-0.227737	-0.218496
O92	O	1.844308	0.272263	0.281504
C93	C	1.338838	-0.455504	-0.118113
C94	C	1.838838	0.044496	0.381887
C95	C	1.338219	-0.480723	-0.000047
C96	C	1.838219	0.019277	0.499953
C97	C	1.338815	-0.455524	0.118025
C98	C	1.838815	0.044476	0.618025
C99	C	1.337013	-0.531144	-0.000052
C100	C	1.837013	-0.031144	0.499948
C101	C	1.336417	-0.556343	-0.118125
C102	C	1.836417	-0.056343	0.381875
C103	C	1.337026	-0.531121	-0.236193
C104	C	1.837026	-0.031121	0.263807
C105	C	1.338242	-0.480703	-0.236186
C106	C	1.838242	0.019297	0.263814
C107	C	1.338206	-0.480746	0.236093
C108	C	1.838206	0.019254	0.736093
C109	C	1.336992	-0.531164	0.236077
C110	C	1.836992	-0.031164	0.736077
C111	C	1.336395	-0.556363	0.118004
C112	C	1.836395	-0.056363	0.618004
C113	C	1.547020	0.066707	-0.000020
C114	C	2.047020	0.566707	0.499980
C115	C	1.672992	0.067993	-0.000028
C116	C	2.172992	0.567993	0.499972
C117	C	1.329589	0.158037	-0.000055
C118	C	1.829589	0.658037	0.499945
C119	C	1.330863	0.211700	-0.000077
C120	C	1.830863	0.711700	0.499923
N121	N	1.339450	0.069683	0.308224
N122	N	1.839450	0.569683	0.808224
N123	N	1.339485	0.069689	-0.308263
N124	N	1.839485	0.569689	0.191737
C125	C	1.339466	0.069689	0.573894
C126	C	1.839466	0.569689	1.073894
C127	C	1.339454	0.069687	0.426056
C128	C	1.839454	0.569687	0.926056
H129	H	1.347975	-0.076992	-0.214202
H130	H	1.847975	0.423008	0.285798
F131	F	1.333284	-0.685867	0.243688
F132	F	1.833284	-0.185867	0.743688
H133	H	1.336546	-0.551647	-0.332333
H134	H	1.836546	-0.051647	0.167667
H135	H	1.340111	-0.400428	0.332273
H136	H	1.840111	0.099572	0.832273
F137	F	1.348084	-0.070723	0.243758
F138	F	1.848084	0.429277	0.743758
F139	F	1.342543	-0.302614	-0.361839
F140	F	1.842543	0.197386	0.138161
H141	H	1.342281	-0.308963	0.332276
H142	H	1.842281	0.191037	0.832276
F143	F	1.345592	-0.174811	0.243755
F144	F	1.845592	0.325189	0.743755
H145	H	1.345749	-0.168454	-0.214227
H146	H	1.845749	0.331546	0.285773
H147	H	1.338694	-0.460234	0.332245
H148	H	1.838694	0.039766	0.832245
H149	H	1.338747	-0.460174	-0.332336
H150	H	1.838747	0.039826	0.167664
F151	F	1.330820	-0.789936	0.243668
F152	F	1.830820	-0.289936	0.743668
F153	F	1.336338	-0.557999	0.361759
F154	F	1.836338	-0.057999	0.861759
F155	F	1.330836	-0.789905	-0.243817
F156	F	1.830836	-0.289905	0.256183
H157	H	1.333191	-0.692126	-0.214296
H158	H	1.833191	-0.192126	0.285704
F159	F	1.340038	-0.406677	-0.361853
F160	F	1.840038	0.093323	0.138147
