data_functionalizedCrystal
_audit_creation_method	'MofGen! by Chris Wilmer'
_symmetry_space_group_name_H-M	'P1'
_symmetry_Int_Tables_number	1
_symmetry_cell_setting	triclinic
loop_
_symmetry_equiv_pos_as_xyz
  x,y,z
_cell_length_a	17.699097
_cell_length_b	19.188925
_cell_length_c	16.776229
_cell_angle_alpha	89.993696
_cell_angle_beta	89.989262
_cell_angle_gamma	83.215490
loop_
_atom_site_label
_atom_site_type_symbol
_atom_site_fract_x
_atom_site_fract_y
_atom_site_fract_z
O1	O	1.003954	0.088339	-0.066354
O2	O	0.783562	0.099816	-0.066341
O3	O	0.900120	-0.007571	-0.066343
O4	O	0.887396	0.195726	-0.066351
O5	O	0.900105	-0.007578	0.066233
O6	O	0.783546	0.099810	0.066236
O7	O	1.003939	0.088332	0.066223
Zn8	Zn	0.893740	0.094070	0.087279
Zn9	Zn	0.893760	0.094079	-0.087397
O10	O	0.887380	0.195719	0.066225
C11	C	0.755358	0.099400	-0.000051
C12	C	0.671342	0.098162	-0.000046
C13	C	0.155642	0.090574	-0.072345
C14	C	0.234585	0.091733	-0.072341
C15	C	0.274041	0.092310	-0.000071
C16	C	0.234553	0.091721	0.072201
C17	C	0.155612	0.090557	0.072196
C18	C	0.552910	0.096414	0.072222
C19	C	0.631856	0.097580	0.072221
C20	C	0.631883	0.097590	-0.072316
C21	C	0.552942	0.096426	-0.072320
C22	C	0.513461	0.095833	-0.000049
C23	C	0.427863	0.094575	-0.000055
C24	C	0.359637	0.093573	-0.000065
C25	C	0.899701	-0.033586	-0.000055
C26	C	0.898466	-0.111092	-0.000057
C27	C	0.958590	-0.672792	-0.000081
C28	C	0.959757	-0.599968	-0.000073
C29	C	0.891364	-0.555113	-0.000070
C30	C	0.821799	-0.583088	-0.000053
C31	C	0.820634	-0.655911	-0.000052
N32	N	0.841856	-0.434488	-0.045192
N33	N	0.842967	-0.365309	-0.045195
C34	C	0.894870	-0.335700	-0.000070
N35	N	0.945631	-0.377883	0.045047
N36	N	0.944521	-0.447069	0.045045
C37	C	0.892619	-0.476147	-0.000070
C38	C	0.965695	-0.228768	-0.000074
C39	C	0.966859	-0.155942	-0.000062
C40	C	0.828900	-0.139063	-0.000049
C41	C	0.827738	-0.211888	-0.000053
C42	C	0.896138	-0.256737	-0.000070
C43	C	1.032143	0.088748	-0.000069
C44	C	1.116158	0.089987	-0.000079
C45	C	0.887799	0.221734	-0.000064
C46	C	0.889034	0.299240	-0.000068
N47	N	0.893732	0.094063	0.206490
N48	N	0.893775	0.094079	-0.206608
C49	C	0.945359	0.046532	0.248206
C50	C	0.945363	0.046531	0.331658
C51	C	0.893743	0.094066	0.373393
C52	C	0.842110	0.141600	0.331671
C53	C	0.842103	0.141597	0.248220
C54	C	0.842137	0.141614	0.668218
C55	C	0.842150	0.141615	0.751675
C56	C	0.945398	0.046548	0.751656
C57	C	0.945391	0.046545	0.668205
C58	C	0.893755	0.094076	0.626491
C59	C	0.893750	0.094075	0.536002
C60	C	0.893751	0.094071	0.463880
H61	H	0.663980	0.098049	0.131076
C62	C	0.785359	0.193902	0.797585
C63	C	0.728559	0.246183	0.751704
C64	C	0.671773	0.298468	0.797615
C65	C	0.671787	0.298472	0.889407
C66	C	0.728589	0.246189	0.935294
C67	C	0.785376	0.193904	0.889383
H68	H	0.728547	0.246182	0.683749
H69	H	0.629724	0.337171	0.763646
H70	H	0.629750	0.337176	0.923393
H71	H	0.728602	0.246190	1.003249
H72	H	0.827424	0.155201	0.923352
C73	C	1.002194	-0.005744	0.797543
C74	C	1.002206	-0.005750	0.889336
C75	C	1.059002	-0.058039	0.935220
C76	C	1.115785	-0.110322	0.889312
C77	C	1.115775	-0.110318	0.797514
C78	C	1.058980	-0.058029	0.751630
H79	H	0.960169	0.032954	0.923324
H80	H	1.059009	-0.058042	1.003175
H81	H	1.157829	-0.149030	0.923278
H82	H	1.157812	-0.149023	0.763525
H83	H	1.058973	-0.058026	0.683675
H84	H	1.021391	-0.265286	-0.000087
H85	H	0.987398	0.007826	0.214231
H86	H	0.800095	0.180316	0.634261
C87	C	0.785325	0.193891	0.377575
C88	C	0.785365	0.193933	0.469367
C89	C	0.728580	0.246227	0.515268
C90	C	0.671756	0.298479	0.469376
C91	C	0.671715	0.298438	0.377579
C92	C	0.728499	0.246144	0.331678
H93	H	0.827431	0.155252	0.503343
H94	H	0.728612	0.246257	0.583223
H95	H	0.629721	0.337190	0.503355
H96	H	0.629648	0.337119	0.343603
H97	H	0.728468	0.246114	0.263723
C98	C	1.002156	-0.005750	0.377550
C99	C	1.058960	-0.058021	0.331651
C100	C	1.115754	-0.110305	0.377544
C101	C	1.115744	-0.110318	0.469337
C102	C	1.058938	-0.058045	0.515241
C103	C	1.002144	-0.005761	0.469347
H104	H	1.058970	-0.058013	0.263696
H105	H	1.157806	-0.149001	0.343562
H106	H	1.157787	-0.149022	0.503310
H107	H	1.058928	-0.058053	0.583196
H108	H	0.960092	0.032934	0.503329
H109	H	0.123521	0.090109	-0.131196
H110	H	0.266729	0.092206	-0.131187
H111	H	0.800061	0.180301	0.214256
H112	H	1.016399	-0.577192	-0.000084
C113	C	1.033829	-0.722122	-0.000086
C114	C	1.051996	-0.774510	0.068759
C115	C	1.127236	-0.823840	0.068757
C116	C	1.184310	-0.820783	-0.000090
C117	C	1.166144	-0.768394	-0.068940
C118	C	1.090904	-0.719063	-0.068938
H119	H	1.009746	-0.776774	0.119728
H120	H	1.140683	-0.862623	0.119725
H121	H	1.240007	-0.857301	-0.000091
H122	H	1.208395	-0.766129	-0.119909
H123	H	1.077457	-0.680281	-0.119906
C124	C	0.751224	-0.242657	-0.000051
C125	C	0.675991	-0.193323	-0.000047
C126	C	0.599474	-0.224091	-0.000043
C127	C	0.598189	-0.304194	-0.000042
C128	C	0.673425	-0.353533	-0.000046
C129	C	0.749942	-0.322765	-0.000051
H130	H	0.676940	-0.134022	-0.000048
H131	H	0.543780	-0.187567	-0.000040
H132	H	0.541547	-0.326970	-0.000039
H133	H	0.672477	-0.412834	-0.000046
H134	H	0.805637	-0.359289	-0.000053
C135	C	0.509541	0.095791	-0.151819
C136	C	0.552972	0.096434	-0.231313
C137	C	0.509572	0.095797	-0.310813
C138	C	0.422740	0.094518	-0.310820
C139	C	0.379304	0.093876	-0.231323
C140	C	0.422704	0.094513	-0.151823
H141	H	0.617254	0.097380	-0.231310
H142	H	0.541726	0.096272	-0.369662
H143	H	0.390613	0.094047	-0.369671
H144	H	0.315022	0.092929	-0.231326
H145	H	0.390549	0.094037	-0.092974
H146	H	0.664038	0.098069	-0.131162
H147	H	1.023502	-0.133173	-0.000067
H148	H	0.766113	-0.546562	-0.000047
H149	H	0.520776	0.095921	0.131069
C150	C	0.277959	0.092360	0.151697
C151	C	0.323424	0.153769	0.171563
C152	C	0.366831	0.154412	0.251059
C153	C	0.364773	0.093647	0.310688
C154	C	0.319306	0.032234	0.290823
C155	C	0.275899	0.031590	0.211327
H156	H	0.324949	0.198755	0.127421
H157	H	0.400488	0.199875	0.265764
H158	H	0.396905	0.094124	0.369535
H159	H	0.317781	-0.012753	0.334965
H160	H	0.242242	-0.013873	0.196622
C161	C	0.753665	-0.089733	-0.000041
C162	C	0.696601	-0.092777	-0.068876
C163	C	0.621363	-0.043443	-0.068863
C164	C	0.603188	0.008934	-0.000016
C165	C	0.660253	0.011980	0.068824
C166	C	0.735492	-0.037354	0.068811
H167	H	0.710053	-0.131552	-0.119846
H168	H	0.579119	-0.045698	-0.119824
H169	H	0.547493	0.045454	-0.000006
H170	H	0.646801	0.050754	0.119794
H171	H	0.777735	-0.035099	0.119772
H172	H	0.123465	0.090086	0.131043
H173	H	0.763992	-0.678681	-0.000040
H174	H	0.987427	0.007840	0.634227
