data_functionalizedCrystal
_audit_creation_method	'MofGen! by Chris Wilmer'
_symmetry_space_group_name_H-M	'P1'
_symmetry_Int_Tables_number	1
_symmetry_cell_setting	triclinic
loop_
_symmetry_equiv_pos_as_xyz
  x,y,z
_cell_length_a	12.759400
_cell_length_b	18.215407
_cell_length_c	18.215399
_cell_angle_alpha	89.985640
_cell_angle_beta	89.974431
_cell_angle_gamma	90.011889
loop_
_atom_site_label
_atom_site_type_symbol
_atom_site_fract_x
_atom_site_fract_y
_atom_site_fract_z
Zn1	Zn	-0.418324	1.125103	-0.416092
Zn2	Zn	-0.594029	1.125041	-0.293036
Zn3	Zn	-0.418356	1.002042	-0.293045
Zn4	Zn	-0.593953	1.002024	-0.416066
O5	O	-0.506166	1.063553	-0.354560
O6	O	-0.441649	1.228079	-0.399775
O7	O	-0.570770	1.108706	-0.190053
O8	O	-0.271331	1.018401	-0.309382
O9	O	-0.570739	1.228033	-0.309367
O10	O	-0.271307	1.108813	-0.399784
O11	O	-0.441705	1.018340	-0.190059
O12	O	-0.441632	0.899056	-0.309357
O13	O	-0.570611	1.018370	-0.519054
O14	O	-0.570642	0.899042	-0.399740
O15	O	-0.441576	1.108795	-0.519073
O16	O	-0.741040	1.108689	-0.309342
O17	O	-0.740984	1.018309	-0.399732
C18	C	-0.506133	0.872347	-0.354547
C19	C	-0.506145	0.790548	-0.354559
C20	C	-0.439066	0.602377	-0.401709
C21	C	-0.439075	0.525518	-0.401711
C22	C	-0.573294	0.525481	-0.307423
C23	C	-0.573279	0.602338	-0.307418
C24	C	-0.506167	0.640784	-0.354565
C25	C	-0.506191	0.487068	-0.354573
C26	C	-0.506201	0.403734	-0.354575
C27	C	-0.506155	0.724123	-0.354562
C28	C	-0.779133	1.063510	-0.354549
C29	C	-0.895910	1.063559	-0.354569
C30	C	-1.060506	1.016527	-0.401611
C31	C	-0.950782	1.016486	-0.401599
C32	C	-0.950767	1.110680	-0.307554
C33	C	-1.060489	1.110724	-0.307570
C34	C	-1.115372	0.969445	-0.448639
C35	C	-1.060523	0.922325	-0.495656
C36	C	-0.950799	0.922285	-0.495643
C37	C	-0.895924	0.969365	-0.448614
C38	C	-0.232132	1.063616	-0.354587
C39	C	-0.115356	1.063643	-0.354598
C40	C	-0.506082	1.063588	-0.546513
C41	C	-0.506046	1.063602	-0.628312
C42	C	-0.506199	1.255506	-0.354573
C43	C	-0.506213	1.337305	-0.354579
C44	C	-0.438796	1.016588	-0.816510
C45	C	-0.438775	1.016601	-0.893369
C46	C	-0.573170	1.110704	-0.893351
C47	C	-0.573196	1.110687	-0.816494
C48	C	-0.506003	1.063630	-0.778075
C49	C	-0.505956	1.063660	-0.931791
C50	C	-0.505934	1.063674	-1.015125
C51	C	-0.506026	1.063615	-0.694736
C52	C	-0.506173	1.063560	-0.163353
C53	C	-0.505913	1.063688	-0.081555
H54	H	-0.384433	0.494250	-0.440100
H55	H	-0.384083	0.978272	-0.785232
H56	H	-0.627876	1.149017	-0.924641
H57	H	-0.384415	0.633677	-0.440097
H58	H	-0.806580	0.969333	-0.448613
H59	H	-0.627928	1.148996	-0.785200
H60	H	-0.627922	0.633610	-0.269023
C61	C	-0.647121	0.483183	-0.255569
N62	N	-0.702731	0.451325	-0.216514
C63	C	-1.236071	0.969485	-0.448656
N64	N	-1.326981	0.969514	-0.448667
H65	H	-1.105208	0.883998	-0.533949
H66	H	-0.906141	0.883922	-0.533931
H67	H	-0.906081	1.149011	-0.269264
C68	C	-1.120827	1.162552	-0.255851
N69	N	-1.166274	1.201592	-0.216897
H70	H	-0.384049	0.978294	-0.924659
