data_functionalizedCrystal
_audit_creation_method	'MofGen! by Chris Wilmer'
_symmetry_space_group_name_H-M	'P1'
_symmetry_Int_Tables_number	1
_symmetry_cell_setting	triclinic
loop_
_symmetry_equiv_pos_as_xyz
  x,y,z
_cell_length_a	18.101389
_cell_length_b	16.120490
_cell_length_c	16.120484
_cell_angle_alpha	90.164100
_cell_angle_beta	92.879328
_cell_angle_gamma	87.085916
loop_
_atom_site_label
_atom_site_type_symbol
_atom_site_fract_x
_atom_site_fract_y
_atom_site_fract_z
Zn1	Zn	-0.492954	1.254462	-0.395775
Zn2	Zn	0.007046	1.754462	0.104225
Zn3	Zn	-0.375048	1.247309	-0.534811
Zn4	Zn	0.124952	1.747309	-0.034811
Zn5	Zn	-0.362556	1.115405	-0.388709
Zn6	Zn	0.137444	1.615405	0.111291
Zn7	Zn	-0.492279	1.108314	-0.527720
Zn8	Zn	0.007721	1.608314	-0.027720
O9	O	-0.430709	1.181373	-0.461754
O10	O	0.069291	1.681373	0.038246
O11	O	-0.482824	1.369879	-0.420144
O12	O	0.017176	1.869879	0.079856
O13	O	-0.269757	1.229785	-0.515440
O14	O	0.230243	1.729785	-0.015440
O15	O	-0.374907	1.139813	-0.273282
O16	O	0.125093	1.639813	0.226718
O17	O	-0.396199	1.364623	-0.522293
O18	O	0.103801	1.864623	-0.022293
O19	O	-0.470711	1.241978	-0.278474
O20	O	0.029289	1.741978	0.221526
O21	O	-0.260579	1.132876	-0.408099
O22	O	0.239421	1.632876	0.091901
O23	O	-0.374253	0.998099	-0.401224
O24	O	0.125747	1.498099	0.098776
O25	O	-0.596002	1.127728	-0.510208
O26	O	-0.096002	1.627728	-0.010208
O27	O	-0.469560	0.992889	-0.503355
O28	O	0.030440	1.492889	-0.003355
O29	O	-0.596498	1.235102	-0.413268
O30	O	-0.096498	1.735102	0.086732
O31	O	-0.395545	1.222909	-0.650234
O32	O	0.104455	1.722909	-0.150234
O33	O	-0.481674	1.120791	-0.645025
O34	O	0.018326	1.620791	-0.145025
C35	C	-0.420478	0.965322	-0.450754
C36	C	0.079522	1.465322	0.049246
C37	C	-0.416120	0.872894	-0.446068
C38	C	0.083880	1.372894	0.053932
C39	C	-0.453318	0.659923	-0.486054
C40	C	0.046682	1.159923	0.013946
C41	C	-0.408162	0.703670	-0.437520
C42	C	0.091838	1.203670	0.062480
C43	C	-0.412591	0.797835	-0.442278
C44	C	0.087409	1.297835	0.057722
C45	C	-0.448889	0.565750	-0.481297
C46	C	0.051111	1.065750	0.018703
C47	C	-0.623873	1.181422	-0.461735
C48	C	-0.123873	1.681422	0.038265
C49	C	-0.706187	1.181443	-0.461727
C50	C	-0.206187	1.681443	0.038273
C51	C	-1.005274	1.181499	-0.461574
C52	C	-0.505274	1.681499	0.038426
C53	C	-0.973618	1.113731	-0.522350
C54	C	-0.473618	1.613731	-0.022350
C55	C	-0.888020	1.113890	-0.522656
C56	C	-0.388020	1.613890	-0.022656
C57	C	-0.856894	1.181470	-0.461650
C58	C	-0.356894	1.681470	0.038350
C59	C	-0.893148	1.267879	-0.489891
C60	C	-0.393148	1.767879	0.010109
C61	C	-0.978794	1.267498	-0.490294
C62	C	-0.478794	1.767498	0.009706
C63	C	-0.968886	1.163628	-0.372453
C64	C	-0.468886	1.663628	0.127547
C65	C	-0.883164	1.161653	-0.372862
C66	C	-0.383164	1.661653	0.127138
C67	C	-0.773035	1.181460	-0.461692
C68	C	-0.273035	1.681460	0.038308
C69	C	-1.089133	1.181516	-0.461534
C70	C	-0.589133	1.681516	0.038466
C71	C	-0.238297	1.181375	-0.461715
C72	C	0.261703	1.681375	0.038285
C73	C	-0.155980	1.181527	-0.461497
C74	C	0.344020	1.681527	0.038503
C75	C	-0.440980	1.398267	-0.472797
C76	C	0.059020	1.898267	0.027203
C77	C	-0.445357	1.490694	-0.477504
C78	C	0.054643	1.990694	0.022496
C79	C	-0.439909	1.170327	-0.677802
C80	C	0.060091	1.670327	-0.177802
C81	C	-0.443873	1.165678	-0.770233
C82	C	0.056127	1.665678	-0.270233
C83	C	-0.451126	1.157194	-0.939465
C84	C	0.048874	1.657194	-0.439465
C85	C	-0.410312	1.205700	-0.983210
C86	C	0.089688	1.705700	-0.483210
C87	C	-0.414347	1.200980	-1.077376
C88	C	0.085653	1.700980	-0.577376
C89	C	-0.447091	1.161913	-0.845290
C90	C	0.052909	1.661913	-0.345290
C91	C	-0.421491	1.192484	-0.244863
C92	C	0.078509	1.692484	0.255137
C93	C	-0.417562	1.197219	-0.152437
C94	C	0.082438	1.697219	0.347563
H95	H	-0.366177	0.670404	-0.392397
H96	H	0.133823	1.170404	0.107603
H97	H	-1.002419	1.283168	-0.555575
H98	H	-0.502419	1.783168	-0.055575
H99	H	-0.489095	1.112125	-0.972733
H100	H	0.010905	1.612125	-0.472733
H101	H	-0.495299	0.693187	-0.531174
H102	H	0.004701	1.193187	-0.031174
H103	H	-0.999972	1.319463	-0.448190
H104	H	-0.499972	1.819463	0.051810
H105	H	-0.863287	1.049676	-0.504468
H106	H	-0.363287	1.549676	-0.004468
H107	H	-0.990500	1.049313	-0.504304
H108	H	-0.490500	1.549313	-0.004304
H109	H	-0.998601	1.125043	-0.587912
H110	H	-0.498601	1.625043	-0.087912
H111	H	-0.871020	1.125328	-0.588623
H112	H	-0.371020	1.625328	-0.088623
C113	C	-0.359006	1.266585	-0.938265
C114	C	0.140994	1.766585	-0.438265
N115	N	-0.320361	1.312439	-0.904409
N116	N	0.179639	1.812439	-0.404409
H117	H	-0.873200	1.319534	-0.447211
H118	H	-0.373200	1.819534	0.052789
C119	C	-0.869087	1.289536	-0.577185
C120	C	-0.369087	1.789536	-0.077185
N121	N	-0.850966	1.305843	-0.642938
N122	N	-0.350966	1.805843	-0.142938
C123	C	-0.992787	1.080296	-0.338867
C124	C	-0.492787	1.580296	0.161133
N125	N	-1.010790	1.017525	-0.313581
N126	N	-0.510790	1.517525	0.186419
H127	H	-0.859025	1.098086	-0.351646
H128	H	-0.359025	1.598086	0.148354
H129	H	-0.861688	1.207765	-0.324818
H130	H	-0.361688	1.707765	0.175182
H131	H	-0.989339	1.213041	-0.327117
H132	H	-0.489339	1.713041	0.172883
