data_functionalizedCrystal
_audit_creation_method	'MofGen! by Chris Wilmer'
_symmetry_space_group_name_H-M	'P1'
_symmetry_Int_Tables_number	1
_symmetry_cell_setting	triclinic
loop_
_symmetry_equiv_pos_as_xyz
  x,y,z
_cell_length_a	16.992694
_cell_length_b	16.974813
_cell_length_c	16.776229
_cell_angle_alpha	86.338786
_cell_angle_beta	89.998654
_cell_angle_gamma	87.024634
loop_
_atom_site_label
_atom_site_type_symbol
_atom_site_fract_x
_atom_site_fract_y
_atom_site_fract_z
O1	O	1.040214	0.167652	-0.077001
O2	O	1.373547	0.500985	0.256332
O3	O	1.706881	0.834318	0.589665
O4	O	0.811931	0.165812	-0.076906
O5	O	1.145264	0.499146	0.256427
O6	O	1.478597	0.832479	0.589760
O7	O	0.932436	0.052030	-0.069550
O8	O	1.265769	0.385364	0.263783
O9	O	1.599103	0.718697	0.597117
O10	O	0.919709	0.281434	-0.084357
O11	O	1.253042	0.614767	0.248976
O12	O	1.586375	0.948100	0.582309
O13	O	0.932420	0.052022	0.063027
O14	O	1.265753	0.385355	0.396360
O15	O	1.599087	0.718689	0.729694
O16	O	0.811915	0.165804	0.055671
O17	O	1.145248	0.499137	0.389004
O18	O	1.478581	0.832471	0.722338
O19	O	1.040198	0.167643	0.055576
O20	O	1.373531	0.500977	0.388909
O21	O	1.706865	0.834310	0.722242
Zn22	Zn	0.926054	0.166722	0.076673
Zn23	Zn	1.259387	0.500056	0.410006
Zn24	Zn	1.592721	0.833389	0.743339
Zn25	Zn	0.926075	0.166733	-0.098003
Zn26	Zn	1.259408	0.500067	0.235330
Zn27	Zn	1.592742	0.833400	0.568663
O28	O	0.919693	0.281425	0.048220
O29	O	1.253026	0.614759	0.381553
O30	O	1.586359	0.948092	0.714886
C31	C	0.782713	0.163442	-0.010468
C32	C	1.116046	0.496775	0.322865
C33	C	1.449379	0.830109	0.656199
C34	C	0.695676	0.156382	-0.010022
C35	C	1.029009	0.489716	0.323312
C36	C	1.362343	0.823049	0.656645
C37	C	0.645362	0.224498	-0.014418
C38	C	0.978696	0.557832	0.318916
C39	C	1.312029	0.891165	0.652249
C40	C	0.563583	0.217860	-0.013978
C41	C	0.896916	0.551194	0.319355
C42	C	1.230250	0.884527	0.652689
C43	C	0.532119	0.143106	-0.009148
C44	C	0.865452	0.476439	0.324185
C45	C	1.198785	0.809772	0.657518
C46	C	0.582439	0.074985	-0.004750
C47	C	0.915772	0.408318	0.328584
C48	C	1.249106	0.741652	0.661917
C49	C	0.664217	0.081624	-0.005183
C50	C	0.997550	0.414957	0.328150
C51	C	1.330883	0.748290	0.661483
C52	C	0.288551	0.115591	-0.007351
C53	C	0.621884	0.448924	0.325982
C54	C	0.955217	0.782258	0.659316
C55	C	0.206766	0.108957	-0.006920
C56	C	0.540100	0.442291	0.326413
C57	C	0.873433	0.775624	0.659747
C58	C	0.187916	0.251834	-0.016147
C59	C	0.521249	0.585167	0.317186
C60	C	0.854583	0.918500	0.650520
C61	C	0.269696	0.258466	-0.016585
C62	C	0.603030	0.591799	0.316748
C63	C	0.936363	0.925132	0.650081
C64	C	0.320009	0.190345	-0.012182
C65	C	0.653343	0.523678	0.321151
C66	C	0.986676	0.857011	0.654484
N67	N	0.448527	0.136319	-0.008701
N68	N	0.781861	0.469652	0.324632
N69	N	1.115194	0.802986	0.657965
N70	N	0.403599	0.197132	-0.012623
N71	N	0.736932	0.530466	0.320710
N72	N	1.070266	0.863799	0.654043
C73	C	0.931944	0.022537	-0.001360
C74	C	1.265277	0.355870	0.331973
C75	C	1.598610	0.689204	0.665307
C76	C	0.930491	-0.065332	0.004306
C77	C	1.263825	0.268002	0.337639
C78	C	1.597158	0.601335	0.670973
C79	C	0.929819	-0.106603	-0.065300
C80	C	1.263153	0.226730	0.268034
C81	C	1.596486	0.560063	0.601367
C82	C	0.928450	-0.189165	-0.059973
C83	C	1.261783	0.144168	0.273360
C84	C	1.595116	0.477502	0.606693
C85	C	0.927757	-0.230454	0.014959
C86	C	1.261091	0.102879	0.348292
C87	C	1.594424	0.436213	0.681626
C88	C	0.928427	-0.189176	0.084570
C89	C	1.261760	0.144157	0.417903
C90	C	1.595094	0.477490	0.751236
C91	C	0.929791	-0.106616	0.079243
C92	C	1.263124	0.226718	0.412576
C93	C	1.596458	0.560051	0.745909
C94	C	0.923671	-0.477374	0.038640
C95	C	1.257005	-0.144041	0.371974
C96	C	1.590338	0.189292	0.705307
C97	C	0.922309	-0.559941	0.043962
C98	C	1.255643	-0.226608	0.377295
C99	C	1.588976	0.106726	0.710629
C100	C	0.922331	-0.559924	-0.100582
C101	C	1.255664	-0.226591	0.232752
C102	C	1.588997	0.106743	0.566085
C103	C	0.923700	-0.477362	-0.105902
C104	C	1.257033	-0.144029	0.227431
C105	C	1.590366	0.189305	0.560765
C106	C	0.924365	-0.436091	-0.036291
C107	C	1.257698	-0.102758	0.297042
C108	C	1.591032	0.230575	0.630375
N109	N	0.926360	-0.314846	0.020405
N110	N	1.259693	0.018488	0.353738
N111	N	1.593026	0.351821	0.687072
N112	N	0.925757	-0.351701	-0.041738
N113	N	1.259090	-0.018368	0.291595
N114	N	1.592424	0.314966	0.624928
C115	C	1.069416	0.170014	-0.010864
C116	C	1.402749	0.503347	0.322469
C117	C	1.736083	0.836680	0.655802
C118	C	1.156453	0.177073	-0.011316
C119	C	1.489786	0.510407	0.322017
C120	C	1.823119	0.843740	0.655351
C121	C	0.920185	0.310919	-0.019972
C122	C	1.253518	0.644252	0.313361
C123	C	1.586852	0.977585	0.646695
C124	C	0.921638	0.398787	-0.025643
C125	C	1.254971	0.732121	0.307690
C126	C	1.588304	1.065454	0.641023
N127	N	0.926045	0.166714	0.195884
N128	N	1.259379	0.500048	0.529218
N129	N	1.592712	0.833381	0.862551
N130	N	0.926090	0.166735	-0.217215
N131	N	1.259423	0.500069	0.116119
N132	N	1.592756	0.833402	0.449452
C133	C	0.979421	0.116355	0.240857
C134	C	1.312754	0.449688	0.574191
C135	C	1.646088	0.783022	0.907524
C136	C	0.979426	0.116355	0.324310
C137	C	1.312759	0.449688	0.657643
C138	C	1.646092	0.783021	0.990976
C139	C	0.926057	0.166718	0.362787
C140	C	1.259390	0.500052	0.696120
C141	C	1.592724	0.833385	1.029454
C142	C	0.872675	0.217080	0.317808
C143	C	1.206009	0.550413	0.651142
C144	C	1.539342	0.883747	0.984475
C145	C	0.872668	0.217076	0.234358
C146	C	1.206001	0.550409	0.567691
C147	C	1.539335	0.883743	0.901025
C148	C	0.872704	0.217097	0.654354
C149	C	1.206037	0.550431	0.987688
C150	C	1.539370	0.883764	1.321021
C151	C	0.872717	0.217099	0.737811
C152	C	1.206050	0.550433	1.071144
C153	C	1.539384	0.883766	1.404477
C154	C	0.979461	0.116376	0.744306
C155	C	1.312795	0.449709	1.077639
C156	C	1.646128	0.783043	1.410973
C157	C	0.979454	0.116372	0.660856
C158	C	1.312787	0.449705	0.994189
C159	C	1.646121	0.783039	1.327522
C160	C	0.926070	0.166730	0.615884
C161	C	1.259403	0.500064	0.949218
C162	C	1.592737	0.833397	1.282551
C163	C	0.926065	0.166729	0.525396
C164	C	1.259398	0.500062	0.858729
C165	C	1.592731	0.833396	1.192063
C166	C	0.926065	0.166724	0.453274
C167	C	1.259399	0.500058	0.786607
C168	C	1.592732	0.833391	1.119940
H169	H	0.295308	0.319339	-0.020527
H170	H	0.628641	0.652672	0.312806
H171	H	0.961975	0.986005	0.646139
Cl172	Cl	0.805579	0.280392	0.366178
Cl173	Cl	1.138912	0.613725	0.699512
Cl174	Cl	1.472245	0.947059	1.032845
H175	H	0.924229	-0.443783	0.095322
H176	H	1.257562	-0.110449	0.428656
H177	H	1.590895	0.222884	0.761989
Cl178	Cl	0.805561	0.280385	0.177821
Cl179	Cl	1.138894	0.613718	0.511155
Cl180	Cl	1.472227	0.947052	0.844488
Cl181	Cl	1.046521	0.053040	0.192494
Cl182	Cl	1.379854	0.386374	0.525828
Cl183	Cl	1.713188	0.719707	0.859161
Cl184	Cl	0.930695	-0.054706	-0.159505
Cl185	Cl	1.264028	0.278627	0.173828
Cl186	Cl	1.597362	0.611961	0.507161
H187	H	0.927906	-0.222765	-0.116653
H188	H	1.261239	0.110568	0.216680
H189	H	1.594572	0.443902	0.550013
Cl190	Cl	0.921493	-0.611812	-0.188086
Cl191	Cl	1.254826	-0.278478	0.145247
Cl192	Cl	1.588159	0.054855	0.478581
H193	H	0.670974	0.285371	-0.018351
H194	H	1.004307	0.618705	0.314982
H195	H	1.337640	0.952038	0.648316
H196	H	0.829255	0.258113	0.769137
H197	H	1.162588	0.591446	1.102471
H198	H	1.495922	0.924780	1.435804
Cl199	Cl	0.500334	0.303496	-0.019510
Cl200	Cl	0.833668	0.636830	0.313824
Cl201	Cl	1.167001	0.970163	0.647157
Cl202	Cl	0.351790	0.029952	-0.001817
Cl203	Cl	0.685124	0.363285	0.331517
Cl204	Cl	1.018457	0.696619	0.664850
H205	H	0.556814	0.014118	-0.000806
H206	H	0.890148	0.347451	0.332528
H207	H	1.223481	0.680785	0.665861
H208	H	0.829238	0.258102	0.617745
H209	H	1.162571	0.591436	0.951078
H210	H	1.495905	0.924769	1.284412
H211	H	1.022914	0.075364	0.629530
H212	H	1.356247	0.408697	0.962863
H213	H	1.689581	0.742031	1.296197
Cl214	Cl	1.046571	0.053064	0.800846
Cl215	Cl	1.379905	0.386397	1.134180
Cl216	Cl	1.713238	0.719730	1.467513
Cl217	Cl	0.124662	0.337465	-0.021679
Cl218	Cl	0.457995	0.670799	0.311655
Cl219	Cl	0.791328	1.004132	0.644988
H220	H	0.181152	0.048080	-0.002987
H221	H	0.514485	0.381414	0.330346
H222	H	0.847819	0.714747	0.663679
H223	H	0.924264	-0.443750	-0.166920
H224	H	1.257598	-0.110417	0.166414
H225	H	1.590931	0.222916	0.499747
Cl226	Cl	0.921444	-0.611846	0.138170
Cl227	Cl	1.254777	-0.278513	0.471503
Cl228	Cl	1.588111	0.054820	0.804837
Cl229	Cl	0.927547	-0.241082	0.178771
Cl230	Cl	1.260880	0.092251	0.512104
Cl231	Cl	1.594214	0.425585	0.845438
H232	H	0.705182	0.026156	-0.001604
H233	H	1.038515	0.359490	0.331729
H234	H	1.371849	0.692823	0.665063
H235	H	0.930327	-0.073013	0.135923
H236	H	1.263660	0.260321	0.469256
H237	H	1.596994	0.593654	0.802589
H238	H	1.022888	0.075348	0.360926
H239	H	1.356221	0.408681	0.694260
H240	H	1.689554	0.742014	1.027593
