data_functionalizedCrystal
_audit_creation_method	'MofGen! by Chris Wilmer'
_symmetry_space_group_name_H-M	'P1'
_symmetry_Int_Tables_number	1
_symmetry_cell_setting	triclinic
loop_
_symmetry_equiv_pos_as_xyz
  x,y,z
_cell_length_a	12.645330
_cell_length_b	14.908618
_cell_length_c	14.908308
_cell_angle_alpha	90.173623
_cell_angle_beta	86.729519
_cell_angle_gamma	93.287528
loop_
_atom_site_label
_atom_site_type_symbol
_atom_site_fract_x
_atom_site_fract_y
_atom_site_fract_z
Zn1	Zn	-0.553274	-1.345314	0.587645
Zn2	Zn	-0.053274	-0.845314	1.087645
Zn3	Zn	-0.720953	-1.353901	0.437294
Zn4	Zn	-0.220953	-0.853901	0.937294
Zn5	Zn	-0.532907	-1.203629	0.428638
Zn6	Zn	-0.032907	-0.703629	0.928638
Zn7	Zn	-0.719688	-1.194929	0.578941
Zn8	Zn	-0.219688	-0.694929	1.078941
O9	O	-0.631705	-1.274443	0.508130
O10	O	-0.131705	-0.774443	1.008130
O11	O	-0.584570	-1.472280	0.574966
O12	O	-0.084570	-0.972280	1.074966
O13	O	-0.688014	-1.341202	0.310321
O14	O	-0.188014	-0.841202	0.810321
O15	O	-0.387266	-1.222471	0.449751
O16	O	0.112734	-0.722471	0.949751
O17	O	-0.707763	-1.478588	0.464503
O18	O	-0.207763	-0.978588	0.964503
O19	O	-0.402229	-1.326567	0.566573
O20	O	0.097771	-0.826567	1.066573
O21	O	-0.549858	-1.230798	0.303961
O22	O	-0.049858	-0.730798	0.803961
O23	O	-0.548631	-1.076649	0.441311
O24	O	-0.048631	-0.576649	0.941311
O25	O	-0.705607	-1.207643	0.705921
O26	O	-0.205607	-0.707643	1.205921
O27	O	-0.685858	-1.070257	0.551738
O28	O	-0.185858	-0.570257	1.051738
O29	O	-0.583343	-1.318131	0.712315
O30	O	-0.083343	-0.818131	1.212315
O31	O	-0.869128	-1.332766	0.456064
O32	O	-0.369128	-0.832766	0.956064
O33	O	-0.868198	-1.215969	0.560131
O34	O	-0.368198	-0.715969	1.060131
C35	C	-0.614898	-1.040827	0.494641
C36	C	-0.114898	-0.540827	0.994641
C37	C	-0.607734	-0.940884	0.488892
C38	C	-0.107734	-0.440884	0.988892
C39	C	-0.737369	-0.746482	0.592923
C40	C	-0.237369	-0.246482	1.092923
C41	C	-0.730641	-0.652576	0.587524
C42	C	-0.230641	-0.152576	1.087524
C43	C	-0.587549	-0.659165	0.472702
C44	C	-0.087549	-0.159165	0.972702
C45	C	-0.594276	-0.753071	0.478100
C46	C	-0.094276	-0.253071	0.978100
C47	C	-0.669189	-0.796726	0.538212
C48	C	-0.169189	-0.296726	1.038212
C49	C	-0.675921	-0.890634	0.543605
C50	C	-0.175921	-0.390634	1.043605
C51	C	-0.532824	-0.897221	0.428788
C52	C	-0.032824	-0.397221	0.928788
C53	C	-0.526097	-0.803315	0.423390
C54	C	-0.026097	-0.303315	0.923390
C55	C	-0.907130	-1.274378	0.508113
C56	C	-0.407130	-0.774378	1.008113
C57	C	-1.024965	-1.274431	0.508141
C58	C	-0.524965	-0.774431	1.008141
C59	C	-1.192023	-1.201229	0.573841
C60	C	-0.692023	-0.701229	1.073841
C61	C	-1.069424	-1.200888	0.573596
C62	C	-0.569424	-0.700888	1.073596
C63	C	-1.061664	-1.254253	0.411904
C64	C	-0.561664	-0.754253	0.911904
C65	C	-1.184259	-1.253806	0.412303
C66	C	-0.684259	-0.753806	0.912303
C67	C	-1.200451	-1.368280	0.537934
C68	C	-0.700451	-0.868280	1.037934
C69	C	-1.077934	-1.367576	0.539972
C70	C	-0.577934	-0.867576	1.039972
C71	C	-0.355209	-1.274532	0.508167
C72	C	0.144791	-0.774532	1.008167
C73	C	-0.237382	-1.274570	0.508183
C74	C	0.262618	-0.774570	1.008183
C75	C	-0.646606	-1.260959	0.742655
C76	C	-0.146606	-0.760959	1.242655
C77	C	-0.652955	-1.255212	0.842596
C78	C	-0.152955	-0.755212	1.342596
C79	C	-0.648571	-0.508972	0.521664
C80	C	-0.148571	-0.008972	1.021664
C81	C	-0.655735	-0.608915	0.527415
C82	C	-0.155735	-0.108915	1.027415
C83	C	-0.616790	-1.287927	0.274519
C84	C	-0.116790	-0.787927	0.774519
C85	C	-0.610154	-1.293848	0.174589
C86	C	-0.110154	-0.793848	0.674589
C87	C	-0.537549	-1.359463	1.037056
C88	C	-0.037549	-0.859463	1.537056
C89	C	-0.543512	-1.354066	1.130959
C90	C	-0.043512	-0.854066	1.630959
C91	C	-0.670837	-1.239019	1.124308
C92	C	-0.170837	-0.739019	1.624308
C93	C	-0.664874	-1.244416	1.030405
C94	C	-0.164874	-0.744416	1.530405
C95	C	-0.598229	-1.304640	0.986782
C96	C	-0.098229	-0.804640	1.486782
C97	C	-0.592273	-1.310041	0.892877
C98	C	-0.092273	-0.810041	1.392877
C99	C	-0.719592	-1.194990	0.886227
C100	C	-0.219592	-0.694990	1.386227
C101	C	-0.725555	-1.189594	0.980131
C102	C	-0.225555	-0.689594	1.480131
H103	H	-0.477309	-0.938140	0.384237
H104	H	0.022691	-0.438140	0.884237
H105	H	-0.769005	-1.150352	0.845284
H106	H	-0.269005	-0.650352	1.345284
H107	H	-0.736921	-0.926176	0.592550
H108	H	-0.236921	-0.426176	1.092550
H109	H	-0.798372	-0.782027	0.641863
H110	H	-0.298372	-0.282027	1.141863
H111	H	-0.538009	-1.359080	0.857361
H112	H	-0.038009	-0.859080	1.357361
N113	N	-1.212366	-1.168076	0.381502
N114	N	-0.712366	-0.668076	0.881502
N115	N	-1.307820	-1.152244	0.376232
N116	N	-0.807820	-0.652244	0.876232
H117	H	-1.327668	-1.091695	0.354480
H118	H	-0.827668	-0.591695	0.854480
H119	H	-0.786158	-0.611671	0.632077
H120	H	-0.286158	-0.111671	1.132077
H121	H	-1.229909	-1.422853	0.490180
H122	H	-0.729909	-0.922853	0.990180
N123	N	-0.738891	-1.177481	1.168855
N124	N	-0.238891	-0.677481	1.668855
N125	N	-0.836474	-1.183980	1.158710
N126	N	-0.336474	-0.683980	1.658710
H127	H	-0.884530	-1.140505	1.190164
H128	H	-0.384530	-0.640505	1.690164
H129	H	-0.526551	-0.623605	0.423768
H130	H	-0.026551	-0.123605	0.923768
N131	N	-1.038681	-1.215932	0.662903
N132	N	-0.538681	-0.715932	1.162903
N133	N	-1.107834	-1.226755	0.725849
N134	N	-0.607834	-0.726755	1.225849
H135	H	-1.086128	-1.237377	0.788926
H136	H	-0.586128	-0.737377	1.288926
N137	N	-0.469483	-1.420989	0.992505
N138	N	0.030517	-0.920989	1.492505
N139	N	-0.415315	-1.469940	1.037405
N140	N	0.084685	-0.969940	1.537405
H141	H	-0.367241	-1.513395	1.005943
H142	H	0.132759	-1.013395	1.505943
H143	H	-1.213959	-1.305203	0.361420
H144	H	-0.713959	-0.805203	0.861420
N145	N	-1.025222	-1.319450	0.348562
N146	N	-0.525222	-0.819450	0.848562
N147	N	-0.971666	-1.381661	0.373701
N148	N	-0.471666	-0.881661	0.873701
H149	H	-0.945927	-1.427709	0.328968
H150	H	-0.445927	-0.927709	0.828968
H151	H	-1.227079	-1.213059	0.645250
H152	H	-0.727079	-0.713059	1.145250
N153	N	-1.223210	-1.114480	0.548860
N154	N	-0.723210	-0.614480	1.048860
N155	N	-1.278697	-1.106435	0.482911
N156	N	-0.778697	-0.606435	0.982911
H157	H	-1.300727	-1.045169	0.465266
H158	H	-0.800727	-0.545169	0.965266
N159	N	-0.481514	-1.410053	1.182314
N160	N	0.018486	-0.910053	1.682314
N161	N	-0.382602	-1.404713	1.171493
N162	N	0.117398	-0.904713	1.671493
H163	H	-0.338810	-1.444254	1.207762
H164	H	0.161190	-0.944254	1.707762
H165	H	-0.779813	-1.140559	1.015661
H166	H	-0.279813	-0.640559	1.515661
N167	N	-1.025112	-1.113593	0.548330
N168	N	-0.525112	-0.613593	1.048330
N169	N	-1.084744	-1.052733	0.530815
N170	N	-0.584744	-0.552733	1.030815
H171	H	-1.053451	-0.991077	0.512969
H172	H	-0.553451	-0.491077	1.012969
N173	N	-1.048692	-1.386784	0.628856
N174	N	-0.548692	-0.886784	1.128856
N175	N	-0.989066	-1.332124	0.668663
N176	N	-0.489066	-0.832124	1.168663
H177	H	-0.968408	-1.345685	0.731439
H178	H	-0.468408	-0.845685	1.231439
N179	N	-0.449579	-0.758704	0.362001
N180	N	0.050421	-0.258704	0.862001
N181	N	-0.443578	-0.674860	0.357190
N182	N	0.056422	-0.174860	0.857190
H183	H	-0.389537	-0.643354	0.313832
H184	H	0.110463	-0.143354	0.813832
H185	H	-1.024773	-1.186659	0.387008
H186	H	-0.524773	-0.686659	0.887008
N187	N	-1.246705	-1.392708	0.624832
N188	N	-0.746705	-0.892708	1.124832
N189	N	-1.307460	-1.341341	0.665895
N190	N	-0.807460	-0.841341	1.165895
H191	H	-1.340131	-1.358584	0.727269
H192	H	-0.840131	-0.858584	1.227269
N193	N	-1.040643	-1.439199	0.484901
N194	N	-0.540643	-0.939199	0.984901
N195	N	-1.074583	-1.518306	0.500664
N196	N	-0.574583	-1.018306	1.000664
H197	H	-1.048248	-1.568890	0.461763
H198	H	-0.548248	-1.068890	0.961763
