data_functionalizedCrystal
_audit_creation_method	'MofGen! by Chris Wilmer'
_symmetry_space_group_name_H-M	'P1'
_symmetry_Int_Tables_number	1
_symmetry_cell_setting	triclinic
loop_
_symmetry_equiv_pos_as_xyz
  x,y,z
_cell_length_a	11.026607
_cell_length_b	10.540539
_cell_length_c	10.065875
_cell_angle_alpha	98.880198
_cell_angle_beta	79.302338
_cell_angle_gamma	96.555754
loop_
_atom_site_label
_atom_site_type_symbol
_atom_site_fract_x
_atom_site_fract_y
_atom_site_fract_z
O1	O	1.632406	0.517971	-0.113482
O2	O	2.132406	1.017971	0.386518
O3	O	1.278575	0.457324	-0.113485
O4	O	1.778575	0.957324	0.386515
O5	O	1.463562	0.304709	-0.113482
O6	O	1.963562	0.804709	0.386518
O7	O	1.447418	0.670585	-0.113485
O8	O	1.947418	1.170585	0.386515
O9	O	1.428289	0.333960	0.113506
O10	O	1.928289	0.833960	0.613506
O11	O	1.243301	0.486575	0.113503
O12	O	1.743301	0.986575	0.613503
O13	O	1.597132	0.547222	0.113506
O14	O	2.097132	1.047222	0.613506
Zn15	Zn	1.414616	0.521543	0.149544
Zn16	Zn	1.914616	1.021543	0.649544
Zn17	Zn	1.461091	0.483003	-0.149523
Zn18	Zn	1.961091	0.983003	0.350477
O19	O	1.412145	0.699836	0.113503
O20	O	1.912145	1.199836	0.613503
C21	C	1.215630	0.460761	0.000009
C22	C	1.715630	0.960761	0.500009
C23	C	1.080627	0.427408	0.000007
C24	C	1.580627	0.927408	0.500007
C25	C	1.007620	0.519500	0.000005
C26	C	1.507620	1.019500	0.500005
C27	C	0.868087	0.485031	0.000004
C28	C	1.368087	0.985031	0.500004
C29	C	1.444715	0.271766	0.000010
C30	C	1.944715	0.771766	0.500010
C31	C	1.441094	0.130024	0.000002
C32	C	1.941094	0.630024	0.500002
C33	C	1.302369	-0.083873	-0.000508
C34	C	1.802369	0.416127	0.499492
C35	C	1.305961	0.063616	0.000003
C36	C	1.805961	0.563616	0.500003
C37	C	1.485983	0.099314	0.129624
C38	C	1.985983	0.599314	0.629624
C39	C	1.481354	-0.048226	0.129734
C40	C	1.981354	0.451774	0.629734
C41	C	1.524215	-0.081406	-0.128394
C42	C	2.024215	0.418594	0.371606
C43	C	1.525726	0.065627	-0.130108
C44	C	2.025726	0.565627	0.369892
C45	C	1.660077	0.543784	0.000010
C46	C	2.160077	1.043784	0.500010
C47	C	1.795082	0.577136	0.000002
C48	C	2.295082	1.077136	0.500002
C49	C	1.430992	0.732779	0.000008
C50	C	1.930992	1.232779	0.500008
C51	C	1.434615	0.874520	0.000007
C52	C	1.934615	1.374520	0.500007
N53	N	1.382908	0.547846	0.353649
N54	N	1.882908	1.047846	0.853649
N55	N	1.492809	0.456692	-0.353628
N56	N	1.992809	0.956692	0.146372
C57	C	1.450050	0.492145	0.421429
C58	C	1.950050	0.992145	0.921429
C59	C	1.425656	0.512401	0.578596
C60	C	1.925656	1.012401	1.078596
H61	H	1.048415	0.623863	0.000012
H62	H	1.548415	1.123863	0.500012
F63	F	0.814775	0.348613	0.000014
F64	F	1.314775	0.848613	0.500014
H65	H	1.239969	0.106079	0.093075
H66	H	1.739969	0.606079	0.593075
F67	F	1.483499	0.089957	-0.255463
F68	F	1.983499	0.589957	0.244537
F69	F	1.591761	0.375012	0.570151
F70	F	2.091761	0.875012	1.070151
H71	H	1.350104	0.575083	0.636915
H72	H	1.850104	1.075083	1.136915
F73	F	1.284160	0.629772	0.429878
F74	F	1.784160	1.129772	0.929878
F75	F	1.257951	0.089004	-0.121448
F76	F	1.757951	0.589004	0.378552
F77	F	0.848387	0.713558	0.000017
F78	F	1.348387	1.213558	0.500017
F79	F	1.548574	0.409938	0.345200
F80	F	2.048574	0.909938	0.845200
F81	F	1.398850	-0.082529	0.256378
F82	F	1.898850	0.417471	0.756378
F83	F	1.027309	0.290997	0.000017
F84	F	1.527309	0.790997	0.500017
H85	H	1.621956	-0.107365	-0.129265
H86	H	2.121956	0.392635	0.370735
H87	H	1.234841	-0.113813	0.091924
H88	H	1.734841	0.386187	0.591924
F89	F	1.251473	-0.152192	-0.122007
F90	F	1.751473	0.347808	0.377993
H91	H	1.577626	-0.074149	0.135615
H92	H	2.077626	0.425851	0.635615
F93	F	1.614715	0.157755	0.135930
F94	F	2.114715	0.657755	0.635930
H95	H	1.425819	0.144449	0.226084
H96	H	1.925819	0.644449	0.726084
F97	F	1.656092	0.124179	-0.140347
F98	F	2.156092	0.624179	0.359653
F99	F	1.486996	-0.151705	-0.256809
F100	F	1.986996	0.348295	0.243191
