data_functionalizedCrystal
_audit_creation_method	'MofGen! by Chris Wilmer'
_symmetry_space_group_name_H-M	'P1'
_symmetry_Int_Tables_number	1
_symmetry_cell_setting	triclinic
loop_
_symmetry_equiv_pos_as_xyz
  x,y,z
_cell_length_a	10.540539
_cell_length_b	10.540539
_cell_length_c	10.268362
_cell_angle_alpha	89.996859
_cell_angle_beta	89.997484
_cell_angle_gamma	84.525492
loop_
_atom_site_label
_atom_site_type_symbol
_atom_site_fract_x
_atom_site_fract_y
_atom_site_fract_z
O1	O	1.685887	0.178901	-0.108232
O2	O	1.316474	0.195757	-0.108248
O3	O	1.509609	0.002623	-0.108238
O4	O	1.492753	0.372036	-0.108242
O5	O	1.509592	0.002615	0.108363
O6	O	1.316457	0.195749	0.108353
O7	O	1.685870	0.178893	0.108368
Cu8	Cu	1.501162	0.187321	0.128138
Cu9	Cu	1.501182	0.187330	-0.128017
O10	O	1.492736	0.372028	0.108359
C11	C	1.269163	0.194489	0.000051
C12	C	1.128215	0.190707	0.000045
C13	C	0.944788	0.045790	0.000552
C14	C	1.091406	0.049624	0.000050
C15	C	1.066552	0.258607	-0.123641
C16	C	0.920007	0.253792	-0.123731
C17	C	0.919500	0.256653	0.122584
C18	C	1.066482	0.257952	0.124206
C19	C	1.508336	-0.044684	0.000060
C20	C	1.504554	-0.185632	0.000053
C21	C	1.359637	-0.369059	-0.000439
C22	C	1.363471	-0.222441	0.000048
C23	C	1.572440	-0.247295	0.123745
C24	C	1.567625	-0.393839	0.123849
C25	C	1.570514	-0.394348	-0.122466
C26	C	1.571814	-0.247366	-0.124101
C27	C	1.733182	0.180161	0.000067
C28	C	1.874130	0.183943	0.000065
C29	C	1.494008	0.419335	0.000058
C30	C	1.497790	0.560283	0.000057
N31	N	1.501157	0.187313	0.308304
N32	N	1.501197	0.187328	-0.308183
C33	C	1.501176	0.187328	0.573975
C34	C	1.501162	0.187323	0.426137
H35	H	0.887946	0.210991	0.216337
H36	H	1.525269	-0.204698	0.215789
N37	N	1.509582	-0.195965	-0.238877
N38	N	1.504157	-0.078964	-0.261030
H39	H	1.460202	-0.042645	-0.342083
H40	H	1.133158	-0.004172	-0.088765
H41	H	1.303913	-0.397656	-0.089141
N42	N	1.700851	-0.216972	-0.133445
N43	N	1.778297	-0.249456	-0.044608
H44	H	1.869433	-0.227986	-0.051195
N45	N	1.513242	-0.433945	-0.240067
N46	N	1.418119	-0.496093	-0.235003
H47	H	1.377659	-0.524062	-0.318052
H48	H	1.517440	-0.422042	0.216308
N49	N	1.296453	-0.169001	-0.111185
N50	N	1.246514	-0.239984	-0.189719
H51	H	1.199173	-0.202248	-0.268279
H52	H	0.891804	0.203615	-0.216186
N53	N	1.694913	-0.454005	0.130912
N54	N	1.787016	-0.387727	0.135757
H55	H	1.876912	-0.430213	0.140755
H56	H	1.676048	-0.224941	0.128348
N57	N	1.094572	0.388588	-0.129417
N58	N	1.059573	0.463616	-0.039287
H59	H	1.079362	0.555417	-0.043363
H60	H	0.914588	-0.009707	-0.087655
H61	H	1.109147	0.211446	-0.215689
H62	H	1.672418	-0.441574	-0.123294
N63	N	1.144876	-0.017431	0.111250
N64	N	1.224419	-0.112109	0.096414
H65	H	1.262181	-0.159476	0.174947
H66	H	0.916196	-0.009949	0.089254
N67	N	1.289966	-0.406907	0.110205
N68	N	1.189429	-0.459082	0.094566
H69	H	1.140223	-0.485802	0.172713
H70	H	1.107437	0.208349	0.215708
N71	N	0.859841	0.381081	-0.130773
N72	N	0.926119	0.473185	-0.135615
H73	H	0.883634	0.563083	-0.140594
H74	H	1.090707	0.360811	0.131673
H75	H	0.872273	0.358557	0.123419
H76	H	1.309666	-0.180688	0.088859
