data_functionalizedCrystal
_audit_creation_method	'MofGen! by Chris Wilmer'
_symmetry_space_group_name_H-M	'P1'
_symmetry_Int_Tables_number	1
_symmetry_cell_setting	triclinic
loop_
_symmetry_equiv_pos_as_xyz
  x,y,z
_cell_length_a	15.538191
_cell_length_b	16.109301
_cell_length_c	14.750779
_cell_angle_alpha	77.359896
_cell_angle_beta	82.427828
_cell_angle_gamma	114.633213
loop_
_atom_site_label
_atom_site_type_symbol
_atom_site_fract_x
_atom_site_fract_y
_atom_site_fract_z
O1	O	1.229538	0.245842	0.079829
O2	O	0.955249	0.149834	0.079832
O3	O	1.099931	0.321144	0.079821
O4	O	1.084856	0.074532	0.079840
O5	O	1.140831	0.369568	-0.079833
O6	O	0.996149	0.198257	-0.079822
O7	O	1.270438	0.294266	-0.079824
Zn8	Zn	1.139787	0.253950	-0.105171
Zn9	Zn	1.085900	0.190150	0.105179
O10	O	1.125756	0.122955	-0.079813
C11	C	0.940600	0.164000	0.000005
C12	C	0.836017	0.134080	0.000006
C13	C	1.119771	0.376147	-0.000007
C14	C	1.117941	0.467891	-0.000008
N15	N	1.176571	0.297494	-0.248730
C16	C	0.548320	0.431336	-0.000003
C17	C	0.450045	0.403199	-0.000000
C18	C	0.427550	0.244937	0.000012
C19	C	0.525827	0.273062	0.000005
C20	C	0.586204	0.366262	-0.000002
C21	C	0.563711	0.207989	0.000006
C22	C	0.661978	0.236110	0.000003
C23	C	0.722360	0.329305	-0.000001
C24	C	0.684471	0.394384	-0.000005
C25	C	0.503330	0.114787	0.000019
C26	C	0.541214	0.049713	0.000020
C27	C	0.639484	0.077837	0.000011
C28	C	0.699867	0.171032	0.000007
C29	C	0.677373	0.012758	0.000015
C30	C	0.775640	0.040880	0.000012
C31	C	0.798133	0.199153	0.000005
C32	C	1.285086	0.280098	0.000004
C33	C	1.389668	0.310017	0.000010
C34	C	1.105916	0.067952	0.000016
C35	C	1.107744	-0.023794	0.000024
C36	C	1.199531	0.714762	0.000006
C37	C	1.197802	0.800960	0.000014
C38	C	1.026146	0.729325	0.000012
C39	C	1.027874	0.643128	0.000011
C40	C	1.114571	0.635851	0.000003
C41	C	1.111114	0.808246	0.000012
C42	C	1.109239	0.901704	0.000021
C43	C	1.116446	0.542386	-0.000003
C44	C	0.946393	0.025038	-0.600531
C45	C	0.972175	0.055548	-0.701032
C46	C	1.100317	0.207209	-0.701004
C47	C	1.074543	0.176714	-0.600501
C48	C	0.997580	0.085627	-0.550272
C49	C	1.125730	0.237303	-0.550243
C50	C	1.099960	0.206808	-0.449748
C51	C	1.023003	0.115724	-0.399512
C52	C	0.971810	0.055132	-0.449778
C53	C	1.202697	0.328387	-0.600473
C54	C	1.253884	0.388976	-0.550215
C55	C	1.228110	0.358484	-0.449719
C56	C	1.151153	0.267400	-0.399483
C57	C	1.279303	0.419076	-0.399453
C58	C	1.253533	0.388581	-0.298959
C59	C	1.125383	0.236905	-0.298988
N60	N	1.049124	0.146614	0.248737
H61	H	0.802371	0.352196	0.000010
C62	C	0.474797	-0.052798	0.000022
H63	H	0.410848	-0.060226	0.000016
H64	H	0.472019	-0.097597	0.055693
H65	H	0.500546	-0.063807	-0.055663
C66	C	0.610951	-0.089756	0.000026
H67	H	0.547002	-0.097182	0.000025
H68	H	0.608177	-0.134550	0.055700
H69	H	0.636694	-0.100772	-0.055657
C70	C	1.291261	0.887761	0.000012
H71	H	1.343139	0.871079	-0.000000
H72	H	1.279896	0.905986	0.055687
H73	H	1.308417	0.939766	-0.055669
C74	C	0.817316	-0.030698	0.000014
H75	H	0.767287	-0.090229	0.000009
H76	H	0.840921	-0.039902	0.055688
H77	H	0.869446	-0.006127	-0.055668
H78	H	1.223678	0.353211	-0.682302
C79	C	0.930791	0.737339	0.000007
H80	H	0.941931	0.799980	-0.000002
H81	H	0.881541	0.691606	0.055679
H82	H	0.910082	0.725389	-0.055678
C83	C	1.309827	0.455226	-0.243666
H84	H	1.283460	0.424015	-0.176622
H85	H	1.303837	0.512635	-0.260139
H86	H	1.376919	0.470131	-0.260116
H87	H	0.958684	0.578870	0.000011
C88	C	0.861733	-0.075156	-0.545272
H89	H	0.834937	-0.106879	-0.589596
H90	H	0.812483	-0.068950	-0.506076
H91	H	0.885563	-0.111458	-0.506064
H92	H	1.062706	0.162737	-0.258090
H93	H	0.423315	0.091892	0.000024
C94	C	0.864561	0.301674	-0.000013
H95	H	0.928511	0.309100	-0.000021
H96	H	0.838822	0.312705	0.055656
H97	H	0.867344	0.346465	-0.055701
H98	H	1.341972	0.493236	-0.440363
C99	C	0.994651	0.082172	-0.288971
H100	H	0.941490	0.019245	-0.266256
H101	H	0.975948	0.124532	-0.266236
H102	H	1.049026	0.082022	-0.266222
H103	H	0.733636	0.470278	-0.000016
H104	H	1.270125	0.708842	0.000002
C105	C	0.887151	-0.045062	-0.394520
H106	H	0.860354	-0.076784	-0.438843
H107	H	0.837901	-0.038855	-0.355324
H108	H	0.910980	-0.081364	-0.355312
C109	C	0.915821	-0.011082	-0.756313
H110	H	0.866280	-0.069686	-0.712002
H111	H	0.959711	-0.023612	-0.795531
H112	H	0.886677	0.018951	-0.795501
H113	H	1.162983	0.281372	-0.741912
C114	C	0.614740	0.533853	-0.000006
H115	H	0.578105	0.568584	-0.000001
H116	H	0.667808	0.565001	-0.055677
H117	H	0.639270	0.531215	0.055679
C118	C	0.408373	0.474784	-0.000006
H119	H	0.341200	0.444688	0.000003
H120	H	0.443361	0.528797	-0.055682
H121	H	0.414834	0.495016	0.055674
C122	C	1.338533	0.489169	-0.605467
H123	H	1.365329	0.520885	-0.561139
H124	H	1.314708	0.525466	-0.644680
H125	H	1.387795	0.482967	-0.644658
C126	C	0.361133	0.142426	0.000014
H127	H	0.297184	0.134998	0.000008
H128	H	0.358355	0.097627	0.055685
H129	H	0.386882	0.131417	-0.055671
