data_functionalizedCrystal
_audit_creation_method	'MofGen! by Chris Wilmer'
_symmetry_space_group_name_H-M	'P1'
_symmetry_Int_Tables_number	1
_symmetry_cell_setting	triclinic
loop_
_symmetry_equiv_pos_as_xyz
  x,y,z
_cell_length_a	14.044220
_cell_length_b	19.188930
_cell_length_c	13.101039
_cell_angle_alpha	93.345801
_cell_angle_beta	86.340132
_cell_angle_gamma	88.166830
loop_
_atom_site_label
_atom_site_type_symbol
_atom_site_fract_x
_atom_site_fract_y
_atom_site_fract_z
O1	O	1.262233	0.164759	-0.085127
O2	O	0.986290	0.158685	-0.085152
O3	O	1.132223	0.060581	-0.085119
O4	O	1.116300	0.262863	-0.085160
O5	O	1.121753	0.067633	0.085309
O6	O	0.975820	0.165737	0.085275
O7	O	1.251762	0.171810	0.085300
Zn8	Zn	1.112128	0.169893	0.112347
Zn9	Zn	1.125924	0.160602	-0.112199
O10	O	1.105829	0.269914	0.085267
C11	C	0.945752	0.159553	0.000059
C12	C	0.840559	0.151623	0.000050
C13	C	0.647957	0.137129	0.000073
C14	C	0.590091	0.193363	0.000066
C15	C	0.482920	0.185298	0.000079
C16	C	0.755137	0.145193	0.000060
C17	C	1.126472	0.038063	0.000098
C18	C	1.124923	-0.039541	0.000106
C19	C	1.210553	-0.078939	0.000119
C20	C	1.209099	-0.151857	0.000103
C21	C	1.122010	-0.185374	0.000094
C22	C	1.036370	-0.145968	0.000075
C23	C	1.037827	-0.073051	0.000082
N24	N	1.051878	-0.295275	0.058088
N25	N	1.050500	-0.364543	0.058084
C26	C	1.117617	-0.405067	0.000073
N27	N	1.186177	-0.373707	-0.057921
N28	N	1.187558	-0.304433	-0.057913
C29	C	1.120421	-0.264440	0.000086
C30	C	1.201676	-0.523532	0.000066
C31	C	1.200219	-0.596452	0.000043
C32	C	1.027487	-0.590560	0.000026
C33	C	1.028947	-0.517642	0.000039
C34	C	1.116043	-0.484132	0.000064
C35	C	1.292301	0.170943	0.000087
C36	C	1.397494	0.178872	0.000089
C37	C	1.111580	0.292433	0.000048
C38	C	1.113129	0.370037	0.000033
N39	N	1.102720	0.176234	0.265593
N40	N	1.135340	0.154257	-0.265445
C41	C	1.089920	0.184867	0.474633
C42	C	1.148137	0.145626	0.525522
C43	C	1.141014	0.150429	0.641839
C44	C	1.097041	0.180064	0.358306
H45	H	0.617011	0.082932	0.000090
O46	O	1.213783	0.101164	0.473132
C47	C	1.206232	0.106091	0.366975
H48	H	1.171824	0.158886	0.352371
H49	H	1.280428	0.100839	0.326007
H50	H	1.160341	0.062531	0.336707
O51	O	0.945819	-0.479285	0.000174
C52	C	0.936060	-0.433303	0.088455
H53	H	1.009454	-0.423724	0.117892
H54	H	0.901755	-0.381599	0.068604
H55	H	0.889080	-0.457401	0.150255
H56	H	1.281474	-0.051660	0.000136
O57	O	1.286225	-0.490900	-0.000060
C58	C	1.297663	-0.452550	-0.088331
H59	H	1.224704	-0.440285	-0.117760
H60	H	1.334016	-0.401702	-0.068470
H61	H	1.343517	-0.484651	-0.150141
O62	O	1.292367	-0.190031	0.000164
C63	C	1.369553	-0.144820	0.000156
H64	H	1.343293	-0.090647	0.032419
H65	H	1.426487	-0.165908	0.049648
H66	H	1.401295	-0.141346	-0.081600
H67	H	0.968095	-0.040974	0.000072
H68	H	0.965462	-0.173262	0.000066
O69	O	1.024170	0.229238	0.527022
C70	C	1.031603	0.224209	0.633177
H71	H	1.106127	0.203334	0.647697
H72	H	1.018510	0.278080	0.674034
H73	H	0.976184	0.187147	0.663639
O74	O	0.942955	-0.623193	-0.000122
C75	C	0.942359	-0.668819	-0.088408
H76	H	1.018932	-0.683514	-0.117826
H77	H	0.903561	-0.718029	-0.068570
H78	H	0.904102	-0.641811	-0.150217
O79	O	0.627164	0.257972	-0.000024
C80	C	0.727468	0.251749	-0.000020
H81	H	0.752760	0.197355	-0.032249
H82	H	0.760771	0.292643	-0.049541
H83	H	0.749982	0.260216	0.081732
H84	H	1.269952	-0.628529	0.000048
