data_functionalizedCrystal
_audit_creation_method	'MofGen! by Chris Wilmer'
_symmetry_space_group_name_H-M	'P1'
_symmetry_Int_Tables_number	1
_symmetry_cell_setting	triclinic
loop_
_symmetry_equiv_pos_as_xyz
  x,y,z
_cell_length_a	29.839134
_cell_length_b	29.839126
_cell_length_c	18.050589
_cell_angle_alpha	89.983119
_cell_angle_beta	90.023083
_cell_angle_gamma	89.970362
loop_
_atom_site_label
_atom_site_type_symbol
_atom_site_fract_x
_atom_site_fract_y
_atom_site_fract_z
Zn1	Zn	0.686795	-0.254148	-0.295818
Zn2	Zn	1.186795	0.245852	0.204182
Zn3	Zn	0.686734	-0.179027	-0.419999
Zn4	Zn	1.186734	0.320973	0.080001
Zn5	Zn	0.611668	-0.179017	-0.295816
Zn6	Zn	1.111668	0.320983	0.204184
Zn7	Zn	0.611643	-0.254116	-0.419960
Zn8	Zn	1.111643	0.245884	0.080040
O9	O	0.649210	-0.216577	-0.357898
O10	O	1.149210	0.283423	0.142102
O11	O	0.749654	-0.244200	-0.312308
O12	O	1.249654	0.255800	0.187692
O13	O	0.676762	-0.116159	-0.403541
O14	O	1.176762	0.383841	0.096459
O15	O	0.621669	-0.188993	-0.191891
O16	O	1.121669	0.311007	0.308109
O17	O	0.749609	-0.189010	-0.403543
O18	O	1.249609	0.310990	0.096457
O19	O	0.676865	-0.244191	-0.191893
O20	O	1.176865	0.255809	0.308107
O21	O	0.621610	-0.116151	-0.312304
O22	O	1.121610	0.383849	0.187696
O23	O	0.548797	-0.188962	-0.312266
O24	O	1.048797	0.311038	0.187734
O25	O	0.621627	-0.316987	-0.403477
O26	O	1.121627	0.183013	0.096523
O27	O	0.548779	-0.244136	-0.403474
O28	O	1.048779	0.255864	0.096526
O29	O	0.676841	-0.317011	-0.312270
O30	O	1.176841	0.182989	0.187730
O31	O	0.676737	-0.188979	-0.523918
O32	O	1.176737	0.311021	-0.023918
O33	O	0.621568	-0.244146	-0.523889
O34	O	1.121568	0.255854	-0.023889
C35	C	0.532487	-0.216545	-0.357866
C36	C	1.032487	0.283455	0.142134
C37	C	0.482553	-0.216541	-0.357871
C38	C	0.982553	0.283459	0.142129
C39	C	0.172909	-0.245271	-0.405460
C40	C	0.672909	0.254729	0.094540
C41	C	-0.014764	-0.245291	-0.405481
C42	C	0.485236	0.254709	0.094519
O43	O	-0.039029	-0.269699	-0.445908
O44	O	0.460971	0.230301	0.054092
N45	N	-0.038232	-0.216611	-0.357925
N46	N	0.461768	0.283389	0.142075
C47	C	-0.014780	-0.187926	-0.310357
C48	C	0.485220	0.312074	0.189643
O49	O	-0.039047	-0.163535	-0.269903
O50	O	0.460953	0.336465	0.230097
C51	C	0.172892	-0.187908	-0.310333
C52	C	0.672892	0.312092	0.189667
C53	C	0.196359	-0.216587	-0.357897
C54	C	0.696359	0.283413	0.142103
C55	C	0.196376	-0.273948	-0.453020
C56	C	0.696376	0.226052	0.046980
C57	C	0.243291	-0.273941	-0.453017
C58	C	0.743291	0.226059	0.046983
C59	C	0.266740	-0.245257	-0.405455
C60	C	0.766740	0.254743	0.094545
C61	C	0.243274	-0.216580	-0.357895
C62	C	0.743274	0.283420	0.142105
C63	C	0.196344	-0.159226	-0.262762
C64	C	0.696344	0.340774	0.237238
C65	C	0.243265	-0.159225	-0.262759
C66	C	0.743265	0.340775	0.237241
C67	C	0.266731	-0.187904	-0.310323
C68	C	0.766731	0.312096	0.189677
C69	C	0.313639	-0.187889	-0.310329
C70	C	0.813639	0.312111	0.189671
N71	N	0.337107	-0.216569	-0.357885
N72	N	0.837107	0.283431	0.142115
C73	C	0.313658	-0.245253	-0.405448
C74	C	0.813658	0.254747	0.094552
C75	C	-0.113310	-0.187936	-0.310374
C76	C	0.386690	0.312064	0.189626
C77	C	-0.160228	-0.187940	-0.310381
C78	C	0.339772	0.312060	0.189619
C79	C	-0.160209	-0.245306	-0.405504
C80	C	0.339791	0.254694	0.094496
C81	C	-0.113290	-0.245300	-0.405501
C82	C	0.386710	0.254700	0.094499
C83	C	-0.089842	-0.216616	-0.357930
C84	C	0.410158	0.283384	0.142070
C85	C	0.412184	-0.245236	-0.405439
C86	C	0.912184	0.254764	0.094561
C87	C	0.459104	-0.245225	-0.405434
C88	C	0.959104	0.254775	0.094566
C89	C	0.459080	-0.187861	-0.310308
C90	C	0.959080	0.312139	0.189692
C91	C	0.412165	-0.187870	-0.310315
C92	C	0.912165	0.312130	0.189685
C93	C	0.388718	-0.216561	-0.357883
C94	C	0.888718	0.283439	0.142117
O95	O	0.337933	-0.163498	-0.269917
O96	O	0.837933	0.336502	0.230083
O97	O	0.337934	-0.269647	-0.445884
O98	O	0.837934	0.230353	0.054116
C99	C	0.125994	-0.245278	-0.405463
C100	C	0.625994	0.254722	0.094537
C101	C	0.102528	-0.216601	-0.357903
C102	C	0.602528	0.283399	0.142097
C103	C	0.125977	-0.187917	-0.310340
C104	C	0.625977	0.312083	0.189660
C105	C	0.055610	-0.216605	-0.357910
C106	C	0.555610	0.283395	0.142090
C107	C	0.032161	-0.245289	-0.405473
C108	C	0.532161	0.254711	0.094527
C109	C	0.055629	-0.273969	-0.453029
C110	C	0.555629	0.226031	0.046971
C111	C	0.102545	-0.273962	-0.453026
C112	C	0.602545	0.226038	0.046974
C113	C	0.102508	-0.159237	-0.262785
C114	C	0.602508	0.340763	0.237215
C115	C	0.055593	-0.159246	-0.262792
C116	C	0.555593	0.340754	0.237208
C117	C	0.032144	-0.187930	-0.310355
C118	C	0.532144	0.312070	0.189645
C119	C	0.649238	-0.333755	-0.357870
C120	C	1.149238	0.166245	0.142130
C121	C	0.649249	-0.383690	-0.357857
C122	C	1.149249	0.116310	0.142143
C123	C	0.620541	-0.693332	-0.310276
C124	C	1.120541	-0.193332	0.189724
C125	C	0.620554	-0.881006	-0.310225
C126	C	1.120554	-0.381006	0.189775
O127	O	0.596123	-0.905270	-0.269844
O128	O	1.096123	-0.405270	0.230156
N129	N	0.649271	-0.904475	-0.357718
N130	N	1.149271	-0.404475	0.142282
C131	C	0.677984	-0.881024	-0.405231
C132	C	1.177984	-0.381024	0.094769
O133	O	0.702407	-0.905292	-0.445631
O134	O	1.202407	-0.405292	0.054369
C135	C	0.677969	-0.693351	-0.405286
C136	C	1.177969	-0.193351	0.094714
C137	C	0.649254	-0.669884	-0.357784
C138	C	1.149254	-0.169884	0.142216
C139	C	0.591828	-0.669865	-0.262779
C140	C	1.091828	-0.169865	0.237221
C141	C	0.591827	-0.622950	-0.262789
C142	C	1.091827	-0.122950	0.237211
C143	C	0.620539	-0.599501	-0.310297
C144	C	1.120539	-0.099501	0.189703
C145	C	0.649252	-0.622969	-0.357795
C146	C	1.149252	-0.122969	0.142205
C147	C	0.706680	-0.669901	-0.452802
C148	C	1.206680	-0.169901	0.047198
C149	C	0.706673	-0.622979	-0.452813
C150	C	1.206673	-0.122979	0.047187
C151	C	0.677957	-0.599512	-0.405311
C152	C	1.177957	-0.099512	0.094689
C153	C	0.677964	-0.552605	-0.405313
C154	C	1.177964	-0.052605	0.094687
N155	N	0.649247	-0.529135	-0.357820
N156	N	1.149247	-0.029135	0.142180
C157	C	0.620534	-0.552584	-0.310312
C158	C	1.120534	-0.052584	0.189688
C159	C	0.677991	-0.979554	-0.405198
C160	C	1.177991	-0.479554	0.094802
C161	C	0.677995	-1.026472	-0.405184
C162	C	1.177995	-0.526472	0.094816
C163	C	0.620564	-1.026451	-0.310178
C164	C	1.120564	-0.526451	0.189822
C165	C	0.620562	-0.979532	-0.310189
C166	C	1.120562	-0.479532	0.189811
C167	C	0.649274	-0.956085	-0.357705
C168	C	1.149274	-0.456085	0.142295
C169	C	0.620534	-0.454058	-0.310337
C170	C	1.120534	0.045942	0.189663
C171	C	0.620537	-0.407138	-0.310350
C172	C	1.120537	0.092862	0.189650
C173	C	0.677966	-0.407163	-0.405358
C174	C	1.177966	0.092837	0.094642
C175	C	0.677966	-0.454079	-0.405343
C176	C	1.177966	0.045921	0.094657
C177	C	0.649246	-0.477525	-0.357830
C178	C	1.149246	0.022475	0.142170
O179	O	0.702378	-0.528312	-0.445679
O180	O	1.202378	-0.028312	0.054321
O181	O	0.596109	-0.528307	-0.269929
O182	O	1.096109	-0.028307	0.230071
C183	C	0.620542	-0.740248	-0.310266
C184	C	1.120542	-0.240248	0.189734
C185	C	0.649256	-0.763715	-0.357763
C186	C	1.149256	-0.263715	0.142237
C187	C	0.677968	-0.740267	-0.405271
C188	C	1.177968	-0.240267	0.094729
C189	C	0.649260	-0.810633	-0.357749
C190	C	1.149260	-0.310633	0.142251
C191	C	0.620548	-0.834081	-0.310241
C192	C	1.120548	-0.334081	0.189759
C193	C	0.591831	-0.810612	-0.262747
C194	C	1.091831	-0.310612	0.237253
C195	C	0.591830	-0.763696	-0.262758
C196	C	1.091830	-0.263696	0.237242
C197	C	0.706685	-0.763736	-0.452764
C198	C	1.206685	-0.263736	0.047236
C199	C	0.706684	-0.810652	-0.452749
C200	C	1.206684	-0.310652	0.047251
C201	C	0.677972	-0.834100	-0.405241
C202	C	1.177972	-0.334100	0.094759
C203	C	0.766388	-0.216610	-0.357930
C204	C	1.266388	0.283390	0.142070
C205	C	0.816323	-0.216624	-0.357944
C206	C	1.316323	0.283376	0.142056
C207	C	0.649156	-0.216570	-0.550850
C208	C	1.149156	0.283430	-0.050850
C209	C	0.649173	-0.216581	-0.633396
C210	C	1.149173	0.283419	-0.133396
C211	C	0.649208	-0.099854	-0.357873
C212	C	1.149208	0.400146	0.142127
C213	C	0.649283	-0.049920	-0.357676
C214	C	1.149283	0.450080	0.142324
C215	C	0.619202	-0.246571	-0.832858
C216	C	1.119202	0.253429	-0.332858
C217	C	0.608250	-0.205574	-0.882289
C218	C	1.108250	0.294426	-0.382289
C219	C	0.649218	-0.216587	-0.784526
C220	C	1.149218	0.283413	-0.284526
C221	C	0.660191	-0.257588	-0.882177
C222	C	1.160191	0.242412	-0.382177
C223	C	0.649259	-0.216597	-0.930511
C224	C	1.149259	0.283403	-0.430511
C225	C	0.638245	-0.175569	-0.832870
C226	C	1.138245	0.324431	-0.332870
C227	C	0.690204	-0.227611	-0.832754
C228	C	1.190204	0.272389	-0.332754
C229	C	0.679269	-0.186586	-0.882162
C230	C	1.179269	0.313414	-0.382162
C231	C	0.649192	-0.216582	-0.700428
C232	C	1.149192	0.283418	-0.200428
C233	C	0.649285	-0.216597	-1.014608
C234	C	1.149285	0.283403	-0.514608
C235	C	0.649276	-0.216594	-0.164192
C236	C	1.149276	0.283406	0.335808
C237	C	0.649305	-0.216602	-0.081647
C238	C	1.149305	0.283398	0.418353
H239	H	0.262393	-0.297295	-0.491748
H240	H	0.762393	0.202705	0.008252
H241	H	0.730065	-0.744649	-0.491455
H242	H	1.230065	-0.244649	0.008545
Cl243	Cl	0.026141	-0.310027	-0.512824
Cl244	Cl	0.526141	0.189973	-0.012824
Cl245	Cl	0.623879	-0.122025	-0.799574
Cl246	Cl	1.123879	0.377975	-0.299574
Cl247	Cl	0.714073	-0.483581	-0.465047
Cl248	Cl	1.214073	0.016419	0.034953
Cl249	Cl	0.579957	-0.285664	-0.799429
Cl250	Cl	1.079957	0.214336	-0.299429
Cl251	Cl	0.555737	-0.840099	-0.203022
Cl252	Cl	1.055737	-0.340099	0.296978
H253	H	0.704670	-0.161205	-0.903675
H254	H	1.204670	0.338795	-0.403675
Cl255	Cl	0.742769	-0.593506	-0.512553
Cl256	Cl	1.242769	-0.093506	-0.012553
H257	H	0.121596	-0.135879	-0.224052
H258	H	0.621596	0.364121	0.275948
H259	H	0.669456	-0.292259	-0.903836
H260	H	1.169456	0.207741	-0.403836
Cl261	Cl	0.584436	-0.377639	-0.250627
Cl262	Cl	1.084436	0.122361	0.249373
H263	H	0.478208	-0.268580	-0.444169
H264	H	0.978208	0.231420	0.055831
H265	H	0.724838	-0.236946	-0.810981
H266	H	1.224838	0.263054	-0.310981
H267	H	0.730063	-0.688999	-0.491484
H268	H	1.230063	-0.188999	0.008516
Cl269	Cl	0.166905	-0.310013	-0.512822
Cl270	Cl	0.666905	0.189987	-0.012822
Cl271	Cl	-0.189697	-0.281369	-0.465292
Cl272	Cl	0.310303	0.218631	0.034708
H273	H	0.393099	-0.268600	-0.444171
H274	H	0.893099	0.231400	0.055829
H275	H	0.701345	-0.388063	-0.444035
H276	H	1.201345	0.111937	0.055965
Cl277	Cl	0.026098	-0.123187	-0.202992
Cl278	Cl	0.526098	0.376813	0.297008
Cl279	Cl	0.742789	-0.840148	-0.512471
Cl280	Cl	1.242789	-0.340148	-0.012471
H281	H	0.573609	-0.196259	-0.904063
H282	H	1.073609	0.303741	-0.404063
Cl283	Cl	-0.189723	-0.151879	-0.250593
Cl284	Cl	0.310277	0.348121	0.249407
H285	H	-0.094187	-0.268653	-0.444231
H286	H	0.405813	0.231347	0.055769
H287	H	-0.094223	-0.164577	-0.271636
H288	H	0.405777	0.335423	0.228364
Cl289	Cl	0.166855	-0.123173	-0.202957
Cl290	Cl	0.666855	0.376827	0.297043
H291	H	0.393058	-0.164516	-0.271586
H292	H	0.893058	0.335484	0.228414
Cl293	Cl	0.272740	-0.123163	-0.202952
Cl294	Cl	0.772740	0.376837	0.297048
Cl295	Cl	0.584461	-0.950035	-0.250472
Cl296	Cl	1.084461	-0.450035	0.249528
H297	H	0.121647	-0.297316	-0.491757
H298	H	0.621647	0.202684	0.008243
Cl299	Cl	0.488568	-0.151804	-0.250517
Cl300	Cl	0.988568	0.348196	0.249483
H301	H	0.568447	-0.744593	-0.224077
H302	H	1.068447	-0.244593	0.275923
H303	H	0.597149	-0.473142	-0.271647
H304	H	1.097149	0.026858	0.228353
H305	H	0.568442	-0.603847	-0.224111
H306	H	1.068442	-0.103847	0.275889
H307	H	0.597187	-1.045550	-0.271493
H308	H	1.097187	-0.545550	0.228507
Cl309	Cl	0.714102	-1.055968	-0.464893
Cl310	Cl	1.214102	-0.555968	0.035107
Cl311	Cl	0.714092	-0.950084	-0.464934
Cl312	Cl	1.214092	-0.450084	0.035066
Cl313	Cl	0.555722	-0.699335	-0.203055
Cl314	Cl	1.055722	-0.199335	0.296945
