data_functionalizedCrystal
_audit_creation_method	'MofGen! by Chris Wilmer'
_symmetry_space_group_name_H-M	'P1'
_symmetry_Int_Tables_number	1
_symmetry_cell_setting	triclinic
loop_
_symmetry_equiv_pos_as_xyz
  x,y,z
_cell_length_a	10.654550
_cell_length_b	26.210047
_cell_length_c	10.654551
_cell_angle_alpha	89.992614
_cell_angle_beta	84.485132
_cell_angle_gamma	90.012641
loop_
_atom_site_label
_atom_site_type_symbol
_atom_site_fract_x
_atom_site_fract_y
_atom_site_fract_z
O1	O	1.667852	0.042468	0.176381
O2	O	1.302374	0.042459	0.193187
O3	O	1.493515	0.042464	0.002045
O4	O	1.476711	0.042463	0.367523
O5	O	1.493478	-0.042394	0.002074
O6	O	1.302337	-0.042399	0.193217
O7	O	1.667815	-0.042391	0.176410
Cu8	Cu	1.485073	-0.050143	0.184816
Cu9	Cu	1.485116	0.050211	0.184781
O10	O	1.476674	-0.042395	0.367553
C11	C	1.255557	0.000029	0.191968
C12	C	1.116114	0.000026	0.188276
N13	N	1.485051	-0.120727	0.184840
C14	C	1.036629	0.000033	0.300817
C15	C	0.905608	0.000042	0.297341
C16	C	0.933570	0.000038	0.068771
C17	C	1.064589	0.000026	0.072249
C18	C	1.020484	0.000037	0.432780
C19	C	0.889463	0.000046	0.429304
C20	C	1.569745	-0.473239	0.100162
C21	C	1.569773	-0.686898	0.100145
O22	O	1.641734	-0.714518	0.028154
N23	N	1.485123	-0.713621	0.184753
C24	C	1.400454	-0.686926	0.269366
O25	O	1.328446	-0.714559	0.341322
C26	C	1.400422	-0.473269	0.269377
C27	C	1.485086	-0.446548	0.184771
C28	C	1.654401	-0.446518	0.015563
C29	C	1.654398	-0.393107	0.015573
C30	C	1.569739	-0.366416	0.100182
C31	C	1.485083	-0.393137	0.184781
C32	C	1.315748	-0.446575	0.353983
C33	C	1.315745	-0.393157	0.353975
C34	C	1.400409	-0.366437	0.269370
C35	C	1.400420	-0.313034	0.269400
N36	N	1.485070	-0.286311	0.184792
C37	C	1.569730	-0.313002	0.100183
C38	C	1.400479	-0.799100	0.269357
C39	C	1.400488	-0.852514	0.269356
C40	C	1.569806	-0.852481	0.100133
C41	C	1.569801	-0.799066	0.100141
C42	C	1.485129	-0.772376	0.184749
C43	C	1.569717	-0.200834	0.100210
C44	C	1.569710	-0.147418	0.100231
C45	C	1.400389	-0.147455	0.269449
C46	C	1.400400	-0.200866	0.269434
C47	C	1.485069	-0.227555	0.184804
O48	O	1.328487	-0.285381	0.341344
O49	O	1.641708	-0.285360	0.028219
C50	C	1.569748	-0.526650	0.100153
C51	C	1.485092	-0.553371	0.184752
C52	C	1.400433	-0.526680	0.269361
C53	C	1.485101	-0.606785	0.184751
C54	C	1.569761	-0.633476	0.100142
C55	C	1.654411	-0.606753	0.015534
C56	C	1.654408	-0.553341	0.015544
C57	C	1.315783	-0.553404	0.353969
C58	C	1.315794	-0.606815	0.353953
C59	C	1.400453	-0.633506	0.269344
C60	C	1.714632	0.000041	0.177629
C61	C	1.854075	0.000047	0.181321
C62	C	1.492263	0.000036	-0.044739
C63	C	1.488570	0.000039	-0.184182
N64	N	1.485148	0.120795	0.184747
C65	C	1.486858	0.046294	-0.249710
C66	C	1.483378	0.046292	-0.380730
C67	C	1.483327	-0.046225	-0.380683
C68	C	1.486798	-0.046222	-0.249664
C69	C	1.486893	0.099708	-0.249739
C70	C	1.483413	0.099706	-0.380759
C71	C	1.477926	0.000034	0.414336
C72	C	1.481619	0.000034	0.553779
H73	H	1.129302	0.000013	-0.019393
H74	H	1.578499	0.116283	-0.220178
H75	H	1.391823	0.116282	-0.410332
H76	H	1.638658	-0.125663	0.031335
H77	H	0.847746	0.035561	0.479013
C78	C	1.307268	-0.118091	0.362513
H79	H	1.256849	-0.141652	0.412910
H80	H	1.254607	-0.097256	0.316841
H81	H	1.352903	-0.097253	0.415221
C82	C	1.600669	0.127409	-0.443314
H83	H	1.651261	0.138798	-0.380132
H84	H	1.575002	0.155883	-0.489731
H85	H	1.648096	0.104628	-0.498658
H86	H	0.891602	0.000046	-0.025694
H87	H	1.049800	-0.035478	0.484403
C88	C	1.369668	0.127411	-0.187212
H89	H	1.372038	0.127417	-0.098304
H90	H	1.295753	0.110330	-0.207884
H91	H	1.368911	0.161584	-0.216860
H92	H	1.246841	-0.531676	0.422867
C93	C	1.068682	0.049525	0.489537
H94	H	0.999481	0.071571	0.512412
H95	H	1.126309	0.065965	0.428999
H96	H	1.109975	0.041570	0.562236
H97	H	0.843776	-0.036590	0.469197
H98	H	1.638661	-0.222557	0.031296
C99	C	1.747515	-0.363721	-0.077508
H100	H	1.797919	-0.387273	-0.127902
H101	H	1.800192	-0.342879	-0.031859
H102	H	1.701872	-0.342889	-0.130216
H103	H	1.246806	-0.468324	0.422875
C104	C	1.488673	-0.097102	-0.177586
H105	H	1.487133	-0.124652	-0.235354
H106	H	1.416919	-0.099024	-0.117532
H107	H	1.563146	-0.099025	-0.135420
C108	C	1.747542	-0.475870	-0.077508
H109	H	1.797956	-0.452299	-0.127877
H110	H	1.701936	-0.496712	-0.130222
H111	H	1.800224	-0.496700	-0.031834
H112	H	1.481882	-0.083889	-0.434015
C113	C	1.662921	-0.769678	0.007067
H114	H	1.713333	-0.793229	-0.043323
H115	H	1.715589	-0.748835	0.052723
H116	H	1.617281	-0.748847	-0.045645
C117	C	1.662919	-0.881848	0.007055
H118	H	1.650783	-0.917485	0.019171
H119	H	1.746859	-0.873090	0.021453
H120	H	1.648529	-0.873092	-0.076894
H121	H	1.331560	-0.874266	0.338263
C122	C	1.222610	-0.363799	0.447048
H123	H	1.234720	-0.328160	0.434936
H124	H	1.236970	-0.372559	0.530994
H125	H	1.138675	-0.372561	0.432614
C126	C	1.307344	-0.769747	0.362442
H127	H	1.256947	-0.793317	0.412833
H128	H	1.254661	-0.748913	0.316793
H129	H	1.352978	-0.748910	0.415152
H130	H	1.331471	-0.222623	0.338339
H131	H	1.723349	-0.531589	-0.053350
C132	C	1.747529	-0.636119	-0.077539
H133	H	1.735389	-0.671757	-0.065424
H134	H	1.831467	-0.627363	-0.063131
H135	H	1.733149	-0.627363	-0.161489
C136	C	1.222651	-0.636202	0.447020
H137	H	1.172225	-0.612651	0.497397
H138	H	1.268260	-0.657042	0.499728
H139	H	1.169979	-0.657036	0.401333
