data_functionalizedCrystal
_audit_creation_method	'MofGen! by Chris Wilmer'
_symmetry_space_group_name_H-M	'P1'
_symmetry_Int_Tables_number	1
_symmetry_cell_setting	triclinic
loop_
_symmetry_equiv_pos_as_xyz
  x,y,z
_cell_length_a	23.532355
_cell_length_b	23.532357
_cell_length_c	22.010155
_cell_angle_alpha	89.998697
_cell_angle_beta	89.997414
_cell_angle_gamma	82.827896
loop_
_atom_site_label
_atom_site_type_symbol
_atom_site_fract_x
_atom_site_fract_y
_atom_site_fract_z
O1	O	0.755271	0.068988	-0.050450
O2	O	1.088604	0.402321	0.282884
O3	O	1.421937	0.735655	0.616217
O4	O	0.589401	0.079022	-0.050470
O5	O	0.922734	0.412356	0.282863
O6	O	1.256068	0.745689	0.616197
O7	O	0.677352	-0.008930	-0.050447
O8	O	1.010686	0.324404	0.282886
O9	O	1.344019	0.657737	0.616220
O10	O	0.667319	0.156940	-0.050473
O11	O	1.000653	0.490273	0.282860
O12	O	1.333986	0.823606	0.616194
O13	O	0.677336	-0.008916	0.050604
O14	O	1.010670	0.324417	0.383937
O15	O	1.344003	0.657750	0.717270
O16	O	0.589385	0.079035	0.050580
O17	O	0.922719	0.412369	0.383914
O18	O	1.256052	0.745702	0.717247
O19	O	0.755255	0.069001	0.050601
O20	O	1.088588	0.402334	0.383934
O21	O	1.421921	0.735668	0.717267
Cu22	Cu	0.672318	0.074019	0.059817
Cu23	Cu	1.005652	0.407353	0.393150
Cu24	Cu	1.338985	0.740686	0.726484
Cu25	Cu	0.672337	0.074004	-0.059687
Cu26	Cu	1.005671	0.407337	0.273647
Cu27	Cu	1.339004	0.740671	0.606980
O28	O	0.667303	0.156953	0.050577
O29	O	1.000637	0.490286	0.383911
O30	O	1.333970	0.823620	0.717244
C31	C	0.568177	0.078778	0.000053
C32	C	0.901510	0.412111	0.333386
C33	C	1.234843	0.745445	0.666719
C34	C	0.504958	0.078024	0.000045
C35	C	0.838291	0.411357	0.333379
C36	C	1.171625	0.744691	0.666712
C37	C	0.112936	0.073293	0.055154
C38	C	0.446270	0.406626	0.388487
C39	C	0.779603	0.739960	0.721821
C40	C	0.053537	0.072575	0.055157
C41	C	0.386870	0.405909	0.388490
C42	C	0.720204	0.739242	0.721823
O43	O	0.022811	0.072191	0.102002
O44	O	0.356145	0.405524	0.435335
O45	O	0.689478	0.738858	0.768668
N46	N	0.023837	0.072212	0.000074
N47	N	0.357171	0.405546	0.333408
N48	N	0.690504	0.738879	0.666741
C49	C	0.053541	0.072561	-0.055014
C50	C	0.386874	0.405895	0.278319
C51	C	0.720208	0.739228	0.611653
O52	O	0.022825	0.072186	-0.101866
O53	O	0.356158	0.405519	0.231468
O54	O	0.689491	0.738853	0.564801
C55	C	0.112940	0.073275	-0.055016
C56	C	0.446273	0.406608	0.278317
C57	C	0.779606	0.739941	0.611651
C58	C	0.142636	0.073643	0.000070
C59	C	0.475969	0.406977	0.333403
C60	C	0.809302	0.740310	0.666737
C61	C	0.142632	0.073661	0.110236
C62	C	0.475966	0.406994	0.443569
C63	C	0.809299	0.740328	0.776902
C64	C	0.202027	0.074379	0.110233
C65	C	0.535361	0.407713	0.443566
C66	C	0.868694	0.741046	0.776900
C67	C	0.231727	0.074730	0.055149
C68	C	0.565060	0.408063	0.388482
C69	C	0.898393	0.741397	0.721815
C70	C	0.202031	0.074362	0.000067
C71	C	0.535364	0.407695	0.333401
C72	C	0.868697	0.741028	0.666734
C73	C	0.142643	0.073619	-0.110104
C74	C	0.475976	0.406953	0.223230
C75	C	0.809309	0.740286	0.556563
C76	C	0.202045	0.074332	-0.110101
C77	C	0.535379	0.407666	0.223233
C78	C	0.868712	0.740999	0.556566
C79	C	0.231741	0.074701	-0.055015
C80	C	0.565075	0.408034	0.278319
C81	C	0.898408	0.741368	0.611652
C82	C	0.291125	0.075431	-0.055019
C83	C	0.624458	0.408764	0.278314
C84	C	0.957791	0.742097	0.611647
N85	N	0.320824	0.075794	0.000063
N86	N	0.654158	0.409127	0.333396
N87	N	0.987491	0.742460	0.666730
C88	C	0.291125	0.075443	0.055147
C89	C	0.624459	0.408777	0.388480
C90	C	0.957792	0.742110	0.721814
C91	C	-0.071200	0.071062	-0.055006
C92	C	0.262133	0.404395	0.278327
C93	C	0.595466	0.737729	0.611661
C94	C	-0.130599	0.070353	-0.055005
C95	C	0.202735	0.403686	0.278329
C96	C	0.536068	0.737020	0.611662
C97	C	-0.130598	0.070366	0.055166
C98	C	0.202735	0.403699	0.388499
C99	C	0.536069	0.737033	0.721833
C100	C	-0.071199	0.071079	0.055164
C101	C	0.262134	0.404413	0.388498
C102	C	0.595467	0.737746	0.721831
C103	C	-0.041501	0.071425	0.000076
C104	C	0.291833	0.404758	0.333410
C105	C	0.625166	0.738092	0.666743
C106	C	0.415859	0.076953	0.055137
C107	C	0.749192	0.410286	0.388470
C108	C	1.082526	0.743619	0.721804
C109	C	0.475259	0.077674	0.055130
C110	C	0.808592	0.411007	0.388463
C111	C	1.141926	0.744340	0.721796
C112	C	0.475254	0.077657	-0.055041
C113	C	0.808587	0.410991	0.278292
C114	C	1.141920	0.744324	0.611626
C115	C	0.415859	0.076939	-0.055034
C116	C	0.749192	0.410273	0.278300
C117	C	1.082525	0.743606	0.611633
C118	C	0.386163	0.076585	0.000060
C119	C	0.719496	0.409919	0.333394
C120	C	1.052830	0.743252	0.666727
O121	O	0.321889	0.075813	-0.101841
O122	O	0.655222	0.409146	0.231493
O123	O	0.988555	0.742480	0.564826
O124	O	0.321850	0.075811	0.101991
O125	O	0.655183	0.409144	0.435324
O126	O	0.988516	0.742478	0.768657
C127	C	0.677094	-0.030140	0.000080
C128	C	1.010427	0.303194	0.333414
C129	C	1.343760	0.636527	0.666747
C130	C	0.676339	-0.093358	0.000086
C131	C	1.009672	0.239975	0.333419
C132	C	1.343006	0.573309	0.666752
C133	C	0.671611	-0.485376	-0.055030
C134	C	1.004944	-0.152042	0.278303
C135	C	1.338277	0.181291	0.611637
C136	C	0.670894	-0.544775	-0.055034
C137	C	1.004227	-0.211442	0.278300
C138	C	1.337560	0.121892	0.611633
O139	O	0.670511	-0.575497	-0.101879
O140	O	1.003844	-0.242164	0.231454
O141	O	1.337177	0.091169	0.564787
N142	N	0.670529	-0.574479	0.000048
N143	N	1.003863	-0.241145	0.333381
N144	N	1.337196	0.092188	0.666715
C145	C	0.670876	-0.544780	0.055137
C146	C	1.004210	-0.211446	0.388470
C147	C	1.337543	0.121887	0.721804
O148	O	0.670500	-0.575499	0.101988
O149	O	1.003833	-0.242166	0.435321
O150	O	1.337167	0.091167	0.768655
C151	C	0.671589	-0.485381	0.055140
C152	C	1.004923	-0.152047	0.388473
C153	C	1.338256	0.181286	0.721807
C154	C	0.671960	-0.455681	0.000055
C155	C	1.005293	-0.122347	0.333388
C156	C	1.338626	0.210986	0.666721
C157	C	0.671980	-0.455675	-0.110111
C158	C	1.005314	-0.122342	0.223222
C159	C	1.338647	0.210991	0.556556
C160	C	0.672699	-0.396280	-0.110107
C161	C	1.006032	-0.062947	0.223226
C162	C	1.339365	0.270386	0.556559
C163	C	0.673047	-0.366585	-0.055023
C164	C	1.006381	-0.033252	0.278311
C165	C	1.339714	0.300081	0.611644
C166	C	0.672678	-0.396286	0.000058
C167	C	1.006011	-0.062952	0.333392
C168	C	1.339345	0.270381	0.666725
C169	C	0.671932	-0.455682	0.110228
C170	C	1.005266	-0.122349	0.443561
C171	C	1.338599	0.210985	0.776895
C172	C	0.672645	-0.396279	0.110226
C173	C	1.005979	-0.062946	0.443560
C174	C	1.339312	0.270388	0.776893
C175	C	0.673015	-0.366579	0.055141
C176	C	1.006349	-0.033246	0.388474
C177	C	1.339682	0.300088	0.721808
C178	C	0.673745	-0.307196	0.055147
C179	C	1.007078	0.026138	0.388480
C180	C	1.340412	0.359471	0.721813
N181	N	0.674109	-0.277492	0.000065
N182	N	1.007443	0.055842	0.333398
N183	N	1.340776	0.389175	0.666732
C184	C	0.673761	-0.307187	-0.055020
C185	C	1.007094	0.026147	0.278314
C186	C	1.340427	0.359480	0.611647
C187	C	0.669378	-0.669521	0.055127
C188	C	1.002711	-0.336188	0.388460
C189	C	1.336044	-0.002854	0.721793
C190	C	0.668669	-0.728919	0.055124
C191	C	1.002002	-0.395586	0.388458
C192	C	1.335335	-0.062252	0.721791
C193	C	0.668685	-0.728910	-0.055046
C194	C	1.002018	-0.395577	0.278287
C195	C	1.335351	-0.062244	0.611620
C196	C	0.669398	-0.669511	-0.055044
C197	C	1.002731	-0.336178	0.278290
C198	C	1.336065	-0.002845	0.611623
C199	C	0.669742	-0.639817	0.000045
C200	C	1.003075	-0.306484	0.333378
C201	C	1.336409	0.026850	0.666712
C202	C	0.675269	-0.182453	-0.055008
C203	C	1.008603	0.150881	0.278326
C204	C	1.341936	0.484214	0.611659
C205	C	0.675990	-0.123053	-0.054999
C206	C	1.009324	0.210281	0.278335
C207	C	1.342657	0.543614	0.611668
C208	C	0.675971	-0.123067	0.055172
C209	C	1.009304	0.210267	0.388505
C210	C	1.342638	0.543600	0.721838
C211	C	0.675253	-0.182462	0.055163
C212	C	1.008587	0.150872	0.388497
C213	C	1.341920	0.484205	0.721830
C214	C	0.674901	-0.212153	0.000069
C215	C	1.008234	0.121180	0.333402
C216	C	1.341567	0.454514	0.666736
O217	O	0.674126	-0.276435	0.101968
O218	O	1.007459	0.056898	0.435302
O219	O	1.340793	0.390231	0.768635
O220	O	0.674129	-0.276459	-0.101863
O221	O	1.007463	0.056875	0.231471
O222	O	1.340796	0.390208	0.564804
C223	C	0.776479	0.069245	0.000077
C224	C	1.109812	0.402579	0.333410
C225	C	1.443146	0.735912	0.666743
C226	C	0.839698	0.069999	0.000080
C227	C	1.173031	0.403333	0.333413
C228	C	1.506364	0.736666	0.666746
C229	C	0.667562	0.178163	0.000049
C230	C	1.000896	0.511496	0.333382
C231	C	1.334229	0.844829	0.666716
C232	C	0.668317	0.241381	0.000039
C233	C	1.001650	0.574715	0.333373
C234	C	1.334983	0.908048	0.666706
N235	N	0.672309	0.074030	0.143870
N236	N	1.005643	0.407363	0.477203
N237	N	1.338976	0.740697	0.810536
N238	N	0.672351	0.073989	-0.143739
N239	N	1.005684	0.407322	0.189594
N240	N	1.339018	0.740655	0.522928
C241	C	0.711284	0.035064	0.563659
C242	C	1.044618	0.368398	0.896993
C243	C	1.377951	0.701731	1.230326
C244	C	0.711287	0.035060	0.627267
C245	C	1.044620	0.368394	0.960600
C246	C	1.377954	0.701727	1.293934
O247	O	0.744402	0.001938	0.660167
O248	O	1.077735	0.335271	0.993500
O249	O	1.411069	0.668604	1.326834
N250	N	0.672337	0.073992	0.659077
N251	N	1.005670	0.407325	0.992410
N252	N	1.339004	0.740659	1.325743
C253	C	0.633378	0.112926	0.627276
C254	C	0.966711	0.446259	0.960609
C255	C	1.300045	0.779593	1.293942
O256	O	0.600248	0.146040	0.660173
O257	O	0.933581	0.479373	0.993506
O258	O	1.266915	0.812706	1.326840
C259	C	0.633373	0.112927	0.563669
C260	C	0.966706	0.446260	0.897003
C261	C	1.300040	0.779594	1.230336
C262	C	0.672329	0.073997	0.531863
C263	C	1.005663	0.407330	0.865196
C264	C	1.338996	0.740663	1.198529
C265	C	0.750237	-0.003863	0.531853
C266	C	1.083570	0.329470	0.865186
C267	C	1.416904	0.662803	1.198519
C268	C	0.750235	-0.003858	0.468249
C269	C	1.083568	0.329475	0.801583
C270	C	1.416902	0.662808	1.134916
C271	C	0.711280	0.035074	0.436453
C272	C	1.044613	0.368407	0.769786
C273	C	1.377947	0.701741	1.103120
C274	C	0.672327	0.074001	0.468259
C275	C	1.005661	0.407335	0.801593
C276	C	1.338994	0.740668	1.134926
C277	C	0.594412	0.151858	0.531869
C278	C	0.927745	0.485191	0.865203
C279	C	1.261078	0.818525	1.198536
C280	C	0.594410	0.151855	0.468258
C281	C	0.927743	0.485188	0.801592
C282	C	1.261077	0.818522	1.134925
C283	C	0.633366	0.112925	0.436452
C284	C	0.966700	0.446258	0.769785
C285	C	1.300033	0.779591	1.103119
C286	C	0.633370	0.112938	0.372860
C287	C	0.966704	0.446272	0.706193
C288	C	1.300037	0.779605	1.039526
N289	N	0.672320	0.074007	0.341050
N290	N	1.005654	0.407340	0.674383
N291	N	1.338987	0.740674	1.007716
C292	C	0.711275	0.035075	0.372846
C293	C	1.044609	0.368408	0.706180
C294	C	1.377942	0.701741	1.039513
C295	C	0.633391	0.112921	0.760853
C296	C	0.966724	0.446254	1.094187
C297	C	1.300057	0.779588	1.427520
C298	C	0.633398	0.112923	0.824459
C299	C	0.966731	0.446257	1.157792
C300	C	1.300064	0.779590	1.491125
C301	C	0.711306	0.035057	0.824446
C302	C	1.044640	0.368390	1.157779
C303	C	1.377973	0.701723	1.491112
C304	C	0.711301	0.035057	0.760839
C305	C	1.044635	0.368391	1.094172
C306	C	1.377968	0.701724	1.427506
C307	C	0.672341	0.073989	0.729044
C308	C	1.005674	0.407323	1.062377
C309	C	1.339007	0.740656	1.395710
C310	C	0.711268	0.035088	0.239275
C311	C	1.044602	0.368421	0.572608
C312	C	1.377935	0.701755	0.905942
C313	C	0.711264	0.035098	0.175666
C314	C	1.044598	0.368431	0.509000
C315	C	1.377931	0.701764	0.842333
C316	C	0.633354	0.112962	0.175685
C317	C	0.966687	0.446295	0.509018
C318	C	1.300021	0.779629	0.842352
C319	C	0.633360	0.112955	0.239288
C320	C	0.966693	0.446288	0.572622
C321	C	1.300026	0.779621	0.905955
C322	C	0.672319	0.074013	0.271082
C323	C	1.005652	0.407346	0.604415
C324	C	1.338986	0.740679	0.937748
O325	O	0.600271	0.146043	0.339919
O326	O	0.933604	0.479376	0.673252
O327	O	1.266937	0.812709	1.006586
O328	O	0.744395	0.001962	0.339941
O329	O	1.077728	0.335295	0.673275
O330	O	1.411061	0.668628	1.006608
H331	H	-0.047025	0.071380	0.100020
H332	H	0.286308	0.404714	0.433353
H333	H	0.619642	0.738047	0.766687
H334	H	0.562682	0.183558	0.442374
H335	H	0.896015	0.516891	0.775707
H336	H	1.229348	0.850224	1.109040
Br337	Br	0.673111	-0.355983	0.184994
Br338	Br	1.006444	-0.022649	0.518327
Br339	Br	1.339777	0.310684	0.851660
Br340	Br	0.669848	-0.629228	0.129897
Br341	Br	1.003182	-0.295894	0.463230
Br342	Br	1.336515	0.037439	0.796564
H343	H	0.668399	-0.753098	-0.099900
H344	H	1.001732	-0.419765	0.233434
H345	H	1.335066	-0.086432	0.566767
H346	H	0.743023	0.003357	0.734946
H347	H	1.076356	0.336690	1.068279
H348	H	1.409689	0.670023	1.401613
H349	H	0.671632	-0.479854	0.155085
H350	H	1.004965	-0.146520	0.488418
H351	H	1.338299	0.186813	0.821751
H352	H	0.562690	0.183558	0.557757
H353	H	0.896023	0.516891	0.891091
H354	H	1.229356	0.850225	1.224424
H355	H	0.676293	-0.098874	-0.099858
H356	H	1.009626	0.234459	0.233475
H357	H	1.342960	0.567793	0.566809
H358	H	0.674957	-0.206645	0.100018
H359	H	1.008290	0.126688	0.433352
H360	H	1.341624	0.460021	0.766685
H361	H	0.601682	0.144630	0.850351
H362	H	0.935015	0.477963	1.183685
H363	H	1.268349	0.811296	1.517018
H364	H	0.499435	0.077976	0.099989
H365	H	0.832768	0.411309	0.433322
H366	H	1.166101	0.744642	0.766656
H367	H	0.743025	0.003355	0.850346
H368	H	1.076358	0.336688	1.183679
H369	H	1.409691	0.670022	1.517013
Br370	Br	0.102356	0.073118	-0.184868
Br371	Br	0.435690	0.406452	0.148465
Br372	Br	0.769023	0.739785	0.481799
H373	H	0.668376	-0.753097	0.099980
H374	H	1.001709	-0.419764	0.433314
H375	H	1.335043	-0.086430	0.766647
Br376	Br	0.803103	-0.056697	0.425090
Br377	Br	1.136437	0.276636	0.758424
Br378	Br	1.469770	0.609970	1.091757
H379	H	0.669699	-0.645333	-0.099899
H380	H	1.003032	-0.312000	0.233434
H381	H	1.336365	0.021333	0.566768
Br382	Br	0.676446	-0.082755	0.129926
Br383	Br	1.009779	0.250578	0.463259
Br384	Br	1.343112	0.583911	0.796593
Br385	Br	0.764139	-0.017737	0.132503
Br386	Br	1.097472	0.315596	0.465837
Br387	Br	1.430806	0.648929	0.799170
H388	H	0.601643	0.144661	0.265186
H389	H	0.934977	0.477994	0.598519
H390	H	1.268310	0.811327	0.931852
Br391	Br	0.674791	-0.222739	-0.129779
Br392	Br	1.008124	0.110594	0.203554
Br393	Br	1.341457	0.443928	0.536888
Br394	Br	0.764142	-0.017763	0.282413
Br395	Br	1.097475	0.315571	0.615746
Br396	Br	1.430809	0.648904	0.949080
H397	H	0.226223	0.074614	-0.154961
H398	H	0.559556	0.407947	0.178372
H399	H	0.892890	0.741281	0.511706
Br400	Br	0.803111	-0.056708	0.574994
Br401	Br	1.136444	0.276626	0.908328
Br402	Br	1.469777	0.609959	1.241661
Br403	Br	0.580490	0.165799	0.132522
Br404	Br	0.913823	0.499132	0.465856
Br405	Br	1.247156	0.832465	0.799189
Br406	Br	0.102338	0.073188	0.185003
Br407	Br	0.435671	0.406521	0.518336
Br408	Br	0.769004	0.739854	0.851670
Br409	Br	0.580514	0.165766	0.717708
Br410	Br	0.913847	0.499099	1.051042
Br411	Br	1.247181	0.832432	1.384375
Br412	Br	0.375554	0.076451	-0.129793
Br413	Br	0.708887	0.409784	0.203540
Br414	Br	1.042221	0.743117	0.536873
Br415	Br	-0.170915	0.069890	0.129924
Br416	Br	0.162418	0.403223	0.463257
Br417	Br	0.495751	0.736556	0.796591
H418	H	0.391687	0.076669	0.100000
H419	H	0.725021	0.410003	0.433333
H420	H	1.058354	0.743336	0.766667
Br421	Br	-0.030902	0.071536	-0.129776
Br422	Br	0.302432	0.404870	0.203558
Br423	Br	0.635765	0.738203	0.536891
H424	H	0.226201	0.074676	0.155090
H425	H	0.559534	0.408010	0.488423
H426	H	0.892868	0.741343	0.821756
H427	H	-0.154773	0.070062	-0.099861
H428	H	0.178560	0.403395	0.233472
H429	H	0.511893	0.736728	0.566805
H430	H	0.499445	0.077945	-0.099889
H431	H	0.832778	0.411278	0.233444
H432	H	1.166112	0.744612	0.566778
H433	H	0.671694	-0.479846	-0.154970
H434	H	1.005028	-0.146513	0.178363
H435	H	1.338361	0.186820	0.511697
Br436	Br	0.673197	-0.355982	-0.184870
Br437	Br	1.006530	-0.022648	0.148463
Br438	Br	1.339864	0.310685	0.481797
