data_functionalizedCrystal
_audit_creation_method	'MofGen! by Chris Wilmer'
_symmetry_space_group_name_H-M	'P1'
_symmetry_Int_Tables_number	1
_symmetry_cell_setting	triclinic
loop_
_symmetry_equiv_pos_as_xyz
  x,y,z
_cell_length_a	10.654560
_cell_length_b	10.654550
_cell_length_c	15.072220
_cell_angle_alpha	90.016055
_cell_angle_beta	89.999257
_cell_angle_gamma	84.487095
loop_
_atom_site_label
_atom_site_type_symbol
_atom_site_fract_x
_atom_site_fract_y
_atom_site_fract_z
O1	O	-0.176390	-1.667863	-0.073852
O2	O	-0.193196	-1.302386	-0.073837
O3	O	-0.002054	-1.493521	-0.073843
O4	O	-0.367531	-1.476728	-0.073846
O5	O	-0.002065	-1.493473	0.073722
O6	O	-0.193206	-1.302338	0.073728
O7	O	-0.176400	-1.667816	0.073713
Zn8	Zn	-0.184805	-1.485069	0.097150
Zn9	Zn	-0.184791	-1.485132	-0.097274
O10	O	-0.367541	-1.476681	0.073719
C11	C	-0.191967	-1.255564	-0.000053
C12	C	-0.188275	-1.116120	-0.000047
C13	C	0.044738	-1.492261	-0.000062
C14	C	0.184181	-1.488564	-0.000066
C15	C	-0.177629	-1.714638	-0.000073
C16	C	-0.181321	-1.854081	-0.000084
C17	C	-0.414334	-1.477940	-0.000064
C18	C	-0.553777	-1.481638	-0.000066
C19	C	0.380714	-1.483347	0.080373
C20	C	0.249691	-1.486805	0.080373
C21	C	0.249699	-1.486851	-0.080510
C22	C	0.380719	-1.483383	-0.080510
C23	C	0.446219	-1.481602	0.160817
C24	C	0.380710	-1.483312	0.241262
C25	C	0.249687	-1.486771	0.241262
C26	C	0.184173	-1.488519	0.160818
N27	N	-0.184813	-1.485036	0.229839
C28	C	-0.300816	-1.036639	-0.000061
C29	C	-0.297339	-0.905618	-0.000076
C30	C	-0.068771	-0.933573	-0.000068
C31	C	-0.072249	-1.064591	-0.000046
C32	C	-0.416842	-1.088168	-0.000062
C33	C	-0.529392	-1.008686	-0.000077
C34	C	-0.525916	-0.877665	-0.000093
C35	C	-0.409889	-0.826126	-0.000093
N36	N	-0.184773	-1.485176	-0.229962
C37	C	-0.184786	-1.485129	0.589040
C38	C	-0.286713	-1.382507	0.551436
C39	C	-0.287091	-1.382748	0.448611
C40	C	-0.184800	-1.485082	0.410836
C41	C	-0.214562	-1.616376	0.448122
C42	C	-0.215288	-1.615802	0.550980
C43	C	-0.052802	-1.457623	0.551143
C44	C	-0.053654	-1.454624	0.448280
C45	C	-0.184805	-1.485063	0.310123
C46	C	-0.184784	-1.485157	0.689754
H47	H	0.552905	-1.478789	0.160825
N48	N	-0.408869	-1.404398	0.583827
N49	N	-0.494496	-1.424825	0.530556
H50	H	-0.580770	-1.440287	0.553431
N51	N	-0.406328	-0.692292	-0.000078
N52	N	-0.455794	-0.627546	0.062127
H53	H	-0.453277	-0.533027	0.062139
H54	H	-0.309762	-1.640984	0.422351
H55	H	-0.024465	-1.363901	0.577137
H56	H	-0.617560	-0.812953	-0.000096
N57	N	0.049740	-0.880932	-0.000057
N58	N	0.077172	-0.810896	0.062135
H59	H	0.160873	-0.773719	0.062143
N60	N	-0.409917	-1.404906	0.417688
N61	N	-0.471181	-1.324696	0.370175
H62	H	-0.557930	-1.340342	0.348328
N63	N	-0.264653	-1.259715	0.582498
N64	N	-0.244509	-1.175173	0.528294
H65	H	-0.228936	-1.088444	0.550237
H66	H	0.077482	-1.491313	0.160825
H67	H	-0.419686	-1.194850	-0.000054
H68	H	0.019392	-1.129307	-0.000037
N69	N	-0.336084	-1.645995	0.581054
N70	N	-0.419267	-1.667341	0.526079
H71	H	-0.504584	-1.688665	0.547314
H72	H	0.434058	-1.481878	0.306757
H73	H	0.196347	-1.488274	-0.146004
N74	N	-0.647893	-1.061345	-0.000063
N75	N	-0.650985	-1.178327	-0.000046
H76	H	-0.734679	-1.215518	-0.000033
H77	H	-0.269189	-1.285192	0.423404
H78	H	0.434056	-1.481982	-0.146010
N79	N	-0.125769	-1.714550	0.582175
N80	N	-0.062962	-1.783675	0.527978
H81	H	0.000256	-1.853419	0.550005
N82	N	-0.025327	-1.333468	0.417705
N83	N	0.071316	-1.323577	0.372210
H84	H	0.091322	-1.238009	0.350613
H85	H	-0.142347	-1.694612	0.423650
H86	H	0.196351	-1.488149	0.306764
N87	N	0.046061	-1.542187	0.416015
N88	N	0.021986	-1.628857	0.364674
H89	H	0.092407	-1.690708	0.341886
N90	N	0.042360	-1.551492	0.581653
N91	N	0.013277	-1.638315	0.631091
H92	H	0.080475	-1.704613	0.652645
