data_functionalizedCrystal
_audit_creation_method	'MofGen! by Chris Wilmer'
_symmetry_space_group_name_H-M	'P1'
_symmetry_Int_Tables_number	1
_symmetry_cell_setting	triclinic
loop_
_symmetry_equiv_pos_as_xyz
  x,y,z
_cell_length_a	8.597187
_cell_length_b	13.339070
_cell_length_c	7.088929
_cell_angle_alpha	82.086468
_cell_angle_beta	88.663715
_cell_angle_gamma	100.340672
loop_
_atom_site_label
_atom_site_type_symbol
_atom_site_fract_x
_atom_site_fract_y
_atom_site_fract_z
O1	O	2.111438	0.184437	-0.506782
O2	O	1.664941	0.191311	-0.433237
O3	O	1.836946	0.039551	-0.461563
O4	O	1.939432	0.336197	-0.478456
O5	O	1.859913	0.019223	-0.147370
O6	O	1.687908	0.170982	-0.119044
O7	O	2.134404	0.164109	-0.192589
Cu8	Cu	1.913253	0.165689	-0.127128
Cu9	Cu	1.886092	0.189730	-0.498698
O10	O	1.962399	0.315869	-0.164263
C11	C	1.618110	0.179276	-0.266535
C12	C	1.444348	0.173688	-0.237914
C13	C	1.831117	-0.008660	-0.301618
C14	C	1.779514	-0.122028	-0.293126
C15	C	2.180752	-0.478528	-0.359215
C16	C	2.229241	-0.372014	-0.367184
C17	C	2.116814	-0.309512	-0.348670
C18	C	1.955888	-0.353535	-0.322186
C19	C	1.907394	-0.460060	-0.314201
C20	C	1.843456	-0.291044	-0.303657
C21	C	1.682531	-0.335067	-0.277172
C22	C	1.634045	-0.441582	-0.269190
C23	C	1.746473	-0.504083	-0.287703
C24	C	1.891950	-0.184519	-0.311642
C25	C	1.618592	-0.166052	-0.266628
C26	C	1.570103	-0.272565	-0.258659
C27	C	2.181235	0.176144	-0.359295
C28	C	2.354996	0.181732	-0.387928
C29	C	1.968227	0.364080	-0.324212
C30	C	2.019830	0.477449	-0.332717
N31	N	1.932367	0.148780	0.134212
N32	N	1.866987	0.206632	-0.760039
H33	H	2.022976	-0.148687	-0.333205
H34	H	1.439074	-0.308424	-0.237093
H35	H	1.411441	0.192895	-0.538257
C36	C	2.335097	-0.166986	-0.384620
C37	C	2.170109	-0.192428	-0.357452
H38	H	2.367999	-0.094699	-0.390061
H39	H	2.382593	-0.201576	-0.281555
H40	H	2.366587	-0.187414	-0.500690
H41	H	2.138620	-0.172007	-0.241375
H42	H	2.122596	-0.157826	-0.460526
H43	H	1.799225	0.266583	0.169473
C44	C	1.485141	0.152298	0.098068
C45	C	1.368175	0.158631	-0.034979
H46	H	1.438106	0.143008	0.223352
H47	H	1.534702	0.095563	0.082802
H48	H	1.561926	0.214038	0.078298
H49	H	1.291396	0.096887	-0.015218
H50	H	1.318589	0.215371	-0.019706
H51	H	2.000148	0.088833	0.204706
H52	H	1.503010	-0.477422	-0.247610
H53	H	2.360267	-0.336179	-0.388745
C54	C	2.227767	-0.650020	-0.366949
C55	C	2.304318	-0.547230	-0.379556
H56	H	2.304061	-0.692431	-0.379517
H57	H	2.171678	-0.670760	-0.246836
H58	H	2.155662	-0.656579	-0.465970
H59	H	2.376415	-0.540669	-0.280526
H60	H	2.360434	-0.526483	-0.499684
C61	C	1.590810	-0.641181	-0.425565
C62	C	1.693179	-0.621169	-0.278956
H63	H	1.557924	-0.713466	-0.420173
H64	H	1.500826	-0.610274	-0.410719
H65	H	1.644268	-0.613387	-0.545236
H66	H	1.639717	-0.648957	-0.159284
H67	H	1.783178	-0.652089	-0.293788
H68	H	1.527044	-0.115163	-0.251543
