data_functionalizedCrystal
_audit_creation_method	'MofGen! by Chris Wilmer'
_symmetry_space_group_name_H-M	'P1'
_symmetry_Int_Tables_number	1
_symmetry_cell_setting	triclinic
loop_
_symmetry_equiv_pos_as_xyz
  x,y,z
_cell_length_a	12.759400
_cell_length_b	12.759401
_cell_length_c	12.759393
_cell_angle_alpha	89.981504
_cell_angle_beta	90.031889
_cell_angle_gamma	89.977416
loop_
_atom_site_label
_atom_site_type_symbol
_atom_site_fract_x
_atom_site_fract_y
_atom_site_fract_z
Zn1	Zn	0.418196	1.606199	-0.593981
Zn2	Zn	0.593915	1.606071	-0.418300
Zn3	Zn	0.418252	1.430502	-0.418320
Zn4	Zn	0.593834	1.430467	-0.593941
O5	O	0.506049	1.518310	-0.506135
O6	O	0.441516	1.753203	-0.570684
O7	O	0.570670	1.582742	-0.271281
O8	O	0.271223	1.453877	-0.441646
O9	O	0.570616	1.753109	-0.441612
O10	O	0.271182	1.582961	-0.570704
O11	O	0.441611	1.453752	-0.271296
O12	O	0.441532	1.283476	-0.441608
O13	O	0.570479	1.453817	-0.740967
O14	O	0.570532	1.283450	-0.570636
O15	O	0.441438	1.582927	-0.740996
O16	O	0.740925	1.582708	-0.441574
O17	O	0.740866	1.453692	-0.570617
C18	C	0.506031	1.245342	-0.506121
C19	C	0.506048	1.128566	-0.506140
C20	C	0.779017	1.518211	-0.506112
C21	C	0.895793	1.518265	-0.506137
C22	C	1.060281	1.585478	-0.573413
C23	C	0.950557	1.585440	-0.573392
C24	C	0.950759	1.451131	-0.438892
C25	C	1.060481	1.451175	-0.438908
C26	C	1.232016	1.518401	-0.506175
C27	C	1.115239	1.518347	-0.506175
C28	C	0.573336	0.963987	-0.573226
C29	C	0.573324	1.073711	-0.573215
C30	C	0.438786	1.073691	-0.439063
C31	C	0.438804	0.963969	-0.439069
C32	C	0.506069	1.792343	-0.506150
C33	C	0.506077	1.909119	-0.506157
C34	C	0.505943	1.518383	-0.780169
C35	C	0.505898	1.518414	-0.896946
C36	C	0.438684	1.451273	-0.951815
C37	C	0.438652	1.451298	-1.061539
C38	C	0.573049	1.585613	-1.061515
C39	C	0.573086	1.585582	-0.951793
C40	C	0.506079	1.518297	-0.233168
C41	C	0.505829	1.518469	-0.116392
H42	H	0.905813	1.640105	-0.628142
H43	H	1.105230	1.396508	-0.384149
H44	H	0.383975	1.396580	-0.907161
H45	H	0.906164	1.396440	-0.384126
H46	H	0.384032	0.919294	-0.384449
O47	O	0.373581	1.127092	-0.373853
C48	C	0.433309	1.190503	-0.305875
H49	H	0.512970	1.206932	-0.342791
H50	H	0.390488	1.267666	-0.291869
H51	H	0.444767	1.148188	-0.227997
O52	O	0.638235	1.650859	-0.898370
C53	C	0.578447	1.718743	-0.834935
H54	H	0.498828	1.681725	-0.818518
H55	H	0.621268	1.732774	-0.757768
H56	H	0.566901	1.796622	-0.877222
O57	O	0.373410	1.385931	-1.114719
C58	C	0.396385	1.281201	-1.087907
H59	H	0.436801	1.278989	-1.008233
H60	H	0.320557	1.234129	-1.084161
H61	H	0.450374	1.245798	-1.149644
H62	H	0.628115	0.919332	-0.627853
O63	O	0.638691	1.126846	-0.638468
C64	C	0.698087	1.054902	-0.697658
H65	H	0.655067	0.976701	-0.701374
H66	H	0.709385	1.086633	-0.780414
H67	H	0.777838	1.043195	-0.659050
H68	H	0.627751	1.640300	-1.106185
H69	H	1.104862	1.640169	-0.628190
