data_functionalizedCrystal
_audit_creation_method	'MofGen! by Chris Wilmer'
_symmetry_space_group_name_H-M	'P1'
_symmetry_Int_Tables_number	1
_symmetry_cell_setting	triclinic
loop_
_symmetry_equiv_pos_as_xyz
  x,y,z
_cell_length_a	27.440280
_cell_length_b	27.440280
_cell_length_c	27.440280
_cell_angle_alpha	89.999308
_cell_angle_beta	60.000166
_cell_angle_gamma	60.004742
loop_
_atom_site_label
_atom_site_type_symbol
_atom_site_fract_x
_atom_site_fract_y
_atom_site_fract_z
Zr1	Zr	0.533336	-0.063960	0.469565
O2	O	0.634997	-0.141766	0.391758
O3	O	0.431675	-0.040110	0.493407
O4	O	0.533325	-0.141771	0.493419
O5	O	0.533356	0.040089	0.391748
O6	O	0.533317	-0.141774	0.573621
O7	O	0.533347	-0.040105	0.391747
O8	O	0.351484	0.040080	0.573600
O9	O	0.715189	-0.141765	0.391769
O10	O	0.473485	-0.029939	0.563441
O11	O	0.473497	0.029911	0.503588
O12	O	0.593177	-0.089782	0.503602
O13	O	0.593190	-0.029933	0.443749
Zr14	Zr	0.533339	0.063934	0.597479
Zr15	Zr	0.533324	-0.063965	0.597478
Zr16	Zr	0.533351	0.063939	0.469566
Zr17	Zr	0.661234	-0.063959	0.469581
Zr18	Zr	0.405441	0.063933	0.597463
O19	O	0.635000	0.040083	0.573637
O20	O	0.634979	-0.141773	0.573634
O21	O	0.635018	0.040090	0.391761
O22	O	0.431679	0.141740	0.675286
O23	O	0.431658	-0.040116	0.675283
O24	O	0.431697	0.141747	0.493410
O25	O	0.533319	-0.040115	0.675296
O26	O	0.533350	0.141745	0.573625
O27	O	0.533358	0.141748	0.493423
O28	O	0.533329	0.040078	0.675297
O29	O	0.715179	-0.141769	0.493442
O30	O	0.351496	0.141743	0.573602
O31	O	0.351486	0.141739	0.675275
O32	O	0.351475	0.040076	0.675274
O33	O	0.715201	-0.040103	0.391770
O34	O	0.715191	-0.040106	0.493444
O35	O	0.473499	0.089756	0.563443
O36	O	0.473486	0.029907	0.623296
O37	O	0.593178	-0.029937	0.563456
O38	O	0.593191	0.029912	0.503603
C39	C	0.373357	-0.000015	0.533501
C40	C	0.319061	-0.000016	0.533494
C41	C	0.533319	-0.159996	0.533520
C42	C	0.533313	-0.214292	0.533519
C43	C	0.533353	-0.000007	0.373522
C44	C	0.533359	-0.000005	0.319220
C45	C	-0.017687	-0.031249	0.564781
C46	C	-0.068711	-0.031247	0.564787
O47	O	-0.095123	-0.057798	0.591376
N48	N	-0.094221	-0.000007	0.533544
C49	C	-0.068709	0.031238	0.502298
O50	O	-0.095092	0.057810	0.475724
C51	C	-0.017689	0.031239	0.502296
C52	C	0.007823	-0.000008	0.533537
C53	C	0.007824	-0.062492	0.596020
C54	C	0.058845	-0.062495	0.596013
C55	C	0.084355	-0.031254	0.564768
C56	C	0.058844	-0.000010	0.533530
C57	C	0.007819	0.062487	0.471054
C58	C	0.058841	0.062486	0.471056
C59	C	0.084353	0.031240	0.502296
C60	C	0.135375	0.031229	0.502279
N61	N	0.160885	-0.000011	0.533522
C62	C	0.135375	-0.031252	0.564767
C63	C	-0.175854	0.031233	0.502304
C64	C	-0.226869	0.031228	0.502302
C65	C	-0.226869	-0.031256	0.564792
C66	C	-0.175849	-0.031254	0.564790
C67	C	-0.150344	-0.000007	0.533548
C68	C	0.242523	-0.031255	0.564750
C69	C	0.293551	-0.031257	0.564739
C70	C	0.293544	0.031229	0.502252
C71	C	0.242524	0.031229	0.502261
C72	C	0.217013	-0.000015	0.533514
O73	O	0.161818	0.057768	0.475706
O74	O	0.161758	-0.057814	0.591342
C75	C	0.693318	-0.000011	0.533543
C76	C	0.747614	-0.000011	0.533550
C77	C	0.595827	-0.582264	0.502292
C78	C	0.595831	-0.633286	0.502294
O79	O	0.648966	-0.686241	0.475747
N80	N	0.533354	-0.627566	0.533528
C81	C	0.470868	-0.570818	0.564768
O82	O	0.417727	-0.570638	0.591335
C83	C	0.470865	-0.519797	0.564769
C84	C	0.533347	-0.525523	0.533528
C85	C	0.658304	-0.587987	0.471054
C86	C	0.658300	-0.536968	0.471051
C87	C	0.595819	-0.480226	0.502287
C88	C	0.533343	-0.474504	0.533525
C89	C	0.408381	-0.463051	0.596012
C90	C	0.408383	-0.412030	0.596011
C91	C	0.470864	-0.417755	0.564769
C92	C	0.470858	-0.366743	0.564758
N93	N	0.533336	-0.372464	0.533524
C94	C	0.595816	-0.429205	0.502288
C95	C	0.470880	-0.677968	0.564763
C96	C	0.470882	-0.728988	0.564759
C97	C	0.595845	-0.791453	0.502285
C98	C	0.595842	-0.740432	0.502287
C99	C	0.533357	-0.683689	0.533529
C100	C	0.595803	-0.322060	0.502285
C101	C	0.595793	-0.271034	0.502283
C102	C	0.470831	-0.208574	0.564759
C103	C	0.470840	-0.259595	0.564758
C104	C	0.533331	-0.316340	0.533520
O105	O	0.417750	-0.313770	0.591293
O106	O	0.648949	-0.429375	0.475731
C107	C	0.533356	0.159969	0.533524
C108	C	0.533363	0.214266	0.533525
C109	C	0.533317	-0.044193	-0.017478
C110	C	0.533312	-0.044194	-0.068496
O111	O	0.533282	-0.081754	-0.094872
N112	N	0.533319	-0.000015	-0.094013
C113	C	0.533323	0.044170	-0.068506
O114	O	0.533327	0.081748	-0.094895
C115	C	0.533323	0.044172	-0.017487
C116	C	0.533324	-0.000012	0.008024
C117	C	0.533317	-0.088374	0.008033
C118	C	0.533323	-0.088374	0.059047
C119	C	0.533330	-0.044193	0.084549
C120	C	0.533330	-0.000013	0.059038
C121	C	0.533322	0.088360	0.008021
C122	C	0.533322	0.088358	0.059045
C123	C	0.533322	0.044173	0.084556
C124	C	0.533342	0.044168	0.135554
N125	N	0.533336	-0.000010	0.161071
C126	C	0.533330	-0.044191	0.135569
C127	C	0.533322	0.044163	-0.175650
C128	C	0.533327	0.044158	-0.226671
C129	C	0.533315	-0.044205	-0.226657
C130	C	0.533315	-0.044203	-0.175637
C131	C	0.533315	-0.000016	-0.150133
C132	C	0.533343	-0.044188	0.242701
C133	C	0.533352	-0.044186	0.293718
C134	C	0.533361	0.044179	0.293701
C135	C	0.533355	0.044175	0.242687
C136	C	0.533344	-0.000012	0.217189
O137	O	0.533370	0.081711	0.161963
O138	O	0.533316	-0.081758	0.161968
C139	C	0.533322	-0.000019	0.693522
C140	C	0.533317	-0.000021	0.747824
C141	C	0.373342	-0.000021	0.693501
C142	C	0.319040	-0.000023	0.747796
C143	C	0.373376	0.159967	0.533504
C144	C	0.319086	0.214263	0.533497
C145	C	0.373360	0.159962	0.693503
C146	C	0.319066	0.214256	0.747799
C147	C	0.693315	-0.159988	0.373541
C148	C	0.747610	-0.214282	0.319245
C149	C	0.693334	-0.000005	0.373543
C150	C	0.747635	-0.000003	0.319248
C151	C	0.693299	-0.159994	0.533540
C152	C	0.747589	-0.214290	0.533547
C153	C	0.293539	-0.031269	0.742050
C154	C	0.242525	-0.031283	0.793062
C155	C	0.217008	-0.000048	0.849819
C156	C	0.242515	0.031198	0.855563
C157	C	0.293532	0.031208	0.804552
C158	C	0.293592	0.271005	0.564738
C159	C	0.242588	0.322027	0.564730
C160	C	0.217077	0.316305	0.533484
C161	C	0.242576	0.259557	0.502240
C162	C	0.293582	0.208537	0.502245
C163	C	0.293561	0.208512	0.804545
C164	C	0.242553	0.259522	0.855567
C165	C	0.217046	0.316275	0.849842
C166	C	0.242555	0.322018	0.793090
C167	C	0.293566	0.271008	0.742069
C168	C	0.773120	-0.208538	0.262499
C169	C	0.824145	-0.259548	0.211477
C170	C	0.849655	-0.316301	0.217202
C171	C	0.824142	-0.322044	0.273954
C172	C	0.773122	-0.271034	0.324975
C173	C	0.773141	0.031237	0.324994
C174	C	0.824170	0.031237	0.273982
C175	C	0.849688	0.000001	0.217226
C176	C	0.824180	-0.031243	0.211481
C177	C	0.773155	-0.031246	0.262492
C178	C	0.773085	-0.208549	0.564798
C179	C	0.824089	-0.259561	0.564816
C180	C	0.849600	-0.316313	0.533578
C181	C	0.824099	-0.322052	0.502325
C182	C	0.773092	-0.271041	0.502311
H183	H	0.314323	-0.056704	0.590178
Cl184	Cl	0.533369	0.099718	0.325768
Cl185	Cl	0.741076	0.070507	0.396339
Cl186	Cl	0.210480	0.393370	0.785902
H187	H	0.891235	0.000009	0.175694
H188	H	0.891198	-0.357832	0.175653
H189	H	0.844919	-0.368259	0.278609
Cl190	Cl	0.152952	0.380452	0.533485
Cl191	Cl	0.533313	-0.099750	-0.143571
H192	H	0.314325	0.275693	0.695866
Cl193	Cl	0.325579	0.070497	0.811786
Cl194	Cl	0.090901	0.101772	0.431777
H195	H	0.419994	-0.631766	0.590201
H196	H	0.221732	0.056628	0.901781
Cl197	Cl	0.741053	-0.278266	0.396311
H198	H	0.752353	-0.162331	0.257825
H199	H	0.314358	0.275675	0.590182
Cl200	Cl	0.856264	-0.070506	0.140125
H201	H	0.221764	-0.056727	0.788373
H202	H	0.314322	0.162305	0.809219
Cl203	Cl	0.210540	0.393360	0.604014
H204	H	0.646689	-0.368258	0.476848
H205	H	0.844908	-0.254860	0.165272
Cl206	Cl	0.856224	0.070521	0.281218
H207	H	0.752389	-0.056684	0.257805
H208	H	0.752322	-0.162343	0.590236
H209	H	0.533320	0.124342	0.079809
Cl210	Cl	0.533304	-0.099745	-0.258726
H211	H	0.533309	-0.124352	-0.012725
Cl212	Cl	0.152915	0.380396	0.913989
Cl213	Cl	0.856140	-0.252332	0.604104
Cl214	Cl	0.533340	0.099700	-0.258743
Cl215	Cl	0.210492	0.252289	0.926905
H216	H	0.891133	-0.357845	0.533594
Cl217	Cl	0.856184	-0.393402	0.463051
H218	H	0.221757	-0.056696	0.590201
Cl219	Cl	0.090906	-0.101775	0.635292
Cl220	Cl	-0.024232	-0.101777	0.635300
Cl221	Cl	0.741053	-0.278268	0.463013
H222	H	0.314333	0.162337	0.476807
Cl223	Cl	-0.143785	-0.070535	0.604067
H224	H	0.314314	-0.056711	0.695841
H225	H	0.221797	0.254908	0.476801
Cl226	Cl	0.152870	-0.000066	0.913941
H227	H	-0.247649	-0.056693	0.590234
H228	H	-0.247628	0.056665	0.476855
H229	H	-0.155086	0.056675	0.476856
H230	H	-0.012945	0.087932	0.445616
Cl231	Cl	0.329825	-0.340696	0.635294
Cl232	Cl	0.533365	0.099718	0.210611
H233	H	0.221759	0.056664	0.476814
Cl234	Cl	0.533331	0.099713	-0.143597
H235	H	0.709179	-0.541637	0.445614
Cl236	Cl	0.325623	0.070503	0.462976
H237	H	0.709186	-0.634185	0.445618
Cl238	Cl	0.674347	-0.278237	0.463001
H239	H	0.646720	-0.837662	0.476851
Cl240	Cl	0.674393	-0.747636	0.463014
Cl241	Cl	0.329827	-0.455839	0.635289
Cl242	Cl	0.392291	-0.252398	0.604027
Cl243	Cl	0.392330	-0.721783	0.604025
H244	H	0.419961	-0.162366	0.590188
Cl245	Cl	0.533354	-0.099738	0.325785
Cl246	Cl	0.533331	-0.099739	0.210655
Cl247	Cl	0.533319	0.143910	-0.024038
Cl248	Cl	0.533317	-0.143920	0.091116
