data_functionalizedCrystal
_audit_creation_method	'MofGen! by Chris Wilmer'
_symmetry_space_group_name_H-M	'P1'
_symmetry_Int_Tables_number	1
_symmetry_cell_setting	triclinic
loop_
_symmetry_equiv_pos_as_xyz
  x,y,z
_cell_length_a	27.732048
_cell_length_b	15.538191
_cell_length_c	14.750779
_cell_angle_alpha	97.569385
_cell_angle_beta	77.459684
_cell_angle_gamma	64.957374
loop_
_atom_site_label
_atom_site_type_symbol
_atom_site_fract_x
_atom_site_fract_y
_atom_site_fract_z
O1	O	-0.607549	-0.132983	-0.079699
O2	O	-0.463818	-0.150077	-0.079727
O3	O	-0.563661	-0.003993	-0.079712
O4	O	-0.507706	-0.279067	-0.079714
O5	O	-0.591885	0.037298	0.079943
O6	O	-0.492042	-0.108785	0.079927
O7	O	-0.635773	-0.091692	0.079956
Zn8	Zn	-0.568388	-0.093683	0.105290
Zn9	Zn	-0.531203	-0.148086	-0.105062
O10	O	-0.535930	-0.237776	0.079941
C11	C	-0.459984	-0.129074	0.000097
C12	C	-0.406513	-0.127996	0.000086
C13	C	-0.583627	0.051833	0.000113
C14	C	-0.601064	0.156659	0.000107
C15	C	-0.639607	-0.112696	0.000130
C16	C	-0.693077	-0.113775	0.000135
C17	C	-0.054056	-0.207510	0.000127
C18	C	0.146914	-0.203501	0.000135
O19	O	0.190643	-0.276210	0.000176
N20	N	0.151172	-0.116882	0.000134
C21	C	0.105181	-0.031257	0.000137
O22	O	0.113413	0.042512	0.000146
C23	C	-0.095789	-0.035266	0.000135
C24	C	-0.100041	-0.121893	0.000127
C25	C	-0.058311	-0.294130	0.000119
C26	C	-0.108549	-0.295133	0.000112
C27	C	-0.154534	-0.209516	0.000112
C28	C	-0.150280	-0.122896	0.000119
C29	C	-0.141779	0.050359	0.000145
C30	C	-0.192024	0.049350	0.000147
C31	C	-0.196276	-0.037277	0.000139
C32	C	-0.246504	-0.038282	0.000112
N33	N	-0.250762	-0.124901	0.000113
C34	C	-0.204777	-0.210518	0.000113
C35	C	0.210696	-0.029160	0.000136
C36	C	0.260938	-0.028158	0.000135
C37	C	0.302667	-0.200401	0.000135
C38	C	0.252424	-0.201404	0.000129
C39	C	0.206438	-0.115779	0.000137
C40	C	-0.310283	-0.212617	0.000097
C41	C	-0.360528	-0.213614	0.000085
C42	C	-0.402253	-0.041369	0.000091
C43	C	-0.352012	-0.040374	0.000097
C44	C	-0.306027	-0.126005	0.000103
O45	O	-0.290256	0.034391	0.000082
O46	O	-0.213023	-0.284271	0.000125
C47	C	-0.003818	-0.206508	0.000134
C48	C	0.000437	-0.119888	0.000142
C49	C	-0.045548	-0.034271	0.000142
C50	C	0.050679	-0.118886	0.000140
C51	C	0.096664	-0.204503	0.000140
C52	C	0.092406	-0.291122	0.000141
C53	C	0.042167	-0.292125	0.000134
C54	C	-0.041290	0.052348	0.000141
C55	C	0.008951	0.053344	0.000147
C56	C	0.054935	-0.032273	0.000147
C57	C	-0.515964	-0.293602	0.000113
C58	C	-0.498525	-0.398430	0.000113
N59	N	-0.593770	-0.056553	0.248850
C60	C	-0.427818	0.441924	0.000094
C61	C	-0.444217	0.540430	0.000099
C62	C	-0.536455	0.564220	0.000117
C63	C	-0.520063	0.465713	0.000107
C64	C	-0.465744	0.404572	0.000096
C65	C	-0.557989	0.428361	0.000109
C66	C	-0.541599	0.329864	0.000104
C67	C	-0.487283	0.268718	0.000097
C68	C	-0.449354	0.306075	0.000091
C69	C	-0.612310	0.489505	0.000127
C70	C	-0.650236	0.452154	0.000129
C71	C	-0.633845	0.353653	0.000117
C72	C	-0.579528	0.292507	0.000110
C73	C	-0.671774	0.316296	0.000123
C74	C	-0.655383	0.217799	0.000118
C75	C	-0.563138	0.194010	0.000105
N76	N	-0.505826	-0.185208	-0.248621
C77	C	-0.434945	-0.288864	0.600644
C78	C	-0.452733	-0.262852	0.701146
C79	C	-0.541150	-0.133542	0.701122
C80	C	-0.523367	-0.159540	0.600618
C81	C	-0.470265	-0.237203	0.550387
C82	C	-0.558687	-0.107879	0.550361
C83	C	-0.540908	-0.133878	0.449866
C84	C	-0.487808	-0.211539	0.399628
C85	C	-0.452485	-0.263202	0.449892
C86	C	-0.611791	-0.030221	0.600594
C87	C	-0.647111	0.021441	0.550337
C88	C	-0.629330	-0.004554	0.449840
C89	C	-0.576230	-0.082215	0.399602
C90	C	-0.664653	0.047109	0.399576
C91	C	-0.646873	0.021109	0.299081
C92	C	-0.558450	-0.108215	0.299107
H93	H	-0.363985	-0.284159	0.000078
Br94	Br	-0.736723	0.152492	0.467756
H95	H	0.012406	0.123889	0.000146
Br96	Br	-0.254434	0.165564	0.000163
Br97	Br	-0.103694	0.168557	0.000144
Br98	Br	0.148289	0.087058	0.000147
Br99	Br	0.266707	0.089405	0.000118
H100	H	-0.473940	0.188517	0.000098
H101	H	-0.272847	-0.282346	0.000105
Br102	Br	-0.489416	0.111021	0.000076
Br103	Br	-0.380411	-0.368591	0.381716
Br104	Br	-0.486377	-0.213603	0.230931
H105	H	0.340117	-0.270114	0.000135
H106	H	-0.625651	0.569705	0.000122
Br107	Br	-0.375632	0.223086	0.000063
Br108	Br	-0.723954	0.535140	0.000155
H109	H	-0.473333	-0.232710	0.317798
Br110	Br	-0.745494	0.399289	0.000160
Br111	Br	-0.346241	0.077193	0.000112
H112	H	-0.383585	0.392137	0.000078
Br113	Br	-0.404792	-0.332982	0.769345
H114	H	-0.584387	-0.070311	0.742031
Br115	Br	-0.610174	0.647206	0.000142
Br116	Br	-0.635922	0.005054	0.736982
H117	H	-0.686267	0.187388	0.000121
H118	H	-0.675635	0.063177	0.258161
Br119	Br	0.004092	-0.410341	0.000119
Br120	Br	-0.362871	-0.394253	0.532468
Br121	Br	-0.114312	-0.412704	0.000104
H122	H	0.248967	-0.271942	0.000127
Br123	Br	0.154825	-0.407317	0.000134
Br124	Br	-0.719179	0.126833	0.618513
H125	H	-0.138328	0.120900	0.000153
Br126	Br	-0.392741	0.591120	0.000106
H127	H	-0.439702	0.028337	0.000087
H128	H	0.038711	-0.362665	0.000128
