data_functionalizedCrystal
_audit_creation_method	'MofGen! by Chris Wilmer'
_symmetry_space_group_name_H-M	'P1'
_symmetry_Int_Tables_number	1
_symmetry_cell_setting	triclinic
loop_
_symmetry_equiv_pos_as_xyz
  x,y,z
_cell_length_a	15.944551
_cell_length_b	10.868271
_cell_length_c	11.792241
_cell_angle_alpha	89.998922
_cell_angle_beta	83.846077
_cell_angle_gamma	89.999718
loop_
_atom_site_label
_atom_site_type_symbol
_atom_site_fract_x
_atom_site_fract_y
_atom_site_fract_z
O1	O	1.115186	-0.102194	0.146373
O2	O	1.615186	0.397806	0.646373
O3	O	0.870717	-0.102225	0.164420
O4	O	1.370717	0.397775	0.664420
O5	O	0.998884	-0.102200	-0.009823
O6	O	1.498884	0.397800	0.490177
O7	O	0.987019	-0.102219	0.320616
O8	O	1.487019	0.397781	0.820616
O9	O	0.998871	0.102444	-0.009815
O10	O	1.498871	0.602444	0.490185
O11	O	0.870704	0.102420	0.164428
O12	O	1.370704	0.602420	0.664428
O13	O	1.115173	0.102450	0.146381
O14	O	1.615173	0.602450	0.646381
Zn15	Zn	0.992937	0.134927	0.155405
Zn16	Zn	1.492937	0.634927	0.655405
Zn17	Zn	0.992953	-0.134701	0.155396
Zn18	Zn	1.492953	0.365299	0.655396
O19	O	0.987006	0.102426	0.320624
O20	O	1.487006	0.602426	0.820624
C21	C	0.839414	0.000093	0.163675
C22	C	1.339414	0.500093	0.663675
C23	C	0.746157	0.000082	0.161429
C24	C	1.246157	0.500082	0.661429
N25	N	0.992931	0.318941	0.155411
N26	N	1.492931	0.818941	0.655411
C27	C	0.992937	0.430278	0.155413
C28	C	1.492937	0.930278	0.655413
C29	C	0.992947	0.569956	0.155403
C30	C	1.492947	1.069956	0.655403
C31	C	0.530789	0.000112	0.048056
C32	C	1.030789	0.500112	0.548056
C33	C	0.470013	-0.100791	0.100699
C34	C	0.970013	0.399209	0.600699
C35	C	0.575413	0.000097	0.157365
C36	C	1.075413	0.500097	0.657365
C37	C	0.470023	0.100972	0.100732
C38	C	0.970023	0.600972	0.600732
C39	C	0.410483	0.000116	0.153432
C40	C	0.910483	0.500116	0.653432
C41	C	0.515865	-0.100890	0.210038
C42	C	1.015865	0.399110	0.710038
C43	C	0.515881	0.100964	0.210056
C44	C	1.015881	0.600964	0.710056
C45	C	0.455123	0.000036	0.262778
C46	C	0.955123	0.500036	0.762778
C47	C	0.670426	0.000084	0.159628
C48	C	1.170426	0.500084	0.659628
C49	C	0.315471	0.000120	0.151178
C50	C	0.815471	0.500120	0.651178
C51	C	1.146476	0.000129	0.147126
C52	C	1.646476	0.500129	0.647126
C53	C	1.239733	0.000133	0.149372
C54	C	1.739733	0.500133	0.649372
N55	N	0.992960	0.681284	0.155389
N56	N	1.492960	1.181284	0.655389
C57	C	0.998132	0.000122	-0.052104
C58	C	1.498132	0.500122	0.447896
C59	C	0.995901	0.000120	-0.178099
C60	C	1.495901	0.500120	0.321901
C61	C	0.991799	0.000099	-0.408777
C62	C	1.491799	0.500099	0.091223
C63	C	0.994079	0.000110	-0.280411
C64	C	1.494079	0.500110	0.219589
C65	C	0.987758	0.000101	0.362905
C66	C	1.487758	0.500101	0.862905
C67	C	0.989989	0.000094	0.488900
C68	C	1.489989	0.500094	0.988900
H69	H	0.563713	-0.000007	-0.042662
H70	H	1.063713	0.499993	0.457338
H71	H	0.449699	-0.186093	0.054463
H72	H	0.949699	0.313907	0.554463
H73	H	0.422374	-0.000026	0.353590
H74	H	0.922374	0.499974	0.853590
O75	O	0.542631	-0.214033	0.271190
O76	O	1.042631	0.285967	0.771190
H77	H	0.574525	-0.185800	0.346216
H78	H	1.074525	0.314200	0.846216
H79	H	0.449722	0.186275	0.054482
H80	H	0.949722	0.686275	0.554482
O81	O	0.542839	0.213953	0.271246
O82	O	1.042839	0.713953	0.771246
H83	H	0.524688	0.297596	0.225695
H84	H	1.024688	0.797596	0.725695
