data_functionalizedCrystal
_audit_creation_method	'MofGen! by Chris Wilmer'
_symmetry_space_group_name_H-M	'P1'
_symmetry_Int_Tables_number	1
_symmetry_cell_setting	triclinic
loop_
_symmetry_equiv_pos_as_xyz
  x,y,z
_cell_length_a	15.995350
_cell_length_b	16.776229
_cell_length_c	17.699083
_cell_angle_alpha	89.992455
_cell_angle_beta	83.387695
_cell_angle_gamma	89.996506
loop_
_atom_site_label
_atom_site_type_symbol
_atom_site_fract_x
_atom_site_fract_y
_atom_site_fract_z
O1	O	1.110790	-0.066222	0.097560
O2	O	0.866990	-0.066239	0.109607
O3	O	0.995778	-0.066223	-0.006594
O4	O	0.982002	-0.066238	0.213761
O5	O	0.995761	0.066353	-0.006602
O6	O	0.866973	0.066338	0.109600
O7	O	1.110773	0.066354	0.097553
Zn8	Zn	0.988870	0.087395	0.103575
Zn9	Zn	0.988893	-0.087280	0.103584
O10	O	0.981985	0.066338	0.213754
C11	C	0.835788	0.000047	0.109105
C12	C	0.742841	0.000041	0.107612
N13	N	0.988861	0.206607	0.103568
N14	N	0.988909	-0.206491	0.103585
C15	C	0.405104	0.000058	0.102250
C16	C	0.452706	0.000360	0.019493
C17	C	0.549394	0.000055	0.020987
C18	C	0.572659	0.000050	0.104910
C19	C	0.531499	-0.075657	0.145732
C20	C	0.434867	-0.075715	0.143653
C21	C	0.434505	0.075049	0.145355
C22	C	0.531451	0.076044	0.145335
C23	C	0.667354	0.000043	0.106417
C24	C	0.310409	0.000060	0.100745
C25	C	1.141975	0.000066	0.098054
C26	C	1.234923	0.000067	0.099547
C27	C	0.995276	0.000065	-0.034796
C28	C	0.993795	0.000065	-0.118816
C29	C	1.045906	0.248331	0.052135
C30	C	1.045910	0.331783	0.052135
C31	C	0.988874	0.373509	0.103571
C32	C	0.931823	0.331779	0.155006
C33	C	0.931815	0.248329	0.155003
C34	C	0.931853	0.668327	0.155021
C35	C	0.931867	0.751783	0.155022
C36	C	1.045949	0.751781	0.052153
C37	C	1.045941	0.668330	0.052150
C38	C	0.988887	0.626607	0.103582
C39	C	0.988882	0.536119	0.103581
C40	C	0.988883	0.463996	0.103576
C41	C	1.069391	0.000072	-0.167312
C42	C	1.067994	0.000065	-0.246257
C43	C	0.991001	0.000057	-0.276706
C44	C	0.915400	0.000048	-0.228205
C45	C	0.916797	0.000050	-0.149261
C46	C	0.909763	0.000041	-0.546577
C47	C	0.908372	0.000042	-0.625527
C48	C	1.060960	0.000056	-0.643574
C49	C	1.062358	0.000058	-0.564630
C50	C	0.986757	0.000045	-0.516135
C51	C	0.988272	0.000051	-0.430533
C52	C	0.989485	0.000056	-0.362306
C53	C	0.982487	0.000048	0.241955
C54	C	0.983968	0.000043	0.325976
H55	H	0.434245	0.054652	-0.013589
C56	C	0.851185	0.000040	-0.020229
C57	C	0.833701	0.000042	-0.095950
H58	H	0.799882	0.000027	0.012681
H59	H	0.882748	0.046273	-0.011008
H60	H	0.882772	-0.046192	-0.011004
H61	H	0.802119	0.046278	-0.105176
H62	H	0.802124	-0.046195	-0.105175
C63	C	1.159848	0.154427	0.035718
C64	C	1.108564	0.202448	-0.004424
H65	H	1.198521	0.126101	0.000791
H66	H	1.125873	0.117652	0.066360
H67	H	1.189940	0.186965	0.067218
H68	H	1.078467	0.169909	-0.035920
H69	H	1.142544	0.239227	-0.035080
C70	C	0.303761	-0.080461	0.224613
C71	C	0.391159	-0.080363	0.225671
H72	H	0.276782	-0.083329	0.275247
H73	H	0.288007	-0.125222	0.196597
H74	H	0.287222	-0.032888	0.201288
H75	H	0.407699	-0.127939	0.248991
H76	H	0.406919	-0.035598	0.253698
C77	C	0.881187	0.540411	0.200707
C78	C	0.869156	0.622471	0.211567
H79	H	0.842477	0.512102	0.235618
H80	H	0.937042	0.526731	0.208950
H81	H	0.872186	0.526749	0.150190
H82	H	0.878163	0.636134	0.262083
H83	H	0.813287	0.636157	0.203330
H84	H	0.885418	0.785756	0.196910
C85	C	0.522589	-0.117201	-0.050171
C86	C	0.587106	-0.073333	-0.022608
H87	H	0.545873	-0.162513	-0.077080
H88	H	0.494608	-0.084772	-0.083376
H89	H	0.483540	-0.134080	-0.008744
H90	H	0.626152	-0.056450	-0.064035
H91	H	0.615101	-0.105768	0.010600
H92	H	0.558821	0.132052	0.115535
C93	C	1.159780	0.574296	0.035609
C94	C	1.108489	0.622387	-0.004459
H95	H	1.198353	0.545914	0.000637
H96	H	1.125797	0.537570	0.066303
H97	H	1.189986	0.606794	0.067051
H98	H	1.078279	0.589888	-0.035898
H99	H	1.142477	0.659117	-0.035167
C100	C	0.482494	-0.197385	0.081488
C101	C	0.410237	-0.152103	0.103467
H102	H	0.467290	-0.244542	0.056673
H103	H	0.508662	-0.211218	0.125201
H104	H	0.520527	-0.167109	0.047672
H105	H	0.372207	-0.182377	0.137288
H106	H	0.384056	-0.138272	0.059748
C107	C	0.784892	0.068182	-0.237125
C108	C	0.830764	0.000037	-0.261668
H109	H	0.732638	0.068172	-0.257779
H110	H	0.816002	0.114409	-0.253781
H111	H	0.774914	0.068173	-0.183167
H112	H	0.840747	0.000049	-0.315626
H113	H	0.799647	-0.046202	-0.245015
C114	C	0.817858	0.425650	0.171371
C115	C	0.869128	0.377647	0.211545
H116	H	0.779158	0.453969	0.206279
H117	H	0.787804	0.393106	0.139856
H118	H	0.851845	0.462438	0.140742
H119	H	0.835142	0.340855	0.242170
H120	H	0.899184	0.410194	0.243073
H121	H	0.414018	0.132434	0.118297
H122	H	0.545499	-0.078476	0.207388
C123	C	0.602331	0.017527	0.244158
C124	C	0.552009	0.082211	0.227957
H125	H	0.615015	0.021328	0.295170
H126	H	0.653105	0.018170	0.210558
H127	H	0.572991	-0.030787	0.237747
H128	H	0.581352	0.130525	0.234363
H129	H	0.501226	0.081576	0.261568
C130	C	0.819055	0.256708	0.256695
C131	C	0.869114	0.202462	0.211543
H132	H	0.780348	0.228391	0.291602
H133	H	0.789009	0.289266	0.225175
H134	H	0.853862	0.289248	0.283938
H135	H	0.834308	0.169927	0.184295
H136	H	0.899162	0.169891	0.243067
C137	C	0.818255	0.068180	-0.703841
C138	C	0.823734	0.000027	-0.658997
H139	H	0.766004	0.068172	-0.724500
H140	H	0.863075	0.068184	-0.744016
H141	H	0.821958	0.114407	-0.673414
H142	H	0.820037	-0.046200	-0.689425
H143	H	0.778902	0.000017	-0.618816
H144	H	0.402620	0.075558	0.206370
H145	H	0.577881	0.054326	-0.011101
C146	C	1.095385	0.357480	-0.078861
C147	C	1.108628	0.377639	-0.004396
H148	H	1.134113	0.385785	-0.113760
H149	H	1.039538	0.371176	-0.087116
H150	H	1.103539	0.301806	-0.086209
H151	H	1.100469	0.433313	0.002954
H152	H	1.164489	0.363948	0.003863
H153	H	1.092402	0.785760	0.010272
H154	H	1.132087	0.000083	-0.142527
H155	H	0.433187	-0.053630	-0.013431
C156	C	1.218965	0.000098	-0.256166
C157	C	1.151092	0.000081	-0.299564
H158	H	1.270268	0.000113	-0.289077
H159	H	1.216349	-0.046131	-0.224997
H160	H	1.216317	0.046334	-0.225003
H161	H	1.153737	-0.046158	-0.330723
H162	H	1.153710	0.046315	-0.330746
H163	H	1.125053	0.000068	-0.539843
C164	C	1.126586	0.000048	-0.772605
C165	C	1.144065	0.000058	-0.696882
H166	H	1.177891	0.000045	-0.805512
H167	H	1.095009	0.046273	-0.781840
H168	H	1.095016	-0.046192	-0.781819
H169	H	1.175631	0.046300	-0.687666
H170	H	1.175656	-0.046173	-0.687643
H171	H	0.848204	0.000031	-0.507102
H172	H	0.559938	-0.131997	0.117384
