data_functionalizedCrystal
_audit_creation_method	'MofGen! by Chris Wilmer'
_symmetry_space_group_name_H-M	'P1'
_symmetry_Int_Tables_number	1
_symmetry_cell_setting	triclinic
loop_
_symmetry_equiv_pos_as_xyz
  x,y,z
_cell_length_a	17.019282
_cell_length_b	27.731996
_cell_length_c	15.500227
_cell_angle_alpha	92.797931
_cell_angle_beta	91.034464
_cell_angle_gamma	83.006485
loop_
_atom_site_label
_atom_site_type_symbol
_atom_site_fract_x
_atom_site_fract_y
_atom_site_fract_z
O1	O	1.045605	0.061735	0.005972
O2	O	0.816718	0.069063	-0.011090
O3	O	0.938291	-0.004955	-0.002009
O4	O	0.924032	0.135753	-0.003109
O5	O	0.930913	-0.000481	0.141328
O6	O	0.809341	0.073537	0.132248
O7	O	1.038228	0.066209	0.149309
Cu8	Cu	0.923111	0.070282	0.153866
Cu9	Cu	0.931835	0.064991	-0.015647
O10	O	0.916655	0.140227	0.140228
C11	C	0.783756	0.070935	0.058397
C12	C	0.696531	0.069842	0.051896
C13	C	0.651536	0.071766	0.126977
C14	C	0.569580	0.070731	0.120871
C15	C	0.532621	0.067775	0.039683
C16	C	0.577622	0.065850	-0.035404
C17	C	0.659577	0.066881	-0.029297
C18	C	0.285371	0.064536	0.017336
C19	C	0.203410	0.063506	0.011235
C20	C	0.195374	0.068386	0.167510
C21	C	0.277331	0.069420	0.173610
C22	C	0.322325	0.067492	0.098523
C23	C	0.448849	0.066719	0.033440
C24	C	0.406097	0.068545	0.104767
C25	C	0.934309	-0.020727	0.069641
C26	C	0.933426	-0.074388	0.069584
C27	C	0.931898	-0.409579	-0.009005
C28	C	0.928549	-0.611258	-0.009270
O29	O	0.931502	-0.639406	-0.075755
N30	N	0.924111	-0.634039	0.068831
C31	C	0.920506	-0.606397	0.147004
O32	O	0.916647	-0.630401	0.213428
C33	C	0.923850	-0.404718	0.147268
C34	C	0.928296	-0.381940	0.069162
C35	C	0.936343	-0.386801	-0.087105
C36	C	0.937184	-0.336385	-0.087038
C37	C	0.933582	-0.308746	-0.008871
C38	C	0.929137	-0.331524	0.069229
C39	C	0.920239	-0.377076	0.225439
C40	C	0.921073	-0.326653	0.225498
C41	C	0.925519	-0.303875	0.147392
C42	C	0.926376	-0.253469	0.147464
N43	N	0.930814	-0.230688	0.069362
C44	C	0.934416	-0.258326	-0.008805
C45	C	0.918752	-0.712282	0.146860
C46	C	0.917917	-0.762701	0.146795
C47	C	0.925959	-0.767559	-0.009480
C48	C	0.926799	-0.717139	-0.009413
C49	C	0.923189	-0.689501	0.068759
C50	C	0.936184	-0.152448	-0.008658
C51	C	0.937029	-0.102027	-0.008583
C52	C	0.928983	-0.097173	0.147691
C53	C	0.928143	-0.147590	0.147617
C54	C	0.931741	-0.175226	0.069436
O55	O	0.923417	-0.225290	0.213913
O56	O	0.938258	-0.234312	-0.075220
C57	C	0.931057	-0.459996	-0.009073
C58	C	0.926612	-0.482773	0.069027
C59	C	0.923010	-0.455135	0.147194
C60	C	0.925778	-0.533193	0.068961
C61	C	0.929380	-0.560832	-0.009206
C62	C	0.933818	-0.538051	-0.087307
C63	C	0.934659	-0.487634	-0.087240
C64	C	0.918572	-0.477916	0.225296
C65	C	0.917732	-0.528333	0.225222
C66	C	0.921334	-0.555971	0.147055
C67	C	1.071190	0.064337	0.079820
C68	C	1.158415	0.065430	0.086316
C69	C	0.920637	0.155999	0.068576
C70	C	0.921520	0.209660	0.068628
N71	N	0.916980	0.074003	0.273093
N72	N	0.937972	0.061266	-0.134874
C73	C	0.968512	0.042650	0.322219
C74	C	0.963883	0.045469	0.412446
C75	C	0.907725	0.079643	0.453546
C76	C	0.856188	0.110996	0.404413
C77	C	0.860814	0.108175	0.314188
C78	C	0.891060	0.089798	0.725768
C79	C	0.886440	0.092618	0.816000
C80	C	0.994135	0.027090	0.824027
C81	C	0.998759	0.024274	0.733799
C82	C	0.947219	0.055625	0.684675
C83	C	0.902994	0.082525	0.545773
C84	C	0.951947	0.052740	0.592449
H85	H	0.418747	0.064313	-0.032664
H86	H	0.173320	0.061101	-0.054882
H87	H	0.939274	-0.409299	-0.150762
C88	C	0.482130	0.030881	0.205381
C89	C	0.520130	0.072840	0.203408
H90	H	0.451609	0.032180	0.256344
H91	H	0.448386	0.028977	0.156167
H92	H	0.520629	0.003028	0.204986
H93	H	0.481631	0.100693	0.203797
H94	H	0.553877	0.074749	0.252636
C95	C	1.039893	-0.055630	0.855344
C96	C	1.050776	-0.007376	0.878027
H97	H	1.074864	-0.076909	0.888679
H98	H	0.986761	-0.060512	0.866244
H99	H	1.050688	-0.062194	0.795726
H100	H	1.039975	-0.000811	0.937644
H101	H	1.103920	-0.002491	0.867133
C102	C	0.285070	0.059610	-0.137746
C103	C	0.334822	0.062419	-0.065199
H104	H	0.315603	0.058305	-0.188701
H105	H	0.259282	0.031153	-0.136393
H106	H	0.246592	0.087473	-0.137351
H107	H	0.373297	0.034555	-0.065591
H108	H	0.360623	0.090879	-0.066553
H109	H	0.696211	0.065315	-0.090436
H110	H	0.857270	0.110351	0.579243
H111	H	0.928893	-0.790071	-0.073127
H112	H	1.005844	0.019939	0.452444
C113	C	0.910738	-0.712557	0.301326
C114	C	0.914800	-0.681907	0.232797
H115	H	0.908308	-0.693806	0.354379
H116	H	0.864736	-0.728705	0.294635
H117	H	0.956423	-0.735941	0.301446
H118	H	0.869112	-0.658524	0.232673
H119	H	0.960806	-0.665751	0.239489
H120	H	0.926054	-0.074661	0.211333
H121	H	0.681621	0.074176	0.193089
H122	H	0.547524	0.063440	-0.101509
H123	H	0.924530	-0.166137	0.211218
C124	C	0.807558	0.195451	0.428636
C125	C	0.794452	0.148560	0.449583
H126	H	0.769440	0.218641	0.456516
H127	H	0.859170	0.201265	0.447317
H128	H	0.802940	0.198250	0.367868
H129	H	0.799076	0.145760	0.510351
H130	H	0.742827	0.142744	0.430906
H131	H	0.307418	0.071825	0.239721
C132	C	0.974982	-0.016196	0.492381
C133	C	1.013658	0.015158	0.547293
H134	H	1.013078	-0.039400	0.464500
H135	H	0.940681	-0.032528	0.525189
H136	H	0.944968	0.002077	0.450203
H137	H	1.043668	-0.003115	0.589475
H138	H	1.047974	0.031492	0.514482
H139	H	0.849095	0.115327	0.685778
C140	C	0.066177	0.068967	0.227542
C141	C	0.145916	0.070499	0.250042
H142	H	0.035646	0.070266	0.278498
H143	H	0.048053	0.095955	0.193966
H144	H	0.060753	0.039635	0.194914
H145	H	0.151341	0.099832	0.282664
H146	H	0.164045	0.043508	0.283631
C147	C	0.944200	-0.152170	-0.163124
C148	C	0.940127	-0.182819	-0.094596
H149	H	0.946636	-0.170921	-0.216177
H150	H	0.898525	-0.128785	-0.163250
H151	H	0.990211	-0.136024	-0.156426
H152	H	0.894112	-0.198963	-0.101291
H153	H	0.985806	-0.206213	-0.094472
C154	C	0.945035	-0.346265	-0.241511
C155	C	0.942057	-0.311351	-0.172897
H156	H	0.948036	-0.330811	-0.294520
H157	H	0.990384	-0.369442	-0.234869
H158	H	0.898697	-0.362216	-0.241686
H159	H	0.988399	-0.295402	-0.172718
H160	H	0.896705	-0.288166	-0.179541
H161	H	0.436193	0.070949	0.170870
H162	H	0.818850	0.133705	0.274190
H163	H	0.940651	-0.083484	-0.072189
C164	C	0.844720	-0.811242	0.232345
C165	C	0.913028	-0.787733	0.232654
H166	H	0.841699	-0.826694	0.285351
H167	H	0.799384	-0.788057	0.225693
H168	H	0.846760	-0.834924	0.185787
H169	H	0.910986	-0.764048	0.279208
H170	H	0.958376	-0.810919	0.239315
H171	H	0.938279	-0.469093	-0.150842
C172	C	0.934662	-0.727017	-0.163887
C173	C	0.931676	-0.692104	-0.095270
H174	H	0.937666	-0.711561	-0.216893
H175	H	0.980011	-0.750192	-0.157242
H176	H	0.888324	-0.742969	-0.164069
H177	H	0.978016	-0.676154	-0.095085
H178	H	0.886323	-0.668920	-0.101917
C179	C	0.912348	-0.367186	0.379909
C180	C	0.915343	-0.402103	0.311297
H181	H	0.909319	-0.382637	0.432916
H182	H	0.958685	-0.351241	0.380104
H183	H	0.867000	-0.344005	0.373243
H184	H	0.960694	-0.425283	0.317959
H185	H	0.869002	-0.418056	0.311103
H186	H	0.918122	-0.304151	0.289156
C187	C	0.936094	-0.617500	-0.156783
C188	C	0.937773	-0.568438	-0.173231
H189	H	0.938527	-0.636260	-0.209828
H190	H	0.980146	-0.628376	-0.121280
H191	H	0.888459	-0.621139	-0.128100
H192	H	0.985411	-0.564798	-0.201909
H193	H	0.893717	-0.557559	-0.208749
H194	H	0.914118	-0.546874	0.288831
H195	H	0.915640	-0.455417	0.288950
H196	H	1.014245	0.014825	0.288762
C197	C	1.021330	-0.044842	0.634162
C198	C	1.060284	-0.013516	0.688842
H199	H	1.059257	-0.068235	0.606469
H200	H	0.986817	-0.060948	0.667100
H201	H	0.991509	-0.026587	0.591823
H202	H	1.090101	-0.031770	0.731185
H203	H	1.094811	0.002592	0.655902
C204	C	0.780426	0.157097	0.799007
C205	C	0.824695	0.130177	0.861178
H206	H	0.742306	0.180280	0.826900
H207	H	0.814713	0.173454	0.766224
H208	H	0.754227	0.135812	0.761741
H209	H	0.850899	0.151462	0.898440
H210	H	0.790403	0.113819	0.893976
