data_functionalizedCrystal
_audit_creation_method	'MofGen! by Chris Wilmer'
_symmetry_space_group_name_H-M	'P1'
_symmetry_Int_Tables_number	1
_symmetry_cell_setting	triclinic
loop_
_symmetry_equiv_pos_as_xyz
  x,y,z
_cell_length_a	10.967874
_cell_length_b	11.804783
_cell_length_c	11.026607
_cell_angle_alpha	100.365127
_cell_angle_beta	83.619819
_cell_angle_gamma	88.682491
loop_
_atom_site_label
_atom_site_type_symbol
_atom_site_fract_x
_atom_site_fract_y
_atom_site_fract_z
O1	O	1.576898	0.422582	-0.076164
O2	O	1.236614	0.352761	-0.108076
O3	O	1.378555	0.381880	0.083489
O4	O	1.434957	0.393462	-0.267728
O5	O	1.430472	0.194493	0.041651
O6	O	1.288532	0.165374	-0.149913
O7	O	1.628815	0.235195	-0.118001
Cu8	Cu	1.463414	0.183174	-0.137777
Cu9	Cu	1.402015	0.404781	-0.088300
O10	O	1.486875	0.206075	-0.309566
C11	C	1.218332	0.249990	-0.129834
C12	C	1.086506	0.222941	-0.132319
N13	N	1.506607	0.027310	-0.172577
C14	C	1.000839	0.307954	-0.111754
C15	C	0.864588	0.279999	-0.114323
C16	C	1.255063	-0.398331	0.030083
C17	C	1.222364	-0.280389	0.056414
C18	C	1.293421	-0.203459	-0.000831
C19	C	1.397185	-0.244481	-0.084413
C20	C	1.429894	-0.362434	-0.110740
C21	C	1.468252	-0.167562	-0.141654
C22	C	1.572015	-0.208585	-0.225236
C23	C	1.604718	-0.326526	-0.251559
C24	C	1.533660	-0.403456	-0.194313
C25	C	1.435543	-0.049609	-0.115327
C26	C	1.610373	-0.013713	-0.256150
C27	C	1.643073	-0.131655	-0.282482
C28	C	1.647096	0.337968	-0.096243
C29	C	1.778921	0.365024	-0.093755
C30	C	1.394107	0.286053	0.107396
C31	C	1.363087	0.279692	0.240962
N32	N	1.358830	0.560647	-0.053491
C33	C	1.471321	0.301905	-0.333472
C34	C	1.502340	0.308273	-0.467037
C35	C	1.448737	0.297268	0.317939
C36	C	1.416677	0.290694	0.455987
H37	H	1.028366	0.401431	-0.092253
C38	C	0.816080	0.491316	-0.067401
H39	H	0.744664	0.541026	-0.054841
H40	H	0.857208	0.504182	0.004940
H41	H	0.869279	0.506658	-0.136064
H42	H	1.545801	0.317177	0.281639
H43	H	1.599385	0.328275	0.496691
C44	C	0.827436	0.153714	-0.140855
H45	H	0.740740	0.151493	-0.139169
H46	H	0.865393	0.117229	-0.220374
H47	H	0.853241	0.114516	-0.079419
C48	C	1.049347	0.096661	-0.158850
H49	H	0.962651	0.094441	-0.157164
H50	H	1.087304	0.060177	-0.238368
H51	H	1.075151	0.057464	-0.097414
H52	H	1.197226	-0.460975	0.076691
C53	C	1.108229	-0.235271	0.148338
H54	H	1.070586	-0.297978	0.178652
H55	H	1.132054	-0.181741	0.215784
H56	H	1.051613	-0.198274	0.107276
H57	H	1.351058	-0.016221	-0.047276
C58	C	1.257445	-0.073727	0.028121
H59	H	1.185464	-0.060314	0.086088
H60	H	1.322549	-0.032142	0.062314
H61	H	1.242096	-0.048692	-0.046184
C62	C	1.231962	0.252789	0.289986
H63	H	1.227618	0.251892	0.376338
H64	H	1.175581	0.310278	0.276521
H65	H	1.211798	0.179579	0.247351
C66	C	1.569637	-0.533192	-0.223264
H67	H	1.512458	-0.573127	-0.177194
H68	H	1.569107	-0.561517	-0.309471
H69	H	1.649542	-0.544972	-0.200958
H70	H	1.689217	-0.359920	-0.319605
C71	C	1.688540	0.070898	-0.319127
H72	H	1.654193	0.147015	-0.291487
H73	H	1.770039	0.067212	-0.298124
H74	H	1.689589	0.050678	-0.406625
H75	H	1.727560	-0.165073	-0.350535
C76	C	1.285546	0.263790	0.505005
H77	H	1.281203	0.262893	0.591357
H78	H	1.229165	0.321279	0.491540
H79	H	1.265382	0.190580	0.462370
