data_functionalizedCrystal
_audit_creation_method	'MofGen! by Chris Wilmer'
_symmetry_space_group_name_H-M	'P1'
_symmetry_Int_Tables_number	1
_symmetry_cell_setting	triclinic
loop_
_symmetry_equiv_pos_as_xyz
  x,y,z
_cell_length_a	19.188929
_cell_length_b	19.188928
_cell_length_c	12.503552
_cell_angle_alpha	86.472133
_cell_angle_beta	93.485982
_cell_angle_gamma	83.144291
loop_
_atom_site_label
_atom_site_type_symbol
_atom_site_fract_x
_atom_site_fract_y
_atom_site_fract_z
O1	O	-0.083090	-0.930210	0.089787
O2	O	-0.094830	-0.726895	0.089705
O3	O	0.012693	-0.834417	0.089682
O4	O	-0.190613	-0.822688	0.089810
O5	O	0.004599	-0.826321	-0.088959
O6	O	-0.102923	-0.718799	-0.088936
O7	O	-0.091184	-0.922115	-0.088854
Cu8	Cu	-0.097793	-0.819718	-0.105206
Cu9	Cu	-0.088221	-0.829292	0.106057
O10	O	-0.198706	-0.814593	-0.088831
C11	C	-0.098497	-0.696836	0.000373
C12	C	-0.097359	-0.619329	0.000338
C13	C	-0.160448	-0.574408	0.000391
C14	C	-0.159376	-0.501584	0.000397
C15	C	-0.095212	-0.473686	0.000371
C16	C	-0.032115	-0.518618	0.000311
C17	C	-0.033189	-0.591439	0.000295
N18	N	-0.043411	-0.368462	0.061174
N19	N	-0.042395	-0.299284	0.061192
C20	C	-0.091973	-0.254280	0.000418
N21	N	-0.142616	-0.281066	-0.060361
N22	N	-0.143633	-0.350250	-0.060374
C23	C	-0.094041	-0.394725	0.000388
C24	C	-0.153905	-0.130394	0.000476
C25	C	-0.152831	-0.057569	0.000475
C26	C	-0.025568	-0.074604	0.000400
C27	C	-0.026644	-0.147427	0.000390
C28	C	-0.090814	-0.175317	0.000433
C29	C	-0.220670	-0.819021	0.000507
C30	C	-0.298172	-0.820164	0.000558
C31	C	-0.343099	-0.757071	0.000511
C32	C	-0.415923	-0.758142	0.000487
C33	C	-0.443819	-0.822308	0.000489
C34	C	-0.398883	-0.885410	0.000542
C35	C	-0.326059	-0.884338	0.000577
N36	N	-0.554544	-0.868598	-0.060354
N37	N	-0.623724	-0.869612	-0.060389
C38	C	-0.663233	-0.825542	0.000387
N39	N	-0.630950	-0.780408	0.061187
N40	N	-0.561763	-0.779392	0.061217
C41	C	-0.522784	-0.823478	0.000452
C42	C	-0.787125	-0.763605	0.000316
C43	C	-0.859950	-0.764679	0.000298
C44	C	-0.842908	-0.891948	0.000343
C45	C	-0.770084	-0.890873	0.000371
C46	C	-0.742197	-0.826700	0.000352
C47	C	0.034656	-0.829988	0.000346
C48	C	0.112159	-0.828846	0.000302
N49	N	-0.104524	-0.812989	-0.253798
C50	C	-0.087519	0.047827	0.000462
C51	C	-0.088666	-0.029676	0.000447
C52	C	-0.071579	-0.845921	-0.526238
C53	C	-0.114426	-0.803097	-0.472905
C54	C	-0.108915	-0.808602	-0.350982
C55	C	-0.077090	-0.840416	-0.648171
N56	N	-0.081484	-0.836026	0.254648
H57	H	-0.212700	-0.597111	0.000429
Br58	Br	0.058982	-0.208397	0.000320
H59	H	0.026680	-0.051894	0.000445
H60	H	-0.155248	-0.762300	-0.518812
H61	H	-0.210753	-0.465002	0.000437
H62	H	-0.733504	-0.942250	0.000402
Br63	Br	-0.880758	-0.979033	0.000361
H64	H	-0.030761	-0.886716	-0.480336
Br65	Br	-0.749273	-0.676515	0.000293
Br66	Br	0.052439	-0.652408	0.000220
H67	H	-0.206157	-0.153102	0.000495
Br68	Br	0.054966	-0.480758	0.000264
H69	H	-0.320398	-0.704817	0.000505
Br70	Br	-0.238460	0.003400	0.000538
Br71	Br	-0.436739	-0.972494	0.000556
Br72	Br	-0.476907	-0.672510	0.000421
H73	H	-0.289479	-0.935718	0.000616
H74	H	-0.896529	-0.713299	0.000267
