data_functionalizedCrystal
_audit_creation_method	'MofGen! by Chris Wilmer'
_symmetry_space_group_name_H-M	'P1'
_symmetry_Int_Tables_number	1
_symmetry_cell_setting	triclinic
loop_
_symmetry_equiv_pos_as_xyz
  x,y,z
_cell_length_a	13.032831
_cell_length_b	16.959454
_cell_length_c	13.033252
_cell_angle_alpha	97.186168
_cell_angle_beta	105.168978
_cell_angle_gamma	82.825094
loop_
_atom_site_label
_atom_site_type_symbol
_atom_site_fract_x
_atom_site_fract_y
_atom_site_fract_z
Zn1	Zn	1.699968	-0.400936	0.806446
Zn2	Zn	2.199968	0.099064	1.306446
Zn3	Zn	1.677320	-0.547967	0.628831
Zn4	Zn	2.177320	-0.047967	1.128831
Zn5	Zn	1.499823	-0.400887	0.606334
Zn6	Zn	1.999823	0.099113	1.106334
Zn7	Zn	1.522313	-0.518148	0.783877
Zn8	Zn	2.022313	-0.018148	1.283877
O9	O	1.599856	-0.466984	0.706372
O10	O	2.099856	0.033016	1.206372
O11	O	1.845596	-0.432940	0.801745
O12	O	2.345596	0.067060	1.301745
O13	O	1.634885	-0.540916	0.477211
O14	O	2.134885	-0.040916	0.977211
O15	O	1.526439	-0.290286	0.632910
O16	O	2.026439	0.209714	1.132910
O17	O	1.828957	-0.540963	0.671252
O18	O	2.328957	-0.040963	1.171252
O19	O	1.673485	-0.290322	0.779931
O20	O	2.173485	0.209678	1.279931
O21	O	1.504479	-0.432857	0.460683
O22	O	2.004479	0.067143	0.960683
O23	O	1.354174	-0.403942	0.611026
O24	O	1.854174	0.096058	1.111026
O25	O	1.564769	-0.490140	0.935506
O26	O	2.064769	0.009860	1.435506
O27	O	1.370697	-0.490093	0.741466
O28	O	1.870697	0.009907	1.241466
O29	O	1.695292	-0.404025	0.952088
O30	O	2.195292	0.095975	1.452088
O31	O	1.656692	-0.654619	0.649368
O32	O	2.156692	-0.154619	1.149368
O33	O	1.542808	-0.632711	0.763280
O34	O	2.042808	-0.132711	1.263280
C35	C	1.323897	-0.443777	0.671356
C36	C	1.823897	0.056223	1.171356
C37	C	1.205843	-0.433865	0.656402
C38	C	1.705843	0.066135	1.156402
C39	C	1.161402	-0.472157	0.714177
C40	C	1.661402	0.027843	1.214177
C41	C	1.039388	-0.461914	0.698722
C42	C	1.539388	0.038086	1.198722
C43	C	1.599765	-0.672345	0.706343
C44	C	2.099765	-0.172345	1.206343
C45	C	1.599827	-0.760204	0.706378
C46	C	2.099827	-0.260204	1.206378
C47	C	1.540655	-1.120314	0.765691
C48	C	2.040655	-0.620314	1.265691
C49	C	1.659367	-1.143067	0.647198
C50	C	2.159367	-0.643067	1.147198
C51	C	1.659329	-1.060519	0.647184
C52	C	2.159329	-0.560519	1.147184
C53	C	1.599951	-1.007864	0.706423
C54	C	2.099951	-0.507864	1.206423
C55	C	1.540612	-1.037758	0.765676
C56	C	2.040612	-0.537758	1.265676
C57	C	1.718659	-1.030620	0.587923
C58	C	2.218659	-0.530620	1.087923
C59	C	1.718622	-0.948067	0.587905
C60	C	2.218622	-0.448067	1.087905
C61	C	1.659249	-0.895410	0.647151
C62	C	2.159249	-0.395410	1.147151
C63	C	1.599909	-0.925308	0.706408
C64	C	2.099909	-0.425308	1.206408
C65	C	1.540531	-0.872653	0.765647
C66	C	2.040531	-0.372653	1.265647
C67	C	1.481195	-0.902550	0.824910
C68	C	1.981195	-0.402550	1.324910
C69	C	1.481239	-0.985101	0.824922
C70	C	1.981239	-0.485101	1.324922
C71	C	1.659205	-0.812859	0.647139
C72	C	2.159205	-0.312859	1.147139
C73	C	1.540488	-0.790097	0.765631
C74	C	2.040488	-0.290097	1.265631
C75	C	1.876893	-0.490283	0.741525
C76	C	2.376893	0.009717	1.241525
C77	C	1.994950	-0.500212	0.756505
C78	C	2.494950	-0.000212	1.256505
C79	C	1.635065	-0.443761	0.983414
C80	C	2.135065	0.056239	1.483414
C81	C	1.650069	-0.433865	1.101473
C82	C	2.150069	0.066135	1.601473
C83	C	1.599980	-0.260823	0.706428
C84	C	2.099980	0.239177	1.206428
C85	C	1.600032	-0.172969	0.706452
C86	C	2.100032	0.327031	1.206452
C87	C	1.592178	-0.472061	1.145903
C88	C	2.092178	0.027939	1.645903
C89	C	1.607684	-0.461834	1.267923
C90	C	2.107684	0.038166	1.767923
C91	C	1.564779	-0.490135	1.430407
C92	C	2.064779	0.009865	1.930407
C93	C	1.549785	-0.500035	1.312349
C94	C	2.049785	-0.000035	1.812349
H95	H	1.153561	-0.393495	0.595501
H96	H	1.653561	0.106505	1.095501
H97	H	1.531140	-0.512337	1.093607
H98	H	2.031140	-0.012337	1.593607
H99	H	1.711114	-0.393596	1.153770
H100	H	2.211114	0.106404	1.653770
C101	C	1.475173	-0.732183	0.830797
C102	C	1.975173	-0.232183	1.330797
H103	H	1.439840	-0.761813	0.866086
H104	H	1.939840	-0.261813	1.366086
H105	H	1.521633	-0.699476	0.882251
H106	H	2.021633	-0.199476	1.382251
H107	H	1.423733	-0.699537	0.784248
H108	H	1.923733	-0.199537	1.284248
C109	C	1.415885	-0.844628	0.890073
C110	C	1.915885	-0.344628	1.390073
H111	H	1.380549	-0.874252	0.925368
H112	H	1.880549	-0.374252	1.425368
H113	H	1.462350	-0.811921	0.941522
H114	H	1.962350	-0.311921	1.441522
H115	H	1.364448	-0.811983	0.843521
H116	H	1.864448	-0.311983	1.343521
H117	H	1.432930	-1.009451	0.873170
H118	H	1.932930	-0.509451	1.373170
C119	C	1.065559	-0.554747	0.838793
C120	C	1.565559	-0.054747	1.338793
H121	H	1.021853	-0.577438	0.873041
H122	H	1.521853	-0.077438	1.373041
H123	H	1.103642	-0.596158	0.803528
H124	H	1.603642	-0.096158	1.303528
H125	H	1.114735	-0.524281	0.890592
H126	H	1.614735	-0.024281	1.390592
C127	C	1.467312	-0.554443	1.241722
C128	C	1.967312	-0.054443	1.741722
H129	H	1.433008	-0.577083	1.285422
H130	H	1.933008	-0.077083	1.785422
H131	H	1.415593	-0.523917	1.192584
H132	H	1.915593	-0.023917	1.692584
H133	H	1.502465	-0.595906	1.203598
H134	H	2.002465	-0.095906	1.703598
H135	H	1.492348	-1.144659	0.813946
H136	H	1.992348	-0.644659	1.313946
C137	C	1.724683	-1.200984	0.582048
C138	C	2.224683	-0.700984	1.082048
H139	H	1.716216	-1.254430	0.590550
H140	H	2.216216	-0.754430	1.090550
H141	H	1.700130	-1.192161	0.508701
H142	H	2.200130	-0.692161	1.008701
H143	H	1.798015	-1.192102	0.606719
H144	H	2.298015	-0.692102	1.106719
H145	H	1.766992	-1.073497	0.539685
H146	H	2.266992	-0.573497	1.039685
C147	C	1.783897	-0.915187	0.522731
C148	C	2.283897	-0.415187	1.022731
H149	H	1.819272	-0.958370	0.487460
H150	H	2.319272	-0.458370	0.987460
H151	H	1.737411	-0.883480	0.471263
H152	H	2.237411	-0.383480	0.971263
H153	H	1.835302	-0.883435	0.569275
H154	H	2.335302	-0.383435	1.069275
C155	C	1.724466	-0.779975	0.581959
C156	C	2.224466	-0.279975	1.081959
H157	H	1.759836	-0.823157	0.546683
H158	H	2.259836	-0.323157	1.046683
H159	H	1.677972	-0.748268	0.530494
H160	H	2.177972	-0.248268	1.030494
H161	H	1.775872	-0.748221	0.628496
H162	H	2.275872	-0.248221	1.128496
H163	H	1.213685	-0.512521	0.775086
H164	H	1.713685	-0.012521	1.275086
H165	H	1.668734	-0.421562	1.320216
H166	H	2.168734	0.078438	1.820216
H167	H	0.987109	-0.421542	0.637817
H168	H	1.487109	0.078458	1.137817
