data_functionalizedCrystal
_audit_creation_method	'MofGen! by Chris Wilmer'
_symmetry_space_group_name_H-M	'P1'
_symmetry_Int_Tables_number	1
_symmetry_cell_setting	triclinic
loop_
_symmetry_equiv_pos_as_xyz
  x,y,z
_cell_length_a	16.120484
_cell_length_b	16.625548
_cell_length_c	16.625539
_cell_angle_alpha	90.022345
_cell_angle_beta	92.868615
_cell_angle_gamma	87.074492
loop_
_atom_site_label
_atom_site_type_symbol
_atom_site_fract_x
_atom_site_fract_y
_atom_site_fract_z
Zn1	Zn	-0.331909	-1.216387	-0.472206
Zn2	Zn	-0.081909	-0.966387	-0.222206
Zn3	Zn	0.168091	-0.716387	0.027794
Zn4	Zn	0.418091	-0.466387	0.277794
Zn5	Zn	-0.471333	-1.209445	-0.344203
Zn6	Zn	-0.221333	-0.959445	-0.094203
Zn7	Zn	0.028667	-0.709445	0.155797
Zn8	Zn	0.278667	-0.459445	0.405797
Zn9	Zn	-0.331938	-1.081547	-0.337384
Zn10	Zn	-0.081938	-0.831547	-0.087384
Zn11	Zn	0.168062	-0.581547	0.162616
Zn12	Zn	0.418062	-0.331547	0.412616
Zn13	Zn	-0.471282	-1.074677	-0.478986
Zn14	Zn	-0.221282	-0.824677	-0.228986
Zn15	Zn	0.028718	-0.574677	0.021014
Zn16	Zn	0.278718	-0.324677	0.271014
O17	O	-0.401616	-1.145514	-0.408194
O18	O	-0.151616	-0.895514	-0.158194
O19	O	0.098384	-0.645514	0.091806
O20	O	0.348384	-0.395514	0.341806
O21	O	-0.350413	-1.328298	-0.455242
O22	O	-0.100413	-1.078298	-0.205242
O23	O	0.149587	-0.828298	0.044758
O24	O	0.399587	-0.578298	0.294758
O25	O	-0.452875	-1.192450	-0.230467
O26	O	-0.202875	-0.942450	0.019533
O27	O	0.047125	-0.692450	0.269533
O28	O	0.297125	-0.442450	0.519533
O29	O	-0.215268	-1.105214	-0.349577
O30	O	0.034732	-0.855214	-0.099577
O31	O	0.284732	-0.605214	0.150423
O32	O	0.534732	-0.355214	0.400423
O33	O	-0.452848	-1.323198	-0.361199
O34	O	-0.202848	-1.073198	-0.111199
O35	O	0.047152	-0.823198	0.138801
O36	O	0.297152	-0.573198	0.388801
O37	O	-0.215247	-1.204280	-0.448630
O38	O	0.034753	-0.954280	-0.198630
O39	O	0.284753	-0.704280	0.051370
O40	O	0.534753	-0.454280	0.301370
O41	O	-0.350462	-1.098483	-0.225457
O42	O	-0.100462	-0.848483	0.024543
O43	O	0.149538	-0.598483	0.274543
O44	O	0.399538	-0.348483	0.524543
O45	O	-0.350413	-0.967804	-0.356151
O46	O	-0.100413	-0.717804	-0.106151
O47	O	0.149587	-0.467804	0.143849
O48	O	0.399587	-0.217804	0.393849
O49	O	-0.452761	-1.093505	-0.590917
O50	O	-0.202761	-0.843505	-0.340917
O51	O	0.047239	-0.593505	-0.090917
O52	O	0.297239	-0.343505	0.159083
O53	O	-0.452789	-0.962756	-0.460186
O54	O	-0.202789	-0.712756	-0.210186
O55	O	0.047211	-0.462756	0.039814
O56	O	0.297211	-0.212756	0.289814
O57	O	-0.350364	-1.197618	-0.585936
O58	O	-0.100364	-0.947618	-0.335936
O59	O	0.149636	-0.697618	-0.085936
O60	O	0.399636	-0.447618	0.164064
O61	O	-0.587992	-1.185788	-0.367773
O62	O	-0.337992	-0.935788	-0.117773
O63	O	-0.087992	-0.685788	0.132227
O64	O	0.162008	-0.435788	0.382227
O65	O	-0.587955	-1.086774	-0.466798
O66	O	-0.337955	-0.836774	-0.216798
O67	O	-0.087955	-0.586774	0.033202
O68	O	0.162045	-0.336774	0.283202
C69	C	-0.401599	-0.936024	-0.408165
C70	C	-0.151599	-0.686024	-0.158165
C71	C	0.098401	-0.436024	0.091835
C72	C	0.348401	-0.186024	0.341835
C73	C	-0.401612	-0.846402	-0.408172
C74	C	-0.151612	-0.596402	-0.158172
C75	C	0.098388	-0.346402	0.091828
C76	C	0.348388	-0.096402	0.341828
C77	C	-0.401610	-0.518227	-0.408196
C78	C	-0.151610	-0.268227	-0.158196
C79	C	0.098390	-0.018227	0.091804
C80	C	0.348390	0.231773	0.341804
C81	C	-0.401609	-0.609535	-0.408187
C82	C	-0.151609	-0.359535	-0.158187
C83	C	0.098391	-0.109535	0.091813
C84	C	0.348391	0.140465	0.341813
C85	C	-0.401612	-0.682312	-0.408183
C86	C	-0.151612	-0.432312	-0.158183
C87	C	0.098388	-0.182312	0.091817
C88	C	0.348388	0.067688	0.341817
C89	C	-0.401609	-0.773626	-0.408175
C90	C	-0.151609	-0.523626	-0.158175
C91	C	0.098391	-0.273626	0.091825
C92	C	0.348391	-0.023626	0.341825
C93	C	-0.618224	-1.134804	-0.418779
C94	C	-0.368224	-0.884804	-0.168779
C95	C	-0.118224	-0.634804	0.081221
C96	C	0.131776	-0.384804	0.331221
C97	C	-0.710890	-1.130296	-0.423334
C98	C	-0.460890	-0.880296	-0.173334
C99	C	-0.210890	-0.630296	0.076666
C100	C	0.039110	-0.380296	0.326666
C101	C	-0.880551	-1.122071	-0.431666
C102	C	-0.630551	-0.872071	-0.181666
C103	C	-0.380551	-0.622071	0.068334
C104	C	-0.130551	-0.372071	0.318334
C105	C	-0.921839	-1.169102	-0.384736
C106	C	-0.671839	-0.919102	-0.134736
C107	C	-0.421839	-0.669102	0.115264
C108	C	-0.171839	-0.419102	0.365264
C109	C	-1.016245	-1.164525	-0.389372
C110	C	-0.766245	-0.914525	-0.139372
C111	C	-0.516245	-0.664525	0.110628
C112	C	-0.266245	-0.414525	0.360628
C113	C	-0.786137	-1.126646	-0.427031
C114	C	-0.536137	-0.876646	-0.177031
C115	C	-0.286137	-0.626646	0.072969
C116	C	-0.036137	-0.376646	0.322969
C117	C	-0.184162	-1.156288	-0.397587
C118	C	0.065838	-0.906288	-0.147587
C119	C	0.315838	-0.656288	0.102413
C120	C	0.565838	-0.406288	0.352413
C121	C	-0.091496	-1.160879	-0.393066
C122	C	0.158504	-0.910879	-0.143066
C123	C	0.408504	-0.660879	0.106934
C124	C	0.658504	-0.410879	0.356934
C125	C	-0.401554	-1.145569	-0.618500
C126	C	-0.151554	-0.895569	-0.368500
C127	C	0.098446	-0.645569	-0.118500
C128	C	0.348446	-0.395569	0.131500
C129	C	-0.401527	-1.145593	-0.708120
C130	C	-0.151527	-0.895593	-0.458120
C131	C	0.098473	-0.645593	-0.208120
C132	C	0.348473	-0.395593	0.041880
C133	C	-0.401627	-0.355822	-0.408217
C134	C	-0.151627	-0.105822	-0.158217
C135	C	0.098373	0.144178	0.091783
C136	C	0.348373	0.394178	0.341783
C137	C	-0.401618	-0.445444	-0.408206
C138	C	-0.151618	-0.195444	-0.158206
C139	C	0.098382	0.054556	0.091794
C140	C	0.348382	0.304556	0.341794
C141	C	-0.401434	-1.145635	-1.036292
C142	C	-0.151434	-0.895635	-0.786292
C143	C	0.098566	-0.645635	-0.536292
C144	C	0.348566	-0.395635	-0.286292
C145	C	-0.401462	-1.145621	-0.944984
C146	C	-0.151462	-0.895621	-0.694984
C147	C	0.098538	-0.645621	-0.444984
C148	C	0.348538	-0.395621	-0.194984
C149	C	-0.401481	-1.145614	-0.872209
C150	C	-0.151481	-0.895614	-0.622209
C151	C	0.098519	-0.645614	-0.372209
C152	C	0.348519	-0.395614	-0.122209
C153	C	-0.401508	-1.145600	-0.780896
C154	C	-0.151508	-0.895600	-0.530896
C155	C	0.098492	-0.645600	-0.280896
C156	C	0.348492	-0.395600	-0.030896
C157	C	-0.401617	-1.145508	-0.198704
C158	C	-0.151617	-0.895508	0.051296
C159	C	0.098383	-0.645508	0.301296
C160	C	0.348383	-0.395508	0.551296
C161	C	-0.401409	-1.145652	-0.109073
C162	C	-0.151409	-0.895652	0.140927
C163	C	0.098591	-0.645652	0.390927
C164	C	0.348591	-0.395652	0.640927
H165	H	-0.916102	-1.078371	-0.475323
H166	H	-0.666102	-0.828371	-0.225323
H167	H	-0.416102	-0.578371	0.024677
H168	H	-0.166102	-0.328371	0.274677
H169	H	-0.886286	-1.212803	-0.341075
H170	H	-0.636286	-0.962803	-0.091075
H171	H	-0.386286	-0.712803	0.158925
H172	H	-0.136286	-0.462803	0.408925
