data_functionalizedCrystal
_audit_creation_method	'MofGen! by Chris Wilmer'
_symmetry_space_group_name_H-M	'P1'
_symmetry_Int_Tables_number	1
_symmetry_cell_setting	triclinic
loop_
_symmetry_equiv_pos_as_xyz
  x,y,z
_cell_length_a	10.908937
_cell_length_b	11.792254
_cell_length_c	10.065908
_cell_angle_alpha	98.850436
_cell_angle_beta	83.441031
_cell_angle_gamma	72.142277
loop_
_atom_site_label
_atom_site_type_symbol
_atom_site_fract_x
_atom_site_fract_y
_atom_site_fract_z
O1	O	1.721265	-0.195259	-0.113531
O2	O	2.221265	0.304741	0.386469
O3	O	1.348025	-0.106749	-0.113526
O4	O	1.848025	0.393251	0.386474
O5	O	1.543693	-0.317929	-0.113519
O6	O	2.043693	0.182071	0.386481
O7	O	1.525598	0.015921	-0.113538
O8	O	2.025598	0.515921	0.386462
O9	O	1.506380	-0.277524	0.113468
O10	O	2.006380	0.222476	0.613468
O11	O	1.310712	-0.066344	0.113462
O12	O	1.810712	0.433656	0.613462
O13	O	1.683953	-0.154854	0.113456
O14	O	2.183953	0.345146	0.613456
Zn15	Zn	1.491408	-0.104184	0.149498
Zn16	Zn	1.991408	0.395816	0.649498
Zn17	Zn	1.540569	-0.157419	-0.149568
Zn18	Zn	2.040569	0.342581	0.350432
O19	O	1.488285	0.056326	0.113449
O20	O	1.988285	0.556326	0.613449
C21	C	1.281585	-0.078275	-0.000031
C22	C	1.781585	0.421725	0.499969
C23	C	1.139206	-0.053642	-0.000029
C24	C	1.639206	0.446358	0.499971
C25	C	0.942416	-0.118080	-0.000050
C26	C	1.442416	0.381920	0.499950
C27	C	1.089569	-0.143538	-0.000032
C28	C	1.589569	0.356462	0.499968
C29	C	1.523896	-0.339796	-0.000026
C30	C	2.023896	0.160204	0.499974
C31	C	1.520484	-0.465147	-0.000027
C32	C	2.020484	0.034853	0.499973
C33	C	1.517712	-0.566946	-0.000032
C34	C	2.017712	-0.066946	0.499968
C35	C	1.514247	-0.694661	-0.000044
C36	C	2.014247	-0.194661	0.499956
C37	C	1.750393	-0.183329	-0.000041
C38	C	2.250393	0.316671	0.499959
C39	C	1.892773	-0.207964	-0.000052
C40	C	2.392773	0.292036	0.499948
C41	C	1.508082	0.078192	-0.000047
C42	C	2.008082	0.578192	0.499953
C43	C	1.511495	0.203541	-0.000055
C44	C	2.011495	0.703541	0.499945
N45	N	1.457867	-0.067855	0.353602
N46	N	1.957867	0.432145	0.853602
C47	C	1.528886	-0.144779	0.421384
C48	C	2.028886	0.355221	0.921384
C49	C	1.503081	-0.116813	0.578550
C50	C	2.003081	0.383187	1.078550
N51	N	1.574111	-0.193748	0.646328
N52	N	2.074111	0.306252	1.146328
H53	H	0.959216	-0.303766	-0.000049
H54	H	1.459216	0.196234	0.499951
H55	H	1.423165	-0.030248	0.636868
H56	H	1.923165	0.469752	1.136868
Cl57	Cl	1.697765	-0.327215	0.556300
Cl58	Cl	2.197765	0.172785	1.056300
Cl59	Cl	0.839848	0.029832	-0.000082
Cl60	Cl	1.339848	0.529832	0.499918
Cl61	Cl	1.334487	0.065790	0.443640
Cl62	Cl	1.834487	0.565790	0.943640
H63	H	1.608788	-0.231346	0.363062
H64	H	2.108788	0.268654	0.863062
H65	H	1.072771	0.042165	-0.000044
H66	H	1.572771	0.542165	0.499956
Cl67	Cl	1.192137	-0.291461	-0.000024
Cl68	Cl	1.692137	0.208539	0.499976
