data_functionalizedCrystal
_audit_creation_method	'MofGen! by Chris Wilmer'
_symmetry_space_group_name_H-M	'P1'
_symmetry_Int_Tables_number	1
_symmetry_cell_setting	triclinic
loop_
_symmetry_equiv_pos_as_xyz
  x,y,z
_cell_length_a	10.654550
_cell_length_b	14.472311
_cell_length_c	10.654551
_cell_angle_alpha	90.007895
_cell_angle_beta	84.485180
_cell_angle_gamma	90.000838
loop_
_atom_site_label
_atom_site_type_symbol
_atom_site_fract_x
_atom_site_fract_y
_atom_site_fract_z
O1	O	1.667840	0.076768	0.176408
O2	O	1.302362	0.076785	0.193214
O3	O	1.493503	0.076774	0.002072
O4	O	1.476699	0.076779	0.367550
O5	O	1.493490	-0.076908	0.002048
O6	O	1.302348	-0.076897	0.193190
O7	O	1.667827	-0.076914	0.176384
Cu8	Cu	1.485086	-0.090938	0.184785
Cu9	Cu	1.485102	0.090809	0.184813
O10	O	1.476685	-0.076903	0.367526
C11	C	1.255557	-0.000054	0.191968
C12	C	1.116114	-0.000048	0.188276
N13	N	1.485084	-0.218769	0.184764
C14	C	1.036629	-0.000049	0.300818
C15	C	0.905608	-0.000065	0.297341
C16	C	0.933570	-0.000075	0.068772
C17	C	1.064589	-0.000065	0.072249
C18	C	1.485104	-0.592860	0.184804
C19	C	1.587717	-0.553671	0.082875
C20	C	1.587444	-0.446583	0.082494
C21	C	1.485095	-0.407269	0.184784
C22	C	1.353814	-0.446154	0.155022
C23	C	1.354420	-0.553276	0.154300
C24	C	1.512593	-0.553365	0.316788
C25	C	1.515560	-0.446236	0.315931
C26	C	1.485082	-0.302381	0.184775
C27	C	1.485108	-0.697748	0.184810
C28	C	1.714632	-0.000073	0.177630
C29	C	1.854075	-0.000073	0.181322
C30	C	1.492262	-0.000066	-0.044738
C31	C	1.488570	-0.000061	-0.184181
N32	N	1.485114	0.218640	0.184824
C33	C	1.486844	0.083712	-0.249672
C34	C	1.483364	0.083713	-0.380692
C35	C	1.483341	-0.083840	-0.380721
C36	C	1.486812	-0.083840	-0.249702
C37	C	1.477926	-0.000062	0.414336
C38	C	1.481619	-0.000060	0.553779
H39	H	1.078576	-0.000041	0.395294
H40	H	1.481912	-0.152049	-0.434083
H41	H	1.445752	-0.419473	0.395423
H42	H	1.481956	0.151929	-0.434009
Br43	Br	0.863634	-0.000096	-0.088685
Br44	Br	0.797739	-0.000071	0.450083
H45	H	1.330366	-0.578271	0.058011
H46	H	1.488272	0.151930	-0.196329
H47	H	1.488210	-0.152062	-0.196377
Br48	Br	1.750859	-0.596593	0.112242
Br49	Br	1.312781	-0.401458	-0.003651
H50	H	1.569762	-0.420966	-0.015429
H51	H	1.129309	-0.000067	-0.019401
Br52	Br	1.750028	-0.402757	0.112337
H53	H	1.570286	-0.580602	-0.014491
H54	H	1.275709	-0.579200	0.225658
Br55	Br	1.668851	-0.598377	0.363987
Br56	Br	1.676529	-0.403870	0.353543
Br57	Br	1.223391	-0.403716	0.275382
H58	H	1.437779	-0.578712	0.392654
