data_functionalizedCrystal
_audit_creation_method	'MofGen! by Chris Wilmer'
_symmetry_space_group_name_H-M	'P1'
_symmetry_Int_Tables_number	1
_symmetry_cell_setting	triclinic
loop_
_symmetry_equiv_pos_as_xyz
  x,y,z
_cell_length_a	12.759401
_cell_length_b	12.759400
_cell_length_c	12.759393
_cell_angle_alpha	90.030447
_cell_angle_beta	90.018496
_cell_angle_gamma	90.013326
loop_
_atom_site_label
_atom_site_type_symbol
_atom_site_fract_x
_atom_site_fract_y
_atom_site_fract_z
Zn1	Zn	1.606267	-0.418200	0.593990
Zn2	Zn	1.606166	-0.593919	0.418313
Zn3	Zn	1.430569	-0.418255	0.418329
Zn4	Zn	1.430562	-0.593838	0.593955
O5	O	1.518391	-0.506053	0.506147
O6	O	1.753274	-0.441520	0.570694
O7	O	1.582833	-0.570673	0.271294
O8	O	1.453920	-0.271226	0.441652
O9	O	1.753200	-0.570620	0.441625
O10	O	1.583005	-0.271186	0.570709
O11	O	1.453822	-0.441614	0.271306
O12	O	1.283547	-0.441535	0.441618
O13	O	1.453909	-0.570482	0.740980
O14	O	1.283542	-0.570536	0.570649
O15	O	1.582998	-0.441442	0.741006
O16	O	1.582826	-0.740929	0.441591
O17	O	1.453811	-0.740870	0.570634
C18	C	1.245423	-0.506033	0.506132
C19	C	1.128647	-0.506050	0.506151
C20	C	1.073810	-0.573328	0.573227
C21	C	0.964086	-0.573342	0.573238
C22	C	0.964045	-0.438796	0.439089
C23	C	1.073767	-0.438778	0.439084
C24	C	1.073832	-0.651010	0.650673
C25	C	0.964108	-0.651024	0.650685
C26	C	1.518336	-0.779020	0.506130
C27	C	1.518408	-0.895797	0.506158
C28	C	1.585589	-0.950558	0.573413
C29	C	1.585638	-1.060282	0.573439
C30	C	1.451322	-1.060474	0.438945
C31	C	1.451269	-0.950752	0.438926
C32	C	1.652728	-0.895603	0.640645
C33	C	1.719915	-0.950364	0.707905
C34	C	1.719964	-1.060088	0.707931
C35	C	1.652826	-1.115051	0.640697
C36	C	1.792424	-0.506073	0.506161
C37	C	1.909201	-0.506082	0.506168
C38	C	1.518464	-0.505947	0.780180
C39	C	1.518496	-0.505902	0.896957
C40	C	1.518475	-0.232019	0.506186
C41	C	1.518510	-0.115243	0.506203
C42	C	1.518378	-0.506083	0.233179
C43	C	1.518550	-0.505832	0.116403
C44	C	1.585722	-0.438704	0.951834
C45	C	1.585747	-0.438666	1.061558
C46	C	1.451316	-0.573033	1.061518
C47	C	1.451287	-0.573064	0.951796
C48	C	1.663337	-0.361131	0.951858
C49	C	1.663362	-0.361093	1.061582
H50	H	0.919349	-0.384025	0.384487
O51	O	1.652679	-0.777259	0.640622
H52	H	1.673944	-0.748378	0.561390
O53	O	1.652864	-1.233397	0.640716
H54	H	1.674142	-1.262362	0.561490
H55	H	1.634247	-0.283784	1.095628
H56	H	1.744733	-0.382886	1.091361
O57	O	1.118898	-0.753339	0.611892
H58	H	1.167813	-0.738582	0.541508
O59	O	0.919061	-0.612554	0.753140
H60	H	0.870122	-0.542136	0.738601
H61	H	1.396662	-1.105233	0.384206
O62	O	1.765697	-0.399753	0.906769
H63	H	1.751002	-0.470173	0.857809
H64	H	1.774662	-1.104672	0.762705
O65	O	1.132918	-0.366228	0.366727
H66	H	1.076321	-0.319469	0.320082
O67	O	1.113332	-0.622254	0.758495
H68	H	1.045653	-0.608180	0.811285
O69	O	1.378726	-0.645487	0.892602
H70	H	1.331989	-0.692170	0.949171
O71	O	0.924627	-0.758768	0.621619
H72	H	0.992316	-0.811504	0.607370
H73	H	1.396563	-0.906165	0.384161
H74	H	1.774571	-0.905608	0.762651
O75	O	1.634504	-0.253358	0.912433
H76	H	1.562349	-0.258604	0.864099
O77	O	1.378829	-0.645471	1.120664
H78	H	1.390143	-0.634163	1.206181
