data_functionalizedCrystal
_audit_creation_method	'MofGen! by Chris Wilmer'
_symmetry_space_group_name_H-M	'P1'
_symmetry_Int_Tables_number	1
_symmetry_cell_setting	triclinic
loop_
_symmetry_equiv_pos_as_xyz
  x,y,z
_cell_length_a	10.723024
_cell_length_b	10.868271
_cell_length_c	10.723023
_cell_angle_alpha	90.000078
_cell_angle_beta	84.467709
_cell_angle_gamma	90.004063
loop_
_atom_site_label
_atom_site_type_symbol
_atom_site_fract_x
_atom_site_fract_y
_atom_site_fract_z
O1	O	1.657188	0.102310	0.175021
O2	O	1.294036	0.102314	0.191775
O3	O	1.483989	0.102308	0.001822
O4	O	1.467235	0.102316	0.364974
O5	O	1.483972	-0.102336	0.001828
O6	O	1.294019	-0.102330	0.191781
O7	O	1.657171	-0.102334	0.175027
Zn8	Zn	1.475592	-0.134824	0.183405
Zn9	Zn	1.475615	0.134804	0.183397
O10	O	1.467218	-0.102328	0.364980
C11	C	1.247528	-0.000008	0.190558
C12	C	1.108973	-0.000006	0.186911
C13	C	1.033991	-0.000003	0.293198
C14	C	0.890787	-0.000001	0.289431
N15	N	1.475586	-0.318838	0.183410
C16	C	1.475595	-0.430176	0.183410
C17	C	1.475612	-0.569853	0.183399
C18	C	1.703679	-0.000010	0.176243
C19	C	1.842234	-0.000003	0.179891
C20	C	1.482762	-0.000013	-0.044675
C21	C	1.479114	-0.000008	-0.183229
N22	N	1.475631	0.318818	0.183382
C23	C	1.477479	-0.106018	-0.245004
C24	C	1.473709	-0.106015	-0.388207
C25	C	1.468445	-0.000005	0.411477
C26	C	1.472093	-0.000001	0.550031
H27	H	1.478877	-0.196778	-0.191875
H28	H	1.067152	0.000023	0.093125
H29	H	0.906659	0.000002	0.088896
H30	H	1.075812	-0.000008	0.386984
O31	O	1.477664	0.108311	-0.246563
C32	C	1.584476	0.299009	-0.299775
C33	C	1.586299	0.176364	-0.228026
H34	H	1.672284	0.354076	-0.284792
H35	H	1.581806	0.279802	-0.404004
H36	H	1.497925	0.353985	-0.263574
H37	H	1.672838	0.121327	-0.264121
H38	H	1.588903	0.195658	-0.123807
H39	H	1.472295	-0.196774	-0.441331
O40	O	1.473569	0.108217	-0.386467
C41	C	1.369402	0.237547	-0.226209
C42	C	1.367616	0.114928	-0.298010
H43	H	1.283735	0.243024	-0.154694
H44	H	1.458113	0.243112	-0.175812
H45	H	1.367643	0.317327	-0.295041
H46	H	1.369329	0.035078	-0.229262
H47	H	1.278912	0.109470	-0.348427
H48	H	0.826354	0.000006	0.380421
