data_functionalizedCrystal
_audit_creation_method	'MofGen! by Chris Wilmer'
_symmetry_space_group_name_H-M	'P1'
_symmetry_Int_Tables_number	1
_symmetry_cell_setting	triclinic
loop_
_symmetry_equiv_pos_as_xyz
  x,y,z
_cell_length_a	14.395555
_cell_length_b	14.395555
_cell_length_c	17.917603
_cell_angle_alpha	63.036182
_cell_angle_beta	90.004294
_cell_angle_gamma	59.996935
loop_
_atom_site_label
_atom_site_type_symbol
_atom_site_fract_x
_atom_site_fract_y
_atom_site_fract_z
Zr1	Zr	0.900169	1.006161	-0.093837
O2	O	0.758292	1.187032	-0.208054
O3	O	0.943669	0.816323	-0.058822
O4	O	0.952104	0.993220	-0.208044
O5	O	0.743195	1.023470	0.058876
O6	O	1.104978	0.993214	-0.208038
O7	O	0.749857	1.010134	-0.058831
O8	O	1.089889	0.676777	0.058893
O9	O	0.758284	1.339907	-0.208055
O10	O	1.076300	0.897723	-0.043885
O11	O	0.957240	0.907680	0.043954
O12	O	0.967172	1.115954	-0.131736
O13	O	0.848112	1.125911	-0.043896
Zr14	Zr	1.133359	1.027420	0.093904
Zr15	Zr	1.143985	1.006152	-0.093827
Zr16	Zr	0.889543	1.027430	0.093894
Zr17	Zr	0.900155	1.249980	-0.093839
Zr18	Zr	1.133373	0.783602	0.093906
O19	O	1.089859	1.217259	0.058889
O20	O	1.104967	1.187018	-0.208039
O21	O	0.743184	1.217273	0.058875
O22	O	1.275236	0.846550	0.208121
O23	O	1.290344	0.816309	-0.058808
O24	O	0.928561	0.846564	0.208106
O25	O	1.290333	1.010112	-0.058809
O26	O	1.081424	1.040362	0.208111
O27	O	0.928550	1.040368	0.208105
O28	O	1.283671	1.023448	0.058898
O29	O	0.952085	1.339899	-0.208047
O30	O	1.081443	0.693683	0.208114
O31	O	1.275244	0.693675	0.208122
O32	O	1.283690	0.676769	0.058901
O33	O	0.749838	1.356813	-0.058834
O34	O	0.943639	1.356805	-0.058826
O35	O	1.066356	0.917628	0.131803
O36	O	1.185416	0.907671	0.043963
O37	O	1.076288	1.125902	-0.043887
O38	O	0.957228	1.135859	0.043952
C39	C	0.711787	1.016803	0.000021
C40	C	0.608281	1.016807	0.000017
C41	C	1.016781	0.711811	0.000036
C42	C	1.016787	0.608303	0.000037
C43	C	1.030055	0.990187	-0.234789
C44	C	1.034566	0.981158	-0.314485
C45	C	0.488190	1.135797	-0.047876
C46	C	0.459323	1.069669	-0.082583
C47	C	0.452726	1.082930	0.034717
C48	C	0.580780	0.950673	-0.034739
C49	C	0.574177	0.963957	0.082607
C50	C	0.545382	0.897740	0.047921
C51	C	1.321741	1.016779	0.000046
C52	C	1.425247	1.016774	0.000050
C53	C	1.081693	0.542295	-0.047865
C54	C	1.122100	0.413542	0.034733
C55	C	0.976386	0.552622	-0.082552
C56	C	1.057254	0.480856	0.082683
C57	C	0.911483	0.620004	-0.034661
C58	C	0.951860	0.491265	0.047986
C59	C	1.016747	1.321771	0.000031
C60	C	1.016742	1.425279	0.000030
C61	C	1.042829	0.964665	-0.460416
C62	C	0.990702	1.068912	-0.539519
C63	C	0.995300	1.059735	-0.620721
C64	C	1.038232	0.973839	-0.379206
C65	C	1.003473	1.043395	0.234856
C66	C	0.998963	1.052424	0.314552
C67	C	1.321758	0.711798	0.000048
C68	C	1.425269	0.608287	0.000053
C69	C	1.003490	0.738415	0.234858
C70	C	0.998985	0.643937	0.314555
C71	C	1.308467	0.738403	0.234870
C72	C	1.407468	0.643920	0.314572
C73	C	0.725061	1.295179	-0.234803
C74	C	0.626060	1.389662	-0.314505
C75	C	0.711771	1.321784	0.000019
C76	C	0.608259	1.425295	0.000013
C77	C	1.030038	1.295167	-0.234791
C78	C	1.034543	1.389645	-0.314488
C79	C	1.053826	0.604762	0.397846
C80	C	1.049589	0.516004	0.472737
C81	C	0.990516	0.466416	0.464336
C82	C	0.935668	0.505599	0.381036
C83	C	0.939899	0.594362	0.306147
C84	C	1.516118	0.594353	0.306149
C85	C	1.609150	0.505589	0.381030
C86	C	1.593529	0.466388	0.464333
C87	C	1.484868	0.515965	0.472754
C88	C	1.391838	0.604733	0.397874
C89	C	0.517410	1.439241	-0.306082
C90	C	0.424378	1.528035	-0.380963
C91	C	0.439999	1.567241	-0.464266
C92	C	0.548660	1.517658	-0.472687
C93	C	0.641690	1.428873	-0.397807
C94	C	1.093626	1.439206	-0.306059
C95	C	1.097881	1.527966	-0.380936
C96	C	1.043045	1.567171	-0.464241
C97	C	0.983960	1.517600	-0.472669
C98	C	0.979713	1.428835	-0.397793
C99	C	1.545358	0.553147	0.047930
C100	C	1.574263	0.418962	0.082622
C101	C	1.580800	0.558083	-0.034679
C102	C	1.452808	0.475408	0.034795
C103	C	1.459351	0.614597	-0.082552
C104	C	1.488184	0.480420	-0.047880
H105	H	0.409754	1.114341	-0.152415
H106	H	1.472165	0.484034	0.540589
H107	H	0.942620	1.165053	-0.546257
H108	H	0.887571	0.465211	0.374209
H109	H	1.568501	0.584814	0.088499
O110	O	0.639817	0.904846	0.175093
H111	H	0.717046	0.904577	0.174285
H112	H	0.504670	1.407324	-0.238260
O113	O	1.047626	1.662918	-0.544997
H114	H	0.961178	1.747063	-0.584544
H115	H	0.335910	1.568391	-0.374090
H116	H	0.364239	1.639536	-0.525231
H117	H	0.939315	1.549535	-0.540506
H118	H	1.303373	0.645080	0.404744
H119	H	1.528858	0.626256	0.238327
O120	O	0.880929	0.636429	0.216312
H121	H	0.839218	0.586956	0.223061
O122	O	1.102639	0.441804	0.175239
H123	H	1.049092	0.420773	0.215034
O124	O	1.379970	0.430239	0.073774
H125	H	1.303184	0.507931	0.073534
O126	O	1.457225	0.438585	-0.101562
H127	H	1.405003	0.403492	-0.072582
H128	H	0.896961	0.468837	0.088549
H129	H	1.623856	0.335228	0.152447
O130	O	0.565503	1.559940	-0.562536
H131	H	0.482554	1.629994	-0.613182
O132	O	0.758878	1.375382	-0.406895
H133	H	0.754099	1.417556	-0.477402
O134	O	1.152789	1.396916	-0.216212
H135	H	1.194597	1.446288	-0.222945
H136	H	1.145992	1.568318	-0.374057
H137	H	1.090903	0.868531	-0.453680
H138	H	0.931596	1.388492	-0.404668
O139	O	0.379651	1.157012	0.073576
H140	H	0.368516	1.094496	0.132458
O141	O	1.393645	0.725558	-0.175019
H142	H	1.445926	0.760735	-0.203683
H143	H	1.101930	0.645128	0.404703
H144	H	0.635806	0.894795	-0.064152
H145	H	0.568753	0.797038	0.088427
H146	H	1.136660	0.564792	-0.088304
H147	H	1.635933	0.591999	-0.064025
O148	O	1.108770	0.473730	0.562575
H149	H	1.150577	0.523107	0.555828
O150	O	1.726328	0.452170	0.371911
H151	H	1.771659	0.474495	0.403806
H152	H	0.465037	1.236407	-0.088439
O153	O	0.985965	0.370673	0.545117
H154	H	0.935671	0.342771	0.525290
H155	H	1.211136	0.325232	0.064082
H156	H	1.669290	0.394106	0.525298
H157	H	0.942237	0.581911	-0.152394
O158	O	0.793578	0.737019	-0.073558
H159	H	0.760237	0.767647	-0.142147
