data_functionalizedCrystal
_audit_creation_method	'MofGen! by Chris Wilmer'
_symmetry_space_group_name_H-M	'P1'
_symmetry_Int_Tables_number	1
_symmetry_cell_setting	triclinic
loop_
_symmetry_equiv_pos_as_xyz
  x,y,z
_cell_length_a	15.995350
_cell_length_b	15.021413
_cell_length_c	15.995280
_cell_angle_alpha	90.006418
_cell_angle_beta	96.522015
_cell_angle_gamma	90.003669
loop_
_atom_site_label
_atom_site_type_symbol
_atom_site_fract_x
_atom_site_fract_y
_atom_site_fract_z
O1	O	1.110963	0.073952	-0.107919
O2	O	1.610963	0.573952	0.392081
O3	O	0.867184	0.073970	-0.121247
O4	O	1.367184	0.573970	0.378753
O5	O	0.995768	0.073960	0.007309
O6	O	1.495768	0.573960	0.507309
O7	O	0.982379	0.073962	-0.236475
O8	O	1.482379	0.573962	0.263525
O9	O	0.995748	-0.074104	0.007290
O10	O	1.495748	0.425896	0.507290
O11	O	0.867164	-0.074095	-0.121265
O12	O	1.367164	0.425905	0.378735
O13	O	1.110942	-0.074112	-0.107937
O14	O	1.610942	0.425888	0.392063
Zn15	Zn	0.989050	-0.097612	-0.114604
Zn16	Zn	1.489050	0.402388	0.385396
Zn17	Zn	0.989077	0.097469	-0.114580
Zn18	Zn	1.489077	0.597469	0.385420
O19	O	0.982359	-0.074103	-0.236493
O20	O	1.482359	0.425897	0.263507
C21	C	0.835979	-0.000060	-0.120705
C22	C	1.335979	0.499940	0.379295
C23	C	0.743029	-0.000053	-0.119053
C24	C	1.243029	0.499947	0.380947
N25	N	0.989038	-0.230750	-0.114620
N26	N	1.489038	0.269250	0.385380
C27	C	0.405283	-0.000072	-0.113121
C28	C	0.905283	0.499928	0.386879
C29	C	0.452741	-0.000403	-0.021566
C30	C	0.952741	0.499597	0.478434
C31	C	0.549430	-0.000063	-0.023218
C32	C	1.049430	0.499937	0.476782
C33	C	0.572843	-0.000063	-0.116063
C34	C	1.072843	0.499937	0.383937
C35	C	0.531756	0.084486	-0.161211
C36	C	1.031756	0.584486	0.338789
C37	C	0.435121	0.084550	-0.158911
C38	C	0.935121	0.584550	0.341089
C39	C	0.434759	-0.083827	-0.160824
C40	C	0.934759	0.416173	0.339176
C41	C	0.531704	-0.084938	-0.160802
C42	C	1.031704	0.415062	0.339198
C43	C	0.667540	-0.000055	-0.117731
C44	C	1.167540	0.499945	0.382269
C45	C	0.310586	-0.000074	-0.111456
C46	C	0.810586	0.499926	0.388544
C47	C	0.929571	-0.470428	-0.174036
C48	C	1.429571	0.029572	0.325964
C49	C	1.005226	-0.529768	-0.190288
C50	C	1.505226	-0.029768	0.309712
C51	C	0.989059	-0.412356	-0.114599
C52	C	1.489059	0.087644	0.385401
C53	C	0.913425	-0.529758	-0.098366
C54	C	1.413425	-0.029758	0.401634
C55	C	0.989073	-0.587780	-0.114581
C56	C	1.489073	-0.087780	0.385419
C57	C	1.064752	-0.470390	-0.130889
C58	C	1.564752	0.029610	0.369111
C59	C	0.972901	-0.470375	-0.038934
C60	C	1.472901	0.029625	0.461066
C61	C	1.048610	-0.529688	-0.055154
C62	C	1.548610	-0.029688	0.444846
C63	C	0.989050	-0.311299	-0.114612
C64	C	1.489050	0.188701	0.385388
C65	C	0.989091	-0.688836	-0.114568
C66	C	1.489091	-0.188836	0.385432
C67	C	1.142147	-0.000081	-0.108479
C68	C	1.642147	0.499919	0.391521
C69	C	1.235097	-0.000082	-0.110131
C70	C	1.735097	0.499918	0.389869
C71	C	0.995215	-0.000071	0.038495
C72	C	1.495215	0.499929	0.538495
C73	C	0.993587	-0.000065	0.131449
C74	C	1.493587	0.499935	0.631449
N75	N	0.989096	0.230607	-0.114557
N76	N	1.489096	0.730607	0.385443
C77	C	0.987600	-0.000078	0.469189
C78	C	1.487600	0.499922	0.969189
C79	C	1.080403	-0.000415	0.445877
C80	C	1.580403	0.499585	0.945877
C81	C	1.082163	-0.000077	0.349201
C82	C	1.582163	0.499923	0.849201
C83	C	0.990571	-0.000072	0.301632
C84	C	1.490571	0.499928	0.801632
C85	C	0.944186	0.084480	0.330744
C86	C	1.444186	0.584480	0.830744
C87	C	0.943073	0.084546	0.427535
C88	C	1.443073	0.584546	0.927535
C89	C	0.941155	-0.083830	0.427371
C90	C	1.441155	0.416170	0.927371
C91	C	0.944589	-0.084943	0.330878
C92	C	1.444589	0.415057	0.830878
C93	C	0.992245	-0.000066	0.206936
C94	C	1.492245	0.499934	0.706936
C95	C	0.985924	-0.000078	0.563885
C96	C	1.485924	0.499922	1.063885
C97	C	0.982923	-0.000074	0.732322
C98	C	1.482923	0.499926	1.232322
C99	C	0.984584	-0.000085	0.639373
C100	C	1.484584	0.499915	1.139373
H101	H	0.577860	-0.060671	0.012271
H102	H	1.077860	0.439329	0.512271
Cl103	Cl	0.553562	0.089362	-0.266515
Cl104	Cl	1.053562	0.589362	0.233485
H105	H	0.975216	0.147748	0.454359
H106	H	1.475216	0.647748	0.954359
H107	H	1.128734	-0.444422	-0.144687
H108	H	1.628734	0.055578	0.355313
H109	H	1.118491	-0.060686	0.330168
H110	H	1.618491	0.439314	0.830168
Cl111	Cl	0.838023	0.090483	0.450005
Cl112	Cl	1.338023	0.590483	0.950005
Cl113	Cl	0.592442	0.093835	0.031726
Cl114	Cl	1.092442	0.593835	0.531726
Cl115	Cl	0.841368	-0.092823	0.279979
Cl116	Cl	1.341368	0.407177	0.779979
Cl117	Cl	0.814664	-0.570023	-0.077178
Cl118	Cl	1.314664	-0.070023	0.422822
Cl119	Cl	1.026348	-0.570048	-0.289067
Cl120	Cl	1.526348	-0.070048	0.210933
Cl121	Cl	1.135626	-0.094034	0.489090
Cl122	Cl	1.635626	0.405966	0.989090
Cl123	Cl	1.135343	0.092669	0.490686
Cl124	Cl	1.635343	0.592669	0.990686
H125	H	0.872844	-0.084397	0.441362
H126	H	1.372844	0.415603	0.941362
Cl127	Cl	0.406877	0.182128	-0.108054
Cl128	Cl	0.906877	0.682128	0.391946
Cl129	Cl	0.573774	-0.181509	-0.109835
Cl130	Cl	1.073774	0.318491	0.390165
Cl131	Cl	0.996727	-0.181521	0.302194
Cl132	Cl	1.496727	0.318479	0.802194
Cl133	Cl	0.385696	-0.084711	-0.265042
Cl134	Cl	0.885696	0.415289	0.234958
Cl135	Cl	0.424140	-0.094016	0.034927
Cl136	Cl	0.924140	0.405984	0.534927
Cl137	Cl	0.840127	0.089348	0.281540
Cl138	Cl	1.340127	0.589348	0.781540
H139	H	0.433164	0.059896	0.014870
H140	H	0.933164	0.559896	0.514870
Cl141	Cl	0.851981	-0.430249	-0.251699
Cl142	Cl	1.351981	0.069751	0.248301
Cl143	Cl	1.126371	-0.569616	0.022466
Cl144	Cl	1.626371	-0.069616	0.522466
H145	H	0.959198	-0.444266	0.025026
H146	H	1.459198	0.055734	0.525026
Cl147	Cl	0.555390	-0.092822	-0.265340
Cl148	Cl	1.055390	0.407178	0.234660
H149	H	1.118722	0.060635	0.330803
H150	H	1.618722	0.560635	0.830803
Cl151	Cl	0.985969	-0.182776	0.471049
Cl152	Cl	1.485969	0.317224	0.971049
H153	H	0.976414	0.147401	0.310691
H154	H	1.476414	0.647401	0.810691
H155	H	0.560147	0.147409	-0.129838
H156	H	1.060147	0.647409	0.370162
Cl157	Cl	0.403058	-0.182771	-0.114620
Cl158	Cl	0.903058	0.317229	0.385380
Cl159	Cl	0.385303	0.090476	-0.262686
Cl160	Cl	0.885303	0.590476	0.237314
