data_functionalizedCrystal
_audit_creation_method	'MofGen! by Chris Wilmer'
_symmetry_space_group_name_H-M	'P1'
_symmetry_Int_Tables_number	1
_symmetry_cell_setting	triclinic
loop_
_symmetry_equiv_pos_as_xyz
  x,y,z
_cell_length_a	11.169417
_cell_length_b	16.625546
_cell_length_c	11.169409
_cell_angle_alpha	89.961635
_cell_angle_beta	89.979747
_cell_angle_gamma	90.023717
loop_
_atom_site_label
_atom_site_type_symbol
_atom_site_fract_x
_atom_site_fract_y
_atom_site_fract_z
Zn1	Zn	1.834870	-0.320910	-0.678482
Zn2	Zn	2.334870	0.179090	-0.178482
Zn3	Zn	1.834714	-0.455772	-0.477778
Zn4	Zn	2.334714	0.044228	0.022222
Zn5	Zn	1.634153	-0.320960	-0.477817
Zn6	Zn	2.134153	0.179040	0.022183
Zn7	Zn	1.634121	-0.455707	-0.678424
Zn8	Zn	2.134121	0.044293	-0.178424
O9	O	1.734465	-0.388337	-0.578125
O10	O	2.234465	0.111663	-0.078125
O11	O	2.002799	-0.338806	-0.651866
O12	O	2.502799	0.161194	-0.151866
O13	O	1.808058	-0.437937	-0.309833
O14	O	2.308058	0.062063	0.190167
O15	O	1.660857	-0.208121	-0.504477
O16	O	2.160857	0.291879	-0.004477
O17	O	2.002685	-0.437888	-0.504409
O18	O	2.502685	0.062112	-0.004409
O19	O	1.808323	-0.208084	-0.651905
O20	O	2.308323	0.291916	-0.151905
O21	O	1.660706	-0.338891	-0.309862
O22	O	2.160706	0.161109	0.190138
O23	O	1.466199	-0.338828	-0.504421
O24	O	1.966199	0.161172	-0.004421
O25	O	1.660802	-0.437778	-0.846381
O26	O	2.160802	0.062222	-0.346381
O27	O	1.466175	-0.437826	-0.651805
O28	O	1.966175	0.062174	-0.151805
O29	O	1.808292	-0.338743	-0.846424
O30	O	2.308292	0.161257	-0.346424
O31	O	1.808026	-0.568596	-0.504353
O32	O	2.308026	-0.068596	-0.004353
O33	O	1.660651	-0.568548	-0.651766
O34	O	2.160651	-0.068548	-0.151766
C35	C	1.422640	-0.388326	-0.578111
C36	C	1.922640	0.111674	-0.078111
C37	C	1.289240	-0.388341	-0.578134
C38	C	1.789240	0.111659	-0.078134
C39	C	1.734351	-0.597828	-0.578075
C40	C	2.234351	-0.097828	-0.078075
C41	C	1.734412	-0.687449	-0.578094
C42	C	2.234412	-0.187449	-0.078094
C43	C	1.734622	-1.015625	-0.578219
C44	C	2.234622	-0.515625	-0.078219
C45	C	1.734559	-0.924316	-0.578187
C46	C	2.234559	-0.424316	-0.078187
C47	C	1.734516	-0.851540	-0.578155
C48	C	2.234516	-0.351540	-0.078155
C49	C	1.734456	-0.760226	-0.578125
C50	C	2.234456	-0.260226	-0.078125
C51	C	2.047507	-0.388349	-0.578140
C52	C	2.547507	0.111651	-0.078140
C53	C	2.180907	-0.388354	-0.578146
C54	C	2.680907	0.111646	-0.078146
C55	C	1.734561	-0.388248	-0.891168
C56	C	2.234561	0.111752	-0.391168
C57	C	1.734602	-0.388210	-1.024568
C58	C	2.234602	0.111790	-0.524568
C59	C	1.734611	-0.178028	-0.578202
C60	C	2.234611	0.321972	-0.078202
C61	C	1.734674	-0.088407	-0.578235
C62	C	2.234674	0.411593	-0.078235
C63	C	1.734438	-0.388368	-0.266300
C64	C	2.234438	0.111632	0.233700
C65	C	1.734629	-0.388179	-0.132901
C66	C	2.234629	0.111821	0.367099
