data_functionalizedCrystal
_audit_creation_method	'MofGen! by Chris Wilmer'
_symmetry_space_group_name_H-M	'P1'
_symmetry_Int_Tables_number	1
_symmetry_cell_setting	triclinic
loop_
_symmetry_equiv_pos_as_xyz
  x,y,z
_cell_length_a	10.654551
_cell_length_b	10.654550
_cell_length_c	9.730223
_cell_angle_alpha	90.003749
_cell_angle_beta	90.001469
_cell_angle_gamma	95.514868
loop_
_atom_site_label
_atom_site_type_symbol
_atom_site_fract_x
_atom_site_fract_y
_atom_site_fract_z
O1	O	0.176393	-1.667835	-0.114394
O2	O	0.193199	-1.302356	-0.114371
O3	O	0.002057	-1.493498	-0.114383
O4	O	0.367535	-1.476693	-0.114381
O5	O	0.002062	-1.493496	0.114197
O6	O	0.193204	-1.302354	0.114209
O7	O	0.176398	-1.667832	0.114186
Zn8	Zn	0.184802	-1.485093	0.150490
Zn9	Zn	0.184795	-1.485096	-0.150674
O10	O	0.367540	-1.476691	0.114199
C11	C	0.191968	-1.255557	-0.000078
C12	C	0.188276	-1.116114	-0.000069
N13	N	0.184805	-1.485100	0.356026
C14	C	-0.044739	-1.492263	-0.000096
C15	C	-0.184182	-1.488570	-0.000105
C16	C	-0.249696	-1.486839	-0.124702
C17	C	-0.380717	-1.483359	-0.124695
C18	C	-0.380697	-1.483346	0.124515
C19	C	-0.249678	-1.486817	0.124507
C20	C	-0.184200	-1.488592	-0.249314
C21	C	-0.249715	-1.486862	-0.373921
C22	C	-0.380735	-1.483382	-0.373914
C23	C	-0.446241	-1.481631	-0.249301
C24	C	0.414336	-1.477926	-0.000091
C25	C	0.553779	-1.481619	-0.000091
C26	C	0.177629	-1.714632	-0.000109
C27	C	0.181321	-1.854075	-0.000127
C28	C	0.300817	-1.036629	-0.000089
C29	C	0.297341	-0.905608	-0.000113
C30	C	0.068771	-0.933570	-0.000104
C31	C	0.072249	-1.064589	-0.000070
C32	C	0.416844	-1.088154	-0.000088
C33	C	0.529395	-1.008667	-0.000109
C34	C	0.525918	-0.877647	-0.000133
C35	C	0.409891	-0.826112	-0.000136
N36	N	0.184782	-1.485099	-0.356211
C37	C	0.100197	-1.569760	0.427947
C38	C	0.100181	-1.569756	0.571830
C39	C	0.269395	-1.400430	0.571859
C40	C	0.269403	-1.400428	0.427979
C41	C	0.015599	-1.654431	0.355994
C42	C	-0.069016	-1.739099	0.427915
C43	C	-0.069031	-1.739095	0.571798
C44	C	0.015568	-1.654425	0.643760
H45	H	-0.077517	-1.491429	-0.249334
Cl46	Cl	-0.175411	-1.845521	0.662211
H47	H	0.617562	-0.812931	-0.000136
Cl48	Cl	0.675249	-1.073452	-0.000090
H49	H	-0.025693	-0.891600	-0.000129
H50	H	-0.019392	-1.129308	-0.000058
H51	H	-0.137901	-1.808028	0.369316
Cl52	Cl	0.015533	-1.654416	0.824644
H53	H	0.407069	-0.719425	-0.000134
H54	H	-0.434073	-1.481961	-0.475375
H55	H	0.015606	-1.654444	0.238837
Cl56	Cl	0.375769	-1.293992	0.337562
Cl57	Cl	-0.167368	-1.489060	-0.530568
Cl58	Cl	-0.610953	-1.477244	-0.249298
H59	H	0.338273	-1.331496	0.630460
H60	H	-0.196331	-1.488200	0.225964
Cl61	Cl	0.421222	-1.252864	-0.000066
Cl62	Cl	-0.463048	-1.481149	0.281160
