data_functionalizedCrystal
_audit_creation_method	'MofGen! by Chris Wilmer'
_symmetry_space_group_name_H-M	'P1'
_symmetry_Int_Tables_number	1
_symmetry_cell_setting	triclinic
loop_
_symmetry_equiv_pos_as_xyz
  x,y,z
_cell_length_a	21.295418
_cell_length_b	25.639239
_cell_length_c	21.295411
_cell_angle_alpha	90.019526
_cell_angle_beta	90.043738
_cell_angle_gamma	90.054499
loop_
_atom_site_label
_atom_site_type_symbol
_atom_site_fract_x
_atom_site_fract_y
_atom_site_fract_z
Zn1	Zn	0.962320	-0.207990	0.356243
Zn2	Zn	1.295653	0.125344	0.689576
Zn3	Zn	1.628987	0.458677	1.022910
Zn4	Zn	0.962207	-0.295410	0.250972
Zn5	Zn	1.295541	0.037924	0.584305
Zn6	Zn	1.628874	0.371257	0.917639
Zn7	Zn	0.857043	-0.208014	0.250953
Zn8	Zn	1.190377	0.125319	0.584286
Zn9	Zn	1.523710	0.458652	0.917619
Zn10	Zn	0.856998	-0.295420	0.356169
Zn11	Zn	1.190331	0.037913	0.689502
Zn12	Zn	1.523664	0.371247	1.022835
O13	O	0.909642	-0.251708	0.303584
O14	O	1.242975	0.081625	0.636917
O15	O	1.576309	0.414958	0.970251
O16	O	1.050395	-0.219572	0.342318
O17	O	1.383728	0.113762	0.675651
O18	O	1.717061	0.447095	1.008984
O19	O	0.948229	-0.283822	0.162880
O20	O	1.281562	0.049511	0.496213
O21	O	1.614896	0.382844	0.829547
O22	O	0.871075	-0.134846	0.264943
O23	O	1.204408	0.198488	0.598276
O24	O	1.537741	0.531821	0.931609
O25	O	1.050312	-0.283799	0.264976
O26	O	1.383645	0.049535	0.598309
O27	O	1.716978	0.382868	0.931642
O28	O	0.948421	-0.134828	0.342299
O29	O	1.281754	0.198506	0.675632
O30	O	1.615088	0.531839	1.008965
O31	O	0.870965	-0.219613	0.162866
O32	O	1.204299	0.113720	0.496199
O33	O	1.537632	0.447053	0.829532
O34	O	0.768948	-0.219623	0.264871
O35	O	1.102281	0.113710	0.598204
O36	O	1.435614	0.447043	0.931537
O37	O	0.870997	-0.283816	0.444268
O38	O	1.204330	0.049517	0.777601
O39	O	1.537664	0.382850	1.110935
O40	O	0.768914	-0.283840	0.342172
O41	O	1.102248	0.049493	0.675506
O42	O	1.435581	0.382827	1.008839
O43	O	0.948377	-0.219582	0.444322
O44	O	1.281710	0.113752	0.777656
O45	O	1.615043	0.447085	1.110989
O46	O	0.948185	-0.368576	0.264904
O47	O	1.281518	-0.035243	0.598237
O48	O	1.614852	0.298090	0.931570
O49	O	0.870888	-0.368584	0.342191
O50	O	1.204221	-0.035251	0.675524
O51	O	1.537554	0.298083	1.008858
C52	C	0.746090	-0.251736	0.303512
C53	C	1.079424	0.081597	0.636845
C54	C	1.412757	0.414931	0.970178
C55	C	0.676122	-0.251760	0.303496
C56	C	1.009456	0.081573	0.636829
C57	C	1.342789	0.414906	0.970162
C58	C	0.643255	-0.285242	0.343686
C59	C	0.976588	0.048091	0.677020
C60	C	1.309921	0.381424	1.010353
C61	C	0.577512	-0.285229	0.343715
C62	C	0.910845	0.048104	0.677048
C63	C	1.244179	0.381437	1.010381
C64	C	0.544640	-0.251740	0.303541
C65	C	0.877973	0.081593	0.636874
C66	C	1.211306	0.414927	0.970207
C67	C	0.577515	-0.218252	0.263347
C68	C	0.910849	0.115082	0.596680
C69	C	1.244182	0.448415	0.930014
C70	C	0.643257	-0.218262	0.263325
C71	C	0.976590	0.115072	0.596658
C72	C	1.309923	0.448405	0.929991
N73	N	0.441365	-0.247648	0.248483
N74	N	0.774698	0.085686	0.581816
N75	N	1.108031	0.419019	0.915150
N76	N	0.378913	-0.247641	0.248506
N77	N	0.712246	0.085692	0.581840
N78	N	1.045580	0.419026	0.915173
C79	C	0.346565	-0.251707	0.303608
C80	C	0.679898	0.081627	0.636941
C81	C	1.013232	0.414960	0.970274
N82	N	0.379028	-0.255789	0.358686
N83	N	0.712361	0.077544	0.692019
N84	N	1.045695	0.410877	1.025353
N85	N	0.441485	-0.255799	0.358662
N86	N	0.774818	0.077535	0.691995
N87	N	1.108152	0.410868	1.025328
C88	C	0.473354	-0.251725	0.303561
C89	C	0.806688	0.081608	0.636894
C90	C	1.140021	0.414942	0.970228
C91	C	0.242412	-0.285176	0.343832
C92	C	0.575745	0.048157	0.677166
C93	C	0.909079	0.381490	1.010499
C94	C	0.176668	-0.285160	0.343862
C95	C	0.510002	0.048173	0.677195
C96	C	0.843335	0.381507	1.010528
C97	C	0.176673	-0.218185	0.263489
C98	C	0.510006	0.115148	0.596822
C99	C	0.843339	0.448482	0.930155
C100	C	0.242415	-0.218199	0.263465
C101	C	0.575749	0.115135	0.596798
C102	C	0.909082	0.448468	0.930132
C103	C	0.275281	-0.251697	0.303636
C104	C	0.608614	0.081636	0.636969
C105	C	0.941948	0.414969	0.970303
C106	C	0.909536	-0.387551	0.303555
C107	C	1.242870	-0.054218	0.636889
C108	C	1.576203	0.279116	0.970222
C109	C	0.909548	-0.445665	0.303564
C110	C	1.242882	-0.112332	0.636897
C111	C	1.576215	0.221002	0.970231
C112	C	0.949996	-0.806011	0.263409
C113	C	1.283329	-0.472678	0.596742
C114	C	1.616662	-0.139345	0.930076
C115	C	0.950020	-0.860616	0.263418
C116	C	1.283353	-0.527282	0.596751
C117	C	1.616687	-0.193949	0.930084
O118	O	0.984300	-0.888838	0.229245
O119	O	1.317633	-0.555505	0.562578
O120	O	1.650967	-0.222172	0.895912
N121	N	0.909753	-0.887947	0.303626
N122	N	1.243086	-0.554614	0.636959
N123	N	1.576419	-0.221281	0.970292
C124	C	0.869463	-0.860672	0.343833
C125	C	1.202796	-0.527339	0.677166
C126	C	1.536129	-0.194005	1.010499
O127	O	0.835215	-0.888934	0.378034
O128	O	1.168548	-0.555600	0.711368
O129	O	1.501881	-0.222267	1.044701
C130	C	0.869442	-0.806069	0.343827
C131	C	1.202775	-0.472735	0.677160
C132	C	1.536109	-0.139402	1.010494
C133	C	0.909708	-0.778740	0.303612
C134	C	1.243041	-0.445406	0.636945
C135	C	1.576374	-0.112073	0.970278
C136	C	0.990259	-0.778683	0.223198
C137	C	1.323592	-0.445349	0.556531
C138	C	1.656925	-0.112016	0.889864
C139	C	0.990233	-0.724082	0.223188
C140	C	1.323567	-0.390749	0.556522
C141	C	1.656900	-0.057415	0.889855
C142	C	0.949945	-0.696810	0.263391
C143	C	1.283278	-0.363477	0.596724
C144	C	1.616612	-0.030144	0.930058
C145	C	0.909682	-0.724139	0.303603
C146	C	1.243016	-0.390806	0.636936
C147	C	1.576349	-0.057473	0.970269
C148	C	0.829156	-0.778794	0.384037
C149	C	1.162489	-0.445461	0.717370
C150	C	1.495822	-0.112127	1.050703
C151	C	0.829139	-0.724187	0.384028
C152	C	1.162472	-0.390854	0.717361
C153	C	1.495805	-0.057520	1.050695
C154	C	0.869404	-0.696858	0.343812
C155	C	1.202738	-0.363525	0.677146
C156	C	1.536071	-0.030192	1.010479
C157	C	0.869369	-0.642267	0.343796
C158	C	1.202702	-0.308934	0.677129
C159	C	1.536035	0.024400	1.010463
N160	N	0.909636	-0.614935	0.303588
N161	N	1.242969	-0.281602	0.636921
N162	N	1.576303	0.051731	0.970254
C163	C	0.949924	-0.642207	0.263385
C164	C	1.283258	-0.308874	0.596719
C165	C	1.616591	0.024460	0.930052
C166	C	0.869510	-0.975343	0.343842
C167	C	1.202844	-0.642009	0.677176
C168	C	1.536177	-0.308676	1.010509
C169	C	0.869527	-1.029945	0.343845
C170	C	1.202861	-0.696611	0.677179
C171	C	1.536194	-0.363278	1.010512
C172	C	0.950086	-1.029885	0.263431
C173	C	1.283419	-0.696552	0.596764
C174	C	1.616752	-0.363218	0.930098
C175	C	0.950065	-0.975282	0.263425
C176	C	1.283398	-0.641948	0.596759
C177	C	1.616732	-0.308615	0.930092
C178	C	0.909778	-0.948011	0.303634
C179	C	1.243111	-0.614678	0.636968
C180	C	1.576444	-0.281344	0.970301
C181	C	0.949868	-0.527542	0.263369
C182	C	1.283201	-0.194209	0.596702
C183	C	1.616534	0.139125	0.930035
C184	C	0.949837	-0.472937	0.263361
C185	C	1.283170	-0.139603	0.596695
C186	C	1.616503	0.193730	0.930028
C187	C	0.869281	-0.473001	0.343778
C188	C	1.202614	-0.139668	0.677111
C189	C	1.535948	0.193665	1.010445
C190	C	0.869309	-0.527602	0.343783
C191	C	1.202642	-0.194269	0.677117
C192	C	1.535976	0.139065	1.010450
C193	C	0.909607	-0.554871	0.303577
C194	C	1.242941	-0.221538	0.636910
C195	C	1.576274	0.111796	0.970243
O196	O	0.835108	-0.614010	0.377953
O197	O	1.168441	-0.280676	0.711286
O198	O	1.501775	0.052657	1.044620
O199	O	0.984172	-0.613939	0.229195
O200	O	1.317506	-0.280605	0.562529
O201	O	1.650839	0.052728	0.895862
C202	C	1.073832	-0.251681	0.303657
C203	C	1.407166	0.081652	0.636990
C204	C	1.740499	0.414985	0.970324
C205	C	1.143801	-0.251670	0.303688
C206	C	1.477134	0.081664	0.637022
C207	C	1.810467	0.414997	0.970355
C208	C	0.909694	-0.251697	0.467774
C209	C	1.243028	0.081636	0.801108
C210	C	1.576361	0.414969	1.134441
C211	C	0.909717	-0.251693	0.537743
C212	C	1.243050	0.081641	0.871076
C213	C	1.576383	0.414974	1.204409
C214	C	0.909766	-0.115335	0.303627
C215	C	1.243099	0.217998	0.636960
C216	C	1.576432	0.551331	0.970293
C217	C	0.909818	-0.057221	0.303645
C218	C	1.243151	0.276112	0.636978
C219	C	1.576485	0.609445	0.970312
C220	C	0.909626	-0.251682	0.140032
C221	C	1.242960	0.081652	0.473366
C222	C	1.576293	0.414985	0.806699
C223	C	0.909726	-0.251539	0.070065
C224	C	1.243059	0.081794	0.403398
C225	C	1.576393	0.415128	0.736731
C226	C	0.950007	-0.218244	0.570639
C227	C	1.283340	0.115089	0.903972
C228	C	1.616673	0.448423	1.237305
C229	C	0.950006	-0.218221	0.636381
C230	C	1.283339	0.115112	0.969714
C231	C	1.616672	0.448445	1.303048
C232	C	0.909721	-0.251657	0.669225
C233	C	1.243055	0.081677	1.002558
C234	C	1.576388	0.415010	1.335892
C235	C	0.869424	-0.285108	0.636321
C236	C	1.202757	0.048226	0.969654
C237	C	1.536090	0.381559	1.302988
C238	C	0.869421	-0.285126	0.570580
C239	C	1.202755	0.048208	0.903913
C240	C	1.536088	0.381541	1.237246
N241	N	0.904857	-0.297396	0.772441
N242	N	1.238190	0.035937	1.105774
N243	N	1.571524	0.369271	1.439108
N244	N	0.904863	-0.297377	0.834892
N245	N	1.238196	0.035956	1.168226
N246	N	1.571530	0.369289	1.501559
C247	C	0.909725	-0.251604	0.867300
C248	C	1.243059	0.081730	1.200633
C249	C	1.576392	0.415063	1.533967
N250	N	0.914594	-0.205848	0.834897
N251	N	1.247927	0.127485	1.168230
N252	N	1.581261	0.460818	1.501563
N253	N	0.914591	-0.205867	0.772440
N254	N	1.247925	0.127466	1.105773
N255	N	1.581258	0.460799	1.439106
C256	C	0.909719	-0.251641	0.740511
C257	C	1.243053	0.081693	1.073844
C258	C	1.576386	0.415026	1.407177
C259	C	0.950017	-0.218128	0.971482
C260	C	1.283350	0.115206	1.304815
C261	C	1.616683	0.448539	1.638148
C262	C	0.950011	-0.218104	1.037225
C263	C	1.283345	0.115229	1.370559
C264	C	1.616678	0.448562	1.703892
C265	C	0.869433	-0.284995	1.037164
C266	C	1.202766	0.048338	1.370497
C267	C	1.536099	0.381672	1.703831
C268	C	0.869435	-0.285014	0.971422
C269	C	1.202768	0.048320	1.304755
C270	C	1.536101	0.381653	1.638088
C271	C	0.909730	-0.251581	0.938584
C272	C	1.243063	0.081752	1.271918
C273	C	1.576397	0.415086	1.605251
H274	H	0.982684	-0.549738	0.230630
H275	H	1.316017	-0.216405	0.563963
H276	H	1.649350	0.116929	0.897297
H277	H	0.670010	-0.312519	0.376398
H278	H	1.003343	0.020815	0.709731
H279	H	1.336676	0.354148	1.043064
H280	H	0.982853	-0.953034	0.230679
H281	H	1.316186	-0.619700	0.564012
H282	H	1.649520	-0.286367	0.897346
H283	H	0.550746	-0.312494	0.376445
H284	H	0.884079	0.020839	0.709778
H285	H	1.217413	0.354173	1.043112
H286	H	0.836698	-0.953141	0.376584
H287	H	1.170032	-0.619808	0.709917
H288	H	1.503365	-0.286475	1.043250
H289	H	0.982893	-1.052099	0.230698
H290	H	1.316226	-0.718766	0.564031
H291	H	1.649559	-0.385433	0.897365
H292	H	1.023023	-0.701834	0.190444
H293	H	1.356356	-0.368501	0.523777
H294	H	1.689689	-0.035167	0.857110
C295	C	1.034124	-0.808293	0.179671
C296	C	1.367457	-0.474960	0.513005
C297	C	1.700791	-0.141626	0.846338
C298	C	1.074483	-0.839553	0.215390
C299	C	1.407816	-0.506220	0.548724
C300	C	1.741149	-0.172886	0.882057
C301	C	1.114924	-0.866819	0.175320
C302	C	1.448258	-0.533485	0.508654
C303	C	1.781591	-0.200152	0.841987
H304	H	1.010183	-0.829684	0.152178
H305	H	1.343517	-0.496350	0.485511
H306	H	1.676850	-0.163017	0.818845
H307	H	1.058132	-0.784189	0.155760
H308	H	1.391465	-0.450856	0.489093
H309	H	1.724798	-0.117523	0.822427
H310	H	1.050478	-0.863654	0.239291
H311	H	1.383811	-0.530321	0.572624
H312	H	1.717144	-0.196987	0.905958
H313	H	1.098437	-0.818175	0.242882
H314	H	1.431771	-0.484842	0.576215
H315	H	1.765104	-0.151509	0.909549
H316	H	1.138932	-0.842715	0.151409
H317	H	1.472265	-0.509381	0.484742
H318	H	1.805599	-0.176048	0.818076
H319	H	1.090979	-0.888206	0.147829
H320	H	1.424312	-0.554873	0.481162
H321	H	1.757645	-0.221539	0.814496
H322	H	1.142316	-0.888028	0.199550
H323	H	1.475650	-0.554695	0.532883
H324	H	1.808983	-0.221361	0.866217
H325	H	0.670017	-0.190995	0.230596
H326	H	1.003350	0.142338	0.563929
H327	H	1.336684	0.475672	0.897263
C328	C	0.825781	-1.059518	0.387572
C329	C	1.159114	-0.726185	0.720906
C330	C	1.492447	-0.392852	1.054239
C331	C	0.790507	-1.023941	0.422785
C332	C	1.123840	-0.690608	0.756119
C333	C	1.457173	-0.357274	1.089452
C334	C	0.750209	-1.051162	0.463083
C335	C	1.083542	-0.717829	0.796416
C336	C	1.416875	-0.384496	1.129750
H337	H	0.798317	-1.080861	0.363534
H338	H	1.131650	-0.747528	0.696867
H339	H	1.464983	-0.414194	1.030201
H340	H	0.849841	-1.080770	0.415070
H341	H	1.183175	-0.747436	0.748404
H342	H	1.516508	-0.414103	1.081737
H343	H	0.766448	-1.002698	0.395291
H344	H	1.099781	-0.669365	0.728624
H345	H	1.433115	-0.336032	1.061958
H346	H	0.817954	-1.002597	0.446837
H347	H	1.151287	-0.669264	0.780170
H348	H	1.484621	-0.335930	1.113503
H349	H	0.774269	-1.072414	0.490581
H350	H	1.107602	-0.739081	0.823914
H351	H	1.440936	-0.405747	1.157248
H352	H	0.722749	-1.072504	0.439040
H353	H	1.056082	-0.739171	0.772373
H354	H	1.389415	-0.405837	1.105706
H355	H	0.726274	-1.027028	0.486984
H356	H	1.059608	-0.693694	0.820317
H357	H	1.392941	-0.360361	1.153651
H358	H	0.796364	-0.801036	0.416781
H359	H	1.129697	-0.467703	0.750115
H360	H	1.463031	-0.134369	1.083448
C361	C	0.825802	-0.321366	1.072844
C362	C	1.159135	0.011967	1.406178
C363	C	1.492468	0.345300	1.739511
C364	C	0.861419	-0.354870	1.110597
C365	C	1.194752	-0.021537	1.443931
C366	C	1.528086	0.311796	1.777264
C367	C	0.821247	-0.388389	1.143470
C368	C	1.154580	-0.055056	1.476803
C369	C	1.487913	0.278278	1.810137
H370	H	0.798377	-0.301429	1.098523
H371	H	1.131710	0.031904	1.431857
H372	H	1.465043	0.365238	1.765190
H373	H	0.801821	-0.341322	1.043851
H374	H	1.135155	-0.007989	1.377184
H375	H	1.468488	0.325344	1.710517
H376	H	0.885389	-0.334916	1.139588
H377	H	1.218722	-0.001583	1.472921
H378	H	1.552055	0.331750	1.806254
H379	H	0.888842	-0.374819	1.084934
H380	H	1.222176	-0.041486	1.418268
H381	H	1.555509	0.291847	1.751601
H382	H	0.797266	-0.408345	1.114476
H383	H	1.130599	-0.075012	1.447810
H384	H	1.463933	0.258322	1.781143
H385	H	0.793823	-0.368447	1.169145
H386	H	1.127157	-0.035114	1.502478
H387	H	1.460490	0.298219	1.835812
H388	H	0.845407	-0.411128	1.169085
H389	H	1.178740	-0.077795	1.502418
H390	H	1.512074	0.255538	1.835751
C391	C	0.825771	-0.321422	0.935736
C392	C	1.159105	0.011912	1.269069
C393	C	1.492438	0.345245	1.602403
C394	C	0.839442	-0.373147	0.951725
C395	C	1.172775	-0.039813	1.285058
C396	C	1.506108	0.293520	1.618391
C397	C	0.799233	-0.406700	0.918859
C398	C	1.132567	-0.073367	1.252192
C399	C	1.465900	0.259967	1.585525
H400	H	0.783461	-0.313842	0.946453
H401	H	1.116795	0.019491	1.279787
H402	H	1.450128	0.352824	1.613120
H403	H	0.831543	-0.316680	0.891873
H404	H	1.164876	0.016653	1.225207
H405	H	1.498210	0.349987	1.558540
H406	H	0.833665	-0.377886	0.995578
H407	H	1.166998	-0.044553	1.328911
H408	H	1.500331	0.288781	1.662244
H409	H	0.881744	-0.380742	0.941006
H410	H	1.215078	-0.047409	1.274339
H411	H	1.548411	0.285924	1.607672
H412	H	0.805005	-0.401958	0.874996
H413	H	1.138338	-0.068625	1.208329
H414	H	1.471672	0.264708	1.541662
H415	H	0.756926	-0.399116	0.929578
H416	H	1.090259	-0.065783	1.262912
H417	H	1.423592	0.267551	1.596245
H418	H	0.808507	-0.441799	0.929698
H419	H	1.141840	-0.108466	1.263031
H420	H	1.475174	0.224868	1.596364
C421	C	0.277986	-0.321558	0.387521
C422	C	0.611320	0.011775	0.720854
C423	C	0.944653	0.345108	1.054187
C424	C	0.235127	-0.350864	0.422743
C425	C	0.568461	-0.017531	0.756076
C426	C	0.901794	0.315802	1.089410
C427	C	0.267873	-0.384379	0.463002
C428	C	0.601207	-0.051045	0.796335
C429	C	0.934540	0.282288	1.129669
H430	H	0.303576	-0.344362	0.363454
H431	H	0.636909	-0.011029	0.696787
H432	H	0.970242	0.322305	1.030121
H433	H	0.303677	-0.301605	0.415015
H434	H	0.637011	0.031728	0.748348
H435	H	0.970344	0.365062	1.081681
H436	H	0.209447	-0.370816	0.395253
H437	H	0.542781	-0.037483	0.728586
H438	H	0.876114	0.295851	1.061919
H439	H	0.209537	-0.328074	0.446822
H440	H	0.542870	0.005259	0.780156
H441	H	0.876203	0.338592	1.113489
H442	H	0.293564	-0.364426	0.490496
H443	H	0.626898	-0.031092	0.823829
H444	H	0.960231	0.302241	1.157163
H445	H	0.293461	-0.407179	0.438930
H446	H	0.626795	-0.073846	0.772264
H447	H	0.960128	0.259488	1.105597
H448	H	0.238799	-0.404264	0.486909
H449	H	0.572132	-0.070930	0.820242
H450	H	0.905465	0.262403	1.153576
H451	H	0.550747	-0.190983	0.230639
H452	H	0.884080	0.142350	0.563972
H453	H	1.217413	0.475683	0.897305
H454	H	0.149909	-0.312424	0.376594
H455	H	0.483242	0.020909	0.709927
H456	H	0.816575	0.354243	1.043261
H457	H	0.149909	-0.190915	0.230781
H458	H	0.483242	0.142419	0.564115
H459	H	0.816575	0.475752	0.897448
H460	H	0.269176	-0.190937	0.230734
H461	H	0.602510	0.142397	0.564067
H462	H	0.935843	0.475730	0.897401
H463	H	0.982626	-0.450687	0.230611
H464	H	1.315959	-0.117354	0.563944
H465	H	1.649292	0.215979	0.897278
C466	C	0.785329	-0.694674	0.427711
C467	C	1.118662	-0.361341	0.761044
C468	C	1.451996	-0.028007	1.094377
C469	C	0.750066	-0.730299	0.462917
C470	C	1.083399	-0.396966	0.796250
C471	C	1.416732	-0.063633	1.129584
C472	C	0.709697	-0.703132	0.503158
C473	C	1.043031	-0.369799	0.836491
C474	C	1.376364	-0.036466	1.169824
H475	H	0.809319	-0.673336	0.455220
H476	H	1.142652	-0.340002	0.788554
H477	H	1.475985	-0.006669	1.121887
H478	H	0.757866	-0.673423	0.403612
H479	H	1.091199	-0.340090	0.736945
H480	H	1.424533	-0.006757	1.070279
H481	H	0.777525	-0.751541	0.487014
H482	H	1.110859	-0.418208	0.820347
H483	H	1.444192	-0.084875	1.153681
H484	H	0.726063	-0.751639	0.435424
H485	H	1.059397	-0.418306	0.768758
H486	H	1.392730	-0.084972	1.102091
H487	H	0.682234	-0.681882	0.479059
H488	H	1.015568	-0.348548	0.812392
H489	H	1.348901	-0.015215	1.145725
H490	H	0.733692	-0.681795	0.530663
H491	H	1.067025	-0.348461	0.863996
H492	H	1.400358	-0.015128	1.197329
H493	H	0.685762	-0.727300	0.527046
H494	H	1.019095	-0.393966	0.860379
H495	H	1.352429	-0.060633	1.193712
C496	C	0.825568	-0.557182	0.387512
C497	C	1.158901	-0.223849	0.720846
C498	C	1.492234	0.109484	1.054179
C499	C	0.790290	-0.521609	0.422727
C500	C	1.123623	-0.188275	0.756060
C501	C	1.456956	0.145058	1.089394
C502	C	0.750000	-0.548835	0.463029
C503	C	1.083333	-0.215501	0.796362
C504	C	1.416666	0.117832	1.129695
H505	H	0.798106	-0.578529	0.363477
H506	H	1.131439	-0.245196	0.696810
H507	H	1.464772	0.088138	1.030143
H508	H	0.849634	-0.578430	0.415009
H509	H	1.182967	-0.245097	0.748342
H510	H	1.516301	0.088237	1.081676
H511	H	0.766225	-0.500370	0.395234
H512	H	1.099558	-0.167037	0.728567
H513	H	1.432892	0.166297	1.061901
H514	H	0.817735	-0.500261	0.446776
H515	H	1.151068	-0.166928	0.780109
H516	H	1.484402	0.166406	1.113442
H517	H	0.774066	-0.570082	0.490525
H518	H	1.107400	-0.236749	0.823859
H519	H	1.440733	0.096584	1.157192
H520	H	0.722542	-0.570180	0.438988
H521	H	1.055875	-0.236847	0.772321
H522	H	1.389209	0.096486	1.105655
H523	H	0.726063	-0.524702	0.486931
H524	H	1.059396	-0.191369	0.820264
H525	H	1.392730	0.141964	1.153597
C526	C	0.825611	-0.443291	0.387403
C527	C	1.158945	-0.109958	0.720736
C528	C	1.492278	0.223375	1.054069
C529	C	0.834227	-0.389624	0.378797
C530	C	1.167560	-0.056290	0.712130
C531	C	1.500893	0.277043	1.045463
C532	C	0.794019	-0.362237	0.418982
C533	C	1.127352	-0.028904	0.752316
C534	C	1.460686	0.304429	1.085649
H535	H	0.783296	-0.452222	0.378184
H536	H	1.116630	-0.118889	0.711518
H537	H	1.449963	0.214444	1.044851
H538	H	0.834817	-0.452182	0.429724
H539	H	1.168151	-0.118849	0.763058
H540	H	1.501484	0.214485	1.096391
H541	H	0.825016	-0.380737	0.336485
H542	H	1.158350	-0.047403	0.669818
H543	H	1.491683	0.285930	1.003151
H544	H	0.876533	-0.380677	0.388020
H545	H	1.209867	-0.047344	0.721353
H546	H	1.543200	0.285989	1.054686
H547	H	0.803225	-0.371128	0.461304
H548	H	1.136558	-0.037795	0.794637
H549	H	1.469891	0.295538	1.127971
H550	H	0.751706	-0.371173	0.409761
H551	H	1.085040	-0.037839	0.743094
H552	H	1.418373	0.295494	1.076427
H553	H	0.799863	-0.325822	0.413153
H554	H	1.133196	0.007512	0.746486
H555	H	1.466530	0.340845	1.079819
C556	C	0.993650	-0.181843	0.672141
C557	C	1.326984	0.151490	1.005475
C558	C	1.660317	0.484824	1.338808
C559	C	0.958045	-0.148317	0.709849
C560	C	1.291378	0.185017	1.043183
C561	C	1.624712	0.518350	1.376516
C562	C	0.998229	-0.114795	0.742792
C563	C	1.331562	0.218538	1.076125
C564	C	1.664896	0.551872	1.409459
H565	H	1.021069	-0.201777	0.697856
H566	H	1.354402	0.131556	1.031189
H567	H	1.687736	0.464889	1.364523
H568	H	1.017637	-0.161904	0.643189
H569	H	1.350971	0.171430	0.976523
H570	H	1.684304	0.504763	1.309856
H571	H	0.934069	-0.168254	0.738798
H572	H	1.267402	0.165079	1.072131
H573	H	1.600735	0.498413	1.405464
H574	H	0.930628	-0.128371	0.684150
H575	H	1.263961	0.204962	1.017483
H576	H	1.597295	0.538296	1.350817
H577	H	1.022216	-0.094855	0.713840
H578	H	1.355549	0.238478	1.047174
H579	H	1.688882	0.571811	1.380507
H580	H	1.025646	-0.134733	0.768503
H581	H	1.358979	0.198600	1.101837
H582	H	1.692312	0.531933	1.435170
H583	H	0.974076	-0.092040	0.768376
H584	H	1.307410	0.241293	1.101710
H585	H	1.640743	0.574626	1.435043
C586	C	0.993650	-0.181716	1.072974
C587	C	1.326983	0.151617	1.406307
C588	C	1.660316	0.484950	1.739640
C589	C	0.958037	-0.148187	1.110671
C590	C	1.291370	0.185146	1.444005
C591	C	1.624703	0.518480	1.777338
C592	C	0.998214	-0.114653	1.143604
C593	C	1.331547	0.218680	1.476938
C594	C	1.664880	0.552014	1.810271
H595	H	1.021072	-0.201641	1.098695
H596	H	1.354405	0.131692	1.432028
H597	H	1.687739	0.465025	1.765362
H598	H	1.017633	-0.161779	1.044016
H599	H	1.350966	0.171554	1.377350
H600	H	1.684299	0.504887	1.710683
H601	H	0.934064	-0.168122	1.139626
H602	H	1.267398	0.165211	1.472959
H603	H	1.600731	0.498545	1.806292
H604	H	0.930616	-0.128251	1.084966
H605	H	1.263949	0.205083	1.418299
H606	H	1.597283	0.538416	1.751632
H607	H	1.022197	-0.094716	1.114647
H608	H	1.355530	0.238617	1.447980
H609	H	1.688863	0.571951	1.781314
H610	H	1.025634	-0.134582	1.169322
H611	H	1.358967	0.198751	1.502655
H612	H	1.692301	0.532085	1.835989
H613	H	0.974056	-0.091896	1.169182
H614	H	1.307389	0.241437	1.502515
H615	H	1.640723	0.574770	1.835848
C616	C	0.993773	-0.181885	0.535101
C617	C	1.327107	0.151448	0.868434
C618	C	1.660440	0.484782	1.201768
C619	C	1.029046	-0.152577	0.577987
C620	C	1.362379	0.180757	0.911320
C621	C	1.695712	0.514090	1.244654
C622	C	1.069363	-0.119072	0.545272
C623	C	1.402696	0.214262	0.878605
C624	C	1.736029	0.547595	1.211938
H625	H	1.021238	-0.201828	0.509471
H626	H	1.354571	0.131505	0.842804
H627	H	1.687904	0.464838	1.176138
H628	H	0.969726	-0.159086	0.509453
H629	H	1.303060	0.174248	0.842787
H630	H	1.636393	0.507581	1.176120
H631	H	1.053091	-0.175373	0.603624
H632	H	1.386424	0.157960	0.936957
H633	H	1.719758	0.491293	1.270290
H634	H	1.001598	-0.132623	0.603618
H635	H	1.334931	0.200711	0.936952
H636	H	1.668265	0.534044	1.270285
H637	H	1.045316	-0.096272	0.519624
H638	H	1.378649	0.237061	0.852957
H639	H	1.711982	0.570394	1.186291
H640	H	1.096823	-0.139019	0.519643
H641	H	1.430156	0.194314	0.852976
H642	H	1.763489	0.527647	1.186309
H643	H	1.093296	-0.099179	0.574364
H644	H	1.426629	0.234155	0.907698
H645	H	1.759962	0.567488	1.241031
H646	H	0.836622	-0.312329	0.663067
H647	H	1.169955	0.021004	0.996400
H648	H	1.503289	0.354338	1.329734
H649	H	0.836609	-0.312363	0.543796
H650	H	1.169943	0.020971	0.877129
H651	H	1.503276	0.354304	1.210463
H652	H	0.982824	-0.190902	0.944744
H653	H	1.316157	0.142432	1.278077
H654	H	1.649491	0.475765	1.611411
