data_functionalizedCrystal
_audit_creation_method	'MofGen! by Chris Wilmer'
_symmetry_space_group_name_H-M	'P1'
_symmetry_Int_Tables_number	1
_symmetry_cell_setting	triclinic
loop_
_symmetry_equiv_pos_as_xyz
  x,y,z
_cell_length_a	31.640172
_cell_length_b	20.875641
_cell_length_c	20.875641
_cell_angle_alpha	60.089808
_cell_angle_beta	90.005689
_cell_angle_gamma	62.438275
loop_
_atom_site_label
_atom_site_type_symbol
_atom_site_fract_x
_atom_site_fract_y
_atom_site_fract_z
Zr1	Zr	0.426526	0.694272	-0.105685
O2	O	0.364586	0.820523	-0.208961
O3	O	0.443197	0.563014	-0.070750
O4	O	0.449422	0.687036	-0.204221
O5	O	0.356087	0.703955	0.026068
O6	O	0.518978	0.687024	-0.204207
O7	O	0.358361	0.696501	-0.075490
O8	O	0.507843	0.465170	0.034548
O9	O	0.367222	0.925808	-0.212687
O10	O	0.505016	0.618847	-0.059797
O11	O	0.451410	0.624419	0.015985
O12	O	0.458739	0.770439	-0.141160
O13	O	0.405132	0.776011	-0.065378
Zr14	Zr	0.533834	0.706140	0.056312
Zr15	Zr	0.537461	0.694252	-0.105662
Zr16	Zr	0.422900	0.706160	0.056290
Zr17	Zr	0.430731	0.862189	-0.111626
Zr18	Zr	0.529630	0.538223	0.062254
O19	O	0.517164	0.837398	0.021377
O20	O	0.522320	0.820495	-0.208930
O21	O	0.359429	0.837426	0.021345
O22	O	0.595775	0.579889	0.159589
O23	O	0.600931	0.562986	-0.070718
O24	O	0.438041	0.579917	0.159557
O25	O	0.604274	0.696457	-0.075441
O26	O	0.510939	0.713376	0.154848
O27	O	0.441383	0.713388	0.154834
O28	O	0.602000	0.703911	0.026118
O29	O	0.455400	0.925792	-0.212669
O30	O	0.504961	0.474620	0.163296
O31	O	0.593139	0.474604	0.163314
O32	O	0.596021	0.465155	0.034566
O33	O	0.364339	0.935257	-0.083939
O34	O	0.452517	0.935241	-0.083921
O35	O	0.501622	0.629973	0.091787
O36	O	0.555228	0.624401	0.016006
O37	O	0.508951	0.775993	-0.065357
O38	O	0.455345	0.781565	0.010424
C39	C	0.474921	0.490167	-0.017254
C40	C	0.473136	0.418882	-0.014732
C41	C	0.341418	0.700230	-0.024714
C42	C	0.294324	0.700239	-0.024724
C43	C	0.500278	0.382484	-0.053104
C44	C	0.498602	0.315500	-0.050727
C45	C	0.469781	0.284919	-0.009981
C46	C	0.442638	0.321321	0.028396
C47	C	0.444317	0.388300	0.026023
C48	C	0.461761	0.084910	0.001363
C49	C	0.460083	0.017928	0.003731
C50	C	0.516047	0.012110	-0.075390
C51	C	0.517722	0.079094	-0.077764
C52	C	0.490581	0.115487	-0.039383
N53	N	0.468066	0.216453	-0.007552
N54	N	0.492299	0.183948	-0.041808
C55	C	0.026472	0.621069	0.017800
C56	C	-0.150514	0.621054	0.017815
O57	O	-0.152856	0.553759	0.053963
N58	N	-0.196800	0.700183	-0.024656
C59	C	-0.198839	0.779322	-0.067131
O60	O	-0.242269	0.846626	-0.103249
C61	C	-0.021854	0.779336	-0.067141
C62	C	0.024432	0.700201	-0.024673
C63	C	0.072755	0.541941	0.060265
C64	C	0.116999	0.541945	0.060258
C65	C	0.114959	0.621077	0.017785
C66	C	0.068676	0.700205	-0.024681
C67	C	-0.023893	0.858473	-0.109611
C68	C	0.020358	0.858470	-0.109608
C69	C	0.066644	0.779336	-0.067140
C70	C	0.110879	0.779342	-0.067162
N71	N	0.157165	0.700213	-0.024690
C72	C	0.159205	0.621081	0.017783
C73	C	-0.291757	0.779309	-0.067123
C74	C	-0.336003	0.779305	-0.067122
C75	C	-0.287675	0.621038	0.017826
C76	C	-0.243428	0.621042	0.017819
C77	C	-0.245471	0.700180	-0.024652
C78	C	0.252118	0.621096	0.017763
C79	C	0.296364	0.621107	0.017749
C80	C	0.248032	0.779374	-0.067195
C81	C	0.203790	0.779363	-0.067184
C82	C	0.205837	0.700217	-0.024699
O83	O	0.113260	0.846602	-0.103283
O84	O	0.202640	0.553788	0.053910
C85	C	-0.017772	0.621065	0.017808
C86	C	-0.064055	0.700193	-0.024658
C87	C	-0.066095	0.779325	-0.067131
C88	C	-0.108302	0.700189	-0.024656
C89	C	-0.106262	0.621057	0.017817
C90	C	-0.059976	0.541929	0.060288
C91	C	-0.015732	0.541933	0.060281
C92	C	-0.112381	0.858454	-0.109603
C93	C	-0.156623	0.858443	-0.109592
C94	C	-0.154583	0.779311	-0.067119
C95	C	0.618942	0.700181	-0.024658
C96	C	0.666037	0.700173	-0.024649
C97	C	0.484716	0.685336	-0.227292
C98	C	0.486256	0.680289	-0.296054
C99	C	0.485440	0.910244	-0.032118
C100	C	0.487225	0.981530	-0.034641
C101	C	0.462824	0.757046	-0.370829
C102	C	0.464277	0.752298	-0.435436
C103	C	0.489159	0.670794	-0.425266
C104	C	0.512595	0.594032	-0.350483
C105	C	0.511144	0.598780	-0.285878
C106	C	0.496090	0.648109	-0.613930
C107	C	0.497537	0.643366	-0.678543
C108	C	0.449220	0.801634	-0.763492
C109	C	0.447769	0.806374	-0.698882
C110	C	0.471207	0.729612	-0.624105
N111	N	0.490644	0.665940	-0.491303
N112	N	0.469725	0.734467	-0.558069
C113	C	0.475644	0.715076	0.177919
C114	C	0.474105	0.720123	0.246681
C115	C	0.613683	0.490143	-0.017226
C116	C	0.658993	0.418850	-0.014694
C117	C	0.470385	0.505038	0.185351
C118	C	0.467061	0.438799	0.256636
C119	C	0.609147	0.505013	0.185379
C120	C	0.652917	0.438766	0.256673
C121	C	0.351214	0.895399	-0.234752
C122	C	0.307444	0.961646	-0.306046
C123	C	0.346678	0.910269	-0.032146
C124	C	0.301368	0.981562	-0.034678
C125	C	0.489976	0.895374	-0.234724
C126	C	0.493300	0.961613	-0.306009
C127	C	0.654061	0.382470	-0.053080
C128	C	0.696630	0.315490	-0.050717
C129	C	0.744131	0.284887	-0.009962
C130	C	0.749063	0.321274	0.028425
C131	C	0.706494	0.388256	0.026056
C132	C	0.491709	0.410592	0.329687
C133	C	0.488584	0.348364	0.396672
C134	C	0.460812	0.314339	0.390605
C135	C	0.436160	0.342552	0.317546
C136	C	0.439283	0.404784	0.250563
C137	C	0.701459	0.404748	0.250597
C138	C	0.742590	0.342511	0.317579
C139	C	0.735179	0.314289	0.390637
C140	C	0.686632	0.348314	0.396712
C141	C	0.645502	0.410555	0.329730
C142	C	0.258902	0.995672	-0.299970
C143	C	0.217772	1.057930	-0.366952
C144	C	0.225183	1.086155	-0.440010
C145	C	0.273729	1.052126	-0.446085
C146	C	0.314859	0.989874	-0.379104
C147	C	0.306301	1.017948	0.003701
C148	C	0.263732	1.084945	0.001319
C149	C	0.216231	1.115550	-0.039438
C150	C	0.211299	1.079161	-0.077822
C151	C	0.253868	1.012170	-0.075444
C152	C	0.521076	0.995618	-0.299916
C153	C	0.524210	1.057848	-0.366890
C154	C	0.499564	1.086075	-0.439954
C155	C	0.471787	1.052063	-0.446045
C156	C	0.468657	0.989830	-0.379072
H157	H	0.520703	0.285864	-0.081972
H158	H	0.446036	0.962150	-0.384043
H159	H	0.515175	0.585603	-0.553052
O160	O	0.678642	0.317868	0.475513
H161	H	0.656246	0.287836	0.483161
H162	H	0.782115	0.314813	0.312619
O163	O	0.593146	0.447226	0.336289
H164	H	0.594907	0.417130	0.398346
H165	H	0.419174	0.296413	0.061576
H166	H	0.541146	0.972645	-0.240430
H167	H	0.252858	0.972695	-0.240488
H168	H	0.546828	1.085534	-0.361916
O169	O	-0.206543	0.943805	-0.155404
H170	H	-0.226927	0.944533	-0.199277
O171	O	-0.193510	0.535687	0.063630
H172	H	-0.171261	0.528826	0.023827
O173	O	0.502934	1.153210	-0.512188
H174	H	0.526385	1.172118	-0.495669
H175	H	0.538145	-0.017527	-0.106637
O176	O	0.548805	0.112080	-0.121713
H177	H	0.567400	0.075513	-0.147994
H178	H	-0.293428	0.843756	-0.101714
H179	H	0.419212	0.427741	0.191084
O180	O	0.423950	0.884418	-0.844146
H181	H	0.383435	0.923280	-0.852129
H182	H	0.707502	0.427716	0.191115
O183	O	0.536446	0.515989	-0.205225
H184	H	0.531272	0.532983	-0.162010
H185	H	0.451721	1.075056	-0.505543
O186	O	0.779542	0.247148	0.462880
H187	H	0.814539	0.228230	0.446373
O188	O	0.248545	0.972922	-0.116836
H189	H	0.225782	0.944094	-0.092887
O190	O	0.367218	0.953182	-0.385650
H191	H	0.386216	0.881313	-0.355489
O192	O	0.457458	0.247203	0.462860
H193	H	0.440390	0.275416	0.496068
O194	O	0.531361	0.415471	-0.097055
H195	H	0.571088	0.360918	-0.072189
O196	O	0.429003	-0.015070	0.047692
H197	H	0.410418	0.021479	0.073991
O198	O	0.165414	1.094611	-0.360392
H199	H	0.167174	1.064505	-0.298335
O200	O	0.790043	0.212643	-0.007413
H201	H	0.810566	0.155926	0.053663
H202	H	0.191688	1.136845	-0.494545
H203	H	0.615387	0.407385	-0.086277
H204	H	0.279758	1.075115	-0.505577
O205	O	0.539436	0.506117	-0.339502
H206	H	0.512601	0.500163	-0.366900
H207	H	-0.286021	0.556605	0.052404
O208	O	0.357529	0.984961	0.047657
H209	H	0.376159	0.914284	0.094016
O210	O	0.432484	0.124167	0.042747
H211	H	0.412156	0.091657	0.071468
O212	O	0.160063	1.112180	-0.121779
H213	H	0.153637	1.057640	-0.096930
H214	H	0.267757	1.114563	0.032579
H215	H	0.422214	0.417937	0.057267
H216	H	0.181573	1.170099	-0.041368
H217	H	0.692605	0.285872	-0.081976
O218	O	0.346286	0.535748	0.063556
H219	H	0.376713	0.549037	0.056412
H220	H	0.787744	0.296347	0.061606
O221	O	0.435981	0.844956	-0.381802
H222	H	0.462814	0.850901	-0.354387
H223	H	0.154683	0.477506	0.094837
O224	O	0.254327	0.535733	0.063575
H225	H	0.293948	0.480718	0.093091
O226	O	0.245838	0.864716	-0.113095
H227	H	0.284383	0.851414	-0.105988
H228	H	0.074425	0.477499	0.094856
O229	O	0.711815	0.427480	0.067474
H230	H	0.751998	0.394933	0.096216
O231	O	0.524378	0.555454	-0.667576
H232	H	0.540436	0.502874	-0.604725
O233	O	0.521663	0.447288	0.336240
H234	H	0.538270	0.417219	0.398295
H235	H	-0.373687	0.843744	-0.101714
H236	H	-0.061574	0.922913	-0.144192
H237	H	0.166102	0.843800	-0.101775
O238	O	0.018179	0.943806	-0.155432
H239	H	-0.002828	0.984853	-0.133988
O240	O	0.034188	0.456581	0.106089
H241	H	0.028165	0.401563	0.135625
H242	H	-0.058321	0.477496	0.094867
H243	H	-0.114050	0.922894	-0.144191
H244	H	0.445197	0.814802	-0.496320
O245	O	0.420928	0.894282	-0.709851
H246	H	0.404879	0.946860	-0.772702
H247	H	0.508661	0.325401	0.456153
H248	H	0.413549	0.314840	0.312618
