data_functionalizedCrystal
_audit_creation_method	'MofGen! by Chris Wilmer'
_symmetry_space_group_name_H-M	'P1'
_symmetry_Int_Tables_number	1
_symmetry_cell_setting	triclinic
loop_
_symmetry_equiv_pos_as_xyz
  x,y,z
_cell_length_a	23.532407
_cell_length_b	16.974800
_cell_length_c	22.610064
_cell_angle_alpha	86.351406
_cell_angle_beta	90.000603
_cell_angle_gamma	83.120189
loop_
_atom_site_label
_atom_site_type_symbol
_atom_site_fract_x
_atom_site_fract_y
_atom_site_fract_z
O1	O	0.072545	1.048579	-0.001019
O2	O	0.572545	1.548579	0.498981
O3	O	0.081798	0.818300	0.010009
O4	O	0.581798	1.318300	0.510009
O5	O	-0.005738	0.940383	0.004152
O6	O	0.494262	1.440383	0.504152
O7	O	0.160081	0.926495	0.004838
O8	O	0.660081	1.426495	0.504838
O9	O	-0.005725	0.940362	-0.094217
O10	O	0.494275	1.440362	0.405783
O11	O	0.081811	0.818279	-0.088359
O12	O	0.581811	1.318279	0.411641
O13	O	0.072558	1.048557	-0.099388
O14	O	0.572558	1.548557	0.400612
Zn15	Zn	0.077186	0.933414	-0.109491
Zn16	Zn	0.577186	1.433414	0.390509
Zn17	Zn	0.077169	0.933443	0.020113
Zn18	Zn	0.577169	1.433443	0.520113
O19	O	0.160093	0.926474	-0.093530
O20	O	0.660093	1.426474	0.406470
C21	C	0.081453	0.788834	-0.037764
C22	C	0.581453	1.288834	0.462236
C23	C	0.080401	0.701066	-0.033561
C24	C	0.580401	1.201066	0.466439
C25	C	0.079913	0.659825	-0.085209
C26	C	0.579913	1.159825	0.414791
C27	C	0.078915	0.577360	-0.081261
C28	C	0.578915	1.077360	0.418739
C29	C	0.078410	0.536135	-0.025666
C30	C	0.578410	1.036135	0.474334
C31	C	0.078897	0.577382	0.025985
C32	C	0.578897	1.077382	0.525985
C33	C	0.079891	0.659847	0.022037
C34	C	0.579891	1.159847	0.522037
C35	C	0.075435	0.289503	-0.008109
C36	C	0.575435	0.789503	0.491891
C37	C	0.074443	0.207032	-0.004164
C38	C	0.574443	0.707032	0.495836
C39	C	0.074460	0.207016	-0.111411
C40	C	0.574460	0.707016	0.388589
C41	C	0.075457	0.289481	-0.115354
C42	C	0.575457	0.789481	0.384646
C43	C	0.075940	0.330722	-0.063703
C44	C	0.575940	0.830722	0.436297
N45	N	0.077393	0.451842	-0.021630
N46	N	0.577393	0.951842	0.478370
N47	N	0.076954	0.415014	-0.067740
N48	N	0.576954	0.915014	0.432260
C49	C	-0.026948	0.940019	-0.045017
C50	C	0.473052	1.440019	0.454983
C51	C	-0.090169	0.938956	-0.044971
C52	C	0.409831	1.438956	0.455029
C53	C	-0.489058	1.004533	-0.048079
C54	C	0.010942	1.504533	0.451921
C55	C	-0.548462	1.003545	-0.048027
C56	C	-0.048462	1.503545	0.451973
O57	O	-0.585008	1.064336	-0.050917
O58	O	-0.085008	1.564336	0.449083
N59	N	-0.571324	0.930967	-0.044552
N60	N	-0.071324	1.430967	0.455448
C61	C	-0.534780	0.859371	-0.041122
C62	C	-0.034780	1.359371	0.458878
O63	O	-0.559681	0.797547	-0.038160
O64	O	-0.059681	1.297547	0.461840
C65	C	-0.475378	0.860360	-0.041169
C66	C	0.024622	1.360360	0.458831
C67	C	-0.452519	0.932943	-0.044651
C68	C	0.047481	1.432943	0.455349
C69	C	-0.466198	1.077110	-0.051560
C70	C	0.033802	1.577110	0.448440
C71	C	-0.406799	1.078097	-0.051613
C72	C	0.093201	1.578097	0.448387
C73	C	-0.370259	1.006508	-0.048185
C74	C	0.129741	1.506508	0.451815
C75	C	-0.393119	0.933930	-0.044704
C76	C	0.106881	1.433930	0.455296
C77	C	-0.438835	0.788765	-0.037735
C78	C	0.061165	1.288765	0.462265
C79	C	-0.379429	0.789760	-0.037783
C80	C	0.120571	1.289760	0.462217
C81	C	-0.356570	0.862343	-0.041264
C82	C	0.143430	1.362343	0.458736
C83	C	-0.297180	0.863328	-0.041329
C84	C	0.202820	1.363328	0.458671
N85	N	-0.274318	0.935906	-0.044804
N86	N	0.225682	1.435906	0.455196
C87	C	-0.310857	1.007496	-0.048232
C88	C	0.189143	1.507496	0.451768
C89	C	-0.659530	0.857301	-0.041021
C90	C	-0.159530	1.357301	0.458979
C91	C	-0.718931	0.856311	-0.040978
C92	C	-0.218931	1.356311	0.459022
C93	C	-0.732608	1.000485	-0.047882
C94	C	-0.232608	1.500485	0.452118
C95	C	-0.673206	1.001474	-0.047930
C96	C	-0.173206	1.501474	0.452070
C97	C	-0.636667	0.929879	-0.044496
C98	C	-0.136667	1.429879	0.455504
C99	C	-0.186114	1.009564	-0.048344
C100	C	0.313886	1.509564	0.451656
C101	C	-0.126708	1.010546	-0.048399
C102	C	0.373292	1.510546	0.451601
C103	C	-0.113036	0.866372	-0.041491
C104	C	0.386964	1.366372	0.458509
C105	C	-0.172436	0.865390	-0.041439
C106	C	0.327564	1.365390	0.458561
C107	C	-0.208974	0.936993	-0.044864
C108	C	0.291026	1.436993	0.455136
O109	O	-0.260599	0.802569	-0.038438
O110	O	0.239401	1.302569	0.461562
O111	O	-0.285948	1.069310	-0.051186
O112	O	0.214052	1.569310	0.448814
C113	C	0.181304	0.926838	-0.044360
C114	C	0.681304	1.426838	0.455640
C115	C	0.244525	0.927902	-0.044402
C116	C	0.744525	1.427902	0.455598
C117	C	0.072902	1.078023	-0.051613
C118	C	0.572902	1.578023	0.448387
C119	C	0.073954	1.165791	-0.055812
C120	C	0.573954	1.665791	0.444188
N121	N	0.077197	0.933401	-0.197943
N122	N	0.577197	1.433401	0.302057
C123	C	0.038415	0.987504	-0.609180
C124	C	0.538415	1.487504	-0.109180
C125	C	0.038411	0.987508	-0.671101
C126	C	0.538411	1.487508	-0.171101
O127	O	0.005445	1.033474	-0.705325
O128	O	0.505445	1.533474	-0.205325
N129	N	0.077158	0.933442	-0.699482
N130	N	0.577158	1.433442	-0.199482
C131	C	0.115907	0.879364	-0.665940
C132	C	0.615907	1.379364	-0.165940
O133	O	0.148864	0.833377	-0.695767
O134	O	0.648864	1.333377	-0.195767
C135	C	0.115908	0.879357	-0.604021
C136	C	0.615908	1.379357	-0.104021
C137	C	0.077163	0.933431	-0.575643
C138	C	0.577163	1.433431	-0.075643
C139	C	-0.000328	1.041573	-0.580802
C140	C	0.499672	1.541573	-0.080802
C141	C	-0.000323	1.041570	-0.518886
C142	C	0.499677	1.541570	-0.018886
C143	C	0.038425	0.987497	-0.485349
C144	C	0.538425	1.487497	0.014651
C145	C	0.077168	0.933428	-0.513727
C146	C	0.577168	1.433428	-0.013727
C147	C	0.154655	0.825275	-0.570480
C148	C	0.654655	1.325275	-0.070480
C149	C	0.154652	0.825272	-0.508557
C150	C	0.654652	1.325272	-0.008557
C151	C	0.115907	0.879347	-0.480179
C152	C	0.615907	1.379347	0.019821
C153	C	0.115921	0.879352	-0.418274
C154	C	0.615921	1.379352	0.081726
N155	N	0.077174	0.933417	-0.389892
N156	N	0.577174	1.433417	0.110108
C157	C	0.038426	0.987490	-0.423430
C158	C	0.538426	1.487490	0.076570
C159	C	0.115902	0.879382	-0.795975
C160	C	0.615902	1.379382	-0.295975
C161	C	0.115904	0.879393	-0.857893
C162	C	0.615904	1.379393	-0.357893
C163	C	0.038406	0.987536	-0.863049
C164	C	0.538406	1.487536	-0.363049
C165	C	0.038407	0.987528	-0.801130
C166	C	0.538407	1.487528	-0.301130
C167	C	0.077155	0.933448	-0.767593
C168	C	0.577155	1.433448	-0.267593
C169	C	0.038439	0.987479	-0.293402
C170	C	0.538439	1.487479	0.206598
C171	C	0.038449	0.987473	-0.231480
C172	C	0.538449	1.487473	0.268520
C173	C	0.115945	0.879328	-0.226330
C174	C	0.615945	1.379328	0.273670
C175	C	0.115937	0.879336	-0.288246
C176	C	0.615937	1.379336	0.211754
C177	C	0.077180	0.933415	-0.321781
C178	C	0.577180	1.433415	0.178219
O179	O	0.148868	0.833407	-0.384011
O180	O	0.648868	1.333407	0.115989
O181	O	0.005470	1.033462	-0.393595
O182	O	0.505470	1.533462	0.106405
N183	N	0.077154	0.933463	0.108564
N184	N	0.577154	1.433463	0.608564
H185	H	0.078508	0.543787	-0.123318
H186	H	0.578508	1.043787	0.376682
H187	H	0.186205	0.781231	-0.481254
H188	H	0.686205	1.281231	0.018746
H189	H	0.075865	0.323041	-0.160626
H190	H	0.575865	0.823041	0.339374
H191	H	0.006879	1.031514	-0.320699
H192	H	0.506879	1.531514	0.179301
C193	C	-0.762577	1.123062	-0.104314
C194	C	-0.262577	1.623062	0.395686
C195	C	-0.772782	1.079179	-0.051645
C196	C	-0.272782	1.579179	0.448355
H197	H	-0.787383	1.171638	-0.106637
H198	H	-0.287383	1.671638	0.393363
H199	H	-0.723935	1.134046	-0.104838
H200	H	-0.223935	1.634046	0.395162
H201	H	-0.769503	1.093267	-0.137187
H202	H	-0.269503	1.593267	0.362813
H203	H	-0.765852	1.108973	-0.018772
H204	H	-0.265852	1.608973	0.481228
H205	H	-0.811434	1.068197	-0.051115
H206	H	-0.311434	1.568197	0.448885
H207	H	-0.031884	1.085605	-0.608103
H208	H	0.468116	1.585605	-0.108103
C209	C	0.074575	0.215284	-0.217815
C210	C	0.574575	0.715284	0.282185
C211	C	0.073922	0.161685	-0.168184
C212	C	0.573922	0.661685	0.331816
H213	H	0.074245	0.187297	-0.252865
H214	H	0.574245	0.687297	0.247135
H215	H	0.041770	0.253740	-0.217428
H216	H	0.541770	0.753740	0.282572
H217	H	0.108159	0.241156	-0.216814
H218	H	0.608159	0.741156	0.283186
H219	H	0.040336	0.135817	-0.169183
H220	H	0.540336	0.635817	0.330817
H221	H	0.106731	0.123214	-0.168572
H222	H	0.606731	0.623214	0.331428
H223	H	-0.083275	0.808085	-0.038702
H224	H	0.416725	1.308085	0.461298
C225	C	0.078983	0.585687	0.131597
C226	C	0.578983	1.085687	0.631597
C227	C	0.078345	0.532070	0.087098
C228	C	0.578345	1.032070	0.587098
H229	H	0.078641	0.557713	0.169325
H230	H	0.578641	1.057713	0.669325
H231	H	0.112562	0.611559	0.128130
H232	H	0.612562	1.111559	0.628130
H233	H	0.046172	0.624144	0.127518
H234	H	0.546172	1.124144	0.627518
H235	H	0.111159	0.493617	0.091174
H236	H	0.611159	0.993617	0.591174
H237	H	0.044763	0.506185	0.090566
H238	H	0.544763	1.006185	0.590566
H239	H	0.006855	1.031563	-0.890366
H240	H	0.506855	1.531563	-0.390366
C241	C	0.074526	0.215327	0.101453
C242	C	0.574526	0.715327	0.601453
C243	C	0.073891	0.161716	0.056951
C244	C	0.573891	0.661716	0.556951
H245	H	0.074184	0.187348	0.139180
H246	H	0.574184	0.687348	0.639180
H247	H	0.108103	0.241202	0.097989
H248	H	0.608103	0.741202	0.597989
H249	H	0.041713	0.253782	0.097377
H250	H	0.541713	0.753782	0.597377
H251	H	0.106706	0.123264	0.061025
H252	H	0.606706	0.623264	0.561025
H253	H	0.040310	0.135827	0.060416
H254	H	0.540310	0.635827	0.560416
C255	C	-0.260839	1.092131	-0.001725
C256	C	0.239161	1.592131	0.498275
C257	C	-0.226270	1.088271	-0.052111
C258	C	0.273730	1.588271	0.447889
H259	H	-0.285627	1.140724	-0.004053
H260	H	0.214373	1.640724	0.495947
H261	H	-0.282961	1.048778	0.000351
H262	H	0.217039	1.548778	0.500351
H263	H	-0.237374	1.089524	0.032698
H264	H	0.262626	1.589524	0.532698
H265	H	-0.249735	1.090872	-0.086533
H266	H	0.250265	1.590872	0.413467
H267	H	-0.204147	1.131637	-0.054192
H268	H	0.295853	1.631637	0.445808
H269	H	0.075827	0.323071	0.033949
H270	H	0.575827	0.823071	0.533949
C271	C	-0.614344	1.086241	-0.001421
C272	C	-0.114344	1.586241	0.498579
C273	C	-0.648079	1.081257	-0.051751
C274	C	-0.148079	1.581257	0.448249
H275	H	-0.598832	1.135496	-0.003782
H276	H	-0.098832	1.635496	0.496218
H277	H	-0.637235	1.082867	0.033036
H278	H	-0.137235	1.582867	0.533036
H279	H	-0.584079	1.043745	0.000609
H280	H	-0.084079	1.543745	0.500609
H281	H	-0.678347	1.123749	-0.053778
H282	H	-0.178347	1.623749	0.446222
H283	H	-0.625187	1.084639	-0.086217
H284	H	-0.125187	1.584639	0.413783
H285	H	0.147495	0.835305	-0.199014
H286	H	0.647495	1.335305	0.300986
C287	C	-0.146204	1.152960	-0.055214
C288	C	0.353796	1.652960	0.444786
C289	C	-0.101583	1.090334	-0.052221
C290	C	0.398417	1.590334	0.447779
H291	H	-0.130693	1.202215	-0.057569
H292	H	0.369307	1.702215	0.442431
H293	H	-0.169089	1.149569	-0.089351
H294	H	0.330911	1.649569	0.410649
H295	H	-0.169087	1.149573	-0.020744
H296	H	0.330913	1.649573	0.479256
H297	H	-0.078703	1.093718	-0.086693
H298	H	0.421297	1.593718	0.413307
H299	H	-0.078689	1.093727	-0.018080
H300	H	0.421311	1.593727	0.481920
H301	H	0.080290	0.693424	0.064094
H302	H	0.580290	1.193424	0.564094
C303	C	0.079821	0.651519	-0.190820
C304	C	0.579821	1.151519	0.309180
C305	C	0.080465	0.705136	-0.146322
C306	C	0.580465	1.205136	0.353678
H307	H	0.080156	0.679493	-0.228549
H308	H	0.580156	1.179493	0.271451
H309	H	0.112626	0.613065	-0.186746
H310	H	0.612626	1.113065	0.313254
H311	H	0.046237	0.625647	-0.187348
H312	H	0.546237	1.125647	0.312652
H313	H	0.114051	0.731004	-0.149791
H314	H	0.614051	1.231004	0.350209
H315	H	0.047656	0.743604	-0.150398
H316	H	0.547656	1.243604	0.349602
C317	C	-0.426303	1.220503	-0.058426
C318	C	0.073697	1.720503	0.441574
C319	C	-0.381678	1.157884	-0.055432
C320	C	0.118322	1.657884	0.444568
H321	H	-0.410796	1.269761	-0.060779
H322	H	0.089204	1.769761	0.439221
H323	H	-0.449185	1.217109	-0.092565
H324	H	0.050815	1.717109	0.407435
H325	H	-0.449187	1.217111	-0.023958
H326	H	0.050813	1.717111	0.476042
H327	H	-0.358796	1.161272	-0.089903
H328	H	0.141204	1.661272	0.410097
H329	H	-0.358786	1.161279	-0.021290
H330	H	0.141214	1.661279	0.478710
C331	C	-0.540932	1.159635	-0.106080
C332	C	-0.040932	1.659635	0.393920
C333	C	-0.506359	1.155809	-0.055329
C334	C	-0.006359	1.655809	0.444671
H335	H	-0.565725	1.208222	-0.108407
H336	H	-0.065725	1.708222	0.391593
H337	H	-0.517472	1.157012	-0.140251
H338	H	-0.017472	1.657012	0.359749
H339	H	-0.563052	1.116272	-0.103995
H340	H	-0.063052	1.616272	0.396005
H341	H	-0.484236	1.199170	-0.057416
H342	H	0.015764	1.699170	0.442584
H343	H	-0.529822	1.158440	-0.021150
H344	H	-0.029822	1.658440	0.478850
H345	H	-0.737537	0.797207	-0.038153
H346	H	-0.237537	1.297207	0.461847
C347	C	-0.651986	0.714690	-0.034201
C348	C	-0.151986	1.214690	0.465799
C349	C	-0.619368	0.778596	-0.037258
C350	C	-0.119368	1.278596	0.462742
H351	H	-0.627193	0.666103	-0.031882
H352	H	-0.127193	1.166103	0.468118
H353	H	-0.675437	0.717312	-0.000024
H354	H	-0.175437	1.217312	0.499976
H355	H	-0.675443	0.717310	-0.068631
H356	H	-0.175443	1.217310	0.431369
H357	H	-0.595914	0.775979	-0.002826
H358	H	-0.095914	1.275979	0.497174
H359	H	-0.595907	0.775973	-0.071439
H360	H	-0.095907	1.275973	0.428561
H361	H	-0.457436	0.729661	-0.034896
H362	H	0.042564	1.229661	0.465104
H363	H	-0.349681	0.731458	-0.034986
H364	H	0.150319	1.231458	0.465014
H365	H	-0.191049	0.806287	-0.038621
H366	H	0.308951	1.306287	0.461379
C367	C	-0.038158	1.094368	-0.242806
C368	C	0.461842	1.594368	0.257194
C369	C	-0.004146	1.046912	-0.200288
C370	C	0.495854	1.546912	0.299712
H371	H	-0.064456	1.131057	-0.223549
H372	H	0.435544	1.631057	0.276451
H373	H	-0.014464	1.122620	-0.268305
H374	H	0.485536	1.622620	0.231695
H375	H	-0.058629	1.061609	-0.265392
H376	H	0.441371	1.561609	0.234608
H377	H	0.016329	1.079671	-0.177705
H378	H	0.516329	1.579671	0.322295
H379	H	-0.027843	1.018658	-0.174779
H380	H	0.472157	1.518658	0.325221
H381	H	-0.031875	1.085599	-0.495784
H382	H	0.468125	1.585599	0.004216
H383	H	0.006857	1.031560	-0.778028
H384	H	0.506857	1.531560	-0.278028
C385	C	0.192505	0.772498	-0.846561
C386	C	0.692505	1.272498	-0.346561
C387	C	0.158498	0.819956	-0.889082
C388	C	0.658498	1.319956	-0.389082
H389	H	0.218796	0.735798	-0.865816
H390	H	0.718796	1.235798	-0.365816
H391	H	0.212978	0.805248	-0.823979
H392	H	0.712978	1.305248	-0.323979
H393	H	0.168802	0.744251	-0.821059
H394	H	0.668802	1.244251	-0.321059
H395	H	0.182200	0.848208	-0.914582
H396	H	0.682200	1.348208	-0.414582
H397	H	0.138023	0.787202	-0.911675
H398	H	0.638023	1.287202	-0.411675
C399	C	0.193428	0.861601	-0.725501
C400	C	0.693428	1.361601	-0.225501
C401	C	0.158505	0.819942	-0.759113
C402	C	0.658505	1.319942	-0.259113
H403	H	0.219726	0.824904	-0.702744
H404	H	0.719726	1.324904	-0.202744
H405	H	0.213894	0.894351	-0.751220
H406	H	0.713894	1.394351	-0.251220
H407	H	0.170348	0.893791	-0.699734
H408	H	0.670348	1.393791	-0.199734
H409	H	0.181584	0.787756	-0.784883
H410	H	0.681584	1.287756	-0.284883
H411	H	0.138038	0.787179	-0.733391
H412	H	0.638038	1.287179	-0.233391
H413	H	0.186205	0.781243	-0.593577
H414	H	0.686205	1.281243	-0.093577
C415	C	0.192534	0.772432	-0.276926
C416	C	0.692534	1.272432	0.223074
C417	C	0.158524	0.819895	-0.319443
C418	C	0.658524	1.319895	0.180557
H419	H	0.218819	0.735727	-0.296184
H420	H	0.718819	1.235727	0.203816
H421	H	0.213014	0.805179	-0.254349
H422	H	0.713014	1.305179	0.245651
H423	H	0.168832	0.744192	-0.251418
H424	H	0.668832	1.244192	0.248582
H425	H	0.182225	0.848140	-0.344948
H426	H	0.682225	1.348140	0.155052
H427	H	0.138042	0.787144	-0.342030
H428	H	0.638042	1.287144	0.157970
