data_functionalizedCrystal
_audit_creation_method	'MofGen! by Chris Wilmer'
_symmetry_space_group_name_H-M	'P1'
_symmetry_Int_Tables_number	1
_symmetry_cell_setting	triclinic
loop_
_symmetry_equiv_pos_as_xyz
  x,y,z
_cell_length_a	17.640968
_cell_length_b	15.297621
_cell_length_c	15.297327
_cell_angle_alpha	91.624289
_cell_angle_beta	89.709185
_cell_angle_gamma	112.534816
loop_
_atom_site_label
_atom_site_type_symbol
_atom_site_fract_x
_atom_site_fract_y
_atom_site_fract_z
Zn1	Zn	-0.737211	-1.472459	0.444296
Zn2	Zn	-0.622015	-1.416715	0.612090
Zn3	Zn	-0.577142	-1.283906	0.448579
Zn4	Zn	-0.729399	-1.298549	0.566771
O5	O	-0.666442	-1.367907	0.517934
O6	O	-0.743979	-1.593427	0.483728
O7	O	-0.504133	-1.369640	0.611159
O8	O	-0.582865	-1.326118	0.328325
O9	O	-0.659345	-1.552472	0.607006
O10	O	-0.700467	-1.464648	0.325178
O11	O	-0.471165	-1.272066	0.491029
O12	O	-0.575291	-1.157485	0.447084
O13	O	-0.842365	-1.351076	0.529765
O14	O	-0.687154	-1.168243	0.533919
O15	O	-0.848105	-1.478846	0.439783
O16	O	-0.651770	-1.383839	0.725765
O17	O	-0.730665	-1.297023	0.692468
C18	C	-0.625506	-1.129581	0.486049
C19	C	-0.608015	-1.027626	0.472425
C20	C	-0.791415	-0.762606	0.615280
C21	C	-0.807848	-0.858396	0.628087
C22	C	-0.757891	-0.900709	0.589172
C23	C	-0.691499	-0.847221	0.537449
C24	C	-0.675061	-0.751420	0.524647
C25	C	-0.641537	-0.889522	0.498539
C26	C	-0.575145	-0.836035	0.446816
C27	C	-0.558711	-0.740243	0.434016
C28	C	-0.608667	-0.697931	0.472930
C29	C	-0.657975	-0.985324	0.511342
C30	C	-0.541621	-0.974137	0.420709
C31	C	-0.525189	-0.878347	0.407902
C32	C	-0.875069	-1.422812	0.479241
C33	C	-0.963973	-1.446210	0.462752
C34	C	-1.241435	-1.190578	0.642779
C35	C	-1.324975	-1.212584	0.627277
C36	C	-1.330941	-1.345621	0.533587
C37	C	-1.247398	-1.323623	0.549077
C38	C	-1.202651	-1.246101	0.603675
C39	C	-1.208614	-1.379146	0.509974
C40	C	-1.125079	-1.357152	0.525467
C41	C	-1.080328	-1.279636	0.580064
C42	C	-1.119116	-1.224107	0.619168
C43	C	-1.253363	-1.456671	0.455381
C44	C	-1.214580	-1.512194	0.416277
C45	C	-1.131042	-1.490197	0.431766
C46	C	-1.086291	-1.412680	0.486363
C47	C	-1.092254	-1.545725	0.392661
C48	C	-1.008719	-1.523732	0.408155
C49	C	-1.002756	-1.390687	0.501856
C50	C	-0.458628	-1.313277	0.556422
C51	C	-0.369724	-1.290092	0.572693
C52	C	-0.695261	-1.336001	0.740150
C53	C	-0.707631	-1.322442	0.835221
C54	C	-0.707531	-0.607163	0.549939
C55	C	-0.725021	-0.709117	0.563563
C56	C	-0.637532	-1.399968	0.294851
C57	C	-0.625213	-1.413630	0.199786
C58	C	-0.578369	-1.465263	1.172429
C59	C	-0.566742	-1.478001	1.083106
C60	C	-0.601964	-1.439113	1.021130
C61	C	-0.648813	-1.387484	1.048487
C62	C	-0.660436	-1.374739	1.137819
C63	C	-0.684031	-1.348588	0.986520
C64	C	-0.730880	-1.296959	1.013877
C65	C	-0.742501	-1.284217	1.103200
C66	C	-0.707279	-1.323105	1.165176
C67	C	-0.672408	-1.361333	0.897188
C68	C	-0.754475	-1.270808	0.862578
C69	C	-0.766101	-1.258071	0.951901
H70	H	-0.966315	-1.327542	0.546291
H71	H	-0.549691	-1.496914	1.222896
F72	F	-0.991423	-1.256231	0.596558
F73	F	-1.071487	-1.141593	0.677270
F74	F	-1.262211	-1.594698	0.358176
H75	H	-0.783153	-1.239140	0.812117
F76	F	-0.792358	-1.229264	1.132312
F77	F	-0.454531	-0.821412	0.352856
F78	F	-0.589794	-1.452912	0.926059
H79	H	-0.804247	-1.216034	0.974188
H80	H	-0.716745	-1.312740	1.237912
H81	H	-0.712032	-1.028864	0.553454
H82	H	-0.500941	-1.008587	0.389023
F83	F	-1.139889	-1.628234	0.334566
F84	F	-1.193805	-1.108063	0.700880
H85	H	-0.977141	-1.568943	0.376311
F86	F	-1.366248	-1.153481	0.668899
F87	F	-0.622549	-1.416278	0.868083
H88	H	-0.528597	-1.520036	1.060835
F89	F	-0.591185	-0.595981	0.459297
H90	H	-1.367385	-1.408741	0.489136
H91	H	-0.771275	-0.978706	0.599602
H92	H	-0.861903	-0.901938	0.670202
H93	H	-0.504643	-0.696693	0.391910
F94	F	-0.844562	-0.717562	0.656707
H95	H	-1.321383	-1.474578	0.442771
