data_functionalizedCrystal
_audit_creation_method	'MofGen! by Chris Wilmer'
_symmetry_space_group_name_H-M	'P1'
_symmetry_Int_Tables_number	1
_symmetry_cell_setting	triclinic
loop_
_symmetry_equiv_pos_as_xyz
  x,y,z
_cell_length_a	10.654541
_cell_length_b	14.853567
_cell_length_c	9.130307
_cell_angle_alpha	90.000499
_cell_angle_beta	89.999822
_cell_angle_gamma	84.059429
loop_
_atom_site_label
_atom_site_type_symbol
_atom_site_fract_x
_atom_site_fract_y
_atom_site_fract_z
O1	O	1.666523	0.126614	-0.121741
O2	O	1.300919	0.138681	-0.121752
O3	O	1.493487	0.001470	-0.121751
O4	O	1.473955	0.263825	-0.121743
O5	O	1.493481	0.001468	0.121848
O6	O	1.300913	0.138679	0.121847
O7	O	1.666517	0.126613	0.121858
Cu8	Cu	1.483714	0.132646	0.144095
Cu9	Cu	1.483722	0.132648	-0.143989
O10	O	1.473949	0.263824	0.121856
C11	C	1.254127	0.137794	0.000045
C12	C	1.114711	0.135145	0.000040
C13	C	1.085036	0.299218	0.000027
C14	C	1.004702	0.380006	0.000015
C15	C	0.873710	0.377511	0.000013
C16	C	0.823050	0.294219	0.000029
C17	C	0.903383	0.213431	0.000041
C18	C	1.034377	0.215935	0.000038
C19	C	0.933059	0.049360	0.000065
C20	C	1.064051	0.051853	0.000056
C21	C	0.882399	-0.033931	0.000080
C22	C	0.962733	-0.114721	0.000082
C23	C	1.093732	-0.112223	0.000082
C24	C	1.144385	-0.028935	0.000068
C25	C	1.492599	-0.032124	0.000044
C26	C	1.489947	-0.132222	0.000032
C27	C	1.364347	-0.545428	0.000056
C28	C	1.593122	-0.565485	0.000063
C29	C	1.595615	-0.471438	0.000054
C30	C	1.482473	-0.414381	0.000048
C31	C	1.366837	-0.451372	0.000051
C32	C	1.711250	-0.434441	0.000066
C33	C	1.713748	-0.340388	0.000059
C34	C	1.600604	-0.283330	0.000043
C35	C	1.484963	-0.320325	0.000044
C36	C	1.371821	-0.263268	0.000039
C37	C	1.256178	-0.300262	0.000029
C38	C	1.253693	-0.394313	0.000035
C39	C	1.603089	-0.189279	0.000037
C40	C	1.374311	-0.169212	0.000035
C41	C	1.713309	0.127499	0.000057
C42	C	1.852725	0.130148	0.000052
C43	C	1.474837	0.297418	0.000058
C44	C	1.477489	0.397516	0.000061
N45	N	1.483718	0.132644	0.346718
N46	N	1.483728	0.132642	-0.346612
C47	C	1.654307	0.011180	0.346709
C48	C	1.739609	-0.049550	0.423371
C49	C	1.739622	-0.049550	0.576705
C50	C	1.654320	0.011183	0.653379
C51	C	1.569018	0.071913	0.576717
C52	C	1.569017	0.071909	0.423380
C53	C	1.398425	0.193372	0.576726
C54	C	1.398417	0.193378	0.423392
C55	C	1.313124	0.254105	0.653400
C56	C	1.227825	0.314841	0.576738
C57	C	1.227817	0.314840	0.423395
C58	C	1.313114	0.254108	0.346730
H59	H	0.808301	0.443295	0.000013
H60	H	1.164058	-0.253794	0.000035
H61	H	1.045964	0.447820	0.000006
C62	C	1.135159	0.380627	0.660173
C63	C	1.058240	0.332077	0.748226
C64	C	0.972872	0.392650	0.825128
H65	H	1.084233	0.416826	0.592731
H66	H	1.180361	0.418443	0.720079
H67	H	1.013041	0.294277	0.688325
H68	H	1.109130	0.295882	0.815695
H69	H	1.018074	0.430467	0.885034
H70	H	0.921956	0.428846	0.757676
H71	H	0.920680	0.359719	0.884891
H72	H	1.807910	-0.310277	0.000065
H73	H	1.159543	-0.424442	0.000029
H74	H	1.654315	0.011182	0.221857
C75	C	0.907901	-0.205207	-0.000130
C76	C	0.948730	-0.254108	-0.125437
C77	C	0.898254	-0.337473	-0.125676
H78	H	0.818387	-0.195250	-0.000199
H79	H	0.935504	-0.238552	0.084775
H80	H	0.921120	-0.220770	-0.210320
H81	H	1.038237	-0.264089	-0.125395
H82	H	0.925856	-0.370818	-0.040772
H83	H	0.808741	-0.327507	-0.125741
H84	H	0.925957	-0.370666	-0.210688
C85	C	1.832077	-0.115608	0.340159
C86	C	1.811596	-0.204356	0.377381
C87	C	1.896740	-0.265223	0.300728
H88	H	1.915957	-0.105365	0.365207
H89	H	1.819830	-0.106949	0.237854
H90	H	1.823854	-0.213011	0.479664
H91	H	1.727734	-0.214628	0.352329
H92	H	1.884492	-0.256564	0.198422
H93	H	1.980614	-0.254972	0.325782
H94	H	1.882847	-0.325445	0.325961
H95	H	1.685237	-0.611946	0.000079
C96	C	1.832295	-0.115343	0.660130
C97	C	1.909224	-0.066799	0.748180
C98	C	1.994597	-0.127377	0.825063
H99	H	1.883213	-0.151539	0.592676
H100	H	1.787098	-0.153161	0.720035
H101	H	1.954418	-0.028996	0.688279
H102	H	1.858341	-0.030606	0.815660
H103	H	1.949400	-0.165196	0.884969
H104	H	2.045506	-0.163570	0.757599
H105	H	2.046796	-0.094449	0.884824
H106	H	1.270193	-0.575552	0.000042
H107	H	1.697243	-0.159163	0.000054
H108	H	1.654325	0.011172	0.778232
C109	C	1.135144	0.380878	0.340431
C110	C	1.060472	0.434074	0.440404
C111	C	0.975099	0.494927	0.364039
H112	H	1.082699	0.348200	0.280611
H113	H	1.180338	0.418766	0.280647
H114	H	1.015281	0.396191	0.500163
H115	H	1.112883	0.466772	0.500228
H116	H	1.020293	0.532815	0.304255
H117	H	0.922662	0.462241	0.304221
H118	H	0.924432	0.531033	0.431858
H119	H	1.803364	-0.480903	0.000084
H120	H	1.313120	0.254104	0.221877
H121	H	1.191695	0.301257	-0.000004
H122	H	0.716388	0.292195	0.000045
H123	H	0.775737	-0.035957	0.000087
H124	H	1.251043	-0.026892	0.000051
H125	H	1.159134	-0.178011	0.000098
H126	H	1.282175	-0.122762	0.000024
H127	H	1.313132	0.254099	0.778252
