data_functionalizedCrystal
_audit_creation_method	'MofGen! by Chris Wilmer'
_symmetry_space_group_name_H-M	'P1'
_symmetry_Int_Tables_number	1
_symmetry_cell_setting	triclinic
loop_
_symmetry_equiv_pos_as_xyz
  x,y,z
_cell_length_a	10.654546
_cell_length_b	10.654559
_cell_length_c	9.130313
_cell_angle_alpha	90.001323
_cell_angle_beta	90.007851
_cell_angle_gamma	95.513896
loop_
_atom_site_label
_atom_site_type_symbol
_atom_site_fract_x
_atom_site_fract_y
_atom_site_fract_z
O1	O	-1.667842	0.176372	-0.122049
O2	O	-1.302364	0.193183	-0.121994
O3	O	-1.493500	0.002039	-0.122023
O4	O	-1.476706	0.367516	-0.122020
O5	O	-1.493498	0.002044	0.121576
O6	O	-1.302362	0.193188	0.121605
O7	O	-1.667840	0.176377	0.121550
Cu8	Cu	-1.485101	0.184783	0.143820
Cu9	Cu	-1.485103	0.184777	-0.144264
O10	O	-1.476704	0.367521	0.121578
C11	C	-1.255565	0.191952	-0.000188
C12	C	-1.116121	0.188262	-0.000167
C13	C	-1.036639	0.300804	-0.000182
C14	C	-0.905618	0.297329	-0.000196
C15	C	-0.933574	0.068760	-0.000188
C16	C	-1.064592	0.072236	-0.000163
C17	C	-1.020498	0.432766	-0.000193
C18	C	-0.889477	0.429291	-0.000208
C19	C	-0.714639	0.177611	-0.000239
C20	C	-0.854081	0.181310	-0.000207
C21	C	-1.492263	-0.044756	-0.000226
C22	C	-1.488567	-0.184199	-0.000235
C23	C	-1.372554	-0.235737	-0.000221
C24	C	-1.369089	-0.366760	-0.000210
C25	C	-1.597658	-0.394695	-0.000232
C26	C	-1.601123	-0.263675	-0.000233
C27	C	-1.240591	-0.219610	-0.000215
C28	C	-1.237126	-0.350633	-0.000204
C29	C	-1.477940	0.414316	-0.000221
C30	C	-1.481637	0.553759	-0.000222
N31	N	-1.485108	0.184787	0.346442
N32	N	-1.485106	0.184763	-0.346887
C33	C	-1.569765	0.100177	0.423082
C34	C	-1.569761	0.100162	0.576419
C35	C	-1.400440	0.269377	0.576463
C36	C	-1.400438	0.269385	0.423129
C37	C	-1.667525	0.002486	0.423057
C38	C	-1.667522	0.002471	0.576394
H39	H	-0.847747	0.479011	-0.102157
H40	H	-1.758710	0.033073	0.375485
H41	H	-1.646079	-0.094046	0.381440
H42	H	-1.695591	-0.221718	-0.000225
O43	O	-1.193257	-0.165128	-0.125774
C44	C	-1.233340	-0.040378	-0.337826
C45	C	-1.287100	-0.102032	-0.195678
H46	H	-1.309179	0.010673	-0.394369
H47	H	-1.201744	-0.116181	-0.413847
H48	H	-1.149253	0.030096	-0.310434
H49	H	-1.371224	-0.172495	-0.222933
H50	H	-1.318610	-0.026158	-0.119698
H51	H	-1.195073	-0.386257	0.104973
O52	O	-1.631187	-0.106469	0.632894
C53	C	-1.562751	-0.311096	0.581992
C54	C	-1.603884	-0.187795	0.517808
H55	H	-1.540640	-0.376871	0.488976
H56	H	-1.642053	-0.358706	0.652181
H57	H	-1.475016	-0.288948	0.652354
H58	H	-1.691591	-0.209834	0.447379
H59	H	-1.524508	-0.140220	0.447702
H60	H	-1.331493	0.338270	0.360731
O61	O	-1.782711	0.028202	0.625792
C62	C	-1.992645	0.074928	0.561742
C63	C	-1.862249	0.045835	0.505601
H64	H	-2.056995	0.089167	0.464597
H65	H	-1.982031	0.164311	0.631073
H66	H	-2.035468	-0.007254	0.631137
H67	H	-1.819353	0.127939	0.436146
H68	H	-1.872944	-0.043590	0.436349
H69	H	-1.129303	-0.019407	-0.000130
H70	H	-1.049830	0.484378	0.101756
O71	O	-0.883663	-0.044018	-0.000389
C72	C	-0.867434	-0.240410	-0.126640
C73	C	-0.924061	-0.112743	-0.126574
H74	H	-0.900053	-0.295999	-0.228665
H75	H	-0.900100	-0.296166	-0.024760
H76	H	-0.760141	-0.223533	-0.126585
H77	H	-1.031357	-0.129505	-0.126681
H78	H	-0.891296	-0.057028	-0.228446
O79	O	-1.318077	0.351599	0.650733
C80	C	-1.150180	0.519485	0.634591
C81	C	-1.243371	0.426415	0.550304
H82	H	-1.089774	0.580015	0.553432
H83	H	-1.086887	0.464730	0.706335
H84	H	-1.204961	0.582672	0.706424
H85	H	-1.188692	0.363205	0.478392
H86	H	-1.306664	0.481248	0.478653
O87	O	-0.835176	0.476962	0.125319
C88	C	-0.867374	0.569927	0.361303
C89	C	-0.929030	0.516008	0.219209
H90	H	-0.943229	0.601486	0.437265
H91	H	-0.796894	0.654025	0.333993
H92	H	-0.816348	0.494094	0.417888
H93	H	-0.980124	0.591750	0.162554
H94	H	-0.999441	0.431881	0.246613
O95	O	-1.181273	-0.170003	0.121510
C96	C	-1.069561	-0.211233	0.343201
C97	C	-1.136727	-0.267582	0.205433
H98	H	-1.033504	-0.290096	0.411076
H99	H	-1.138626	-0.160255	0.411273
H100	H	-0.986745	-0.141606	0.309185
H101	H	-1.219537	-0.337260	0.239318
H102	H	-1.067580	-0.318482	0.137395
H103	H	-1.056156	0.474782	-0.105368
H104	H	-1.689297	-0.459419	-0.000229
H105	H	-1.185516	-0.380002	-0.102136
