data_functionalizedCrystal
_audit_creation_method	'MofGen! by Chris Wilmer'
_symmetry_space_group_name_H-M	'P1'
_symmetry_Int_Tables_number	1
_symmetry_cell_setting	triclinic
loop_
_symmetry_equiv_pos_as_xyz
  x,y,z
_cell_length_a	10.868271
_cell_length_b	10.654550
_cell_length_c	10.654550
_cell_angle_alpha	84.484931
_cell_angle_beta	89.995020
_cell_angle_gamma	89.998935
loop_
_atom_site_label
_atom_site_type_symbol
_atom_site_fract_x
_atom_site_fract_y
_atom_site_fract_z
O1	O	0.102230	-1.667841	-0.176400
O2	O	0.102253	-1.302362	-0.193206
O3	O	0.102233	-1.493505	-0.002064
O4	O	0.102250	-1.476699	-0.367542
O5	O	-0.102412	-1.493489	-0.002056
O6	O	-0.102392	-1.302346	-0.193198
O7	O	-0.102415	-1.667825	-0.176392
Zn8	Zn	-0.134895	-1.485083	-0.184794
Zn9	Zn	0.134733	-1.485104	-0.184804
O10	O	-0.102395	-1.476683	-0.367534
C11	C	-0.000067	-1.255556	-0.191968
C12	C	-0.000058	-1.116113	-0.188276
N13	N	-0.318909	-1.485078	-0.184786
C14	C	-0.000092	-1.714631	-0.177630
C15	C	-0.000093	-1.854074	-0.181322
C16	C	-0.569915	-1.485098	-0.184801
C17	C	-0.430238	-1.485083	-0.184797
N18	N	0.318747	-1.485119	-0.184802
C19	C	-0.000089	-1.492263	0.044738
C20	C	-0.000086	-1.488571	0.184181
C21	C	-0.000057	-1.036628	-0.300818
C22	C	-0.000078	-0.905607	-0.297341
C23	C	-0.000098	-0.933570	-0.068772
C24	C	-0.000085	-1.064588	-0.072250
C25	C	-0.000071	-1.477925	-0.414336
C26	C	-0.000065	-1.481616	-0.553779
C27	C	-0.000093	-1.601112	0.263667
C28	C	-0.000078	-1.597636	0.394688
C29	C	-0.000055	-1.369066	0.366725
C30	C	-0.000061	-1.372544	0.235706
H31	H	-0.000080	-0.840894	-0.388984
N32	N	-0.000031	-1.092194	-0.425960
H33	H	-0.075892	-1.063287	-0.475315
H34	H	0.000029	-1.187245	-0.410990
H35	H	-0.000036	-1.274601	0.408693
H36	H	-0.000052	-1.280893	0.170985
H37	H	-0.000080	-1.689279	0.459401
H38	H	-0.000090	-1.129309	0.019401
N39	N	-0.000133	-0.877996	0.056366
H40	H	-0.000141	-0.782935	0.041495
H41	H	0.075726	-0.906996	0.105670
H42	H	-0.000111	-1.695588	0.221720
