data_functionalizedCrystal
_audit_creation_method	'MofGen! by Chris Wilmer'
_symmetry_space_group_name_H-M	'P1'
_symmetry_Int_Tables_number	1
_symmetry_cell_setting	triclinic
loop_
_symmetry_equiv_pos_as_xyz
  x,y,z
_cell_length_a	19.188931
_cell_length_b	19.288865
_cell_length_c	18.366186
_cell_angle_alpha	90.011479
_cell_angle_beta	89.992482
_cell_angle_gamma	96.859486
loop_
_atom_site_label
_atom_site_type_symbol
_atom_site_fract_x
_atom_site_fract_y
_atom_site_fract_z
O1	O	0.926143	-0.086718	-0.060532
O2	O	0.722831	-0.098391	-0.060540
O3	O	0.830361	0.008575	-0.060521
O4	O	0.818612	-0.193684	-0.060551
O5	O	0.830343	0.008581	0.060578
O6	O	0.722812	-0.098386	0.060559
O7	O	0.926124	-0.086713	0.060568
Zn8	Zn	0.824466	-0.092548	0.079791
Zn9	Zn	0.824490	-0.092555	-0.079763
O10	O	0.818594	-0.193679	0.060549
C11	C	0.696810	-0.098011	0.000009
C12	C	0.619306	-0.096876	0.000006
C13	C	0.829974	0.034454	0.000031
C14	C	0.828839	0.111558	0.000037
C15	C	0.952145	-0.087093	0.000017
C16	C	1.029649	-0.088228	0.000015
C17	C	1.074578	-0.025463	0.000018
C18	C	1.147401	-0.026530	0.000022
C19	C	1.175293	-0.090364	0.000009
C20	C	1.130355	-0.153137	0.000010
C21	C	1.057533	-0.152069	0.000013
N22	N	1.283290	-0.139159	-0.041223
N23	N	1.352469	-0.140169	-0.041227
C24	C	1.394702	-0.093585	0.000001
N25	N	1.365144	-0.045942	0.041225
N26	N	1.295959	-0.044930	0.041226
C27	C	1.254256	-0.091529	0.000006
C28	C	1.518595	-0.031972	0.000009
C29	C	1.591419	-0.033041	0.000018
C30	C	1.574371	-0.159650	-0.000001
C31	C	1.501548	-0.158579	-0.000002
C32	C	1.473664	-0.094739	-0.000001
C33	C	0.818981	-0.219558	-0.000005
C34	C	0.820116	-0.296662	-0.000016
N35	N	0.824454	-0.092543	0.188682
C36	C	0.891934	0.156250	0.000043
C37	C	0.890867	0.228697	0.000032
C38	C	0.826703	0.256449	0.000028
C39	C	0.763601	0.211748	0.000018
C40	C	0.764669	0.139302	0.000022
C41	C	0.776257	0.364742	0.042445
C42	C	0.775191	0.437187	0.042445
C43	C	0.823407	0.479895	0.000012
C44	C	0.872699	0.450151	-0.042412
C45	C	0.873767	0.377706	-0.042408
C46	C	0.825538	0.335003	0.000023
C47	C	0.885349	0.603143	0.000005
C48	C	0.884280	0.675591	-0.000011
C49	C	0.757012	0.658640	-0.000018
C50	C	0.758083	0.586194	-0.000009
C51	C	0.822253	0.558449	0.000006
N52	N	0.824506	-0.092555	-0.188654
C53	C	0.872084	-0.045202	0.226790
C54	C	0.872089	-0.045199	0.303018
C55	C	0.824470	-0.092549	0.341134
C56	C	0.776831	-0.139894	0.303017
C57	C	0.776823	-0.139891	0.226790
C58	C	0.815123	-0.155836	0.461885
C59	C	0.815136	-0.155840	0.538110
C60	C	0.824490	-0.092558	0.576242
C61	C	0.833846	-0.029269	0.538139
C62	C	0.833838	-0.029266	0.461913
C63	C	0.824473	-0.092557	0.423789
C64	C	0.872127	-0.045209	0.697006
C65	C	0.872127	-0.045205	0.773235
C66	C	0.776872	-0.139907	0.773232
C67	C	0.776869	-0.139905	0.697004
C68	C	0.824500	-0.092556	0.658895
H69	H	1.051880	0.026521	0.000022
C70	C	0.655842	-0.180974	0.326513
C71	C	0.724486	-0.191941	0.344913
H72	H	0.623525	-0.213102	0.352382
H73	H	0.649023	-0.187751	0.275668
H74	H	0.648423	-0.134632	0.339023
H75	H	0.731907	-0.238281	0.332398
H76	H	0.731307	-0.185169	0.395770
H77	H	1.183989	0.024582	0.000022
H78	H	0.807494	-0.207372	0.430845
C79	C	1.582249	-0.267894	-0.062275
C80	C	1.605013	-0.229823	-0.000017
H81	H	1.601164	-0.311220	-0.062279
H82	H	1.597697	-0.242062	-0.104492
H83	H	1.532448	-0.276229	-0.062267
H84	H	1.654815	-0.221484	-0.000028
H85	H	1.589569	-0.255661	0.042211
H86	H	0.738036	-0.178443	0.195761
H87	H	0.942248	0.265092	0.000034
C88	C	0.790446	0.080289	0.561628
C89	C	0.844137	0.040302	0.580035
H90	H	0.796808	0.123240	0.587491
H91	H	0.746341	0.055421	0.574134
H92	H	0.791786	0.089334	0.510775
H93	H	0.842794	0.031253	0.630888
H94	H	0.888254	0.065176	0.567534
H95	H	1.628000	0.018072	0.000026
H96	H	1.464966	-0.209689	-0.000009
H97	H	0.711358	0.234348	0.000014
H98	H	0.713288	0.102913	0.000018
C99	C	0.966238	0.048407	0.234456
C100	C	0.924433	0.006850	0.184903
H101	H	0.998551	0.080545	0.208594
H102	H	0.991262	0.019553	0.264169
H103	H	0.937252	0.073316	0.264205
H104	H	0.953419	-0.018063	0.155157
H105	H	0.899407	0.035708	0.155177
H106	H	0.910876	-0.006646	0.334052
H107	H	1.153069	-0.205111	0.000001
H108	H	0.944186	0.133666	0.000052
H109	H	1.020951	-0.203181	0.000011
C110	C	0.681992	0.730259	-0.062280
C111	C	0.686480	0.689137	-0.000024
H112	H	0.638449	0.749091	-0.062282
H113	H	0.685059	0.702337	-0.104498
H114	H	0.719421	0.767245	-0.062272
H115	H	0.649055	0.652147	-0.000034
H116	H	0.683407	0.717060	0.042206
H117	H	1.495891	0.020011	0.000014
H118	H	0.913902	0.353492	-0.076952
C119	C	0.966276	0.048405	0.704662
C120	C	0.924474	0.006842	0.655111
H121	H	0.998589	0.080541	0.678798
H122	H	0.991300	0.019554	0.734379
H123	H	0.937288	0.073315	0.734407
H124	H	0.953462	-0.018072	0.625370
H125	H	0.899448	0.035696	0.625381
H126	H	0.841454	0.022266	0.430893
H127	H	0.911961	0.484923	-0.076965
C128	C	1.011040	0.627171	-0.000008
C129	C	0.955883	0.572640	0.000003
H130	H	1.054584	0.608340	-0.000016
H131	H	1.007977	0.655084	0.042218
H132	H	1.007972	0.655066	-0.042242
H133	H	0.958948	0.544749	0.042240
H134	H	0.958948	0.544717	-0.042228
H135	H	0.735051	0.461398	0.076985
H136	H	0.935661	0.711979	-0.000011
H137	H	0.738097	-0.178458	0.804265
C138	C	0.649945	0.549433	-0.062258
C139	C	0.688725	0.537066	-0.000005
H140	H	0.607122	0.519106	-0.062254
H141	H	0.676270	0.541027	-0.104479
H142	H	0.640133	0.596553	-0.062254
H143	H	0.698542	0.489947	-0.000012
H144	H	0.662395	0.545466	0.042226
C145	C	0.654911	0.326238	0.067087
C146	C	0.723251	0.317798	0.089088
H147	H	0.622189	0.297259	0.095883
H148	H	0.648964	0.313537	0.017308
H149	H	0.647229	0.373642	0.073163
H150	H	0.730935	0.270395	0.083007
H151	H	0.729201	0.330494	0.138879
C152	C	0.887598	0.049369	0.858968
C153	C	0.924486	0.006840	0.815125
H154	H	0.919925	0.081502	0.884825
H155	H	0.859243	0.021174	0.892574
H156	H	0.858620	0.074283	0.829235
H157	H	0.953461	-0.018078	0.844859
H158	H	0.952854	0.035039	0.781515
C159	C	0.682724	-0.233516	0.704660
C160	C	0.724519	-0.191952	0.655110
H161	H	0.650406	-0.265651	0.678795
H162	H	0.657705	-0.204666	0.734402
H163	H	0.711716	-0.258428	0.734380
H164	H	0.695527	-0.167036	0.625393
H165	H	0.749539	-0.220806	0.625355
H166	H	0.807522	-0.207373	0.569128
