data_functionalizedCrystal
_audit_creation_method	'MofGen! by Chris Wilmer'
_symmetry_space_group_name_H-M	'P1'
_symmetry_Int_Tables_number	1
_symmetry_cell_setting	triclinic
loop_
_symmetry_equiv_pos_as_xyz
  x,y,z
_cell_length_a	6.817900
_cell_length_b	11.102188
_cell_length_c	14.125465
_cell_angle_alpha	94.635546
_cell_angle_beta	100.398878
_cell_angle_gamma	108.603886
loop_
_atom_site_label
_atom_site_type_symbol
_atom_site_fract_x
_atom_site_fract_y
_atom_site_fract_z
V1	V	-4.017258	-0.174747	-0.299977
O2	O	-3.978095	0.009521	-0.294266
O3	O	-3.994671	-0.347575	-0.297925
O4	O	-3.952928	-0.171566	-0.430807
O5	O	-4.020126	-0.167706	-0.160465
V6	V	-4.499605	-0.152765	-0.283290
O7	O	-4.281095	-0.222967	-0.336581
O8	O	-4.685966	-0.104545	-0.246686
O9	O	-4.298986	0.020063	-0.285341
O10	O	-4.656166	-0.337033	-0.289001
O11	O	-4.614134	-0.159806	-0.422802
O12	O	-4.340729	-0.155946	-0.152460
C13	C	-3.846466	-0.389722	-0.293193
C14	C	-3.909179	-0.531007	-0.292388
C15	C	-3.965116	-0.712317	-0.203151
C16	C	-3.906168	-0.579562	-0.203903
C17	C	-3.971123	-0.615214	-0.380126
C18	C	-4.030055	-0.747965	-0.379372
C19	C	-3.962120	-0.760864	-0.114661
C20	C	-3.900176	-0.676667	-0.026922
C21	C	-3.841228	-0.543912	-0.027674
C22	C	-3.844224	-0.495356	-0.116165
C23	C	-3.793218	-0.165204	-0.462695
C24	C	-3.822076	-0.163747	-0.569650
C25	C	-3.874969	-0.161074	-0.765473
C26	C	-4.061263	-0.166435	-0.817794
C27	C	-4.090695	-0.164948	-0.926757
C28	C	-3.845529	-0.162561	-0.656500
C29	C	-4.110534	0.062203	-0.290071
C30	C	-4.027059	0.203487	-0.290882
C31	C	-4.163782	-0.162312	-0.120566
C32	C	-4.114162	-0.163763	-0.013611
H33	H	-3.790773	-0.475361	0.043767
H34	H	-4.198655	-0.172154	-0.780756
C35	C	-3.897162	-0.729633	0.069046
C36	C	-3.962101	-0.863914	0.050930
C37	C	-3.959377	-0.912748	0.139313
H38	H	-3.757481	-0.696572	0.108273
H39	H	-3.990988	-0.704746	0.102058
H40	H	-3.868278	-0.888790	0.017934
H41	H	-4.101785	-0.897009	0.011718
H42	H	-4.053202	-0.887861	0.172325
H43	H	-3.819691	-0.879678	0.178534
H44	H	-4.003455	-1.003863	0.127033
C45	C	-3.974810	-0.562687	-0.476276
C46	C	-4.180983	-0.611848	-0.533789
C47	C	-4.184466	-0.563505	-0.622376
H48	H	-3.930992	-0.471579	-0.464300
H49	H	-3.881154	-0.587677	-0.509340
H50	H	-4.274608	-0.586850	-0.500732
H51	H	-4.224842	-0.702952	-0.545792
H52	H	-4.090809	-0.588496	-0.655440
H53	H	-4.140639	-0.472398	-0.610390
H54	H	-4.324346	-0.596863	-0.661413
H55	H	-3.737595	-0.155370	-0.802510
C56	C	-4.097280	-0.839593	-0.474517
C57	C	-4.148187	-0.966238	-0.454913
C58	C	-4.210086	-1.050679	-0.542537
H59	H	-4.217786	-0.829460	-0.513989
H60	H	-3.984201	-0.821109	-0.507778
H61	H	-4.261255	-0.984716	-0.421668
H62	H	-4.027711	-0.976412	-0.415456
H63	H	-4.097008	-1.032195	-0.575797
H64	H	-4.330587	-1.040535	-0.582002
H65	H	-4.244615	-1.136616	-0.529247
C66	C	-3.780262	-0.351184	-0.116783
C67	C	-3.725418	-0.287837	-0.021012
C68	C	-3.666532	-0.155031	-0.021545
H69	H	-3.662113	-0.323433	-0.146361
H70	H	-3.895698	-0.331815	-0.152522
H71	H	-3.609993	-0.307196	0.014712
H72	H	-3.843535	-0.315549	0.008583
H73	H	-3.781968	-0.135662	-0.057283
H74	H	-3.548388	-0.127294	-0.051125
H75	H	-3.629332	-0.112035	0.043434
H76	H	-4.010119	-0.868958	-0.114038
