data_functionalizedCrystal
_audit_creation_method	'MofGen! by Chris Wilmer'
_symmetry_space_group_name_H-M	'P1'
_symmetry_Int_Tables_number	1
_symmetry_cell_setting	triclinic
loop_
_symmetry_equiv_pos_as_xyz
  x,y,z
_cell_length_a	15.298206
_cell_length_b	29.839132
_cell_length_c	15.296720
_cell_angle_alpha	99.634725
_cell_angle_beta	69.221745
_cell_angle_gamma	99.615607
loop_
_atom_site_label
_atom_site_type_symbol
_atom_site_fract_x
_atom_site_fract_y
_atom_site_fract_z
Zn1	Zn	1.330378	0.317445	0.279336
Zn2	Zn	1.830378	0.817445	0.779336
Zn3	Zn	1.357147	0.381481	0.123831
Zn4	Zn	1.857147	0.881481	0.623831
Zn5	Zn	1.201811	0.295318	0.150797
Zn6	Zn	1.701811	0.795318	0.650797
Zn7	Zn	1.174790	0.381474	0.306251
Zn8	Zn	1.674790	0.881474	0.806251
O9	O	1.266031	0.343930	0.215054
O10	O	1.766031	0.843930	0.715054
O11	O	1.464053	0.335203	0.236159
O12	O	1.964053	0.835203	0.736159
O13	O	1.359053	0.360794	-0.002729
O14	O	1.859053	0.860794	0.497271
O15	O	1.218971	0.235397	0.167869
O16	O	1.718971	0.735397	0.667869
O17	O	1.483720	0.382250	0.121910
O18	O	1.983720	0.882250	0.621910
O19	O	1.313429	0.251654	0.262306
O20	O	1.813429	0.751654	0.762306
O21	O	1.244928	0.297490	0.017082
O22	O	1.744928	0.797490	0.517082
O23	O	1.068103	0.297483	0.193968
O24	O	1.568103	0.797483	0.693968
O25	O	1.172918	0.382238	0.432818
O26	O	1.672918	0.882238	0.932818
O27	O	1.048251	0.360782	0.308179
O28	O	1.548251	0.860782	0.808179
O29	O	1.287228	0.335196	0.413044
O30	O	1.787228	0.835196	0.913044
O31	O	1.332851	0.444337	0.148008
O32	O	1.832851	0.944337	0.648008
O33	O	1.198874	0.444331	0.282031
O34	O	1.698874	0.944331	0.782031
C35	C	1.024437	0.326731	0.256921
C36	C	1.524437	0.826731	0.756921
C37	C	0.921078	0.319386	0.274853
C38	C	1.421078	0.819386	0.774853
C39	C	0.862271	0.291492	0.342859
C40	C	1.362271	0.791492	0.842859
C41	C	0.765159	0.284586	0.359710
C42	C	1.265159	0.784586	0.859710
C43	C	0.726846	0.305578	0.308562
C44	C	1.226846	0.805578	0.808562
C45	C	0.785653	0.333475	0.240560
C46	C	1.285653	0.833475	0.740560
C47	C	0.882774	0.340378	0.223703
C48	C	1.382774	0.840378	0.723703
C49	C	0.747350	0.354464	0.189406
C50	C	1.247350	0.854464	0.689406
C51	C	0.806157	0.382362	0.121404
C52	C	1.306157	0.882362	0.621404
C53	C	0.903269	0.389264	0.104550
C54	C	1.403269	0.889264	0.604550
C55	C	0.941582	0.368273	0.155697
C56	C	1.441582	0.868273	0.655697
C57	C	0.650228	0.347561	0.206264
C58	C	1.150228	0.847561	0.706264
C59	C	0.670732	0.396448	0.087108
C60	C	1.170732	0.896448	0.587108
C61	C	0.767843	0.403353	0.070257
C62	C	1.267843	0.903353	0.570257
C63	C	1.265857	0.460635	0.215030
C64	C	1.765857	0.960635	0.715030
C65	C	1.265862	0.510571	0.215036
C66	C	1.765862	1.010571	0.715036
C67	C	1.335827	0.820226	0.145309
C68	C	1.835827	1.320226	0.645309
C69	C	1.335912	1.007907	0.145315
C70	C	1.835912	1.507907	0.645315
O71	O	1.395302	1.032175	0.086032
O72	O	1.895302	1.532175	0.586032
N73	N	1.266126	1.031380	0.215052
N74	N	1.766126	1.531380	0.715052
C75	C	1.196318	1.007930	0.284796
C76	C	1.696318	1.507930	0.784796
O77	O	1.136968	1.032202	0.344117
O78	O	1.636968	1.532202	0.844117
C79	C	1.196237	0.820250	0.284793
C80	C	1.696237	1.320250	0.784793
C81	C	1.266022	0.796779	0.215046
C82	C	1.766022	1.296779	0.715046
C83	C	1.405607	0.796756	0.075569
C84	C	1.905607	1.296756	0.575569
C85	C	1.405582	0.749838	0.075565
C86	C	1.905582	1.249838	0.575565
C87	C	1.335777	0.726391	0.145302
C88	C	1.835777	1.226391	0.645302
C89	C	1.265997	0.749861	0.215043
C90	C	1.765997	1.249861	0.715043
C91	C	1.126433	0.796802	0.354540
C92	C	1.626433	1.296802	0.854540
C93	C	1.126421	0.749879	0.354535
C94	C	1.626421	1.249879	0.854535
C95	C	1.196206	0.726408	0.284788
C96	C	1.696206	1.226408	0.784788
C97	C	1.196168	0.679496	0.284776
C98	C	1.696168	1.179496	0.784776
N99	N	1.265953	0.656024	0.215039
N100	N	1.765953	1.156024	0.715039
C101	C	1.335758	0.679471	0.145302
C102	C	1.835758	1.179471	0.645302
C103	C	1.196364	1.106464	0.284791
C104	C	1.696364	1.606464	0.784791
C105	C	1.196383	1.153383	0.284791
C106	C	1.696383	1.653383	0.784791
C107	C	1.335978	1.153358	0.145311
C108	C	1.835978	1.653358	0.645311
C109	C	1.335955	1.106437	0.145308
C110	C	1.835955	1.606437	0.645308
C111	C	1.266150	1.082991	0.215054
C112	C	1.766150	1.582991	0.715054
C113	C	1.335700	0.580940	0.145299
C114	C	1.835700	1.080940	0.645299
C115	C	1.335667	0.534018	0.145299
C116	C	1.835667	1.034018	0.645299
C117	C	1.196074	0.534048	0.284782
C118	C	1.696074	1.034048	0.784782
C119	C	1.196104	0.580965	0.284779
C120	C	1.696104	1.080965	0.784779
C121	C	1.265925	0.604411	0.215034
C122	C	1.765925	1.104411	0.715034
O123	O	1.136815	0.655201	0.344034
O124	O	1.636815	1.155201	0.844034
O125	O	1.395111	0.655193	0.086002
O126	O	1.895111	1.155193	0.586002
C127	C	1.335852	0.867144	0.145313
C128	C	1.835852	1.367144	0.645313
C129	C	1.266072	0.890615	0.215054
C130	C	1.766072	1.390615	0.715054
C131	C	1.196267	0.867168	0.284791
C132	C	1.696267	1.367168	0.784791
C133	C	1.266091	0.937535	0.215054
C134	C	1.766091	1.437535	0.715054
C135	C	1.335896	0.960982	0.145317
C136	C	1.835896	1.460982	0.645317
C137	C	1.405682	0.937509	0.075580
C138	C	1.905682	1.437509	0.575580
C139	C	1.405657	0.890591	0.075576
C140	C	1.905657	1.390591	0.575576
C141	C	1.126482	0.890640	0.354527
C142	C	1.626482	1.390640	0.854527
C143	C	1.126512	0.937558	0.354525
C144	C	1.626512	1.437558	0.854525
C145	C	1.196316	0.961005	0.284788
C146	C	1.696316	1.461005	0.784788
C147	C	1.508569	0.361196	0.173024
C148	C	2.008569	0.861196	0.673024
C149	C	1.611924	0.368553	0.155113
C150	C	2.111924	0.868553	0.655113
C151	C	1.224073	0.361185	0.457617
C152	C	1.724073	0.861185	0.957617
C153	C	1.206192	0.368538	0.560984
C154	C	1.706192	0.868538	1.060984
C155	C	1.266197	1.226768	0.215079
C156	C	1.766197	1.726768	0.715079
C157	C	1.266187	1.176830	0.215054
C158	C	1.766187	1.676830	0.715054
C159	C	1.307881	0.326713	-0.026576
C160	C	1.807881	0.826713	0.473424
C161	C	1.325941	0.319246	-0.129972
C162	C	1.825941	0.819246	0.370028
C163	C	1.393860	0.291300	0.811173
C164	C	1.893860	0.791300	1.311173
C165	C	1.410665	0.284392	0.714054
C166	C	1.910665	0.784392	1.214054
C167	C	1.359548	0.305428	0.675782
C168	C	1.859548	0.805428	1.175782
C169	C	1.291623	0.333372	0.734637
C170	C	1.791623	0.833372	1.234637
C171	C	1.274822	0.340283	0.831765
C172	C	1.774822	0.840283	1.331765
C173	C	1.240510	0.354412	0.696374
C174	C	1.740510	0.854412	1.196374
C175	C	1.172585	0.382356	0.755230
C176	C	1.672585	0.882356	1.255230
C177	C	1.155786	0.389265	0.852347
C178	C	1.655786	0.889265	1.352347
C179	C	1.206903	0.368230	0.890620
C180	C	1.706903	0.868230	1.390620
C181	C	1.257312	0.347501	0.599246
C182	C	1.757312	0.847501	1.099246
C183	C	1.138274	0.396484	0.619838
C184	C	1.638274	0.896484	1.119838
C185	C	1.121468	0.403392	0.716957
C186	C	1.621468	0.903392	1.216957
H187	H	0.951149	0.411975	0.049171
H188	H	1.451149	0.911975	0.549171
C189	C	1.482394	0.822540	-0.001153
C190	C	1.982394	1.322540	0.498847
H191	H	1.523939	0.801834	-0.042685
H192	H	2.023939	1.301834	0.457315
H193	H	1.516740	0.846233	0.027422
H194	H	2.016740	1.346233	0.527422
H195	H	1.453872	0.835449	-0.035550
H196	H	1.953872	1.335449	0.464450
H197	H	1.462482	0.871485	0.018782
H198	H	1.962482	1.371485	0.518782
C199	C	1.188419	0.375828	0.997451
C200	C	1.688419	0.875828	1.497451
H201	H	1.228593	0.359298	1.011810
H202	H	1.728593	0.859298	1.511810
H203	H	1.124626	0.365352	1.029822
H204	H	1.624626	0.865352	1.529822
H205	H	1.200656	0.407523	1.016625
H206	H	1.700656	0.907523	1.516625
H207	H	1.312616	0.324748	0.551335
H208	H	1.812616	0.824748	1.051335
C209	C	0.904417	0.268404	0.399109
C210	C	1.404417	0.768404	0.899109
H211	H	0.970678	0.276513	0.379332
H212	H	1.470678	0.776513	0.879332
H213	H	0.890875	0.236121	0.388375
H214	H	1.390875	0.736121	0.888375
H215	H	0.877710	0.278342	0.464333
H216	H	1.377710	0.778342	0.964333
C217	C	0.585547	0.316879	0.281064
C218	C	1.085547	0.816879	0.781064
H219	H	0.522221	0.315770	0.283776
H220	H	1.022221	0.815770	0.783776
H221	H	0.590670	0.329076	0.340757
H222	H	1.090670	0.829076	0.840757
H223	H	0.603838	0.286856	0.264795
H224	H	1.103838	0.786856	0.764795
C225	C	0.832538	0.434034	-0.004547
C226	C	1.332538	0.934034	0.495453
H227	H	0.895862	0.435135	-0.007262
H228	H	1.395862	0.935135	0.492738
H229	H	0.814253	0.464056	0.011709
H230	H	1.314253	0.964056	0.511709
H231	H	0.827421	0.421833	-0.064246
H232	H	1.327421	0.921833	0.435754
H233	H	1.373235	0.299802	0.596702
H234	H	1.873235	0.799802	1.096702
C235	C	1.048406	0.375871	0.137162
C236	C	1.548406	0.875871	0.637162
H237	H	1.077943	0.395493	0.089340
H238	H	1.577943	0.895493	0.589340
H239	H	1.073181	0.347298	0.117380
H240	H	1.573181	0.847298	0.617380
H241	H	1.059995	0.389519	0.193337
H242	H	1.559995	0.889519	0.693337
H243	H	0.639538	0.413541	0.045460
H244	H	1.139538	0.913541	0.545460
H245	H	1.069639	0.871554	0.411317
H246	H	1.569639	1.371554	0.911317
C247	C	1.485369	0.253654	0.649317
C248	C	1.985369	0.753654	1.149317
H249	H	1.488061	0.252554	0.585993
H250	H	1.988061	0.752554	1.085993
H251	H	1.469060	0.223638	0.667603
H252	H	1.969060	0.723638	1.167603
H253	H	1.545085	0.265811	0.654405
H254	H	2.045085	0.765811	1.154405
H255	H	1.392494	0.514909	0.088500
H256	H	1.892494	1.014909	0.588500
H257	H	1.392557	0.600024	0.088507
H258	H	1.892557	1.100024	0.588507
C259	C	0.700478	0.253904	0.434508
C260	C	1.200478	0.753904	0.934508
H261	H	0.737202	0.242394	0.462561
H262	H	1.237202	0.742394	0.962561
H263	H	0.668752	0.229086	0.405583
H264	H	1.168752	0.729086	0.905583
H265	H	0.655583	0.271307	0.481542
H266	H	1.155583	0.771307	0.981542
C267	C	1.450077	0.268163	0.853274
C268	C	1.950077	0.768163	1.353274
H269	H	1.430336	0.276280	0.919546
H270	H	1.930336	0.776280	1.419546
H271	H	1.515297	0.278051	0.826531
H272	H	2.015297	0.778051	1.326531
H273	H	1.439265	0.235880	0.839732
H274	H	1.939265	0.735880	1.339732
H275	H	1.096652	0.413614	0.588678
H276	H	1.596652	0.913614	1.088678
H277	H	1.462409	0.730731	0.018774
H278	H	1.962409	1.230731	0.518774
H279	H	1.066163	0.426144	0.764891
H280	H	1.566163	0.926144	1.264891
H281	H	1.392780	1.087330	0.088515
H282	H	1.892780	1.587330	0.588515
C283	C	1.081075	0.420005	0.917086
C284	C	1.581075	0.920005	1.417086
H285	H	1.053031	0.431540	0.880387
H286	H	1.553031	0.931540	1.380387
H287	H	1.110054	0.444804	0.948804
H288	H	1.610054	0.944804	1.448804
H289	H	1.034033	0.402629	0.961998
H290	H	1.534033	0.902629	1.461998
H291	H	1.392816	1.172457	0.088529
H292	H	1.892816	1.672457	0.588529
C293	C	1.482464	0.963307	-0.001130
C294	C	1.982464	1.463307	0.498870
H295	H	1.472479	0.994612	0.008872
H296	H	1.972479	1.494612	0.508872
H297	H	1.479718	0.950229	-0.061279
H298	H	1.979718	1.450229	0.438721
H299	H	1.542567	0.961004	0.001711
H300	H	2.042567	1.461004	0.501711
H301	H	1.139238	0.514949	0.341559
H302	H	1.639238	1.014949	0.841559
H303	H	1.139518	1.087377	0.341589
H304	H	1.639518	1.587377	0.841589
H305	H	1.069603	0.815903	0.411332
H306	H	1.569603	1.315903	0.911332
C307	C	1.119615	1.179195	0.361508
C308	C	1.619615	1.679195	0.861508
H309	H	1.078048	1.158508	0.403042
H310	H	1.578048	1.658508	0.903042
H311	H	1.085290	1.192112	0.332925
H312	H	1.585290	1.692112	0.832925
H313	H	1.148151	1.202886	0.395903
H314	H	1.648151	1.702886	0.895903
C315	C	1.049634	0.724092	0.431258
C316	C	1.549634	1.224092	0.931258
H317	H	1.008077	0.744792	0.472789
H318	H	1.508077	1.244792	0.972789
H319	H	1.078149	0.711176	0.465646
H320	H	1.578149	1.211176	0.965646
H321	H	1.015288	0.700401	0.402668
H322	H	1.515288	1.200401	0.902668
H323	H	1.069676	0.956664	0.411322
H324	H	1.569676	1.456664	0.911322
H325	H	1.139282	0.600077	0.341575
H326	H	1.639282	1.100077	0.841575
H327	H	0.647773	0.299952	0.322284
H328	H	1.147773	0.799952	0.822284
