data_functionalizedCrystal
_audit_creation_method	'MofGen! by Chris Wilmer'
_symmetry_space_group_name_H-M	'P1'
_symmetry_Int_Tables_number	1
_symmetry_cell_setting	triclinic
loop_
_symmetry_equiv_pos_as_xyz
  x,y,z
_cell_length_a	12.759401
_cell_length_b	13.897448
_cell_length_c	12.759393
_cell_angle_alpha	90.030809
_cell_angle_beta	89.981425
_cell_angle_gamma	89.980005
loop_
_atom_site_label
_atom_site_type_symbol
_atom_site_fract_x
_atom_site_fract_y
_atom_site_fract_z
Zn1	Zn	1.606219	0.383947	-0.593991
Zn2	Zn	2.106219	0.883947	-0.093991
Zn3	Zn	1.606099	0.545276	-0.418313
Zn4	Zn	2.106099	1.045276	0.081687
Zn5	Zn	1.430521	0.383998	-0.418330
Zn6	Zn	1.930521	0.883998	0.081670
Zn7	Zn	1.430495	0.545202	-0.593954
Zn8	Zn	1.930495	1.045202	-0.093954
O9	O	1.518334	0.464606	-0.506147
O10	O	2.018334	0.964606	-0.006147
O11	O	1.753224	0.405357	-0.570695
O12	O	2.253224	0.905357	-0.070695
O13	O	1.582769	0.523935	-0.271294
O14	O	2.082769	1.023935	0.228706
O15	O	1.453890	0.249009	-0.441654
O16	O	1.953890	0.749009	0.058346
O17	O	1.753136	0.523885	-0.441626
O18	O	2.253136	1.023885	0.058374
O19	O	1.582974	0.248972	-0.570711
O20	O	2.082974	0.748972	-0.070711
O21	O	1.453773	0.405444	-0.271306
O22	O	1.953773	0.905444	0.228694
O23	O	1.283497	0.405373	-0.441618
O24	O	1.783497	0.905373	0.058382
O25	O	1.453845	0.523759	-0.740980
O26	O	1.953845	1.023759	-0.240980
O27	O	1.283478	0.523809	-0.570649
O28	O	1.783478	1.023809	-0.070649
O29	O	1.582949	0.405285	-0.741007
O30	O	2.082949	0.905285	-0.241007
O31	O	1.582743	0.680248	-0.441590
O32	O	2.082743	1.180248	0.058410
O33	O	1.453728	0.680194	-0.570633
O34	O	1.953728	1.180194	-0.070633
C35	C	1.245366	0.464589	-0.506132
C36	C	1.745366	0.964589	-0.006132
C37	C	1.128590	0.464605	-0.506151
C38	C	1.628590	0.964605	-0.006151
C39	C	1.073774	0.402999	-0.573461
C40	C	1.573774	0.902999	-0.073461
C41	C	0.964050	0.403009	-0.573468
C42	C	1.464050	0.903009	-0.073468
C43	C	0.963967	0.526239	-0.438852
C44	C	1.463967	1.026239	0.061148
C45	C	1.073689	0.526224	-0.438840
C46	C	1.573689	1.026224	0.061160
C47	C	1.518248	0.715220	-0.506129
C48	C	2.018248	1.215220	-0.006129
C49	C	1.518308	0.822434	-0.506156
C50	C	2.018308	1.322434	-0.006156
C51	C	1.518411	1.018729	-0.506232
C52	C	2.018411	1.518729	-0.006232
C53	C	1.518351	0.909497	-0.506193
C54	C	2.018351	1.409497	-0.006193
C55	C	1.792367	0.464623	-0.506162
C56	C	2.292367	0.964623	-0.006162
C57	C	1.909144	0.464631	-0.506169
C58	C	2.409144	0.964631	-0.006169
C59	C	1.518439	1.213013	-0.506200
C60	C	2.018439	1.713013	-0.006200
C61	C	1.518461	1.105799	-0.506255
C62	C	2.018461	1.605799	-0.006255
C63	C	1.518407	0.464508	-0.780180
C64	C	2.018407	0.964508	-0.280180
C65	C	1.518438	0.464467	-0.896957
C66	C	2.018438	0.964467	-0.396957
C67	C	1.451294	0.402757	-0.951825
C68	C	1.951294	0.902757	-0.451825
C69	C	1.451319	0.402728	-1.061549
C70	C	1.951319	0.902728	-0.561549
C71	C	1.585640	0.526119	-1.061528
C72	C	2.085640	1.026119	-0.561528
C73	C	1.585610	0.526153	-0.951806
C74	C	2.085610	1.026153	-0.451806
C75	C	1.518321	0.464633	-0.233180
C76	C	2.018321	0.964633	0.266820
C77	C	1.518493	0.464403	-0.116403
C78	C	2.018493	0.964403	0.383597
H79	H	0.919253	0.576408	-0.384051
H80	H	1.419253	1.076408	0.115949
O81	O	1.658090	0.592641	-1.120696
O82	O	2.158090	1.092641	-0.620696
H83	H	1.640020	0.668351	-1.099628
H84	H	2.140020	1.168351	-0.599628
H85	H	0.919425	0.352842	-0.628277
H86	H	1.419425	0.852842	-0.128277
O87	O	1.132823	0.592670	-0.366235
O88	O	1.632823	1.092670	0.133765
H89	H	1.076216	0.635529	-0.319441
H90	H	1.576216	1.135529	0.180559
O91	O	1.132995	0.336530	-0.646041
O92	O	1.632995	0.836530	-0.146041
H93	H	1.076440	0.293685	-0.692837
H94	H	1.576440	0.793685	-0.192837
H95	H	1.396642	0.352479	-1.106218
H96	H	1.896642	0.852479	-0.606218
O97	O	1.658045	0.592702	-0.892614
O98	O	2.158045	1.092702	-0.392614
H99	H	1.704774	0.635577	-0.949185
H100	H	2.204774	1.135577	-0.449185
H101	H	1.396599	0.352529	-0.907170
H102	H	1.896599	0.852529	-0.407170
