data_functionalizedCrystal
_audit_creation_method	'MofGen! by Chris Wilmer'
_symmetry_space_group_name_H-M	'P1'
_symmetry_Int_Tables_number	1
_symmetry_cell_setting	triclinic
loop_
_symmetry_equiv_pos_as_xyz
  x,y,z
_cell_length_a	8.559649
_cell_length_b	17.699097
_cell_length_c	16.176319
_cell_angle_alpha	90.010997
_cell_angle_beta	89.999369
_cell_angle_gamma	76.533548
loop_
_atom_site_label
_atom_site_type_symbol
_atom_site_fract_x
_atom_site_fract_y
_atom_site_fract_z
O1	O	0.202195	0.992497	0.068810
O2	O	0.228468	0.770615	0.068796
O3	O	-0.017345	0.901104	0.068804
O4	O	0.448007	0.862008	0.068803
O5	O	-0.017331	0.901086	-0.068689
O6	O	0.228481	0.770597	-0.068697
O7	O	0.202209	0.992478	-0.068683
Cu8	Cu	0.215346	0.881536	-0.081244
Cu9	Cu	0.215330	0.881558	0.081358
O10	O	0.448021	0.861990	-0.068690
C11	C	0.227529	0.742464	0.000048
C12	C	0.224694	0.658608	0.000043
C13	C	0.207310	0.143895	0.075024
C14	C	0.209963	0.222687	0.075020
C15	C	0.211299	0.262067	0.000069
C16	C	0.209966	0.222653	-0.074883
C17	C	0.207302	0.143863	-0.074878
C18	C	0.220709	0.540402	-0.074905
C19	C	0.223378	0.619196	-0.074904
C20	C	0.223369	0.619226	0.074993
C21	C	0.220705	0.540436	0.074998
C22	C	0.219364	0.501030	0.000047
C23	C	0.216484	0.415595	0.000052
C24	C	0.214190	0.347499	0.000063
C25	C	-0.076879	0.904058	0.000059
C26	C	-0.254292	0.912877	0.000064
C27	C	0.507555	0.859036	0.000057
C28	C	0.684968	0.850217	0.000057
C29	C	0.203147	1.020630	0.000067
C30	C	0.205982	1.104485	0.000078
N31	N	0.215356	0.881526	-0.195609
C32	C	0.106501	0.939359	-0.760988
C33	C	0.106512	0.939355	-0.674441
C34	C	0.215323	0.881562	-0.631185
C35	C	0.324141	0.823775	-0.674479
C36	C	0.324136	0.823783	-0.761025
C37	C	0.324163	0.823743	-0.325451
C38	C	0.324156	0.823738	-0.238899
C39	C	0.106539	0.939315	-0.238868
C40	C	0.106534	0.939323	-0.325413
C41	C	0.215357	0.881538	-0.368700
C42	C	0.215346	0.881544	-0.462544
C43	C	0.215328	0.881553	-0.537342
N44	N	0.215307	0.881574	0.195723
H45	H	0.224455	0.651321	0.136022
H46	H	0.211034	0.254772	0.136048
C47	C	-0.367408	0.994471	0.000065
N48	N	-0.452608	1.055927	0.000066
C49	C	0.219225	0.497124	0.157450
N50	N	0.218099	0.464504	0.219554
C51	C	0.211503	0.265965	-0.157330
N52	N	0.212692	0.298584	-0.219431
C53	C	-0.013172	1.002879	-0.191244
N54	N	-0.103343	1.050752	-0.155375
H55	H	0.224466	0.651257	-0.135942
C56	C	-0.013206	1.002934	-0.808563
N57	N	-0.103371	1.050823	-0.844394
C58	C	0.443834	0.760202	-0.626894
N59	N	0.533985	0.712316	-0.591053
H60	H	0.206233	0.111836	0.136058
C61	C	-0.013192	1.002919	-0.626828
N62	N	-0.103360	1.050798	-0.590966
H63	H	0.017925	0.986380	-0.360630
C64	C	0.443857	0.760171	-0.373056
N65	N	0.534011	0.712284	-0.408914
H66	H	0.206237	0.111775	-0.135907
H67	H	-0.231306	0.789824	0.000050
C68	C	0.219282	0.497059	-0.157353
N69	N	0.218224	0.464408	-0.219458
C70	C	0.443917	0.760182	-0.191319
N71	N	0.534134	0.712321	-0.155481
C72	C	0.443828	0.760214	-0.808642
N73	N	0.533987	0.712332	-0.844506
