data_functionalizedCrystal
_audit_creation_method	'MofGen! by Chris Wilmer'
_symmetry_space_group_name_H-M	'P1'
_symmetry_Int_Tables_number	1
_symmetry_cell_setting	triclinic
loop_
_symmetry_equiv_pos_as_xyz
  x,y,z
_cell_length_a	17.000371
_cell_length_b	15.500227
_cell_length_c	15.944551
_cell_angle_alpha	87.172611
_cell_angle_beta	79.548993
_cell_angle_gamma	92.619542
loop_
_atom_site_label
_atom_site_type_symbol
_atom_site_fract_x
_atom_site_fract_y
_atom_site_fract_z
O1	O	1.059807	0.071948	0.026094
O2	O	0.828076	0.071950	0.056579
O3	O	0.950269	0.071941	-0.081406
O4	O	0.937613	0.071957	0.164079
O5	O	0.942854	-0.071947	-0.073063
O6	O	0.820661	-0.071939	0.064922
O7	O	1.052392	-0.071940	0.034436
Cu8	Cu	0.935849	-0.085077	0.050441
Cu9	Cu	0.944618	0.085087	0.040575
O10	O	0.930198	-0.071931	0.172421
C11	C	0.794715	0.000006	0.062388
C12	C	0.706356	0.000006	0.067257
C13	C	0.674326	-0.000000	-0.007671
C14	C	0.591304	0.000006	-0.003092
C15	C	0.540313	0.000013	0.076417
C16	C	0.572348	0.000022	0.151351
C17	C	0.655369	0.000021	0.146770
C18	C	0.289168	0.000020	0.094111
C19	C	0.206141	0.000018	0.098686
C20	C	0.225104	0.000004	-0.055757
C21	C	0.308125	-0.000002	-0.060330
C22	C	0.340153	0.000012	0.014603
C23	C	0.455450	0.000017	0.081100
C24	C	0.425015	0.000014	0.009918
N25	N	0.929687	-0.204762	0.057379
C26	C	0.981483	-0.250042	-0.001071
C27	C	0.976830	-0.340615	0.004183
C28	C	0.920385	-0.385905	0.067892
C29	C	0.868584	-0.340619	0.126345
C30	C	0.873233	-0.250048	0.121087
C31	C	0.903635	-0.659371	0.086823
C32	C	0.898991	-0.749948	0.092079
C33	C	1.007236	-0.749938	-0.030084
C34	C	1.011884	-0.659365	-0.035334
C35	C	0.960081	-0.614087	0.023116
C36	C	0.915629	-0.478485	0.073267
C37	C	0.964833	-0.521509	0.017737
C38	C	1.085753	0.000006	0.028628
C39	C	1.174112	0.000011	0.023758
C40	C	0.946036	-0.000003	-0.108490
C41	C	0.944461	-0.000004	-0.201619
N42	N	0.950786	0.204772	0.033629
C43	C	0.864955	0.000009	-0.410600
C44	C	0.898219	-0.070937	-0.470233
C45	C	0.941611	0.000003	-0.372135
C46	C	0.905548	0.070925	-0.478442
C47	C	0.938854	0.000013	-0.536844
C48	C	0.974893	-0.071001	-0.430538
C49	C	0.982215	0.070925	-0.438744
C50	C	1.015534	-0.000038	-0.498363
C51	C	0.943198	-0.000004	-0.277249
C52	C	0.937273	0.000014	-0.631728
C53	C	0.934431	0.000015	0.199505
C54	C	0.936007	0.000021	0.292634
H55	H	0.565230	0.000002	-0.064106
F56	F	0.689457	0.000031	0.226519
F57	F	0.818103	-0.201858	0.183296
H58	H	0.822621	-0.377500	0.178216
F59	F	0.867191	0.149316	-0.506114
F60	F	0.855558	-0.526692	0.141071
H61	H	0.715839	-0.000009	-0.072416
H62	H	1.079216	-0.000079	-0.536226
H63	H	1.027449	-0.213172	-0.052947
F64	F	0.838911	-0.798144	0.159893
H65	H	0.861456	-0.622512	0.134417
F66	F	1.031955	-0.388806	-0.058027
H67	H	1.017701	0.130907	-0.424486
F68	F	0.781784	-0.000079	-0.360912
F69	F	0.191011	-0.000008	-0.135501
F70	F	1.024901	-0.473306	-0.050068
F71	F	0.851802	-0.149334	-0.488838
F72	F	1.013195	-0.149484	-0.402992
H73	H	0.315235	0.000037	0.155127
F74	F	0.479285	0.000010	-0.074698
H75	H	0.349638	-0.000011	-0.125075
H76	H	0.164625	0.000019	0.163436
F77	F	1.071960	-0.611165	-0.103139
H78	H	0.530824	0.000033	0.216088
H79	H	0.413923	0.000021	0.145837
F80	F	1.062364	-0.798132	-0.092289
