data_functionalizedCrystal
_audit_creation_method	'MofGen! by Chris Wilmer'
_symmetry_space_group_name_H-M	'P1'
_symmetry_Int_Tables_number	1
_symmetry_cell_setting	triclinic
loop_
_symmetry_equiv_pos_as_xyz
  x,y,z
_cell_length_a	29.839131
_cell_length_b	29.839134
_cell_length_c	29.839125
_cell_angle_alpha	90.021980
_cell_angle_beta	89.982291
_cell_angle_gamma	89.963719
loop_
_atom_site_label
_atom_site_type_symbol
_atom_site_fract_x
_atom_site_fract_y
_atom_site_fract_z
Zn1	Zn	-0.178978	-0.686720	-0.254125
Zn2	Zn	-0.254090	-0.686652	-0.178995
Zn3	Zn	-0.178968	-0.611602	-0.178995
Zn4	Zn	-0.254075	-0.611550	-0.254083
O5	O	-0.216528	-0.649131	-0.216549
O6	O	-0.188952	-0.749578	-0.244176
O7	O	-0.244127	-0.676690	-0.116128
O8	O	-0.116102	-0.621617	-0.188978
O9	O	-0.244137	-0.749528	-0.188979
O10	O	-0.116109	-0.676805	-0.244176
O11	O	-0.188935	-0.621551	-0.116127
O12	O	-0.188921	-0.548728	-0.188938
O13	O	-0.244111	-0.621528	-0.316956
O14	O	-0.244101	-0.548690	-0.244105
O15	O	-0.188937	-0.676755	-0.316987
O16	O	-0.316955	-0.676639	-0.188938
O17	O	-0.316944	-0.621462	-0.244105
C18	C	-0.216509	-0.532408	-0.216517
C19	C	-0.216511	-0.482474	-0.216514
C20	C	-0.333250	-0.649050	-0.216527
C21	C	-0.383185	-0.649056	-0.216533
C22	C	-0.216524	-0.649143	-0.333728
C23	C	-0.216522	-0.649148	-0.383662
C24	C	-0.692821	-0.677914	-0.187866
C25	C	-0.880494	-0.677969	-0.187883
O26	O	-0.904753	-0.702441	-0.163493
N27	N	-0.903970	-0.649224	-0.216583
C28	C	-0.880524	-0.620465	-0.245283
O29	O	-0.904798	-0.596020	-0.269698
C30	C	-0.692852	-0.620412	-0.245268
C31	C	-0.669379	-0.649156	-0.216563
C32	C	-0.669348	-0.706656	-0.159164
C33	C	-0.622433	-0.706640	-0.159158
C34	C	-0.598990	-0.677882	-0.187854
C35	C	-0.622463	-0.649140	-0.216557
C36	C	-0.669407	-0.591656	-0.273969
C37	C	-0.622486	-0.591646	-0.273964
C38	C	-0.599013	-0.620390	-0.245259
C39	C	-0.552106	-0.620367	-0.245248
N40	N	-0.528630	-0.649112	-0.216548
C41	C	-0.552072	-0.677869	-0.187851
C42	C	-0.979055	-0.620494	-0.245289
C43	C	-1.025973	-0.620507	-0.245292
C44	C	-1.025939	-0.678012	-0.187893
C45	C	-0.979021	-0.677996	-0.187887
C46	C	-0.955579	-0.649239	-0.216589
C47	C	-0.453547	-0.677834	-0.187841
C48	C	-0.406627	-0.677814	-0.187836
C49	C	-0.406664	-0.620311	-0.245237
C50	C	-0.453580	-0.620329	-0.245240
C51	C	-0.477020	-0.649094	-0.216540
O52	O	-0.527818	-0.595912	-0.269629
O53	O	-0.527791	-0.702318	-0.163447
C54	C	-0.739737	-0.677930	-0.187872
C55	C	-0.763210	-0.649188	-0.216574
C56	C	-0.739767	-0.620430	-0.245271
C57	C	-0.810128	-0.649200	-0.216578
C58	C	-0.833570	-0.677958	-0.187881
C59	C	-0.810094	-0.706703	-0.159181
C60	C	-0.763179	-0.706687	-0.159175
C61	C	-0.763243	-0.591685	-0.273971
C62	C	-0.810158	-0.591703	-0.273974
C63	C	-0.833601	-0.620461	-0.245277
C64	C	-0.099349	-0.649225	-0.216582
C65	C	-0.049415	-0.649265	-0.216595
C66	C	-0.216547	-0.766309	-0.216582
C67	C	-0.216555	-0.816244	-0.216596
C68	C	-0.245303	-0.172820	-0.245240
C69	C	-0.245315	0.014853	-0.245260
O70	O	-0.269774	0.039127	-0.269665
N71	N	-0.216544	0.038311	-0.216583
C72	C	-0.187766	0.014848	-0.187902
O73	O	-0.163291	0.039107	-0.163514
C74	C	-0.187751	-0.172824	-0.187884
C75	C	-0.216527	-0.196280	-0.216560
C76	C	-0.274076	-0.196276	-0.273913
C77	C	-0.274075	-0.243191	-0.273906
C78	C	-0.245299	-0.266651	-0.245226
C79	C	-0.216526	-0.243195	-0.216553
C80	C	-0.158971	-0.196286	-0.159205
C81	C	-0.158969	-0.243207	-0.159204
C82	C	-0.187745	-0.266663	-0.187880
C83	C	-0.187749	-0.313570	-0.187865
N84	N	-0.216520	-0.337029	-0.216542
C85	C	-0.245295	-0.313569	-0.245222
C86	C	-0.187776	0.113379	-0.187912
C87	C	-0.187780	0.160297	-0.187916
C88	C	-0.245329	0.160298	-0.245275
C89	C	-0.245327	0.113380	-0.245269
C90	C	-0.216547	0.089921	-0.216589
C91	C	-0.245290	-0.412095	-0.245205
C92	C	-0.245287	-0.459014	-0.245194
C93	C	-0.187736	-0.459012	-0.187837
C94	C	-0.187740	-0.412096	-0.187846
C95	C	-0.216519	-0.388639	-0.216534
O96	O	-0.163299	-0.337873	-0.163477
O97	O	-0.269759	-0.337836	-0.269613
C98	C	-0.245304	-0.125905	-0.245247
C99	C	-0.216531	-0.102449	-0.216574
C100	C	-0.187755	-0.125909	-0.187893
C101	C	-0.216535	-0.055531	-0.216577
C102	C	-0.245310	-0.032071	-0.245258
C103	C	-0.274082	-0.055529	-0.273934
C104	C	-0.274080	-0.102445	-0.273927
C105	C	-0.158984	-0.102451	-0.159217
C106	C	-0.158989	-0.055535	-0.159226
C107	C	-0.187764	-0.032075	-0.187906
C108	C	-0.187718	-0.677935	-0.693325
C109	C	-0.187680	-0.677957	-0.880998
O110	O	-0.163232	-0.702399	-0.905279
N111	N	-0.216402	-0.649208	-0.904448
C112	C	-0.245133	-0.620449	-0.880976
O113	O	-0.269559	-0.595993	-0.905228
C114	C	-0.245169	-0.620424	-0.693304
C115	C	-0.216448	-0.649179	-0.669857
C116	C	-0.158999	-0.706687	-0.669877
C117	C	-0.159011	-0.706683	-0.622962
C118	C	-0.187741	-0.677927	-0.599494
C119	C	-0.216460	-0.649175	-0.622941
C120	C	-0.273898	-0.591663	-0.669833
C121	C	-0.273903	-0.591659	-0.622912
C122	C	-0.245183	-0.620414	-0.599465
C123	C	-0.245202	-0.620415	-0.552558
N124	N	-0.216480	-0.649164	-0.529108
C125	C	-0.187749	-0.677920	-0.552576
C126	C	-0.245113	-0.620464	-0.979507
C127	C	-0.245105	-0.620471	-1.026425
C128	C	-0.187650	-0.677979	-1.026443
C129	C	-0.187661	-0.677974	-0.979524
C130	C	-0.216391	-0.649214	-0.956057
C131	C	-0.187776	-0.677910	-0.454050
C132	C	-0.187792	-0.677904	-0.407130
C133	C	-0.245244	-0.620395	-0.407116
C134	C	-0.245230	-0.620401	-0.454032
C135	C	-0.216493	-0.649161	-0.477497
O136	O	-0.269633	-0.595982	-0.528248
O137	O	-0.163320	-0.702366	-0.528316
C138	C	-0.187706	-0.677939	-0.740240
C139	C	-0.216425	-0.649187	-0.763688
C140	C	-0.245155	-0.620431	-0.740219
C141	C	-0.216417	-0.649194	-0.810605
C142	C	-0.187686	-0.677950	-0.834074
C143	C	-0.158964	-0.706699	-0.810624
C144	C	-0.158976	-0.706695	-0.763708
C145	C	-0.273877	-0.591682	-0.763669
C146	C	-0.273864	-0.591689	-0.810585
C147	C	-0.245133	-0.620445	-0.834053
C148	C	-0.216499	-0.649145	-0.099827
C149	C	-0.216374	-0.649227	-0.049893
H150	H	-0.387517	-0.701220	-0.164459
C151	C	-0.127310	-0.269012	-0.127656
C152	C	-0.076245	-0.262590	-0.131419
C153	C	-0.044587	-0.288395	-0.099871
C154	C	-0.063994	-0.320621	-0.064558
C155	C	-0.115062	-0.327044	-0.060793
C156	C	-0.146720	-0.301240	-0.092342
H157	H	-0.061876	-0.238733	-0.157561
H158	H	-0.006783	-0.283640	-0.102658
H159	H	-0.040559	-0.339723	-0.041204
H160	H	-0.129431	-0.350901	-0.034652
H161	H	-0.184523	-0.305995	-0.089554
H162	H	-0.268721	-0.478110	-0.268545
C163	C	-0.127394	-0.738324	-0.695687
C164	C	-0.131075	-0.789390	-0.689239
C165	C	-0.099470	-0.821032	-0.715043
C166	C	-0.064183	-0.801608	-0.747296
C167	C	-0.060500	-0.750539	-0.753746
C168	C	-0.092105	-0.718897	-0.727941
H169	H	-0.157198	-0.803771	-0.665362
H170	H	-0.102197	-0.858836	-0.710269
H171	H	-0.040787	-0.825031	-0.766399
H172	H	-0.034377	-0.736157	-0.777623
H173	H	-0.089379	-0.681092	-0.732716
H174	H	-0.387570	-0.596895	-0.268600
H175	H	-0.268621	-0.596991	-0.473123
C176	C	-0.695129	-0.738291	-0.127592
C177	C	-0.727410	-0.718859	-0.092298
C178	C	-0.753187	-0.750494	-0.060720
C179	C	-0.746681	-0.801561	-0.064437
C180	C	-0.714398	-0.820995	-0.099733
C181	C	-0.688622	-0.789360	-0.131310
H182	H	-0.732228	-0.681054	-0.089545
H183	H	-0.777085	-0.736107	-0.034592
H184	H	-0.765762	-0.824979	-0.041062
H185	H	-0.709581	-0.858800	-0.102486
H186	H	-0.664723	-0.803747	-0.157438
C187	C	-0.127412	-0.738310	-0.597175
C188	C	-0.076340	-0.734679	-0.603639
C189	C	-0.044737	-0.766307	-0.577857
C190	C	-0.064207	-0.801565	-0.545611
C191	C	-0.115282	-0.805197	-0.539146
C192	C	-0.146884	-0.773569	-0.564928
H193	H	-0.061925	-0.708578	-0.627511
H194	H	-0.006928	-0.763618	-0.582644
H195	H	-0.040813	-0.824977	-0.526526
H196	H	-0.129696	-0.831298	-0.515274
H197	H	-0.184693	-0.776258	-0.560141
H198	H	-0.164274	-0.701388	-0.960437
H199	H	-0.164309	-0.478121	-0.164485
C200	C	-0.305483	-0.560029	-0.695624
C201	C	-0.285991	-0.524781	-0.727868
C202	C	-0.317574	-0.493143	-0.753660
C203	C	-0.368650	-0.496753	-0.747210
C204	C	-0.388144	-0.532003	-0.714964
C205	C	-0.356561	-0.563641	-0.689172
H206	H	-0.248180	-0.522107	-0.732644
H207	H	-0.303143	-0.467049	-0.777530
H208	H	-0.392029	-0.473333	-0.766303
H209	H	-0.425955	-0.534676	-0.710188
H210	H	-0.370992	-0.589735	-0.665302
H211	H	-0.164374	-0.701327	-0.473150
H212	H	-0.164257	-0.701393	-1.045559
H213	H	-0.268723	-0.393001	-0.268566
H214	H	-0.959912	-0.701402	-0.164514
H215	H	-0.603324	-0.730047	-0.135785
H216	H	-0.297506	-0.262285	-0.297258
H217	H	-0.268511	-0.597044	-0.960404
C218	C	-0.276981	0.186109	-0.276826
C219	C	-0.312223	0.218396	-0.257301
C220	C	-0.343871	0.244209	-0.288853
C221	C	-0.340276	0.237734	-0.339931
C222	C	-0.305032	0.205446	-0.359459
C223	C	-0.273385	0.179633	-0.327906
H224	H	-0.314886	0.223190	-0.219488
H225	H	-0.369961	0.268111	-0.274397
H226	H	-0.363703	0.256843	-0.363288
H227	H	-0.302369	0.200652	-0.397272
H228	H	-0.247295	0.155731	-0.342363
H229	H	-0.164352	0.179390	-0.164561
C230	C	-0.276978	0.087580	-0.276814
C231	C	-0.328045	0.094064	-0.273056
C232	C	-0.359696	0.068267	-0.304604
C233	C	-0.340282	0.035988	-0.339911
C234	C	-0.289213	0.029503	-0.343671
C235	C	-0.257561	0.055299	-0.312122
H236	H	-0.342419	0.117960	-0.246918
H237	H	-0.397501	0.073068	-0.301820
H238	H	-0.363712	0.016892	-0.363264
H239	H	-0.274839	0.005606	-0.369808
H240	H	-0.219757	0.050499	-0.314906
H241	H	-1.045034	-0.701427	-0.164527
C242	C	-0.156195	-0.709535	-0.381339
C243	C	-0.120928	-0.690094	-0.349082
C244	C	-0.089332	-0.721722	-0.323293
C245	C	-0.093003	-0.772791	-0.329762
C246	C	-0.128271	-0.792235	-0.362021
C247	C	-0.159868	-0.760606	-0.387810
H248	H	-0.118209	-0.652287	-0.344292
H249	H	-0.063224	-0.707329	-0.299412
H250	H	-0.069614	-0.796204	-0.310671
H251	H	-0.130990	-0.830041	-0.366811
H252	H	-0.185976	-0.775000	-0.411690
C253	C	-0.276849	-0.588771	-0.381291
C254	C	-0.257382	-0.553518	-0.349022
C255	C	-0.288987	-0.521895	-0.323194
C256	C	-0.340058	-0.525524	-0.329634
C257	C	-0.359528	-0.560778	-0.361904
C258	C	-0.327923	-0.592402	-0.387732
H259	H	-0.219574	-0.550830	-0.344254
H260	H	-0.274574	-0.495797	-0.299305
H261	H	-0.363454	-0.502115	-0.310514
H262	H	-0.397337	-0.563467	-0.366672
H263	H	-0.342336	-0.618499	-0.411621
H264	H	-0.164309	-0.392998	-0.164496
H265	H	-0.829189	-0.730117	-0.135814
C266	C	-0.305735	-0.170476	-0.305463
C267	C	-0.356798	-0.176907	-0.301697
C268	C	-0.388462	-0.151111	-0.333247
C269	C	-0.369062	-0.118884	-0.368563
C270	C	-0.317996	-0.112452	-0.372331
C271	C	-0.286332	-0.138248	-0.340781
H272	H	-0.371162	-0.200764	-0.275553
H273	H	-0.426265	-0.155873	-0.330457
H274	H	-0.392502	-0.099789	-0.391918
H275	H	-0.303633	-0.088595	-0.398475
H276	H	-0.248529	-0.133486	-0.343570
H277	H	-0.268497	-0.597061	-1.045512
H278	H	-0.164339	0.094283	-0.164556
H279	H	-0.135539	-0.177197	-0.135854
C280	C	-0.479401	-0.588710	-0.276816
C281	C	-0.511616	-0.608167	-0.312115
C282	C	-0.537432	-0.576552	-0.343696
C283	C	-0.531033	-0.525480	-0.339978
C284	C	-0.498817	-0.506021	-0.304678
C285	C	-0.473001	-0.537636	-0.273096
H286	H	-0.516354	-0.645975	-0.314868
H287	H	-0.561281	-0.590957	-0.369828
H288	H	-0.550144	-0.502077	-0.363357
H289	H	-0.494079	-0.468212	-0.301924
H290	H	-0.449152	-0.523231	-0.246964
H291	H	-0.297294	-0.568233	-0.603808
C292	C	-0.127333	-0.029738	-0.127678
C293	C	-0.076268	-0.036228	-0.131440
C294	C	-0.044610	-0.010433	-0.099896
C295	C	-0.064018	0.021850	-0.064590
C296	C	-0.115086	0.028341	-0.060826
C297	C	-0.146743	0.002547	-0.092370
H298	H	-0.061899	-0.060127	-0.157578
H299	H	-0.006806	-0.015239	-0.102683
H300	H	-0.040583	0.040945	-0.041239
H301	H	-0.129455	0.052241	-0.034689
H302	H	-0.184547	0.007352	-0.089584
C303	C	-0.127333	-0.128250	-0.127660
C304	C	-0.076267	-0.121827	-0.131410
C305	C	-0.044618	-0.147622	-0.099847
C306	C	-0.064034	-0.179841	-0.064533
C307	C	-0.115102	-0.186266	-0.060780
C308	C	-0.146752	-0.160470	-0.092344
H309	H	-0.061892	-0.097975	-0.157553
H310	H	-0.006813	-0.142866	-0.102625
H311	H	-0.040604	-0.198937	-0.041167
H312	H	-0.129477	-0.210117	-0.034637
H313	H	-0.184556	-0.165226	-0.089566
H314	H	-0.744071	-0.730093	-0.135801
C315	C	-0.127360	-0.738331	-0.836445
C316	C	-0.146826	-0.773585	-0.868712
C317	C	-0.115221	-0.805212	-0.894535
C318	C	-0.064150	-0.801585	-0.888092
C319	C	-0.044681	-0.766329	-0.855823
C320	C	-0.076286	-0.734702	-0.830000
H321	H	-0.184634	-0.776272	-0.873483
H322	H	-0.129634	-0.831311	-0.918422
H323	H	-0.040754	-0.824997	-0.907208
H324	H	-0.006873	-0.763643	-0.851052
H325	H	-0.061873	-0.708603	-0.806113
C326	C	-0.305457	-0.560052	-0.836371
C327	C	-0.356531	-0.563665	-0.829915
C328	C	-0.388119	-0.532024	-0.855699
C329	C	-0.368632	-0.496769	-0.887938
C330	C	-0.317555	-0.493154	-0.894395
C331	C	-0.285968	-0.524795	-0.868612
H332	H	-0.370959	-0.589764	-0.806049
H333	H	-0.425929	-0.534700	-0.850919
H334	H	-0.392015	-0.473346	-0.907025
H335	H	-0.303127	-0.467054	-0.918262
H336	H	-0.248157	-0.522119	-0.873392
H337	H	-0.297274	-0.568265	-0.744566
H338	H	-0.829266	-0.568292	-0.297349
H339	H	-0.297512	-0.121538	-0.297278
H340	H	-0.472626	-0.701258	-0.164472
H341	H	-0.135588	-0.730110	-0.744622
H342	H	-1.045080	-0.597097	-0.268662
C343	C	-0.953274	-0.588857	-0.276861
C344	C	-0.959779	-0.537790	-0.273137
C345	C	-0.934002	-0.506151	-0.304709
C346	C	-0.901720	-0.525578	-0.340006
C347	C	-0.895213	-0.576647	-0.343731
C348	C	-0.920990	-0.608286	-0.312159
H349	H	-0.983678	-0.523407	-0.247007
H350	H	-0.938818	-0.468347	-0.301951
H351	H	-0.882638	-0.502157	-0.363377
H352	H	-0.871315	-0.591030	-0.369861
H353	H	-0.916174	-0.646091	-0.314918
H354	H	-0.688511	-0.568248	-0.297342
H355	H	-0.603402	-0.568229	-0.297337
H356	H	-0.744160	-0.568268	-0.297340
H357	H	-0.297513	-0.036420	-0.297286
