data_functionalizedCrystal
_audit_creation_method	'MofGen! by Chris Wilmer'
_symmetry_space_group_name_H-M	'P1'
_symmetry_Int_Tables_number	1
_symmetry_cell_setting	triclinic
loop_
_symmetry_equiv_pos_as_xyz
  x,y,z
_cell_length_a	18.101398
_cell_length_b	21.295417
_cell_length_c	18.101389
_cell_angle_alpha	89.977434
_cell_angle_beta	89.975673
_cell_angle_gamma	90.025773
loop_
_atom_site_label
_atom_site_type_symbol
_atom_site_fract_x
_atom_site_fract_y
_atom_site_fract_z
Zn1	Zn	1.132124	-0.250755	-0.418817
Zn2	Zn	1.632124	0.249245	0.081183
Zn3	Zn	1.132021	-0.356008	-0.294967
Zn4	Zn	1.632021	0.143992	0.205033
Zn5	Zn	1.008283	-0.250748	-0.294979
Zn6	Zn	1.508283	0.249252	0.205021
Zn7	Zn	1.008235	-0.355981	-0.418755
Zn8	Zn	1.508235	0.144019	0.081245
O9	O	1.070166	-0.303373	-0.356880
O10	O	1.570166	0.196627	0.143120
O11	O	1.235743	-0.264731	-0.402409
O12	O	1.735743	0.235269	0.097591
O13	O	1.115584	-0.342054	-0.191335
O14	O	1.615584	0.157946	0.308665
O15	O	1.024774	-0.162660	-0.311437
O16	O	1.524774	0.337340	0.188563
O17	O	1.235668	-0.342060	-0.311417
O18	O	1.735668	0.157940	0.188583
O19	O	1.115759	-0.162664	-0.402421
O20	O	1.615759	0.337336	0.097579
O21	O	1.024674	-0.264720	-0.191344
O22	O	1.524674	0.235280	0.308656
O23	O	0.904644	-0.264694	-0.311377
O24	O	1.404644	0.235306	0.188623
O25	O	1.024692	-0.342014	-0.522397
O26	O	1.524692	0.157986	-0.022397
O27	O	0.904609	-0.342008	-0.402315
O28	O	1.404609	0.157992	0.097685
O29	O	1.115713	-0.264705	-0.522442
O30	O	1.615713	0.235295	-0.022442
O31	O	1.115538	-0.444094	-0.311357
O32	O	1.615538	0.055906	0.188643
O33	O	1.024592	-0.444074	-0.402304
O34	O	1.524592	0.055926	0.097696
C35	C	0.877755	-0.303348	-0.356841
C36	C	1.377755	0.196652	0.143159
C37	C	0.795441	-0.303352	-0.356842
C38	C	1.295441	0.196648	0.143158
C39	C	0.496350	-0.303391	-0.356904
C40	C	0.996350	0.196609	0.143096
C41	C	0.527673	-0.254504	-0.299967
C42	C	1.027673	0.245496	0.200033
C43	C	0.613291	-0.254635	-0.299724
C44	C	1.113291	0.245365	0.200276
C45	C	0.644733	-0.303371	-0.356873
C46	C	1.144733	0.196629	0.143127
C47	C	0.613615	-0.369679	-0.335543
C48	C	1.113615	0.130321	0.164457
C49	C	0.527970	-0.369407	-0.335147
C50	C	1.027970	0.130593	0.164853
C51	C	0.527965	-0.286547	-0.435305
C52	C	1.027965	0.213453	0.064695
C53	C	0.613615	-0.285070	-0.434877
C54	C	1.113615	0.214930	0.065123
C55	C	0.728592	-0.303364	-0.356857
C56	C	1.228592	0.196636	0.143143
C57	C	0.412491	-0.303403	-0.356919
C58	C	0.912491	0.196597	0.143081
C59	C	1.070069	-0.466925	-0.356839
C60	C	1.570069	0.033075	0.143161
C61	C	1.070095	-0.536893	-0.356846
C62	C	1.570095	-0.036893	0.143154
C63	C	1.117492	-0.569749	-0.309538
C64	C	1.617492	-0.069749	0.190462
C65	C	1.117527	-0.635491	-0.309555
C66	C	1.617527	-0.135491	0.190445
C67	C	1.070151	-0.668375	-0.356871
C68	C	1.570151	-0.168375	0.143129
C69	C	1.022751	-0.635511	-0.404188
C70	C	1.522751	-0.135511	0.095812
C71	C	1.022722	-0.569770	-0.404175
C72	C	1.522722	-0.069770	0.095825
N73	N	1.005367	-0.771637	-0.362504
N74	N	1.505367	-0.271637	0.137496
N75	N	1.005396	-0.834089	-0.362512
N76	N	1.505396	-0.334089	0.137488
C77	C	1.070234	-0.866450	-0.356914
C78	C	1.570234	-0.366450	0.143086
N79	N	1.135044	-0.834001	-0.351293
N80	N	1.635044	-0.334001	0.148707
N81	N	1.135014	-0.771543	-0.351282
N82	N	1.635014	-0.271543	0.148718
C83	C	1.070177	-0.739661	-0.356891
C84	C	1.570177	-0.239661	0.143109
C85	C	1.117673	-0.970592	-0.309622
C86	C	1.617673	-0.470592	0.190378
C87	C	1.117709	-1.036335	-0.309644
C88	C	1.617709	-0.536335	0.190356
C89	C	1.022926	-1.036354	-0.404273
C90	C	1.522926	-0.536354	0.095727
C91	C	1.022897	-0.970612	-0.404255
C92	C	1.522897	-0.470612	0.095745
C93	C	1.070269	-0.937734	-0.356925
C94	C	1.570269	-0.437734	0.143075
C95	C	1.263328	-0.303399	-0.356919
C96	C	1.763328	0.196601	0.143081
C97	C	1.345642	-0.303410	-0.356935
C98	C	1.845642	0.196590	0.143065
C99	C	1.070209	-0.303357	-0.550042
C100	C	1.570209	0.196643	-0.050042
C101	C	1.070227	-0.303350	-0.632356
C102	C	1.570227	0.196650	-0.132356
C103	C	1.070283	-0.139183	-0.356937
C104	C	1.570283	0.360817	0.143063
C105	C	1.070334	-0.069215	-0.356961
C106	C	1.570334	0.430785	0.143039
C107	C	1.070270	-0.303232	-0.931447
C108	C	1.570270	0.196768	-0.431447
C109	C	1.012805	-0.351719	-0.900093
C110	C	1.512805	0.148281	-0.400093
C111	C	1.012960	-0.351944	-0.814475
C112	C	1.512960	0.148056	-0.314475
C113	C	1.070248	-0.303291	-0.783064
C114	C	1.570248	0.196709	-0.283064
C115	C	1.148274	-0.321303	-0.814168
C116	C	1.648274	0.178697	-0.314168
C117	C	1.147953	-0.321621	-0.899813
C118	C	1.647953	0.178379	-0.399813
C119	C	1.050388	-0.236626	-0.899877
C120	C	1.550388	0.263374	-0.399877
C121	C	1.048652	-0.237011	-0.814226
C122	C	1.548652	0.262989	-0.314226
C123	C	1.070240	-0.303323	-0.699205
C124	C	1.570240	0.196677	-0.199205
C125	C	1.070283	-0.303202	-1.015306
C126	C	1.570283	0.196798	-0.515306
C127	C	1.070166	-0.303344	-0.164469
C128	C	1.570166	0.196656	0.335531
C129	C	1.070291	-0.303173	-0.082155
C130	C	1.570291	0.196827	0.417845
H131	H	0.507959	-0.383693	-0.277832
H132	H	1.007959	0.116307	0.222168
N133	N	0.639124	-0.223858	-0.455070
N134	N	1.139124	0.276142	0.044930
N135	N	0.620469	-0.200436	-0.515577
N136	N	1.120469	0.299564	-0.015577
H137	H	0.638485	-0.157203	-0.529837
H138	H	1.138485	0.342797	-0.029837
H139	H	0.991232	-0.223428	-0.793895
H140	H	1.491232	0.276572	-0.293895
H141	H	1.156126	-0.662248	-0.271032
H142	H	1.656126	-0.162248	0.228968
N143	N	0.639178	-0.416594	-0.385934
N144	N	1.139178	0.083406	0.114066
N145	N	0.706884	-0.426404	-0.393065
N146	N	1.206884	0.073596	0.106935
H147	H	0.724940	-0.459536	-0.428655
H148	H	1.224940	0.040464	0.071345
N149	N	0.500922	-0.226944	-0.459643
N150	N	1.000922	0.273056	0.040357
N151	N	0.520206	-0.205645	-0.521054
N152	N	1.020206	0.294355	-0.021054
H153	H	0.501108	-0.163548	-0.538237
H154	H	1.001108	0.336452	-0.038237
N155	N	1.166059	-0.936991	-0.261290
N156	N	1.666059	-0.436991	0.238710
N157	N	1.140018	-0.900345	-0.214066
N158	N	1.640018	-0.400345	0.285934
H159	H	1.174192	-0.876614	-0.179934
H160	H	1.674192	-0.376614	0.320066
N161	N	0.974485	-0.937048	-0.452586
N162	N	1.474485	-0.437048	0.047414
N163	N	0.979364	-0.944357	-0.520927
N164	N	1.479364	-0.444357	-0.020927
H165	H	0.945174	-0.920654	-0.555067
H166	H	1.445174	-0.420654	-0.055067
N167	N	0.638959	-0.268619	-0.226853
N168	N	1.138959	0.231381	0.273147
N169	N	0.678378	-0.315886	-0.215869
N170	N	1.178378	0.184114	0.284131
H171	H	0.696507	-0.325765	-0.164401
H172	H	1.196507	0.174235	0.335599
N173	N	0.501979	-0.416659	-0.384887
N174	N	1.001979	0.083341	0.115113
N175	N	0.518878	-0.472893	-0.374611
N176	N	1.018878	0.027107	0.125389
H177	H	0.500524	-0.506268	-0.409735
H178	H	1.000524	-0.006268	0.090265
N179	N	0.640471	-0.387901	-0.264412
N180	N	1.140471	0.112099	0.235588
N181	N	0.626339	-0.354952	-0.209052
N182	N	1.126339	0.145048	0.290948
H183	H	0.645304	-0.367818	-0.158813
H184	H	1.145304	0.132182	0.341187
H185	H	0.984125	-0.543018	-0.442700
H186	H	1.484125	-0.043018	0.057300
N187	N	0.501857	-0.192634	-0.316556
N188	N	1.001857	0.307366	0.183444
N189	N	0.460070	-0.183846	-0.370533
N190	N	0.960070	0.316154	0.129467
H191	H	0.441830	-0.140149	-0.382249
H192	H	0.941830	0.359851	0.117751
H193	H	1.026087	-0.401314	-0.793988
H194	H	1.526087	0.098686	-0.293988
N195	N	1.166141	-1.069889	-0.261322
N196	N	1.666141	-0.569889	0.238678
N197	N	1.208434	-1.040524	-0.219073
N198	N	1.708434	-0.540524	0.280927
H199	H	1.242641	-1.064221	-0.184946
H200	H	1.742641	-0.564221	0.315054
H201	H	0.635021	-0.318083	-0.479573
H202	H	1.135021	0.181917	0.020427
N203	N	0.639700	-0.192950	-0.316467
N204	N	1.139700	0.307050	0.183533
N205	N	0.679276	-0.164326	-0.271006
N206	N	1.179276	0.335674	0.228994
H207	H	0.697928	-0.120758	-0.282823
H208	H	1.197928	0.379242	0.217177
H209	H	0.506124	-0.265512	-0.242211
H210	H	1.006124	0.234488	0.257789
H211	H	0.507709	-0.322155	-0.477728
H212	H	1.007709	0.177845	0.022272
N213	N	1.165885	-0.536177	-0.261190
N214	N	1.665885	-0.036177	0.238810
N215	N	1.208203	-0.565526	-0.218954
N216	N	1.708203	-0.065526	0.281046
H217	H	1.242382	-0.541815	-0.184808
H218	H	1.742382	-0.041815	0.315192
H219	H	0.984178	-0.662290	-0.442715
H220	H	1.484178	-0.162290	0.057285
N221	N	0.939998	-0.337717	-0.925904
N222	N	1.439998	0.162283	-0.425904
N223	N	0.911162	-0.285869	-0.911261
N224	N	1.411162	0.214131	-0.411261
H225	H	0.859740	-0.275978	-0.929496
H226	H	1.359740	0.224022	-0.429496
N227	N	1.203423	-0.278389	-0.788648
N228	N	1.703423	0.221611	-0.288648
N229	N	1.185794	-0.233946	-0.747150
N230	N	1.685794	0.266054	-0.247150
H231	H	1.224743	-0.203637	-0.729125
H232	H	1.724743	0.296363	-0.229125
H233	H	0.984355	-1.063127	-0.442802
H234	H	1.484355	-0.563127	0.057198
N235	N	0.940375	-0.337800	-0.788097
N236	N	1.440375	0.162200	-0.288097
N237	N	0.889247	-0.327694	-0.832941
N238	N	1.389247	0.172306	-0.332941
H239	H	0.837980	-0.317708	-0.814316
H240	H	1.337980	0.182292	-0.314316
N241	N	1.169104	-0.382703	-0.924871
N242	N	1.669104	0.117297	-0.424871
N243	N	1.183997	-0.424800	-0.879106
N244	N	1.683997	0.075200	-0.379106
H245	H	1.198936	-0.467941	-0.896799
H246	H	1.698936	0.032059	-0.396799
H247	H	1.025801	-0.400788	-0.921614
H248	H	1.525801	0.099212	-0.421614
N249	N	1.097320	-0.189287	-0.787387
N250	N	1.597320	0.310713	-0.287387
N251	N	1.102578	-0.179489	-0.719511
N252	N	1.602578	0.320511	-0.219511
H253	H	1.136956	-0.145787	-0.700551
H254	H	1.636956	0.354213	-0.200551
H255	H	1.192220	-0.287839	-0.920557
H256	H	1.692220	0.212161	-0.420557
N257	N	1.169780	-0.381734	-0.787258
N258	N	1.669780	0.118266	-0.287258
N259	N	1.127778	-0.411640	-0.745182
N260	N	1.627778	0.088360	-0.245182
H261	H	1.142963	-0.454321	-0.726176
H262	H	1.642963	0.045679	-0.226176
N263	N	0.980253	-0.216045	-0.926963
N264	N	1.480253	0.283955	-0.426963
N265	N	0.944068	-0.250223	-0.969870
N266	N	1.444068	0.249777	-0.469870
H267	H	0.894533	-0.235694	-0.989002
H268	H	1.394533	0.264306	-0.489002
N269	N	1.102899	-0.191313	-0.925318
N270	N	1.602899	0.308687	-0.425318
N271	N	1.154761	-0.207916	-0.966519
N272	N	1.654761	0.292084	-0.466519
H273	H	1.191850	-0.175918	-0.984490
H274	H	1.691850	0.324082	-0.484490
