data_functionalizedCrystal
_audit_creation_method	'MofGen! by Chris Wilmer'
_symmetry_space_group_name_H-M	'P1'
_symmetry_Int_Tables_number	1
_symmetry_cell_setting	triclinic
loop_
_symmetry_equiv_pos_as_xyz
  x,y,z
_cell_length_a	16.109318
_cell_length_b	17.038272
_cell_length_c	15.186229
_cell_angle_alpha	89.995962
_cell_angle_beta	90.000224
_cell_angle_gamma	87.290060
loop_
_atom_site_label
_atom_site_type_symbol
_atom_site_fract_x
_atom_site_fract_y
_atom_site_fract_z
O1	O	1.110263	0.100560	-0.073156
O2	O	1.360263	0.350560	0.176844
O3	O	1.610263	0.600560	0.426844
O4	O	1.860263	0.850560	0.676844
O5	O	0.869090	0.113052	-0.073174
O6	O	1.119090	0.363052	0.176826
O7	O	1.369090	0.613052	0.426826
O8	O	1.619090	0.863052	0.676826
O9	O	0.988243	-0.007009	-0.073158
O10	O	1.238243	0.242991	0.176842
O11	O	1.488243	0.492991	0.426842
O12	O	1.738243	0.742991	0.676842
O13	O	0.991110	0.220621	-0.073172
O14	O	1.241110	0.470621	0.176828
O15	O	1.491110	0.720621	0.426828
O16	O	1.741110	0.970621	0.676828
O17	O	0.988235	-0.007011	0.073299
O18	O	1.238235	0.242989	0.323299
O19	O	1.488235	0.492989	0.573299
O20	O	1.738235	0.742989	0.823299
O21	O	0.869082	0.113050	0.073284
O22	O	1.119082	0.363050	0.323284
O23	O	1.369082	0.613050	0.573284
O24	O	1.619082	0.863050	0.823284
O25	O	1.110255	0.100558	0.073301
O26	O	1.360255	0.350558	0.323301
O27	O	1.610255	0.600558	0.573301
O28	O	1.860255	0.850558	0.823301
Zn29	Zn	0.989667	0.106804	0.096546
Zn30	Zn	1.239667	0.356804	0.346546
Zn31	Zn	1.489667	0.606804	0.596546
Zn32	Zn	1.739667	0.856804	0.846546
Zn33	Zn	0.989678	0.106806	-0.096418
Zn34	Zn	1.239678	0.356806	0.153582
Zn35	Zn	1.489678	0.606806	0.403582
Zn36	Zn	1.739678	0.856806	0.653582
O37	O	0.991102	0.220620	0.073286
O38	O	1.241102	0.470620	0.323286
O39	O	1.491102	0.720620	0.573286
O40	O	1.741102	0.970620	0.823286
C41	C	0.838075	0.112543	0.000053
C42	C	1.088075	0.362543	0.250053
C43	C	1.338075	0.612543	0.500053
C44	C	1.588075	0.862543	0.750053
C45	C	0.745673	0.111019	0.000046
C46	C	0.995673	0.361019	0.250046
C47	C	1.245673	0.611019	0.500046
C48	C	1.495673	0.861019	0.750046
C49	C	0.985632	-0.036139	0.000070
C50	C	1.235632	0.213861	0.250070
C51	C	1.485632	0.463861	0.500070
C52	C	1.735632	0.713861	0.750070
C53	C	0.977853	-0.122932	0.000070
C54	C	1.227853	0.127068	0.250070
C55	C	1.477853	0.377068	0.500070
C56	C	1.727853	0.627068	0.750070
C57	C	0.446254	0.106097	-0.079772
C58	C	0.696254	0.356097	0.170228
C59	C	0.946254	0.606097	0.420228
C60	C	1.196254	0.856097	0.670228
C61	C	0.533077	0.107524	-0.079778
C62	C	0.783077	0.357524	0.170222
C63	C	1.033077	0.607524	0.420222
C64	C	1.283077	0.857524	0.670222
C65	C	0.533085	0.107511	0.079898
C66	C	0.783085	0.357511	0.329898
C67	C	1.033085	0.607511	0.579898
C68	C	1.283085	0.857511	0.829898
C69	C	0.446264	0.106079	0.079903
C70	C	0.696264	0.356079	0.329903
C71	C	0.946264	0.606079	0.579903
C72	C	1.196264	0.856079	0.829903
C73	C	0.402851	0.105375	0.000065
C74	C	0.652851	0.355375	0.250065
C75	C	0.902851	0.605375	0.500065
C76	C	1.152851	0.855375	0.750065
C77	C	0.576494	0.108235	0.000055
C78	C	0.826494	0.358235	0.250055
C79	C	1.076494	0.608235	0.500055
C80	C	1.326494	0.858235	0.750055
C81	C	0.670631	0.109782	0.000050
C82	C	0.920631	0.359782	0.250050
C83	C	1.170631	0.609782	0.500050
C84	C	1.420631	0.859782	0.750050
C85	C	0.308708	0.103827	0.000070
C86	C	0.558708	0.353827	0.250070
C87	C	0.808708	0.603827	0.500070
C88	C	1.058708	0.853827	0.750070
C89	C	1.049273	-0.173043	0.000076
C90	C	1.299273	0.076957	0.250076
C91	C	1.549273	0.326957	0.500076
C92	C	1.799273	0.576957	0.750076
C93	C	1.041959	-0.254593	0.000067
C94	C	1.291959	-0.004593	0.250067
C95	C	1.541959	0.245407	0.500067
C96	C	1.791959	0.495407	0.750067
C97	C	0.963224	-0.286032	0.000058
C98	C	1.213224	-0.036032	0.250058
C99	C	1.463224	0.213968	0.500058
C100	C	1.713224	0.463968	0.750058
C101	C	0.891798	-0.235915	0.000049
C102	C	1.141798	0.014085	0.250049
C103	C	1.391798	0.264085	0.500049
C104	C	1.641798	0.514085	0.750049
C105	C	0.899113	-0.154366	0.000052
C106	C	1.149113	0.095634	0.250052
C107	C	1.399113	0.345634	0.500052
C108	C	1.649113	0.595634	0.750052
C109	C	0.937381	-0.531791	0.000044
C110	C	1.187381	-0.281791	0.250044
C111	C	1.437381	-0.031791	0.500044
C112	C	1.687381	0.218209	0.750044
C113	C	0.930072	-0.613347	0.000044
C114	C	1.180072	-0.363347	0.250044
C115	C	1.430072	-0.113347	0.500044
C116	C	1.680072	0.136653	0.750044
C117	C	1.080234	-0.632020	0.000060
C118	C	1.330234	-0.382020	0.250060
C119	C	1.580234	-0.132020	0.500060
C120	C	1.830234	0.117980	0.750060
C121	C	1.087542	-0.550468	0.000068
C122	C	1.337542	-0.300468	0.250068
C123	C	1.587542	-0.050468	0.500068
C124	C	1.837542	0.199532	0.750068
C125	C	1.016116	-0.500358	0.000055
C126	C	1.266116	-0.250358	0.250055
C127	C	1.516116	-0.000358	0.500055
C128	C	1.766116	0.249642	0.750055
C129	C	0.955746	-0.369390	0.000052
C130	C	1.205746	-0.119390	0.250052
C131	C	1.455746	0.130610	0.500052
C132	C	1.705746	0.380610	0.750052
C133	C	1.023595	-0.417002	0.000055
C134	C	1.273595	-0.167002	0.250055
C135	C	1.523595	0.082998	0.500055
C136	C	1.773595	0.332998	0.750055
C137	C	1.141270	0.101067	0.000073
C138	C	1.391270	0.351067	0.250073
C139	C	1.641270	0.601067	0.500073
C140	C	1.891270	0.851067	0.750073
C141	C	1.233672	0.102592	0.000074
C142	C	1.483672	0.352592	0.250074
C143	C	1.733672	0.602592	0.500074
C144	C	1.983672	0.852592	0.750074
C145	C	0.993713	0.249749	0.000055
C146	C	1.243713	0.499749	0.250055
C147	C	1.493713	0.749749	0.500055
C148	C	1.743713	0.999749	0.750055
C149	C	1.001492	0.336542	0.000050
C150	C	1.251492	0.586542	0.250050
C151	C	1.501492	0.836542	0.500050
C152	C	1.751492	1.086542	0.750050
N153	N	0.989665	0.106802	0.228238
N154	N	1.239665	0.356802	0.478238
N155	N	1.489665	0.606802	0.728238
N156	N	1.739665	0.856802	0.978238
N157	N	0.989686	0.106802	-0.228111
N158	N	1.239686	0.356802	0.021889
N159	N	1.489686	0.606802	0.271889
N160	N	1.739686	0.856802	0.521889
C161	C	1.042447	0.053657	0.453968
C162	C	1.292447	0.303657	0.703968
C163	C	1.542447	0.553657	0.953968
C164	C	1.792447	0.803657	1.203968
C165	C	1.042449	0.053655	0.546158
C166	C	1.292449	0.303655	0.796158
C167	C	1.542449	0.553655	1.046158
C168	C	1.792449	0.803655	1.296158
C169	C	0.936899	0.159950	0.546153
C170	C	1.186899	0.409950	0.796153
C171	C	1.436899	0.659950	1.046153
C172	C	1.686899	0.909950	1.296153
C173	C	0.936893	0.159948	0.453965
C174	C	1.186893	0.409948	0.703965
C175	C	1.436893	0.659948	0.953965
C176	C	1.686893	0.909948	1.203965
C177	C	0.989671	0.106802	0.407875
C178	C	1.239671	0.356802	0.657875
C179	C	1.489671	0.606802	0.907875
C180	C	1.739671	0.856802	1.157875
C181	C	0.989680	0.106802	0.592253
C182	C	1.239680	0.356802	0.842253
C183	C	1.489680	0.606802	1.092253
C184	C	1.739680	0.856802	1.342253
C185	C	0.989682	0.106801	0.692209
C186	C	1.239682	0.356801	0.942209
C187	C	1.489682	0.606801	1.192209
C188	C	1.739682	0.856801	1.442209
C189	C	0.989668	0.106802	0.307913
C190	C	1.239668	0.356802	0.557913
C191	C	1.489668	0.606802	0.807913
C192	C	1.739668	0.856802	1.057913
H193	H	0.410909	0.105523	-0.144781
H194	H	0.660909	0.355523	0.105219
H195	H	0.910909	0.605523	0.355219
H196	H	1.160909	0.855523	0.605219
H197	H	0.568412	0.108110	-0.144789
H198	H	0.818412	0.358110	0.105211
H199	H	1.068412	0.608110	0.355211
H200	H	1.318412	0.858110	0.605211
H201	H	0.568443	0.108085	0.144899
H202	H	0.818443	0.358085	0.394899
H203	H	1.068443	0.608085	0.644899
H204	H	1.318443	0.858085	0.894899
H205	H	0.410925	0.105490	0.144920
H206	H	0.660925	0.355490	0.394920
H207	H	0.910925	0.605490	0.644920
H208	H	1.160925	0.855490	0.894920
H209	H	0.893929	0.203221	0.583689
H210	H	1.143929	0.453221	0.833689
H211	H	1.393929	0.703221	1.083689
H212	H	1.643929	0.953221	1.333689
H213	H	0.893913	0.203225	0.416433
H214	H	1.143913	0.453225	0.666433
H215	H	1.393913	0.703225	0.916433
H216	H	1.643913	0.953225	1.166433
H217	H	1.151656	-0.524877	0.000075
H218	H	1.401656	-0.274877	0.250075
H219	H	1.651656	-0.024877	0.500075
H220	H	1.901656	0.225123	0.750075
H221	H	1.113388	-0.147452	0.000088
H222	H	1.363388	0.102548	0.250088
H223	H	1.613388	0.352548	0.500088
H224	H	1.863388	0.602548	0.750088
H225	H	1.100117	-0.295391	0.000074
H226	H	1.350117	-0.045391	0.250074
H227	H	1.600117	0.204609	0.500074
H228	H	1.850117	0.454609	0.750074
H229	H	1.138384	-0.672828	0.000070
H230	H	1.388384	-0.422828	0.250070
H231	H	1.638384	-0.172828	0.500070
H232	H	1.888384	0.077172	0.750070
H233	H	0.865953	-0.638941	0.000051
H234	H	1.115953	-0.388941	0.250051
H235	H	1.365953	-0.138941	0.500051
H236	H	1.615953	0.111059	0.750051
H237	H	0.827690	-0.261519	0.000037
H238	H	1.077690	-0.011519	0.250037
H239	H	1.327690	0.238481	0.500037
H240	H	1.577690	0.488481	0.750037
H241	H	0.879221	-0.491001	0.000033
H242	H	1.129221	-0.241001	0.250033
H243	H	1.379221	0.008999	0.500033
H244	H	1.629221	0.258999	0.750033
H245	H	0.840955	-0.113566	0.000047
H246	H	1.090955	0.136434	0.250047
H247	H	1.340955	0.386434	0.500047
H248	H	1.590955	0.636434	0.750047
H249	H	1.087701	-0.391401	0.000042
H250	H	1.337701	-0.141401	0.250042
H251	H	1.587701	0.108599	0.500042
H252	H	1.837701	0.358599	0.750042
H253	H	0.891639	-0.394997	0.000047
H254	H	1.141639	-0.144997	0.250047
H255	H	1.391639	0.105003	0.500047
H256	H	1.641639	0.355003	0.750047
H257	H	1.085421	0.010381	0.416444
H258	H	1.335421	0.260381	0.666444
H259	H	1.585421	0.510381	0.916444
H260	H	1.835421	0.760381	1.166444
H261	H	1.085422	0.010378	0.583685
H262	H	1.335422	0.260378	0.833685
H263	H	1.585422	0.510378	1.083685
H264	H	1.835422	0.760378	1.333685
