data_functionalizedCrystal
_audit_creation_method	'MofGen! by Chris Wilmer'
_symmetry_space_group_name_H-M	'P1'
_symmetry_Int_Tables_number	1
_symmetry_cell_setting	triclinic
loop_
_symmetry_equiv_pos_as_xyz
  x,y,z
_cell_length_a	10.489741
_cell_length_b	10.489746
_cell_length_c	12.996460
_cell_angle_alpha	89.993562
_cell_angle_beta	89.997126
_cell_angle_gamma	84.540238
loop_
_atom_site_label
_atom_site_type_symbol
_atom_site_fract_x
_atom_site_fract_y
_atom_site_fract_z
O1	O	1.694059	0.179970	-0.085504
O2	O	1.322863	0.196863	-0.085520
O3	O	1.516904	0.002819	-0.085504
O4	O	1.500018	0.374014	-0.085520
O5	O	1.516884	0.002808	0.085630
O6	O	1.322843	0.196852	0.085614
O7	O	1.694038	0.179959	0.085630
Cu8	Cu	1.508439	0.188404	0.101248
Cu9	Cu	1.508463	0.188417	-0.101138
O10	O	1.499998	0.374003	0.085614
C11	C	1.275321	0.195581	0.000045
C12	C	1.133692	0.191764	0.000039
C13	C	1.065550	0.068300	0.000054
C14	C	0.973434	0.126629	-0.084324
C15	C	0.973448	0.126647	0.084400
C16	C	1.043442	0.250144	-0.084409
C17	C	1.043465	0.250145	0.084391
C18	C	0.951377	0.308564	-0.000008
C19	C	1.515617	-0.044718	0.000063
C20	C	1.511797	-0.186347	0.000062
C21	C	1.386074	-0.339205	0.000043
C22	C	1.448940	-0.261808	-0.084330
C23	C	1.448950	-0.261859	0.084395
C24	C	1.567922	-0.361299	-0.084404
C25	C	1.567914	-0.361356	0.084396
C26	C	1.630868	-0.284008	0.000003
C27	C	1.741580	0.181240	0.000063
C28	C	1.883210	0.185057	0.000062
C29	C	1.501285	0.421540	0.000045
C30	C	1.505105	0.563169	0.000039
N31	N	1.508431	0.188394	0.243595
N32	N	1.508481	0.188417	-0.243485
C33	C	1.508461	0.188419	0.663409
C34	C	1.508449	0.188416	0.546604
C35	C	1.508447	0.188408	0.453506
C36	C	1.508433	0.188403	0.336693
H37	H	0.901955	0.410167	-0.000058
C38	C	1.635765	-0.419747	-0.180885
C39	C	1.777985	-0.402435	-0.199932
C40	C	1.845822	-0.460884	-0.296412
C41	C	1.771438	-0.536644	-0.373846
C42	C	1.629209	-0.553960	-0.354801
C43	C	1.561373	-0.495511	-0.258320
H44	H	1.833056	-0.346350	-0.142609
H45	H	1.951109	-0.448066	-0.310510
H46	H	1.821654	-0.579911	-0.445266
H47	H	1.574139	-0.610045	-0.412123
H48	H	1.456086	-0.508329	-0.244222
H49	H	1.618109	-0.404860	0.155737
H50	H	0.942460	0.074380	0.155736
C51	C	0.931390	0.056013	-0.180614
C52	C	0.981923	-0.084795	-0.199092
C53	C	0.939817	-0.155445	-0.295341
C54	C	0.847178	-0.085286	-0.373112
C55	C	0.796640	0.055530	-0.354636
C56	C	0.838746	0.126180	-0.258387
H57	H	1.050505	-0.136738	-0.141519
H58	H	0.977230	-0.259686	-0.309017
H59	H	0.816009	-0.137585	-0.444361
H60	H	0.728058	0.107473	-0.412209
H61	H	0.801333	0.230422	-0.244711
H62	H	1.734448	-0.259533	-0.000039
H63	H	1.398700	-0.218328	-0.155667
H64	H	1.074503	0.302338	0.155727
C65	C	1.085090	0.320652	-0.180898
C66	C	1.227696	0.337240	-0.198765
C67	C	1.269348	0.407738	-0.295256
C68	C	1.168394	0.461649	-0.373879
C69	C	1.025780	0.445062	-0.356015
C70	C	0.984127	0.374564	-0.259524
H71	H	1.302436	0.297331	-0.140561
H72	H	1.374921	0.420016	-0.308479
H73	H	1.199228	0.513836	-0.445307
H74	H	0.951039	0.484972	-0.414219
H75	H	0.878554	0.362286	-0.246301
C76	C	1.246256	-0.372617	-0.000072
C77	C	1.197105	-0.452472	-0.088522
C78	C	1.057292	-0.485886	-0.088643
C79	C	0.966630	-0.439445	-0.000315
C80	C	1.015781	-0.359585	0.088141
C81	C	1.155593	-0.326171	0.088262
H82	H	1.264219	-0.486855	-0.153913
H83	H	1.020908	-0.545005	-0.154124
H84	H	0.863133	-0.464181	-0.000405
H85	H	0.948666	-0.325202	0.153532
H86	H	1.191977	-0.267052	0.153744
C87	C	1.381037	-0.203176	0.180764
C88	C	1.264616	-0.103127	0.169231
C89	C	1.196693	-0.044447	0.265594
C90	C	1.245193	-0.085816	0.373490
C91	C	1.361620	-0.185870	0.385027
C92	C	1.429543	-0.244550	0.288664
H93	H	1.228708	-0.072499	0.089356
H94	H	1.110506	0.029620	0.257053
H95	H	1.194913	-0.042377	0.444823
H96	H	1.397528	-0.216499	0.464901
H97	H	1.515730	-0.318617	0.297205
H98	H	1.115237	-0.033196	-0.000047
