data_functionalizedCrystal
_audit_creation_method	'MofGen! by Chris Wilmer'
_symmetry_space_group_name_H-M	'P1'
_symmetry_Int_Tables_number	1
_symmetry_cell_setting	triclinic
loop_
_symmetry_equiv_pos_as_xyz
  x,y,z
_cell_length_a	9.130313
_cell_length_b	16.109301
_cell_length_c	16.109304
_cell_angle_alpha	96.537941
_cell_angle_beta	89.998438
_cell_angle_gamma	90.002485
loop_
_atom_site_label
_atom_site_type_symbol
_atom_site_fract_x
_atom_site_fract_y
_atom_site_fract_z
O1	O	0.121697	-1.103128	0.106863
O2	O	0.121720	-0.861066	0.120163
O3	O	0.121709	-0.988746	-0.007518
O4	O	0.121708	-0.975449	0.234544
O5	O	-0.121890	-0.988744	-0.007514
O6	O	-0.121879	-0.861065	0.120166
O7	O	-0.121901	-1.103127	0.106867
Cu8	Cu	-0.144133	-0.982096	0.113517
Cu9	Cu	0.143951	-0.982097	0.113513
O10	O	-0.121891	-0.975447	0.234547
C11	C	-0.000077	-0.830091	0.119626
C12	C	-0.000068	-0.737795	0.118010
N13	N	-0.346755	-0.982100	0.113519
C14	C	-0.000087	-0.988206	-0.038491
C15	C	-0.000077	-0.986590	-0.130786
C16	C	-0.423412	-1.038651	0.057001
C17	C	-0.576749	-1.038649	0.056991
C18	C	-0.576759	-0.925543	0.170024
C19	C	-0.423425	-0.925541	0.170030
C20	C	-0.346743	-1.095210	0.000491
C21	C	-0.423400	-1.151766	-0.056031
C22	C	-0.576737	-1.151764	-0.056041
C23	C	-0.653417	-1.095206	0.000471
N24	N	0.346574	-0.982099	0.113504
C25	C	-0.000102	-1.134102	0.107404
C26	C	-0.000101	-1.226398	0.109019
C27	C	-0.000085	-0.515524	0.190018
C28	C	-0.000095	-0.428803	0.188494
C29	C	-0.000088	-0.448676	0.037005
C30	C	-0.000089	-0.535395	0.038530
C31	C	-0.000080	-0.568816	0.115039
C32	C	-0.000089	-0.395377	0.111990
C33	C	-0.000099	-0.301351	0.110337
C34	C	-0.000073	-0.662848	0.116693
C35	C	0.132703	-0.982857	-0.343125
C36	C	0.132702	-0.981331	-0.429846
C37	C	-0.132883	-0.981333	-0.429839
C38	C	-0.132880	-0.982854	-0.343120
C39	C	-0.000082	-0.983620	-0.299766
C40	C	-0.000086	-0.980573	-0.473205
C41	C	-0.000089	-0.978919	-0.567231
C42	C	-0.000080	-0.985273	-0.205734
C43	C	-0.000091	-0.975987	0.265520
C44	C	-0.000092	-0.977603	0.357816
H45	H	-0.221888	-1.095219	0.000495
H46	H	-0.241001	-0.980712	-0.465148
H47	H	-0.360959	-1.197809	-0.102046
H48	H	-0.000089	-0.542732	0.252316
O49	O	-0.262007	-0.983629	-0.301127
C50	C	-0.379218	-0.982612	-0.357984
H51	H	-0.340301	-1.007837	-0.423252
H52	H	-0.420043	-0.915790	-0.358466
C53	C	-0.552476	-1.006712	-0.251112
C54	C	-0.504680	-1.037700	-0.331274
H55	H	-0.629870	-1.040689	-0.234634
H56	H	-0.473510	-1.007394	-0.212805
H57	H	-0.586486	-0.951027	-0.251523
H58	H	-0.470654	-1.093380	-0.330859
H59	H	-0.583643	-1.037029	-0.369580
H60	H	-0.639149	-1.197808	-0.102069
O61	O	0.261598	-0.980703	-0.472071
C62	C	0.269557	-1.051794	-0.531658
H63	H	0.154263	-1.075557	-0.547796
H64	H	0.335082	-1.102773	-0.504847
C65	C	0.487088	-0.999300	-0.591344
C66	C	0.345480	-1.028482	-0.611170
H67	H	0.533926	-0.984923	-0.640389
H68	H	0.481730	-0.951406	-0.551197
H69	H	0.541673	-1.041788	-0.569000
H70	H	0.290892	-0.985992	-0.633503
H71	H	0.350831	-1.076369	-0.651323
O72	O	-0.000029	-0.377154	0.261406
C73	C	-0.000061	-0.425252	0.329256
H74	H	0.046061	-0.489979	0.308136
H75	H	-0.116927	-0.431426	0.352709
C76	C	0.038820	-0.302520	0.426161
C77	C	0.095479	-0.382016	0.400223
H78	H	0.097747	-0.275849	0.469939
H79	H	0.038836	-0.270114	0.380450
H80	H	-0.058568	-0.307675	0.445700
H81	H	0.192857	-0.376859	0.380675
H82	H	0.095482	-0.414420	0.445933
O83	O	-0.802369	-1.095333	0.000369
C84	C	-0.853592	-1.157355	-0.061654
H85	H	-0.765237	-1.206889	-0.076131
H86	H	-0.880769	-1.127698	-0.120749
C87	C	-1.100704	-1.137415	-0.012236
C88	C	-0.992190	-1.198257	-0.030013
H89	H	-1.186202	-1.162644	0.007279
H90	H	-1.066196	-1.095628	0.029548
H91	H	-1.123334	-1.112706	-0.061487
H92	H	-0.969549	-1.222957	0.019240
H93	H	-1.026697	-1.240050	-0.071788
H94	H	-0.639202	-0.879496	0.216035
H95	H	0.240836	-0.983479	-0.307829
H96	H	-0.000089	-0.578788	-0.022530
H97	H	-0.361010	-0.879492	0.216051
O98	O	-0.000020	-0.416070	-0.037239
C99	C	-0.000053	-0.328102	-0.022509
H100	H	0.046061	-0.307718	0.042378
H101	H	-0.116918	-0.303965	-0.026533
C102	C	0.038847	-0.317187	-0.168329
C103	C	0.095497	-0.292151	-0.088637
H104	H	0.097780	-0.295010	-0.209121
H105	H	0.038864	-0.376453	-0.178254
H106	H	-0.058540	-0.297071	-0.171671
H107	H	0.192874	-0.312276	-0.085293
H108	H	0.095499	-0.232888	-0.078713
