data_functionalizedCrystal
_audit_creation_method	'MofGen! by Chris Wilmer'
_symmetry_space_group_name_H-M	'P1'
_symmetry_Int_Tables_number	1
_symmetry_cell_setting	triclinic
loop_
_symmetry_equiv_pos_as_xyz
  x,y,z
_cell_length_a	25.639242
_cell_length_b	25.639239
_cell_length_c	13.032268
_cell_angle_alpha	82.858283
_cell_angle_beta	82.837666
_cell_angle_gamma	90.030990
loop_
_atom_site_label
_atom_site_type_symbol
_atom_site_fract_x
_atom_site_fract_y
_atom_site_fract_z
Zn1	Zn	0.761686	-0.245777	0.590854
Zn2	Zn	0.772712	-0.322118	0.416105
Zn3	Zn	0.685363	-0.234688	0.416128
Zn4	Zn	0.674211	-0.333167	0.590787
O5	O	0.723493	-0.283937	0.503469
O6	O	0.836312	-0.255920	0.567692
O7	O	0.770406	-0.301255	0.269880
O8	O	0.695540	-0.162996	0.439344
O9	O	0.844413	-0.312008	0.439304
O10	O	0.751614	-0.171143	0.567715
O11	O	0.706231	-0.237021	0.269897
O12	O	0.610720	-0.247735	0.439279
O13	O	0.676533	-0.330839	0.737024
O14	O	0.602527	-0.320087	0.567599
O15	O	0.740800	-0.266634	0.737074
O16	O	0.759593	-0.396746	0.439239
O17	O	0.687225	-0.404864	0.567577
C18	C	0.587652	-0.283907	0.503435
C19	C	0.529538	-0.283908	0.503445
C20	C	0.274125	-0.254800	0.570442
C21	C	0.328730	-0.254794	0.570436
O22	O	0.353379	-0.230022	0.627392
N23	N	0.360262	-0.283932	0.503481
C24	C	0.337186	-0.313082	0.436534
O25	O	0.369020	-0.337866	0.379583
C26	C	0.282582	-0.313090	0.436546
C27	C	0.251053	-0.283946	0.503499
C28	C	0.242596	-0.225659	0.637390
C29	C	0.187996	-0.225663	0.637394
C30	C	0.164923	-0.254810	0.570451
C31	C	0.196452	-0.283951	0.503503
C32	C	0.259506	-0.342242	0.369606
C33	C	0.204898	-0.342248	0.369624
C34	C	0.173369	-0.313104	0.436576
C35	C	0.118779	-0.313102	0.436564
N36	N	0.087247	-0.283964	0.503519
C37	C	0.110319	-0.254818	0.570463
C38	C	0.451858	-0.313063	0.436515
C39	C	0.506461	-0.313052	0.436497
C40	C	0.498001	-0.254765	0.570401
C41	C	0.443397	-0.254774	0.570413
C42	C	0.420326	-0.283925	0.503471
C43	C	-0.004346	-0.254830	0.570466
C44	C	-0.058951	-0.254835	0.570461
C45	C	-0.050487	-0.313124	0.436562
C46	C	0.004114	-0.313117	0.436562
C47	C	0.027182	-0.283968	0.503523
O48	O	0.094093	-0.337863	0.379640
O49	O	0.078478	-0.230043	0.627413
C50	C	0.723408	-0.419777	0.503421
C51	C	0.723417	-0.477892	0.503435
C52	C	0.761255	-0.834025	0.436757
C53	C	0.761274	-0.888630	0.436771
O54	O	0.793357	-0.913267	0.380026
N55	N	0.723580	-0.920181	0.503538
C56	C	0.685868	-0.897124	0.570303
O57	O	0.653809	-0.928975	0.627095
C58	C	0.685851	-0.842520	0.570293
C59	C	0.723544	-0.810972	0.503514
C60	C	0.798945	-0.802476	0.369984
C61	C	0.798925	-0.747875	0.369969
C62	C	0.761214	-0.724822	0.436727
C63	C	0.723524	-0.756370	0.503499
C64	C	0.648142	-0.819465	0.637063
C65	C	0.648129	-0.764857	0.637048
C66	C	0.685822	-0.733309	0.570269
C67	C	0.685794	-0.678716	0.570242
N68	N	0.723487	-0.647165	0.503475
C69	C	0.761198	-0.670218	0.436717
C70	C	0.685906	-1.011796	0.570319
C71	C	0.685920	-1.066399	0.570324
C72	C	0.761327	-1.057901	0.436793
C73	C	0.761310	-1.003297	0.436784
C74	C	0.723600	-0.980245	0.503552
C75	C	0.761152	-0.555551	0.436690
C76	C	0.761128	-0.500945	0.436678
C77	C	0.685723	-0.509448	0.570212
C78	C	0.685746	-0.564049	0.570221
C79	C	0.723465	-0.587099	0.503456
O80	O	0.653728	-0.654042	0.626961
O81	O	0.793256	-0.638362	0.379944
C82	C	0.859864	-0.283968	0.503503
C83	C	0.917977	-0.283982	0.503518
C84	C	0.706193	-0.301206	0.776025
C85	C	0.698821	-0.308565	0.892172
C86	C	0.723591	-0.147569	0.503539
C87	C	0.723633	-0.089457	0.503570
C88	C	0.740755	-0.266698	0.231973
C89	C	0.748229	-0.259192	0.115826
C90	C	0.727332	-0.280078	0.943978
C91	C	0.719714	-0.287683	1.064022
H92	H	0.532128	-0.336778	0.381966
O93	O	0.683790	-0.323440	1.117074
C94	C	0.633366	-0.310340	1.090456
H95	H	0.632649	-0.266680	1.060403
H96	H	0.603007	-0.319355	1.162273
H97	H	0.623666	-0.334389	1.027171
O98	O	0.763124	-0.244194	0.890923
C99	C	0.750069	-0.193756	0.917557
H100	H	0.706409	-0.192997	0.947623
H101	H	0.759117	-0.163411	0.845746
H102	H	0.774125	-0.184076	0.980838
H103	H	0.668768	-0.338580	0.936690
O104	O	-0.089503	-0.226515	0.635604
C105	C	-0.057425	-0.200781	0.694670
H106	H	-0.018736	-0.222422	0.698202
H107	H	-0.078416	-0.200487	0.777025
H108	H	-0.049182	-0.158626	0.656549
O109	O	0.018124	-0.226478	0.635362
C110	C	0.053476	-0.188887	0.575991
H111	H	0.066679	-0.202244	0.496738
H112	H	0.089173	-0.184601	0.618585
H113	H	0.033163	-0.149418	0.564643
H114	H	0.617446	-0.845143	0.691436
O115	O	0.649046	-0.487132	0.635101
C116	C	0.615790	-0.526684	0.694073
H117	H	0.616714	-0.562906	0.651280
H118	H	0.573886	-0.511637	0.705161
H119	H	0.629877	-0.537493	0.773462
H120	H	0.162329	-0.201934	0.691918
H121	H	0.791822	-0.475259	0.382295
H122	H	0.655223	-1.092081	0.624692
H123	H	0.792004	-0.977613	0.382407
O124	O	0.797725	-0.577997	0.371797
C125	C	0.772293	-0.605336	0.304235
H126	H	0.730322	-0.615877	0.341006
H127	H	0.794499	-0.642831	0.290292
H128	H	0.771492	-0.579408	0.226776
O129	O	0.264920	-0.197295	0.702455
C130	C	0.225372	-0.171592	0.761557
H131	H	0.189163	-0.167052	0.718762
H132	H	0.240441	-0.131115	0.772847
H133	H	0.214532	-0.195822	0.840854
O134	O	0.784022	-0.223301	1.062788
C135	C	0.770960	-0.172869	1.089441
H136	H	0.727297	-0.172116	1.119497
H137	H	0.780009	-0.142516	1.017642
H138	H	0.795009	-0.163193	1.152735
O139	O	0.797986	-1.080213	0.371851
C140	C	0.831264	-1.040664	0.312929
H141	H	0.810074	-1.001526	0.309249
H142	H	0.842108	-1.051241	0.230616
H143	H	0.868521	-1.037245	0.351274
H144	H	0.655194	-0.993030	0.624686
O145	O	0.412846	-0.226457	0.635555
C146	C	0.444928	-0.200720	0.694612
H147	H	0.483619	-0.222358	0.698133
H148	H	0.423941	-0.200428	0.776971
H149	H	0.453166	-0.158565	0.656489
O150	O	-0.072818	-0.341449	0.371442
C151	C	-0.033286	-0.367184	0.312365
H152	H	0.005873	-0.345538	0.308800
H153	H	-0.043853	-0.367488	0.230022
H154	H	-0.029912	-0.409335	0.350498
O155	O	0.611445	-0.742549	0.701945
C156	C	0.578194	-0.782110	0.760902
H157	H	0.579130	-0.818329	0.718102
H158	H	0.536286	-0.767072	0.771982
H159	H	0.592277	-0.792917	0.840296
H160	H	0.655054	-0.589738	0.624601
H161	H	0.516796	-0.231033	0.624910
H162	H	0.433077	-0.336800	0.381994
H163	H	0.285168	-0.365974	0.315086
H164	H	0.186117	-0.365989	0.315113
H165	H	0.029787	-0.336843	0.382035
O166	O	0.835596	-0.717312	0.305077
C167	C	0.868874	-0.749377	0.246152
H168	H	0.867952	-0.791002	0.288971
H169	H	0.910773	-0.732873	0.235088
H170	H	0.854806	-0.750185	0.166751
O171	O	0.835654	-0.824882	0.305311
C172	C	0.865623	-0.860191	0.364907
H173	H	0.863542	-0.848942	0.447224
H174	H	0.908280	-0.858356	0.327251
H175	H	0.849280	-0.901826	0.368437
