data_functionalizedCrystal
_audit_creation_method	'MofGen! by Chris Wilmer'
_symmetry_space_group_name_H-M	'P1'
_symmetry_Int_Tables_number	1
_symmetry_cell_setting	triclinic
loop_
_symmetry_equiv_pos_as_xyz
  x,y,z
_cell_length_a	9.065215
_cell_length_b	13.101018
_cell_length_c	14.044220
_cell_angle_alpha	86.335600
_cell_angle_beta	89.101787
_cell_angle_gamma	93.411652
loop_
_atom_site_label
_atom_site_type_symbol
_atom_site_fract_x
_atom_site_fract_y
_atom_site_fract_z
O1	O	1.983267	0.085206	0.133966
O2	O	1.555248	0.085211	0.145382
O3	O	1.762832	0.085199	0.001635
O4	O	1.775683	0.085219	0.277713
O5	O	1.747921	-0.085231	0.011957
O6	O	1.540336	-0.085218	0.155704
O7	O	1.968356	-0.085223	0.144289
Zn8	Zn	1.751978	-0.112280	0.151635
Zn9	Zn	1.771625	0.112268	0.138035
O10	O	1.760771	-0.085211	0.288036
C11	C	1.492684	-0.000003	0.149446
C12	C	1.328477	-0.000002	0.146168
N13	N	1.738581	-0.265528	0.160917
C14	C	1.803253	-0.525442	0.116114
C15	C	1.720366	-0.474564	0.173545
C16	C	1.730503	-0.358246	0.166517
C17	C	1.793117	-0.641770	0.123141
C18	C	2.030920	-0.000007	0.140224
C19	C	2.195127	-0.000002	0.143502
C20	C	1.749752	-0.000017	-0.028567
C21	C	1.732975	-0.000018	-0.133936
N22	N	1.785033	0.265516	0.128746
C23	C	1.702304	-0.000003	-0.326862
C24	C	1.821293	-0.000001	-0.383474
C25	C	1.804228	0.000008	-0.490825
C26	C	1.719367	-0.000011	-0.219501
C27	C	1.773852	0.000007	0.318237
C28	C	1.790630	0.000014	0.423606
H29	H	1.641791	-0.518364	0.227993
H30	H	1.881824	-0.481647	0.061672
H31	H	1.587627	0.000001	-0.359015
O32	O	1.958165	0.000165	-0.345178
C33	C	2.043087	0.088414	-0.380824
H34	H	1.966364	0.150120	-0.405907
H35	H	2.116262	0.118026	-0.322039
H36	H	2.115305	0.068456	-0.443347
