data_functionalizedCrystal
_audit_creation_method	'MofGen! by Chris Wilmer'
_symmetry_space_group_name_H-M	'P1'
_symmetry_Int_Tables_number	1
_symmetry_cell_setting	triclinic
loop_
_symmetry_equiv_pos_as_xyz
  x,y,z
_cell_length_a	10.654541
_cell_length_b	14.519709
_cell_length_c	9.730217
_cell_angle_alpha	89.995799
_cell_angle_beta	89.999932
_cell_angle_gamma	84.082037
loop_
_atom_site_label
_atom_site_type_symbol
_atom_site_fract_x
_atom_site_fract_y
_atom_site_fract_z
O1	O	1.666593	0.129520	-0.114251
O2	O	1.300995	0.141863	-0.114263
O3	O	1.493488	0.001504	-0.114245
O4	O	1.474101	0.269880	-0.114270
O5	O	1.493482	0.001502	0.114335
O6	O	1.300990	0.141862	0.114317
O7	O	1.666587	0.129519	0.114329
Zn8	Zn	1.483787	0.135690	0.150615
Zn9	Zn	1.483795	0.135692	-0.150549
O10	O	1.474095	0.269879	0.114310
C11	C	1.254203	0.140957	0.000025
C12	C	1.114786	0.138247	0.000021
C13	C	1.085201	0.306085	-0.000012
C14	C	1.004912	0.388727	-0.000034
C15	C	0.873919	0.386175	-0.000035
C16	C	0.823213	0.300972	-0.000010
C17	C	0.903502	0.218330	0.000012
C18	C	1.034496	0.220891	0.000009
C19	C	0.933086	0.050493	0.000055
C20	C	1.064080	0.053043	0.000046
C21	C	0.882380	-0.034710	0.000080
C22	C	0.962669	-0.117354	0.000092
C23	C	1.093670	-0.114798	0.000091
C24	C	1.144369	-0.029599	0.000068
C25	C	1.492581	-0.032862	0.000046
C26	C	1.489874	-0.135257	0.000046
C27	C	1.479906	-0.510204	0.000010
C28	C	1.482674	-0.405882	0.000021
C29	C	1.484890	-0.322734	0.000030
C30	C	1.487658	-0.218405	0.000037
C31	C	1.713380	0.130425	0.000037
C32	C	1.852797	0.133135	0.000033
C33	C	1.475002	0.304244	0.000017
C34	C	1.477709	0.406639	0.000007
N35	N	1.483791	0.135689	0.356151
N36	N	1.483801	0.135686	-0.356086
C37	C	1.654312	0.011436	0.356159
C38	C	1.739581	-0.050687	0.428102
C39	C	1.739594	-0.050688	0.571982
C40	C	1.654326	0.011440	0.643921
C41	C	1.569057	0.073564	0.571978
C42	C	1.569056	0.073559	0.428095
C43	C	1.398532	0.197810	0.571971
C44	C	1.398523	0.197816	0.428091
C45	C	1.313264	0.259938	0.643910
C46	C	1.227999	0.322067	0.571967
C47	C	1.227991	0.322066	0.428078
C48	C	1.313254	0.259940	0.356147
H49	H	1.251028	-0.027510	0.000051
H50	H	1.654321	0.011438	0.239004
H51	H	1.159035	-0.182096	0.000114
N52	N	1.059600	0.480622	-0.000056
H53	H	1.154766	0.469704	-0.000056
H54	H	1.030243	0.516815	-0.084804
N55	N	1.654341	0.011439	0.799105
H56	H	1.587392	0.060223	0.833761
H57	H	1.635985	-0.051381	0.833660
N58	N	1.831516	-0.117716	0.350513
H59	H	1.818568	-0.108297	0.248449
H60	H	1.920635	-0.106467	0.375639
N61	N	0.907967	-0.209237	0.000119
H62	H	0.937219	-0.245488	-0.084609
H63	H	0.937245	-0.245404	0.084916
N64	N	1.313269	0.259938	0.799094
H65	H	1.380226	0.211160	0.833757
H66	H	1.331622	0.322762	0.833624
N67	N	1.831558	-0.117690	0.649588
H68	H	1.885573	-0.157048	0.582190
H69	H	1.887144	-0.081992	0.709272
H70	H	0.716550	0.298901	0.000005
H71	H	1.158575	0.372643	0.630549
N72	N	1.136011	0.389064	0.350485
H73	H	1.082000	0.428415	0.417895
H74	H	1.184158	0.430172	0.290779
H75	H	1.313260	0.259936	0.238993
N76	N	0.787317	0.475309	-0.000071
H77	H	0.696641	0.460758	-0.000070
H78	H	0.803746	0.512410	0.084657
H79	H	1.191861	0.308172	-0.000042
N80	N	0.741096	-0.037468	0.000106
H81	H	0.697925	0.027812	0.000090
H82	H	0.715449	-0.071082	-0.084617
