data_functionalizedCrystal
_audit_creation_method	'MofGen! by Chris Wilmer'
_symmetry_space_group_name_H-M	'P1'
_symmetry_Int_Tables_number	1
_symmetry_cell_setting	triclinic
loop_
_symmetry_equiv_pos_as_xyz
  x,y,z
_cell_length_a	13.101039
_cell_length_b	14.519709
_cell_length_c	14.044220
_cell_angle_alpha	88.434511
_cell_angle_beta	93.667477
_cell_angle_gamma	86.641741
loop_
_atom_site_label
_atom_site_type_symbol
_atom_site_fract_x
_atom_site_fract_y
_atom_site_fract_z
O1	O	0.085082	-1.238528	-0.119055
O2	O	0.335082	-0.988528	0.130945
O3	O	0.585082	-0.738528	0.380945
O4	O	0.835082	-0.488528	0.630945
O5	O	0.085114	-0.971233	-0.133688
O6	O	0.335114	-0.721233	0.116312
O7	O	0.585114	-0.471233	0.366312
O8	O	0.835114	-0.221233	0.616312
O9	O	0.085089	-1.100868	0.011619
O10	O	0.335089	-0.850868	0.261619
O11	O	0.585089	-0.600868	0.511619
O12	O	0.835089	-0.350868	0.761619
O13	O	0.085108	-1.108893	-0.264362
O14	O	0.335108	-0.858893	-0.014362
O15	O	0.585108	-0.608893	0.235638
O16	O	0.835108	-0.358893	0.485638
O17	O	-0.085340	-1.091568	0.001176
O18	O	0.164660	-0.841568	0.251176
O19	O	0.414660	-0.591568	0.501176
O20	O	0.664660	-0.341568	0.751176
O21	O	-0.085314	-0.961933	-0.144131
O22	O	0.164686	-0.711933	0.105869
O23	O	0.414686	-0.461933	0.355869
O24	O	0.664686	-0.211933	0.605869
O25	O	-0.085346	-1.229228	-0.129498
O26	O	0.164654	-0.979228	0.120502
O27	O	0.414654	-0.729228	0.370502
O28	O	0.664654	-0.479228	0.620502
Zn29	Zn	-0.112389	-1.094104	-0.138473
Zn30	Zn	0.137611	-0.844104	0.111527
Zn31	Zn	0.387611	-0.594104	0.361527
Zn32	Zn	0.637611	-0.344104	0.611527
Zn33	Zn	0.112157	-1.106357	-0.124714
Zn34	Zn	0.362157	-0.856357	0.125286
Zn35	Zn	0.612157	-0.606357	0.375286
Zn36	Zn	0.862157	-0.356357	0.625286
O37	O	-0.085320	-1.099593	-0.274805
O38	O	0.164680	-0.849593	-0.024805
O39	O	0.414680	-0.599593	0.225195
O40	O	0.664680	-0.349593	0.475195
C41	C	-0.000096	-0.932168	-0.138227
C42	C	0.249904	-0.682168	0.111773
C43	C	0.499904	-0.432168	0.361773
C44	C	0.749904	-0.182168	0.611773
C45	C	-0.000084	-0.829623	-0.136183
C46	C	0.249916	-0.579623	0.113817
C47	C	0.499916	-0.329623	0.363817
C48	C	0.749916	-0.079623	0.613817
N49	N	-0.265636	-1.085748	-0.147862
N50	N	-0.015636	-0.835748	0.102138
N51	N	0.234364	-0.585748	0.352138
N52	N	0.484364	-0.335748	0.602138
C53	C	-0.000133	-1.268292	-0.124959
C54	C	0.249867	-1.018292	0.125041
C55	C	0.499867	-0.768292	0.375041
C56	C	0.749867	-0.518292	0.625041
C57	C	-0.000138	-1.370838	-0.127003
C58	C	0.249862	-1.120838	0.122997
C59	C	0.499862	-0.870838	0.372997
C60	C	0.749862	-0.620838	0.622997
C61	C	-0.474676	-1.074381	-0.160646
C62	C	-0.224676	-0.824381	0.089354
C63	C	0.025324	-0.574381	0.339354
C64	C	0.275324	-0.324381	0.589354
C65	C	-0.525562	-1.126083	-0.102536
C66	C	-0.275562	-0.876083	0.147464
C67	C	-0.025562	-0.626083	0.397464
C68	C	0.224438	-0.376083	0.647464
C69	C	-0.641879	-1.119759	-0.109649
C70	C	-0.391879	-0.869759	0.140351
C71	C	-0.141879	-0.619759	0.390351
C72	C	0.108121	-0.369759	0.640351
C73	C	-0.358348	-1.080705	-0.153534
C74	C	-0.108348	-0.830705	0.096466
C75	C	0.141652	-0.580705	0.346466
C76	C	0.391652	-0.330705	0.596466
N77	N	0.265404	-1.114719	-0.115317
N78	N	0.515404	-0.864719	0.134683
N79	N	0.765404	-0.614719	0.384683
N80	N	1.015404	-0.364719	0.634683
C81	C	-0.000126	-1.092705	0.041718
C82	C	0.249874	-0.842705	0.291718
C83	C	0.499874	-0.592705	0.541718
C84	C	0.749874	-0.342705	0.791718
C85	C	-0.000126	-1.082228	0.146962
C86	C	0.249874	-0.832228	0.396962
C87	C	0.499874	-0.582228	0.646962
C88	C	0.749874	-0.332228	0.896962
C89	C	-0.000131	-0.454118	-0.128661
C90	C	0.249869	-0.204118	0.121339
C91	C	0.499869	0.045882	0.371339
C92	C	0.749869	0.295882	0.621339
C93	C	-0.000118	-0.558595	-0.130750
C94	C	0.249882	-0.308595	0.119250
C95	C	0.499882	-0.058595	0.369250
C96	C	0.749882	0.191405	0.619250
C97	C	-0.000107	-0.641867	-0.132422
C98	C	0.249893	-0.391867	0.117578
C99	C	0.499893	-0.141867	0.367578
C100	C	0.749893	0.108133	0.617578
C101	C	-0.000095	-0.746351	-0.134511
C102	C	0.249905	-0.496351	0.115489
C103	C	0.499905	-0.246351	0.365489
C104	C	0.749905	0.003649	0.615489
C105	C	-0.000104	-1.107756	-0.304904
C106	C	0.249896	-0.857756	-0.054904
C107	C	0.499896	-0.607756	0.195096
C108	C	0.749896	-0.357756	0.445096
C109	C	-0.000097	-1.118233	-0.410147
C110	C	0.249903	-0.868233	-0.160147
C111	C	0.499903	-0.618233	0.089853
C112	C	0.749903	-0.368233	0.339853
C113	C	-0.000109	-1.063075	0.339657
C114	C	0.249891	-0.813075	0.589657
C115	C	0.499891	-0.563075	0.839657
C116	C	0.749891	-0.313075	1.089657
C117	C	-0.000114	-1.137382	0.397163
C118	C	0.249886	-0.887382	0.647163
C119	C	0.499886	-0.637382	0.897163
C120	C	0.749886	-0.387382	1.147163
C121	C	-0.000105	-1.126725	0.504385
C122	C	0.249895	-0.876725	0.754385
C123	C	0.499895	-0.626725	1.004385
C124	C	0.749895	-0.376725	1.254385
C125	C	-0.000118	-1.073730	0.232424
C126	C	0.249882	-0.823730	0.482424
C127	C	0.499882	-0.573730	0.732424
C128	C	0.749882	-0.323730	0.982424
H129	H	-0.518464	-1.025371	-0.215734
H130	H	-0.268464	-0.775371	0.034266
H131	H	-0.018464	-0.525371	0.284266
H132	H	0.231536	-0.275371	0.534266
H133	H	-0.000054	-1.209007	0.365875
H134	H	0.249946	-0.959007	0.615875
H135	H	0.499946	-0.709007	0.865875
H136	H	0.749946	-0.459007	1.115875
H137	H	-0.000098	-0.991459	0.370948
H138	H	0.249902	-0.741459	0.620948
H139	H	0.499902	-0.491459	0.870948
H140	H	0.749902	-0.241459	1.120948
H141	H	-0.481769	-1.175098	-0.047446
H142	H	-0.231769	-0.925098	0.202554
H143	H	0.018231	-0.675098	0.452554
H144	H	0.268231	-0.425098	0.702554
