data_functionalizedCrystal
_audit_creation_method	'MofGen! by Chris Wilmer'
_symmetry_space_group_name_H-M	'P1'
_symmetry_Int_Tables_number	1
_symmetry_cell_setting	triclinic
loop_
_symmetry_equiv_pos_as_xyz
  x,y,z
_cell_length_a	9.065215
_cell_length_b	17.038274
_cell_length_c	7.540329
_cell_angle_alpha	90.011707
_cell_angle_beta	89.997574
_cell_angle_gamma	91.936758
loop_
_atom_site_label
_atom_site_type_symbol
_atom_site_fract_x
_atom_site_fract_y
_atom_site_fract_z
O1	O	1.971910	-0.114731	-0.147499
O2	O	2.471910	0.385269	0.352501
O3	O	1.543569	-0.124145	-0.147511
O4	O	2.043569	0.375855	0.352489
O5	O	1.755194	-0.005604	-0.147456
O6	O	2.255194	0.494396	0.352544
O7	O	1.760286	-0.233272	-0.147554
O8	O	2.260286	0.266728	0.352446
O9	O	1.755180	-0.005603	0.147509
O10	O	2.255180	0.494397	0.647509
O11	O	1.543556	-0.124143	0.147454
O12	O	2.043556	0.375857	0.647454
O13	O	1.971897	-0.114729	0.147466
O14	O	2.471897	0.385271	0.647466
Cu15	Cu	1.757725	-0.119436	0.174393
Cu16	Cu	2.257725	0.380564	0.674393
Cu17	Cu	1.757741	-0.119438	-0.174438
Cu18	Cu	2.257741	0.380562	0.325562
O19	O	1.760272	-0.233270	0.147411
O20	O	2.260272	0.266730	0.647411
C21	C	1.488485	-0.123240	-0.000029
C22	C	1.988485	0.376760	0.499971
C23	C	1.324371	-0.120536	-0.000031
C24	C	1.824371	0.379464	0.499969
C25	C	1.750556	0.023558	0.000035
C26	C	2.250556	0.523558	0.500035
C27	C	1.736739	0.110451	0.000061
C28	C	2.236739	0.610451	0.500061
C29	C	1.863587	0.159650	0.000081
C30	C	2.363587	0.659650	0.500081
C31	C	1.850596	0.241294	0.000089
C32	C	2.350596	0.741294	0.500089
C33	C	1.710756	0.273738	0.000090
C34	C	2.210756	0.773738	0.500090
C35	C	1.583899	0.224532	0.000065
C36	C	2.083899	0.724532	0.500065
C37	C	1.596891	0.142890	0.000044
C38	C	2.096891	0.642890	0.500044
C39	C	1.664858	0.519827	0.000140
C40	C	2.164858	1.019827	0.500140
C41	C	1.651875	0.601476	0.000166
C42	C	2.151875	1.101476	0.500166
C43	C	1.918574	0.618232	0.000186
C44	C	2.418574	1.118232	0.500186
C45	C	1.931554	0.536587	0.000176
C46	C	2.431554	1.036587	0.500176
C47	C	1.804696	0.487389	0.000142
C48	C	2.304696	0.987389	0.500142
C49	C	1.697474	0.357191	0.000104
C50	C	2.197474	0.857191	0.500104
C51	C	1.817979	0.403937	0.000116
C52	C	2.317979	0.903937	0.500116
C53	C	2.026981	-0.115634	-0.000020
C54	C	2.526981	0.384366	0.499980
C55	C	2.191095	-0.118338	-0.000030
C56	C	2.691095	0.381662	0.499970
N57	N	1.757724	-0.119435	0.419741
N58	N	2.257724	0.380565	0.919741
C59	C	1.764909	0.737567	-0.000007
C60	C	2.264909	1.237567	0.499993
C61	C	1.778723	0.650675	0.000186
C62	C	2.278723	1.150675	0.500186
N63	N	1.757753	-0.119434	-0.419786
N64	N	2.257753	0.380566	0.080214
H65	H	1.977460	0.133241	0.000090
H66	H	2.477460	0.633241	0.500090
H67	H	1.953890	0.281349	0.000108
H68	H	2.453890	0.781349	0.500108
H69	H	2.045426	0.510178	0.000176
H70	H	2.545426	1.010178	0.500176
H71	H	1.470038	0.250954	0.000055
H72	H	1.970038	0.750954	0.500055
H73	H	2.021853	0.658297	0.000211
H74	H	2.521853	1.158297	0.500211
H75	H	1.583616	0.383616	0.000109
H76	H	2.083616	0.883616	0.500109
H77	H	1.931837	0.377518	0.000076
H78	H	2.431837	0.877518	0.500076
H79	H	1.561561	0.479779	0.000113
H80	H	2.061561	0.979779	0.500113
H81	H	1.537995	0.627888	0.000196
H82	H	2.037995	1.127888	0.500196
H83	H	1.493598	0.102832	0.000028
H84	H	1.993598	0.602832	0.500028
