data_functionalizedCrystal
_audit_creation_method	'MofGen! by Chris Wilmer'
_symmetry_space_group_name_H-M	'P1'
_symmetry_Int_Tables_number	1
_symmetry_cell_setting	triclinic
loop_
_symmetry_equiv_pos_as_xyz
  x,y,z
_cell_length_a	17.699104
_cell_length_b	17.699092
_cell_length_c	9.130313
_cell_angle_alpha	89.997169
_cell_angle_beta	89.995591
_cell_angle_gamma	83.288943
loop_
_atom_site_label
_atom_site_type_symbol
_atom_site_fract_x
_atom_site_fract_y
_atom_site_fract_z
O1	O	1.004068	0.095786	-0.121823
O2	O	0.783692	0.108222	-0.121819
O3	O	0.900103	-0.008185	-0.121818
O4	O	0.887657	0.212192	-0.121825
O5	O	0.900095	-0.008188	0.121781
O6	O	0.783684	0.108218	0.121780
O7	O	1.004060	0.095782	0.121775
Cu8	Cu	0.893871	0.102000	0.144020
Cu9	Cu	0.893880	0.102004	-0.144064
O10	O	0.887649	0.212189	0.121774
C11	C	0.755491	0.107772	-0.000019
C12	C	0.671474	0.106427	-0.000018
C13	C	0.146605	0.167170	-0.000035
C14	C	0.225548	0.168430	-0.000039
C15	C	0.274164	0.100095	-0.000037
C16	C	0.243832	0.030496	-0.000045
C17	C	0.164890	0.029238	-0.000051
C18	C	0.562198	0.035569	-0.000022
C19	C	0.641145	0.036833	-0.000011
C20	C	0.622857	0.174761	-0.000010
C21	C	0.543915	0.173503	-0.000016
C22	C	0.513590	0.103905	-0.000032
C23	C	0.427990	0.102540	-0.000030
C24	C	0.359762	0.101458	-0.000028
C25	C	0.899652	-0.036383	-0.000021
C26	C	0.898311	-0.120401	-0.000028
C27	C	0.897687	-0.159867	-0.132815
C28	C	0.896422	-0.238810	-0.132817
C29	C	0.895786	-0.278286	-0.000030
C30	C	0.896408	-0.238815	0.132768
C31	C	0.897667	-0.159873	0.132768
C32	C	0.891328	-0.557180	0.132770
C33	C	0.890070	-0.636128	0.132760
C34	C	0.890082	-0.636118	-0.132815
C35	C	0.891341	-0.557175	-0.132815
C36	C	0.891959	-0.517710	-0.000018
C37	C	0.893329	-0.432111	-0.000018
C38	C	0.894421	-0.363885	-0.000028
C39	C	1.032260	0.096232	-0.000028
C40	C	1.116278	0.097577	-0.000039
C41	C	0.888100	0.240387	-0.000026
C42	C	0.889441	0.324405	-0.000029
N43	N	0.893870	0.101997	0.346643
N44	N	0.893887	0.102001	-0.346687
C45	C	0.945434	0.050474	0.423295
C46	C	0.945441	0.050474	0.576632
C47	C	0.842318	0.153527	0.576650
C48	C	0.842308	0.153523	0.423316
H49	H	0.647557	0.231431	-0.000003
O50	O	0.889393	-0.678681	-0.276053
H51	H	0.941203	-0.670371	-0.339732
O52	O	0.786719	0.209108	0.659358
H53	H	0.750859	0.244933	0.580292
H54	H	0.987428	0.008518	0.639038
H55	H	0.891846	-0.525059	0.240902
O56	O	0.693583	-0.036876	-0.000006
H57	H	0.730001	-0.039592	-0.099279
H58	H	0.889551	-0.668268	0.240898
O59	O	0.786693	0.209099	0.340624
H60	H	0.750848	0.244937	0.419697
H61	H	0.107027	0.222817	-0.000026
H62	H	0.891862	-0.525038	-0.240944
O63	O	0.895737	-0.281389	0.275995
H64	H	0.894770	-0.342916	0.253690
H65	H	0.898165	-0.127739	0.240897
O66	O	0.132174	-0.045823	-0.000040
H67	H	0.179240	-0.093130	-0.000021
O68	O	0.258255	0.243494	-0.000036
H69	H	0.321315	0.232891	-0.000052
H70	H	0.537518	-0.021102	-0.000031
O71	O	1.001033	-0.005118	0.340612
H72	H	0.969228	-0.041863	0.270783
O73	O	0.491477	0.247205	-0.000019
H74	H	0.525829	0.295811	-0.000031
H75	H	0.898208	-0.127731	-0.240946
O76	O	0.296262	-0.043212	-0.000029
H77	H	0.356251	-0.030647	-0.000003
H78	H	0.895917	-0.270940	-0.240946
