data_functionalizedCrystal
_audit_creation_method	'MofGen! by Chris Wilmer'
_symmetry_space_group_name_H-M	'P1'
_symmetry_Int_Tables_number	1
_symmetry_cell_setting	triclinic
loop_
_symmetry_equiv_pos_as_xyz
  x,y,z
_cell_length_a	14.446369
_cell_length_b	14.446369
_cell_length_c	14.628931
_cell_angle_alpha	59.999295
_cell_angle_beta	90.000536
_cell_angle_gamma	60.000221
loop_
_atom_site_label
_atom_site_type_symbol
_atom_site_fract_x
_atom_site_fract_y
_atom_site_fract_z
Zr1	Zr	0.891804	1.013160	-0.119933
O2	O	0.744002	1.206280	-0.265900
O3	O	0.937109	0.820044	-0.075186
O4	O	0.937116	1.013157	-0.265892
O5	O	0.743995	1.013168	0.075238
O6	O	1.089453	1.013148	-0.265887
O7	O	0.743995	1.013168	-0.075194
O8	O	1.089441	0.667706	0.075252
O9	O	0.744007	1.358611	-0.265901
O10	O	1.070124	0.899467	-0.056098
O11	O	0.956437	0.899474	0.056163
O12	O	0.956445	1.126839	-0.168369
O13	O	0.842757	1.126845	-0.056108
Zr14	Zr	1.134764	1.013147	0.119997
Zr15	Zr	1.134765	1.013146	-0.119924
Zr16	Zr	0.891804	1.013160	0.119988
Zr17	Zr	0.891812	1.256110	-0.119935
Zr18	Zr	1.134756	0.770197	0.119998
O19	O	1.089459	1.206262	0.075249
O20	O	1.089460	1.206261	-0.265888
O21	O	0.744001	1.206281	0.075237
O22	O	1.282567	0.820026	0.265964
O23	O	1.282567	0.820025	-0.075173
O24	O	0.937109	0.820045	0.265951
O25	O	1.282574	1.013138	-0.075174
O26	O	1.089452	1.013150	0.265956
O27	O	0.937115	1.013158	0.265950
O28	O	1.282574	1.013139	0.075257
O29	O	0.937128	1.358600	-0.265894
O30	O	1.089441	0.667706	0.265957
O31	O	1.282562	0.667696	0.265964
O32	O	1.282562	0.667695	0.075259
O33	O	0.744006	1.358611	-0.075196
O34	O	0.937127	1.358601	-0.075189
O35	O	1.070124	0.899468	0.168433
O36	O	1.183812	0.899461	0.056171
O37	O	1.070132	1.126833	-0.056100
O38	O	0.956444	1.126839	0.056162
C39	C	1.013274	0.709260	0.000033
C40	C	1.013271	0.606121	0.000034
C41	C	0.941563	0.566837	0.070846
C42	C	0.941892	0.459201	0.071222
C43	C	1.136859	0.371397	0.051309
C44	C	1.136450	0.478643	0.051847
C45	C	0.962418	0.653844	-0.122099
C46	C	0.959939	0.547670	-0.121917
C47	C	0.709378	1.013170	0.000021
C48	C	0.606235	1.013176	0.000017
C49	C	0.387871	1.156564	-0.070435
C50	C	0.495103	1.156660	-0.070831
C51	C	0.602909	0.941946	-0.051630
C52	C	0.495141	0.942856	-0.052146
C53	C	0.496504	0.939904	0.122206
C54	C	0.602473	0.942606	0.122013
C55	C	1.317190	1.013137	0.000043
C56	C	1.420333	1.013131	0.000046
C57	C	1.013285	1.013152	-0.300073
C58	C	1.013285	1.013152	-0.401926
C59	C	1.013294	1.317047	0.000030
C60	C	1.013298	1.420185	0.000030
C61	C	0.956892	1.125944	-0.503029
C62	C	0.956891	1.125946	-0.608300
C63	C	1.013284	1.013154	0.300136
C64	C	1.013284	1.013154	0.401989
C65	C	1.317180	0.709243	0.000044
C66	C	1.420320	0.606099	0.000049
C67	C	1.013274	0.709261	0.300138
C68	C	1.013270	0.606122	0.401991
C69	C	1.317180	0.709244	0.300149
C70	C	1.420319	0.606100	0.402006
C71	C	0.709389	1.317063	-0.300086
C72	C	0.606249	1.420207	-0.401943
C73	C	0.709388	1.317063	0.000019
C74	C	0.606249	1.420208	0.000015
C75	C	1.013295	1.317046	-0.300075
C76	C	1.013298	1.420184	-0.401928
C77	C	1.409906	0.560117	-0.055643
C78	C	1.516505	0.453512	-0.055640
C79	C	1.069665	0.560137	0.503094
C80	C	1.069663	0.453538	0.608366
C81	C	1.522699	0.560112	0.391728
C82	C	1.629300	0.453507	0.497001
H83	H	0.977196	0.370253	0.161314
Cl84	Cl	0.492615	1.242942	-0.017349
H85	H	1.531433	0.599665	0.304993
H86	H	1.717127	0.413954	0.488375
H87	H	1.411588	0.566554	0.488742
H88	H	1.006843	0.526485	-0.179035
Cl89	Cl	0.801434	0.515617	0.018177
Cl90	Cl	1.483287	0.468572	0.611431
H91	H	1.322072	0.599678	-0.103329
Cl92	Cl	0.491326	1.243492	-0.209960
Cl93	Cl	1.087824	0.864052	-0.464107
H94	H	0.872776	0.747433	-0.164972
Cl95	Cl	0.882339	1.275043	-0.742207
Cl96	Cl	1.503003	0.392458	-0.129250
Cl97	Cl	0.882356	1.275038	-0.516353
Cl98	Cl	1.555925	0.545043	0.073662
H99	H	0.850346	0.655550	0.036668
H100	H	0.601957	0.994542	0.160596
H101	H	0.964987	0.447098	0.511348
Cl102	Cl	1.087835	0.864058	-0.388602
H103	H	0.868905	0.587125	-0.160228
H104	H	1.192812	0.500891	0.003578
H105	H	0.976528	0.530966	0.160406
Cl106	Cl	1.199215	0.415648	0.190591
Cl107	Cl	1.144207	0.621197	0.516417
H108	H	1.192637	0.342888	0.002185
Cl109	Cl	1.144218	0.392480	0.742273
Cl110	Cl	0.538882	0.776767	0.203662
Cl111	Cl	1.200122	0.228692	0.188714
H112	H	1.014391	0.680107	-0.175103
H113	H	0.333917	1.212856	-0.035968
H114	H	0.332888	1.212583	-0.160005
Cl115	Cl	0.417405	1.021022	-0.190934
Cl116	Cl	1.632389	0.468563	0.073682
H117	H	0.964982	0.566579	0.393370
H118	H	0.521791	0.837622	-0.004130
H119	H	0.605046	0.991420	-0.140669
Cl120	Cl	0.723741	0.779060	0.023809
H121	H	0.681628	0.837925	0.178946
Cl122	Cl	0.419271	1.010747	0.188824
