data_functionalizedCrystal
_audit_creation_method	'MofGen! by Chris Wilmer'
_symmetry_space_group_name_H-M	'P1'
_symmetry_Int_Tables_number	1
_symmetry_cell_setting	triclinic
loop_
_symmetry_equiv_pos_as_xyz
  x,y,z
_cell_length_a	10.654550
_cell_length_b	14.519709
_cell_length_c	9.130313
_cell_angle_alpha	89.997798
_cell_angle_beta	89.996220
_cell_angle_gamma	84.082524
loop_
_atom_site_label
_atom_site_type_symbol
_atom_site_fract_x
_atom_site_fract_y
_atom_site_fract_z
O1	O	1.666589	0.129528	-0.121923
O2	O	1.300991	0.141869	-0.121900
O3	O	1.493483	0.001510	-0.121899
O4	O	1.474097	0.269887	-0.121924
O5	O	1.493481	0.001514	0.121700
O6	O	1.300989	0.141873	0.121699
O7	O	1.666586	0.129532	0.121676
Cu8	Cu	1.483787	0.135703	0.143930
Cu9	Cu	1.483790	0.135698	-0.144154
O10	O	1.474094	0.269891	0.121675
C11	C	1.254201	0.140965	-0.000098
C12	C	1.114784	0.138254	-0.000088
C13	C	1.034504	0.220895	-0.000117
C14	C	0.903507	0.218342	-0.000143
C15	C	0.933085	0.050500	-0.000116
C16	C	1.064078	0.053054	-0.000080
C17	C	1.017426	0.317797	-0.000139
C18	C	0.886430	0.315244	-0.000164
C19	C	1.492579	-0.032852	-0.000099
C20	C	1.489871	-0.135247	-0.000098
C21	C	1.479904	-0.510195	-0.000136
C22	C	1.482672	-0.405873	-0.000125
C23	C	1.484887	-0.322725	-0.000116
C24	C	1.487656	-0.218396	-0.000108
C25	C	1.713377	0.130436	-0.000130
C26	C	1.852794	0.133147	-0.000149
C27	C	1.474999	0.304253	-0.000128
C28	C	1.477707	0.406648	-0.000139
N29	N	1.483795	0.135705	0.346552
N30	N	1.483793	0.135688	-0.346777
C31	C	1.569052	0.073576	0.423205
C32	C	1.569048	0.073565	0.576542
C33	C	1.398527	0.197821	0.576560
C34	C	1.398525	0.197827	0.423226
C35	C	1.667505	0.001840	0.423195
C36	C	1.667502	0.001829	0.576532
H37	H	0.840476	0.344531	0.105001
H38	H	1.129439	-0.014241	-0.000035
C39	C	1.305754	0.265158	0.659735
C40	C	1.182324	0.249339	0.622468
C41	C	1.096826	0.311344	0.699071
H42	H	1.319349	0.326845	0.634677
H43	H	1.317877	0.256249	0.762047
H44	H	1.170205	0.258255	0.520178
H45	H	1.168688	0.187664	0.647529
H46	H	1.108950	0.302435	0.801383
H47	H	1.110433	0.373027	0.674007
H48	H	1.013070	0.300614	0.673806
C49	C	1.788915	0.031762	0.360037
C50	C	1.869344	0.051589	0.474497
C51	C	1.981203	0.079146	0.416370
H52	H	1.770053	0.085492	0.301501
H53	H	1.829113	-0.016736	0.301516
H54	H	1.829154	0.100083	0.532994
H55	H	1.888242	-0.002127	0.533042
H56	H	2.021401	0.030648	0.357849
H57	H	1.962328	0.132873	0.357835
H58	H	2.035792	0.092593	0.494021
C59	C	1.639735	-0.092718	0.367983
C60	C	1.622750	-0.150566	0.487504
C61	C	1.597149	-0.237673	0.436699
H62	H	1.708428	-0.119042	0.310210
H63	H	1.565174	-0.086242	0.310232
H64	H	1.697302	-0.157046	0.545230
H65	H	1.554053	-0.124273	0.545289
H66	H	1.522588	-0.231196	0.378948
H67	H	1.665847	-0.263987	0.378925
H68	H	1.585610	-0.276931	0.517785
H69	H	0.891784	-0.018867	-0.000131
H70	H	1.046392	0.355697	0.101809
H71	H	0.844347	0.351754	-0.102121
H72	H	1.052786	0.348651	-0.105314
H73	H	1.329091	0.248409	0.360817
H74	H	1.637633	-0.065157	0.624088
H75	H	1.763861	0.017630	0.618141
