data_functionalizedCrystal
_audit_creation_method	'MofGen! by Chris Wilmer'
_symmetry_space_group_name_H-M	'P1'
_symmetry_Int_Tables_number	1
_symmetry_cell_setting	triclinic
loop_
_symmetry_equiv_pos_as_xyz
  x,y,z
_cell_length_a	10.685980
_cell_length_b	19.120786
_cell_length_c	10.686551
_cell_angle_alpha	83.348156
_cell_angle_beta	81.591741
_cell_angle_gamma	96.632738
loop_
_atom_site_label
_atom_site_type_symbol
_atom_site_fract_x
_atom_site_fract_y
_atom_site_fract_z
Zn1	Zn	1.982569	-0.158561	-0.853507
Zn2	Zn	1.955463	-0.286717	-0.630578
Zn3	Zn	1.752355	-0.178250	-0.623333
Zn4	Zn	1.759592	-0.286649	-0.826494
O5	O	1.862495	-0.227544	-0.733478
O6	O	2.157292	-0.167350	-0.838272
O7	O	1.914147	-0.280598	-0.451296
O8	O	1.791209	-0.076640	-0.662139
O9	O	2.137377	-0.261506	-0.674487
O10	O	1.960346	-0.062174	-0.831247
O11	O	1.764925	-0.200908	-0.445974
O12	O	1.574997	-0.200841	-0.635945
O13	O	1.803544	-0.261389	-1.008397
O14	O	1.580314	-0.280481	-0.785207
O15	O	1.967364	-0.167283	-1.028244
O16	O	1.921165	-0.385707	-0.648293
O17	O	1.777260	-0.385657	-0.792231
C18	C	1.531420	-0.242790	-0.706859
C19	C	1.389785	-0.249328	-0.695501
C20	C	1.847093	-0.411348	-0.718148
C21	C	1.840624	-0.489973	-0.711641
C22	C	1.925590	-0.519319	-0.796691
C23	C	1.919507	-0.593196	-0.790580
C24	C	1.828463	-0.637725	-0.699411
C25	C	1.743487	-0.608375	-0.614357
C26	C	1.749566	-0.534499	-0.620475
C27	C	1.805702	-0.861160	-0.676535
C28	C	1.799632	-0.935040	-0.670420
C29	C	1.975651	-0.919856	-0.846645
C30	C	1.981727	-0.845980	-0.852750
C31	C	1.896747	-0.816636	-0.767701
C32	C	1.822245	-0.713239	-0.693159
C33	C	1.902960	-0.741124	-0.773959
C34	C	2.194863	-0.212239	-0.760201
C35	C	2.336498	-0.205717	-0.771589
C36	C	1.889285	-0.212132	-1.065850
C37	C	1.900701	-0.205564	-1.207487
C38	C	1.877994	-0.043020	-0.748899
C39	C	1.884599	0.035614	-0.755470
C40	C	1.835887	-0.242842	-0.402409
C41	C	1.824734	-0.249199	-0.260809
H42	H	1.327045	-0.291670	-0.621658
N43	N	1.998417	-0.149412	-1.290546
H44	H	2.047485	-0.121226	-1.234841
H45	H	2.059375	-0.172958	-1.348100
H46	H	2.044835	-0.943757	-0.915889
H47	H	1.999734	-0.483068	-0.870925
H48	H	1.977084	-0.704866	-0.848194
H49	H	1.988705	-0.617085	-0.859827
H50	H	2.055862	-0.809726	-0.926987
H51	H	1.725487	-0.971295	-0.596178
H52	H	1.399232	-0.163374	-0.845419
N53	N	1.714061	-0.829516	-0.584796
H54	H	1.655473	-0.868936	-0.526108
H55	H	1.763760	-0.799192	-0.532584
H56	H	1.669352	-0.644636	-0.540130
N57	N	1.657921	-0.502844	-0.528748
H58	H	1.599323	-0.542261	-0.470062
H59	H	1.707609	-0.472517	-0.476532
H60	H	1.748119	-0.749503	-0.618926
H61	H	1.750965	-0.291584	-1.198103
