data_functionalizedCrystal
_audit_creation_method	'MofGen! by Chris Wilmer'
_symmetry_space_group_name_H-M	'P1'
_symmetry_Int_Tables_number	1
_symmetry_cell_setting	triclinic
loop_
_symmetry_equiv_pos_as_xyz
  x,y,z
_cell_length_a	16.974897
_cell_length_b	16.974813
_cell_length_c	13.448316
_cell_angle_alpha	86.338833
_cell_angle_beta	86.341662
_cell_angle_gamma	83.164002
loop_
_atom_site_label
_atom_site_type_symbol
_atom_site_fract_x
_atom_site_fract_y
_atom_site_fract_z
O1	O	1.049029	0.100839	-0.175136
O2	O	0.818811	0.113662	-0.157663
O3	O	0.940338	-0.007860	-0.157648
O4	O	0.927503	0.222361	-0.175151
O5	O	0.940323	-0.007867	0.007738
O6	O	0.818796	0.113655	0.007723
O7	O	1.049014	0.100831	-0.009751
Cu8	Cu	0.933904	0.107242	0.014087
Cu9	Cu	0.933922	0.107251	-0.181501
O10	O	0.927488	0.222353	-0.009766
C11	C	0.789346	0.113169	-0.072563
C12	C	0.701572	0.111699	-0.065389
C13	C	0.660336	0.111015	-0.152163
C14	C	0.577862	0.109647	-0.145409
C15	C	0.536624	0.108958	-0.051879
C16	C	0.577866	0.109645	0.034901
C17	C	0.660338	0.111018	0.028146
C18	C	0.289967	0.104855	-0.022008
C19	C	0.207489	0.103479	-0.015259
C20	C	0.207491	0.103483	-0.195570
C21	C	0.289965	0.104852	-0.202317
C22	C	0.331199	0.105542	-0.115537
N23	N	0.452322	0.107557	-0.044973
N24	N	0.415499	0.106949	-0.122445
C25	C	0.939842	-0.037322	-0.072546
C26	C	0.938377	-0.125097	-0.065367
C27	C	0.937699	-0.166326	-0.152146
C28	C	0.936318	-0.248799	-0.145398
C29	C	0.935620	-0.290044	-0.051870
C30	C	0.936296	-0.248809	0.034915
C31	C	0.937672	-0.166336	0.028166
C32	C	0.931500	-0.536702	-0.022018
C33	C	0.930126	-0.619181	-0.015276
C34	C	0.930147	-0.619165	-0.195590
C35	C	0.931527	-0.536691	-0.202331
C36	C	0.932199	-0.495463	-0.115545
N37	N	0.934211	-0.374346	-0.044970
N38	N	0.933602	-0.411162	-0.122446
C39	C	1.078479	0.101325	-0.094853
C40	C	1.166254	0.102794	-0.102033
C41	C	0.927984	0.251815	-0.094870
C42	C	0.929448	0.339591	-0.102055
N43	N	0.933897	0.107236	0.151653
N44	N	0.933935	0.107252	-0.319066
C45	C	0.987725	0.053448	0.203696
C46	C	0.987730	0.053447	0.307799
C47	C	0.933910	0.107239	0.359856
C48	C	0.880076	0.161029	0.307805
C49	C	0.880067	0.161026	0.203704
C50	C	0.880097	0.161035	0.524783
C51	C	0.880106	0.161040	0.628890
C52	C	0.987760	0.053456	0.628878
C53	C	0.987752	0.053452	0.524777
C54	C	0.933919	0.107244	0.472733
H55	H	0.323536	0.105407	-0.278479
C56	C	1.094185	-0.052878	0.618402
C57	C	1.046939	-0.005671	0.686079
H58	H	1.130723	-0.089372	0.653720
H59	H	1.061307	-0.081313	0.582749
H60	H	1.122575	-0.019964	0.572851
H61	H	1.018544	-0.038586	0.731626
H62	H	1.079821	0.022765	0.721749
H63	H	0.544291	0.109090	-0.216070
H64	H	0.173909	0.102922	-0.266222
H65	H	0.323530	0.105412	0.048655
H66	H	0.836258	0.204835	0.482412
H67	H	0.935769	-0.282364	-0.216063
H68	H	0.836279	0.204841	0.671269
H69	H	0.932096	-0.503116	-0.278491
C70	C	0.996531	-0.720875	0.092180
C71	C	0.929374	-0.664511	0.087543
H72	H	0.996073	-0.748854	0.155656
H73	H	0.995923	-0.757233	0.041475
H74	H	1.043142	-0.694758	0.082570
H75	H	0.882762	-0.690628	0.097145
H76	H	0.929974	-0.628148	0.138263
C77	C	0.762032	0.044624	-0.259625
C78	C	0.705658	0.111772	-0.254977
H79	H	0.790005	0.045092	-0.323102
H80	H	0.798394	0.045232	-0.208922
H81	H	0.735925	-0.001994	-0.250017
H82	H	0.731766	0.158390	-0.264577
H83	H	0.669291	0.111171	-0.305695
H84	H	0.836250	0.204825	0.350196
H85	H	0.932062	-0.503146	0.048648
H86	H	1.031556	0.009648	0.161318
H87	H	0.173913	0.102940	0.060907
C88	C	0.451443	0.107531	0.125320
C89	C	0.532539	0.108886	0.137712
H90	H	0.423464	0.107056	0.188795
H91	H	0.431854	0.153391	0.086170
H92	H	0.444011	0.061217	0.092606
H93	H	0.539971	0.155204	0.170420
H94	H	0.552134	0.063022	0.176879
C95	C	0.934193	-0.375242	0.125324
C96	C	0.935536	-0.294144	0.137723
H97	H	0.933732	-0.403228	0.188795
H98	H	0.887886	-0.382678	0.092614
H99	H	0.980060	-0.394820	0.086165
H100	H	0.889666	-0.274564	0.176876
H101	H	0.981848	-0.286703	0.170448
H102	H	0.836234	0.204824	0.161331
H103	H	1.031581	0.009655	0.482393
C104	C	0.860659	-0.702946	-0.287841
C105	C	0.929392	-0.664490	-0.290973
H106	H	0.860188	-0.730925	-0.346730
H107	H	0.860057	-0.739303	-0.231176
H108	H	0.815118	-0.664684	-0.283509
H109	H	0.974934	-0.702752	-0.295298
H110	H	0.930001	-0.628129	-0.347654
C111	C	0.652060	0.110864	0.207053
C112	C	0.705668	0.111764	0.123531
H113	H	0.680046	0.111321	0.265941
H114	H	0.613820	0.156412	0.202718
H115	H	0.625966	0.064238	0.209152
H116	H	0.731758	0.158392	0.121428
H117	H	0.743923	0.066211	0.127868
C118	C	0.937504	-0.174629	0.207075
C119	C	0.938408	-0.121013	0.123557
H120	H	0.937958	-0.146647	0.265966
H121	H	0.890889	-0.200724	0.209162
H122	H	0.983062	-0.212870	0.202745
H123	H	0.892847	-0.082776	0.127883
H124	H	0.985029	-0.094905	0.121470
H125	H	0.938272	-0.132751	-0.228307
H126	H	1.031561	0.009649	0.350173
