data_functionalizedCrystal
_audit_creation_method	'MofGen! by Chris Wilmer'
_symmetry_space_group_name_H-M	'P1'
_symmetry_Int_Tables_number	1
_symmetry_cell_setting	triclinic
loop_
_symmetry_equiv_pos_as_xyz
  x,y,z
_cell_length_a	19.188925
_cell_length_b	19.188930
_cell_length_c	17.666332
_cell_angle_alpha	89.988397
_cell_angle_beta	89.989697
_cell_angle_gamma	83.143665
loop_
_atom_site_label
_atom_site_type_symbol
_atom_site_fract_x
_atom_site_fract_y
_atom_site_fract_z
O1	O	0.926152	0.087151	-0.062973
O2	O	1.259485	0.420484	0.270360
O3	O	1.592819	0.753817	0.603694
O4	O	0.722840	0.098889	-0.062972
O5	O	1.056173	0.432222	0.270361
O6	O	1.389507	0.765556	0.603695
O7	O	0.830363	-0.008636	-0.062958
O8	O	1.163697	0.324697	0.270375
O9	O	1.497030	0.658031	0.603709
O10	O	0.818629	0.194676	-0.062987
O11	O	1.151962	0.528009	0.270346
O12	O	1.485296	0.861342	0.603679
O13	O	0.830344	-0.008642	0.062939
O14	O	1.163678	0.324692	0.396272
O15	O	1.497011	0.658025	0.729606
O16	O	0.722821	0.098883	0.062925
O17	O	1.056155	0.432217	0.396258
O18	O	1.389488	0.765550	0.729591
O19	O	0.926133	0.087145	0.062924
O20	O	1.259467	0.420478	0.396257
O21	O	1.592800	0.753812	0.729590
Cu22	Cu	0.824476	0.093014	0.074419
Cu23	Cu	1.157809	0.426347	0.407753
Cu24	Cu	1.491142	0.759680	0.741086
Cu25	Cu	0.824498	0.093020	-0.074468
Cu26	Cu	1.157831	0.426354	0.258865
Cu27	Cu	1.491164	0.759687	0.592199
O28	O	0.818610	0.194670	0.062909
O29	O	1.151943	0.528003	0.396243
O30	O	1.485277	0.861337	0.729576
C31	C	0.696820	0.098507	-0.000023
C32	C	1.030153	0.431840	0.333310
C33	C	1.363486	0.765173	0.666643
C34	C	0.619315	0.097367	-0.000022
C35	C	0.952648	0.430701	0.333311
C36	C	1.285982	0.764034	0.666644
C37	C	0.057545	0.152831	-0.000032
C38	C	0.390878	0.486165	0.333301
C39	C	0.724211	0.819498	0.666634
C40	C	0.130368	0.153908	-0.000037
C41	C	0.463701	0.487241	0.333297
C42	C	0.797035	0.820575	0.666630
C43	C	0.175302	0.090816	-0.000026
C44	C	0.508636	0.424149	0.333307
C45	C	0.841969	0.757482	0.666641
C46	C	0.147408	0.026642	-0.000031
C47	C	0.480742	0.359976	0.333303
C48	C	0.814075	0.693309	0.666636
C49	C	0.074586	0.025568	-0.000034
C50	C	0.407920	0.358901	0.333299
C51	C	0.741253	0.692234	0.666633
N52	N	0.295973	0.045138	0.042837
N53	N	0.629306	0.378471	0.376170
N54	N	0.962640	0.711804	0.709503
N55	N	0.365150	0.046163	0.042842
N56	N	0.698484	0.379496	0.376175
N57	N	1.031817	0.712830	0.709508
C58	C	0.394712	0.094050	-0.000018
C59	C	0.728045	0.427383	0.333316
C60	C	1.061378	0.760716	0.666649
N61	N	0.352481	0.140883	-0.042872
N62	N	0.685814	0.474217	0.290461
N63	N	1.019147	0.807550	0.623795
N64	N	0.283297	0.139860	-0.042874
N65	N	0.616630	0.473194	0.290460
N66	N	0.949963	0.806527	0.623793
C67	C	0.254267	0.091974	-0.000023
C68	C	0.587600	0.425307	0.333310
C69	C	0.920933	0.758641	0.666644
C70	C	0.501561	0.159386	-0.000023
C71	C	0.834894	0.492720	0.333311
C72	C	1.168227	0.826053	0.666644
C73	C	0.574385	0.160460	-0.000032
C74	C	0.907719	0.493794	0.333302
C75	C	1.241052	0.827127	0.666635
C76	C	0.591425	0.033193	-0.000018
C77	C	0.924758	0.366526	0.333315
C78	C	1.258091	0.699859	0.666648
C79	C	0.518601	0.032121	-0.000017
C80	C	0.851934	0.365454	0.333316
C81	C	1.185268	0.698787	0.666650
C82	C	0.473673	0.095220	-0.000016
C83	C	0.807006	0.428553	0.333318
C84	C	1.140340	0.761886	0.666651
C85	C	0.829974	-0.034650	-0.000007
C86	C	1.163307	0.298683	0.333326
C87	C	1.496640	0.632017	0.666659
C88	C	0.828833	-0.112154	-0.000001
C89	C	1.162166	0.221179	0.333333
C90	C	1.495500	0.554512	0.666666
C91	C	0.891924	-0.157079	0.000003
C92	C	1.225257	0.176254	0.333336
C93	C	1.558591	0.509587	0.666669
C94	C	0.890852	-0.229903	-0.000010
C95	C	1.224186	0.103430	0.333324
C96	C	1.557519	0.436763	0.666657
C97	C	0.826686	-0.257799	-0.000010
C98	C	1.160020	0.075535	0.333323
C99	C	1.493353	0.408868	0.666657
C100	C	0.763587	-0.212864	-0.000017
C101	C	1.096920	0.120470	0.333316
C102	C	1.430254	0.453803	0.666649
C103	C	0.764660	-0.140041	-0.000013
C104	C	1.097994	0.193292	0.333320
C105	C	1.431327	0.526625	0.666654
N106	N	0.777632	-0.365805	0.042835
N107	N	1.110966	-0.032471	0.376169
N108	N	1.444299	0.300862	0.709502
N109	N	0.776617	-0.434983	0.042833
N110	N	1.109950	-0.101650	0.376166
N111	N	1.443284	0.231684	0.709499
C112	C	0.823448	-0.477207	-0.000025
C113	C	1.156781	-0.143874	0.333308
C114	C	1.490115	0.189459	0.666642
N115	N	0.871344	-0.447641	-0.042871
N116	N	1.204677	-0.114307	0.290463
N117	N	1.538010	0.219026	0.623796
N118	N	0.872361	-0.378456	-0.042865
N119	N	1.205695	-0.045123	0.290469
N120	N	1.539028	0.288211	0.623802
C121	C	0.825515	-0.336761	-0.000015
C122	C	1.158848	-0.003428	0.333318
C123	C	1.492182	0.329906	0.666651
C124	C	0.885381	-0.601097	-0.000036
C125	C	1.218715	-0.267763	0.333297
C126	C	1.552048	0.065570	0.666631
C127	C	0.884307	-0.673922	-0.000053
C128	C	1.217640	-0.340588	0.333281
C129	C	1.550974	-0.007255	0.666614
C130	C	0.757040	-0.656880	-0.000053
C131	C	1.090373	-0.323547	0.333280
C132	C	1.423706	0.009786	0.666614
C133	C	0.758116	-0.584057	-0.000044
C134	C	1.091449	-0.250724	0.333289
C135	C	1.424783	0.082610	0.666623
C136	C	0.822289	-0.556170	-0.000032
C137	C	1.155622	-0.222837	0.333302
C138	C	1.488955	0.110497	0.666635
C139	C	0.952154	0.087527	-0.000027
C140	C	1.285487	0.420861	0.333307
C141	C	1.618820	0.754194	0.666640
C142	C	1.029658	0.088666	-0.000033
C143	C	1.362992	0.422000	0.333301
C144	C	1.696325	0.755333	0.666634
C145	C	0.819000	0.220684	-0.000043
C146	C	1.152333	0.554017	0.333290
C147	C	1.485666	0.887350	0.666624
C148	C	0.820140	0.298188	-0.000054
C149	C	1.153474	0.631522	0.333279
C150	C	1.486807	0.964855	0.666612
N151	N	0.824465	0.093008	0.179139
N152	N	1.157798	0.426342	0.512472
N153	N	1.491132	0.759675	0.845806
N154	N	0.824514	0.093020	-0.179187
N155	N	1.157847	0.426353	0.154146
N156	N	1.491181	0.759687	0.487479
C157	C	0.872092	0.045420	0.218755
C158	C	1.205425	0.378753	0.552088
C159	C	1.538758	0.712086	0.885422
C160	C	0.872096	0.045416	0.298003
C161	C	1.205429	0.378750	0.631336
C162	C	1.538762	0.712083	0.964669
C163	C	0.824480	0.093014	0.337631
C164	C	1.157813	0.426347	0.670964
C165	C	1.491146	0.759680	1.004298
C166	C	0.776844	0.140606	0.298005
C167	C	1.110178	0.473939	0.631339
C168	C	1.443511	0.807273	0.964672
C169	C	0.776837	0.140604	0.218759
C170	C	1.110170	0.473937	0.552093
C171	C	1.443504	0.807270	0.885426
N172	N	0.815404	0.154821	0.462041
N173	N	1.148737	0.488155	0.795374
N174	N	1.482070	0.821488	1.128707
N175	N	0.815415	0.154821	0.537321
N176	N	1.148748	0.488155	0.870655
N177	N	1.482081	0.821488	1.203988
C178	C	0.824498	0.093023	0.576395
C179	C	1.157831	0.426357	0.909728
C180	C	1.491165	0.759690	1.243062
N181	N	0.833584	0.031223	0.537345
N182	N	1.166917	0.364556	0.870678
N183	N	1.500250	0.697890	1.204011
N184	N	0.833576	0.031223	0.462057
N185	N	1.166909	0.364557	0.795391
N186	N	1.500243	0.697890	1.128724
C187	C	0.824482	0.093022	0.423560
C188	C	1.157816	0.426355	0.756894
C189	C	1.491149	0.759688	1.090227
C190	C	0.872132	0.045427	0.701940
C191	C	1.205465	0.378760	1.035274
C192	C	1.538798	0.712094	1.368607
C193	C	0.872131	0.045423	0.781190
C194	C	1.205464	0.378756	1.114523
C195	C	1.538798	0.712089	1.447856
C196	C	0.776883	0.140619	0.781191
C197	C	1.110216	0.473952	1.114524
C198	C	1.443550	0.807285	1.447858
C199	C	0.776880	0.140617	0.701943
C200	C	1.110214	0.473950	1.035277
C201	C	1.443547	0.807284	1.368610
C202	C	0.824509	0.093022	0.662323
C203	C	1.157842	0.426355	0.995656
C204	C	1.491175	0.759689	1.328990
H205	H	0.153078	0.206160	-0.000029
H206	H	0.486411	0.539494	0.333304
H207	H	0.819744	0.872827	0.666638
C208	C	0.734586	0.182885	0.580466
C209	C	1.067919	0.516218	0.913800
C210	C	1.401252	0.849552	1.247133
C211	C	0.724537	0.192938	0.658391
C212	C	1.057870	0.526271	0.991724
C213	C	1.391203	0.859604	1.325058
H214	H	0.702266	0.215185	0.553581
H215	H	1.035599	0.548518	0.886914
H216	H	1.368932	0.881852	1.220248
H217	H	0.781152	0.190350	0.567470
H218	H	1.114486	0.523683	0.900804
H219	H	1.447819	0.857016	1.234137
H220	H	0.727142	0.136304	0.567500
H221	H	1.060475	0.469638	0.900833
H222	H	1.393809	0.802971	1.234167
H223	H	0.731985	0.239517	0.671359
H224	H	1.065319	0.572850	1.004692
H225	H	1.398652	0.906184	1.338025
H226	H	0.677959	0.185478	0.671392
H227	H	1.011292	0.518812	1.004726
H228	H	1.344625	0.852145	1.338059
C229	C	0.631353	-0.632717	-0.000056
C230	C	0.964686	-0.299384	0.333278
C231	C	1.298019	0.033950	0.666611
C232	C	0.686505	-0.687533	-0.000056
C233	C	1.019838	-0.354200	0.333277
C234	C	1.353172	-0.020866	0.666610
H235	H	0.587807	-0.651644	-0.000065
H236	H	0.921140	-0.318311	0.333269
H237	H	1.254474	0.015022	0.666602
H238	H	0.634410	-0.604681	0.043848
H239	H	0.967744	-0.271348	0.377181
H240	H	1.301077	0.061985	0.710514
H241	H	0.634432	-0.604656	-0.043959
H242	H	0.967765	-0.271323	0.289375
H243	H	1.301098	0.062011	0.622708
H244	H	0.683429	-0.715591	0.043849
H245	H	1.016763	-0.382258	0.377183
H246	H	1.350096	-0.048925	0.710516
H247	H	0.683446	-0.715581	-0.043964
H248	H	1.016779	-0.382247	0.289369
H249	H	1.350113	-0.048914	0.622702
H250	H	0.910912	0.006666	0.813446
H251	H	1.244245	0.340000	1.146779
H252	H	1.577579	0.673333	1.480112
C253	C	0.156937	-0.099260	-0.000026
C254	C	0.490271	0.234073	0.333307
C255	C	0.823604	0.567407	0.666641
C256	C	0.196797	-0.042711	-0.000022
C257	C	0.530130	0.290623	0.333311
C258	C	0.863464	0.623956	0.666645
H259	H	0.187429	-0.142077	-0.000029
H260	H	0.520762	0.191257	0.333304
H261	H	0.854096	0.524590	0.666638
H262	H	0.128173	-0.097040	0.043873
H263	H	0.461507	0.236294	0.377206
H264	H	0.794840	0.569627	0.710539
H265	H	0.128186	-0.097020	-0.043934
H266	H	0.461519	0.236313	0.289400
H267	H	0.794853	0.569646	0.622733
H268	H	0.225545	-0.044948	0.043889
H269	H	0.558878	0.288386	0.377222
H270	H	0.892211	0.621719	0.710555
H271	H	0.225573	-0.044932	-0.043925
H272	H	0.558907	0.288401	0.289408
H273	H	0.892240	0.621734	0.622741
H274	H	0.464978	0.210765	-0.000023
H275	H	0.798312	0.544098	0.333310
H276	H	1.131645	0.877432	0.666644
C277	C	0.992469	-0.710840	-0.064760
C278	C	1.325803	-0.377507	0.268573
C279	C	1.659136	-0.044174	0.601906
C280	C	0.953664	-0.723304	-0.000050
C281	C	1.286998	-0.389971	0.333283
C282	C	1.620331	-0.056638	0.666617
H283	H	1.035290	-0.741325	-0.064755
H284	H	1.368623	-0.407992	0.268579
H285	H	1.701957	-0.074658	0.601912
H286	H	0.966160	-0.719268	-0.108660
H287	H	1.299494	-0.385935	0.224674
H288	H	1.632827	-0.052601	0.558007
H289	H	1.002284	-0.663475	-0.064745
H290	H	1.335617	-0.330142	0.268589
H291	H	1.668951	0.003191	0.601922
H292	H	0.943845	-0.770668	-0.000069
H293	H	1.277179	-0.437335	0.333265
H294	H	1.610512	-0.104001	0.666598
H295	H	0.979979	-0.714882	0.043860
H296	H	1.313312	-0.381549	0.377194
H297	H	1.646646	-0.048215	0.710527
H298	H	0.713282	-0.103462	-0.000015
H299	H	1.046616	0.229871	0.333318
H300	H	1.379949	0.563204	0.666651
C301	C	0.446574	-0.042918	0.064705
C302	C	0.779907	0.290416	0.398038
C303	C	1.113240	0.623749	0.731372
C304	C	0.487940	-0.038410	-0.000010
C305	C	0.821273	0.294923	0.333323
C306	C	1.154607	0.628256	0.666657
H307	H	0.427642	-0.086461	0.064703
H308	H	0.760975	0.246872	0.398036
H309	H	1.094309	0.580206	0.731370
H310	H	0.474621	-0.039863	0.108601
H311	H	0.807954	0.293470	0.441934
H312	H	1.141287	0.626804	0.775268
H313	H	0.409396	-0.005490	0.064692
H314	H	0.742730	0.327843	0.398025
H315	H	1.076063	0.661176	0.731359
H316	H	0.525120	-0.075835	0.000006
H317	H	0.858454	0.257498	0.333339
H318	H	1.191787	0.590832	0.666673
H319	H	0.459891	-0.041472	-0.043917
H320	H	0.793225	0.291861	0.289416
H321	H	1.126558	0.625195	0.622749
C322	C	0.682735	0.234712	0.773227
C323	C	1.016068	0.568045	1.106561
C324	C	1.349401	0.901378	1.439894
C325	C	0.724540	0.192939	0.824740
C326	C	1.057873	0.526272	1.158074
C327	C	1.391206	0.859605	1.491407
H328	H	0.650416	0.267008	0.800117
H329	H	0.983749	0.600341	1.133451
H330	H	1.317082	0.933674	1.466784
H331	H	0.711716	0.259754	0.742307
H332	H	1.045049	0.593087	1.075640
H333	H	1.378382	0.926421	1.408973
H334	H	0.657712	0.205702	0.742331
H335	H	0.991046	0.539035	1.075664
H336	H	1.324379	0.872368	1.408997
H337	H	0.749566	0.221948	0.855633
H338	H	1.082900	0.555282	1.188967
H339	H	1.416233	0.888615	1.522300
H340	H	0.695555	0.167895	0.855674
H341	H	1.028888	0.501228	1.189008
H342	H	1.362222	0.834561	1.522341
C343	C	-0.034215	0.225462	-0.064767
C344	C	0.299119	0.558795	0.268567
C345	C	0.632452	0.892128	0.601900
C346	C	0.008161	0.222189	-0.000044
C347	C	0.341495	0.555522	0.333289
C348	C	0.674828	0.888856	0.666623
H349	H	-0.064704	0.268279	-0.064772
H350	H	0.268629	0.601612	0.268561
H351	H	0.601962	0.934946	0.601894
H352	H	-0.005440	0.223239	-0.108657
H353	H	0.327893	0.556572	0.224676
H354	H	0.661227	0.889905	0.558009
H355	H	-0.061247	0.187091	-0.064756
H356	H	0.272086	0.520424	0.268577
H357	H	0.605419	0.853757	0.601910
H358	H	0.035198	0.260557	-0.000057
H359	H	0.368531	0.593890	0.333276
H360	H	0.701865	0.927224	0.666610
H361	H	-0.020617	0.224419	0.043858
H362	H	0.312717	0.557752	0.377192
H363	H	0.646050	0.891085	0.710525
C364	C	0.966274	-0.048675	0.709896
C365	C	1.299607	0.284658	1.043229
C366	C	1.632941	0.617992	1.376563
C367	C	0.924475	-0.006895	0.658384
C368	C	1.257808	0.326438	0.991717
C369	C	1.591142	0.659771	1.325050
H370	H	0.998585	-0.080979	0.683005
H371	H	1.331918	0.252354	1.016339
H372	H	1.665251	0.585687	1.349672
H373	H	0.991300	-0.019675	0.740789
H374	H	1.324633	0.313658	1.074122
H375	H	1.657967	0.646991	1.407456
H376	H	0.937283	-0.073714	0.740820
H377	H	1.270617	0.259619	1.074153
H378	H	1.603950	0.592952	1.407487
H379	H	0.953466	0.018148	0.627463
H380	H	1.286799	0.351481	0.960796
H381	H	1.620132	0.684815	1.294129
H382	H	0.899447	-0.035899	0.627477
H383	H	1.232781	0.297434	0.960811
H384	H	1.566114	0.630768	1.294144
H385	H	0.051883	-0.026685	-0.000035
H386	H	0.385216	0.306649	0.333299
H387	H	0.718549	0.639982	0.666632
H388	H	0.706740	-0.547478	-0.000042
H389	H	1.040073	-0.214144	0.333291
H390	H	1.373407	0.119189	0.666624
H391	H	0.738074	0.179360	0.330275
H392	H	1.071407	0.512693	0.663608
H393	H	1.404740	0.846026	0.996942
C394	C	1.017613	-0.181244	0.000006
C395	C	1.350947	0.152089	0.333339
C396	C	1.684280	0.485422	0.666672
C397	C	0.962462	-0.126427	0.000008
C398	C	1.295795	0.206906	0.333341
C399	C	1.629129	0.540240	0.666674
H400	H	1.061159	-0.162318	0.000004
H401	H	1.394493	0.171015	0.333337
H402	H	1.727826	0.504349	0.666670
H403	H	1.014539	-0.209300	0.043905
H404	H	1.347872	0.124033	0.377238
H405	H	1.681206	0.457367	0.710571
H406	H	1.014549	-0.209285	-0.043902
H407	H	1.347883	0.124048	0.289432
H408	H	1.681216	0.457381	0.622765
H409	H	0.965523	-0.098389	0.043918
H410	H	1.298856	0.234944	0.377251
H411	H	1.632190	0.568278	0.710585
H412	H	0.965538	-0.098360	-0.043896
H413	H	1.298871	0.234974	0.289437
H414	H	1.632204	0.568307	0.622771
H415	H	0.738053	0.179357	0.186503
H416	H	1.071386	0.512690	0.519837
H417	H	1.404719	0.846023	0.853170
H418	H	0.937635	-0.578390	-0.000030
H419	H	1.270968	-0.245057	0.333304
H420	H	1.604301	0.088277	0.666637
C421	C	0.628377	-0.074942	-0.064727
C422	C	0.961710	0.258392	0.268607
C423	C	1.295043	0.591725	0.601940
C424	C	0.640808	-0.036161	-0.000010
C425	C	0.974142	0.297172	0.333323
C426	C	1.307475	0.630506	0.666657
H427	H	0.658870	-0.117757	-0.064725
H428	H	0.992203	0.215577	0.268609
H429	H	1.325537	0.548910	0.601942
H430	H	0.581021	-0.084763	-0.064720
H431	H	0.914354	0.248571	0.268613
H432	H	1.247687	0.581904	0.601946
H433	H	0.636821	-0.048609	-0.108626
H434	H	0.970154	0.284725	0.224707
H435	H	1.303487	0.618058	0.558040
H436	H	0.632359	-0.062492	0.043890
H437	H	0.965693	0.270841	0.377223
H438	H	1.299026	0.604175	0.710557
H439	H	0.688175	-0.026342	-0.000010
H440	H	1.021509	0.306992	0.333324
H441	H	1.354842	0.640325	0.666657
H442	H	0.910871	0.006663	0.186498
H443	H	1.244205	0.339997	0.519832
H444	H	1.577538	0.673330	0.853165
C445	C	0.966248	-0.048677	0.290049
C446	C	1.299581	0.284656	0.623383
C447	C	1.632914	0.617990	0.956716
C448	C	0.924448	-0.006899	0.341561
C449	C	1.257781	0.326434	0.674894
C450	C	1.591115	0.659767	1.008228
H451	H	0.998568	-0.080972	0.316941
H452	H	1.331902	0.252361	0.650274
H453	H	1.665235	0.585695	0.983607
H454	H	0.937263	-0.073721	0.259157
H455	H	1.270597	0.259613	0.592490
H456	H	1.603930	0.592946	0.925823
H457	H	0.991268	-0.019670	0.259125
H458	H	1.324602	0.313663	0.592458
H459	H	1.657935	0.646997	0.925791
H460	H	0.899423	-0.035906	0.372482
H461	H	1.232757	0.297427	0.705815
H462	H	1.566090	0.630761	1.039149
H463	H	0.953436	0.018146	0.372467
H464	H	1.286769	0.351479	0.705800
H465	H	1.620103	0.684813	1.039133
H466	H	0.711342	-0.235581	-0.000019
H467	H	1.044676	0.097753	0.333314
H468	H	1.378009	0.431086	0.666647
C469	C	0.963491	-0.321677	-0.064721
C470	C	1.296824	0.011657	0.268612
C471	C	1.630158	0.344990	0.601946
C472	C	0.960206	-0.279297	-0.000001
C473	C	1.293540	0.054036	0.333332
C474	C	1.626873	0.387369	0.666665
H475	H	1.006309	-0.352166	-0.064716
H476	H	1.339642	-0.018832	0.268618
H477	H	1.672976	0.314501	0.601951
H478	H	0.925124	-0.348704	-0.064722
H479	H	1.258458	-0.015371	0.268612
H480	H	1.591791	0.317962	0.601945
H481	H	0.961279	-0.292899	-0.108619
H482	H	1.294612	0.040434	0.224715
H483	H	1.627946	0.373768	0.558048
H484	H	0.962413	-0.308075	0.043897
H485	H	1.295746	0.025258	0.377230
H486	H	1.629080	0.358592	0.710563
H487	H	0.998584	-0.252268	0.000006
H488	H	1.331917	0.081066	0.333339
H489	H	1.665250	0.414399	0.666673
C490	C	0.582271	0.269276	-0.064754
C491	C	0.915605	0.602610	0.268579
C492	C	1.248938	0.935943	0.601913
C493	C	0.605033	0.231000	-0.000036
C494	C	0.938366	0.564334	0.333297
C495	C	1.271699	0.897667	0.666631
H496	H	0.601187	0.312828	-0.064753
H497	H	0.934521	0.646161	0.268580
H498	H	1.267854	0.979495	0.601913
H499	H	0.597719	0.243316	-0.108648
H500	H	0.931052	0.576649	0.224685
H501	H	1.264385	0.909982	0.558019
H502	H	0.532470	0.277653	-0.064743
H503	H	0.865803	0.610987	0.268590
H504	H	1.199137	0.944320	0.601923
H505	H	0.654834	0.222619	-0.000049
H506	H	0.988167	0.555952	0.333284
H507	H	1.321501	0.889286	0.666617
H508	H	0.589589	0.256967	0.043870
H509	H	0.922923	0.590300	0.377203
H510	H	1.256256	0.923634	0.710536
