data_functionalizedCrystal
_audit_creation_method	'MofGen! by Chris Wilmer'
_symmetry_space_group_name_H-M	'P1'
_symmetry_Int_Tables_number	1
_symmetry_cell_setting	triclinic
loop_
_symmetry_equiv_pos_as_xyz
  x,y,z
_cell_length_a	14.586319
_cell_length_b	16.109301
_cell_length_c	16.109301
_cell_angle_alpha	96.538519
_cell_angle_beta	90.005214
_cell_angle_gamma	89.999213
loop_
_atom_site_label
_atom_site_type_symbol
_atom_site_fract_x
_atom_site_fract_y
_atom_site_fract_z
O1	O	0.076185	-1.103131	0.106866
O2	O	0.076200	-0.861069	0.120165
O3	O	0.076183	-0.988749	-0.007515
O4	O	0.076203	-0.975450	0.234547
O5	O	-0.076298	-0.988741	-0.007517
O6	O	-0.076281	-0.861060	0.120164
O7	O	-0.076295	-1.103122	0.106864
Cu8	Cu	-0.090211	-0.982090	0.113514
Cu9	Cu	0.090115	-0.982101	0.113516
O10	O	-0.076278	-0.975441	0.234545
C11	C	-0.000038	-0.830090	0.119626
C12	C	-0.000033	-0.737794	0.118011
N13	N	-0.217042	-0.982089	0.113512
C14	C	-0.000058	-0.988206	-0.038491
C15	C	-0.000059	-0.986591	-0.130786
C16	C	-0.452057	-1.038644	0.056994
C17	C	-0.548038	-1.038647	0.056992
C18	C	-0.548032	-0.925547	0.170032
C19	C	-0.452052	-0.925541	0.170030
C20	C	-0.404067	-0.982095	0.113511
C21	C	-0.596028	-0.982103	0.113512
C22	C	-0.700095	-0.982105	0.113510
C23	C	-0.299993	-0.982092	0.113512
N24	N	0.216947	-0.982109	0.113511
C25	C	-0.000055	-1.134101	0.107404
C26	C	-0.000054	-1.226397	0.109019
C27	C	-0.000038	-0.515522	0.190018
C28	C	-0.000044	-0.428801	0.188494
C29	C	-0.000052	-0.448676	0.037006
C30	C	-0.000053	-0.535394	0.038530
C31	C	-0.000041	-0.568815	0.115039
C32	C	-0.000046	-0.395376	0.111990
C33	C	-0.000053	-0.301350	0.110337
C34	C	-0.000036	-0.662847	0.116693
C35	C	-0.000049	-1.058599	-0.353059
C36	C	-0.000041	-1.057075	-0.439779
C37	C	-0.000036	-0.905586	-0.419905
C38	C	-0.000037	-0.907111	-0.333186
C39	C	-0.000048	-0.983620	-0.299766
C40	C	-0.000039	-0.980571	-0.473205
C41	C	-0.000031	-0.978918	-0.567231
C42	C	-0.000055	-0.985273	-0.205734
C43	C	-0.000035	-0.975984	0.265521
C44	C	-0.000028	-0.977600	0.357816
H45	H	-0.587108	-1.084694	0.010969
H46	H	-0.587111	-0.879503	0.216049
C47	C	0.000141	-1.141687	-0.316818
C48	C	0.078603	-1.186999	-0.343884
C49	C	0.078819	-1.263541	-0.310509
H50	H	-0.052968	-1.172662	-0.335095
H51	H	0.000189	-1.131893	-0.257535
H52	H	0.078546	-1.196796	-0.403154
H53	H	0.131725	-1.156050	-0.325608
H54	H	0.078868	-1.253747	-0.251227
H55	H	0.025707	-1.294508	-0.328789
H56	H	0.132059	-1.294291	-0.328862
H57	H	-0.000043	-0.385413	0.249550
H58	H	-0.000035	-0.542730	0.252317
C59	C	-0.000010	-0.412227	-0.045973
C60	C	0.000018	-0.324875	-0.031263
C61	C	0.000073	-0.291273	-0.107685
H62	H	-0.053170	-0.430428	-0.076912
H63	H	0.053184	-0.430477	-0.076849
H64	H	-0.053170	-0.306633	-0.000400
H65	H	0.053175	-0.306652	-0.000337
H66	H	0.053266	-0.309523	-0.138560
H67	H	-0.053088	-0.309480	-0.138618
H68	H	0.000100	-0.232002	-0.097714
C69	C	-0.399864	-1.099885	-0.004453
C70	C	-0.344785	-1.055579	-0.055343
C71	C	-0.296698	-1.111955	-0.111971
H72	H	-0.442109	-1.133565	-0.038193
H73	H	-0.362345	-1.134494	0.025399
H74	H	-0.382301	-1.020983	-0.085193
H75	H	-0.302523	-1.021901	-0.021627
H76	H	-0.259179	-1.146565	-0.082119
H77	H	-0.338949	-1.145633	-0.145704
H78	H	-0.259314	-1.081902	-0.146501
H79	H	-0.000028	-0.843295	-0.447127
C80	C	-0.400108	-0.864104	0.231490
C81	C	-0.462672	-0.814597	0.281006
C82	C	-0.414855	-0.758000	0.337634
H83	H	-0.362671	-0.829425	0.201665
H84	H	-0.362678	-0.893978	0.266151
H85	H	-0.500087	-0.784725	0.246349
H86	H	-0.500111	-0.849253	0.310848
H87	H	-0.377424	-0.787875	0.372295
H88	H	-0.377419	-0.723328	0.307802
H89	H	-0.457297	-0.724409	0.371242
C90	C	-0.000008	-0.593125	-0.042971
C91	C	0.000013	-0.545298	-0.110300
C92	C	0.000063	-0.598450	-0.185387
H93	H	-0.053168	-0.627384	-0.045643
H94	H	0.053185	-0.627356	-0.045566
H95	H	-0.053175	-0.511081	-0.107706
H96	H	0.053169	-0.511040	-0.107655
H97	H	0.053257	-0.632681	-0.187982
H98	H	-0.053098	-0.632706	-0.188051
H99	H	0.000086	-0.566007	-0.231079
H100	H	-0.000033	-0.846050	-0.289792
H101	H	-0.000040	-1.118130	-0.483168
