data_functionalizedCrystal
_audit_creation_method	'MofGen! by Chris Wilmer'
_symmetry_space_group_name_H-M	'P1'
_symmetry_Int_Tables_number	1
_symmetry_cell_setting	triclinic
loop_
_symmetry_equiv_pos_as_xyz
  x,y,z
_cell_length_a	12.827893
_cell_length_b	14.908579
_cell_length_c	12.827885
_cell_angle_alpha	86.733855
_cell_angle_beta	89.980538
_cell_angle_gamma	86.677896
loop_
_atom_site_label
_atom_site_type_symbol
_atom_site_fract_x
_atom_site_fract_y
_atom_site_fract_z
Zn1	Zn	1.573607	0.359110	-0.614835
Zn2	Zn	1.563390	0.509994	-0.450174
Zn3	Zn	1.398845	0.359155	-0.440112
Zn4	Zn	1.388727	0.509927	-0.624869
O5	O	1.481142	0.434546	-0.532498
O6	O	1.718487	0.379134	-0.593004
O7	O	1.541521	0.490031	-0.302606
O8	O	1.430538	0.232904	-0.454879
O9	O	1.710980	0.489988	-0.472028
O10	O	1.558935	0.232872	-0.583248
O11	O	1.420630	0.379210	-0.295214
O12	O	1.251267	0.379146	-0.464609
O13	O	1.413294	0.489875	-0.769771
O14	O	1.243834	0.489918	-0.600349
O15	O	1.549124	0.379070	-0.762399
O16	O	1.531710	0.636229	-0.481758
O17	O	1.403386	0.636180	-0.610106
C18	C	1.209633	0.434530	-0.532477
C19	C	1.093479	0.434544	-0.532494
C20	C	1.045402	0.379788	-0.592462
C21	C	0.925351	0.379802	-0.592481
C22	C	1.465370	0.668939	-0.548135
C23	C	1.458718	0.769212	-0.554860
C24	C	1.579979	0.957628	-0.433956
C25	C	1.573733	1.051844	-0.440271
C26	C	1.439985	1.051863	-0.573810
C27	C	1.446231	0.957647	-0.567495
C28	C	1.516230	0.910532	-0.497564
C29	C	1.522470	0.816314	-0.491245
C30	C	1.388728	0.816335	-0.624789
C31	C	1.382481	0.910551	-0.631104
C32	C	1.753711	0.434564	-0.532519
C33	C	1.869864	0.434571	-0.532529
C34	C	1.481220	0.434460	-0.805062
C35	C	1.481253	0.434423	-0.921213
C36	C	1.496998	1.199239	-0.516835
C37	C	1.503737	1.098965	-0.510195
C38	C	1.421454	0.379574	-0.969339
C39	C	1.421487	0.379535	-1.089387
C40	C	1.481129	0.434568	-0.260989
C41	C	1.481316	0.434350	-0.144822
H42	H	1.093120	0.332895	-0.643785
F43	F	1.641586	1.101963	-0.372572
F44	F	1.320865	0.766206	-0.692479
F45	F	1.548244	0.495728	-1.090718
F46	F	1.548199	0.495769	-0.983519
H47	H	1.370295	0.332573	-1.130788
H48	H	1.325493	0.948925	-0.688042
F49	F	1.354513	0.318224	-0.907032
H50	H	0.911216	0.481458	-0.481191
F51	F	0.871295	0.318529	-0.659596
F52	F	1.031115	0.495830	-0.465398
F53	F	1.654462	0.907483	-0.359518
F54	F	1.596964	0.766173	-0.416815
F55	F	1.365505	1.102021	-0.648241
