data_functionalizedCrystal
_audit_creation_method	'MofGen! by Chris Wilmer'
_symmetry_space_group_name_H-M	'P1'
_symmetry_Int_Tables_number	1
_symmetry_cell_setting	triclinic
loop_
_symmetry_equiv_pos_as_xyz
  x,y,z
_cell_length_a	19.077409
_cell_length_b	21.295412
_cell_length_c	21.295417
_cell_angle_alpha	89.969332
_cell_angle_beta	92.332467
_cell_angle_gamma	92.268267
loop_
_atom_site_label
_atom_site_type_symbol
_atom_site_fract_x
_atom_site_fract_y
_atom_site_fract_z
Zn1	Zn	1.075969	-0.317387	-0.211929
Zn2	Zn	1.075862	-0.212117	-0.317201
Zn3	Zn	0.958265	-0.216347	-0.216179
Zn4	Zn	0.958229	-0.321560	-0.321399
O5	O	1.017081	-0.266853	-0.266677
O6	O	1.174445	-0.299906	-0.222358
O7	O	1.060233	-0.124589	-0.303823
O8	O	0.973939	-0.229774	-0.127524
O9	O	1.174366	-0.222564	-0.299701
O10	O	1.060415	-0.304008	-0.124401
O11	O	0.973835	-0.127697	-0.229602
O12	O	0.859770	-0.233820	-0.233672
O13	O	0.973877	-0.409095	-0.306855
O14	O	0.859744	-0.311120	-0.310976
O15	O	1.060380	-0.406029	-0.226428
O16	O	1.060198	-0.226611	-0.405850
O17	O	0.973773	-0.307018	-0.408933
C18	C	0.834220	-0.273382	-0.273241
C19	C	0.755991	-0.276190	-0.276065
C20	C	0.315646	-0.296362	-0.296265
C21	C	0.389150	-0.293711	-0.293617
C22	C	0.425893	-0.252207	-0.251980
C23	C	0.389128	-0.213346	-0.212993
C24	C	0.315625	-0.215994	-0.215644
C25	C	0.645723	-0.239977	-0.239729
C26	C	0.719231	-0.237334	-0.237079
C27	C	0.719248	-0.317699	-0.317705
C28	C	0.645743	-0.320345	-0.320350
C29	C	0.608985	-0.281482	-0.281365
N30	N	0.501026	-0.249498	-0.249271
N31	N	0.533853	-0.284188	-0.284078
C32	C	1.017136	-0.431041	-0.266636
C33	C	1.017160	-0.501008	-0.266618
C34	C	0.972184	-0.535483	-0.227967
C35	C	0.972182	-0.601226	-0.227955
C36	C	1.017167	-0.632491	-0.266588
C37	C	1.062146	-0.598008	-0.305247
C38	C	1.062142	-0.532267	-0.305263
N39	N	1.078778	-0.733523	-0.269180
N40	N	1.078779	-0.795974	-0.269162
C41	C	1.017180	-0.830565	-0.266546
N42	N	0.955578	-0.800345	-0.263936
N43	N	0.955578	-0.737888	-0.263951
C44	C	1.017176	-0.703776	-0.266576
C45	C	0.972198	-0.936325	-0.227879
C46	C	0.972195	-1.002069	-0.227872
C47	C	1.062165	-0.998850	-0.305161
C48	C	1.062163	-0.933108	-0.305172
C49	C	1.017180	-0.901849	-0.266528
C50	C	1.200657	-0.260298	-0.260088
C51	C	1.278886	-0.257505	-0.257279
C52	C	1.016989	-0.266821	-0.430232
C53	C	1.017014	-0.266826	-0.500199
C54	C	1.017067	-0.103302	-0.266671
C55	C	1.017180	-0.033330	-0.266506
C56	C	1.062055	-0.224998	-0.531438
C57	C	1.062088	-0.225011	-0.597179
C58	C	1.017067	-0.266846	-0.631680
C59	C	0.972023	-0.308683	-0.600433
C60	C	0.971996	-0.308673	-0.534693
N61	N	0.955499	-0.273844	-0.737160
N62	N	0.955526	-0.273849	-0.799610
C63	C	1.017146	-0.266880	-0.829752
N64	N	1.078739	-0.259892	-0.795083
N65	N	1.078711	-0.259883	-0.732627
C66	C	1.017092	-0.266862	-0.702964
C67	C	1.062227	-0.225063	-0.932274
C68	C	1.062261	-0.225080	-0.998017
C69	C	0.972189	-0.308749	-1.001270
C70	C	0.972162	-0.308735	-0.935529
C71	C	1.017179	-0.266888	-0.901035
C72	C	1.017193	-0.266898	-0.102483
C73	C	1.017241	-0.266917	-0.032513
H74	H	0.615832	-0.354141	-0.354257
H75	H	1.098944	-0.191020	-1.023450
H76	H	1.098769	-0.190949	-0.622618
H77	H	1.098886	-0.190991	-0.904188
H78	H	0.935317	-0.342735	-0.509258
O79	O	0.280032	-0.336766	-0.336675
C80	C	0.298034	-0.398883	-0.322342
H81	H	0.351415	-0.398310	-0.296222
H82	H	0.300547	-0.426934	-0.367720
H83	H	0.256697	-0.421635	-0.291497
O84	O	0.928191	-0.349294	-0.633878
C85	C	0.858044	-0.337980	-0.620413
H86	H	0.856580	-0.313825	-0.572751
H87	H	0.826461	-0.384517	-0.619293
H88	H	0.834370	-0.306451	-0.658305
O89	O	1.105772	-0.628351	-0.342866
C90	C	1.090358	-0.612806	-0.406163
H91	H	1.034128	-0.596729	-0.411364
H92	H	1.096403	-0.655817	-0.437033
H93	H	1.128077	-0.573302	-0.421274
H94	H	0.935536	-0.342815	-1.029360
O95	O	0.424933	-0.331491	-0.331394
C96	C	0.467482	-0.370692	-0.294071
H97	H	0.478505	-0.348178	-0.245942
H98	H	0.519161	-0.377225	-0.317861
H99	H	0.439188	-0.418371	-0.288231
H100	H	1.098795	-1.024306	-0.336615
H101	H	1.098788	-0.905038	-0.336645
H102	H	0.749185	-0.349338	-0.349444
H103	H	0.615803	-0.208329	-0.207988
H104	H	0.749145	-0.203541	-0.203165
O105	O	0.928448	-0.505054	-0.190523
C106	C	0.882949	-0.468644	-0.228005
H107	H	0.907738	-0.457898	-0.274821
H108	H	0.873526	-0.422759	-0.202712
H109	H	0.830791	-0.495834	-0.236789
O110	O	0.424927	-0.173084	-0.172563
C111	C	0.497686	-0.179068	-0.178590
H112	H	0.507750	-0.227246	-0.198910
H113	H	0.525638	-0.173882	-0.130424
H114	H	0.518504	-0.140916	-0.211310
O115	O	0.928334	-0.349383	-0.905280
C116	C	0.888615	-0.386323	-0.949825
H117	H	0.886214	-0.360632	-0.996795
H118	H	0.833150	-0.394972	-0.932865
H119	H	0.914362	-0.433233	-0.955835
O120	O	1.105736	-0.498750	-0.342879
C121	C	1.065637	-0.462118	-0.384971
H122	H	1.010202	-0.483894	-0.390845
H123	H	1.091058	-0.460452	-0.432503
H124	H	1.063224	-0.412387	-0.365602
H125	H	0.935570	-0.910873	-0.196414
O126	O	0.280023	-0.178225	-0.177710
C127	C	0.328213	-0.141014	-0.140401
H128	H	0.380628	-0.164914	-0.136364
H129	H	0.306992	-0.135155	-0.091561
H130	H	0.335986	-0.092882	-0.163109
H131	H	0.935558	-0.629300	-0.196477
O132	O	0.928401	-1.035491	-0.190359
C133	C	0.858245	-1.021916	-0.206645
H134	H	0.856771	-0.974229	-0.230907
H135	H	0.826720	-1.020796	-0.162344
H136	H	0.834512	-1.059746	-0.239850
O137	O	1.105858	-0.184334	-0.498026
C138	C	1.145609	-0.147408	-0.539702
H139	H	1.148045	-0.173113	-0.586458
H140	H	1.201060	-0.138753	-0.518676
H141	H	1.119867	-0.100499	-0.547670
