data_functionalizedCrystal
_audit_creation_method	'MofGen! by Chris Wilmer'
_symmetry_space_group_name_H-M	'P1'
_symmetry_Int_Tables_number	1
_symmetry_cell_setting	triclinic
loop_
_symmetry_equiv_pos_as_xyz
  x,y,z
_cell_length_a	14.853559
_cell_length_b	27.732064
_cell_length_c	13.330367
_cell_angle_alpha	90.000086
_cell_angle_beta	89.997552
_cell_angle_gamma	83.140439
loop_
_atom_site_label
_atom_site_type_symbol
_atom_site_fract_x
_atom_site_fract_y
_atom_site_fract_z
O1	O	0.107341	0.641424	-0.083240
O2	O	0.123636	0.500708	-0.083281
O3	O	-0.015803	0.574827	-0.083258
O4	O	0.246780	0.567305	-0.083263
O5	O	-0.015805	0.574816	0.083589
O6	O	0.123633	0.500697	0.083566
O7	O	0.107338	0.641413	0.083607
Cu8	Cu	0.115485	0.571054	0.098821
Cu9	Cu	0.115489	0.571067	-0.098495
O10	O	0.246777	0.567294	0.083585
C11	C	0.123290	0.482694	0.000138
C12	C	0.122253	0.429035	0.000122
C13	C	0.032793	0.051545	0.000181
C14	C	0.036610	0.253223	0.000154
O15	O	-0.032809	0.284152	0.000193
N16	N	0.119294	0.272736	0.000149
C17	C	0.201030	0.241826	0.000156
O18	O	0.271446	0.263050	0.000161
C19	C	0.197213	0.040149	0.000189
C20	C	0.114523	0.020639	0.000185
C21	C	-0.049890	0.032035	0.000177
C22	C	-0.050843	-0.018382	0.000178
C23	C	0.030887	-0.049288	0.000183
C24	C	0.113570	-0.029778	0.000186
C25	C	0.278948	0.009240	0.000204
C26	C	0.277987	-0.041182	0.000215
C27	C	0.195297	-0.060692	0.000210
C28	C	0.194347	-0.111100	0.000191
N29	N	0.111662	-0.130613	0.000197
C30	C	0.029932	-0.099707	0.000193
C31	C	0.203029	0.347710	0.000136
C32	C	0.203983	0.398129	0.000126
C33	C	0.039562	0.409523	0.000127
C34	C	0.038608	0.359103	0.000130
C35	C	0.120344	0.328197	0.000142
C36	C	0.027937	-0.205586	0.000194
C37	C	0.026991	-0.256007	0.000191
C38	C	0.191411	-0.267397	0.000196
C39	C	0.192358	-0.216980	0.000194
C40	C	0.110613	-0.186075	0.000196
O41	O	0.263728	-0.142058	0.000164
O42	O	-0.040473	-0.120941	0.000210
C43	C	0.033747	0.101962	0.000179
C44	C	0.116430	0.121472	0.000183
C45	C	0.198160	0.090566	0.000187
C46	C	0.117384	0.171891	0.000173
C47	C	0.035654	0.202797	0.000168
C48	C	-0.047030	0.183285	0.000174
C49	C	-0.047983	0.132868	0.000175
C50	C	0.280844	0.110079	0.000181
C51	C	0.281790	0.160496	0.000179
C52	C	0.200061	0.191402	0.000175
C53	C	-0.049387	0.574482	0.000163
C54	C	-0.149455	0.573462	0.000157
C55	C	-0.572559	0.569145	-0.090792
C56	C	-0.572556	0.569133	0.091111
C57	C	-0.478539	0.570095	0.091112
C58	C	-0.431526	0.570581	0.000159
C59	C	-0.478532	0.570105	-0.090794
C60	C	-0.431525	0.570565	0.182064
C61	C	-0.337501	0.571526	0.182069
C62	C	-0.290488	0.572016	0.091115
C63	C	-0.337500	0.571541	0.000158
C64	C	-0.290487	0.572027	-0.090795
C65	C	-0.337498	0.571555	-0.181753
C66	C	-0.431519	0.570595	-0.181748
C67	C	-0.196467	0.572976	0.091110
C68	C	-0.196460	0.572987	-0.090796
C69	C	0.280361	0.567640	0.000161
C70	C	0.380429	0.568659	0.000160
C71	C	0.107684	0.659427	0.000186
C72	C	0.108721	0.713086	0.000195
N73	N	0.115482	0.571049	0.237603
N74	N	0.115485	0.571076	-0.237276
C75	C	0.177208	0.538246	0.710216
C76	C	0.053762	0.603901	0.710203
C77	C	0.053759	0.603896	0.605185
C78	C	0.115483	0.571065	0.552677
C79	C	0.177209	0.538240	0.605187
C80	C	-0.007959	0.636724	0.552667
C81	C	-0.007964	0.636720	0.447642
C82	C	0.053756	0.603887	0.395132
C83	C	0.115484	0.571060	0.447649
C84	C	0.177207	0.538229	0.395141
C85	C	0.238932	0.505400	0.447656
C86	C	0.238929	0.505407	0.552678
C87	C	0.053759	0.603880	0.290111
C88	C	0.177208	0.538224	0.290113
H89	H	-0.118177	-0.034261	0.000179
H90	H	-0.610839	0.568734	0.165160
H91	H	-0.299207	0.571947	-0.255806
H92	H	0.347400	0.084919	0.000186
C93	C	-0.144754	0.573522	-0.190853
N94	N	-0.105810	0.573924	-0.266217
H95	H	-0.299234	0.571912	0.256132
H96	H	-0.026986	0.434695	0.000119
H97	H	-0.038628	-0.180428	0.000196
H98	H	0.003513	0.630634	0.752959
C99	C	0.367905	-0.075176	0.000225
N100	N	0.435631	-0.100779	0.000230
C101	C	-0.075850	0.672835	0.610431
N102	N	-0.126991	0.700034	0.653945
H103	H	-0.469803	0.570210	-0.255801
C104	C	-0.063978	-0.277464	0.000195
N105	N	-0.132494	-0.293624	0.000203
C106	C	0.372762	0.181950	0.000188
N107	N	0.441280	0.198107	0.000206
C108	C	-0.624270	0.568625	-0.190842
N109	N	-0.663220	0.568233	-0.266200
H110	H	-0.469809	0.570167	0.256112
C111	C	0.306826	0.469288	0.389884
N112	N	0.357962	0.442088	0.346365
C113	C	-0.144760	0.573495	0.191158
N114	N	-0.105816	0.573887	0.266519
C115	C	0.306815	0.469295	0.610452
N116	N	0.357946	0.442096	0.653971
H117	H	0.227468	0.511487	0.247367
H118	H	0.227461	0.511515	0.752976
C119	C	-0.075868	0.672829	0.389885
N120	N	-0.127018	0.700025	0.346382
C121	C	0.283320	-0.195518	0.000187
N122	N	0.351835	-0.179357	0.000192
H123	H	0.003508	0.630611	0.247358
H124	H	-0.028725	0.343222	0.000127
C125	C	-0.139808	0.066025	0.000168
N126	N	-0.207540	0.091623	0.000153
H127	H	0.271317	0.414009	0.000116
H128	H	0.346283	0.025115	0.000203
C129	C	0.292951	0.313719	0.000154
N130	N	0.360681	0.288119	0.000166
H131	H	0.257954	-0.292570	0.000194
H132	H	-0.115318	0.116988	0.000172
C133	C	-0.136933	0.217291	0.000175
N134	N	-0.204644	0.242907	0.000184
