data_functionalizedCrystal
_audit_creation_method	'MofGen! by Chris Wilmer'
_symmetry_space_group_name_H-M	'P1'
_symmetry_Int_Tables_number	1
_symmetry_cell_setting	triclinic
loop_
_symmetry_equiv_pos_as_xyz
  x,y,z
_cell_length_a	15.298206
_cell_length_b	15.297327
_cell_length_c	15.298259
_cell_angle_alpha	88.343348
_cell_angle_beta	107.352615
_cell_angle_gamma	88.422996
loop_
_atom_site_label
_atom_site_type_symbol
_atom_site_fract_x
_atom_site_fract_y
_atom_site_fract_z
Zn1	Zn	1.225119	-0.504309	-0.384900
Zn2	Zn	1.216309	-0.674422	-0.264988
Zn3	Zn	1.096503	-0.504361	-0.256363
Zn4	Zn	1.046307	-0.615527	-0.435093
O5	O	1.146060	-0.574655	-0.335336
O6	O	1.348923	-0.551500	-0.351596
O7	O	1.217737	-0.676532	-0.138861
O8	O	1.138259	-0.386638	-0.248799
O9	O	1.342451	-0.676481	-0.263497
O10	O	1.232752	-0.386599	-0.343234
O11	O	1.129716	-0.551589	-0.132525
O12	O	0.964872	-0.494482	-0.297469
O13	O	1.052706	-0.576104	-0.553418
O14	O	0.927992	-0.576155	-0.428781
O15	O	1.184079	-0.494392	-0.516541
O16	O	1.169064	-0.784325	-0.312168
O17	O	1.044163	-0.741056	-0.437144
C18	C	0.914028	-0.528934	-0.367637
C19	C	0.814756	-0.509390	-0.381480
C20	C	0.771464	-0.435202	-0.433963
C21	C	0.678195	-0.416832	-0.446971
C22	C	0.628207	-0.472651	-0.407502
C23	C	0.671497	-0.546844	-0.355024
C24	C	0.764777	-0.565212	-0.342009
C25	C	0.621520	-0.602661	-0.315548
C26	C	0.664810	-0.676854	-0.263070
C27	C	0.758081	-0.695219	-0.250058
C28	C	0.808069	-0.639400	-0.289526
C29	C	0.528240	-0.584292	-0.328563
C30	C	0.521553	-0.714302	-0.236609
C31	C	0.614822	-0.732673	-0.223601
C32	C	1.100232	-0.793214	-0.381054
C33	C	1.080705	-0.886725	-0.400631
C34	C	1.285952	-1.240313	-0.195669
C35	C	1.304299	-1.152455	-0.177271
C36	C	1.248403	-1.086019	-0.233110
C37	C	1.174155	-1.107448	-0.307349
C38	C	1.155801	-1.195313	-0.325745
C39	C	1.118252	-1.041020	-0.363185
C40	C	1.044004	-1.062448	-0.437425
C41	C	1.025654	-1.150306	-0.455818
C42	C	1.081551	-1.216743	-0.399979
C43	C	1.136605	-0.953154	-0.344790
C44	C	1.006454	-0.908154	-0.474865
C45	C	0.988107	-0.996012	-0.493263
C46	C	1.378997	-0.620554	-0.302910
C47	C	1.478261	-0.640114	-0.289092
C48	C	1.113775	-0.528673	-0.568292
C49	C	1.100018	-0.509078	-0.667564
C50	C	1.192087	-0.355242	-0.289455
C51	C	1.211702	-0.261742	-0.269903
C52	C	1.244551	-0.714058	-0.960584
C53	C	1.257472	-0.732472	-0.867315
C54	C	1.218110	-0.676625	-0.817372
C55	C	1.165825	-0.602361	-0.860708
C56	C	1.152897	-0.583948	-0.953988
C57	C	1.126455	-0.546516	-0.810777
C58	C	1.074170	-0.472251	-0.854113
C59	C	1.061246	-0.453842	-0.947383
C60	C	1.100608	-0.509689	-0.997326
C61	C	1.139383	-0.564928	-0.717497
C62	C	1.047729	-0.434819	-0.710901
C63	C	1.034809	-0.416404	-0.804170
C64	C	1.178282	-0.620407	-0.103266
C65	C	1.192262	-0.639798	-0.003921
H66	H	0.812174	-0.389759	-0.466087
H67	H	0.965188	-1.167749	-0.516259
Cl68	Cl	1.084370	-0.486540	-1.114583
H69	H	0.960937	-0.854061	-0.520333
Cl70	Cl	0.669256	-0.825939	-0.157629
Cl71	Cl	0.623779	-0.323567	-0.512944
H72	H	0.884013	-0.654362	-0.278952
H73	H	0.793328	-0.755626	-0.207317
H74	H	1.181960	-0.625391	-0.682220
Cl75	Cl	0.510952	-0.449557	-0.423859
H76	H	0.480853	-0.759755	-0.204471
Cl77	Cl	1.229942	-0.926225	-0.251464
H78	H	1.263345	-1.014483	-0.218125
H79	H	1.018662	-0.393377	-0.982668
H80	H	1.364750	-1.135011	-0.116826
Cl81	Cl	0.969080	-0.323047	-0.858661
H82	H	1.228631	-0.691624	-0.741429
Cl83	Cl	1.356211	-1.323833	-0.125480
Cl84	Cl	0.998228	-0.364616	-0.648127
H85	H	1.066619	-1.288286	-0.414957
Cl86	Cl	0.894770	-1.022963	-0.586590
Cl87	Cl	1.323201	-0.825827	-0.812841
H88	H	0.493003	-0.523882	-0.371290
Cl89	Cl	1.294017	-0.784263	-1.023375
