data_functionalizedCrystal
_audit_creation_method	'MofGen! by Chris Wilmer'
_symmetry_space_group_name_H-M	'P1'
_symmetry_Int_Tables_number	1
_symmetry_cell_setting	triclinic
loop_
_symmetry_equiv_pos_as_xyz
  x,y,z
_cell_length_a	26.455835
_cell_length_b	26.455273
_cell_length_c	26.451828
_cell_angle_alpha	60.005170
_cell_angle_beta	60.010757
_cell_angle_gamma	59.993435
loop_
_atom_site_label
_atom_site_type_symbol
_atom_site_fract_x
_atom_site_fract_y
_atom_site_fract_z
O1	O	0.069940	-0.738516	0.617604
O2	O	0.569940	-0.238516	1.117604
O3	O	0.026299	-0.574986	0.497618
O4	O	0.526299	-0.074986	0.997618
O5	O	0.129847	-0.678463	0.497546
O6	O	0.629847	-0.178463	0.997546
O7	O	-0.033607	-0.635040	0.617676
O8	O	0.466393	-0.135040	1.117676
O9	O	0.164197	-0.644116	0.531822
O10	O	0.664197	-0.144116	1.031822
O11	O	0.060649	-0.540639	0.531894
O12	O	0.560649	-0.040639	1.031894
O13	O	0.104290	-0.704170	0.651880
O14	O	0.604290	-0.204170	1.151880
Cu15	Cu	0.085606	-0.619268	0.595016
Cu16	Cu	0.585606	-0.119268	1.095016
Cu17	Cu	0.044984	-0.659887	0.554481
Cu18	Cu	0.544984	-0.159887	1.054481
O19	O	0.000742	-0.600693	0.651952
O20	O	0.500742	-0.100693	1.151952
N21	N	0.114179	-0.590703	0.623530
N22	N	0.614179	-0.090703	1.123530
N23	N	0.016416	-0.688458	0.525968
N24	N	0.516416	-0.188458	1.025968
C25	C	0.157553	-0.547535	0.933368
C26	C	0.657553	-0.047535	1.433368
C27	C	0.424104	-0.547506	0.666656
C28	C	0.924104	-0.047506	1.166656
C29	C	0.157413	-0.547503	0.666729
C30	C	0.657413	-0.047503	1.166729
C31	C	0.157397	-0.280846	0.666749
C32	C	0.657397	0.219154	1.166749
C33	C	0.200330	-0.409550	0.709625
C34	C	0.700330	0.090450	1.209625
C35	C	0.200339	-0.504608	0.709615
C36	C	0.700339	-0.004608	1.209615
C37	C	0.224118	-0.480848	0.733375
C38	C	0.724118	0.019152	1.233375
C39	C	0.327800	-0.462984	0.678792
C40	C	0.827800	0.037016	1.178792
C41	C	0.392611	-0.484588	0.657175
C42	C	0.892611	0.015412	1.157175
C43	C	0.392630	-0.589450	0.697162
C44	C	0.892630	-0.089450	1.197162
C45	C	0.327821	-0.567844	0.718781
C46	C	0.827821	-0.067844	1.218781
C47	C	0.215955	-0.377135	0.645910
C48	C	0.715955	0.122865	1.145910
C49	C	0.194327	-0.312320	0.624323
C50	C	0.694327	0.187680	1.124323
C51	C	0.141457	-0.312339	0.730169
C52	C	0.641457	0.187661	1.230169
C53	C	0.163084	-0.377154	0.751756
C54	C	0.663084	0.122846	1.251756
C55	C	0.136618	-0.488954	0.725292
C56	C	0.636618	0.011046	1.225292
C57	C	0.115007	-0.510553	0.703686
C58	C	0.615007	-0.010553	1.203686
C59	C	0.220833	-0.563461	0.650740
C60	C	0.720833	-0.063461	1.150740
C61	C	0.242447	-0.541861	0.672339
C62	C	0.742447	-0.041861	1.172339
C63	C	0.136680	-0.488971	0.837094
C64	C	0.636680	0.011029	1.337094
C65	C	0.115112	-0.510589	0.901907
C66	C	0.615112	-0.010589	1.401907
C67	C	0.220969	-0.563508	0.901868
C68	C	0.720969	-0.063508	1.401868
C69	C	0.242535	-0.541892	0.837053
C70	C	0.742535	-0.041892	1.337053
C71	C	0.200389	-0.504622	0.804668
C72	C	0.700389	-0.004622	1.304668
C73	C	0.295409	-0.504610	0.709593
C74	C	0.795409	-0.004610	1.209593
C75	C	0.132990	-0.570876	1.004655
C76	C	0.632990	-0.070876	1.504655
C77	C	0.495389	-0.570440	0.642547
C78	C	0.995389	-0.070440	1.142547
C79	C	0.132802	-0.570856	0.643399
C80	C	0.632802	-0.070856	1.143399
C81	C	0.133212	-0.209553	0.643833
C82	C	0.633212	0.290447	1.143833
C83	C	-0.097217	-0.706972	0.506986
C84	C	0.402783	-0.206972	1.006986
C85	C	-0.002040	-0.707108	0.412067
C86	C	0.497960	-0.207108	0.912067
C87	C	-0.002230	-0.802124	0.507163
C88	C	0.497770	-0.302124	1.007163
C89	C	-0.002214	-0.707101	0.507221
C90	C	0.497786	-0.207101	1.007221
C91	C	-0.025925	-0.730827	0.483360
C92	C	0.474075	-0.230827	0.983360
N93	N	0.553723	-0.590712	0.623415
N94	N	1.053723	-0.090712	1.123415
O95	O	0.751638	-0.596429	0.475603
O96	O	1.251638	-0.096429	0.975603
O97	O	0.751819	-0.716773	0.638980
O98	O	1.251819	-0.216773	1.138980
O99	O	0.751753	-0.716500	0.535361
O100	O	1.251753	-0.216500	1.035361
O101	O	0.751705	-0.596703	0.579222
O102	O	1.251705	-0.096703	1.079222
O103	O	0.648791	-0.682239	0.569747
O104	O	1.148791	-0.182239	1.069747
O105	O	0.648858	-0.682512	0.673366
O106	O	1.148858	-0.182512	1.173366
O107	O	0.648676	-0.562169	0.509989
O108	O	1.148676	-0.062169	1.009989
Cu109	Cu	0.639366	-0.619212	0.594817
Cu110	Cu	1.139366	-0.119212	1.094817
Cu111	Cu	0.761130	-0.659729	0.554152
Cu112	Cu	1.261130	-0.159729	1.054152
O113	O	0.648743	-0.562442	0.613609
O114	O	1.148743	-0.062442	1.113609
N115	N	0.846773	-0.688230	0.525548
N116	N	1.346773	-0.188230	1.025548
N117	N	0.114157	-0.151217	0.623565
N118	N	0.614157	0.348783	1.123565
O119	O	-0.033591	0.046803	0.617717
O120	O	0.466409	0.546803	1.117717
O121	O	0.129795	0.046806	0.497390
O122	O	0.629795	0.546806	0.997390
O123	O	0.026157	0.046789	0.497680
O124	O	0.526157	0.546789	0.997680
O125	O	0.070046	0.046819	0.617427
O126	O	0.570046	0.546819	1.117427
O127	O	0.060509	-0.056181	0.532004
O128	O	0.560509	0.443819	1.032004
O129	O	0.164146	-0.056164	0.531714
O130	O	0.664146	0.443836	1.031714
O131	O	0.000760	-0.056167	0.652041
O132	O	0.500760	0.443833	1.152041
Cu133	Cu	0.085590	-0.065568	0.595012
Cu134	Cu	0.585590	0.434432	1.095012
Cu135	Cu	0.044965	0.056206	0.554419
Cu136	Cu	0.544965	0.556206	1.054419
O137	O	0.104397	-0.056151	0.651751
O138	O	0.604397	0.443849	1.151751
N139	N	0.016390	0.141855	0.525867
N140	N	0.516390	0.641855	1.025867
N141	N	0.114410	-0.590756	1.062992
N142	N	0.614410	-0.090756	1.562992
O143	O	0.108565	-0.738494	1.260998
O144	O	0.608565	-0.238494	1.760998
O145	O	-0.011747	-0.575059	1.261012
O146	O	0.488253	-0.075059	1.761012
O147	O	-0.011470	-0.678679	1.260970
O148	O	0.488530	-0.178679	1.760970
O149	O	0.108287	-0.634874	1.261040
O150	O	0.608287	-0.134874	1.761040
O151	O	0.022849	-0.644347	1.158004
O152	O	0.522849	-0.144347	1.658004
O153	O	0.022572	-0.540726	1.158046
O154	O	0.522572	-0.040726	1.658046
O155	O	0.142884	-0.704162	1.158033
O156	O	0.642884	-0.204162	1.658033
Cu157	Cu	0.085861	-0.619309	1.148638
Cu158	Cu	0.585861	-0.119309	1.648638
Cu159	Cu	0.045275	-0.659911	1.270406
Cu160	Cu	0.545275	-0.159911	1.770406
O161	O	0.142606	-0.600541	1.158074
O162	O	0.642606	-0.100541	1.658074
N163	N	0.016726	-0.688471	1.356052
N164	N	0.516726	-0.188471	1.856052
C165	C	0.039385	-0.537207	0.498225
C166	C	0.539385	-0.037207	0.998225
C167	C	0.167616	-0.665350	0.498136
C168	C	0.667616	-0.165350	0.998136
C169	C	0.091204	-0.741950	0.651272
C170	C	0.591204	-0.241950	1.151272
C171	C	-0.037027	-0.613806	0.651361
C172	C	0.462973	-0.113806	1.151361
C173	C	0.700360	-0.716215	0.676756
C174	C	1.200360	-0.216215	1.176756
C175	C	0.700279	-0.715877	0.548436
C176	C	1.200279	-0.215877	1.048436
C177	C	0.700133	-0.562725	0.472214
C178	C	1.200133	-0.062725	0.972214
C179	C	0.700218	-0.563065	0.600533
C180	C	1.200218	-0.063065	1.100533
C181	C	0.167511	-0.004552	0.497940
C182	C	0.667511	0.495448	0.997940
C183	C	0.039211	-0.004699	0.498341
C184	C	0.539211	0.495301	0.998341
C185	C	-0.036999	-0.004682	0.651449
C186	C	0.463001	0.495318	1.151449
C187	C	0.091344	-0.004663	0.651090
C188	C	0.591344	0.495337	1.151090
C189	C	-0.011156	-0.537302	1.209530
C190	C	0.488844	-0.037302	1.709530
C191	C	-0.010806	-0.665617	1.209458
C192	C	0.489194	-0.165617	1.709458
C193	C	0.142293	-0.741918	1.209514
C194	C	0.642293	-0.241918	1.709514
C195	C	0.141950	-0.613596	1.209563
C196	C	0.641950	-0.113596	1.709563
H197	H	0.102355	-0.458618	0.810728
H198	H	0.602355	0.041382	1.310728
H199	H	0.179573	-0.604224	1.209577
H200	H	0.679573	-0.104224	1.709577
O201	O	-0.092978	-0.004596	0.696541
O202	O	0.407022	0.495404	1.196541
C203	C	-0.120378	0.048748	0.713138
C204	C	0.379622	0.548748	1.213138
H205	H	-0.082832	0.066531	0.700576
H206	H	0.417168	0.566531	1.200576
H207	H	-0.146283	0.036763	0.765105
H208	H	0.353717	0.536763	1.265105
H209	H	-0.154174	0.086086	0.687154
H210	H	0.345826	0.586086	1.187154
O211	O	0.304412	-0.556989	0.805488
O212	O	0.804412	-0.056989	1.305488
C213	C	0.320056	-0.502530	0.768012
C214	C	0.820056	-0.002530	1.268012
H215	H	0.277334	-0.461803	0.758319
H216	H	0.777334	0.038197	1.258319
H217	H	0.357625	-0.508323	0.722428
H218	H	0.857625	-0.008323	1.222428
H219	H	0.337861	-0.493429	0.792984
H220	H	0.837861	0.006571	1.292984
O221	O	0.147873	-0.408549	0.813672
O222	O	0.647873	0.091451	1.313672
C223	C	0.110345	-0.366057	0.846228
C224	C	0.610345	0.133943	1.346228
H225	H	0.118597	-0.319851	0.815323
H226	H	0.618597	0.180149	1.315323
H227	H	0.122514	-0.384792	0.889475
H228	H	0.622514	0.115208	1.389475
H229	H	0.059581	-0.359169	0.860213
H230	H	0.559581	0.140831	1.360213
O231	O	0.187282	-0.797957	1.209535
O232	O	0.687282	-0.297957	1.709535
C233	C	0.165005	-0.836471	1.209491
C234	C	0.665005	-0.336471	1.709491
H235	H	0.112272	-0.819696	1.228976
H236	H	0.612272	-0.319696	1.728976
H237	H	0.183989	-0.886071	1.239377
H238	H	0.683989	-0.386071	1.739377
H239	H	0.180742	-0.834789	1.160085
H240	H	0.680742	-0.334789	1.660085
O241	O	0.027995	-0.004604	0.453409
O242	O	0.527995	0.495396	0.953409
C243	C	0.034864	0.048712	0.401189
C244	C	0.534864	0.548712	0.901189
H245	H	0.028164	0.085996	0.415992
H246	H	0.528164	0.585996	0.915992
H247	H	-0.001217	0.066601	0.379241
H248	H	0.498783	0.566601	0.879241
H249	H	0.083196	0.036652	0.366108
H250	H	0.583196	0.536652	0.866108
O251	O	0.223665	-0.676482	0.453205
O252	O	0.723665	-0.176482	0.953205
C253	C	0.262126	-0.737324	0.475585
C254	C	0.762126	-0.237324	0.975585
H255	H	0.245319	-0.753716	0.528319
H256	H	0.745319	-0.253716	1.028319
H257	H	0.311736	-0.738114	0.456634
H258	H	0.811736	-0.238114	0.956634
H259	H	0.260426	-0.769339	0.459899
H260	H	0.760426	-0.269339	0.959899
O261	O	0.102662	-0.004692	0.695917
O262	O	0.602662	0.495308	1.195917
C263	C	0.163514	-0.004676	0.673358
C264	C	0.663514	0.495324	1.173358
H265	H	0.192791	-0.024164	0.633612
H266	H	0.692791	0.475836	1.133612
H267	H	0.184363	-0.034575	0.712127
H268	H	0.684363	0.465425	1.212127
H269	H	0.162597	0.044724	0.656093
H270	H	0.662597	0.544724	1.156093
H271	H	0.700208	-0.525435	0.609919
H272	H	1.200208	-0.025435	1.109919
O273	O	-0.055651	-0.676873	1.209463
O274	O	0.444349	-0.176873	1.709463
C275	C	-0.069907	-0.726996	1.262768
C276	C	0.430093	-0.226996	1.762768
H277	H	-0.029009	-0.756657	1.280590
H278	H	0.470991	-0.256657	1.780590
H279	H	-0.079780	-0.756229	1.250719
H280	H	0.420220	-0.256229	1.750719
H281	H	-0.112460	-0.708636	1.300098
H282	H	0.387540	-0.208636	1.800098
O283	O	0.700090	-0.517724	0.416198
O284	O	1.200090	-0.017724	0.916198
C285	C	0.700060	-0.540008	0.377674
C286	C	1.200060	-0.040008	0.877674
H287	H	0.719600	-0.592745	0.394416
H288	H	1.219600	-0.092745	0.894416
H289	H	0.729903	-0.520999	0.328072
H290	H	1.229903	-0.020999	0.828072
H291	H	0.650653	-0.524301	0.379383
H292	H	1.150653	-0.024301	0.879383
O293	O	0.223427	-0.004292	0.452835
O294	O	0.723427	0.495708	0.952835
C295	C	0.270326	-0.057506	0.473753
C296	C	0.770326	0.442494	0.973753
H297	H	0.253463	-0.075483	0.526523
H298	H	0.753463	0.424517	1.026523
H299	H	0.313382	-0.045274	0.455620
H300	H	0.813382	0.454726	0.955620
H301	H	0.282057	-0.094791	0.456032
H302	H	0.782057	0.405209	0.956032
O303	O	0.053200	-0.495295	0.933303
O304	O	0.553200	0.004705	1.433303
C305	C	0.020631	-0.457776	0.890817
C306	C	0.520631	0.042224	1.390817
H307	H	0.051526	-0.434215	0.844613
H308	H	0.551526	0.065785	1.344613
H309	H	-0.022615	-0.421104	0.909556
H310	H	0.477385	0.078896	1.409556
H311	H	0.006647	-0.487670	0.883927
H312	H	0.506647	0.012330	1.383927
O313	O	0.261994	-0.599716	0.933226
O314	O	0.761994	-0.099716	1.433226
C315	C	0.322850	-0.608874	0.890705
C316	C	0.822850	-0.108874	1.390705
H317	H	0.322707	-0.601629	0.844510
H318	H	0.822707	-0.101629	1.344510
H319	H	0.353644	-0.658029	0.909413
H320	H	0.853644	-0.158029	1.409413
H321	H	0.341408	-0.574372	0.883807
H322	H	0.841408	-0.074372	1.383807
O323	O	-0.056162	-0.481280	1.209561
O324	O	0.443838	0.018720	1.709561
C325	C	-0.033874	-0.442755	1.209569
C326	C	0.466126	0.057245	1.709569
H327	H	0.005866	-0.472532	1.229073
H328	H	0.505866	0.027468	1.729073
H329	H	-0.072782	-0.413091	1.239466
H330	H	0.427218	0.086909	1.739466
H331	H	-0.016684	-0.411490	1.160177
H332	H	0.483316	0.088510	1.660177
H333	H	0.419022	-0.640939	0.704632
H334	H	0.919022	-0.140939	1.204632
O335	O	0.102411	-0.798033	0.696154
O336	O	0.602411	-0.298033	1.196154
C337	C	0.163258	-0.836435	0.673704
C338	C	0.663258	-0.336435	1.173704
H339	H	0.179595	-0.819565	0.620970
H340	H	0.679595	-0.319565	1.120970
H341	H	0.164097	-0.886059	0.692615
H342	H	0.664097	-0.386059	1.192615
H343	H	0.195285	-0.834732	0.689374
H344	H	0.695285	-0.334732	1.189374
H345	H	0.063121	-0.497793	0.716436
H346	H	0.563121	0.002207	1.216436
O347	O	0.095689	-0.452676	0.761406
O348	O	0.595689	0.047324	1.261406
C349	C	0.058185	-0.398320	0.728701
C350	C	0.558185	0.101680	1.228701
H351	H	0.083189	-0.389300	0.676845
H352	H	0.583189	0.110700	1.176845
H353	H	0.048386	-0.357497	0.740304
H354	H	0.548386	0.142503	1.240304
H355	H	0.012652	-0.404208	0.742507
H356	H	0.512652	0.095792	1.242507
O357	O	0.261770	-0.599554	0.614443
O358	O	0.761770	-0.099554	1.114443
C359	C	0.299222	-0.566815	0.560098
C360	C	0.799222	-0.066815	1.060098
H361	H	0.274173	-0.514963	0.551105
H362	H	0.774173	-0.014963	1.051105
H363	H	0.309017	-0.578400	0.519263
H364	H	0.809017	-0.078400	1.019263
H365	H	0.344759	-0.580609	0.565982
H366	H	0.844759	-0.080609	1.065982
O367	O	0.304337	-0.556951	0.657046
O368	O	0.804337	-0.056951	1.157046
C369	C	0.319962	-0.502483	0.624444
C370	C	0.819962	-0.002483	1.124444
H371	H	0.283404	-0.463550	0.602526
H372	H	0.783404	0.036450	1.102526
H373	H	0.367002	-0.511008	0.586666
H374	H	0.867002	-0.011008	1.086666
H375	H	0.322116	-0.488845	0.657778
H376	H	0.822116	0.011155	1.157778
O377	O	-0.093006	-0.602704	0.696386
O378	O	0.406994	-0.102704	1.196386
C379	C	-0.104085	-0.552589	0.710672
C380	C	0.395915	-0.052589	1.210672
H381	H	-0.058116	-0.547620	0.696984
H382	H	0.441884	-0.047620	1.196984
H383	H	-0.129140	-0.561420	0.762499
H384	H	0.370860	-0.061420	1.262499
H385	H	-0.133959	-0.508206	0.684086
H386	H	0.366041	-0.008206	1.184086
H387	H	0.700405	-0.753994	0.723681
H388	H	1.200405	-0.253994	1.223681
H389	H	0.301449	-0.601745	0.743862
H390	H	0.801449	-0.101745	1.243862
H391	H	0.418982	-0.450689	0.632093
H392	H	0.918982	0.049311	1.132093
H393	H	0.246280	-0.403511	0.611604
H394	H	0.746280	0.096489	1.111604
O395	O	0.296385	-0.401535	0.669760
O396	O	0.796385	0.098465	1.169760
C397	C	0.312181	-0.368095	0.605767
C398	C	0.812181	0.131905	1.105767
H399	H	0.359232	-0.396416	0.580239
H400	H	0.859232	0.103584	1.080239
H401	H	0.314396	-0.322405	0.597204
H402	H	0.814396	0.177595	1.097204
H403	H	0.275690	-0.358424	0.588113
H404	H	0.775690	0.141576	1.088113
O405	O	0.209395	-0.280800	0.562433
O406	O	0.709395	0.219200	1.062433
C407	C	0.154922	-0.243295	0.546792
C408	C	0.654922	0.256705	1.046792
H409	H	0.116003	-0.262835	0.583336
H410	H	0.616003	0.237165	1.083336
H411	H	0.163440	-0.242548	0.499741
H412	H	0.663440	0.257452	0.999741
H413	H	0.141276	-0.194177	0.544650
H414	H	0.641276	0.305823	1.044650
O415	O	0.105363	-0.280833	0.771064
O416	O	0.605363	0.219167	1.271064
C417	C	0.134804	-0.243319	0.761712
C418	C	0.634804	0.256681	1.261712
H419	H	0.186758	-0.262843	0.738180
H420	H	0.686758	0.237157	1.238180
H421	H	0.125792	-0.242580	0.808267
H422	H	0.625792	0.257420	1.308267
H423	H	0.115669	-0.194199	0.731129
H424	H	0.615669	0.305801	1.231129
H425	H	0.700298	-0.753510	0.539047
H426	H	1.200298	-0.253510	1.039047
O427	O	0.028158	-0.481143	0.453324
O428	O	0.528158	0.018857	0.953324
C429	C	-0.032679	-0.442731	0.475784
C430	C	0.467321	0.057269	0.975784
H431	H	-0.062020	-0.472602	0.515541
H432	H	0.437980	0.027398	1.015541
H433	H	-0.053464	-0.413049	0.436968
H434	H	0.446536	0.086951	0.936968
H435	H	-0.031746	-0.411481	0.493003
H436	H	0.468254	0.088519	0.993003
