data_functionalizedCrystal
_audit_creation_method	'MofGen! by Chris Wilmer'
_symmetry_space_group_name_H-M	'P1'
_symmetry_Int_Tables_number	1
_symmetry_cell_setting	triclinic
loop_
_symmetry_equiv_pos_as_xyz
  x,y,z
_cell_length_a	19.288864
_cell_length_b	10.654550
_cell_length_c	9.730223
_cell_angle_alpha	90.002963
_cell_angle_beta	90.015663
_cell_angle_gamma	83.810575
loop_
_atom_site_label
_atom_site_type_symbol
_atom_site_fract_x
_atom_site_fract_y
_atom_site_fract_z
O1	O	0.922371	0.156654	0.114728
O2	O	0.720249	0.177787	0.114633
O3	O	0.825957	-0.015618	0.114678
O4	O	0.816663	0.350059	0.114683
O5	O	0.825953	-0.015623	-0.113902
O6	O	0.720245	0.177782	-0.113947
O7	O	0.922367	0.156649	-0.113852
Zn8	Zn	0.821306	0.167215	-0.150191
Zn9	Zn	0.821311	0.167221	0.150973
O10	O	0.816659	0.350055	-0.113897
C11	C	0.694366	0.177105	0.000331
C12	C	0.617249	0.175063	0.000295
C13	C	0.573296	0.288545	0.000319
C14	C	0.500836	0.286627	0.000334
C15	C	0.472333	0.171222	0.000353
C16	C	0.516296	0.057725	0.000322
C17	C	0.588754	0.059646	0.000293
C18	C	0.363479	0.080502	0.080480
C19	C	0.291022	0.078586	0.080517
C20	C	0.248849	0.165292	0.000436
C21	C	0.279141	0.253936	-0.079664
C22	C	0.351599	0.255857	-0.079693
C23	C	0.393765	0.169126	0.000384
C24	C	0.126326	0.276702	0.000474
C25	C	0.053865	0.274779	0.000481
C26	C	0.069327	0.045875	0.000483
C27	C	0.141786	0.047800	0.000462
C28	C	0.170281	0.163217	0.000465
C29	C	0.825273	-0.062404	0.000389
C30	C	0.823231	-0.201803	0.000393
C31	C	0.885471	-0.282621	0.000418
C32	C	0.883548	-0.413601	0.000426
C33	C	0.757141	-0.382932	0.000380
C34	C	0.759065	-0.251955	0.000381
C35	C	0.958451	-0.300329	0.000439
C36	C	0.956528	-0.431309	0.000448
C37	C	0.948250	0.157332	0.000453
C38	C	1.025367	0.159373	0.000498
C39	C	0.817343	0.396840	0.000395
C40	C	0.819385	0.536240	0.000400
N41	N	0.821307	0.167210	-0.355728
C42	C	0.778824	0.091236	-0.427698
C43	C	0.778825	0.091242	-0.571581
C44	C	0.863800	0.243199	-0.571511
C45	C	0.863794	0.243199	-0.427630
C46	C	0.729767	0.003501	-0.427740
C47	C	0.729768	0.003507	-0.571623
N48	N	0.821315	0.167216	0.356509
H49	H	0.244805	0.324540	-0.144875
C50	C	0.659071	0.058138	-0.631962
H51	H	0.627590	0.082482	-0.559269
H52	H	0.665340	0.129701	-0.686964
H53	H	0.640654	-0.004136	-0.686864
H54	H	0.898390	0.305068	-0.630071
C55	C	0.989847	-0.252866	-0.132865
H56	H	1.002501	-0.322365	-0.192226
H57	H	0.956371	-0.194543	-0.177177
H58	H	1.030051	-0.212425	-0.111428
C59	C	0.655767	0.046787	-0.375031
H60	H	0.625338	0.064602	-0.450991
H61	H	0.639592	-0.018235	-0.320809
H62	H	0.656719	0.120722	-0.320789
H63	H	0.397810	0.009892	0.145699
C64	C	0.993661	-0.488528	-0.128764
H65	H	1.010231	-0.423177	-0.181917
H66	H	1.031845	-0.547338	-0.102187
H67	H	0.961805	-0.530352	-0.181918
H68	H	0.746872	-0.095900	-0.610668
H69	H	0.266364	0.006411	0.145745
C70	C	0.604637	0.415498	0.000296
H71	H	0.568078	0.482809	0.000298
H72	H	0.632604	0.421015	0.079990
H73	H	0.632558	0.420999	-0.079442
C74	C	0.452479	0.411461	0.000381
H75	H	0.479828	0.480472	0.000389
H76	H	0.423867	0.415482	-0.079311
H77	H	0.423918	0.415450	0.080121
C78	C	0.037985	-0.081073	0.000497
H79	H	0.074544	-0.148385	0.000474
H80	H	0.010057	-0.086583	0.080215
H81	H	0.010025	-0.086578	-0.079217
H82	H	0.898382	0.305075	-0.369038
H83	H	0.751628	-0.091529	-0.383103
C84	C	0.686564	-0.438104	0.000355
H85	H	0.694331	-0.527684	0.000351
H86	H	0.660911	-0.410331	0.080053
H87	H	0.660910	-0.410344	-0.079379
C88	C	0.384922	0.353346	-0.167803
H89	H	0.434114	0.342072	-0.156340
H90	H	0.373772	0.341993	-0.261770
H91	H	0.367445	0.436122	-0.139636
H92	H	0.177574	-0.044609	0.000451
C93	C	0.484949	-0.069220	0.000346
H94	H	0.521507	-0.136534	0.000318
H95	H	0.457024	-0.074728	0.080069
H96	H	0.456985	-0.074726	-0.079363
C97	C	0.157677	0.403649	0.000460
H98	H	0.207126	0.388541	0.000458
H99	H	0.142611	0.450357	-0.079248
H100	H	0.142643	0.450360	0.080184
C101	C	0.005516	0.399616	0.000507
H102	H	0.032867	0.468623	0.000517
H103	H	-0.023090	0.403632	-0.079194
H104	H	-0.023052	0.403616	0.080238
C105	C	0.637108	-0.065185	0.000278
H106	H	0.684343	-0.047511	0.000253
H107	H	0.628426	-0.112526	0.079990
H108	H	0.628393	-0.112523	-0.079442
H109	H	0.986997	-0.271580	0.096106
C110	C	0.690602	-0.163059	0.000362
H111	H	0.652113	-0.211689	0.000342
H112	H	0.688729	-0.111322	0.080071
H113	H	0.688720	-0.111333	-0.079361
H114	H	0.978585	-0.477422	0.099152
