data_functionalizedCrystal
_audit_creation_method	'MofGen! by Chris Wilmer'
_symmetry_space_group_name_H-M	'P1'
_symmetry_Int_Tables_number	1
_symmetry_cell_setting	triclinic
loop_
_symmetry_equiv_pos_as_xyz
  x,y,z
_cell_length_a	21.606444
_cell_length_b	21.606444
_cell_length_c	21.606444
_cell_angle_alpha	89.999821
_cell_angle_beta	120.001660
_cell_angle_gamma	119.986706
loop_
_atom_site_label
_atom_site_type_symbol
_atom_site_fract_x
_atom_site_fract_y
_atom_site_fract_z
Zr1	Zr	-0.677328	0.596430	-0.081151
O2	O	-0.806425	0.497644	-0.179967
O3	O	-0.548232	0.626688	-0.050867
O4	O	-0.677330	0.626726	-0.179977
O5	O	-0.677325	0.497605	0.050996
O6	O	-0.677330	0.728578	-0.179975
O7	O	-0.677327	0.497606	-0.050857
O8	O	-0.446397	0.728510	0.050978
O9	O	-0.908258	0.497673	-0.179958
O10	O	-0.601330	0.715635	-0.037940
O11	O	-0.601328	0.639623	0.038070
O12	O	-0.753325	0.639668	-0.113940
O13	O	-0.753323	0.563657	-0.037929
Zr14	Zr	-0.677324	0.758872	0.081295
Zr15	Zr	-0.677328	0.758873	-0.081149
Zr16	Zr	-0.677324	0.596429	0.081293
Zr17	Zr	-0.839739	0.596477	-0.081137
Zr18	Zr	-0.514912	0.758825	0.081280
O19	O	-0.806420	0.728614	0.051011
O20	O	-0.806425	0.728615	-0.179963
O21	O	-0.806420	0.497642	0.051007
O22	O	-0.548226	0.857658	0.180111
O23	O	-0.548231	0.857660	-0.050864
O24	O	-0.548226	0.626687	0.180107
O25	O	-0.677327	0.857697	-0.050852
O26	O	-0.677321	0.728576	0.180121
O27	O	-0.677321	0.626724	0.180119
O28	O	-0.677324	0.857697	0.051001
O29	O	-0.908258	0.626793	-0.179956
O30	O	-0.446393	0.728509	0.180100
O31	O	-0.446393	0.857629	0.180102
O32	O	-0.446396	0.857630	0.050980
O33	O	-0.908255	0.497672	-0.050836
O34	O	-0.908255	0.626792	-0.050834
O35	O	-0.601326	0.715634	0.114083
O36	O	-0.601328	0.791645	0.038073
O37	O	-0.753323	0.715679	-0.037926
O38	O	-0.753321	0.639667	0.038084
C39	C	-0.474174	0.677592	0.000054
C40	C	-0.405226	0.677572	0.000047
C41	C	0.074230	0.733773	0.056194
C42	C	0.009424	0.733759	0.056187
C43	C	-0.079064	0.677656	0.000075
C44	C	-0.102746	0.621566	-0.056038
C45	C	-0.037941	0.621583	-0.056034
C46	C	-0.364102	0.621496	-0.056059
C47	C	-0.428908	0.621482	-0.056058
C48	C	-0.316737	0.733672	0.056162
C49	C	-0.251932	0.733689	0.056166
C50	C	-0.275619	0.677603	0.000051
C51	C	-0.205348	0.677619	0.000059
C52	C	-0.149335	0.677636	0.000070
C53	C	-0.677326	0.474461	0.000069
C54	C	-0.677326	0.405500	0.000068
C55	C	0.119516	0.677699	0.000088
C56	C	0.050548	0.677686	0.000087
C57	C	-0.677330	0.373102	-0.056046
C58	C	-0.677325	0.308308	-0.056043
C59	C	-0.677323	0.275910	0.000071
C60	C	-0.677317	0.308314	0.056190
C61	C	-0.677315	0.373110	0.056190
C62	C	-0.677323	0.047000	0.056193
C63	C	-0.677328	-0.017802	0.056187
C64	C	-0.677334	-0.017802	-0.056040
C65	C	-0.677332	0.046994	-0.056041
C66	C	-0.677321	0.079395	0.000081
C67	C	-0.677324	0.149652	0.000078
C68	C	-0.677327	0.205650	0.000071
C69	C	-0.677331	0.677652	-0.203121
C70	C	-0.677332	0.677653	-0.272082
C71	C	-0.677325	0.880841	0.000075
C72	C	-0.677325	0.949802	0.000076
C73	C	-0.677334	0.733764	-0.304480
C74	C	-0.677328	0.733766	-0.369273
C75	C	-0.677326	0.677654	-0.401670
C76	C	-0.677322	0.621540	-0.369267
C77	C	-0.677322	0.621541	-0.304472
C78	C	-0.677321	0.621533	-0.630577
C79	C	-0.677324	0.621535	-0.695378
C80	C	-0.677327	0.733758	-0.695378
C81	C	-0.677327	0.733759	-0.630583
C82	C	-0.677318	0.677648	-0.598183
C83	C	-0.677323	0.677647	-0.527926
C84	C	-0.677327	0.677651	-0.471929
C85	C	-0.677321	0.677650	0.203265
C86	C	-0.677319	0.677649	0.272226
C87	C	-0.474174	0.880783	0.000057
C88	C	-0.405226	0.949724	0.000051
C89	C	-0.474169	0.677591	0.203246
C90	C	-0.405220	0.677571	0.272202
C91	C	-0.474169	0.880781	0.203249
C92	C	-0.405219	0.949722	0.272206
C93	C	-0.880482	0.474521	-0.203105
C94	C	-0.949432	0.405580	-0.272062
C95	C	-0.880478	0.474519	0.000087
C96	C	-0.949425	0.405578	0.000092
C97	C	-0.880482	0.677711	-0.203102
C98	C	-0.949432	0.677731	-0.272058
C99	C	-0.372848	0.942422	-0.039636
C100	C	-0.308073	1.007194	-0.039656
C101	C	-0.275673	1.079265	0.000016
C102	C	-0.308057	1.086565	0.039705
C103	C	-0.372835	1.021795	0.039720
C104	C	-0.372839	0.717238	0.344269
C105	C	-0.308063	0.717216	0.409066
C106	C	-0.275664	0.677531	0.401794
C107	C	-0.308051	0.637859	0.329720
C108	C	-0.372830	0.637877	0.264924
C109	C	-0.372841	1.021781	0.264912
C110	C	-0.308064	1.086565	0.329698
C111	C	-0.275663	1.079287	0.401777
C112	C	-0.308048	1.007220	0.409069
C113	C	-0.372828	0.942438	0.344284
C114	C	-0.981818	0.333521	-0.264768
C115	C	-1.046615	0.268738	-0.329554
C116	C	-1.079019	0.276015	-0.401633
C117	C	-1.046630	0.348082	-0.408925
C118	C	-0.981839	0.412864	-0.344140
C119	C	-0.981810	0.412880	0.039773
C120	C	-1.046603	0.348108	0.039775
C121	C	-1.079005	0.276037	0.000101
C122	C	-1.046618	0.268737	-0.039585
C123	C	-0.981831	0.333507	-0.039591
C124	C	-0.981810	0.717424	-0.264762
C125	C	-1.046587	0.717458	-0.329547
C126	C	-1.078988	0.677794	-0.401627
C127	C	-1.046603	0.638100	-0.408921
C128	C	-0.981823	0.638071	-0.344137
H129	H	-0.174800	0.575888	-0.101728
H130	H	-1.072961	0.354067	0.072095
H131	H	-0.222915	1.132042	0.454523
H132	H	-0.281667	1.145255	0.072004
C133	C	-1.013680	0.623365	-0.496547
C134	C	-1.082230	0.594502	-0.488157
H135	H	-1.035682	0.596449	-0.545467
H136	H	-0.970476	0.617657	-0.459021
H137	H	-0.988404	0.675560	-0.490854
H138	H	-1.107502	0.542308	-0.493844
H139	H	-1.125449	0.600203	-0.525694
H140	H	-0.297456	0.779343	0.101851
C141	C	-0.602486	0.866821	-0.247141
C142	C	-0.677318	0.795463	-0.268878
H143	H	-0.602468	0.904917	-0.225161
H144	H	-0.602497	0.874826	-0.290371
H145	H	-0.551741	0.869117	-0.211139
H146	H	-0.728063	0.793165	-0.304884
H147	H	-0.677314	0.787456	-0.225642
C148	C	-1.171785	0.226482	0.043334
C149	C	-1.150214	0.204844	0.000119
H150	H	-1.215741	0.182532	0.043352
H151	H	-1.193018	0.255795	0.022087
H152	H	-1.121226	0.255785	0.093877
H153	H	-1.200773	0.175546	-0.050425
H154	H	-1.128984	0.175519	0.021364
H155	H	-0.677328	0.281930	-0.101735
H156	H	0.028715	0.779432	0.101873
C157	C	-0.602510	0.836280	-0.404720
C158	C	-0.677334	0.795445	-0.404882
H159	H	-0.602513	0.874363	-0.426698
H160	H	-0.602511	0.802868	-0.433290
H161	H	-0.551760	0.859312	-0.354059
H162	H	-0.728085	0.772408	-0.455544
H163	H	-0.677341	0.828862	-0.376313
H164	H	-0.955432	0.471558	0.072086
H165	H	-1.073011	0.210047	-0.071886
H166	H	-0.500963	0.575791	-0.101751
C167	C	-1.066578	0.321135	-0.527795
C168	C	-1.082261	0.356018	-0.488183
H169	H	-1.088573	0.326021	-0.576731
H170	H	-1.095115	0.268968	-0.532662
H171	H	-1.005409	0.344771	-0.500859
H172	H	-1.143431	0.332378	-0.515115
H173	H	-1.053727	0.408195	-0.483318
H174	H	-0.955468	0.605745	-0.350088
C175	C	-0.602502	0.866818	-0.677908
C176	C	-0.677321	0.795446	-0.730986
H177	H	-0.602503	0.904899	-0.699890
H178	H	-0.551754	0.869126	-0.663152
H179	H	-0.602516	0.874837	-0.634688
H180	H	-0.677304	0.787425	-0.774204
H181	H	-0.728082	0.793137	-0.745752
H182	H	-0.281714	1.001235	-0.071975
C183	C	-0.988351	0.248534	-0.118014
C184	C	-0.946228	0.325474	-0.083201
H185	H	-0.966368	0.243572	-0.144934
H186	H	-1.049504	0.224939	-0.152256
H187	H	-0.977736	0.224915	-0.080457
H188	H	-0.956849	0.349092	-0.120758
H189	H	-0.885061	0.349078	-0.048955
H190	H	-0.955439	0.749723	-0.206077
C191	C	-1.145924	0.134196	-0.393606
C192	C	-1.082205	0.189527	-0.321527
H193	H	-1.167897	0.085297	-0.388647
H194	H	-1.120665	0.139863	-0.420536
H195	H	-1.192432	0.139895	-0.420514
H196	H	-1.035693	0.183832	-0.294621
H197	H	-1.107463	0.183857	-0.294586
H198	H	-0.222926	1.132000	-0.000002
C199	C	-1.118878	0.752342	-0.472816
C200	C	-1.150200	0.677827	-0.472834
H201	H	-1.162845	0.752361	-0.516772
H202	H	-1.068348	0.773557	-0.472829
H203	H	-1.104212	0.781638	-0.428836
H204	H	-1.164860	0.648532	-0.516810
H205	H	-1.200746	0.656601	-0.472827
C206	C	-0.602257	0.836356	-0.520309
C207	C	-0.677155	0.795560	-0.594945
H208	H	-0.602103	0.874543	-0.498300
H209	H	-0.551563	0.859247	-0.520281
H210	H	-0.602320	0.802944	-0.491727
H211	H	-0.677090	0.828971	-0.623529
H212	H	-0.727863	0.772668	-0.594977
H213	H	-0.057229	0.575913	-0.101723
H214	H	-0.399189	1.027750	0.072042
C215	C	-0.988360	0.484768	-0.429115
C216	C	-0.946234	0.492071	-0.352166
H217	H	-0.966376	0.533667	-0.434072
H218	H	-1.049512	0.457871	-0.452722
H219	H	-0.977748	0.457823	-0.452734
H220	H	-0.956851	0.519011	-0.328548
H221	H	-0.885067	0.518980	-0.328549
C222	C	-0.366355	0.795649	0.429221
C223	C	-0.408457	0.760851	0.352275
H224	H	-0.388351	0.822565	0.434166
H225	H	-0.305201	0.829884	0.452841
H226	H	-0.376974	0.758092	0.452835
H227	H	-0.397833	0.798408	0.328662
H228	H	-0.469626	0.726612	0.328646
H229	H	-0.399182	0.883767	0.350234
C230	C	0.178593	0.844671	0.167119
C231	C	0.171497	0.795444	0.117876
H232	H	0.238642	0.882748	0.205196
H233	H	0.150995	0.816949	0.190163
H234	H	0.150968	0.867711	0.139393
H235	H	0.199117	0.772400	0.145601
H236	H	0.199107	0.823170	0.094830
C237	C	-0.340976	0.959574	0.496693
C238	C	-0.272424	0.999234	0.488306
H239	H	-0.318976	0.954652	0.545613
H240	H	-0.384179	0.910680	0.459167
H241	H	-0.366253	0.986503	0.490997
H242	H	-0.247151	0.972302	0.493996
H243	H	-0.229206	1.048137	0.525841
H244	H	-0.179882	0.779373	0.101861
H245	H	-0.281701	0.749524	0.467746
C246	C	-0.602505	0.430448	-0.114288
C247	C	-0.677329	0.408713	-0.117727
H248	H	-0.602501	0.452436	-0.152364
H249	H	-0.602513	0.387223	-0.122319
H250	H	-0.551755	0.466435	-0.065848
H251	H	-0.728079	0.372722	-0.166165
H252	H	-0.677329	0.451944	-0.109701
C253	C	-0.481498	0.510591	-0.166978
C254	C	-0.390144	0.559840	-0.117733
H255	H	-0.497573	0.472523	-0.205051
H256	H	-0.504451	0.538299	-0.190027
H257	H	-0.504423	0.487542	-0.139252
H258	H	-0.367219	0.582894	-0.145458
H259	H	-0.367182	0.532128	-0.094682
C260	C	-0.677327	0.040489	-0.166972
C261	C	-0.677330	0.082607	-0.117720
H262	H	-0.677317	0.062480	-0.205046
H263	H	-0.728083	-0.010147	-0.190019
H264	H	-0.626568	0.040583	-0.139251
H265	H	-0.728092	0.082509	-0.145440
H266	H	-0.626569	0.133257	-0.094672
C267	C	-0.182314	1.205449	0.356514
C268	C	-0.272474	1.165779	0.321680
H269	H	-0.160346	1.254353	0.351569
H270	H	-0.171691	1.178529	0.332890
H271	H	-0.153761	1.210378	0.408712
H272	H	-0.301029	1.160844	0.269481
H273	H	-0.283104	1.192705	0.345302
H274	H	-1.072948	0.749781	-0.323593
H275	H	-1.131776	0.223260	-0.454379
C276	C	-0.677326	-0.117123	-0.105876
C277	C	-0.677332	-0.053412	-0.117725
H278	H	-0.677321	-0.139102	-0.143955
H279	H	-0.728078	-0.153106	-0.108201
H280	H	-0.626563	-0.102364	-0.057439
H281	H	-0.728098	-0.068171	-0.166160
H282	H	-0.626575	-0.017422	-0.115407
H283	H	-0.955438	0.327581	-0.206083
H284	H	-0.677325	-0.044178	0.101885
H285	H	-0.677317	0.073374	0.101888
H286	H	-0.677310	0.281935	0.101883
H287	H	-0.677310	0.399488	0.101884
C288	C	-0.208704	0.602638	0.393833
C289	C	-0.272412	0.594258	0.321735
H290	H	-0.186692	0.575731	0.388903
H291	H	-0.233988	0.583036	0.420741
H292	H	-0.162220	0.654832	0.420745
H293	H	-0.318899	0.542064	0.294824
H294	H	-0.247129	0.613857	0.294816
C295	C	-0.677295	0.510610	-0.688861
C296	C	-0.677310	0.559857	-0.730985
H297	H	-0.677281	0.472539	-0.710841
H298	H	-0.728049	0.487569	-0.688968
H299	H	-0.626535	0.538323	-0.638206
H300	H	-0.728074	0.532145	-0.781639
H301	H	-0.626551	0.582899	-0.730886
C302	C	-0.752154	0.519026	-0.595140
C303	C	-0.677331	0.559846	-0.594981
H304	H	-0.752159	0.480942	-0.573161
H305	H	-0.802899	0.496002	-0.645793
H306	H	-0.752139	0.552451	-0.566562
H307	H	-0.677349	0.526421	-0.623563
H308	H	-0.626572	0.582870	-0.544319
H309	H	-0.222916	0.677522	0.454561
H310	H	-0.677315	0.575854	-0.395646
C311	C	-0.366279	0.559454	0.193020
C312	C	-0.408408	0.594281	0.185708
H313	H	-0.388238	0.532543	0.144115
H314	H	-0.376911	0.525209	0.219936
H315	H	-0.305116	0.596994	0.219956
H316	H	-0.469570	0.556741	0.158776
H317	H	-0.397783	0.628529	0.158780
H318	H	-0.677319	0.575851	-0.278094
H319	H	-0.399228	0.883744	-0.071951
H320	H	-0.399212	1.027721	0.206227
