data_functionalizedCrystal
_audit_creation_method	'MofGen! by Chris Wilmer'
_symmetry_space_group_name_H-M	'P1'
_symmetry_Int_Tables_number	1
_symmetry_cell_setting	triclinic
loop_
_symmetry_equiv_pos_as_xyz
  x,y,z
_cell_length_a	10.654562
_cell_length_b	13.339070
_cell_length_c	9.730223
_cell_angle_alpha	90.000235
_cell_angle_beta	89.996961
_cell_angle_gamma	100.059699
loop_
_atom_site_label
_atom_site_type_symbol
_atom_site_fract_x
_atom_site_fract_y
_atom_site_fract_z
O1	O	1.715938	0.142493	-0.114378
O2	O	1.355039	0.156050	-0.114361
O3	O	1.494069	0.001716	-0.114363
O4	O	1.576908	0.296827	-0.114375
O5	O	1.494068	0.001720	0.114217
O6	O	1.355038	0.156054	0.114219
O7	O	1.715937	0.142497	0.114202
Zn8	Zn	1.535487	0.149276	0.150503
Zn9	Zn	1.535489	0.149271	-0.150661
O10	O	1.576907	0.296831	0.114205
C11	C	1.307904	0.155054	-0.000068
C12	C	1.167453	0.152068	-0.000062
C13	C	1.101452	0.150677	0.124526
C14	C	0.969485	0.147879	0.124504
C15	C	0.969533	0.147867	-0.124707
C16	C	1.101496	0.150658	-0.124682
C17	C	1.101423	0.150688	0.268406
C18	C	0.969456	0.147890	0.268384
C19	C	1.480075	-0.036070	-0.000074
C20	C	1.438365	-0.148666	-0.000078
C21	C	1.762682	-0.511172	-0.000093
C22	C	1.801874	-0.405382	-0.000082
C23	C	1.711000	-0.341198	-0.000081
C24	C	1.580927	-0.382813	-0.000091
C25	C	1.541730	-0.488613	-0.000091
C26	C	1.490049	-0.318640	-0.000080
C27	C	1.359976	-0.360255	-0.000089
C28	C	1.320785	-0.466044	-0.000091
C29	C	1.411660	-0.530228	-0.000091
C30	C	1.529246	-0.212840	-0.000079
C31	C	1.308294	-0.190281	-0.000078
C32	C	1.269102	-0.296070	-0.000089
C33	C	1.763072	0.143493	-0.000093
C34	C	1.903523	0.146479	-0.000109
C35	C	1.590901	0.334617	-0.000087
C36	C	1.632611	0.447213	-0.000093
N37	N	1.535496	0.149279	0.356039
N38	N	1.535488	0.149260	-0.356198
C39	C	1.597088	0.080963	0.427964
C40	C	1.597080	0.080951	0.571847
C41	C	1.473887	0.217579	0.571867
C42	C	1.473888	0.217586	0.427987
C43	C	1.668217	0.002085	0.427953
C44	C	1.668210	0.002073	0.571836
H45	H	1.155227	0.151774	-0.226134
H46	H	1.423727	0.273192	0.630463
C47	C	1.406255	0.292816	0.348875
N48	N	1.355360	0.349514	0.289288
C49	C	0.895742	0.047985	0.328723
N50	N	0.840219	-0.027260	0.374174
H51	H	1.214871	-0.499923	-0.000088
H52	H	1.767741	0.026787	0.383322
H53	H	1.635152	-0.178968	-0.000071
H54	H	0.946835	0.217977	0.323616
H55	H	1.742919	-0.255061	-0.000072
H56	H	0.915815	0.146720	-0.226168
C57	C	1.126023	-0.341861	-0.000080
N58	N	1.018256	-0.376352	-0.000068
H59	H	1.907780	-0.371507	-0.000072
C60	C	1.603686	-0.103214	0.375192
N61	N	1.555078	-0.182523	0.335453
H62	H	1.836657	-0.563439	-0.000082
C63	C	1.175119	0.250600	0.328729
N64	N	1.230628	0.325854	0.374166
C65	C	1.593376	-0.097432	0.632123
N66	N	1.537004	-0.172374	0.677533
H67	H	1.770589	0.019451	0.610882
C68	C	1.368553	-0.646604	-0.000087
N69	N	1.336089	-0.734261	-0.000077
H70	H	1.234297	-0.138022	-0.000071
C71	C	1.131955	0.056009	0.343046
N72	N	1.154951	-0.015303	0.399260
