data_functionalizedCrystal
_audit_creation_method	'MofGen! by Chris Wilmer'
_symmetry_space_group_name_H-M	'P1'
_symmetry_Int_Tables_number	1
_symmetry_cell_setting	triclinic
loop_
_symmetry_equiv_pos_as_xyz
  x,y,z
_cell_length_a	16.109301
_cell_length_b	16.109304
_cell_length_c	14.586319
_cell_angle_alpha	90.000282
_cell_angle_beta	89.998857
_cell_angle_gamma	96.537896
loop_
_atom_site_label
_atom_site_type_symbol
_atom_site_fract_x
_atom_site_fract_y
_atom_site_fract_z
O1	O	1.103132	-0.106867	-0.076183
O2	O	0.861070	-0.120166	-0.076195
O3	O	0.988749	0.007514	-0.076191
O4	O	0.975452	-0.234547	-0.076187
O5	O	0.988740	0.007516	0.076290
O6	O	0.861061	-0.120164	0.076286
O7	O	1.103123	-0.106865	0.076298
Cu8	Cu	0.982091	-0.113514	0.090215
Cu9	Cu	0.982102	-0.113517	-0.090111
O10	O	0.975444	-0.234545	0.076294
C11	C	0.830091	-0.119626	0.000044
C12	C	0.737795	-0.118011	0.000039
C13	C	0.428798	-0.188494	0.000056
C14	C	0.515518	-0.190020	0.000051
C15	C	0.535390	-0.038531	0.000036
C16	C	0.448671	-0.037007	0.000035
C17	C	0.395377	-0.111991	0.000050
C18	C	0.568816	-0.115040	0.000046
C19	C	0.662842	-0.116694	0.000040
C20	C	0.301345	-0.110338	0.000054
C21	C	0.988206	0.038490	0.000047
C22	C	0.986590	0.130785	0.000040
C23	C	1.134102	-0.107405	0.000057
C24	C	1.226397	-0.109020	0.000056
N25	N	0.982090	-0.113512	0.217047
C26	C	0.982861	0.343122	-0.083077
C27	C	0.981335	0.429842	-0.083078
C28	C	0.981329	0.429841	0.083165
C29	C	0.982850	0.343122	0.083165
C30	C	0.983620	0.299765	0.000041
C31	C	0.980573	0.473204	0.000041
C32	C	0.978919	0.567230	0.000041
C33	C	0.985273	0.205733	0.000040
C34	C	0.975987	0.734479	0.000051
C35	C	0.977603	0.642184	0.000042
N36	N	0.982110	-0.113512	-0.216943
C37	C	1.038645	-0.056994	0.452055
C38	C	1.038647	-0.056992	0.548036
C39	C	0.925548	-0.170033	0.548042
C40	C	0.925543	-0.170030	0.452062
C41	C	0.982096	-0.113512	0.404071
C42	C	0.982104	-0.113513	0.596032
C43	C	0.982106	-0.113511	0.700099
C44	C	0.982093	-0.113512	0.299998
H45	H	0.578792	0.022518	0.000027
H46	H	0.542724	-0.252316	0.000055
C47	C	0.875318	-0.220218	0.304932
C48	C	0.863381	-0.232161	0.399310
H49	H	0.836939	-0.258570	0.272367
H50	H	0.930794	-0.229263	0.289205
H51	H	0.866301	-0.164724	0.289218
H52	H	0.872404	-0.287654	0.415026
H53	H	0.807892	-0.223123	0.415044
C54	C	0.362683	0.052586	-0.078365
C55	C	0.411931	0.047094	0.000025
H56	H	0.340006	0.104507	-0.078376
H57	H	0.318537	0.008154	-0.078354
H58	H	0.396112	0.048837	-0.131529
H59	H	0.378500	0.050837	0.053189
H60	H	0.456083	0.091539	0.000022
H61	H	0.385408	-0.249551	0.000067
H62	H	0.983486	0.307823	-0.150762
C63	C	0.982698	0.351825	0.247496
C64	C	0.983685	0.295457	0.174536
H65	H	0.983217	0.322397	0.303900
H66	H	0.933655	0.379295	0.244040
H67	H	1.030564	0.392004	0.244036
H68	H	0.935816	0.255282	0.177992
H69	H	1.032734	0.267974	0.177993
C70	C	0.981503	0.421128	-0.247399
C71	C	0.980505	0.477500	-0.174444
H72	H	0.980995	0.450552	-0.303806
H73	H	0.933646	0.380951	-0.243943
H74	H	1.030555	0.393659	-0.243931
H75	H	0.931450	0.504965	-0.177908
H76	H	1.028367	0.517692	-0.177901
H77	H	0.879505	-0.216050	0.587126
C78	C	0.979013	0.562778	0.156982
C79	C	0.980500	0.477504	0.174532
H80	H	0.978510	0.592201	0.213391
H81	H	0.930312	0.570636	0.122842
H82	H	1.027221	0.583331	0.122824
H83	H	0.932289	0.456949	0.208685
H84	H	1.029206	0.469641	0.208687
C85	C	1.150431	0.054748	0.461693
C86	C	1.100799	0.005137	0.399302
H87	H	1.188797	0.093110	0.429126
H88	H	1.180329	0.020131	0.499121
H89	H	1.115823	0.084657	0.499136
H90	H	1.135406	-0.024778	0.361864
H91	H	1.070899	0.039758	0.361859
H92	H	1.084694	-0.010970	0.587102
