data_functionalizedCrystal
_audit_creation_method	'MofGen! by Chris Wilmer'
_symmetry_space_group_name_H-M	'P1'
_symmetry_Int_Tables_number	1
_symmetry_cell_setting	triclinic
loop_
_symmetry_equiv_pos_as_xyz
  x,y,z
_cell_length_a	29.839135
_cell_length_b	29.839131
_cell_length_c	16.625539
_cell_angle_alpha	89.967906
_cell_angle_beta	89.976179
_cell_angle_gamma	90.043950
loop_
_atom_site_label
_atom_site_type_symbol
_atom_site_fract_x
_atom_site_fract_y
_atom_site_fract_z
Zn1	Zn	0.686757	-0.178822	-0.455958
Zn2	Zn	0.686678	-0.253953	-0.321116
Zn3	Zn	0.611628	-0.178841	-0.321131
Zn4	Zn	0.611587	-0.253929	-0.455899
O5	O	0.649163	-0.216386	-0.388526
O6	O	0.749613	-0.188790	-0.438090
O7	O	0.676707	-0.244007	-0.208286
O8	O	0.621645	-0.115972	-0.339047
O9	O	0.749555	-0.243989	-0.339022
O10	O	0.676841	-0.115958	-0.438104
O11	O	0.621568	-0.188823	-0.208297
O12	O	0.548756	-0.188800	-0.338989
O13	O	0.621574	-0.243948	-0.568739
O14	O	0.548726	-0.243967	-0.438003
O15	O	0.676801	-0.188767	-0.568783
O16	O	0.676667	-0.316817	-0.338965
O17	O	0.621498	-0.316800	-0.437988
C18	C	0.532440	-0.216383	-0.388492
C19	C	0.482506	-0.216392	-0.388496
C20	C	0.172889	-0.187688	-0.440186
C21	C	-0.014784	-0.187691	-0.440209
O22	O	-0.039025	-0.163276	-0.484120
N23	N	-0.038280	-0.216387	-0.388556
C24	C	-0.014854	-0.245082	-0.336889
O25	O	-0.039145	-0.269486	-0.292948
C26	C	0.172818	-0.245076	-0.336862
C27	C	0.196311	-0.216382	-0.388525
C28	C	0.196383	-0.158996	-0.491845
C29	C	0.243298	-0.158997	-0.491841
C30	C	0.266720	-0.187691	-0.440180
C31	C	0.243227	-0.216383	-0.388522
C32	C	0.196242	-0.273768	-0.285192
C33	C	0.243163	-0.273763	-0.285188
C34	C	0.266657	-0.245069	-0.336851
C35	C	0.313564	-0.245078	-0.336858
N36	N	0.337060	-0.216382	-0.388511
C37	C	0.313638	-0.187689	-0.440173
C38	C	-0.113385	-0.245083	-0.336907
C39	C	-0.160303	-0.245085	-0.336915
C40	C	-0.160229	-0.187694	-0.440235
C41	C	-0.113310	-0.187695	-0.440231
C42	C	-0.089889	-0.216388	-0.388561
C43	C	0.412164	-0.187694	-0.440163
C44	C	0.459083	-0.187699	-0.440157
C45	C	0.459006	-0.245088	-0.336835
C46	C	0.412090	-0.245085	-0.336843
C47	C	0.388670	-0.216384	-0.388509
O48	O	0.337835	-0.269477	-0.292963
O49	O	0.337937	-0.163281	-0.484094
C50	C	0.125974	-0.187687	-0.440190
C51	C	0.102480	-0.216379	-0.388531
C52	C	0.125902	-0.245073	-0.336870
C53	C	0.055563	-0.216381	-0.388539
C54	C	0.032141	-0.187688	-0.440200
C55	C	0.055636	-0.158992	-0.491854
C56	C	0.102552	-0.158993	-0.491851
C57	C	0.102407	-0.273768	-0.285216
C58	C	0.055491	-0.273765	-0.285224
C59	C	0.032069	-0.245072	-0.336886
C60	C	0.649081	-0.333109	-0.388486
C61	C	0.649088	-0.383043	-0.388496
C62	C	0.677941	-0.692683	-0.337040
C63	C	0.677997	-0.880356	-0.337071
O64	O	0.702464	-0.904618	-0.293290
N65	N	0.649256	-0.903828	-0.388587
C66	C	0.620501	-0.880379	-0.440102
O67	O	0.596060	-0.904650	-0.483926
C68	C	0.620448	-0.692707	-0.440074
C69	C	0.649188	-0.669238	-0.388549
C70	C	0.706679	-0.669214	-0.285519
C71	C	0.706663	-0.622298	-0.285509
C72	C	0.677909	-0.598852	-0.337019
C73	C	0.649172	-0.622322	-0.388539
C74	C	0.591696	-0.669259	-0.491593
C75	C	0.591686	-0.622338	-0.491583
C76	C	0.620426	-0.598868	-0.440058
C77	C	0.620402	-0.551961	-0.440038
N78	N	0.649143	-0.528489	-0.388523
C79	C	0.677897	-0.551935	-0.337013
C80	C	0.620530	-0.978910	-0.440112
C81	C	0.620543	-1.025828	-0.440118
C82	C	0.678039	-1.025801	-0.337088
C83	C	0.678024	-0.978883	-0.337078
C84	C	0.649271	-0.955438	-0.388596
C85	C	0.677861	-0.453409	-0.336994
C86	C	0.677841	-0.406489	-0.336986
C87	C	0.620347	-0.406520	-0.440019
C88	C	0.620365	-0.453435	-0.440025
C89	C	0.649125	-0.476879	-0.388510
O90	O	0.595951	-0.527670	-0.483803
O91	O	0.702342	-0.527656	-0.293208
C92	C	0.677957	-0.739599	-0.337050
C93	C	0.649219	-0.763068	-0.388570
C94	C	0.620466	-0.739623	-0.440080
C95	C	0.649232	-0.809986	-0.388576
C96	C	0.677985	-0.833432	-0.337067
C97	C	0.706726	-0.809960	-0.285551
C98	C	0.706711	-0.763044	-0.285540
C99	C	0.591725	-0.763095	-0.491596
C100	C	0.591743	-0.810010	-0.491602
C101	C	0.620496	-0.833456	-0.440092
C102	C	0.766341	-0.216390	-0.388561
C103	C	0.816275	-0.216392	-0.388576
C104	C	0.649192	-0.216353	-0.598835
C105	C	0.649204	-0.216339	-0.688456
C106	C	0.649256	-0.099208	-0.388584
C107	C	0.649296	-0.049274	-0.388608
C108	C	0.649225	-0.216288	-1.016632
C109	C	0.649218	-0.216304	-0.925324
C110	C	0.649215	-0.216314	-0.852547
C111	C	0.649207	-0.216329	-0.761233
C112	C	0.649159	-0.216387	-0.179035
C113	C	0.649234	-0.216275	-0.089415
H114	H	-0.094185	-0.164328	-0.482298
H115	H	0.568272	-0.603252	-0.533538
H116	H	-0.179307	-0.164331	-0.482300
H117	H	0.568291	-0.688360	-0.533547
H118	H	0.597115	-0.959824	-0.482065
H119	H	0.177317	-0.135628	-0.533914
O120	O	0.705965	-0.956037	-0.287143
C121	C	0.766633	-0.903035	-0.276390
C122	C	0.735009	-0.928868	-0.333033
H123	H	0.790129	-0.881070	-0.313470
H124	H	0.746042	-0.881074	-0.234201
H125	H	0.787163	-0.927865	-0.239559
H126	H	0.714473	-0.904070	-0.369916
H127	H	0.755626	-0.950835	-0.375169
O128	O	0.266047	-0.131076	-0.542045
C129	C	0.261151	-0.074165	-0.644545
C130	C	0.235336	-0.105760	-0.587720
H131	H	0.236332	-0.053695	-0.681500
H132	H	0.283109	-0.050617	-0.607637
H133	H	0.283126	-0.094820	-0.686609
H134	H	0.213336	-0.085141	-0.545645
H135	H	0.213406	-0.129309	-0.624678
H136	H	-0.179427	-0.268456	-0.294854
O137	O	0.592432	-0.476167	-0.490148
C138	C	0.535387	-0.471236	-0.592313
C139	C	0.567001	-0.445441	-0.535593
H140	H	0.514812	-0.446405	-0.629058
H141	H	0.555989	-0.493146	-0.634570
H142	H	0.511935	-0.493257	-0.555252
H143	H	0.590460	-0.423395	-0.572589
H144	H	0.546372	-0.423558	-0.493333
H145	H	0.568336	-0.829115	-0.533559
H146	H	0.262231	-0.297129	-0.243110
H147	H	0.121676	-0.135627	-0.533920
H148	H	0.730066	-0.603192	-0.243555
H149	H	0.036558	-0.135630	-0.533921
H150	H	0.596935	-0.387423	-0.481956
H151	H	0.701451	-1.044899	-0.295147
H152	H	0.036367	-0.297136	-0.243155
H153	H	0.478210	-0.164332	-0.482230
O154	O	-0.090706	-0.273002	-0.286689
C155	C	-0.095743	-0.329909	-0.184182
C156	C	-0.121479	-0.298319	-0.241022
H157	H	-0.120612	-0.350379	-0.147233
H158	H	-0.073797	-0.353457	-0.221078
H159	H	-0.073762	-0.309249	-0.142113
H160	H	-0.143485	-0.318943	-0.283102
H161	H	-0.143397	-0.274770	-0.204075
H162	H	0.177122	-0.297134	-0.243121
O163	O	0.734726	-0.832684	-0.235554
C164	C	0.811168	-0.846985	-0.196609
C165	C	0.779506	-0.821215	-0.253258
H166	H	0.847380	-0.837728	-0.210914
H167	H	0.803339	-0.837786	-0.131561
H168	H	0.806222	-0.884548	-0.205451
H169	H	0.784434	-0.783646	-0.244488
H170	H	0.787343	-0.830451	-0.318285
H171	H	0.392961	-0.268455	-0.294784
H172	H	0.730096	-0.688298	-0.243574
O173	O	0.592669	-1.048603	-0.490280
C174	C	0.570806	-1.062902	-0.627399
C175	C	0.602406	-1.037092	-0.570678
H176	H	0.578660	-1.053598	-0.692412
H177	H	0.575752	-1.100469	-0.618633
H178	H	0.534586	-1.053723	-0.613133
H179	H	0.638638	-1.046233	-0.584908
H180	H	0.597421	-0.999531	-0.579454
O181	O	0.481832	-0.272916	-0.286677
C182	C	0.554085	-0.298358	-0.240916
C183	C	0.528289	-0.266816	-0.297753
H184	H	0.591650	-0.293443	-0.249863
H185	H	0.544884	-0.290418	-0.175910
H186	H	0.544813	-0.334590	-0.254939
H187	H	0.537547	-0.230573	-0.283802
H188	H	0.537492	-0.274793	-0.362742
H189	H	0.121472	-0.297134	-0.243145
H190	H	0.393101	-0.164321	-0.482232
O191	O	0.563748	-0.740393	-0.541657
C192	C	0.506734	-0.745382	-0.643872
C193	C	0.538394	-0.771145	-0.587208
H194	H	0.486235	-0.770234	-0.680727
H195	H	0.483217	-0.723471	-0.606844
H196	H	0.527341	-0.723364	-0.686037
H197	H	0.517824	-0.793187	-0.545032
H198	H	0.561913	-0.793028	-0.624286
O199	O	0.705803	-0.383761	-0.286908
C200	C	0.762813	-0.388695	-0.184682
C201	C	0.731178	-0.414488	-0.241364
H202	H	0.783330	-0.413527	-0.147833
H203	H	0.786316	-0.366701	-0.221696
H204	H	0.742187	-0.366756	-0.142513
H205	H	0.751768	-0.436451	-0.283544
H206	H	0.707674	-0.436453	-0.204299
H207	H	0.701282	-0.472491	-0.295047
H208	H	0.730113	-0.743939	-0.243584
