data_functionalizedCrystal
_audit_creation_method	'MofGen! by Chris Wilmer'
_symmetry_space_group_name_H-M	'P1'
_symmetry_Int_Tables_number	1
_symmetry_cell_setting	triclinic
loop_
_symmetry_equiv_pos_as_xyz
  x,y,z
_cell_length_a	23.532407
_cell_length_b	14.185255
_cell_length_c	15.538191
_cell_angle_alpha	97.872362
_cell_angle_beta	114.939614
_cell_angle_gamma	103.079471
loop_
_atom_site_label
_atom_site_type_symbol
_atom_site_fract_x
_atom_site_fract_y
_atom_site_fract_z
O1	O	0.714622	-0.083293	-0.136062
O2	O	0.545383	-0.083322	-0.152647
O3	O	0.662945	-0.083306	-0.006917
O4	O	0.597059	-0.083308	-0.281793
O5	O	0.697682	0.083540	0.036133
O6	O	0.580120	0.083525	-0.109597
O7	O	0.749359	0.083554	-0.093012
Cu8	Cu	0.667911	0.098774	-0.097374
Cu9	Cu	0.626831	-0.098542	-0.148286
O10	O	0.631796	0.083539	-0.238742
C11	C	0.541620	0.000098	-0.130701
C12	C	0.478659	0.000087	-0.129435
N13	N	0.696809	0.237555	-0.061564
C14	C	0.781680	0.395092	0.043586
C15	C	0.759795	0.290063	0.016477
C16	C	0.655682	0.290065	-0.112523
C17	C	0.677557	0.395096	-0.085422
C18	C	0.740557	0.447602	-0.007367
C19	C	0.636433	0.447606	-0.136375
C20	C	0.658308	0.552628	-0.109278
C21	C	0.721306	0.605141	-0.031228
C22	C	0.762431	0.552624	0.019730
C23	C	0.573435	0.395099	-0.214434
C24	C	0.532312	0.447609	-0.265387
C25	C	0.554184	0.552633	-0.238286
C26	C	0.617183	0.605145	-0.160236
C27	C	0.513059	0.605150	-0.289244
C28	C	0.534934	0.710172	-0.262147
C29	C	0.639057	0.710168	-0.133140
C30	C	0.063651	0.000132	-0.207700
C31	C	0.004492	0.000138	-0.206520
O32	O	-0.046997	0.000174	-0.279074
N33	N	-0.000522	0.000137	-0.119885
C34	C	0.053631	0.000140	-0.034424
O35	O	0.043934	0.000140	0.039374
C36	C	0.112790	0.000141	-0.035604
C37	C	0.117797	0.000132	-0.122246
C38	C	0.068660	0.000124	-0.294335
C39	C	0.127815	0.000116	-0.295516
C40	C	0.181961	0.000116	-0.210062
C41	C	0.176952	0.000124	-0.123427
C42	C	0.166943	0.000151	0.049859
C43	C	0.226104	0.000153	0.048672
C44	C	0.231111	0.000144	-0.037970
C45	C	0.290253	0.000116	-0.039153
N46	N	0.295266	0.000117	-0.125787
C47	C	0.241120	0.000117	-0.211241
C48	C	-0.070609	0.000139	-0.031952
C49	C	-0.129769	0.000131	-0.030773
C50	C	-0.178903	0.000131	-0.202869
C51	C	-0.119744	0.000132	-0.204049
C52	C	-0.065596	0.000141	-0.118586
C53	C	0.365352	0.000099	-0.213715
C54	C	0.424513	0.000087	-0.214889
C55	C	0.473643	0.000092	-0.042792
C56	C	0.414486	0.000099	-0.041619
C57	C	0.360340	0.000106	-0.127087
O58	O	0.341770	0.000084	0.033364
O59	O	0.250830	0.000130	-0.285024
C60	C	0.753121	0.000132	-0.114959
C61	C	0.816081	0.000137	-0.116227
C62	C	0.687207	0.000115	0.049768
C63	C	0.707738	0.000108	0.154532
N64	N	0.597934	0.762677	-0.184093
C65	C	0.607535	0.000115	-0.295428
C66	C	0.587002	0.000115	-0.400193
C67	C	0.503745	0.000095	0.440410
C68	C	0.523055	0.000101	0.538858
C69	C	0.631663	0.000119	0.562322
C70	C	0.612362	0.000108	0.463873
C71	C	0.548402	0.000098	0.402925
C72	C	0.657019	0.000111	0.426387
C73	C	0.637720	0.000106	0.327948
C74	C	0.573764	0.000098	0.266994
C75	C	0.529103	0.000093	0.304485
C76	C	0.720979	0.000129	0.487339
C77	C	0.765636	0.000131	0.449853
C78	C	0.746336	0.000119	0.351410
C79	C	0.682380	0.000111	0.290457
C80	C	0.790997	0.000124	0.313920
C81	C	0.771698	0.000119	0.215480
C82	C	0.663081	0.000106	0.192018
H83	H	0.690356	0.752919	-0.069573
H84	H	0.558053	0.000100	0.186841
F85	F	0.848729	0.450975	0.126671
H86	H	0.736689	0.000124	0.567491
F87	F	-0.114421	0.000125	-0.296264
F88	F	0.595006	0.000085	0.127144
H89	H	0.808062	0.000122	0.184960
H90	H	0.683740	0.000131	0.611960
H91	H	0.817713	0.000144	0.499491
H92	H	-0.133841	0.000123	0.039775
H93	H	0.843075	0.000143	0.363560
F94	F	0.550159	0.283323	-0.243272
F95	F	0.475520	0.000104	0.578750
H96	H	0.739117	0.690657	-0.009170
H97	H	0.270192	0.000160	0.118268
F98	F	0.161626	0.000147	0.142073
F99	F	-0.012984	0.000139	0.059013
H100	H	0.813730	0.595376	0.083296
H101	H	0.410407	0.000092	0.028928
H102	H	0.024578	0.000128	-0.363926
H103	H	0.481017	0.404847	-0.328942
H104	H	0.793289	0.247315	0.057975
F105	F	0.446015	0.549259	-0.372322
F106	F	0.588635	0.234176	-0.195596
H107	H	0.501447	0.752926	-0.303640
H108	H	0.428583	0.000079	-0.285447
F109	F	0.307733	0.000107	-0.304679
F110	F	0.531278	0.000094	0.048150
F111	F	0.133136	0.000111	-0.387732
H112	H	-0.223000	0.000136	-0.272449
F113	F	0.461028	0.000072	0.239611
F114	F	0.435670	0.000074	0.375536
