data_functionalizedCrystal
_audit_creation_method	'MofGen! by Chris Wilmer'
_symmetry_space_group_name_H-M	'P1'
_symmetry_Int_Tables_number	1
_symmetry_cell_setting	triclinic
loop_
_symmetry_equiv_pos_as_xyz
  x,y,z
_cell_length_a	14.395555
_cell_length_b	14.628931
_cell_length_c	14.628931
_cell_angle_alpha	60.000000
_cell_angle_beta	90.001754
_cell_angle_gamma	59.999615
loop_
_atom_site_label
_atom_site_type_symbol
_atom_site_fract_x
_atom_site_fract_y
_atom_site_fract_z
Zr1	Zr	0.894916	1.000538	-0.119915
O2	O	0.746586	1.191250	-0.265884
O3	O	0.940387	0.809831	-0.075168
O4	O	0.940387	1.000536	-0.265873
O5	O	0.746585	1.000546	0.075253
O6	O	1.093261	1.000529	-0.265865
O7	O	0.746585	1.000545	-0.075178
O8	O	1.093260	0.659393	0.075272
O9	O	0.746586	1.341682	-0.265884
O10	O	1.073868	0.888265	-0.056078
O11	O	0.959780	0.888270	0.056182
O12	O	0.959780	1.112801	-0.168350
O13	O	0.845692	1.112806	-0.056090
Zr14	Zr	1.138732	1.000528	0.120019
Zr15	Zr	1.138732	1.000528	-0.119902
Zr16	Zr	0.894916	1.000539	0.120006
Zr17	Zr	0.894916	1.240460	-0.119916
Zr18	Zr	1.138732	0.760607	0.120019
O19	O	1.093261	1.191236	0.075271
O20	O	1.093262	1.191235	-0.265866
O21	O	0.746585	1.191251	0.075253
O22	O	1.287062	0.809816	0.265987
O23	O	1.287062	0.809815	-0.075150
O24	O	0.940386	0.809832	0.265969
O25	O	1.287063	1.000521	-0.075150
O26	O	1.093261	1.000531	0.265977
O27	O	0.940387	1.000537	0.265969
O28	O	1.287063	1.000522	0.075282
O29	O	0.940388	1.341673	-0.265874
O30	O	1.093260	0.659393	0.265977
O31	O	1.287062	0.659385	0.265988
O32	O	1.287062	0.659384	0.075282
O33	O	0.746586	1.341683	-0.075179
O34	O	0.940388	1.341674	-0.075169
O35	O	1.073868	0.888266	0.168453
O36	O	1.187956	0.888260	0.056194
O37	O	1.073868	1.112796	-0.056078
O38	O	0.959780	1.112802	0.056181
C39	C	1.016824	0.700428	0.000052
C40	C	1.016823	0.598575	0.000052
C41	C	1.073419	0.553163	-0.055636
C42	C	1.073420	0.447893	-0.055637
C43	C	0.711847	1.000547	0.000036
C44	C	0.608340	1.000551	0.000030
C45	C	0.485546	1.122978	-0.061175
C46	C	0.454710	1.061777	-0.105532
C47	C	0.454752	1.061748	0.044379
C48	C	0.578868	0.939349	-0.044388
C49	C	0.578907	0.939338	0.105581
C50	C	0.548145	0.878047	0.061251
C51	C	1.321801	1.000520	0.000068
C52	C	1.425308	1.000515	0.000073
C53	C	1.016824	1.000532	-0.300053
C54	C	1.016825	1.000532	-0.401906
C55	C	1.016824	1.300639	0.000051
C56	C	1.016825	1.402492	0.000051
C57	C	0.960229	1.111917	-0.503009
C58	C	0.960228	1.111919	-0.608281
C59	C	1.016824	1.000534	0.300157
C60	C	1.016823	1.000534	0.402009
C61	C	1.321801	0.700415	0.000068
C62	C	1.425307	0.598557	0.000074
C63	C	1.016823	0.700429	0.300157
C64	C	1.016823	0.598576	0.402010
C65	C	1.321800	0.700415	0.300173
C66	C	1.425307	0.598558	0.402031
C67	C	0.711848	1.300651	-0.300069
C68	C	0.608341	1.402508	-0.401928
C69	C	0.711847	1.300652	0.000035
C70	C	0.608341	1.402510	0.000030
C71	C	1.016825	1.300638	-0.300053
C72	C	1.016825	1.402490	-0.401906
C73	C	1.414858	0.553148	-0.055618
C74	C	1.521836	0.447873	-0.055614
C75	C	1.073418	0.553165	0.503113
C76	C	1.073419	0.447895	0.608385
C77	C	1.528048	0.553144	0.391755
C78	C	1.635029	0.447869	0.497029
H79	H	1.121877	0.592212	-0.103308
H80	H	1.416546	0.559505	0.488767
H81	H	0.460102	1.226502	-0.113014
Br82	Br	0.936047	0.467581	0.079512
H83	H	1.121874	0.408841	0.695118
Br84	Br	1.154173	0.382819	-0.135118
Br85	Br	1.477676	0.467536	0.612518
Br86	Br	1.097579	0.841578	-0.453435
H87	H	0.632421	0.887640	0.194808
Br88	Br	0.936049	0.533501	0.387623
Br89	Br	1.781930	0.382771	0.482644
Br90	Br	0.365510	1.148012	-0.254278
Br91	Br	1.542665	0.618243	0.247193
Br92	Br	1.572216	0.533472	0.079543
H93	H	0.968374	0.559517	0.047731
H94	H	0.632227	0.887643	-0.081979
Br95	Br	1.154168	0.618263	0.517500
Br96	Br	1.267949	0.618254	-0.135108
H97	H	0.573802	0.774439	0.113017
Br98	Br	0.365570	1.148026	0.106862
H99	H	1.513068	0.408818	-0.103289
H100	H	0.911782	1.207276	-0.511632
H101	H	0.911768	1.207280	-0.695014
H102	H	0.968374	0.441534	0.511366
H103	H	1.065280	0.905173	-0.393283
H104	H	1.633349	0.441501	0.047774
