data_functionalizedCrystal
_audit_creation_method	'MofGen! by Chris Wilmer'
_symmetry_space_group_name_H-M	'P1'
_symmetry_Int_Tables_number	1
_symmetry_cell_setting	triclinic
loop_
_symmetry_equiv_pos_as_xyz
  x,y,z
_cell_length_a	16.120490
_cell_length_b	12.594516
_cell_length_c	16.120297
_cell_angle_alpha	92.877768
_cell_angle_beta	90.129683
_cell_angle_gamma	87.108688
loop_
_atom_site_label
_atom_site_type_symbol
_atom_site_fract_x
_atom_site_fract_y
_atom_site_fract_z
Zn1	Zn	1.247500	-0.539335	-0.534573
Zn2	Zn	1.747500	-0.039335	-0.034573
Zn3	Zn	1.254467	-0.708779	-0.395527
Zn4	Zn	1.754467	-0.208779	0.104473
Zn5	Zn	1.115488	-0.521340	-0.388492
Zn6	Zn	1.615488	-0.021340	0.111508
Zn7	Zn	1.108423	-0.707789	-0.527499
Zn8	Zn	1.608423	-0.207789	-0.027499
O9	O	1.181469	-0.619311	-0.461523
O10	O	1.681469	-0.119311	0.038477
O11	O	1.364792	-0.569758	-0.522032
O12	O	1.864792	-0.069758	-0.022032
O13	O	1.241904	-0.676798	-0.278227
O14	O	1.741904	-0.176798	0.221773
O15	O	1.133040	-0.374785	-0.407887
O16	O	1.633040	0.125215	0.092113
O17	O	1.369911	-0.694247	-0.419875
O18	O	1.869911	-0.194247	0.080125
O19	O	1.230029	-0.388006	-0.515211
O20	O	1.730029	0.111994	-0.015211
O21	O	1.139796	-0.539088	-0.273059
O22	O	1.639796	-0.039088	0.226941
O23	O	0.998183	-0.538127	-0.401028
O24	O	1.498183	-0.038127	0.098972
O25	O	1.120999	-0.692560	-0.644804
O26	O	1.620999	-0.192560	-0.144804
O27	O	0.992992	-0.675110	-0.503156
O28	O	1.492992	-0.175110	-0.003156
O29	O	1.223178	-0.568798	-0.650000
O30	O	1.723178	-0.068798	-0.150000
O31	O	1.235053	-0.857590	-0.413017
O32	O	1.735053	-0.357590	0.086983
O33	O	1.127755	-0.856862	-0.509977
O34	O	1.627755	-0.356862	-0.009977
C35	C	0.965415	-0.604559	-0.450562
C36	C	1.465415	-0.104559	0.049438
C37	C	0.872985	-0.598276	-0.445892
C38	C	1.372985	-0.098276	0.054108
C39	C	0.660028	-0.651898	-0.485746
C40	C	1.160028	-0.151898	0.014254
C41	C	0.703759	-0.586812	-0.437366
C42	C	1.203759	-0.086812	0.062634
C43	C	0.797925	-0.593192	-0.442111
C44	C	1.297925	-0.093192	0.057889
C45	C	0.565853	-0.645520	-0.481001
C46	C	1.065853	-0.145520	0.018999
C47	C	1.181415	-0.895848	-0.461512
C48	C	1.681415	-0.395848	0.038488
C49	C	1.181467	-1.014158	-0.461539
C50	C	1.681467	-0.514158	0.038461
C51	C	1.123104	-1.083051	-0.514236
C52	C	1.623104	-0.583051	-0.014236
C53	C	1.106692	-1.147864	-0.437333
C54	C	1.606692	-0.647864	0.062667
C55	C	1.197954	-1.160151	-0.538459
C56	C	1.697954	-0.660151	-0.038459
C57	C	1.165016	-1.077407	-0.384593
C58	C	1.665016	-0.577407	0.115407
C59	C	1.256312	-1.089693	-0.485773
C60	C	1.756312	-0.589693	0.014227
C61	C	1.239931	-1.154472	-0.408818
C62	C	1.739931	-0.654472	0.091182
C63	C	1.398368	-0.634121	-0.472527
C64	C	1.898368	-0.134121	0.027473
C65	C	1.490797	-0.640432	-0.477217
C66	C	1.990797	-0.140432	0.022783
C67	C	1.170524	-0.632576	-0.678418
C68	C	1.670524	-0.132576	-0.178418
C69	C	1.165859	-0.638228	-0.770846
C70	C	1.665859	-0.138228	-0.270846
C71	C	1.181546	-0.341697	-0.461553
C72	C	1.681546	0.158303	0.038447
C73	C	1.181578	-0.223394	-0.461566
C74	C	1.681578	0.276606	0.038434
C75	C	1.157312	-0.648523	-0.940072
C76	C	1.657312	-0.148523	-0.440072
C77	C	1.205790	-0.589791	-0.983834
C78	C	1.705790	-0.089791	-0.483834
C79	C	1.201035	-0.595519	-1.077997
C80	C	1.701035	-0.095519	-0.577997
C81	C	1.162067	-0.642796	-0.845900
C82	C	1.662067	-0.142796	-0.345900
C83	C	1.192421	-0.606024	-0.245474
C84	C	1.692421	-0.106024	0.254526
C85	C	1.197246	-0.600083	-0.153054
C86	C	1.697246	-0.100083	0.346946
H87	H	0.693308	-0.712407	-0.530725
H88	H	1.193308	-0.212407	-0.030725
C89	C	1.265925	-0.516910	-0.939654
C90	C	1.765925	-0.016910	-0.439654
C91	C	1.309706	-0.463834	-0.998538
C92	C	1.809706	0.036166	-0.498538
C93	C	1.365101	-0.396684	-0.957868
C94	C	1.865101	0.103316	-0.457868
H95	H	1.303894	-0.557973	-0.907616
H96	H	1.803894	-0.057973	-0.407616
H97	H	1.235829	-0.466284	-0.904168
H98	H	1.735829	0.033716	-0.404168
H99	H	1.339801	-0.514453	-1.034010
H100	H	1.839801	-0.014453	-0.534010
H101	H	1.271759	-0.422751	-1.030580
H102	H	1.771759	0.077249	-0.530580
H103	H	1.335005	-0.346058	-0.922381
H104	H	1.835005	0.153942	-0.422381
H105	H	1.403065	-0.437755	-0.925830
H106	H	1.903065	0.062245	-0.425830
H107	H	1.394808	-0.360656	-0.997813
H108	H	1.894808	0.139344	-0.497813
C109	C	1.097301	-0.721283	-0.984557
C110	C	1.597301	-0.221283	-0.484557
C111	C	1.104484	-0.712595	-1.070463
C112	C	1.604484	-0.212595	-0.570463
C113	C	1.049226	-0.779618	-1.111481
C114	C	1.549226	-0.279618	-0.611481
H115	H	1.042093	-0.701126	-0.967633
H116	H	1.542093	-0.201126	-0.467633
H117	H	1.110164	-0.792808	-0.971042
H118	H	1.610164	-0.292808	-0.471042
H119	H	1.091615	-0.641086	-1.083973
H120	H	1.591615	-0.141086	-0.583973
H121	H	1.159679	-0.732761	-1.087412
H122	H	1.659679	-0.232761	-0.587412
H123	H	1.062089	-0.851143	-1.097965
H124	H	1.562089	-0.351143	-0.597965
H125	H	0.994022	-0.759455	-1.094550
H126	H	1.494022	-0.259455	-0.594550
H127	H	1.054098	-0.773740	-1.169772
H128	H	1.554098	-0.273740	-0.669772
H129	H	1.073668	-1.051695	-0.558728
H130	H	1.573668	-0.551695	-0.058728
C131	C	1.216615	-1.208497	-0.625112
C132	C	1.716615	-0.708497	-0.125112
C133	C	1.289254	-1.274124	-0.623079
C134	C	1.789254	-0.774124	-0.123079
C135	C	1.306456	-1.318684	-0.702886
C136	C	1.806456	-0.818684	-0.202886
H137	H	1.223989	-1.153283	-0.662040
H138	H	1.723989	-0.653283	-0.162040
H139	H	1.171636	-1.249440	-0.643694
H140	H	1.671636	-0.749440	-0.143694
H141	H	1.334223	-1.233182	-0.604508
H142	H	1.834223	-0.733182	-0.104508
H143	H	1.281899	-1.329354	-0.586167
H144	H	1.781899	-0.829354	-0.086167
H145	H	1.261477	-1.359627	-0.721468
H146	H	1.761477	-0.859627	-0.221468
H147	H	1.313827	-1.263464	-0.739808
H148	H	1.813827	-0.763464	-0.239808
H149	H	1.355739	-1.363224	-0.701516
H150	H	1.855739	-0.863224	-0.201516
C151	C	1.022294	-1.182167	-0.410165
C152	C	1.522294	-0.682167	0.089835
C153	C	0.961371	-1.146024	-0.465541
C154	C	1.461371	-0.646024	0.034459
C155	C	0.883614	-1.177611	-0.440553
C156	C	1.383614	-0.677611	0.059447
H157	H	1.010105	-1.152660	-0.355915
H158	H	1.510105	-0.652660	0.144085
H159	H	1.023061	-1.257627	-0.409917
H160	H	1.523061	-0.757627	0.090083
H161	H	0.960601	-1.070579	-0.465781
H162	H	1.460601	-0.570579	0.034219
H163	H	0.973532	-1.175527	-0.519794
H164	H	1.473532	-0.675527	-0.019794
H165	H	0.884382	-1.253072	-0.440304
H166	H	1.384382	-0.753072	0.059696
H167	H	0.871434	-1.148102	-0.386303
H168	H	1.371434	-0.648102	0.113697
H169	H	0.842270	-1.153102	-0.478125
H170	H	1.342270	-0.653102	0.021875
H171	H	1.151042	-1.041385	-0.319532
H172	H	1.651042	-0.541385	0.180468
H173	H	0.670477	-0.526299	-0.392382
H174	H	1.170477	-0.026299	0.107618
H175	H	1.289337	-1.185623	-0.364212
H176	H	1.789337	-0.685623	0.135788
C177	C	1.340698	-1.055454	-0.513013
C178	C	1.840698	-0.555454	-0.013013
C179	C	1.401862	-1.093282	-0.458560
C180	C	1.901862	-0.593282	0.041440
C181	C	1.479610	-1.061774	-0.483644
C182	C	1.979610	-0.561774	0.016356
H183	H	1.340310	-0.979969	-0.512300
H184	H	1.840310	-0.479969	-0.012300
H185	H	1.352343	-1.083925	-0.567678
H186	H	1.852343	-0.583925	-0.067678
H187	H	1.390221	-1.064806	-0.403909
H188	H	1.890221	-0.564806	0.096091
H189	H	1.402277	-1.168763	-0.459266
H190	H	1.902277	-0.668763	0.040734
H191	H	1.491254	-1.090245	-0.538310
H192	H	1.991254	-0.590245	-0.038310
H193	H	1.479212	-0.986289	-0.482931
H194	H	1.979212	-0.486289	0.017069
H195	H	1.521120	-1.087443	-0.446707
H196	H	2.021120	-0.587443	0.053293
