data_functionalizedCrystal
_audit_creation_method	'MofGen! by Chris Wilmer'
_symmetry_space_group_name_H-M	'P1'
_symmetry_Int_Tables_number	1
_symmetry_cell_setting	triclinic
loop_
_symmetry_equiv_pos_as_xyz
  x,y,z
_cell_length_a	9.016244
_cell_length_b	14.519709
_cell_length_c	10.540535
_cell_angle_alpha	95.898106
_cell_angle_beta	89.990771
_cell_angle_gamma	89.991383
loop_
_atom_site_label
_atom_site_type_symbol
_atom_site_fract_x
_atom_site_fract_y
_atom_site_fract_z
O1	O	-0.123152	-1.224752	0.166405
O2	O	-0.123198	-0.956380	0.186001
O3	O	-0.123159	-1.096691	-0.008566
O4	O	-0.123191	-1.084441	0.360972
O5	O	0.123522	-1.096700	-0.008587
O6	O	0.123483	-0.956389	0.185980
O7	O	0.123529	-1.224760	0.166385
Cu8	Cu	0.146030	-1.090575	0.176180
Cu9	Cu	-0.145699	-1.090565	0.176205
O10	O	0.123490	-1.084450	0.360952
C11	C	0.000137	-0.922020	0.185077
C12	C	0.000120	-0.819624	0.182341
N13	N	-0.350885	-1.090558	0.176213
C14	C	0.000182	-1.095777	-0.055870
C15	C	0.000184	-1.093032	-0.196791
C16	C	-0.585938	-1.015593	0.280391
C17	C	-0.414047	-1.015304	0.280151
C18	C	-0.413242	-1.068921	0.043607
C19	C	-0.585187	-1.068400	0.044189
C20	C	-0.585389	-1.187436	0.203360
C21	C	-0.413434	-1.186793	0.206397
N22	N	0.351216	-1.090590	0.176163
C23	C	0.000191	-1.259121	0.167308
C24	C	0.000198	-1.361517	0.170045
C25	C	0.000188	-0.444674	0.172266
C26	C	0.000169	-0.548997	0.175064
C27	C	0.000153	-0.632145	0.177303
C28	C	0.000136	-0.736475	0.180101
C29	C	0.000156	-0.990588	-0.232415
C30	C	-0.000431	-0.987698	-0.378986
C31	C	-0.140435	-1.139791	-0.406581
C32	C	-0.140526	-1.141970	-0.259838
C33	C	0.140006	-1.143471	-0.260015
C34	C	0.141827	-1.138733	-0.406313
C35	C	0.000146	-1.085363	0.408256
C36	C	0.000135	-1.088109	0.549176
H37	H	-0.371890	-1.028284	0.378703
H38	H	0.246598	-1.111507	-0.217247
H39	H	-0.146500	-1.217070	-0.237573
H40	H	-0.626756	-1.120914	-0.035727
H41	H	-0.370181	-0.999072	0.019163
H42	H	-0.245468	-1.104325	-0.437102
F43	F	-0.642111	-1.214421	0.327065
H44	H	-0.627321	-1.028377	0.379258
H45	H	-0.372930	-0.943442	0.262730
F46	F	0.277760	-1.089575	-0.443218
H47	H	-0.372706	-1.203189	0.303959
H48	H	-0.370435	-1.245259	0.135461
F49	F	-0.638510	-1.260394	0.104025
H50	H	0.100305	-0.947271	-0.407926
H51	H	-0.625305	-0.997751	0.020308
F52	F	0.131900	-0.939168	-0.177051
H53	H	-0.246020	-1.107061	-0.219293
F54	F	-0.146741	-1.236424	-0.469461
H55	H	-0.101815	-0.947474	-0.407013
H56	H	0.150752	-1.212020	-0.456098
H57	H	-0.100515	-0.951903	-0.188547
F58	F	-0.359761	-1.138374	-0.060224
F59	F	0.141810	-1.241988	-0.232021
H60	H	-0.629162	-0.944143	0.263204
