data_functionalizedCrystal
_audit_creation_method	'MofGen! by Chris Wilmer'
_symmetry_space_group_name_H-M	'P1'
_symmetry_Int_Tables_number	1
_symmetry_cell_setting	triclinic
loop_
_symmetry_equiv_pos_as_xyz
  x,y,z
_cell_length_a	18.101398
_cell_length_b	18.101395
_cell_length_c	16.959447
_cell_angle_alpha	90.029468
_cell_angle_beta	90.020773
_cell_angle_gamma	90.026371
loop_
_atom_site_label
_atom_site_type_symbol
_atom_site_fract_x
_atom_site_fract_y
_atom_site_fract_z
Zn1	Zn	1.132095	-0.294908	0.447049
Zn2	Zn	1.131999	-0.418761	0.314873
Zn3	Zn	1.008262	-0.294928	0.314872
Zn4	Zn	1.008205	-0.418702	0.446996
O5	O	1.070140	-0.356825	0.380948
O6	O	1.235715	-0.311354	0.429538
O7	O	1.115568	-0.402368	0.204262
O8	O	1.024753	-0.191293	0.332427
O9	O	1.235644	-0.402349	0.332429
O10	O	1.115732	-0.191278	0.429538
O11	O	1.024659	-0.311388	0.204261
O12	O	0.904621	-0.311331	0.332376
O13	O	1.024656	-0.402248	0.557614
O14	O	0.904579	-0.402267	0.429447
O15	O	1.115677	-0.311297	0.557653
O16	O	1.115513	-0.522387	0.332377
O17	O	1.024562	-0.522343	0.429448
C18	C	0.877729	-0.356795	0.380906
C19	C	0.795415	-0.356800	0.380908
C20	C	1.070041	-0.549236	0.380924
C21	C	1.070066	-0.631550	0.380941
C22	C	0.496324	-0.356846	0.380974
C23	C	0.527651	-0.299345	0.320197
C24	C	0.613269	-0.299500	0.319938
C25	C	0.644707	-0.356823	0.380941
C26	C	0.613590	-0.434835	0.358183
C27	C	0.527945	-0.434516	0.357760
C28	C	0.527934	-0.337013	0.464652
C29	C	0.613585	-0.335275	0.464195
C30	C	0.728566	-0.356814	0.380924
C31	C	0.412465	-0.356860	0.380989
C32	C	1.070229	-0.930641	0.380983
C33	C	1.013138	-0.899319	0.442209
C34	C	1.012866	-0.813701	0.442018
C35	C	1.070148	-0.782258	0.380963
C36	C	1.049024	-0.813411	0.297656
C37	C	1.048656	-0.899056	0.298022
C38	C	1.148569	-0.898990	0.402331
C39	C	1.148108	-0.813339	0.404158
C40	C	1.070104	-0.698399	0.380946
C41	C	1.070271	-1.014500	0.380995
C42	C	1.263302	-0.356856	0.380990
C43	C	1.345616	-0.356869	0.381007
C44	C	1.070171	-0.356764	0.587116
C45	C	1.070184	-0.356738	0.674973
C46	C	1.070260	-0.163663	0.380988
C47	C	1.070311	-0.081349	0.381006
C48	C	1.070152	-0.356833	0.175581
C49	C	1.070282	-0.356650	0.087725
C50	C	1.022882	-0.404014	1.046431
C51	C	1.117663	-0.309306	1.046466
C52	C	1.117644	-0.309321	0.963920
C53	C	1.070243	-0.356685	0.922626
C54	C	1.022862	-0.404032	0.963877
C55	C	1.165029	-0.261980	0.922663
C56	C	1.165012	-0.261994	0.840112
C57	C	1.117607	-0.309354	0.798816
C58	C	1.070223	-0.356703	0.840072
C59	C	1.022823	-0.404067	0.798778
C60	C	0.975435	-0.451412	0.840033
C61	C	0.975457	-0.451392	0.922581
C62	C	1.117585	-0.309374	0.716267
C63	C	1.022803	-0.404085	0.716224
H64	H	0.634309	-0.241650	0.334203
H65	H	1.192894	-0.791932	0.362815
H66	H	0.506105	-0.312309	0.258554
Cl67	Cl	0.924032	-0.932656	0.420669
Cl68	Cl	0.495891	-0.209754	0.341975
Cl69	Cl	0.963206	-0.463627	0.664318
Cl70	Cl	0.963310	-0.463529	1.098291
Cl71	Cl	0.644859	-0.319740	0.224207
Cl72	Cl	1.110062	-0.931053	0.225184
H73	H	0.936845	-0.489979	0.806400
Cl74	Cl	0.923213	-0.782157	0.420188
Cl75	Cl	1.224581	-0.202472	0.788256
H76	H	1.203625	-0.223424	0.956291
Cl77	Cl	1.111202	-0.781971	0.225300
H78	H	0.992364	-0.792022	0.279249
H79	H	0.936879	-0.489941	0.956178
H80	H	0.633928	-0.277867	0.481355
Cl81	Cl	1.177157	-0.249864	0.664407
H82	H	1.167830	-0.920538	0.462044
H83	H	1.026082	-0.792636	0.503789
Cl84	Cl	0.646653	-0.461256	0.264756
Cl85	Cl	1.172707	-0.781900	0.498815
H86	H	0.507937	-0.451335	0.296588
H87	H	0.633952	-0.478826	0.401064
Cl88	Cl	0.495944	-0.502904	0.423117
Cl89	Cl	0.494631	-0.250710	0.496597
Cl90	Cl	0.646622	-0.395227	0.537858
Cl91	Cl	1.033333	-0.931044	0.537891
Cl92	Cl	0.960241	-0.929998	0.270105
Cl93	Cl	1.177255	-0.249772	1.098380
H94	H	0.507675	-0.378894	0.509936
Cl95	Cl	1.214244	-0.930277	0.333497
