data_functionalizedCrystal
_audit_creation_method	'MofGen! by Chris Wilmer'
_symmetry_space_group_name_H-M	'P1'
_symmetry_Int_Tables_number	1
_symmetry_cell_setting	triclinic
loop_
_symmetry_equiv_pos_as_xyz
  x,y,z
_cell_length_a	6.817900
_cell_length_b	15.866870
_cell_length_c	12.200875
_cell_angle_alpha	111.092108
_cell_angle_beta	107.143593
_cell_angle_gamma	102.655915
loop_
_atom_site_label
_atom_site_type_symbol
_atom_site_fract_x
_atom_site_fract_y
_atom_site_fract_z
V1	V	-4.100361	-0.132887	-0.413851
O2	O	-4.053554	0.006162	-0.348247
O3	O	-4.083035	-0.263278	-0.466540
O4	O	-4.069614	-0.130942	-0.569017
O5	O	-4.067067	-0.127091	-0.245061
V6	V	-4.577674	-0.116244	-0.386918
O7	O	-4.375239	-0.169396	-0.472932
O8	O	-4.752993	-0.079735	-0.327838
O9	O	-4.371794	0.014146	-0.334230
O10	O	-4.741878	-0.255293	-0.452523
O11	O	-4.728365	-0.122041	-0.555709
O12	O	-4.385214	-0.118190	-0.231753
C13	C	-3.935024	-0.295061	-0.474337
C14	C	-4.002262	-0.401657	-0.518451
C15	C	-3.944608	-0.683492	-0.109260
C16	C	-4.007802	-0.783660	-0.150750
C17	C	-4.119320	-0.811148	-0.372465
C18	C	-4.056123	-0.710980	-0.330993
C19	C	-3.968772	-0.647159	-0.199389
C20	C	-4.080288	-0.674647	-0.421122
C21	C	-4.017108	-0.574488	-0.379654
C22	C	-3.929762	-0.510662	-0.248056
C23	C	-3.905592	-0.547000	-0.157921
C24	C	-4.167654	-0.738470	-0.552726
C25	C	-4.191819	-0.702137	-0.642856
C26	C	-4.128623	-0.601976	-0.601387
C27	C	-4.041278	-0.538149	-0.469789
C28	C	-4.152794	-0.565637	-0.691523
C29	C	-4.089613	-0.465478	-0.650054
C30	C	-3.978098	-0.437990	-0.428321
C31	C	-3.917903	-0.126252	-0.605055
C32	C	-3.974254	-0.125524	-0.732268
C33	C	-4.077385	-0.124192	-0.965179
C34	C	-4.019987	-0.124933	-0.835571
C35	C	-4.183148	0.045925	-0.326432
C36	C	-4.095148	0.152520	-0.282326
C37	C	-4.200267	-0.122882	-0.195710
C38	C	-4.123153	-0.123606	-0.068494
H39	H	-3.988112	-0.813236	-0.077345
O40	O	-4.204466	-0.873251	-0.500276
C41	C	-4.419155	-0.936638	-0.538314
H42	H	-4.438491	-0.941256	-0.450740
H43	H	-4.544706	-0.908073	-0.582234
C44	C	-4.434203	-1.032554	-0.746395
C45	C	-4.457946	-1.038233	-0.638836
H46	H	-4.458137	-1.095222	-0.808406
H47	H	-4.289566	-0.989847	-0.720770
H48	H	-4.538831	-1.008746	-0.782979
H49	H	-4.353300	-1.062029	-0.602245
H50	H	-4.602567	-1.080946	-0.664457
H51	H	-3.906935	-0.386022	-0.321155
H52	H	-4.262955	-0.754113	-0.750009
H53	H	-4.219098	-0.820025	-0.586486
H54	H	-4.223942	-0.617615	-0.798676
O55	O	-4.113450	-0.430298	-0.737732
C56	C	-4.337597	-0.467757	-0.822699
H57	H	-4.425891	-0.538123	-0.823763
H58	H	-4.416698	-0.412735	-0.789171
C59	C	-4.247873	-0.401521	-0.958056
C60	C	-4.356314	-0.487951	-0.959372
H61	H	-4.259422	-0.413974	-1.042362
H62	H	-4.096861	-0.376281	-0.900811
H63	H	-4.313804	-0.355678	-0.930111
H64	H	-4.290365	-0.533788	-0.987301
H65	H	-4.507316	-0.513200	-1.016626
O66	O	-3.868710	-0.413367	-0.207718
C67	C	-3.991756	-0.377008	-0.140425
H68	H	-4.151316	-0.438216	-0.171457
H69	H	-3.891281	-0.345930	-0.032478
C70	C	-3.850376	-0.221415	-0.132702
C71	C	-4.046360	-0.296590	-0.170825
H72	H	-3.884051	-0.171806	-0.151448
H73	H	-3.767470	-0.245909	-0.178035
H74	H	-3.766666	-0.195528	-0.042748
H75	H	-4.130053	-0.322484	-0.260780
H76	H	-4.129281	-0.272098	-0.125508
O77	O	-3.859896	-0.621626	0.018625
C78	C	-3.852058	-0.675167	0.089296
H79	H	-3.977309	-0.752296	0.024529
H80	H	-3.679717	-0.677276	0.125852
C81	C	-3.753271	-0.531882	0.284147
C82	C	-3.907120	-0.626611	0.204602
H83	H	-3.787226	-0.501929	0.355277
H84	H	-3.758543	-0.495809	0.236537
H85	H	-3.609667	-0.533652	0.314597
H86	H	-4.050716	-0.624838	0.174141
H87	H	-3.901873	-0.662682	0.252210
H88	H	-3.834429	-0.495032	-0.050755
