data_functionalizedCrystal
_audit_creation_method	'MofGen! by Chris Wilmer'
_symmetry_space_group_name_H-M	'P1'
_symmetry_Int_Tables_number	1
_symmetry_cell_setting	triclinic
loop_
_symmetry_equiv_pos_as_xyz
  x,y,z
_cell_length_a	13.897449
_cell_length_b	13.897448
_cell_length_c	21.395355
_cell_angle_alpha	90.015629
_cell_angle_beta	90.023390
_cell_angle_gamma	90.018972
loop_
_atom_site_label
_atom_site_type_symbol
_atom_site_fract_x
_atom_site_fract_y
_atom_site_fract_z
Zn1	Zn	1.474728	-0.384094	0.354255
Zn2	Zn	1.974728	0.115906	0.854255
Zn3	Zn	1.474614	-0.545373	0.249482
Zn4	Zn	1.974614	-0.045373	0.749482
Zn5	Zn	1.313410	-0.384097	0.249493
Zn6	Zn	1.813410	0.115903	0.749493
Zn7	Zn	1.313399	-0.545352	0.354225
Zn8	Zn	1.813399	-0.045352	0.854225
O9	O	1.394038	-0.464729	0.301864
O10	O	1.894038	0.035271	0.801864
O11	O	1.609694	-0.405495	0.340364
O12	O	2.109694	0.094505	0.840364
O13	O	1.453187	-0.523990	0.161806
O14	O	1.953187	-0.023990	0.661806
O15	O	1.334861	-0.249115	0.263407
O16	O	1.834861	0.250885	0.763407
O17	O	1.609611	-0.523986	0.263389
O18	O	2.109611	-0.023986	0.763389
O19	O	1.453381	-0.249113	0.340375
O20	O	1.953381	0.250887	0.840375
O21	O	1.334751	-0.405502	0.161814
O22	O	1.834751	0.094498	0.661814
O23	O	1.178426	-0.405481	0.263378
O24	O	1.678426	0.094519	0.763378
O25	O	1.334842	-0.523950	0.441907
O26	O	1.834842	-0.023950	0.941907
O27	O	1.178419	-0.523954	0.340324
O28	O	1.678419	-0.023954	0.840324
O29	O	1.453370	-0.405474	0.441929
O30	O	1.953370	0.094526	0.941929
O31	O	1.453177	-0.680352	0.263360
O32	O	1.953177	-0.180352	0.763360
O33	O	1.334732	-0.680336	0.340313
O34	O	1.834732	-0.180336	0.840313
C35	C	1.143423	-0.464716	0.301849
C36	C	1.643423	0.035284	0.801849
C37	C	1.036209	-0.464734	0.301858
C38	C	1.536209	0.035266	0.801858
C39	C	0.839914	-0.464737	0.301875
C40	C	1.339914	0.035263	0.801875
C41	C	0.949147	-0.464733	0.301864
C42	C	1.449147	0.035267	0.801864
C43	C	1.393967	-0.715343	0.301846
C44	C	1.893967	-0.215343	0.801846
C45	C	1.394025	-0.822557	0.301859
C46	C	1.894025	-0.322557	0.801859
C47	C	1.394127	-1.018852	0.301898
C48	C	1.894127	-0.518852	0.801898
C49	C	1.394068	-0.909620	0.301878
C50	C	1.894068	-0.409620	0.801878
C51	C	1.645631	-0.464743	0.301878
C52	C	2.145631	0.035257	0.801878
C53	C	1.752844	-0.464749	0.301885
C54	C	2.252844	0.035251	0.801885
C55	C	1.394118	-0.464710	0.465287
C56	C	1.894118	0.035290	0.965287
C57	C	1.394152	-0.464701	0.534928
C58	C	1.894152	0.035299	1.034928
C59	C	1.394135	-0.213136	0.301896
C60	C	1.894135	0.286864	0.801896
C61	C	1.394176	-0.105922	0.301909
C62	C	1.894176	0.394078	0.801909
C63	C	1.394013	-0.464679	0.139076
C64	C	1.894013	0.035321	0.639076
C65	C	1.394166	-0.464416	0.069435
C66	C	1.894166	0.035584	0.569435
C67	C	1.455867	-0.403008	0.567654
C68	C	1.955867	0.096992	1.067654
C69	C	1.455865	-0.402967	0.633089
C70	C	1.955865	0.097033	1.133089
C71	C	1.394159	-0.464636	0.665797
C72	C	1.894159	0.035364	1.165797
C73	C	1.332433	-0.526333	0.633063
C74	C	1.832433	-0.026333	1.133063
C75	C	1.332429	-0.526366	0.567629
C76	C	1.832429	-0.026366	1.067629
C77	C	1.386518	-0.551488	0.769465
C78	C	1.886518	-0.051488	1.269465
C79	C	1.386529	-0.551457	0.834898
C80	C	1.886529	-0.051457	1.334898
C81	C	1.394165	-0.464534	0.867618
C82	C	1.894165	0.035466	1.367618
C83	C	1.401811	-0.377639	0.834896
C84	C	1.901811	0.122361	1.334896
C85	C	1.401807	-0.377672	0.769462
C86	C	1.901807	0.122328	1.269462
C87	C	1.394156	-0.464606	0.736749
C88	C	1.894156	0.035394	1.236749
C89	C	1.455882	-0.402790	0.971296
C90	C	1.955882	0.097210	1.471296
C91	C	1.455874	-0.402747	1.036732
C92	C	1.955874	0.097253	1.536732
C93	C	1.332446	-0.526122	1.036705
C94	C	1.832446	-0.026122	1.536705
C95	C	1.332449	-0.526156	0.971270
C96	C	1.832449	-0.026156	1.471270
C97	C	1.394172	-0.464492	0.938569
C98	C	1.894172	0.035508	1.438569
H99	H	1.506125	-0.352795	0.541033
H100	H	2.006125	0.147205	1.041033
H101	H	1.506135	-0.352574	0.944669
H102	H	2.006135	0.147426	1.444669
C103	C	1.410204	-0.282089	0.733470
C104	C	1.910204	0.217911	1.233470
N105	N	1.416523	-0.210094	0.706362
N106	N	1.916523	0.289906	1.206362
H107	H	1.380309	-0.622212	0.861535
H108	H	1.880309	-0.122212	1.361535
C109	C	1.264551	-0.594164	0.669043
C110	C	1.764551	-0.094164	1.169043
N111	N	1.213418	-0.645253	0.696142
N112	N	1.713418	-0.145253	1.196142
H113	H	1.506128	-0.352504	1.063376
H114	H	2.006128	0.147496	1.563376
H115	H	1.380042	-0.622253	0.742831
H116	H	1.880042	-0.122253	1.242831
C117	C	1.264569	-0.593959	1.072679
C118	C	1.764569	-0.093959	1.572679
N119	N	1.213442	-0.645056	1.099778
N120	N	1.713442	-0.145056	1.599778
H121	H	1.506119	-0.352724	0.659740
H122	H	2.006119	0.147276	1.159740
C123	C	1.264537	-0.594238	0.531630
C124	C	1.764537	-0.094238	1.031630
N125	N	1.213401	-0.645362	0.504514
N126	N	1.713401	-0.145362	1.004514
H127	H	1.282200	-0.576399	0.944624
H128	H	1.782200	-0.076399	1.444624
C129	C	1.410210	-0.282015	0.870882
C130	C	1.910210	0.217985	1.370882
N131	N	1.416536	-0.209994	0.897990
N132	N	1.916536	0.290006	1.397990
