data_functionalizedCrystal
_audit_creation_method	'MofGen! by Chris Wilmer'
_symmetry_space_group_name_H-M	'P1'
_symmetry_Int_Tables_number	1
_symmetry_cell_setting	triclinic
loop_
_symmetry_equiv_pos_as_xyz
  x,y,z
_cell_length_a	13.033293
_cell_length_b	18.101390
_cell_length_c	13.031981
_cell_angle_alpha	82.784046
_cell_angle_beta	103.320033
_cell_angle_gamma	82.791830
loop_
_atom_site_label
_atom_site_type_symbol
_atom_site_fract_x
_atom_site_fract_y
_atom_site_fract_z
Zn1	Zn	1.570234	-0.540775	-0.216807
Zn2	Zn	1.547575	-0.398889	-0.394492
Zn3	Zn	1.392601	-0.398899	-0.239397
Zn4	Zn	1.370038	-0.504661	-0.416947
O5	O	1.470112	-0.460806	-0.316911
O6	O	1.715868	-0.537064	-0.221526
O7	O	1.526977	-0.295249	-0.373974
O8	O	1.435090	-0.432837	-0.087734
O9	O	1.699220	-0.432821	-0.352070
O10	O	1.565596	-0.537073	-0.071137
O11	O	1.413118	-0.295256	-0.260027
O12	O	1.240969	-0.397818	-0.281801
O13	O	1.396635	-0.613093	-0.390342
O14	O	1.224392	-0.475522	-0.412246
O15	O	1.543718	-0.639626	-0.243300
O16	O	1.505099	-0.397802	-0.546137
O17	O	1.374663	-0.475513	-0.562635
C18	C	1.194139	-0.432753	-0.351913
C19	C	1.076074	-0.420766	-0.366912
C20	C	1.031661	-0.467059	-0.309109
C21	C	0.909634	-0.454672	-0.324610
C22	C	1.470187	-0.653984	-0.316806
C23	C	1.470220	-0.736305	-0.316761
C24	C	1.470285	-1.035409	-0.316687
C25	C	1.563060	-1.020776	-0.224427
C26	C	1.562841	-0.935162	-0.224156
C27	C	1.470254	-0.887020	-0.316724
C28	C	1.362207	-0.909813	-0.300510
C29	C	1.362778	-0.995571	-0.299834
C30	C	1.484545	-0.995308	-0.425497
C31	C	1.487074	-0.909966	-0.424612
C32	C	1.470229	-0.803156	-0.316747
C33	C	1.470303	-1.119272	-0.316663
C34	C	1.747162	-0.488969	-0.281773
C35	C	1.865224	-0.500971	-0.266799
C36	C	1.435003	-0.432757	-0.592930
C37	C	1.420080	-0.420792	-0.711000
C38	C	1.470108	-0.268393	-0.316931
C39	C	1.470319	-0.186124	-0.316650
C40	C	1.477957	-0.467071	-0.755349
C41	C	1.462535	-0.454706	-0.877380
C42	C	1.505387	-0.488984	-0.039810
C43	C	1.520420	-0.500992	0.078274
H44	H	0.857322	-0.405863	-0.385576
O45	O	1.575978	-1.027381	-0.446550
C46	C	1.586340	-0.990139	-0.544491
H47	H	1.504307	-0.961364	-0.595224
H48	H	1.622351	-1.032935	-0.588788
H49	H	1.640741	-0.946003	-0.528659
O50	O	1.550680	-0.525206	-0.692718
C51	C	1.549875	-0.524618	-0.584820
H52	H	1.517010	-0.465419	-0.574275
H53	H	1.634743	-0.542031	-0.532413
H54	H	1.497223	-0.565926	-0.560523
H55	H	1.581388	-0.549774	-0.869357
O56	O	1.389647	-0.396580	-0.939820
C57	C	1.287155	-0.404643	-0.926277
H58	H	1.285586	-0.466333	-0.896339
H59	H	1.225513	-0.385549	-1.005990
H60	H	1.267487	-0.368567	-0.865552
H61	H	0.917536	-0.549775	-0.205826
O62	O	1.347264	-0.362583	-0.773321
C63	C	1.296464	-0.321941	-0.708389
H64	H	1.302692	-0.359857	-0.629722
H65	H	1.208738	-0.302244	-0.751224
H66	H	1.336883	-0.270858	-0.691716
O67	O	1.094215	-0.525266	-0.236456
C68	C	1.202128	-0.524668	-0.237140
H69	H	1.206742	-0.493508	-0.317187
H70	H	1.245304	-0.585131	-0.224696
H71	H	1.241601	-0.494882	-0.170089
O72	O	1.658959	-0.917767	-0.234155
C73	C	1.707201	-0.887145	-0.144201
H74	H	1.643095	-0.862895	-0.105669
H75	H	1.751364	-0.840450	-0.170102
H76	H	1.766152	-0.933325	-0.084093
O77	O	1.013610	-0.362632	-0.439764
C78	C	0.940721	-0.391271	-0.516526
H79	H	0.973408	-0.452295	-0.518956
H80	H	0.928950	-0.355953	-0.598412
H81	H	0.860866	-0.388726	-0.494282
H82	H	1.291823	-0.877168	-0.366259
O83	O	1.659493	-1.053291	-0.234199
C84	C	1.661762	-1.131753	-0.229294
H85	H	1.600546	-1.150350	-0.185769
H86	H	1.744847	-1.162491	-0.184397
H87	H	1.641728	-1.145866	-0.313748
O88	O	1.553163	-1.054236	-0.128517
C89	C	1.462787	-1.090862	-0.144432
H90	H	1.404578	-1.064141	-0.223780
H91	H	1.422060	-1.084845	-0.076650
H92	H	1.488641	-1.153213	-0.145736
O93	O	1.346190	-1.026457	-0.205542
C94	C	1.252729	-1.059603	-0.225445
H95	H	1.198896	-1.032364	-0.306847
H96	H	1.208614	-1.050604	-0.160853
H97	H	1.275102	-1.122640	-0.224727
O98	O	1.552726	-0.918544	-0.127702
C99	C	1.456152	-0.937882	-0.109694
H100	H	1.398082	-0.938882	-0.189469
H101	H	1.419821	-0.894398	-0.066581
H102	H	1.472459	-0.996003	-0.058470
O103	O	1.278465	-1.005598	-0.377549
C104	C	1.287453	-0.971267	-0.477687
H105	H	1.339662	-0.925462	-0.465866
H106	H	1.204704	-0.945055	-0.529487
H107	H	1.325259	-1.015520	-0.518685
O108	O	1.410857	-0.869861	-0.509541
C109	C	1.340354	-0.819909	-0.473100
H110	H	1.343164	-0.841724	-0.386383
H111	H	1.255631	-0.815944	-0.524429
H112	H	1.365254	-0.761667	-0.479020
H113	H	1.416804	-1.003276	-0.494065
O114	O	1.345188	-0.890979	-0.207320
C115	C	1.340536	-0.812479	-0.210263
H116	H	1.384512	-0.789575	-0.270400
H117	H	1.379790	-0.800506	-0.127682
H118	H	1.253548	-0.783877	-0.235084
O119	O	1.581765	-0.892792	-0.439548
C120	C	1.581449	-0.814598	-0.443002
H121	H	1.495522	-0.783912	-0.466644
H122	H	1.625397	-0.793536	-0.504253
H123	H	1.623171	-0.803115	-0.360906
