data_functionalizedCrystal
_audit_creation_method	'MofGen! by Chris Wilmer'
_symmetry_space_group_name_H-M	'P1'
_symmetry_Int_Tables_number	1
_symmetry_cell_setting	triclinic
loop_
_symmetry_equiv_pos_as_xyz
  x,y,z
_cell_length_a	29.839134
_cell_length_b	29.839131
_cell_length_c	29.839125
_cell_angle_alpha	90.017709
_cell_angle_beta	90.021980
_cell_angle_gamma	90.036281
loop_
_atom_site_label
_atom_site_type_symbol
_atom_site_fract_x
_atom_site_fract_y
_atom_site_fract_z
Zn1	Zn	0.686720	-0.178978	0.254125
Zn2	Zn	1.186720	0.321022	0.754125
Zn3	Zn	0.686652	-0.254090	0.178995
Zn4	Zn	1.186652	0.245910	0.678995
Zn5	Zn	0.611602	-0.178968	0.178995
Zn6	Zn	1.111602	0.321032	0.678995
Zn7	Zn	0.611550	-0.254075	0.254083
Zn8	Zn	1.111550	0.245925	0.754083
O9	O	0.649131	-0.216528	0.216549
O10	O	1.149131	0.283472	0.716549
O11	O	0.749578	-0.188952	0.244176
O12	O	1.249578	0.311048	0.744176
O13	O	0.676690	-0.244127	0.116128
O14	O	1.176690	0.255873	0.616128
O15	O	0.621617	-0.116102	0.188978
O16	O	1.121617	0.383898	0.688978
O17	O	0.749528	-0.244137	0.188979
O18	O	1.249528	0.255863	0.688979
O19	O	0.676805	-0.116109	0.244176
O20	O	1.176805	0.383891	0.744176
O21	O	0.621551	-0.188935	0.116127
O22	O	1.121551	0.311065	0.616127
O23	O	0.548728	-0.188921	0.188938
O24	O	1.048728	0.311079	0.688938
O25	O	0.621528	-0.244111	0.316956
O26	O	1.121528	0.255889	0.816956
O27	O	0.548690	-0.244101	0.244105
O28	O	1.048690	0.255899	0.744105
O29	O	0.676755	-0.188937	0.316987
O30	O	1.176755	0.311063	0.816987
O31	O	0.676639	-0.316955	0.188938
O32	O	1.176639	0.183045	0.688938
O33	O	0.621462	-0.316944	0.244105
O34	O	1.121462	0.183056	0.744105
C35	C	0.532408	-0.216509	0.216517
C36	C	1.032408	0.283491	0.716517
C37	C	0.482474	-0.216511	0.216514
C38	C	0.982474	0.283489	0.716514
C39	C	0.649050	-0.333250	0.216527
C40	C	1.149050	0.166750	0.716527
C41	C	0.649056	-0.383185	0.216533
C42	C	1.149056	0.116815	0.716533
C43	C	0.172820	-0.245303	0.245240
C44	C	0.672820	0.254697	0.745240
C45	C	-0.014853	-0.245315	0.245260
C46	C	0.485147	0.254685	0.745260
O47	O	-0.039127	-0.269774	0.269665
O48	O	0.460873	0.230226	0.769665
N49	N	-0.038311	-0.216544	0.216583
N50	N	0.461689	0.283456	0.716583
C51	C	-0.014848	-0.187766	0.187902
C52	C	0.485152	0.312234	0.687902
O53	O	-0.039107	-0.163291	0.163514
O54	O	0.460893	0.336709	0.663514
C55	C	0.172824	-0.187751	0.187884
C56	C	0.672824	0.312249	0.687884
C57	C	0.196280	-0.216527	0.216560
C58	C	0.696280	0.283473	0.716560
C59	C	0.196276	-0.274076	0.273913
C60	C	0.696276	0.225924	0.773913
C61	C	0.243191	-0.274075	0.273906
C62	C	0.743191	0.225925	0.773906
C63	C	0.266651	-0.245299	0.245226
C64	C	0.766651	0.254701	0.745226
C65	C	0.243195	-0.216526	0.216553
C66	C	0.743195	0.283474	0.716553
C67	C	0.196286	-0.158971	0.159205
C68	C	0.696286	0.341029	0.659205
C69	C	0.243207	-0.158969	0.159204
C70	C	0.743207	0.341031	0.659204
C71	C	0.266663	-0.187745	0.187880
C72	C	0.766663	0.312255	0.687880
C73	C	0.313570	-0.187749	0.187865
C74	C	0.813570	0.312251	0.687865
N75	N	0.337029	-0.216520	0.216542
N76	N	0.837029	0.283480	0.716542
C77	C	0.313569	-0.245295	0.245222
C78	C	0.813569	0.254705	0.745222
C79	C	-0.113379	-0.187776	0.187912
C80	C	0.386621	0.312224	0.687912
C81	C	-0.160297	-0.187780	0.187916
C82	C	0.339703	0.312220	0.687916
C83	C	-0.160298	-0.245329	0.245275
C84	C	0.339702	0.254671	0.745275
C85	C	-0.113380	-0.245327	0.245269
C86	C	0.386620	0.254673	0.745269
C87	C	-0.089921	-0.216547	0.216589
C88	C	0.410079	0.283453	0.716589
C89	C	0.412095	-0.245290	0.245205
C90	C	0.912095	0.254710	0.745205
C91	C	0.459014	-0.245287	0.245194
C92	C	0.959014	0.254713	0.745194
C93	C	0.459012	-0.187736	0.187837
C94	C	0.959012	0.312264	0.687837
C95	C	0.412096	-0.187740	0.187846
C96	C	0.912096	0.312260	0.687846
C97	C	0.388639	-0.216519	0.216534
C98	C	0.888639	0.283481	0.716534
O99	O	0.337873	-0.163299	0.163477
O100	O	0.837873	0.336701	0.663477
O101	O	0.337836	-0.269759	0.269613
O102	O	0.837836	0.230241	0.769613
C103	C	0.125905	-0.245304	0.245247
C104	C	0.625905	0.254696	0.745247
C105	C	0.102449	-0.216531	0.216574
C106	C	0.602449	0.283469	0.716574
C107	C	0.125909	-0.187755	0.187893
C108	C	0.625909	0.312245	0.687893
C109	C	0.055531	-0.216535	0.216577
C110	C	0.555531	0.283465	0.716577
C111	C	0.032071	-0.245310	0.245258
C112	C	0.532071	0.254690	0.745258
C113	C	0.055529	-0.274082	0.273934
C114	C	0.555529	0.225918	0.773934
C115	C	0.102445	-0.274080	0.273927
C116	C	0.602445	0.225920	0.773927
C117	C	0.102451	-0.158984	0.159217
C118	C	0.602451	0.341016	0.659217
C119	C	0.055535	-0.158989	0.159226
C120	C	0.555535	0.341011	0.659226
C121	C	0.032075	-0.187764	0.187906
C122	C	0.532075	0.312236	0.687906
C123	C	0.677914	-0.692821	0.187866
C124	C	1.177914	-0.192821	0.687866
C125	C	0.677969	-0.880494	0.187883
C126	C	1.177969	-0.380494	0.687883
O127	O	0.702441	-0.904753	0.163493
O128	O	1.202441	-0.404753	0.663493
N129	N	0.649224	-0.903970	0.216583
N130	N	1.149224	-0.403970	0.716583
C131	C	0.620465	-0.880524	0.245283
C132	C	1.120465	-0.380524	0.745283
O133	O	0.596020	-0.904798	0.269698
O134	O	1.096020	-0.404798	0.769698
C135	C	0.620412	-0.692852	0.245268
C136	C	1.120412	-0.192852	0.745268
C137	C	0.649156	-0.669379	0.216563
C138	C	1.149156	-0.169379	0.716563
C139	C	0.706656	-0.669348	0.159164
C140	C	1.206656	-0.169348	0.659164
C141	C	0.706640	-0.622433	0.159158
C142	C	1.206640	-0.122433	0.659158
C143	C	0.677882	-0.598990	0.187854
C144	C	1.177882	-0.098990	0.687854
C145	C	0.649140	-0.622463	0.216557
C146	C	1.149140	-0.122463	0.716557
C147	C	0.591656	-0.669407	0.273969
C148	C	1.091656	-0.169407	0.773969
C149	C	0.591646	-0.622486	0.273964
C150	C	1.091646	-0.122486	0.773964
C151	C	0.620390	-0.599013	0.245259
C152	C	1.120390	-0.099013	0.745259
C153	C	0.620367	-0.552106	0.245248
C154	C	1.120367	-0.052106	0.745248
N155	N	0.649112	-0.528630	0.216548
N156	N	1.149112	-0.028630	0.716548
C157	C	0.677869	-0.552072	0.187851
C158	C	1.177869	-0.052072	0.687851
C159	C	0.620494	-0.979055	0.245289
C160	C	1.120494	-0.479055	0.745289
C161	C	0.620507	-1.025973	0.245292
C162	C	1.120507	-0.525973	0.745292
C163	C	0.678012	-1.025939	0.187893
C164	C	1.178012	-0.525939	0.687893
C165	C	0.677996	-0.979021	0.187887
C166	C	1.177996	-0.479021	0.687887
C167	C	0.649239	-0.955579	0.216589
C168	C	1.149239	-0.455579	0.716589
C169	C	0.677834	-0.453547	0.187841
C170	C	1.177834	0.046453	0.687841
C171	C	0.677814	-0.406627	0.187836
C172	C	1.177814	0.093373	0.687836
C173	C	0.620311	-0.406664	0.245237
C174	C	1.120311	0.093336	0.745237
C175	C	0.620329	-0.453580	0.245240
C176	C	1.120329	0.046420	0.745240
C177	C	0.649094	-0.477020	0.216540
C178	C	1.149094	0.022980	0.716540
O179	O	0.595912	-0.527818	0.269629
O180	O	1.095912	-0.027818	0.769629
O181	O	0.702318	-0.527791	0.163447
O182	O	1.202318	-0.027791	0.663447
C183	C	0.677930	-0.739737	0.187872
C184	C	1.177930	-0.239737	0.687872
C185	C	0.649188	-0.763210	0.216574
C186	C	1.149188	-0.263210	0.716574
C187	C	0.620430	-0.739767	0.245271
C188	C	1.120430	-0.239767	0.745271
C189	C	0.649200	-0.810128	0.216578
C190	C	1.149200	-0.310128	0.716578
C191	C	0.677958	-0.833570	0.187881
C192	C	1.177958	-0.333570	0.687881
C193	C	0.706703	-0.810094	0.159181
C194	C	1.206703	-0.310094	0.659181
C195	C	0.706687	-0.763179	0.159175
C196	C	1.206687	-0.263179	0.659175
C197	C	0.591685	-0.763243	0.273971
C198	C	1.091685	-0.263243	0.773971
C199	C	0.591703	-0.810158	0.273974
C200	C	1.091703	-0.310158	0.773974
C201	C	0.620461	-0.833601	0.245277
C202	C	1.120461	-0.333601	0.745277
C203	C	0.766309	-0.216547	0.216582
C204	C	1.266309	0.283453	0.716582
C205	C	0.816244	-0.216555	0.216596
C206	C	1.316244	0.283445	0.716596
C207	C	0.649143	-0.216524	0.333728
C208	C	1.149143	0.283476	0.833728
C209	C	0.649148	-0.216522	0.383662
C210	C	1.149148	0.283478	0.883662
C211	C	0.649225	-0.099349	0.216582
C212	C	1.149225	0.400651	0.716582
C213	C	0.649265	-0.049415	0.216595
C214	C	1.149265	0.450585	0.716595
C215	C	0.649145	-0.216499	0.099827
C216	C	1.149145	0.283501	0.599827
C217	C	0.649227	-0.216374	0.049893
C218	C	1.149227	0.283626	0.549893
C219	C	0.677935	-0.187718	0.693325
C220	C	1.177935	0.312282	1.193325
C221	C	0.677957	-0.187680	0.880998
C222	C	1.177957	0.312320	1.380998
O223	O	0.702399	-0.163232	0.905279
O224	O	1.202399	0.336768	1.405279
N225	N	0.649208	-0.216402	0.904448
N226	N	1.149208	0.283598	1.404448
C227	C	0.620449	-0.245133	0.880976
C228	C	1.120449	0.254867	1.380976
O229	O	0.595993	-0.269559	0.905228
O230	O	1.095993	0.230441	1.405228
C231	C	0.620424	-0.245169	0.693304
C232	C	1.120424	0.254831	1.193304
C233	C	0.649179	-0.216448	0.669857
C234	C	1.149179	0.283552	1.169857
C235	C	0.706687	-0.158999	0.669877
C236	C	1.206687	0.341001	1.169877
C237	C	0.706683	-0.159011	0.622962
C238	C	1.206683	0.340989	1.122962
C239	C	0.677927	-0.187741	0.599494
C240	C	1.177927	0.312259	1.099494
C241	C	0.649175	-0.216460	0.622941
C242	C	1.149175	0.283540	1.122941
C243	C	0.591663	-0.273898	0.669833
C244	C	1.091663	0.226102	1.169833
C245	C	0.591659	-0.273903	0.622912
C246	C	1.091659	0.226097	1.122912
C247	C	0.620414	-0.245183	0.599465
C248	C	1.120414	0.254817	1.099465
C249	C	0.620415	-0.245202	0.552558
C250	C	1.120415	0.254798	1.052558
N251	N	0.649164	-0.216480	0.529108
N252	N	1.149164	0.283520	1.029108
C253	C	0.677920	-0.187749	0.552576
C254	C	1.177920	0.312251	1.052576
C255	C	0.620464	-0.245113	0.979507
C256	C	1.120464	0.254887	1.479507
C257	C	0.620471	-0.245105	1.026425
C258	C	1.120471	0.254895	1.526425
C259	C	0.677979	-0.187650	1.026443
C260	C	1.177979	0.312350	1.526443
C261	C	0.677974	-0.187661	0.979524
C262	C	1.177974	0.312339	1.479524
C263	C	0.649214	-0.216391	0.956057
C264	C	1.149214	0.283609	1.456057
C265	C	0.677910	-0.187776	0.454050
C266	C	1.177910	0.312224	0.954050
C267	C	0.677904	-0.187792	0.407130
C268	C	1.177904	0.312208	0.907130
C269	C	0.620395	-0.245244	0.407116
C270	C	1.120395	0.254756	0.907116
C271	C	0.620401	-0.245230	0.454032
C272	C	1.120401	0.254770	0.954032
C273	C	0.649161	-0.216493	0.477497
C274	C	1.149161	0.283507	0.977497
O275	O	0.595982	-0.269633	0.528248
O276	O	1.095982	0.230367	1.028248
O277	O	0.702366	-0.163320	0.528316
O278	O	1.202366	0.336680	1.028316
C279	C	0.677939	-0.187706	0.740240
C280	C	1.177939	0.312294	1.240240
C281	C	0.649187	-0.216425	0.763688
C282	C	1.149187	0.283575	1.263688
C283	C	0.620431	-0.245155	0.740219
C284	C	1.120431	0.254845	1.240219
C285	C	0.649194	-0.216417	0.810605
C286	C	1.149194	0.283583	1.310605
C287	C	0.677950	-0.187686	0.834074
C288	C	1.177950	0.312314	1.334074
C289	C	0.706699	-0.158964	0.810624
C290	C	1.206699	0.341036	1.310624
C291	C	0.706695	-0.158976	0.763708
C292	C	1.206695	0.341024	1.263708
C293	C	0.591682	-0.273877	0.763669
C294	C	1.091682	0.226123	1.263669
C295	C	0.591689	-0.273864	0.810585
C296	C	1.091689	0.226136	1.310585
C297	C	0.620445	-0.245133	0.834053
C298	C	1.120445	0.254867	1.334053
H299	H	0.478110	-0.268721	0.268545
H300	H	0.978110	0.231279	0.768545
C301	C	0.738291	-0.695129	0.127592
C302	C	1.238291	-0.195129	0.627592
C303	C	0.718859	-0.727410	0.092298
C304	C	1.218859	-0.227410	0.592298
C305	C	0.750494	-0.753187	0.060720
C306	C	1.250494	-0.253187	0.560720
C307	C	0.801561	-0.746681	0.064437
C308	C	1.301561	-0.246681	0.564437
C309	C	0.820995	-0.714398	0.099733
C310	C	1.320995	-0.214398	0.599733
C311	C	0.789360	-0.688622	0.131310
C312	C	1.289360	-0.188622	0.631310
H313	H	0.681054	-0.732228	0.089545
H314	H	1.181054	-0.232228	0.589545
H315	H	0.736107	-0.777085	0.034592
H316	H	1.236107	-0.277085	0.534592
H317	H	0.824979	-0.765762	0.041062
H318	H	1.324979	-0.265762	0.541062
H319	H	0.858800	-0.709581	0.102486
H320	H	1.358800	-0.209581	0.602486
H321	H	0.803747	-0.664723	0.157438
H322	H	1.303747	-0.164723	0.657438
H323	H	0.730047	-0.603324	0.135785
H324	H	1.230047	-0.103324	0.635785
H325	H	0.568274	-0.297256	0.829671
H326	H	1.068274	0.202744	1.329671
H327	H	0.393001	-0.268723	0.268566
H328	H	0.893001	0.231277	0.768566
H329	H	0.596925	-0.472692	0.268615
H330	H	1.096925	0.027308	0.768615
C331	C	0.709534	-0.156195	0.381339
C332	C	1.209534	0.343805	0.881339
C333	C	0.744789	-0.175673	0.349094
C334	C	1.244789	0.324327	0.849094
C335	C	0.776417	-0.144077	0.323304
C336	C	1.276417	0.355923	0.823304
C337	C	0.772790	-0.093004	0.329759
C338	C	1.272790	0.406996	0.829759
C339	C	0.737534	-0.073524	0.362005
C340	C	1.237534	0.426476	0.862005
C341	C	0.705906	-0.105119	0.387795
C342	C	1.205906	0.394881	0.887795
H343	H	0.747475	-0.213483	0.344315
H344	H	1.247475	0.286517	0.844315
H345	H	0.802516	-0.158498	0.299433
H346	H	1.302516	0.341502	0.799433
H347	H	0.796203	-0.069615	0.310668
H348	H	1.296203	0.430385	0.810668
H349	H	0.734848	-0.035714	0.366784
H350	H	1.234848	0.464286	0.866784
H351	H	0.679807	-0.090698	0.411666
H352	H	1.179807	0.409302	0.911666
C353	C	-0.087580	-0.156121	0.156354
C354	C	0.412420	0.343879	0.656354
C355	C	-0.094007	-0.105055	0.160105
C356	C	0.405993	0.394945	0.660105
C357	C	-0.068213	-0.073403	0.128543
C358	C	0.431787	0.426597	0.628543
C359	C	-0.035990	-0.092816	0.093231
C360	C	0.464010	0.407184	0.593231
C361	C	-0.029561	-0.143884	0.089479
C362	C	0.470439	0.356116	0.589479
C363	C	-0.055356	-0.175537	0.121040
C364	C	0.444644	0.324463	0.621040
H365	H	-0.117862	-0.090682	0.186247
H366	H	0.382138	0.409318	0.686247
H367	H	-0.072972	-0.035599	0.131321
H368	H	0.427028	0.464401	0.631321
H369	H	-0.016895	-0.069386	0.069867
H370	H	0.483105	0.430614	0.569867
H371	H	-0.005707	-0.158257	0.063337
H372	H	0.494293	0.341743	0.563337
H373	H	-0.050597	-0.213341	0.118263
H374	H	0.449403	0.286659	0.618263
H375	H	0.568248	-0.688511	0.297342
H376	H	1.068248	-0.188511	0.797342
H377	H	-0.179390	-0.164352	0.164561
H378	H	0.320610	0.335648	0.664561
H379	H	0.262305	-0.135529	0.135852
H380	H	0.762305	0.364471	0.635852
C381	C	0.029718	-0.305734	0.305484
C382	C	0.529718	0.194266	0.805484
C383	C	0.036129	-0.356801	0.301727
C384	C	0.536129	0.143199	0.801727
C385	C	0.010315	-0.388450	0.333277
C386	C	0.510315	0.111550	0.833277
C387	C	-0.021911	-0.369031	0.368584
C388	C	0.478089	0.130969	0.868584
C389	C	-0.028324	-0.317962	0.372342
C390	C	0.471676	0.182038	0.872342
C391	C	-0.002509	-0.286313	0.340792
C392	C	0.497491	0.213687	0.840792
H393	H	0.059986	-0.371178	0.275590
H394	H	0.559986	0.128822	0.775590
H395	H	0.015063	-0.426255	0.330495
H396	H	0.515063	0.073745	0.830495
H397	H	-0.041020	-0.392459	0.391939
H398	H	0.458980	0.107541	0.891939
H399	H	-0.052180	-0.303585	0.398479
H400	H	0.447820	0.196415	0.898479
H401	H	-0.007257	-0.248508	0.343574
H402	H	0.492743	0.251492	0.843574
H403	H	0.597044	-0.268511	0.960404
H404	H	1.097044	0.231489	1.460404
C405	C	0.386288	-0.156086	0.156308
C406	C	0.886288	0.343914	0.656308
C407	C	0.392776	-0.105021	0.160075
C408	C	0.892776	0.394979	0.660075
C409	C	0.366970	-0.073361	0.128543
C410	C	0.866970	0.426639	0.628543
C411	C	0.334677	-0.092766	0.093243
C412	C	0.834677	0.407234	0.593243
C413	C	0.328189	-0.143834	0.089474
C414	C	0.828189	0.356166	0.589474
C415	C	0.353994	-0.175494	0.121006
C416	C	0.853994	0.324506	0.621006
H417	H	0.416682	-0.090654	0.186207
H418	H	0.916682	0.409346	0.686207
H419	H	0.371773	-0.035557	0.131333
H420	H	0.871773	0.464443	0.631333
H421	H	0.315574	-0.069330	0.069901
H422	H	0.815574	0.430670	0.569901
H423	H	0.304282	-0.158201	0.063342
H424	H	0.804282	0.341799	0.563342
H425	H	0.349191	-0.213298	0.118216
H426	H	0.849191	0.286702	0.618216
C427	C	0.588680	-0.380871	0.276803
C428	C	1.088680	0.119129	0.776803
C429	C	0.553417	-0.348653	0.257295
C430	C	1.053417	0.151347	0.757295
C431	C	0.521789	-0.322857	0.288863
C432	C	1.021789	0.177143	0.788863
C433	C	0.525425	-0.329279	0.339940
C434	C	1.025425	0.170721	0.839940
C435	C	0.560690	-0.361498	0.359450
C436	C	1.060690	0.138502	0.859450
C437	C	0.592318	-0.387294	0.327882
C438	C	1.092318	0.112706	0.827882
H439	H	0.550724	-0.343897	0.219482
H440	H	1.050724	0.156103	0.719482
H441	H	0.495684	-0.299006	0.274420
H442	H	0.995684	0.200994	0.774420
H443	H	0.502012	-0.310184	0.363309
H444	H	1.002012	0.189816	0.863309
H445	H	0.563383	-0.366254	0.397263
H446	H	1.063383	0.133746	0.897263
H447	H	0.618423	-0.411145	0.342325
H448	H	1.118423	0.088855	0.842325
C449	C	0.560010	-0.596701	0.305534
C450	C	1.060010	-0.096701	0.805534
C451	C	0.508944	-0.603204	0.301814
C452	C	1.008944	-0.103204	0.801814
C453	C	0.477307	-0.577419	0.333382
C454	C	0.977307	-0.077419	0.833382
C455	C	0.496737	-0.545131	0.368672
C456	C	0.996737	-0.045131	0.868672
C457	C	0.547807	-0.538627	0.372394
C458	C	1.047807	-0.038627	0.872394
C459	C	0.579443	-0.564411	0.340825
C460	C	1.079443	-0.064411	0.840825
H461	H	0.494558	-0.627107	0.275689
H462	H	0.994558	-0.127107	0.775689
H463	H	0.439502	-0.582235	0.330627
H464	H	0.939502	-0.082235	0.830627
H465	H	0.473318	-0.526044	0.392041
H466	H	0.973318	-0.026044	0.892041
H467	H	0.562192	-0.514724	0.398519
H468	H	1.062192	-0.014724	0.898519
H469	H	0.617248	-0.559596	0.343581
H470	H	1.117248	-0.059596	0.843581
H471	H	0.121538	-0.297512	0.297278
H472	H	0.621538	0.202488	0.797278
C473	C	0.588775	-0.276831	0.479820
C474	C	1.088775	0.223169	0.979820
C475	C	0.553515	-0.257360	0.512062
C476	C	1.053515	0.242640	1.012062
C477	C	0.521884	-0.288960	0.537843
C478	C	1.021884	0.211040	1.037843
C479	C	0.525514	-0.340033	0.531381
C480	C	1.025514	0.159967	1.031381
C481	C	0.560776	-0.359507	0.499137
C482	C	1.060776	0.140493	0.999137
C483	C	0.592406	-0.327906	0.473356
C484	C	1.092406	0.172094	0.973356
H485	H	0.550826	-0.219550	0.516847
H486	H	1.050826	0.280450	1.016847
H487	H	0.495781	-0.274544	0.561712
H488	H	0.995781	0.225456	1.061712
H489	H	0.502099	-0.363425	0.550466
H490	H	1.002099	0.136575	1.050466
H491	H	0.563464	-0.397316	0.494353
H492	H	1.063464	0.102684	0.994353
H493	H	0.618509	-0.342323	0.449487
H494	H	1.118509	0.157677	0.949487
C495	C	0.588857	-0.953274	0.276861
C496	C	1.088857	-0.453274	0.776861
C497	C	0.537790	-0.959779	0.273137
C498	C	1.037790	-0.459779	0.773137
C499	C	0.506151	-0.934002	0.304709
C500	C	1.006151	-0.434002	0.804709
C501	C	0.525578	-0.901720	0.340006
C502	C	1.025578	-0.401720	0.840006
C503	C	0.576647	-0.895213	0.343731
C504	C	1.076647	-0.395213	0.843731
C505	C	0.608286	-0.920990	0.312159
C506	C	1.108286	-0.420990	0.812159
H507	H	0.523407	-0.983678	0.247007
H508	H	1.023407	-0.483678	0.747007
H509	H	0.468347	-0.938818	0.301951
H510	H	0.968347	-0.438818	0.801951
H511	H	0.502157	-0.882638	0.363377
H512	H	1.002157	-0.382638	0.863377
H513	H	0.591030	-0.871315	0.369861
H514	H	1.091030	-0.371315	0.869861
H515	H	0.646091	-0.916174	0.314918
H516	H	1.146091	-0.416174	0.814918
H517	H	0.036441	-0.135556	0.135871
H518	H	0.536441	0.364444	0.635871
C519	C	0.738324	-0.127380	0.737921
C520	C	1.238324	0.372620	1.237921
C521	C	0.734696	-0.076307	0.744382
C522	C	1.234696	0.423693	1.244382
C523	C	0.766326	-0.044708	0.718599
C524	C	1.266326	0.455292	1.218599
C525	C	0.801583	-0.064181	0.686354
C526	C	1.301583	0.435819	1.186354
C527	C	0.805212	-0.115256	0.679891
C528	C	1.305212	0.384744	1.179891
C529	C	0.773582	-0.146856	0.705674
C530	C	1.273582	0.353144	1.205674
H531	H	0.708596	-0.061889	0.768253
H532	H	1.208596	0.438111	1.268253
H533	H	0.763640	-0.006898	0.723383
H534	H	1.263640	0.493102	1.223383
H535	H	0.824997	-0.040790	0.667267
H536	H	1.324997	0.459210	1.167267
H537	H	0.831312	-0.129674	0.656020
H538	H	1.331312	0.370326	1.156020
H539	H	0.776269	-0.184665	0.700890
H540	H	1.276269	0.315335	1.200890
C541	C	0.709547	-0.156167	0.479858
C542	C	1.209547	0.343833	0.979858
C543	C	0.690120	-0.120880	0.512108
C544	C	1.190120	0.379120	1.012108
C545	C	0.721759	-0.089274	0.537915
C546	C	1.221759	0.410726	1.037915
C547	C	0.772826	-0.092956	0.531472
C548	C	1.272826	0.407044	1.031472
C549	C	0.792256	-0.128245	0.499220
C550	C	1.292256	0.371755	0.999220
C551	C	0.760616	-0.159851	0.473413
C552	C	1.260616	0.340149	0.973413
H553	H	0.652314	-0.118153	0.516879
H554	H	1.152314	0.381847	1.016879
H555	H	0.707375	-0.063151	0.561790
H556	H	1.207375	0.436849	1.061790
H557	H	0.796247	-0.069559	0.550576
H558	H	1.296247	0.430441	1.050576
H559	H	0.830061	-0.130971	0.494449
H560	H	1.330061	0.369029	0.994449
H561	H	0.775000	-0.185974	0.449538
H562	H	1.275000	0.314026	0.949538
H563	H	0.596984	-0.268637	0.388000
H564	H	1.096984	0.231363	0.888000
H565	H	0.478121	-0.164309	0.164485
H566	H	0.978121	0.335691	0.664485
H567	H	0.701388	-0.164274	0.960437
H568	H	1.201388	0.335726	1.460437
H569	H	0.597061	-0.268497	1.045512
H570	H	1.097061	0.231503	1.545512
C571	C	0.560047	-0.737462	0.305538
C572	C	1.060047	-0.237462	0.805538
C573	C	0.524776	-0.705253	0.286029
C574	C	1.024776	-0.205253	0.786029
C575	C	0.493132	-0.679475	0.317597
C576	C	0.993132	-0.179475	0.817597
C577	C	0.496760	-0.685906	0.368673
C578	C	0.996760	-0.185906	0.868673
C579	C	0.532033	-0.718117	0.388184
C580	C	1.032033	-0.218117	0.888184
C581	C	0.563676	-0.743895	0.356616
C582	C	1.063676	-0.243895	0.856616
H583	H	0.522089	-0.700490	0.248217
H584	H	1.022089	-0.200490	0.748217
H585	H	0.467021	-0.655630	0.303153
H586	H	0.967021	-0.155630	0.803153
H587	H	0.473336	-0.666823	0.392041
H588	H	0.973336	-0.166823	0.892041
H589	H	0.534719	-0.722879	0.425996
H590	H	1.034719	-0.222879	0.925996
H591	H	0.589787	-0.767739	0.371060
H592	H	1.089787	-0.267739	0.871060
C593	C	0.738338	-0.835887	0.127615
C594	C	1.238338	-0.335887	0.627615
C595	C	0.718905	-0.868179	0.092330
C596	C	1.218905	-0.368179	0.592330
C597	C	0.750540	-0.893974	0.060769
C598	C	1.250540	-0.393974	0.560769
C599	C	0.801608	-0.887477	0.064491
C600	C	1.301608	-0.387477	0.564491
C601	C	0.821043	-0.855184	0.099777
C602	C	1.321043	-0.355184	0.599777
C603	C	0.789408	-0.829389	0.131339
C604	C	1.289408	-0.329389	0.631339
H605	H	0.681100	-0.872989	0.089573
H606	H	1.181100	-0.372989	0.589573
H607	H	0.736153	-0.917880	0.034647
H608	H	1.236153	-0.417880	0.534647
H609	H	0.825026	-0.906572	0.041127
H610	H	1.325026	-0.406572	0.541127
H611	H	0.858848	-0.850373	0.102534
H612	H	1.358848	-0.350373	0.602534
H613	H	0.803796	-0.805483	0.157460
H614	H	1.303796	-0.305483	0.657460
H615	H	0.701402	-0.959912	0.164514
H616	H	1.201402	-0.459912	0.664514
C617	C	0.709472	-0.479326	0.156269
C618	C	1.209472	0.020674	0.656269
C619	C	0.690041	-0.511613	0.120979
C620	C	1.190041	-0.011613	0.620979
C621	C	0.721676	-0.537392	0.089405
C622	C	1.221676	-0.037392	0.589405
C623	C	0.772743	-0.530886	0.093121
C624	C	1.272743	-0.030886	0.593121
C625	C	0.792177	-0.498598	0.128413
C626	C	1.292177	0.001402	0.628413
C627	C	0.760541	-0.472818	0.159987
C628	C	1.260541	0.027182	0.659987
H629	H	0.652236	-0.516430	0.118226
H630	H	1.152236	-0.016430	0.618226
H631	H	0.707290	-0.561294	0.063279
H632	H	1.207290	-0.061294	0.563279
H633	H	0.796162	-0.549970	0.069749
H634	H	1.296162	-0.049970	0.569749
H635	H	0.829982	-0.493780	0.131166
H636	H	1.329982	0.006220	0.631166
H637	H	0.774928	-0.448917	0.186113
H638	H	1.274928	0.051083	0.686113
C639	C	0.709609	-0.156044	1.052264
C640	C	1.209609	0.343956	1.552264
C641	C	0.709610	-0.156037	1.103871
C642	C	1.209610	0.343963	1.603871
C643	C	0.741236	-0.124430	1.129694
C644	C	1.241236	0.375570	1.629694
C645	C	0.772860	-0.092830	1.103909
C646	C	1.272860	0.407170	1.603909
C647	C	0.772860	-0.092837	1.052298
C648	C	1.272860	0.407163	1.552298
C649	C	0.741235	-0.124444	1.026476
C650	C	1.241235	0.375556	1.526476
H651	H	0.686199	-0.179429	1.122962
H652	H	1.186199	0.320571	1.622962
H653	H	0.741236	-0.124425	1.167900
H654	H	1.241236	0.375575	1.667900
H655	H	0.796271	-0.069433	1.123025
H656	H	1.296271	0.430567	1.623025
H657	H	0.796272	-0.069444	1.033208
H658	H	1.296272	0.430556	1.533208
H659	H	0.741235	-0.124448	0.988270
H660	H	1.241235	0.375552	1.488270
C661	C	0.560017	-0.305482	0.695610
C662	C	1.060017	0.194518	1.195610
C663	C	0.563618	-0.356557	0.689149
C664	C	1.063618	0.143443	1.189149
C665	C	0.531963	-0.388139	0.714922
C666	C	1.031963	0.111861	1.214922
C667	C	0.496706	-0.368646	0.747156
C668	C	0.996706	0.131354	1.247156
C669	C	0.493103	-0.317569	0.753618
C670	C	0.993103	0.182431	1.253618
C671	C	0.524759	-0.285987	0.727845
C672	C	1.024759	0.214013	1.227845
H673	H	0.589719	-0.370988	0.665287
H674	H	1.089719	0.129012	1.165287
H675	H	0.534630	-0.425949	0.710138
H676	H	1.034630	0.074051	1.210138
H677	H	0.473272	-0.392025	0.766234
H678	H	0.973272	0.107975	1.266234
H679	H	0.467002	-0.303137	0.777481
H680	H	0.967002	0.196863	1.277481
H681	H	0.522091	-0.248176	0.732629
H682	H	1.022091	0.251824	1.232629
H683	H	0.177197	-0.135539	0.135854
H684	H	0.677197	0.364461	0.635854
H685	H	0.121547	-0.135551	0.135861
H686	H	0.621547	0.364449	0.635861
H687	H	0.730097	-0.135623	0.603875
H688	H	1.230097	0.364377	1.103875
C689	C	0.709435	-0.380808	0.156260
C690	C	1.209435	0.119192	0.656260
C691	C	0.705809	-0.387288	0.105185
C692	C	1.205809	0.112712	0.605185
C693	C	0.737430	-0.361471	0.073611
C694	C	1.237430	0.138529	0.573611
C695	C	0.772677	-0.329173	0.093111
C696	C	1.272677	0.170827	0.593111
C697	C	0.776305	-0.322692	0.144188
C698	C	1.276305	0.177308	0.644188
C699	C	0.744684	-0.348509	0.175762
C700	C	1.244684	0.151491	0.675762
H701	H	0.679716	-0.411197	0.090748
H702	H	1.179716	0.088803	0.590748
H703	H	0.734745	-0.366269	0.035800
H704	H	1.234745	0.133731	0.535800
H705	H	0.796085	-0.310062	0.069737
H706	H	1.296085	0.189938	0.569737
H707	H	0.802398	-0.298782	0.158625
H708	H	1.302398	0.201218	0.658625
H709	H	0.747370	-0.343711	0.213573
H710	H	1.247370	0.156289	0.713573
H711	H	0.597097	-1.045080	0.268662
H712	H	1.097097	-0.545080	0.768662
C713	C	0.738331	-0.127360	0.836445
C714	C	1.238331	0.372640	1.336445
C715	C	0.773585	-0.146826	0.868712
C716	C	1.273585	0.353174	1.368712
C717	C	0.805212	-0.115221	0.894535
C718	C	1.305212	0.384779	1.394535
C719	C	0.801585	-0.064150	0.888092
C720	C	1.301585	0.435850	1.388092
C721	C	0.766329	-0.044681	0.855823
C722	C	1.266329	0.455319	1.355823
C723	C	0.734702	-0.076286	0.830000
C724	C	1.234702	0.423714	1.330000
H725	H	0.776272	-0.184634	0.873483
H726	H	1.276272	0.315366	1.373483
H727	H	0.831311	-0.129634	0.918422
H728	H	1.331311	0.370366	1.418422
H729	H	0.824997	-0.040754	0.907208
H730	H	1.324997	0.459246	1.407208
H731	H	0.763643	-0.006873	0.851052
H732	H	1.263643	0.493127	1.351052
H733	H	0.708603	-0.061873	0.806113
H734	H	1.208603	0.438127	1.306113
H735	H	0.701427	-1.045034	0.164527
H736	H	1.201427	-0.545034	0.664527
H737	H	0.262285	-0.297506	0.297258
H738	H	0.762285	0.202494	0.797258
H739	H	0.177180	-0.297509	0.297271
H740	H	0.677180	0.202491	0.797271
H741	H	-0.094285	-0.268759	0.268619
H742	H	0.405715	0.231241	0.768619
H743	H	-0.179407	-0.268759	0.268628
H744	H	0.320593	0.231241	0.768628
H745	H	0.730093	-0.744071	0.135801
H746	H	1.230093	-0.244071	0.635801
H747	H	0.568233	-0.297294	0.603808
H748	H	1.068233	0.202706	1.103808
H749	H	0.568292	-0.829266	0.297349
H750	H	1.068292	-0.329266	0.797349
H751	H	0.730104	-0.135601	0.688980
H752	H	1.230104	0.364399	1.188980
H753	H	0.568265	-0.297274	0.744566
H754	H	1.068265	0.202726	1.244566
