data_functionalizedCrystal
_audit_creation_method	'MofGen! by Chris Wilmer'
_symmetry_space_group_name_H-M	'P1'
_symmetry_Int_Tables_number	1
_symmetry_cell_setting	triclinic
loop_
_symmetry_equiv_pos_as_xyz
  x,y,z
_cell_length_a	16.956995
_cell_length_b	14.853567
_cell_length_c	15.455313
_cell_angle_alpha	92.672621
_cell_angle_beta	87.515363
_cell_angle_gamma	79.844701
loop_
_atom_site_label
_atom_site_type_symbol
_atom_site_fract_x
_atom_site_fract_y
_atom_site_fract_z
O1	O	1.061572	0.033154	-0.072188
O2	O	0.829449	0.064802	-0.072175
O3	O	0.951711	-0.082722	-0.072185
O4	O	0.939310	0.180679	-0.072179
O5	O	0.944719	-0.074319	0.072078
O6	O	0.822457	0.073206	0.072088
O7	O	1.054580	0.041558	0.072074
Cu8	Cu	0.937880	0.058149	0.085253
Cu9	Cu	0.946149	0.048211	-0.085354
O10	O	0.932318	0.189083	0.072084
C11	C	0.796247	0.070625	-0.000042
C12	C	0.707731	0.075442	-0.000037
C13	C	0.208473	0.111480	-0.000069
C14	C	0.291643	0.106946	-0.000068
C15	C	0.342636	0.021850	-0.000064
C16	C	0.310457	-0.058718	-0.000068
C17	C	0.227288	-0.054184	-0.000075
C18	C	0.592383	-0.000592	-0.000049
C19	C	0.675557	-0.005120	-0.000040
C20	C	0.656737	0.160545	-0.000041
C21	C	0.573567	0.165072	-0.000043
C22	C	0.541395	0.084503	-0.000052
N23	N	0.427650	0.017214	-0.000060
N24	N	0.456384	0.089140	-0.000062
C25	C	0.947653	-0.112067	-0.000056
C26	C	0.945970	-0.212023	-0.000063
C27	C	0.866225	-0.618501	-0.000042
C28	C	1.011475	-0.650811	-0.000051
C29	C	1.013058	-0.556898	-0.000056
C30	C	0.941224	-0.493781	-0.000053
C31	C	0.867806	-0.524578	-0.000045
C32	C	1.086474	-0.526094	-0.000055
C33	C	1.088061	-0.432175	-0.000059
C34	C	1.016226	-0.369057	-0.000063
C35	C	0.942805	-0.399859	-0.000056
C36	C	0.870971	-0.336742	-0.000053
C37	C	0.797550	-0.367542	-0.000052
C38	C	0.795971	-0.461460	-0.000048
C39	C	1.017804	-0.275140	-0.000066
C40	C	0.872552	-0.242820	-0.000055
C41	C	1.087782	0.035736	-0.000061
C42	C	1.176298	0.030918	-0.000071
C43	C	0.936376	0.218427	-0.000047
C44	C	0.938059	0.318383	-0.000045
N45	N	0.932071	0.065138	0.205249
N46	N	0.951965	0.041215	-0.205350
C47	C	0.984030	0.002485	0.250639
C48	C	0.979644	0.007778	0.341447
C49	C	0.923301	0.075729	0.386864
C50	C	0.871337	0.138386	0.341468
C51	C	0.875720	0.133088	0.250661
C52	C	0.904383	0.098573	0.658447
C53	C	0.900005	0.103868	0.749260
C54	C	1.008312	-0.026742	0.749233
C55	C	1.012693	-0.032030	0.658425
C56	C	0.960725	0.030623	0.613037
N57	N	0.918818	0.081143	0.479685
N58	N	0.965205	0.025205	0.520218
H59	H	0.717075	-0.074419	-0.000040
H60	H	0.166958	0.180775	-0.000066
H61	H	1.058571	-0.087361	0.621449
O62	O	0.819683	0.200667	0.201698
H63	H	0.779773	0.248814	0.248532
O64	O	1.035697	-0.059799	0.390393
H65	H	1.000100	-0.098737	0.431771
H66	H	0.806448	-0.643583	-0.000045
O67	O	0.810570	0.211679	0.390453
H68	H	0.821647	0.280184	0.373004
H69	H	0.739062	-0.316140	-0.000043
O70	O	1.167251	-0.398968	-0.000074
H71	H	1.168607	-0.353527	0.058724
O72	O	0.518572	0.256857	-0.000046
H73	H	0.483081	0.259458	-0.058843
H74	H	0.862070	0.149589	0.621499
H75	H	1.050620	-0.077752	0.786197
H76	H	0.566199	-0.066196	-0.000054
O77	O	0.716789	-0.494685	-0.000042
H78	H	0.667102	-0.435021	-0.000049
O79	O	0.839224	0.177151	0.798251
H80	H	0.803816	0.219821	0.751434
H81	H	1.029913	-0.052845	0.213667
O82	O	0.326348	0.193838	-0.000046
H83	H	0.276915	0.253773	-0.000032
H84	H	0.682941	0.226139	-0.000035
H85	H	0.351983	-0.128005	-0.000070
H86	H	0.201094	-0.119786	-0.000079
H87	H	0.814055	-0.191435	-0.000057
H88	H	1.069959	-0.702205	-0.000046
H89	H	1.144957	-0.577489	-0.000050
O90	O	1.096983	-0.241914	-0.000073
H91	H	1.146668	-0.301581	-0.000078
