data_functionalizedCrystal
_audit_creation_method	'MofGen! by Chris Wilmer'
_symmetry_space_group_name_H-M	'P1'
_symmetry_Int_Tables_number	1
_symmetry_cell_setting	triclinic
loop_
_symmetry_equiv_pos_as_xyz
  x,y,z
_cell_length_a	16.974800
_cell_length_b	27.731996
_cell_length_c	15.455313
_cell_angle_alpha	92.636264
_cell_angle_beta	90.973911
_cell_angle_gamma	83.006863
loop_
_atom_site_label
_atom_site_type_symbol
_atom_site_fract_x
_atom_site_fract_y
_atom_site_fract_z
O1	O	1.048306	0.061617	0.001473
O2	O	0.818781	0.068999	-0.014648
O3	O	0.940693	-0.005047	-0.006066
O4	O	0.926395	0.135664	-0.007108
O5	O	0.933721	-0.000831	0.137705
O6	O	0.811810	0.073216	0.129124
O7	O	1.041335	0.065834	0.145245
Cu8	Cu	0.925936	0.069910	0.150312
Cu9	Cu	0.934180	0.064923	-0.019715
O10	O	0.919423	0.139880	0.136663
C11	C	0.785941	0.070749	0.055176
C12	C	0.698472	0.069677	0.049034
C13	C	0.653584	0.071470	0.124520
C14	C	0.571400	0.070455	0.118751
C15	C	0.534105	0.067649	0.037495
C16	C	0.579000	0.065854	-0.037997
C17	C	0.661183	0.066866	-0.032227
C18	C	0.288722	0.064373	0.011834
C19	C	0.206532	0.063363	0.006070
C20	C	0.198939	0.067962	0.162818
C21	C	0.281123	0.068977	0.168581
C22	C	0.326011	0.067179	0.093089
N23	N	0.450100	0.066613	0.031596
N24	N	0.410016	0.068212	0.098989
C25	C	0.936913	-0.020948	0.065802
C26	C	0.936028	-0.074609	0.065748
C27	C	0.934263	-0.409658	-0.013055
C28	C	0.930904	-0.611337	-0.013306
O29	O	0.933668	-0.639365	-0.079990
N30	N	0.926687	-0.634258	0.065034
C31	C	0.923304	-0.606756	0.143442
O32	O	0.919632	-0.630879	0.210068
C33	C	0.926657	-0.405078	0.143691
C34	C	0.930883	-0.382160	0.065347
C35	C	0.938488	-0.386740	-0.091393
C36	C	0.939332	-0.336324	-0.091329
C37	C	0.935951	-0.308826	-0.012927
C38	C	0.931727	-0.331744	0.065411
C39	C	0.923269	-0.377576	0.222098
C40	C	0.924106	-0.327153	0.222153
C41	C	0.928331	-0.304236	0.143809
C42	C	0.929191	-0.253829	0.143877
N43	N	0.933408	-0.230908	0.065537
C44	C	0.936788	-0.258406	-0.012865
C45	C	0.921545	-0.712640	0.143305
C46	C	0.920708	-0.763059	0.143243
C47	C	0.928307	-0.767637	-0.013505
C48	C	0.929149	-0.717217	-0.013442
C49	C	0.925762	-0.689719	0.064965
C50	C	0.938561	-0.152528	-0.012725
C51	C	0.939408	-0.102108	-0.012654
C52	C	0.931805	-0.097534	0.144093
C53	C	0.930962	-0.147951	0.144023
C54	C	0.934338	-0.175447	0.065607
O55	O	0.926420	-0.225770	0.210525
O56	O	0.940443	-0.234273	-0.079482
C57	C	0.933419	-0.460075	-0.013119
C58	C	0.929195	-0.482993	0.065219
C59	C	0.925815	-0.455494	0.143621
C60	C	0.928358	-0.533412	0.065157
C61	C	0.931738	-0.560911	-0.013245
C62	C	0.935955	-0.537989	-0.091584
C63	C	0.936799	-0.487573	-0.091520
C64	C	0.921597	-0.478415	0.221961
C65	C	0.920754	-0.528832	0.221891
C66	C	0.924135	-0.556330	0.143489
C67	C	1.074175	0.064084	0.075419
C68	C	1.161644	0.065156	0.081556
C69	C	0.923203	0.155781	0.064793
C70	C	0.924088	0.209442	0.064841
N71	N	0.920143	0.073417	0.269899
N72	N	0.939979	0.061412	-0.139302
C73	C	0.971953	0.041971	0.318940
C74	C	0.967579	0.044628	0.409440
C75	C	0.911399	0.078734	0.450898
C76	C	0.859583	0.110181	0.401850
C77	C	0.863954	0.107521	0.311352
C78	C	0.892534	0.090200	0.721152
C79	C	0.888169	0.092858	0.811657
C80	C	0.996165	0.027304	0.819241
C81	C	1.000533	0.024650	0.728740
C82	C	0.948715	0.056095	0.679700
N83	N	0.906929	0.081451	0.543404
N84	N	0.953182	0.053375	0.587196
H85	H	0.311483	0.071259	0.234748
H86	H	1.017704	0.014201	0.285192
O87	O	0.939092	-0.564719	-0.167730
C88	C	0.874263	-0.618947	-0.263506
C89	C	0.870610	-0.588684	-0.177266
H90	H	0.818910	-0.638339	-0.271235
H91	H	0.877373	-0.593933	-0.319539
H92	H	0.929250	-0.647001	-0.263560
H93	H	0.815629	-0.560627	-0.177127
H94	H	0.867543	-0.613729	-0.121271
O95	O	1.046600	-0.003199	0.866844
C96	C	1.182634	-0.030507	0.904113
C97	C	1.125606	0.004076	0.850174
H98	H	1.246522	-0.024645	0.890641
H99	H	1.169932	-0.022753	0.975933
H100	H	1.173661	-0.069756	0.885653
H101	H	1.134546	0.043337	0.868559
H102	H	1.138322	-0.003720	0.778368
H103	H	1.009766	0.019022	0.449370
O104	O	0.927016	-0.170247	0.220117
C105	C	0.989936	-0.229916	0.315793
C106	C	0.994518	-0.204703	0.229601
H107	H	1.044496	-0.257786	0.323480
H108	H	0.987722	-0.201621	0.371872
H109	H	0.934158	-0.249029	0.315809
H110	H	1.050290	-0.185591	0.229500
H111	H	0.996687	-0.233020	0.173560
H112	H	0.813836	0.137949	0.435610
H113	H	0.821764	0.133127	0.271423
H114	H	0.850343	0.115805	0.681230
H115	H	0.325260	0.062908	-0.049637
O116	O	1.055015	-0.008637	0.688698
C117	C	1.103372	-0.093495	0.665003
C118	C	1.041619	-0.055794	0.710258
H119	H	1.092574	-0.131630	0.682432
H120	H	1.097767	-0.090181	0.591846
H121	H	1.165536	-0.086580	0.687278
H122	H	0.979428	-0.062685	0.688053
H123	H	1.047295	-0.059117	0.783408
H124	H	0.176169	0.061079	-0.060102
O125	O	0.689793	0.074109	0.203474
C126	C	0.717857	0.036524	0.339904
C127	C	0.676832	0.033471	0.250507
H128	H	0.707378	0.003678	0.377962
H129	H	0.784320	0.036910	0.331116
H130	H	0.692194	0.071268	0.376838
H131	H	0.702429	-0.001269	0.213525
H132	H	0.610371	0.033112	0.259356
O133	O	0.527788	0.072107	0.192058
C134	C	0.440030	0.031799	0.277174
C135	C	0.489397	0.029865	0.194124
H136	H	0.408965	-0.002345	0.278863
H137	H	0.480779	0.033948	0.336267
H138	H	0.393753	0.065248	0.277847
H139	H	0.535679	-0.003582	0.193367
H140	H	0.448598	0.027742	0.135068
H141	H	0.842418	0.120633	0.845407
O142	O	0.155350	0.069791	0.236169
C143	C	0.114298	0.115229	0.367731
C144	C	0.163679	0.113229	0.284681
H145	H	0.121028	0.150341	0.406985
H146	H	0.049134	0.114056	0.349704
H147	H	0.136220	0.082748	0.408018
H148	H	0.141826	0.145704	0.244355
H149	H	0.228835	0.114378	0.302769
H150	H	0.548628	0.063566	-0.104157
O151	O	0.704666	0.065145	-0.105640
C152	C	0.703535	0.060451	-0.261721
C153	C	0.654194	0.062410	-0.178648
H154	H	0.662752	0.058229	-0.320769
H155	H	0.734543	0.094612	-0.263543
H156	H	0.749856	0.027024	-0.262345
H157	H	0.607833	0.095816	-0.177969
H158	H	0.623243	0.028226	-0.176858
O159	O	0.928398	-0.070855	0.220292
C160	C	0.853797	-0.046085	0.349423
C161	C	0.857580	-0.076334	0.263167
H162	H	0.796539	-0.050495	0.384104
H163	H	0.906875	-0.059213	0.392017
H164	H	0.855156	-0.006120	0.335973
H165	H	0.856197	-0.116305	0.276536
H166	H	0.804506	-0.063166	0.220600
O167	O	0.916535	-0.551133	0.297941
C168	C	0.842809	-0.599961	0.384063
C169	C	0.847517	-0.574744	0.297894
H170	H	0.787004	-0.619048	0.384061
H171	H	0.897345	-0.627838	0.391867
H172	H	0.840571	-0.571631	0.440086
H173	H	0.849730	-0.603038	0.241820
H174	H	0.792982	-0.546858	0.290166
H175	H	0.921336	-0.304766	0.286002
O176	O	0.918123	-0.685902	0.219445
C177	C	0.846398	-0.620923	0.305697
C178	C	0.850161	-0.651170	0.219439
H179	H	0.791464	-0.592829	0.305714
H180	H	0.843191	-0.645946	0.361699
H181	H	0.901796	-0.601579	0.313514
H182	H	0.794777	-0.670518	0.211538
H183	H	0.853407	-0.626123	0.163482
H184	H	0.942769	-0.317669	-0.155125
H185	H	0.942851	-0.083451	-0.076454
H186	H	0.941306	-0.174909	-0.076579
O187	O	0.919010	-0.399789	0.298221
C188	C	0.843948	-0.405849	0.427389
C189	C	0.848671	-0.380670	0.341185
H190	H	0.787092	-0.390394	0.462159
H191	H	0.843869	-0.446611	0.413959
H192	H	0.897427	-0.399161	0.469899
H193	H	0.795205	-0.387320	0.298633
H194	H	0.848789	-0.339916	0.354679
O195	O	0.941814	-0.413379	-0.167633
C196	C	0.949407	-0.412578	-0.323099
C197	C	0.945653	-0.382358	-0.236812
H198	H	0.952495	-0.387509	-0.379053
H199	H	1.004393	-0.440636	-0.323234
H200	H	0.894050	-0.431962	-0.330889
H201	H	1.000971	-0.362944	-0.228966
H202	H	0.890633	-0.354329	-0.236716
O203	O	0.918428	-0.451664	0.298076
C204	C	0.983300	-0.397503	0.393946
C205	C	0.986974	-0.427766	0.307706
H206	H	1.038720	-0.378182	0.401768
H207	H	0.928375	-0.369399	0.394046
H208	H	0.980103	-0.422556	0.449904
H209	H	0.990201	-0.402752	0.251701
H210	H	1.041890	-0.455875	0.307681
H211	H	0.931060	-0.790035	-0.077343
O212	O	0.933124	-0.694897	-0.089504
C213	C	0.870119	-0.635288	-0.185239
C214	C	0.865540	-0.660512	-0.099057
H215	H	0.815477	-0.607489	-0.192999
H216	H	0.925826	-0.616106	-0.185299
H217	H	0.872423	-0.663624	-0.241254
H218	H	0.863206	-0.632206	-0.042995
H219	H	0.809842	-0.679703	-0.099073
O220	O	0.916575	-0.785240	0.219422
C221	C	0.909169	-0.775367	0.374903
C222	C	0.913836	-0.750188	0.288689
H223	H	0.906970	-0.747041	0.430928
H224	H	0.853402	-0.794490	0.374979
H225	H	0.963744	-0.803222	0.382625
H226	H	0.859301	-0.722312	0.280911
H227	H	0.969637	-0.731098	0.288651
H228	H	0.940240	-0.468918	-0.155317
