data_functionalizedCrystal
_audit_creation_method	'MofGen! by Chris Wilmer'
_symmetry_space_group_name_H-M	'P1'
_symmetry_Int_Tables_number	1
_symmetry_cell_setting	triclinic
loop_
_symmetry_equiv_pos_as_xyz
  x,y,z
_cell_length_a	11.026660
_cell_length_b	15.500215
_cell_length_c	17.019250
_cell_angle_alpha	82.936103
_cell_angle_beta	84.044843
_cell_angle_gamma	92.489943
loop_
_atom_site_label
_atom_site_type_symbol
_atom_site_fract_x
_atom_site_fract_y
_atom_site_fract_z
O1	O	1.616307	0.096973	-0.335604
O2	O	2.116307	0.596973	0.164396
O3	O	1.262877	0.094158	-0.297846
O4	O	1.762877	0.594158	0.202154
O5	O	1.448869	0.087068	-0.202821
O6	O	1.948869	0.587068	0.297179
O7	O	1.430315	0.104062	-0.430629
O8	O	1.930315	0.604062	0.069371
O9	O	1.438762	-0.057419	-0.194814
O10	O	1.938762	0.442581	0.305186
O11	O	1.252770	-0.050329	-0.289838
O12	O	1.752770	0.449671	0.210162
O13	O	1.606200	-0.047514	-0.327597
O14	O	2.106200	0.452486	0.172403
Cu15	Cu	1.428562	-0.062114	-0.307986
Cu16	Cu	1.928562	0.437886	0.192014
Cu17	Cu	1.440515	0.108758	-0.317456
Cu18	Cu	1.940515	0.608758	0.182544
O19	O	1.420208	-0.040424	-0.422621
O20	O	1.920208	0.459576	0.077379
C21	C	1.212590	0.021395	-0.286876
C22	C	1.712590	0.521395	0.213124
C23	C	1.077807	0.019847	-0.266111
C24	C	1.577807	0.519847	0.233889
N25	N	1.420164	-0.182296	-0.301327
N26	N	1.920164	0.317704	0.198673
C27	C	0.864887	0.022526	-0.301994
C28	C	1.364887	0.522526	0.198006
C29	C	1.004192	0.024126	-0.323458
C30	C	1.504192	0.524126	0.176542
C31	C	1.490778	-0.223390	-0.357359
C32	C	1.990778	0.276610	0.142641
C33	C	1.484442	-0.314339	-0.352319
C34	C	1.984442	0.185661	0.147681
C35	C	1.407485	-0.364193	-0.291250
C36	C	1.907485	0.135807	0.208750
C37	C	1.336869	-0.323093	-0.235212
C38	C	1.836869	0.176907	0.264788
C39	C	1.343211	-0.232146	-0.240249
C40	C	1.843211	0.267854	0.259751
C41	C	1.384649	-0.639014	-0.273110
C42	C	1.884649	-0.139014	0.226890
C43	C	1.378309	-0.729967	-0.268079
C44	C	1.878309	-0.229967	0.231921
C45	C	1.525885	-0.721206	-0.385186
C46	C	2.025885	-0.221206	0.114814
C47	C	1.532215	-0.630257	-0.390220
C48	C	2.032215	-0.130257	0.109780
C49	C	1.461604	-0.589166	-0.334180
C50	C	1.961604	-0.089166	0.165820
C51	C	1.401005	-0.457157	-0.286099
C52	C	1.901005	0.042843	0.213901
C53	C	1.468091	-0.496204	-0.339328
C54	C	1.968091	0.003796	0.160672
C55	C	1.656488	0.025251	-0.338567
C56	C	2.156488	0.525251	0.161433
C57	C	1.791271	0.026805	-0.359333
C58	C	2.291271	0.526805	0.140667
C59	C	1.442918	0.012617	-0.169200
C60	C	1.942918	0.512617	0.330800
C61	C	1.440230	0.006039	-0.080947
C62	C	1.940230	0.506039	0.419053
N63	N	1.448923	0.228940	-0.324111
N64	N	1.948923	0.728940	0.175889
C65	C	1.424640	-0.035081	0.418417
C66	C	1.924640	0.464919	0.918417
C67	C	1.427177	-0.028904	0.335493
C68	C	1.927177	0.471096	0.835493
C69	C	1.433965	0.052946	0.289658
C70	C	1.933965	0.552946	0.789658
C71	C	1.438203	0.128624	0.326750
C72	C	1.938203	0.628624	0.826750
C73	C	1.435657	0.122447	0.409672
C74	C	1.935657	0.622447	0.909672
C75	C	1.441921	0.075539	0.039067
C76	C	1.941921	0.575539	0.539067
C77	C	1.444471	0.081711	-0.043861
C78	C	1.944471	0.581711	0.456139
C79	C	1.433443	-0.075818	-0.035111
C80	C	1.933443	0.424182	0.464889
C81	C	1.430904	-0.081988	0.047812
C82	C	1.930904	0.418012	0.547812
C83	C	1.435136	-0.006310	0.084897
C84	C	1.935136	0.493690	0.584897
C85	C	1.436563	0.059262	0.204896
C86	C	1.936563	0.559262	0.704896
C87	C	1.432529	-0.012627	0.169658
C88	C	1.932529	0.487373	0.669658
C89	C	1.426167	0.034023	0.543757
C90	C	1.926167	0.534023	1.043757
C91	C	1.428881	0.040592	0.455503
C92	C	1.928881	0.540592	0.955503
H93	H	0.824781	0.017666	-0.237013
H94	H	1.324781	0.517666	0.262987
C95	C	1.058360	0.030673	-0.411249
C96	C	1.558360	0.530673	0.088751
N97	N	1.099161	0.035606	-0.477373
N98	N	1.599161	0.535606	0.022627
C99	C	1.265527	-0.186944	-0.178610
C100	C	1.765527	0.313056	0.321390
N101	N	1.207014	-0.152899	-0.132181
N102	N	1.707014	0.347101	0.367819
H103	H	1.037713	0.015057	-0.201129
H104	H	1.537713	0.515057	0.298871
C105	C	0.845444	0.033352	-0.447120
C106	C	1.345444	0.533352	0.052880
N107	N	0.886246	0.038284	-0.513243
N108	N	1.386246	0.538284	-0.013243
H109	H	1.442096	0.125905	0.167567
H110	H	1.942096	0.625905	0.667567
H111	H	1.553437	-0.182804	-0.407092
H112	H	2.053437	0.317196	0.092908
H113	H	1.583374	-0.754673	-0.430810
H114	H	2.083374	-0.254673	0.069190
C115	C	1.562076	-0.359535	-0.413985
C116	C	2.062076	0.140465	0.086015
N117	N	1.620537	-0.393576	-0.460442
N118	N	2.120537	0.106424	0.039558
C119	C	1.316341	-0.512005	-0.218931
C120	C	1.816341	-0.012005	0.281069
N121	N	1.252572	-0.553319	-0.168340
N122	N	1.752572	-0.053319	0.331660
C123	C	1.252212	-0.377936	-0.168037
C124	C	1.752212	0.122064	0.331963
N125	N	1.188442	-0.419242	-0.117441
N126	N	1.688442	0.080758	0.382559
H127	H	1.594885	-0.589672	-0.439947
H128	H	2.094885	-0.089672	0.060053
C129	C	1.293658	-0.784805	-0.200890
C130	C	1.793658	-0.284805	0.299110
N131	N	1.229904	-0.826110	-0.150284
N132	N	1.729904	-0.326110	0.349716
H133	H	1.439104	0.184067	0.439867
H134	H	1.939104	0.684067	0.939867
H135	H	1.443724	0.195269	0.289424
H136	H	1.943724	0.695269	0.789424
C137	C	1.446702	0.158789	0.079843
C138	C	1.946702	0.658789	0.579843
N139	N	1.450348	0.221497	0.110555
N140	N	1.950348	0.721497	0.610555
H141	H	1.530754	-0.455609	-0.389048
H142	H	2.030754	0.044391	0.110952
C143	C	1.417171	-0.125123	0.468829
C144	C	1.917171	0.374877	0.968829
N145	N	1.411540	-0.192946	0.506798
N146	N	1.911540	0.307054	1.006798
C147	C	1.422510	-0.112150	0.294703
C148	C	1.922510	0.387850	0.794703
N149	N	1.418993	-0.174855	0.263980
N150	N	1.918993	0.325145	0.763980
H151	H	1.327152	-0.605569	-0.227478
H152	H	1.827152	-0.105569	0.272522
C153	C	1.423424	-0.172030	0.098226
C154	C	1.923424	0.327970	0.598226
N155	N	1.417789	-0.239850	0.136199
N156	N	1.917789	0.260150	0.636199
C157	C	1.428770	-0.159058	-0.075911
C158	C	1.928770	0.340942	0.424089
N159	N	1.425243	-0.221758	-0.106641
N160	N	1.925243	0.278242	0.393359
C161	C	1.451928	0.171756	-0.094279
C162	C	1.951928	0.671756	0.405721
N163	N	1.457544	0.239575	-0.132253
N164	N	1.957544	0.739575	0.367747
H165	H	1.426996	-0.079269	0.206981
H166	H	1.926996	0.420731	0.706981
