data_functionalizedCrystal
_audit_creation_method	'MofGen! by Chris Wilmer'
_symmetry_space_group_name_H-M	'P1'
_symmetry_Int_Tables_number	1
_symmetry_cell_setting	triclinic
loop_
_symmetry_equiv_pos_as_xyz
  x,y,z
_cell_length_a	16.974813
_cell_length_b	10.654559
_cell_length_c	15.455313
_cell_angle_alpha	92.706341
_cell_angle_beta	89.012317
_cell_angle_gamma	96.059132
loop_
_atom_site_label
_atom_site_type_symbol
_atom_site_fract_x
_atom_site_fract_y
_atom_site_fract_z
O1	O	0.107305	-1.672190	-0.079644
O2	O	0.117842	-1.306606	-0.080389
O3	O	-0.002091	-1.498976	-0.071964
O4	O	0.227238	-1.479820	-0.088070
O5	O	0.004739	-1.487975	0.071819
O6	O	0.124672	-1.295605	0.063393
O7	O	0.114134	-1.661190	0.064138
Cu8	Cu	0.120027	-1.477393	0.076894
Cu9	Cu	0.111950	-1.490403	-0.093145
O10	O	0.234068	-1.468820	0.055713
C11	C	0.120482	-1.254316	-0.008444
C12	C	0.118162	-1.114897	-0.008283
C13	C	-0.028041	-1.492543	0.001988
C14	C	-0.115539	-1.489748	0.008127
C15	C	0.111179	-0.924388	-0.086431
C16	C	0.113351	-1.055389	-0.086584
C17	C	0.120793	-1.043399	0.070176
C18	C	0.118615	-0.912402	0.070328
C19	C	0.106376	-0.864886	-0.164737
C20	C	0.103743	-0.936375	-0.243197
C21	C	0.105916	-1.067375	-0.243350
C22	C	0.110720	-1.126887	-0.165043
C23	C	-0.160364	-1.494434	-0.067363
C24	C	-0.242577	-1.491799	-0.061592
C25	C	-0.279964	-1.484488	0.019671
C26	C	-0.235132	-1.479797	0.095167
C27	C	-0.152920	-1.482423	0.089395
C28	C	-0.525441	-1.475984	0.045339
C29	C	-0.607660	-1.473362	0.051105
C30	C	-0.615098	-1.485362	-0.105655
C31	C	-0.532885	-1.487995	-0.111420
C32	C	-0.488060	-1.483298	-0.035924
N33	N	-0.363999	-1.481799	0.025572
N34	N	-0.404026	-1.485978	-0.041826
C35	C	0.260018	-1.475253	-0.018241
C36	C	0.347515	-1.478049	-0.024386
C37	C	0.111494	-0.713480	-0.007809
C38	C	0.113812	-0.852900	-0.007978
N39	N	0.125708	-1.468252	0.196491
N40	N	0.106263	-1.499554	-0.212741
C41	C	0.074775	-1.550006	0.245463
C42	C	0.079078	-1.543105	0.335969
C43	C	0.134318	-1.454454	0.377500
C44	C	0.185254	-1.372691	0.328521
C45	C	0.180946	-1.379588	0.238018
C46	C	0.152891	-1.424687	0.647777
C47	C	0.157196	-1.417799	0.738287
C48	C	0.051019	-1.588212	0.745728
C49	C	0.046719	-1.595105	0.655222
C50	C	0.097652	-1.513338	0.606251
N51	N	0.138720	-1.447400	0.470011
N52	N	0.093246	-1.520387	0.513742
H53	H	0.104609	-0.758219	-0.164622
O54	O	0.029575	-1.622666	0.383407
C55	C	-0.020110	-1.702380	0.327344
H56	H	0.009137	-1.708811	0.260554
H57	H	-0.030287	-1.800638	0.354279
H58	H	-0.079358	-1.662153	0.321865
O59	O	-0.644025	-1.466498	0.130034
C60	C	-0.699688	-1.573285	0.138633
H61	H	-0.682838	-1.653412	0.092816
H62	H	-0.700117	-1.604441	0.208213
H63	H	-0.761117	-1.548352	0.121826
O64	O	0.099108	-0.878365	-0.319184
C65	C	0.097736	-0.747417	-0.302228
H66	H	0.125544	-0.719267	-0.236596
H67	H	0.132725	-0.693631	-0.354908
H68	H	0.033832	-0.723463	-0.301468
O69	O	0.001427	-1.667575	0.793214
C70	C	-0.077754	-1.648534	0.776612
H71	H	-0.081062	-1.605140	0.710918
H72	H	-0.116166	-1.743020	0.776197
H73	H	-0.100062	-1.582047	0.829295
O74	O	-0.007286	-1.680780	0.615005
C75	C	-0.058755	-1.616856	0.566405
H76	H	-0.028310	-1.519999	0.550487
H77	H	-0.074439	-1.674044	0.503722
H78	H	-0.115133	-1.604835	0.605706
O79	O	-0.496428	-1.494879	-0.190292
C80	C	-0.414240	-1.496017	-0.179199
H81	H	-0.402841	-1.531199	-0.112491
H82	H	-0.389961	-1.561481	-0.231243
H83	H	-0.383459	-1.396295	-0.184893
H84	H	0.222420	-1.313013	0.198145
O85	O	0.103383	-1.136627	-0.319639
C86	C	0.098656	-1.056016	-0.388715
H87	H	0.123101	-0.955774	-0.367374
H88	H	0.134875	-1.090225	-0.446257
H89	H	0.034170	-1.056865	-0.408370
H90	H	0.124707	-1.091864	0.133929
H91	H	-0.116423	-1.478589	0.150868
O92	O	-0.658664	-1.489678	-0.178958
C93	C	-0.698125	-1.379863	-0.180870
H94	H	-0.665409	-1.301312	-0.138540
H95	H	-0.699561	-1.348650	-0.250319
H96	H	-0.761312	-1.400826	-0.155298
O97	O	0.121216	-0.843131	0.146610
C98	C	0.125909	-0.923739	0.215694
H99	H	0.151279	-1.013768	0.190864
H100	H	0.166073	-0.873858	0.267873
H101	H	0.064174	-0.948771	0.244207
H102	H	0.194363	-1.358111	0.607912
O103	O	-0.286010	-1.496472	-0.135009
C104	C	-0.235383	-1.503493	-0.207971
H105	H	-0.178722	-1.543282	-0.188876
H106	H	-0.266400	-1.567899	-0.260768
H107	H	-0.220089	-1.404979	-0.233268
H108	H	0.029795	-1.622200	0.211654
O109	O	-0.123953	-1.501347	-0.146259
C110	C	-0.068315	-1.394535	-0.154875
H111	H	-0.049984	-1.353514	-0.087881
H112	H	-0.013954	-1.423337	-0.191988
H113	H	-0.096014	-1.320383	-0.191721
O114	O	-0.481829	-1.471615	0.118608
C115	C	-0.442397	-1.581455	0.120545
H116	H	-0.436093	-1.623274	0.051822
H117	H	-0.381135	-1.556331	0.149523
H118	H	-0.478074	-1.653579	0.161857
O119	O	0.112707	-1.254173	-0.165286
C120	C	0.043246	-1.315181	-0.203520
H121	H	0.017113	-1.247845	-0.247609
H122	H	0.058181	-1.402639	-0.243222
H123	H	-0.001725	-1.344391	-0.150647
O124	O	-0.271525	-1.472532	0.174056
C125	C	-0.310518	-1.361980	0.181510
H126	H	-0.323288	-1.330562	0.114129
H127	H	-0.368628	-1.382044	0.218871
H128	H	-0.271170	-1.283942	0.217558
H129	H	0.202183	-1.345606	0.772097
O130	O	0.238892	-1.286686	0.368998
C131	C	0.231762	-1.298109	0.459381
H132	H	0.203481	-1.396904	0.473759
H133	H	0.292999	-1.281730	0.489584
H134	H	0.193044	-1.224933	0.487887
