data_functionalizedCrystal
_audit_creation_method	'MofGen! by Chris Wilmer'
_symmetry_space_group_name_H-M	'P1'
_symmetry_Int_Tables_number	1
_symmetry_cell_setting	triclinic
loop_
_symmetry_equiv_pos_as_xyz
  x,y,z
_cell_length_a	19.288840
_cell_length_b	27.731996
_cell_length_c	17.766277
_cell_angle_alpha	89.987644
_cell_angle_beta	89.983415
_cell_angle_gamma	82.873701
loop_
_atom_site_label
_atom_site_type_symbol
_atom_site_fract_x
_atom_site_fract_y
_atom_site_fract_z
O1	O	0.920972	0.060244	-0.062730
O2	O	0.718656	0.068391	-0.062705
O3	O	0.826116	-0.006063	-0.062702
O4	O	0.813512	0.134697	-0.062733
O5	O	0.826098	-0.006066	0.062487
O6	O	0.718637	0.068387	0.062484
O7	O	0.920953	0.060240	0.062459
Cu8	Cu	0.819794	0.064313	0.073902
Cu9	Cu	0.819816	0.064318	-0.074148
O10	O	0.813493	0.134693	0.062456
C11	C	0.692772	0.068129	-0.000107
C12	C	0.615672	0.067348	-0.000097
C13	C	0.579481	0.066975	-0.068339
C14	C	0.507039	0.066236	-0.068348
C15	C	0.470793	0.065860	-0.000111
C16	C	0.506992	0.066236	0.068140
C17	C	0.579432	0.066980	0.068147
C18	C	0.361649	0.036367	0.052164
C19	C	0.289211	0.035620	0.052154
C20	C	0.247364	0.063568	-0.000130
C21	C	0.277965	0.092256	-0.052417
C22	C	0.350404	0.093000	-0.052410
C23	C	0.392244	0.065054	-0.000111
C24	C	0.132623	0.062394	-0.068387
C25	C	0.060179	0.061658	-0.068393
C26	C	0.060134	0.061653	0.068097
C27	C	0.132576	0.062394	0.068101
C28	C	0.168816	0.062762	-0.000143
C29	C	0.825848	-0.024073	-0.000105
C30	C	0.825068	-0.077731	-0.000097
C31	C	0.820172	-0.410460	-0.068374
C32	C	0.817210	-0.612127	-0.068386
O33	O	0.816806	-0.638197	-0.126423
N34	N	0.816832	-0.637347	-0.000147
C35	C	0.817190	-0.612147	0.068101
O36	O	0.816793	-0.638225	0.126143
C37	C	0.820146	-0.410481	0.068113
C38	C	0.820532	-0.385264	-0.000131
C39	C	0.820556	-0.385243	-0.136612
C40	C	0.821300	-0.334829	-0.136608
C41	C	0.821660	-0.309633	-0.068366
C42	C	0.821276	-0.334850	-0.000127
C43	C	0.820499	-0.385281	0.136360
C44	C	0.821237	-0.334861	0.136357
C45	C	0.821622	-0.309644	0.068113
C46	C	0.822380	-0.259241	0.068119
N47	N	0.822758	-0.234020	-0.000120
C48	C	0.822398	-0.259217	-0.068363
C49	C	0.815639	-0.718025	0.068090
C50	C	0.814901	-0.768442	0.068087
C51	C	0.814920	-0.768418	-0.068401
C52	C	0.815663	-0.718001	-0.068397
C53	C	0.816017	-0.692805	-0.000150
C54	C	0.823961	-0.153345	-0.068350
C55	C	0.824708	-0.102927	-0.068340
C56	C	0.824686	-0.102955	0.068148
C57	C	0.823942	-0.153369	0.068138
C58	C	0.823578	-0.178562	-0.000117
O59	O	0.822776	-0.233139	0.126125
O60	O	0.822779	-0.233128	-0.126396
C61	C	0.819428	-0.460873	-0.068377
C62	C	0.819043	-0.486090	-0.000139
C63	C	0.819403	-0.460894	0.068104
C64	C	0.818305	-0.536507	-0.000142
C65	C	0.817945	-0.561703	-0.068384
C66	C	0.818323	-0.536483	-0.136624
C67	C	0.819068	-0.486070	-0.136620
C68	C	0.819025	-0.486114	0.136343
C69	C	0.818282	-0.536528	0.136334
C70	C	0.817922	-0.561724	0.068091
C71	C	0.946838	0.060502	-0.000140
C72	C	1.023937	0.061283	-0.000156
C73	C	0.813761	0.152703	-0.000143
C74	C	0.814541	0.206362	-0.000155
N75	N	0.819783	0.064310	0.178032
N76	N	0.819832	0.064317	-0.178278
C77	C	0.867382	0.031358	0.217421
C78	C	0.867386	0.031356	0.296222
C79	C	0.819798	0.064314	0.335633
C80	C	0.772190	0.097268	0.296235
C81	C	0.772183	0.097266	0.217435
C82	C	0.810212	0.108358	0.460462
C83	C	0.810224	0.108360	0.539261
C84	C	0.819816	0.064319	0.578679
C85	C	0.829411	0.020274	0.539289
C86	C	0.829404	0.020272	0.460489
C87	C	0.819800	0.064319	0.421079
C88	C	0.867422	0.031362	0.703513
C89	C	0.867421	0.031359	0.782317
C90	C	0.772229	0.097276	0.782328
C91	C	0.772226	0.097275	0.703526
C92	C	0.819827	0.064318	0.664124
H93	H	0.608984	0.067275	-0.123909
H94	H	0.477567	0.065933	-0.123921
H95	H	0.906148	0.004521	0.328298
Br96	Br	0.825176	-0.068751	0.160758
Br97	Br	0.391933	0.131934	-0.123365
Br98	Br	0.819505	-0.451927	0.228968
Br99	Br	0.931978	-0.013369	0.163945
H100	H	0.030713	0.061357	-0.123966
Br101	Br	0.707628	0.141999	0.650064
H102	H	0.814628	-0.788941	-0.123966
H103	H	0.477475	0.065931	0.123699
Br104	Br	0.797211	0.168135	0.592711
H105	H	0.243893	0.115016	-0.094990
Br106	Br	0.932019	-0.013365	0.650037
Br107	Br	0.821716	-0.300669	0.228984
Br108	Br	0.797264	0.168135	0.406973
H109	H	0.733442	0.124102	0.328327
H110	H	0.608898	0.067284	0.123720
Br111	Br	0.819591	-0.451854	-0.229242
H112	H	0.814598	-0.788970	0.123658
Br113	Br	0.825235	-0.068708	-0.160963
Br114	Br	0.817765	-0.570745	0.228960
Br115	Br	0.707579	0.141989	0.163974
Br116	Br	0.247687	-0.003302	0.123128
H117	H	0.815931	-0.697516	0.123668
Br118	Br	0.842417	-0.039501	0.407033
Br119	Br	0.823436	-0.187595	0.160756
Br120	Br	0.181696	0.062899	0.160721
Br121	Br	0.842438	-0.039501	0.592775
Br122	Br	0.932018	-0.013369	0.835777
H123	H	0.823661	-0.173851	-0.123929
H124	H	0.162131	0.062699	-0.123955
Br125	Br	0.821818	-0.300614	-0.229230
H126	H	0.733479	0.124109	0.814415
H127	H	0.030622	0.061350	0.123657
Br128	Br	0.816185	-0.683783	-0.161017
Br129	Br	0.418435	-0.001564	0.123130
Br130	Br	0.817841	-0.570688	-0.229238
H131	H	0.820260	-0.405752	-0.192186
H132	H	0.820187	-0.405804	0.191932
