data_functionalizedCrystal
_audit_creation_method	'MofGen! by Chris Wilmer'
_symmetry_space_group_name_H-M	'P1'
_symmetry_Int_Tables_number	1
_symmetry_cell_setting	triclinic
loop_
_symmetry_equiv_pos_as_xyz
  x,y,z
_cell_length_a	14.044220
_cell_length_b	23.532357
_cell_length_c	12.503572
_cell_angle_alpha	93.494896
_cell_angle_beta	86.164750
_cell_angle_gamma	88.008585
loop_
_atom_site_label
_atom_site_type_symbol
_atom_site_fract_x
_atom_site_fract_y
_atom_site_fract_z
O1	O	1.261863	0.134223	-0.089231
O2	O	0.985944	0.129270	-0.089257
O3	O	1.132247	0.049266	-0.089221
O4	O	1.115560	0.214227	-0.089267
O5	O	1.121244	0.055293	0.089418
O6	O	0.974941	0.135297	0.089382
O7	O	1.250860	0.140250	0.089409
Cu8	Cu	1.111896	0.138324	0.105707
Cu9	Cu	1.124908	0.131196	-0.105555
O10	O	1.104557	0.220254	0.089373
C11	C	0.945149	0.130116	0.000060
C12	C	0.839987	0.123649	0.000051
C13	C	0.647439	0.111829	0.000075
C14	C	0.589361	0.157688	0.000067
C15	C	0.482220	0.151111	0.000081
C16	C	0.754589	0.118405	0.000062
C17	C	1.126328	0.031040	0.000102
C18	C	1.125072	-0.032246	0.000112
C19	C	1.123194	-0.427972	-0.097323
C20	C	1.122001	-0.487436	-0.097329
O21	O	1.126453	-0.520982	-0.180144
N22	N	1.115412	-0.513894	0.000046
C23	C	1.110005	-0.480884	0.097433
O24	O	1.104290	-0.508848	0.180257
C25	C	1.111191	-0.421420	0.097438
C26	C	1.117791	-0.394966	0.000057
C27	C	1.129792	-0.401518	-0.194696
C28	C	1.130986	-0.342057	-0.194690
C29	C	1.125583	-0.309052	-0.097310
C30	C	1.118985	-0.335506	0.000064
C31	C	1.105778	-0.388411	0.194825
C32	C	1.106964	-0.328944	0.194821
C33	C	1.113563	-0.302490	0.097440
C34	C	1.114776	-0.243040	0.097450
N35	N	1.121366	-0.216582	0.000075
C36	C	1.126769	-0.249588	-0.097305
C37	C	1.107513	-0.605761	0.097415
C38	C	1.106334	-0.665223	0.097411
C39	C	1.118328	-0.671772	-0.097352
C40	C	1.119514	-0.612309	-0.097347
C41	C	1.114103	-0.579303	0.000040
C42	C	1.129278	-0.124717	-0.097283
C43	C	1.130476	-0.065252	-0.097268
C44	C	1.118476	-0.058708	0.097494
C45	C	1.117283	-0.118169	0.097479
C46	C	1.122681	-0.151172	0.000082
O47	O	1.110324	-0.209458	0.180223
O48	O	1.132471	-0.221616	-0.180115
C49	C	1.291655	0.139404	0.000090
C50	C	1.396818	0.145870	0.000092
C51	C	1.110476	0.238480	0.000047
C52	C	1.111732	0.301766	0.000030
N53	N	1.102751	0.143338	0.254297
N54	N	1.134061	0.126178	-0.254145
C55	C	1.089298	0.150718	0.473409
C56	C	1.147511	0.118799	0.526750
C57	C	1.140026	0.122906	0.648671
C58	C	1.096782	0.146612	0.351476
H59	H	0.620103	0.201889	0.000050
F60	F	1.112728	-0.023571	0.201127
F61	F	1.220284	0.079236	0.466761
F62	F	1.101761	-0.570639	0.201074
H63	H	0.616698	0.067632	0.000093
H64	H	1.100406	-0.409939	0.274123
F65	F	1.016813	0.190466	0.533396
H66	H	1.135852	-0.043716	-0.176571
H67	H	1.133669	-0.151582	-0.176593
F68	F	1.126536	-0.584160	-0.200992
F69	F	1.138004	-0.313910	-0.298337
H70	H	1.134189	-0.428385	-0.273999
F71	F	1.124073	-0.706910	-0.200993
H72	H	1.100975	-0.686757	0.176709
H73	H	1.102543	-0.302073	0.274127
F74	F	1.110277	-0.146325	0.201123
