data_functionalizedCrystal
_audit_creation_method	'MofGen! by Chris Wilmer'
_symmetry_space_group_name_H-M	'P1'
_symmetry_Int_Tables_number	1
_symmetry_cell_setting	triclinic
loop_
_symmetry_equiv_pos_as_xyz
  x,y,z
_cell_length_a	16.120530
_cell_length_b	29.839131
_cell_length_c	16.120297
_cell_angle_alpha	87.132273
_cell_angle_beta	89.871860
_cell_angle_gamma	87.136742
loop_
_atom_site_label
_atom_site_type_symbol
_atom_site_fract_x
_atom_site_fract_y
_atom_site_fract_z
Zn1	Zn	1.247310	-0.227600	0.534529
Zn2	Zn	1.580643	0.105734	0.867862
Zn3	Zn	1.913977	0.439067	1.201195
Zn4	Zn	1.254220	-0.299116	0.395460
Zn5	Zn	1.587553	0.034217	0.728793
Zn6	Zn	1.920887	0.367551	1.062126
Zn7	Zn	1.115305	-0.220008	0.388448
Zn8	Zn	1.448638	0.113325	0.721781
Zn9	Zn	1.781971	0.446659	1.055115
Zn10	Zn	1.108176	-0.298702	0.527429
Zn11	Zn	1.441510	0.034631	0.860763
Zn12	Zn	1.774843	0.367964	1.194096
O13	O	1.181253	-0.261356	0.461466
O14	O	1.514586	0.071977	0.794800
O15	O	1.847919	0.405310	1.128133
O16	O	1.364591	-0.240437	0.521987
O17	O	1.697924	0.092897	0.855320
O18	O	2.031258	0.426230	1.188653
O19	O	1.241667	-0.285618	0.278165
O20	O	1.575001	0.047715	0.611498
O21	O	1.908334	0.381048	0.944831
O22	O	1.132907	-0.158152	0.407863
O23	O	1.466240	0.175182	0.741196
O24	O	1.799574	0.508515	1.074529
O25	O	1.369668	-0.292979	0.419813
O26	O	1.703001	0.040354	0.753147
O27	O	2.036334	0.373687	1.086480
O28	O	1.229891	-0.163729	0.515187
O29	O	1.563224	0.169604	0.848521
O30	O	1.896557	0.502938	1.181854
O31	O	1.139607	-0.227498	0.273013
O32	O	1.472940	0.105835	0.606346
O33	O	1.806274	0.439169	0.939680
O34	O	0.997995	-0.227097	0.400978
O35	O	1.331328	0.106236	0.734312
O36	O	1.664661	0.439570	1.067645
O37	O	1.120758	-0.292274	0.644736
O38	O	1.454091	0.041059	0.978069
O39	O	1.787425	0.374392	1.311403
O40	O	0.992758	-0.284913	0.503087
O41	O	1.326091	0.048420	0.836421
O42	O	1.659424	0.381754	1.169754
O43	O	1.222979	-0.240035	0.649952
O44	O	1.556312	0.093298	0.983285
O45	O	1.889645	0.426631	1.316619
O46	O	1.234755	-0.361925	0.412929
O47	O	1.568089	-0.028591	0.746262
O48	O	1.901422	0.304742	1.079596
O49	O	1.127458	-0.361621	0.509886
O50	O	1.460791	-0.028287	0.843220
O51	O	1.794125	0.305046	1.176553
C52	C	0.965204	-0.255137	0.450502
C53	C	1.298538	0.078197	0.783835
C54	C	1.631871	0.411530	1.117169
C55	C	0.872777	-0.252487	0.445831
C56	C	1.206110	0.080846	0.779165
C57	C	1.539443	0.414179	1.112498
C58	C	0.703550	-0.247640	0.437311
C59	C	1.036883	0.085694	0.770644
C60	C	1.370217	0.419027	1.103977
C61	C	0.659793	-0.275108	0.485683
C62	C	0.993126	0.058225	0.819016
C63	C	1.326460	0.391559	1.152350
C64	C	0.565629	-0.272411	0.480942
C65	C	0.898963	0.060922	0.814275
C66	C	1.232296	0.394256	1.147609
C67	C	0.797722	-0.250336	0.442050
C68	C	1.131055	0.082997	0.775384
C69	C	1.464389	0.416330	1.108717
C70	C	1.181105	-0.378074	0.461418
C71	C	1.514438	-0.044740	0.794751
C72	C	1.847771	0.288593	1.128084
C73	C	1.181116	-0.428009	0.461428
C74	C	1.514449	-0.094675	0.794762
C75	C	1.847783	0.238658	1.128095
C76	C	1.237215	-0.737807	0.411063
C77	C	1.570549	-0.404474	0.744397
C78	C	1.903882	-0.071141	1.077730
C79	C	1.237316	-0.925484	0.411101
C80	C	1.570650	-0.592151	0.744434
C81	C	1.903983	-0.258817	1.077767
O82	O	1.284896	-0.949877	0.368241
O83	O	1.618230	-0.616543	0.701574
O84	O	1.951563	-0.283210	1.034908
N85	N	1.181422	-0.948805	0.461538
N86	N	1.514755	-0.615472	0.794871
N87	N	1.848089	-0.282138	1.128205
C88	C	1.125502	-0.925204	0.511973
C89	C	1.458835	-0.591871	0.845307
C90	C	1.792169	-0.258538	1.178640
O91	O	1.077969	-0.949347	0.554880
O92	O	1.411302	-0.616014	0.888214
O93	O	1.744635	-0.282680	1.221547
C94	C	1.125406	-0.737528	0.511940
C95	C	1.458739	-0.404195	0.845273
C96	C	1.792072	-0.070862	1.178606
C97	C	1.181298	-0.714210	0.461493
C98	C	1.514631	-0.380876	0.794826
C99	C	1.847965	-0.047543	1.128160
C100	C	1.293104	-0.714488	0.360622
C101	C	1.626437	-0.381155	0.693955
C102	C	1.959770	-0.047822	1.027288
C103	C	1.293075	-0.667572	0.360609
C104	C	1.626408	-0.334238	0.693943
C105	C	1.959741	-0.000905	1.027276
C106	C	1.237158	-0.643974	0.411039
C107	C	1.570491	-0.310641	0.744372
C108	C	1.903824	0.022693	1.077706
C109	C	1.181269	-0.667293	0.461481
C110	C	1.514603	-0.333960	0.794814
C111	C	1.847936	-0.000626	1.128147
C112	C	1.069491	-0.713929	0.562379
C113	C	1.402824	-0.380595	0.895712
C114	C	1.736157	-0.047262	1.229045
C115	C	1.069473	-0.667007	0.562367
C116	C	1.402806	-0.333674	0.895701
C117	C	1.736139	-0.000340	1.229034
C118	C	1.125365	-0.643688	0.511921
C119	C	1.458698	-0.310355	0.845254
C120	C	1.792032	0.022979	1.178587
C121	C	1.125323	-0.596779	0.511898
C122	C	1.458656	-0.263445	0.845231
C123	C	1.791990	0.069888	1.178565
N124	N	1.181217	-0.573458	0.461461
N125	N	1.514551	-0.240124	0.794794
N126	N	1.847884	0.093209	1.128128
C127	C	1.237135	-0.597055	0.411031
C128	C	1.570468	-0.263722	0.744365
C129	C	1.903801	0.069611	1.077698
C130	C	1.125556	-1.023737	0.511986
C131	C	1.458889	-0.690403	0.845319
C132	C	1.792222	-0.357070	1.178653
C133	C	1.125579	-1.070655	0.511994
C134	C	1.458912	-0.737322	0.845327
C135	C	1.792245	-0.403989	1.178660
C136	C	1.237394	-1.070932	0.411122
C137	C	1.570727	-0.737599	0.744455
C138	C	1.904061	-0.404265	1.077789
C139	C	1.237366	-1.024012	0.411111
C140	C	1.570700	-0.690679	0.744444
C141	C	1.904033	-0.357346	1.077777
C142	C	1.181450	-1.000416	0.461549
C143	C	1.514783	-0.667082	0.794882
C144	C	1.848117	-0.333749	1.128216
C145	C	1.237069	-0.498527	0.411009
C146	C	1.570403	-0.165194	0.744342
C147	C	1.903736	0.168139	1.077676
C148	C	1.237033	-0.451606	0.410999
C149	C	1.570367	-0.118273	0.744332
C150	C	1.903700	0.215060	1.077665
C151	C	1.125221	-0.451334	0.511873
C152	C	1.458554	-0.118001	0.845206
C153	C	1.791888	0.215333	1.178540
C154	C	1.125254	-0.498251	0.511880
C155	C	1.458587	-0.164917	0.845214
C156	C	1.791921	0.168416	1.178547
C157	C	1.181185	-0.521846	0.461446
C158	C	1.514518	-0.188513	0.794779
C159	C	1.847852	0.144820	1.128113
O160	O	1.077774	-0.572358	0.554742
O161	O	1.411108	-0.239024	0.888076
O162	O	1.744441	0.094309	1.221409
O163	O	1.284673	-0.572905	0.368145
O164	O	1.618007	-0.239572	0.701478
O165	O	1.951340	0.093761	1.034811
C166	C	1.237244	-0.784724	0.411076
C167	C	1.570577	-0.451391	0.744409
C168	C	1.903911	-0.118057	1.077742
C169	C	1.181356	-0.808043	0.461517
C170	C	1.514689	-0.474709	0.794851
C171	C	1.848022	-0.141376	1.128184
C172	C	1.125439	-0.784445	0.511947
C173	C	1.458772	-0.451112	0.845280
C174	C	1.792105	-0.117778	1.178614
C175	C	1.181379	-0.854961	0.461525
C176	C	1.514712	-0.521628	0.794858
C177	C	1.848045	-0.188295	1.128191
C178	C	1.237296	-0.878559	0.411095
C179	C	1.570629	-0.545226	0.744429
C180	C	1.903963	-0.211892	1.077762
C181	C	1.293190	-0.855238	0.360658
C182	C	1.626524	-0.521905	0.693992
C183	C	1.959857	-0.188571	1.027325
C184	C	1.293161	-0.808322	0.360646
C185	C	1.626495	-0.474988	0.693979
C186	C	1.959828	-0.141655	1.027313
C187	C	1.069544	-0.807766	0.562384
C188	C	1.402878	-0.474433	0.895717
C189	C	1.736211	-0.141099	1.229051
C190	C	1.069577	-0.854683	0.562391
C191	C	1.402910	-0.521349	0.895725
C192	C	1.736244	-0.188016	1.229058
C193	C	1.125494	-0.878280	0.511962
C194	C	1.458828	-0.544947	0.845295
C195	C	1.792161	-0.211614	1.178628
C196	C	1.398145	-0.267601	0.472474
C197	C	1.731478	0.065732	0.805807
C198	C	2.064812	0.399066	1.139141
C199	C	1.490571	-0.270262	0.477165
C200	C	1.823905	0.063071	0.810498
C201	C	2.157238	0.396405	1.143832
C202	C	1.170302	-0.266955	0.678360
C203	C	1.503636	0.066378	1.011693
C204	C	1.836969	0.399711	1.345026
C205	C	1.165636	-0.269341	0.770787
C206	C	1.498969	0.063992	1.104120
C207	C	1.832303	0.397325	1.437453
C208	C	1.181423	-0.144185	0.461535
C209	C	1.514756	0.189149	0.794868
C210	C	1.848090	0.522482	1.128201
C211	C	1.181496	-0.094253	0.461564
C212	C	1.514829	0.239080	0.794897
C213	C	1.848162	0.572414	1.128231
C214	C	1.192208	-0.255748	0.245419
C215	C	1.525542	0.077585	0.578753
C216	C	1.858875	0.410918	0.912086
C217	C	1.197036	-0.253240	0.153001
C218	C	1.530369	0.080093	0.486334
C219	C	1.863703	0.413426	0.819668
C220	C	1.157086	-0.273687	0.940011
C221	C	1.490419	0.059647	1.273344
C222	C	1.823752	0.392980	1.606677
C223	C	1.205584	-0.248896	0.983782
C224	C	1.538917	0.084437	1.317116
C225	C	1.872250	0.417770	1.650449
C226	C	1.200826	-0.251314	1.077944
C227	C	1.534160	0.082019	1.411278
C228	C	1.867493	0.415352	1.744611
C229	C	1.161842	-0.271269	0.845840
C230	C	1.495175	0.062064	1.179173
C231	C	1.828509	0.395397	1.512507
H232	H	0.693051	-0.300650	0.530658
H233	H	1.026384	0.032684	0.863991
H234	H	1.359717	0.366017	1.197324
N235	N	1.262147	-0.219994	0.942072
N236	N	1.595480	0.113340	1.275406
N237	N	1.928814	0.446673	1.608739
N238	N	1.265980	-0.218045	0.864530
N239	N	1.599313	0.115288	1.197864
N240	N	1.932647	0.448621	1.531197
H241	H	1.305927	-0.197634	0.835068
H242	H	1.639260	0.135699	1.168401
H243	H	1.972593	0.469032	1.501735
H244	H	0.670294	-0.222100	0.392340
H245	H	1.003628	0.111234	0.725674
H246	H	1.336961	0.444567	1.059007
N247	N	1.294130	-0.427794	0.359457
N248	N	1.627463	-0.094461	0.692790
N249	N	1.960797	0.238873	1.026123
N250	N	1.344051	-0.448873	0.314436
N251	N	1.677384	-0.115539	0.647769
N252	N	2.010718	0.217794	0.981102
H253	H	1.384375	-0.432057	0.278035
H254	H	1.717708	-0.098724	0.611368
H255	H	2.051042	0.234609	0.944701
N256	N	1.100522	-0.302585	0.981720
N257	N	1.433856	0.030748	1.315053
N258	N	1.767189	0.364082	1.648387
N259	N	1.096695	-0.304531	1.059262
N260	N	1.430028	0.028803	1.392596
N261	N	1.763361	0.362136	1.725929
H262	H	1.056749	-0.324941	1.088729
H263	H	1.390082	0.008393	1.422063
H264	H	1.723416	0.341726	1.755396
H265	H	1.282615	-0.517733	0.369942
H266	H	1.615949	-0.184400	0.703276
H267	H	1.949282	0.148933	1.036609
N268	N	1.350175	-0.643763	0.309075
N269	N	1.683508	-0.310430	0.642408
N270	N	2.016841	0.022904	0.975742
N271	N	1.400094	-0.664846	0.264058
N272	N	1.733427	-0.331512	0.597392
N273	N	2.066760	0.001821	0.930725
H274	H	1.440426	-0.648034	0.227661
H275	H	1.773759	-0.314700	0.560994
H276	H	2.107092	0.018633	0.894327
H277	H	1.338643	-0.733697	0.319556
H278	H	1.671976	-0.400363	0.652889
H279	H	2.005309	-0.067030	0.986222
H280	H	1.282879	-1.005029	0.370033
H281	H	1.616212	-0.671695	0.703367
H282	H	1.949546	-0.338362	1.036700
H283	H	1.338674	-0.789339	0.319568
H284	H	1.672008	-0.456005	0.652901
H285	H	2.005341	-0.122672	0.986235
H286	H	1.282924	-1.090153	0.370061
H287	H	1.616258	-0.756820	0.703394
H288	H	1.949591	-0.423487	1.036727
N289	N	1.068468	-1.094464	0.563514
N290	N	1.401801	-0.761131	0.896848
N291	N	1.735134	-0.427798	1.230181
N292	N	1.018548	-1.073384	0.608534
N293	N	1.351882	-0.740050	0.941867
N294	N	1.685215	-0.406717	1.275201
H295	H	0.978213	-1.090197	0.644925
H296	H	1.311546	-0.756864	0.978259
H297	H	1.644879	-0.423530	1.311592
H298	H	1.080020	-1.004527	0.553060
H299	H	1.413353	-0.671194	0.886393
H300	H	1.746686	-0.337861	1.219727
H301	H	1.023973	-0.732907	0.603454
H302	H	1.357307	-0.399573	0.936787
H303	H	1.690640	-0.066240	1.270120
H304	H	1.079744	-0.517238	0.552961
H305	H	1.413078	-0.183905	0.886294
H306	H	1.746411	0.149429	1.219628
N307	N	1.012353	-0.642912	0.613901
N308	N	1.345686	-0.309578	0.947234
N309	N	1.679019	0.023755	1.280567
N310	N	0.962460	-0.663742	0.658936
N311	N	1.295793	-0.330408	0.992269
N312	N	1.629127	0.002925	1.325603
H313	H	0.922118	-0.646725	0.695331
H314	H	1.255452	-0.313392	1.028665
H315	H	1.588785	0.019941	1.361998
H316	H	1.079691	-0.432113	0.552930
H317	H	1.413025	-0.098780	0.886263
H318	H	1.746358	0.234553	1.219596
H319	H	1.338718	-0.874459	0.319594
H320	H	1.672051	-0.541126	0.652927
H321	H	2.005384	-0.207793	0.986261
H322	H	1.024056	-0.873665	0.603470
H323	H	1.357389	-0.540331	0.936803
H324	H	1.690722	-0.206998	1.270137
N325	N	1.012420	-0.783673	0.613907
N326	N	1.345753	-0.450339	0.947241
N327	N	1.679087	-0.117006	1.280574
N328	N	0.962525	-0.804506	0.658934
N329	N	1.295858	-0.471172	0.992268
N330	N	1.629191	-0.137839	1.325601
H331	H	0.922174	-0.787492	0.695324
H332	H	1.255507	-0.454158	1.028658
H333	H	1.588841	-0.120825	1.361991
