data_functionalizedCrystal
_audit_creation_method	'MofGen! by Chris Wilmer'
_symmetry_space_group_name_H-M	'P1'
_symmetry_Int_Tables_number	1
_symmetry_cell_setting	triclinic
loop_
_symmetry_equiv_pos_as_xyz
  x,y,z
_cell_length_a	27.732048
_cell_length_b	10.654550
_cell_length_c	9.130313
_cell_angle_alpha	89.994524
_cell_angle_beta	90.009135
_cell_angle_gamma	96.436222
loop_
_atom_site_label
_atom_site_type_symbol
_atom_site_fract_x
_atom_site_fract_y
_atom_site_fract_z
O1	O	0.067886	-1.664983	0.121937
O2	O	0.074353	-1.299233	0.121916
O3	O	0.000794	-1.493467	0.121899
O4	O	0.141446	-1.470748	0.121954
O5	O	0.000792	-1.493460	-0.121700
O6	O	0.074351	-1.299225	-0.121683
O7	O	0.067884	-1.664975	-0.121661
Cu8	Cu	0.071117	-1.482100	-0.143915
Cu9	Cu	0.071120	-1.482108	0.144169
O10	O	0.141444	-1.470741	-0.121645
C11	C	0.073878	-1.252451	0.000113
C12	C	0.072457	-1.113067	0.000103
C13	C	-0.017217	-1.492987	0.000096
C14	C	-0.070881	-1.491551	0.000084
C15	C	0.068360	-1.711757	0.000144
C16	C	0.069780	-1.851141	0.000164
C17	C	-0.409038	-1.597290	0.000165
C18	C	-0.610731	-1.591962	0.000185
O19	O	-0.641384	-1.688653	0.000255
N20	N	-0.630572	-1.476789	0.000177
C21	C	-0.599986	-1.362940	0.000173
O22	O	-0.621490	-1.264856	0.000182
C23	C	-0.398294	-1.368269	0.000164
C24	C	-0.378456	-1.483449	0.000157
C25	C	-0.389199	-1.712461	0.000160
C26	C	-0.338779	-1.713792	0.000147
C27	C	-0.308197	-1.599951	0.000139
C28	C	-0.328036	-1.484780	0.000144
C29	C	-0.367709	-1.254421	0.000171
C30	C	-0.317284	-1.255764	0.000172
C31	C	-0.297446	-1.370944	0.000165
C32	C	-0.247034	-1.372271	0.000123
N33	N	-0.227193	-1.487444	0.000131
C34	C	-0.257775	-1.601284	0.000139
C35	C	-0.705877	-1.360150	0.000175
C36	C	-0.756300	-1.358817	0.000175
C37	C	-0.767041	-1.587840	0.000190
C38	C	-0.716618	-1.589171	0.000180
C39	C	-0.686036	-1.475323	0.000184
C40	C	-0.151888	-1.604070	0.000111
C41	C	-0.101463	-1.605391	0.000092
C42	C	-0.090726	-1.376369	0.000085
C43	C	-0.141147	-1.375047	0.000096
C44	C	-0.171727	-1.488908	0.000114
O45	O	-0.216352	-1.275631	0.000070
O46	O	-0.236261	-1.699354	0.000163
C47	C	-0.459458	-1.595959	0.000178
C48	C	-0.479296	-1.480788	0.000183
C49	C	-0.448715	-1.366948	0.000175
C50	C	-0.529719	-1.479455	0.000183
C51	C	-0.560301	-1.593296	0.000191
C52	C	-0.540460	-1.708469	0.000199
C53	C	-0.490040	-1.709800	0.000186
C54	C	-0.468556	-1.251774	0.000167
C55	C	-0.518976	-1.250453	0.000178
C56	C	-0.549558	-1.364293	0.000186
C57	C	0.159454	-1.471221	0.000162
C58	C	0.213118	-1.472657	0.000183
N59	N	0.071115	-1.482103	-0.346538
C60	C	0.115768	-1.031761	0.000142
C61	C	0.114430	-0.900796	0.000166
C62	C	0.026466	-0.932457	0.000121
C63	C	0.027805	-1.063419	0.000086
C64	C	0.160420	-1.081409	0.000159
C65	C	0.203734	-1.000101	0.000199
C66	C	0.202396	-0.869136	0.000224
C67	C	0.157744	-0.819479	0.000209
C68	C	0.041527	-1.406527	-0.423230
C69	C	0.041530	-1.406530	-0.576567
C70	C	0.100709	-1.557693	-0.576505
C71	C	0.100709	-1.557683	-0.423171
C72	C	0.011934	-1.330947	-0.346596
C73	C	-0.017657	-1.255367	-0.423288
C74	C	-0.017655	-1.255369	-0.576625
C75	C	0.011938	-1.330952	-0.653270
N76	N	0.071118	-1.482115	0.346792
H77	H	-0.085314	-1.699189	0.000083
F78	F	-0.421740	-1.833637	0.000170
F79	F	-0.799597	-1.708998	0.000201
H80	H	-0.443660	-1.159070	0.000164
F81	F	-0.162261	-1.252460	0.000077
F82	F	0.011942	-1.330942	-0.816466
H83	H	0.011928	-1.330939	-0.221742
F84	F	0.161847	-1.220791	0.000140
F85	F	0.251253	-1.052951	0.000200
F86	F	-0.573016	-1.829626	0.000200
H87	H	-0.772447	-1.265026	0.000155
F88	F	0.132202	-1.638129	-0.658081
F89	F	0.132195	-1.638133	-0.341545
F90	F	-0.673336	-1.238968	0.000180
F91	F	-0.184427	-1.725254	0.000130
H92	H	-0.322632	-1.807584	0.000148
H93	H	0.237665	-0.802938	0.000241
H94	H	0.156658	-0.712838	0.000206
H95	H	-0.700469	-1.682961	0.000176
F96	F	-0.018292	-1.149956	0.000043
H97	H	-0.383852	-1.160629	0.000185
F98	F	-0.049146	-1.174920	-0.341717
F99	F	-0.284739	-1.134587	0.000179
H100	H	-0.473893	-1.803591	0.000181
F101	F	-0.540083	-1.127853	0.000176
F102	F	-0.058170	-1.255218	0.000076
F103	F	-0.021053	-0.879604	0.000110
F104	F	-0.049143	-1.174921	-0.658243
