data_functionalizedCrystal
_audit_creation_method	'MofGen! by Chris Wilmer'
_symmetry_space_group_name_H-M	'P1'
_symmetry_Int_Tables_number	1
_symmetry_cell_setting	triclinic
loop_
_symmetry_equiv_pos_as_xyz
  x,y,z
_cell_length_a	10.654551
_cell_length_b	19.188930
_cell_length_c	9.130313
_cell_angle_alpha	90.007887
_cell_angle_beta	90.002625
_cell_angle_gamma	83.815026
loop_
_atom_site_label
_atom_site_type_symbol
_atom_site_fract_x
_atom_site_fract_y
_atom_site_fract_z
O1	O	1.665764	0.098063	0.121799
O2	O	1.300087	0.107405	0.121808
O3	O	1.493478	0.001147	0.121775
O4	O	1.472373	0.204321	0.121832
O5	O	1.493465	0.001148	-0.121824
O6	O	1.300075	0.107405	-0.121791
O7	O	1.665751	0.098063	-0.121800
Cu8	Cu	1.482912	0.102734	-0.144038
Cu9	Cu	1.482927	0.102734	0.144046
O10	O	1.472360	0.204321	-0.121767
C11	C	1.253298	0.106719	0.000009
C12	C	1.113898	0.104666	0.000011
C13	C	1.492788	-0.024868	-0.000029
C14	C	1.490737	-0.102386	-0.000042
C15	C	0.917421	0.101766	-0.132777
C16	C	1.048400	0.103701	-0.132777
C17	C	1.048408	0.103704	0.132808
C18	C	0.917430	0.101774	0.132806
C19	C	0.851931	0.100793	-0.265574
C20	C	0.917412	0.101757	-0.398371
C21	C	1.048391	0.103692	-0.398371
C22	C	1.113890	0.104663	-0.265574
C23	C	1.604212	-0.146567	-0.000051
C24	C	1.602284	-0.219404	-0.000028
C25	C	1.486875	-0.248055	-0.000024
C26	C	1.373385	-0.203864	-0.000006
C27	C	1.375316	-0.131029	-0.000015
N28	N	1.398654	-0.356637	-0.082923
N29	N	1.396828	-0.425828	-0.082918
C30	C	1.481051	-0.467502	0.000006
N31	N	1.567189	-0.437373	0.082906
N32	N	1.569019	-0.368177	0.082894
C33	C	1.484769	-0.327032	-0.000013
C34	C	1.592444	-0.590662	0.000024
C35	C	1.590512	-0.663499	0.000056
C36	C	1.361609	-0.647958	0.000063
C37	C	1.363545	-0.575122	0.000045
C38	C	1.478966	-0.546479	0.000019
C39	C	1.712541	0.098749	0.000002
C40	C	1.851940	0.100802	0.000010
C41	C	1.473050	0.230336	0.000040
C42	C	1.475102	0.307854	0.000062
N43	N	1.482910	0.102734	-0.346661
C44	C	1.568580	0.055695	-0.576665
C45	C	1.568570	0.055699	-0.423328
C46	C	1.397264	0.149773	-0.423338
C47	C	1.397281	0.149772	-0.576672
C48	C	1.654237	0.008652	-0.653325
C49	C	1.739885	-0.038386	-0.576659
C50	C	1.739874	-0.038382	-0.423322
C51	C	1.654216	0.008660	-0.346651
N52	N	1.482938	0.102729	0.346669
H53	H	0.745282	0.099217	-0.265589
H54	H	0.864073	0.100972	-0.506489
Cl55	Cl	1.847553	-0.097508	-0.326943
H56	H	1.267641	-0.671285	0.000074
Cl57	Cl	1.278550	0.107102	-0.265579
Cl58	Cl	1.654220	0.008668	-0.153883
H59	H	1.327523	0.188072	-0.360902
H60	H	1.698197	-0.123251	-0.000068
Cl61	Cl	1.289617	0.208904	-0.673055
H62	H	1.101748	0.104495	0.240925
Cl63	Cl	1.130704	0.104912	-0.565312
H64	H	1.686427	-0.567339	0.000009
H65	H	1.682921	-0.699472	0.000056
Cl66	Cl	1.744950	-0.274957	-0.000039
Cl67	Cl	0.835105	0.100565	0.299741
Cl68	Cl	1.228299	-0.239882	0.000011
H69	H	1.271141	-0.539148	0.000045
H70	H	1.282907	-0.095056	-0.000007
Cl71	Cl	1.654250	0.008641	-0.846091
Cl72	Cl	1.847574	-0.097516	-0.673040
