data_functionalizedCrystal
_audit_creation_method	'MofGen! by Chris Wilmer'
_symmetry_space_group_name_H-M	'P1'
_symmetry_Int_Tables_number	1
_symmetry_cell_setting	triclinic
loop_
_symmetry_equiv_pos_as_xyz
  x,y,z
_cell_length_a	17.019282
_cell_length_b	17.019294
_cell_length_c	8.965430
_cell_angle_alpha	86.121451
_cell_angle_beta	93.877421
_cell_angle_gamma	83.655696
loop_
_atom_site_label
_atom_site_type_symbol
_atom_site_fract_x
_atom_site_fract_y
_atom_site_fract_z
O1	O	1.046568	0.100443	-0.002460
O2	O	0.816888	0.113269	-0.033623
O3	O	0.938135	-0.007983	-0.002460
O4	O	0.925321	0.221696	-0.033622
O5	O	0.938125	-0.007975	0.245616
O6	O	0.816878	0.113277	0.214454
O7	O	1.046558	0.100451	0.245617
Cu8	Cu	0.931717	0.106865	0.252687
Cu9	Cu	0.931729	0.106855	-0.040693
O10	O	0.925310	0.221704	0.214454
C11	C	0.787494	0.112789	0.086701
C12	C	0.699926	0.111335	0.075635
C13	C	0.658785	0.110655	0.205666
C14	C	0.576506	0.109277	0.195274
C15	C	0.535369	0.108585	0.054848
C16	C	0.576516	0.109263	-0.075192
C17	C	0.658794	0.110635	-0.064798
C18	C	0.286945	0.104436	0.016700
C19	C	0.204661	0.103065	0.006315
C20	C	0.204657	0.103078	0.276783
C21	C	0.286935	0.104455	0.287164
C22	C	0.328076	0.105129	0.157124
C23	C	0.451267	0.107179	0.044222
C24	C	0.412177	0.106530	0.167752
C25	C	0.937644	-0.037368	0.125289
C26	C	0.936186	-0.124936	0.136345
C27	C	0.935509	-0.166076	0.006314
C28	C	0.934134	-0.248355	0.016706
C29	C	0.933443	-0.289493	0.157132
C30	C	0.934118	-0.248347	0.287173
C31	C	0.935487	-0.166069	0.276778
C32	C	0.929303	-0.537920	0.195282
C33	C	0.927937	-0.620204	0.205667
C34	C	0.927952	-0.620205	-0.064801
C35	C	0.929326	-0.537926	-0.075182
C36	C	0.929996	-0.496787	0.054858
C37	C	0.932040	-0.373596	0.167759
C38	C	0.931393	-0.412685	0.044229
C39	C	1.075951	0.100932	0.125289
C40	C	1.163520	0.102385	0.136346
C41	C	0.925802	0.251088	0.086702
C42	C	0.927259	0.338657	0.075636
N43	N	0.931714	0.106871	0.459035
N44	N	0.931738	0.106843	-0.247039
C45	C	0.875624	0.162928	0.541929
C46	C	0.946890	0.178151	0.648545
C47	C	0.860478	0.091655	0.648550
C48	C	1.003016	0.122130	0.563461
C49	C	0.916557	0.035602	0.563455
C50	C	0.987875	0.050795	0.670037
H51	H	0.320431	0.104982	-0.089188
H52	H	0.828234	0.210377	0.486153
H53	H	0.903698	-0.024636	0.525801
H54	H	0.931479	-0.407100	0.282094
H55	H	0.171152	0.102528	0.382654
Cl56	Cl	0.463894	0.107397	0.344281
Cl57	Cl	1.096064	0.142091	0.505675
Cl58	Cl	0.710491	0.111530	0.382210
H59	H	0.959727	0.238409	0.686159
Cl60	Cl	0.338644	0.105331	0.463705
H61	H	0.171169	0.102504	-0.108043
H62	H	0.933586	-0.281847	-0.089178
Cl63	Cl	0.524805	0.108364	-0.251724
H64	H	0.929865	-0.504436	0.301172
Cl65	Cl	0.710514	0.111487	-0.228272
H66	H	0.800225	0.078797	0.686164
H67	H	0.933550	-0.281848	0.401510
H68	H	0.543015	0.108710	0.301161
H69	H	0.417764	0.106615	-0.070113
H70	H	0.936076	-0.132587	-0.108035
Cl71	Cl	1.061201	-0.022417	0.755756
H72	H	0.929890	-0.504437	-0.189532
H73	H	0.927369	-0.653696	0.320024
Cl74	Cl	0.927107	-0.671927	-0.228269
H75	H	0.936027	-0.132573	0.382662
H76	H	0.931951	-0.379186	-0.070106
