data_functionalizedCrystal
_audit_creation_method	'MofGen! by Chris Wilmer'
_symmetry_space_group_name_H-M	'P1'
_symmetry_Int_Tables_number	1
_symmetry_cell_setting	triclinic
loop_
_symmetry_equiv_pos_as_xyz
  x,y,z
_cell_length_a	11.792241
_cell_length_b	11.792241
_cell_length_c	14.586319
_cell_angle_alpha	89.996059
_cell_angle_beta	90.000696
_cell_angle_gamma	84.193416
loop_
_atom_site_label
_atom_site_type_symbol
_atom_site_fract_x
_atom_site_fract_y
_atom_site_fract_z
O1	O	1.506907	0.155566	-0.076152
O2	O	2.006907	0.655566	0.423848
O3	O	1.176566	0.171599	-0.076173
O4	O	1.676566	0.671599	0.423827
O5	O	1.349753	-0.001588	-0.076155
O6	O	1.849753	0.498412	0.423845
O7	O	1.333720	0.328753	-0.076169
O8	O	1.833720	0.828753	0.423831
O9	O	1.349741	-0.001590	0.076325
O10	O	1.849741	0.498410	0.576325
O11	O	1.176554	0.171597	0.076308
O12	O	1.676554	0.671597	0.576308
O13	O	1.506895	0.155564	0.076329
O14	O	2.006895	0.655564	0.576329
Cu15	Cu	1.341724	0.163580	0.090241
Cu16	Cu	1.841724	0.663580	0.590241
Cu17	Cu	1.341738	0.163583	-0.090085
Cu18	Cu	1.841738	0.663583	0.409915
O19	O	1.333708	0.328751	0.076311
O20	O	1.833708	0.828751	0.576311
C21	C	1.134269	0.170591	0.000065
C22	C	1.634269	0.670591	0.500065
C23	C	1.008255	0.167576	0.000057
C24	C	1.508255	0.667576	0.500057
C25	C	0.777543	0.162034	0.000083
C26	C	1.277543	0.662034	0.500083
C27	C	0.905928	0.165113	0.000069
C28	C	1.405928	0.665113	0.500069
C29	C	1.348740	-0.043880	0.000085
C30	C	1.848740	0.456120	0.500085
C31	C	1.345726	-0.169894	0.000084
C32	C	1.845726	0.330106	0.500084
C33	C	1.340183	-0.400606	0.000068
C34	C	1.840183	0.099394	0.500068
C35	C	1.343262	-0.272221	0.000076
C36	C	1.843262	0.227779	0.500076
C37	C	1.549192	0.156572	0.000089
C38	C	2.049192	0.656572	0.500089
C39	C	1.675206	0.159587	0.000091
C40	C	2.175206	0.659587	0.500091
C41	C	1.334721	0.371043	0.000069
C42	C	1.834721	0.871043	0.500069
C43	C	1.337736	0.497057	0.000064
C44	C	1.837736	0.997057	0.500064
N45	N	1.341722	0.163577	0.217073
N46	N	1.841722	0.663577	0.717073
N47	N	1.341749	0.163577	-0.216917
N48	N	1.841749	0.663577	0.283083
C49	C	1.418435	0.086916	0.452087
C50	C	1.918435	0.586916	0.952087
C51	C	1.418438	0.086913	0.548068
C52	C	1.918438	0.586913	1.048068
C53	C	1.265027	0.240242	0.548062
C54	C	1.765027	0.740242	1.048062
C55	C	1.265020	0.240238	0.452083
C56	C	1.765020	0.740238	0.952083
C57	C	1.341730	0.163577	0.404098
C58	C	1.841730	0.663577	0.904098
C59	C	1.341741	0.163578	0.596058
C60	C	1.841741	0.663578	1.096058
C61	C	1.341744	0.163575	0.700126
C62	C	1.841744	0.663575	1.200126
C63	C	1.341726	0.163577	0.300024
C64	C	1.841726	0.663577	0.800024
H65	H	1.480897	0.024488	0.587139
H66	H	1.980897	0.524488	1.087139
H67	H	1.202573	0.302660	0.587141
H68	H	1.702573	0.802660	1.087141
H69	H	1.202552	0.302665	0.413007
H70	H	1.702552	0.802665	0.913007
N71	N	1.501140	0.004204	0.400333
N72	N	2.001140	0.504204	0.900333
H73	H	1.489495	0.015828	0.332248
H74	H	1.989495	0.515828	0.832248
H75	H	1.581744	0.017836	0.417099
H76	H	2.081744	0.517836	0.917099
