data_functionalizedCrystal
_audit_creation_method	'MofGen! by Chris Wilmer'
_symmetry_space_group_name_H-M	'P1'
_symmetry_Int_Tables_number	1
_symmetry_cell_setting	triclinic
loop_
_symmetry_equiv_pos_as_xyz
  x,y,z
_cell_length_a	14.853567
_cell_length_b	10.723024
_cell_length_c	9.198806
_cell_angle_alpha	90.002012
_cell_angle_beta	89.999027
_cell_angle_gamma	95.948600
loop_
_atom_site_label
_atom_site_type_symbol
_atom_site_fract_x
_atom_site_fract_y
_atom_site_fract_z
O1	O	1.197224	-0.162914	-0.120788
O2	O	0.934867	-0.182321	-0.120813
O3	O	1.072098	0.009020	-0.120795
O4	O	1.059994	-0.354255	-0.120807
O5	O	1.072087	0.009021	0.120990
O6	O	0.934856	-0.182320	0.120972
O7	O	1.197213	-0.162913	0.120997
Cu8	Cu	1.066034	-0.172617	0.143061
Cu9	Cu	1.066047	-0.172617	-0.142877
O10	O	1.059983	-0.354254	0.120979
C11	C	1.071211	0.055511	0.000096
C12	C	1.068576	0.194039	0.000091
C13	C	0.901269	-0.181441	0.000077
C14	C	0.801171	-0.178806	0.000067
N15	N	1.066031	-0.172616	0.344175
C16	C	0.387978	-0.054006	0.000104
C17	C	0.367897	-0.281324	0.000095
C18	C	0.461944	-0.283802	0.000090
C19	C	0.519013	-0.171380	0.000090
C20	C	0.482034	-0.056481	0.000095
C21	C	0.498930	-0.398699	0.000071
C22	C	0.592982	-0.401181	0.000064
C23	C	0.650052	-0.288758	0.000075
C24	C	0.613068	-0.173854	0.000081
C25	C	0.670137	-0.061433	0.000081
C26	C	0.633155	0.053473	0.000098
C27	C	0.539104	0.055942	0.000105
C28	C	0.744103	-0.291228	0.000067
C29	C	0.764192	-0.063907	0.000072
C30	C	1.230812	-0.163793	0.000104
C31	C	1.330910	-0.166428	0.000104
C32	C	1.060870	-0.400745	0.000085
C33	C	1.063505	-0.539273	0.000080
C34	C	1.145363	0.269798	0.000096
C35	C	1.142641	0.412974	0.000090
N36	N	1.066057	-0.172609	-0.343991
C37	C	1.123650	-0.091925	0.416380
C38	C	1.123664	-0.091921	0.583792
H39	H	0.810652	0.027642	0.000077
H40	H	1.016708	-0.241690	0.406297
N41	N	1.188961	-0.000386	0.334110
H42	H	1.179684	-0.013351	0.226178
H43	H	1.253077	-0.014661	0.360603
H44	H	0.997766	0.395637	0.000086
H45	H	0.452459	-0.490226	0.000056
H46	H	1.172998	-0.022843	0.645885
N47	N	0.694707	0.174728	0.000107
H48	H	0.682729	0.224855	-0.089515
H49	H	0.759872	0.155616	0.000149
H50	H	0.508984	0.149492	0.000153
H51	H	0.321427	-0.372852	0.000083
H52	H	0.623084	-0.494744	0.000051
N53	N	0.783993	-0.415144	0.000034
H54	H	0.733569	-0.485986	0.000026
H55	H	0.822578	-0.421131	0.089663
H56	H	1.213118	0.228661	0.000111
H57	H	0.357863	0.039547	0.000123
H58	H	1.016727	-0.241699	0.593925
H59	H	1.208376	0.478071	0.000101
H60	H	1.000821	0.235175	0.000075
