data_functionalizedCrystal
_audit_creation_method	'MofGen! by Chris Wilmer'
_symmetry_space_group_name_H-M	'P1'
_symmetry_Int_Tables_number	1
_symmetry_cell_setting	triclinic
loop_
_symmetry_equiv_pos_as_xyz
  x,y,z
_cell_length_a	13.339070
_cell_length_b	16.109302
_cell_length_c	15.186229
_cell_angle_alpha	89.994701
_cell_angle_beta	89.998719
_cell_angle_gamma	99.545538
loop_
_atom_site_label
_atom_site_type_symbol
_atom_site_fract_x
_atom_site_fract_y
_atom_site_fract_z
O1	O	0.130024	1.133153	-0.073266
O2	O	0.146204	0.894828	-0.073259
O3	O	-0.009140	0.986638	-0.073259
O4	O	0.285369	1.041343	-0.073266
O5	O	-0.009143	0.986629	0.073198
O6	O	0.146202	0.894819	0.073198
O7	O	0.130022	1.133144	0.073191
Zn8	Zn	0.138112	1.013980	0.096448
Zn9	Zn	0.138115	1.013992	-0.096516
O10	O	0.285367	1.041334	0.073191
C11	C	0.145548	0.863697	-0.000030
C12	C	0.143582	0.770948	-0.000027
C13	C	0.139037	0.557553	0.079798
C14	C	0.137179	0.470404	0.079795
C15	C	0.137187	0.470425	-0.079880
C16	C	0.139037	0.557572	-0.079876
C17	C	0.139967	0.601134	-0.000034
C18	C	0.136259	0.426838	-0.000041
C19	C	0.134245	0.332348	-0.000045
C20	C	0.141979	0.695630	-0.000030
C21	C	-0.046828	0.977393	-0.000031
C22	C	-0.159121	0.949849	-0.000034
C23	C	-0.523983	1.164017	-0.000040
C24	C	-0.418479	1.189899	-0.000033
C25	C	-0.353634	1.129889	-0.000033
C26	C	-0.394304	1.043992	-0.000041
C27	C	-0.499819	1.018108	-0.000042
C28	C	-0.329470	0.983980	-0.000035
C29	C	-0.370139	0.898083	-0.000042
C30	C	-0.475644	0.872203	-0.000044
C31	C	-0.540489	0.932214	-0.000043
C32	C	-0.223955	1.009864	-0.000034
C33	C	-0.199790	0.863955	-0.000036
C34	C	-0.305295	0.838073	-0.000043
C35	C	0.323054	1.050579	-0.000038
C36	C	0.435347	1.078123	-0.000041
C37	C	0.130679	1.164275	-0.000040
C38	C	0.132644	1.257024	-0.000049
N39	N	0.138109	1.013978	0.228141
N40	N	0.138109	1.013999	-0.228209
C41	C	0.069346	1.054656	0.453863
C42	C	0.069343	1.054658	0.546053
C43	C	0.206876	0.973315	0.546062
C44	C	0.206873	0.973309	0.453874
C45	C	0.138109	1.013984	0.407777
C46	C	0.138110	1.013993	0.592155
C47	C	0.138107	1.013995	0.692111
C48	C	0.138109	1.013981	0.307815
H49	H	0.136422	0.434924	0.144803
Cl50	Cl	-0.017104	1.105787	0.395917
H51	H	0.139792	0.593056	-0.144890
Cl52	Cl	0.293322	0.922187	0.604017
Cl53	Cl	-0.356435	0.730092	-0.000054
Cl54	Cl	-0.017107	1.105789	0.603987
Cl55	Cl	-0.172840	1.117843	-0.000025
Cl56	Cl	0.135993	0.415652	-0.180247
Cl57	Cl	0.140199	0.612313	0.180171
H58	H	0.262868	0.940184	0.416348
Cl59	Cl	-0.367359	1.297877	-0.000043
Cl60	Cl	-0.220999	1.162428	-0.000029
Cl61	Cl	-0.605505	1.239448	-0.000023
Cl62	Cl	-0.526769	0.764220	-0.000040
Cl63	Cl	-0.673129	0.899680	-0.000157
H64	H	-0.146993	0.815089	-0.000032
