data_functionalizedCrystal
_audit_creation_method	'MofGen! by Chris Wilmer'
_symmetry_space_group_name_H-M	'P1'
_symmetry_Int_Tables_number	1
_symmetry_cell_setting	triclinic
loop_
_symmetry_equiv_pos_as_xyz
  x,y,z
_cell_length_a	21.295420
_cell_length_b	21.295412
_cell_length_c	12.645329
_cell_angle_alpha	89.977076
_cell_angle_beta	90.016229
_cell_angle_gamma	89.976352
loop_
_atom_site_label
_atom_site_type_symbol
_atom_site_fract_x
_atom_site_fract_y
_atom_site_fract_z
Zn1	Zn	0.962404	-0.355948	-0.422115
Zn2	Zn	1.462404	0.144052	0.077885
Zn3	Zn	0.962331	-0.250687	-0.599393
Zn4	Zn	1.462331	0.249313	-0.099393
Zn5	Zn	0.857129	-0.250692	-0.422139
Zn6	Zn	1.357129	0.249308	0.077861
Zn7	Zn	0.857119	-0.355919	-0.599332
Zn8	Zn	1.357119	0.144081	-0.099332
O9	O	0.909746	-0.303311	-0.510745
O10	O	1.409746	0.196689	-0.010745
O11	O	1.050483	-0.341994	-0.445647
O12	O	1.550483	0.158006	0.054353
O13	O	0.948349	-0.162598	-0.575915
O14	O	1.448349	0.337402	-0.075915
O15	O	0.871128	-0.264669	-0.273788
O16	O	1.371128	0.235331	0.226212
O17	O	1.050430	-0.264660	-0.575892
O18	O	1.550430	0.235340	-0.075892
O19	O	0.948473	-0.341999	-0.273771
O20	O	1.448473	0.158001	0.226229
O21	O	0.871058	-0.162602	-0.445687
O22	O	1.371058	0.337398	0.054313
O23	O	0.769038	-0.264641	-0.445628
O24	O	1.269038	0.235359	0.054372
O25	O	0.871112	-0.444012	-0.575788
O26	O	1.371112	0.055988	-0.075788
O27	O	0.769031	-0.341950	-0.575811
O28	O	1.269031	0.158050	-0.075811
O29	O	0.948464	-0.444033	-0.445588
O30	O	1.448464	0.055967	0.054412
O31	O	0.948340	-0.264632	-0.747732
O32	O	1.448340	0.235368	-0.247732
O33	O	0.871041	-0.341945	-0.747687
O34	O	1.371041	0.158055	-0.247687
C35	C	0.746194	-0.303293	-0.510716
C36	C	1.246194	0.196707	-0.010716
C37	C	0.676226	-0.303301	-0.510729
C38	C	1.176226	0.196699	-0.010729
C39	C	0.176781	-0.343527	-0.578656
C40	C	0.676781	0.156473	-0.078656
C41	C	0.242523	-0.343521	-0.578656
C42	C	0.742523	0.156479	-0.078656
C43	C	0.275387	-0.303331	-0.510769
C44	C	0.775387	0.196669	-0.010769
C45	C	0.242502	-0.263134	-0.442895
C46	C	0.742502	0.236866	0.057105
C47	C	0.176761	-0.263137	-0.442904
C48	C	0.676761	0.236863	0.057096
N49	N	0.378615	-0.298591	-0.417949
N50	N	0.878615	0.201409	0.082051
N51	N	0.441067	-0.298592	-0.417944
N52	N	0.941067	0.201408	0.082056
C53	C	0.473461	-0.303318	-0.510739
C54	C	0.973461	0.196682	-0.010739
N55	N	0.441045	-0.308056	-0.603542
N56	N	0.941045	0.191944	-0.103542
N57	N	0.378588	-0.308058	-0.603546
N58	N	0.878588	0.191942	-0.103546
C59	C	0.346672	-0.303323	-0.510752
C60	C	0.846672	0.196677	-0.010752
C61	C	0.577624	-0.343502	-0.578614
C62	C	1.077624	0.156498	-0.078614
C63	C	0.643367	-0.343491	-0.578616
C64	C	1.143367	0.156509	-0.078616
C65	C	0.643344	-0.263108	-0.442845
C66	C	1.143344	0.236892	0.057155
C67	C	0.577602	-0.263115	-0.442853
C68	C	1.077602	0.236885	0.057147
C69	C	0.544746	-0.303316	-0.510735
C70	C	1.044746	0.196684	-0.010735
C71	C	0.909795	-0.467502	-0.510679
C72	C	1.409795	0.032498	-0.010679
C73	C	0.909816	-0.537470	-0.510651
C74	C	1.409816	-0.037470	-0.010651
C75	C	0.869581	-0.570329	-0.442833
C76	C	1.369581	-0.070329	0.057167
C77	C	0.869579	-0.636071	-0.442813
C78	C	1.369579	-0.136071	0.057187
C79	C	0.909823	-0.668952	-0.510600
C80	C	1.409823	-0.168952	-0.010600
C81	C	0.950061	-0.636086	-0.578431
C82	C	1.450061	-0.136086	-0.078431
C83	C	0.950057	-0.570345	-0.578456
C84	C	1.450057	-0.070345	-0.078456
N85	N	0.964928	-0.772191	-0.518699
N86	N	1.464928	-0.272191	-0.018699
N87	N	0.964930	-0.834643	-0.518669
N88	N	1.464930	-0.334643	-0.018669
C89	C	0.909834	-0.867027	-0.510529
C90	C	1.409834	-0.367027	-0.010529
N91	N	0.854736	-0.834601	-0.502401
N92	N	1.354736	-0.334601	-0.002401
N93	N	0.854736	-0.772144	-0.502425
N94	N	1.354736	-0.272144	-0.002425
C95	C	0.909831	-0.740238	-0.510581
C96	C	1.409831	-0.240238	-0.010581
C97	C	0.869593	-0.971172	-0.442687
C98	C	1.369593	-0.471172	0.057313
C99	C	0.869590	-1.036915	-0.442675
C100	C	1.369590	-0.536915	0.057325
C101	C	0.950078	-1.036929	-0.578286
C102	C	1.450078	-0.536929	-0.078286
C103	C	0.950075	-0.971186	-0.578304
C104	C	1.450075	-0.471186	-0.078304
C105	C	0.909834	-0.938312	-0.510499
C106	C	1.409834	-0.438312	-0.010499
C107	C	1.073936	-0.303330	-0.510774
C108	C	1.573936	0.196670	-0.010774
C109	C	1.143904	-0.303338	-0.510787
C110	C	1.643904	0.196662	-0.010787
C111	C	0.909699	-0.303299	-0.786174
C112	C	1.409699	0.196701	-0.286174
C113	C	0.909737	-0.303314	-0.904004
C114	C	1.409737	0.196686	-0.404004
C115	C	0.909733	-0.139760	-0.510734
C116	C	1.409733	0.360240	-0.010734
C117	C	0.909834	-0.069792	-0.510463
C118	C	1.409834	0.430208	-0.010463
C119	C	0.861085	-0.351924	-0.948903
C120	C	1.361085	0.148076	-0.448903
C121	C	0.861287	-0.352135	-1.071462
C122	C	1.361287	0.147865	-0.571462
C123	C	0.976198	-0.321192	-1.071776
C124	C	1.476198	0.178808	-0.571776
C125	C	0.975858	-0.321525	-0.949179
C126	C	1.475858	0.178475	-0.449179
C127	C	0.892629	-0.236748	-0.949287
C128	C	1.392629	0.263252	-0.449287
C129	C	0.891224	-0.237123	-1.071895
C130	C	1.391224	0.262877	-0.571895
C131	C	0.909810	-0.303338	-0.234239
C132	C	1.409810	0.196662	0.265761
C133	C	0.909837	-0.303349	-0.116409
C134	C	1.409837	0.196651	0.383591
H135	H	0.550833	-0.230391	-0.387583
H136	H	1.050833	0.269609	0.112417
Br137	Br	1.004686	-0.926589	-0.670342
Br138	Br	1.504686	-0.426589	-0.170342
Br139	Br	0.778771	-0.333553	-0.899918
Br140	Br	1.278771	0.166447	-0.399918
Br141	Br	1.004666	-0.525747	-0.670502
Br142	Br	1.504666	-0.025747	-0.170502
Br143	Br	0.287100	-0.208586	-0.350768
Br144	Br	0.787100	0.291414	0.149232
H145	H	0.928060	-0.200531	-0.920239
H146	H	1.428060	0.299469	-0.420239
H147	H	1.013354	-0.287651	-0.919469
H148	H	1.513354	0.212349	-0.419469
Br149	Br	0.880197	-0.434368	-1.120241
Br150	Br	1.380197	0.065632	-0.620241
Br151	Br	0.814966	-0.525716	-0.350816
Br152	Br	1.314966	-0.025716	0.149184
H153	H	0.836821	-1.063668	-0.387453
H154	H	1.336821	-0.563668	0.112547
H155	H	0.670135	-0.376217	-0.633890
H156	H	1.170135	0.123783	-0.133890
Br157	Br	1.004690	-1.081546	-0.670295
Br158	Br	1.504690	-0.581546	-0.170295
H159	H	0.550871	-0.376235	-0.633889
H160	H	1.050871	0.123765	-0.133889
H161	H	0.812085	-0.340982	-1.101646
H162	H	1.312085	0.159018	-0.601646
Br163	Br	0.879753	-0.433669	-0.897456
Br164	Br	1.379753	0.066331	-0.397456
Br165	Br	0.999994	-0.402619	-0.901389
Br166	Br	1.499994	0.097381	-0.401389
H167	H	0.670101	-0.230382	-0.387574
H168	H	1.170101	0.269618	0.112426
H169	H	0.836816	-0.662830	-0.387583
H170	H	1.336816	-0.162830	0.112417
H171	H	0.924084	-0.198988	-1.102506
H172	H	1.424084	0.301012	-0.602506
H173	H	0.842386	-0.223663	-1.101082
H174	H	1.342386	0.276337	-0.601082
Br175	Br	0.132193	-0.398082	-0.670786
Br176	Br	0.632193	0.101918	-0.170786
Br177	Br	0.814980	-0.926552	-0.350673
Br178	Br	1.314980	-0.426552	0.149327
H179	H	0.982827	-0.662862	-0.633623
H180	H	1.482827	-0.162862	-0.133623
Br181	Br	1.038315	-0.264005	-1.120260
Br182	Br	1.538315	0.235995	-0.620260
Br183	Br	1.000802	-0.401413	-1.122825
Br184	Br	1.500802	0.098587	-0.622825
Br185	Br	0.813298	-0.209611	-0.897921
Br186	Br	1.313298	0.290389	-0.397921
H187	H	0.269297	-0.376250	-0.633923
H188	H	0.769297	0.123750	-0.133923
H189	H	0.149993	-0.230410	-0.387634
H190	H	0.649993	0.269590	0.112366
