data_functionalizedCrystal
_audit_creation_method	'MofGen! by Chris Wilmer'
_symmetry_space_group_name_H-M	'P1'
_symmetry_Int_Tables_number	1
_symmetry_cell_setting	triclinic
loop_
_symmetry_equiv_pos_as_xyz
  x,y,z
_cell_length_a	14.909042
_cell_length_b	11.169417
_cell_length_c	11.169409
_cell_angle_alpha	90.021683
_cell_angle_beta	86.669875
_cell_angle_gamma	93.281856
loop_
_atom_site_label
_atom_site_type_symbol
_atom_site_fract_x
_atom_site_fract_y
_atom_site_fract_z
Zn1	Zn	-0.359108	-1.862470	-0.651038
Zn2	Zn	-0.509999	-1.873918	-0.438773
Zn3	Zn	-0.359157	-1.661760	-0.450362
Zn4	Zn	-0.509920	-1.673316	-0.639417
O5	O	-0.434546	-1.767866	-0.544897
O6	O	-0.379136	-2.031940	-0.622894
O7	O	-0.490043	-1.845730	-0.272356
O8	O	-0.232907	-1.678758	-0.486696
O9	O	-0.489995	-2.040350	-0.466943
O10	O	-0.232871	-1.826219	-0.634131
O11	O	-0.379221	-1.689858	-0.280871
O12	O	-0.379144	-1.495343	-0.475427
O13	O	-0.489861	-1.698453	-0.808913
O14	O	-0.489909	-1.503833	-0.614325
O15	O	-0.379059	-1.837424	-0.817450
O16	O	-0.636232	-1.856935	-0.455675
O17	O	-0.636174	-1.709554	-0.603088
C18	C	-0.434524	-1.456040	-0.544874
C19	C	-0.434537	-1.322641	-0.544890
C20	C	-0.668936	-1.785773	-0.526889
C21	C	-0.769210	-1.793544	-0.519225
C22	C	-0.957638	-1.654530	-0.658192
C23	C	-1.051854	-1.661827	-0.650995
C24	C	-1.051858	-1.815429	-0.497629
C25	C	-0.957643	-1.808132	-0.504826
C26	C	-0.910536	-1.727681	-0.585111
C27	C	-0.816319	-1.720390	-0.592313
C28	C	-0.816325	-1.873985	-0.438943
C29	C	-0.910540	-1.881283	-0.431746
C30	C	-0.199240	-1.749922	-0.563002
C31	C	-0.098967	-1.742275	-0.570718
C32	C	-0.434446	-1.767951	-0.857948
C33	C	-0.434403	-1.767987	-0.991351
C34	C	-0.434561	-1.080910	-0.544913
C35	C	-0.434548	-1.214309	-0.544897
C36	C	-0.434581	-1.767846	-0.233070
C37	C	-0.434369	-1.768023	-0.099687
H38	H	-0.777965	-1.654886	-0.657688
H39	H	-0.948908	-1.946780	-0.366377
O40	O	-0.912013	-1.576295	-0.736215
C41	C	-0.921948	-1.424796	-0.887657
C42	C	-0.973728	-1.513319	-0.799321
H43	H	-0.971822	-1.373874	-0.938720
H44	H	-0.877931	-1.358575	-0.835931
H45	H	-0.877745	-1.476475	-0.953780
H46	H	-1.017980	-1.461740	-0.733178
H47	H	-1.017688	-1.579539	-0.851127
O48	O	-0.770430	-1.944924	-0.367993
C49	C	-0.625288	-2.001817	-0.311167
C50	C	-0.677152	-1.921390	-0.391558
H51	H	-0.549864	-1.982837	-0.330208
H52	H	-0.643817	-1.982230	-0.212928
H53	H	-0.643799	-2.100000	-0.330908
H54	H	-0.658669	-1.823181	-0.371922
H55	H	-0.658619	-1.941079	-0.489772
H56	H	-1.090229	-1.880917	-0.432254
O57	O	-1.097708	-1.590947	-0.722041
C58	C	-1.203942	-1.582943	-0.876002
C59	C	-1.152085	-1.663358	-0.795591
H60	H	-1.247904	-1.641454	-0.935505
H61	H	-1.248187	-1.523664	-0.817528
H62	H	-1.154069	-1.524164	-0.934561
H63	H	-1.201893	-1.722209	-0.737018
H64	H	-1.107827	-1.722556	-0.854134
