data_functionalizedCrystal
_audit_creation_method	'MofGen! by Chris Wilmer'
_symmetry_space_group_name_H-M	'P1'
_symmetry_Int_Tables_number	1
_symmetry_cell_setting	triclinic
loop_
_symmetry_equiv_pos_as_xyz
  x,y,z
_cell_length_a	11.026607
_cell_length_b	14.044220
_cell_length_c	10.065875
_cell_angle_alpha	99.592716
_cell_angle_beta	79.302338
_cell_angle_gamma	100.887447
loop_
_atom_site_label
_atom_site_type_symbol
_atom_site_fract_x
_atom_site_fract_y
_atom_site_fract_z
O1	O	1.670494	0.393284	-0.113515
O2	O	1.312203	0.347236	-0.113514
O3	O	1.485969	0.231359	-0.113501
O4	O	1.496729	0.509161	-0.113528
O5	O	1.452846	0.253569	0.113485
O6	O	1.279081	0.369446	0.113472
O7	O	1.637372	0.415494	0.113471
Zn8	Zn	1.452967	0.395996	0.149510
Zn9	Zn	1.496608	0.366734	-0.149554
O10	O	1.463606	0.531371	0.113458
C11	C	1.249512	0.349846	-0.000021
C12	C	1.112056	0.324521	-0.000020
C13	C	1.045821	0.394445	-0.000028
C14	C	0.903753	0.368273	-0.000027
C15	C	1.464699	0.206346	-0.000008
C16	C	1.450655	0.098724	-0.000006
C17	C	1.424983	-0.098320	-0.000025
C18	C	1.524588	-0.138958	-0.000030
C19	C	1.510304	-0.248600	-0.000041
C20	C	1.439265	0.011332	-0.000015
C21	C	1.700064	0.412884	-0.000025
C22	C	1.837520	0.438207	-0.000035
C23	C	1.484876	0.556383	-0.000039
C24	C	1.498921	0.664004	-0.000049
N25	N	1.423193	0.415967	0.353614
N26	N	1.526391	0.346756	-0.353657
C27	C	1.486240	0.373675	0.421397
C28	C	1.463335	0.389055	0.578563
H29	H	0.885983	0.517454	-0.000034
H30	H	1.557169	0.326076	0.363079
C31	C	1.654276	-0.074723	0.000000
H32	H	1.646989	-0.008388	0.000023
H33	H	1.709487	-0.095799	-0.079147
H34	H	1.686347	-0.080337	0.079174
H35	H	1.597325	0.299155	0.588028
C36	C	0.838297	0.261219	-0.000016
H37	H	0.898274	0.220744	-0.000002
H38	H	0.799670	0.240686	-0.079168
H39	H	0.776575	0.256181	0.079152
C40	C	1.327346	0.480248	0.432382
H41	H	1.290750	0.504778	0.369475
H42	H	1.368218	0.533400	0.488125
H43	H	1.263914	0.442209	0.488125
C44	C	1.111288	0.501493	-0.000040
H45	H	1.198186	0.505039	-0.000049
H46	H	1.076488	0.540487	0.079109
H47	H	1.099592	0.524990	-0.079211
C48	C	1.295298	-0.162550	-0.000014
H49	H	1.302589	-0.228880	-0.000007
H50	H	1.263189	-0.156948	-0.079160
H51	H	1.240112	-0.141463	0.079160
C52	C	1.367483	0.453339	0.657326
H53	H	1.330887	0.477868	0.594419
H54	H	1.408355	0.506491	0.713069
H55	H	1.304052	0.415299	0.713069
C56	C	1.046595	0.217472	-0.000009
H57	H	1.106572	0.176997	0.000004
H58	H	1.007968	0.196940	-0.079161
H59	H	0.984873	0.212434	0.079159
