data_functionalizedCrystal
_audit_creation_method	'MofGen! by Chris Wilmer'
_symmetry_space_group_name_H-M	'P1'
_symmetry_Int_Tables_number	1
_symmetry_cell_setting	triclinic
loop_
_symmetry_equiv_pos_as_xyz
  x,y,z
_cell_length_a	14.971482
_cell_length_b	10.723023
_cell_length_c	13.448316
_cell_angle_alpha	89.994428
_cell_angle_beta	89.993798
_cell_angle_gamma	84.040078
loop_
_atom_site_label
_atom_site_type_symbol
_atom_site_fract_x
_atom_site_fract_y
_atom_site_fract_z
O1	O	1.187822	0.162595	-0.082677
O2	O	1.687822	0.662595	0.417323
O3	O	0.927526	0.182073	-0.082681
O4	O	1.427526	0.682073	0.417319
O5	O	1.063679	-0.009305	-0.082675
O6	O	1.563679	0.490695	0.417325
O7	O	1.051670	0.353973	-0.082683
O8	O	1.551670	0.853973	0.417317
O9	O	1.063661	-0.009317	0.082709
O10	O	1.563661	0.490683	0.582709
O11	O	0.927509	0.182061	0.082702
O12	O	1.427509	0.682061	0.582702
O13	O	1.187805	0.162583	0.082707
O14	O	1.687805	0.662583	0.582707
Cu15	Cu	1.057655	0.172321	0.097806
Cu16	Cu	1.557655	0.672321	0.597806
Cu17	Cu	1.057676	0.172335	-0.097780
Cu18	Cu	1.557676	0.672335	0.402220
O19	O	1.051652	0.353961	0.082701
O20	O	1.551652	0.853961	0.582701
C21	C	0.894188	0.181197	0.000010
C22	C	1.394188	0.681197	0.500010
C23	C	0.794877	0.178589	0.000008
C24	C	1.294877	0.678589	0.500008
C25	C	0.748216	0.177354	0.090160
C26	C	1.248216	0.677354	0.590160
C27	C	0.654904	0.174884	0.090161
C28	C	1.154904	0.674884	0.590161
C29	C	0.608254	0.173657	0.000009
C30	C	1.108254	0.673657	0.500009
C31	C	0.654922	0.174888	-0.090149
C32	C	1.154922	0.674888	0.409851
C33	C	0.748233	0.177350	-0.090149
C34	C	1.248233	0.677350	0.409851
C35	C	0.460432	0.169761	-0.090143
C36	C	0.960432	0.669761	0.409857
C37	C	0.367115	0.167302	-0.090143
C38	C	0.867115	0.667302	0.409857
C39	C	0.367104	0.167295	0.090168
C40	C	0.867104	0.667295	0.590168
C41	C	0.460415	0.169756	0.090168
C42	C	0.960415	0.669756	0.590168
C43	C	0.507076	0.170990	0.000009
C44	C	1.007076	0.670990	0.500009
C45	C	1.062796	-0.055802	0.000016
C46	C	1.562796	0.444198	0.500016
C47	C	1.060182	-0.194329	0.000013
C48	C	1.560182	0.305671	0.500013
C49	C	1.059025	-0.256076	-0.085662
C50	C	1.559025	0.243924	0.414338
C51	C	1.056323	-0.399251	-0.085668
C52	C	1.556323	0.100749	0.414332
C53	C	1.221143	0.163459	0.000014
C54	C	1.721143	0.663459	0.500014
C55	C	1.320454	0.166067	0.000009
C56	C	1.820454	0.666067	0.500009
C57	C	1.052535	0.400458	0.000008
C58	C	1.552535	0.900458	0.500008
C59	C	1.055149	0.538984	0.000004
C60	C	1.555149	1.038984	0.500004
N61	N	1.057647	0.172310	0.235370
N62	N	1.557647	0.672310	0.735370
N63	N	1.057691	0.172336	-0.235344
N64	N	1.557691	0.672336	0.264656
C65	C	1.117955	0.087603	0.287413
C66	C	1.617955	0.587603	0.787413
C67	C	1.117960	0.087602	0.391516
C68	C	1.617960	0.587602	0.891516
C69	C	1.057662	0.172315	0.443575
C70	C	1.557662	0.672315	0.943575
C71	C	0.997348	0.257027	0.391524
C72	C	1.497348	0.757027	0.891524
C73	C	0.997339	0.257021	0.287423
C74	C	1.497339	0.757021	0.787423
C75	C	0.997373	0.257035	0.608504
C76	C	1.497373	0.757035	1.108504
C77	C	0.997383	0.257043	0.712613
C78	C	1.497383	0.757043	1.212613
C79	C	1.117994	0.087616	0.712598
C80	C	1.617994	0.587616	1.212598
C81	C	1.117985	0.087610	0.608496
C82	C	1.617985	0.587610	1.108496
C83	C	1.057672	0.172324	0.556453
C84	C	1.557672	0.672324	1.056453
H85	H	0.616919	0.173858	0.163572
H86	H	1.116919	0.673858	0.663572
C87	C	0.315776	0.165929	0.189344
C88	C	0.815776	0.665929	0.689344
N89	N	0.277112	0.164904	0.264041
N90	N	0.777112	0.664904	0.764041
C91	C	0.931011	0.350201	0.448792
C92	C	1.431011	0.850201	0.948792
N93	N	0.881044	0.420381	0.491925
N94	N	1.381044	0.920381	0.991925
C95	C	1.184316	-0.005578	0.551235
C96	C	1.684316	0.494422	1.051235
N97	N	1.234275	-0.075773	0.508105
N98	N	1.734275	0.424227	1.008105
H99	H	1.055333	-0.452353	-0.159017
H100	H	1.555333	0.047647	0.340983
H101	H	1.167103	0.018640	0.754978
H102	H	1.667103	0.518640	1.254978
H103	H	1.056148	-0.407923	0.073358
H104	H	1.556148	0.092077	0.573358
H105	H	1.059166	-0.247460	0.073358
H106	H	1.559166	0.252540	0.573358
C107	C	1.184288	-0.005591	0.230159
C108	C	1.684288	0.494409	0.730159
N109	N	1.234250	-0.075791	0.187038
N110	N	1.734250	0.424209	0.687038
C111	C	0.511756	0.171124	-0.189323
C112	C	1.011756	0.671124	0.310677
N113	N	0.550413	0.172160	-0.264024
N114	N	1.050413	0.672160	0.235976
C115	C	0.799523	0.178703	0.189336
C116	C	1.299523	0.678703	0.689336
N117	N	0.838165	0.179712	0.264038
N118	N	1.338165	0.679712	0.764038
H119	H	0.948281	0.326024	0.754993
H120	H	1.448281	0.826024	1.254993
C121	C	0.931003	0.350216	0.230176
C122	C	1.431003	0.850216	0.730176
N123	N	0.881038	0.420414	0.187059
N124	N	1.381038	0.920414	0.687059
H125	H	0.329135	0.166304	-0.163553
H126	H	0.829135	0.666304	0.336447
H127	H	0.498394	0.170763	0.163577
H128	H	0.998394	0.670763	0.663577
H129	H	0.616933	0.173881	-0.163552
H130	H	1.116933	0.673881	0.336448
H131	H	1.167066	0.018626	0.433890
H132	H	1.667066	0.518626	0.933890
H133	H	0.786222	0.178357	-0.163560
H134	H	1.286222	0.678357	0.336440
H135	H	1.060032	-0.202943	-0.159008
H136	H	1.560032	0.297057	0.340992
H137	H	0.948257	0.326014	0.566134
H138	H	1.448257	0.826014	1.066134
