data_functionalizedCrystal
_audit_creation_method	'MofGen! by Chris Wilmer'
_symmetry_space_group_name_H-M	'P1'
_symmetry_Int_Tables_number	1
_symmetry_cell_setting	triclinic
loop_
_symmetry_equiv_pos_as_xyz
  x,y,z
_cell_length_a	14.044220
_cell_length_b	14.044190
_cell_length_c	12.996460
_cell_angle_alpha	89.989157
_cell_angle_beta	89.999501
_cell_angle_gamma	93.190328
loop_
_atom_site_label
_atom_site_type_symbol
_atom_site_fract_x
_atom_site_fract_y
_atom_site_fract_z
O1	O	1.277175	0.230170	-0.085478
O2	O	1.527175	0.480170	0.164522
O3	O	1.777175	0.730170	0.414522
O4	O	2.027175	0.980170	0.664522
O5	O	1.000504	0.221865	-0.085504
O6	O	1.250504	0.471865	0.164496
O7	O	1.500504	0.721865	0.414496
O8	O	1.750504	0.971865	0.664496
O9	O	1.134683	0.087681	-0.085471
O10	O	1.384683	0.337681	0.164529
O11	O	1.634683	0.587681	0.414529
O12	O	1.884683	0.837681	0.664529
O13	O	1.142996	0.364354	-0.085511
O14	O	1.392996	0.614354	0.164489
O15	O	1.642996	0.864354	0.414489
O16	O	1.892996	1.114354	0.664489
O17	O	1.134667	0.087672	0.085663
O18	O	1.384667	0.337672	0.335663
O19	O	1.634667	0.587672	0.585663
O20	O	1.884667	0.837672	0.835663
O21	O	1.000488	0.221855	0.085630
O22	O	1.250488	0.471855	0.335630
O23	O	1.500488	0.721855	0.585630
O24	O	1.750488	0.971855	0.835630
O25	O	1.277159	0.230161	0.085656
O26	O	1.527159	0.480161	0.335656
O27	O	1.777159	0.730161	0.585656
O28	O	2.027159	0.980161	0.835656
Cu29	Cu	1.138822	0.226007	0.101269
Cu30	Cu	1.388822	0.476007	0.351269
Cu31	Cu	1.638822	0.726007	0.601269
Cu32	Cu	1.888822	0.976007	0.851269
Cu33	Cu	1.138841	0.226018	-0.101117
Cu34	Cu	1.388841	0.476018	0.148883
Cu35	Cu	1.638841	0.726018	0.398883
Cu36	Cu	1.888841	0.976018	0.648883
O37	O	1.142980	0.364344	0.085623
O38	O	1.392980	0.614344	0.335623
O39	O	1.642980	0.864344	0.585623
O40	O	1.892980	1.114344	0.835623
C41	C	0.964874	0.218224	0.000060
C42	C	1.214874	0.468224	0.250060
C43	C	1.464874	0.718224	0.500060
C44	C	1.714874	0.968224	0.750060
C45	C	0.858731	0.207380	0.000052
C46	C	1.108731	0.457380	0.250052
C47	C	1.358731	0.707380	0.500052
C48	C	1.608731	0.957380	0.750052
C49	C	0.664392	0.187553	0.000075
C50	C	0.914392	0.437553	0.250075
C51	C	1.164392	0.687553	0.500075
C52	C	1.414392	0.937553	0.750075
C53	C	0.613264	0.264468	0.000068
C54	C	0.863264	0.514468	0.250068
C55	C	1.113264	0.764468	0.500068
C56	C	1.363264	1.014468	0.750068
C57	C	0.505128	0.253436	0.000081
C58	C	0.755128	0.503436	0.250081
C59	C	1.005128	0.753436	0.500081
C60	C	1.255128	1.003436	0.750081
C61	C	0.772539	0.198583	0.000062
C62	C	1.022539	0.448583	0.250062
C63	C	1.272539	0.698583	0.500062
C64	C	1.522539	0.948583	0.750062
C65	C	1.131039	0.052054	0.000099
C66	C	1.381039	0.302054	0.250099
C67	C	1.631039	0.552054	0.500099
C68	C	1.881039	0.802054	0.750099
C69	C	1.120191	-0.054089	0.000107
C70	C	1.370191	0.195911	0.250107
C71	C	1.620191	0.445911	0.500107
C72	C	1.870191	0.695911	0.750107
C73	C	1.177292	-0.299547	0.000071
C74	C	1.427292	-0.049547	0.250071
C75	C	1.677292	0.200453	0.500071
C76	C	1.927292	0.450453	0.750071
C77	C	1.100375	-0.248422	0.000072
C78	C	1.350375	0.001578	0.250072
C79	C	1.600375	0.251578	0.500072
C80	C	1.850375	0.501578	0.750072
C81	C	1.111404	-0.140285	0.000091
C82	C	1.361404	0.109715	0.250091
C83	C	1.611404	0.359715	0.500091
C84	C	1.861404	0.609715	0.750091
C85	C	1.166265	-0.407694	0.000052
C86	C	1.416265	-0.157694	0.250052
C87	C	1.666265	0.092306	0.500052
C88	C	1.916265	0.342306	0.750052
C89	C	1.312789	0.233801	0.000089
C90	C	1.562789	0.483801	0.250089
C91	C	1.812789	0.733801	0.500089
C92	C	2.062789	0.983801	0.750089
C93	C	1.418932	0.244646	0.000091
C94	C	1.668932	0.494646	0.250091
C95	C	1.918932	0.744646	0.500091
C96	C	2.168932	0.994646	0.750091
C97	C	1.146624	0.399971	0.000051
C98	C	1.396624	0.649971	0.250051
C99	C	1.646624	0.899971	0.500051
C100	C	1.896624	1.149971	0.750051
C101	C	1.157472	0.506114	0.000036
C102	C	1.407472	0.756114	0.250036
C103	C	1.657472	1.006114	0.500036
C104	C	1.907472	1.256114	0.750036
N105	N	1.138816	0.225999	0.243616
N106	N	1.388816	0.475999	0.493616
N107	N	1.638816	0.725999	0.743616
N108	N	1.888816	0.975999	0.993616
N109	N	1.138854	0.226019	-0.243464
N110	N	1.388854	0.476019	0.006536
N111	N	1.638854	0.726019	0.256536
N112	N	1.888854	0.976019	0.506536
C113	C	1.138840	0.226019	0.663430
C114	C	1.388840	0.476019	0.913430
C115	C	1.638840	0.726019	1.163430
C116	C	1.888840	0.976019	1.413430
C117	C	1.138830	0.226017	0.546625
C118	C	1.388830	0.476017	0.796625
C119	C	1.638830	0.726017	1.046625
C120	C	1.888830	0.976017	1.296625
C121	C	1.138828	0.226010	0.453527
C122	C	1.388828	0.476010	0.703527
C123	C	1.638828	0.726010	0.953527
C124	C	1.888828	0.976010	1.203527
C125	C	1.138818	0.226006	0.336714
C126	C	1.388818	0.476006	0.586714
C127	C	1.638818	0.726006	0.836714
C128	C	1.888818	0.976006	1.086714
H129	H	0.626954	0.113425	0.000091
H130	H	0.876954	0.363425	0.250091
H131	H	1.126954	0.613425	0.500091
H132	H	1.376954	0.863425	0.750091
H133	H	1.026243	-0.285865	0.000059
H134	H	1.276243	-0.035865	0.250059
H135	H	1.526243	0.214135	0.500059
H136	H	1.776243	0.464135	0.750059
H137	H	0.650706	0.338602	0.000052
H138	H	0.900706	0.588602	0.250052
H139	H	1.150706	0.838602	0.500052
H140	H	1.400706	1.088602	0.750052
H141	H	1.251418	-0.262106	0.000089
H142	H	1.501418	-0.012106	0.250089
H143	H	1.751418	0.237894	0.500089
H144	H	2.001418	0.487894	0.750089
