data_functionalizedCrystal
_audit_creation_method	'MofGen! by Chris Wilmer'
_symmetry_space_group_name_H-M	'P1'
_symmetry_Int_Tables_number	1
_symmetry_cell_setting	triclinic
loop_
_symmetry_equiv_pos_as_xyz
  x,y,z
_cell_length_a	17.077404
_cell_length_b	18.050589
_cell_length_c	17.077396
_cell_angle_alpha	90.024642
_cell_angle_beta	90.019501
_cell_angle_gamma	90.028446
loop_
_atom_site_label
_atom_site_type_symbol
_atom_site_fract_x
_atom_site_fract_y
_atom_site_fract_z
Zn1	Zn	1.200026	-0.295655	0.443864
Zn2	Zn	1.199920	-0.419852	0.312606
Zn3	Zn	1.068757	-0.295681	0.312612
Zn4	Zn	1.068713	-0.419808	0.443830
O5	O	1.134354	-0.357749	0.378228
O6	O	1.309858	-0.312138	0.426464
O7	O	1.182496	-0.403410	0.202760
O8	O	1.086233	-0.191753	0.330039
O9	O	1.309781	-0.403385	0.330030
O10	O	1.182675	-0.191734	0.426469
O11	O	1.086131	-0.312182	0.202764
O12	O	0.958905	-0.312139	0.330006
O13	O	1.086157	-0.403310	0.553681
O14	O	0.958872	-0.403335	0.426412
O15	O	1.182632	-0.312095	0.553706
O16	O	1.182453	-0.523771	0.329997
O17	O	1.086056	-0.523739	0.426407
C18	C	0.930406	-0.357736	0.378206
C19	C	0.843156	-0.357748	0.378216
C20	C	0.802170	-0.405305	0.428333
C21	C	0.720189	-0.405307	0.428346
C22	C	0.679197	-0.357754	0.378236
C23	C	0.720189	-0.310192	0.328116
C24	C	0.802168	-0.310187	0.328108
C25	C	0.549319	-0.310206	0.328135
C26	C	0.467335	-0.310212	0.328142
C27	C	0.467340	-0.405326	0.428373
C28	C	0.549319	-0.405321	0.428365
C29	C	0.590306	-0.357760	0.378244
C30	C	1.134259	-0.550701	0.378215
C31	C	1.134291	-0.633247	0.378236
C32	C	1.081921	-0.832707	0.430645
C33	C	1.062786	-0.882149	0.359016
C34	C	1.134368	-0.784377	0.378246
C35	C	1.153541	-0.882017	0.449883
C36	C	1.134441	-0.930362	0.378262
C37	C	1.115195	-0.832732	0.306579
C38	C	1.205984	-0.832596	0.397495
C39	C	1.186876	-0.882016	0.325816
C40	C	1.134324	-0.700279	0.378238
C41	C	1.134485	-1.014459	0.378262
C42	C	1.339098	-0.357763	0.378250
C43	C	1.426348	-0.357769	0.378260
C44	C	1.134402	-0.357694	0.582972
C45	C	1.134422	-0.357671	0.670222
C46	C	1.134471	-0.164043	0.378258
C47	C	1.134520	-0.081498	0.378271
C48	C	1.134352	-0.357750	0.174280
C49	C	1.134484	-0.357564	0.087031
C50	C	1.184658	-0.310172	0.711226
C51	C	1.184667	-0.310147	0.793207
C52	C	1.134444	-0.357626	0.834182
C53	C	1.084202	-0.405128	0.793172
C54	C	1.084190	-0.405148	0.711193
C55	C	1.084234	-0.405083	0.964042
C56	C	1.084248	-0.405064	1.046026
C57	C	1.184712	-0.310082	1.046056
C58	C	1.184699	-0.310102	0.964077
C59	C	1.134458	-0.357605	0.923073
H60	H	0.433961	-0.271482	0.287347
H61	H	1.002257	-0.903931	0.342749
C62	C	1.287735	-0.803165	0.419512
C63	C	1.302827	-0.719106	0.422825
C64	C	1.384579	-0.689673	0.444851
C65	C	1.451238	-0.744298	0.463565
C66	C	1.436147	-0.828362	0.460253
C67	C	1.354396	-0.857795	0.438226
H68	H	1.253480	-0.678664	0.408971
H69	H	1.395749	-0.627443	0.447303
H70	H	1.511755	-0.722510	0.479870
H71	H	1.485494	-0.868804	0.474106
H72	H	1.343225	-0.920025	0.435774
H73	H	0.433965	-0.444050	0.469186
C74	C	1.093236	-0.803613	0.224718
C75	C	1.089111	-0.719609	0.209590
C76	C	1.067154	-0.690489	0.127731
C77	C	1.049323	-0.745374	0.060999
C78	C	1.053448	-0.829383	0.076125
C79	C	1.075404	-0.858503	0.157984
H80	H	1.102311	-0.678976	0.258990
H81	H	1.064101	-0.628299	0.116534
H82	H	1.033069	-0.723817	0.000402
H83	H	1.040247	-0.870017	0.026725
H84	H	1.078458	-0.920693	0.169181
C85	C	1.246827	-0.911094	0.265894
C86	C	1.295150	-0.856182	0.216638
C87	C	1.355092	-0.885265	0.156711
C88	C	1.366712	-0.969259	0.146040
C89	C	1.318388	-1.024176	0.195297
C90	C	1.258445	-0.995094	0.255224
H91	H	1.286549	-0.793999	0.224536
H92	H	1.390865	-0.844611	0.120248
H93	H	1.411086	-0.990788	0.101678
H94	H	1.326989	-1.086359	0.187399
H95	H	1.222673	-1.035747	0.291687
H96	H	1.225619	-0.271402	1.079446
C97	C	0.594403	-0.257888	0.273000
C98	C	0.650720	-0.289989	0.211308
C99	C	0.695802	-0.237674	0.156171
C100	C	0.684568	-0.153257	0.162727
C101	C	0.628249	-0.121151	0.224421
C102	C	0.583166	-0.173466	0.279558
H103	H	0.659039	-0.352484	0.206453
H104	H	0.737494	-0.261442	0.110501
H105	H	0.717941	-0.114530	0.121911
H106	H	0.619930	-0.058657	0.229276
H107	H	0.541475	-0.149699	0.325228
C108	C	0.675108	-0.457624	0.483476
C109	C	0.686339	-0.542041	0.476910
C110	C	0.641259	-0.594360	0.532044
C111	C	0.584948	-0.562263	0.593745
C112	C	0.573715	-0.477842	0.600313
C113	C	0.618795	-0.425523	0.545179
H114	H	0.728025	-0.565805	0.431233
H115	H	0.649575	-0.656854	0.527181
H116	H	0.551578	-0.600993	0.634558
H117	H	0.532028	-0.454078	0.645990
H118	H	0.610479	-0.363028	0.550042
C119	C	1.175416	-0.911266	0.531715
C120	C	1.124054	-0.891793	0.602900
C121	C	1.145921	-0.921039	0.684733
C122	C	1.219149	-0.969759	0.695381
C123	C	1.270515	-0.989235	0.624194
C124	C	1.248649	-0.959989	0.542361
H125	H	1.069842	-0.855725	0.595020
H126	H	1.107896	-0.906621	0.737431
H127	H	1.235336	-0.991408	0.755959
H128	H	1.324727	-1.025302	0.632074
H129	H	1.286674	-0.974406	0.489663
H130	H	1.225558	-0.271511	0.677871
H131	H	1.225600	-0.271445	0.930718
H132	H	1.043350	-0.443724	1.079386
H133	H	1.043310	-0.443753	0.930658
C134	C	1.239930	-0.257895	0.838308
C135	C	1.329161	-0.263968	0.827052
C136	C	1.384424	-0.211711	0.872151
C137	C	1.350457	-0.153380	0.928506
C138	C	1.261221	-0.147305	0.939764
C139	C	1.205957	-0.199562	0.894665
H140	H	1.354310	-0.307150	0.785333
H141	H	1.450483	-0.216209	0.863817
H142	H	1.391366	-0.114696	0.961890
H143	H	1.236072	-0.104123	0.981483
H144	H	1.139899	-0.195064	0.902999
H145	H	1.043307	-0.443783	0.826540
C146	C	1.028933	-0.457400	0.666081
C147	C	0.939701	-0.451332	0.677336
C148	C	0.884442	-0.503583	0.632224
C149	C	0.918413	-0.561901	0.575858
C150	C	1.007650	-0.567971	0.564601
C151	C	1.062910	-0.515720	0.609713
H152	H	0.914549	-0.408160	0.719064
H153	H	0.818383	-0.499089	0.640557
H154	H	0.877507	-0.600580	0.542464
H155	H	1.032802	-0.611144	0.522873
H156	H	1.128968	-0.520214	0.601379
C157	C	0.847258	-0.257875	0.272977
C158	C	0.903656	-0.199607	0.307096
C159	C	0.948746	-0.147290	0.251967
C160	C	0.937439	-0.153241	0.162720
C161	C	0.881039	-0.211511	0.128596
C162	C	0.835949	-0.263828	0.183725
H163	H	0.912028	-0.195199	0.373166
H164	H	0.990497	-0.104155	0.277228
H165	H	0.970817	-0.114513	0.121910
H166	H	0.872666	-0.215919	0.062526
H167	H	0.794198	-0.306963	0.158464
C168	C	1.021921	-0.803448	0.490422
C169	C	0.934603	-0.823045	0.481464
C170	C	0.874603	-0.793784	0.541235
C171	C	0.901920	-0.744925	0.609964
C172	C	0.989242	-0.725324	0.618925
C173	C	1.049243	-0.754586	0.559154
H174	H	0.914378	-0.859216	0.430583
H175	H	0.809961	-0.808294	0.534601
H176	H	0.857504	-0.723263	0.654211
H177	H	1.009468	-0.689153	0.669805
H178	H	1.113885	-0.740076	0.565787
H179	H	0.686807	-0.271471	0.287319
H180	H	0.582693	-0.444047	0.469164
H181	H	0.835540	-0.444030	0.469136
