data_functionalizedCrystal
_audit_creation_method	'MofGen! by Chris Wilmer'
_symmetry_space_group_name_H-M	'P1'
_symmetry_Int_Tables_number	1
_symmetry_cell_setting	triclinic
loop_
_symmetry_equiv_pos_as_xyz
  x,y,z
_cell_length_a	19.188930
_cell_length_b	19.188924
_cell_length_c	12.503584
_cell_angle_alpha	93.509791
_cell_angle_beta	86.479693
_cell_angle_gamma	83.143372
loop_
_atom_site_label
_atom_site_type_symbol
_atom_site_fract_x
_atom_site_fract_y
_atom_site_fract_z
O1	O	0.930197	0.083100	-0.089672
O2	O	0.726883	0.094837	-0.089599
O3	O	0.834409	-0.012687	-0.089625
O4	O	0.822671	0.190624	-0.089646
O5	O	0.826322	-0.004586	0.089019
O6	O	0.718795	0.102939	0.089045
O7	O	0.922110	0.091201	0.088972
Cu8	Cu	0.819714	0.097809	0.105320
Cu9	Cu	0.829278	0.088229	-0.105947
O10	O	0.814584	0.198725	0.088998
C11	C	0.696828	0.098508	-0.000268
C12	C	0.619322	0.097369	-0.000239
C13	C	0.574397	0.160459	-0.000263
C14	C	0.501574	0.159387	-0.000274
C15	C	0.473680	0.095220	-0.000284
C16	C	0.518614	0.032122	-0.000255
C17	C	0.591435	0.033197	-0.000232
N18	N	0.368455	0.043414	-0.061123
N19	N	0.299277	0.042398	-0.061146
C20	C	0.254274	0.091979	-0.000350
N21	N	0.281061	0.142625	0.060458
N22	N	0.350245	0.143644	0.060477
C23	C	0.394718	0.094048	-0.000308
C24	C	0.130386	0.153911	-0.000384
C25	C	0.057561	0.152836	-0.000389
C26	C	0.074603	0.025569	-0.000380
C27	C	0.147425	0.026646	-0.000365
C28	C	0.175312	0.090818	-0.000372
C29	C	0.829986	-0.034647	-0.000302
C30	C	0.828847	-0.112152	-0.000299
C31	C	0.832724	-0.152967	-0.097677
C32	C	0.831645	-0.225790	-0.097685
C33	C	0.826702	-0.257797	-0.000309
C34	C	0.822821	-0.216972	0.097083
C35	C	0.823893	-0.144150	0.097088
N36	N	0.861469	-0.374174	0.072153
N37	N	0.860452	-0.443353	0.072141
C38	C	0.823468	-0.477207	-0.000318
N39	N	0.787549	-0.439270	-0.072782
N40	N	0.788570	-0.370085	-0.072773
C41	C	0.825538	-0.336760	-0.000303
C42	C	0.826174	-0.596985	-0.097712
C43	C	0.825090	-0.669808	-0.097716
C44	C	0.816273	-0.660990	0.097056
C45	C	0.817350	-0.588167	0.097057
C46	C	0.822304	-0.556169	-0.000330
C47	C	0.952165	0.087530	-0.000362
C48	C	1.029672	0.088669	-0.000397
C49	C	0.819007	0.220686	-0.000328
C50	C	0.820146	0.298190	-0.000338
N51	N	0.812993	0.104547	0.253914
C52	C	0.803105	0.114465	0.473032
C53	C	0.845889	0.071577	0.526348
C54	C	0.840387	0.077096	0.648273
C55	C	0.808606	0.108948	0.351096
N56	N	0.836003	0.081493	0.745459
H57	H	0.020983	0.204214	-0.000402
C58	C	0.452906	0.227960	-0.000366
C59	C	0.492916	0.284387	-0.000394
C60	C	0.448111	0.347566	-0.000496
H61	H	0.421287	0.233116	0.061901
H62	H	0.426998	0.227389	-0.062701
H63	H	0.518813	0.284959	0.061935
H64	H	0.524533	0.279255	-0.062656
H65	H	0.422203	0.346994	-0.062832
H66	H	0.416495	0.352714	0.061772
H67	H	0.475252	0.385858	-0.000525
C68	C	0.748722	0.168846	0.534395
C69	C	0.703169	0.134722	0.599012
C70	C	0.653072	0.184795	0.655580
H71	H	0.722526	0.195060	0.485038
H72	H	0.771839	0.199742	0.578311
H73	H	0.680054	0.103838	0.555100
H74	H	0.729344	0.108511	0.648388
H75	H	0.676188	0.215691	0.699496
H76	H	0.626881	0.211007	0.606216
H77	H	0.622162	0.161650	0.699437
C78	C	0.604715	0.230104	-0.000503
C79	C	0.650191	0.230271	-0.092421
C80	C	0.678123	0.294421	-0.092693
H81	H	0.629984	0.236075	0.061724
H82	H	0.567542	0.267536	-0.000582
H83	H	0.687358	0.192849	-0.092331
H84	H	0.624938	0.224311	-0.154662
H85	H	0.640949	0.331853	-0.092773
H86	H	0.703388	0.300387	-0.030463
H87	H	0.708976	0.294545	-0.155063
H88	H	0.836756	-0.126919	-0.176977
H89	H	0.820733	-0.110918	0.176388
C90	C	0.835868	-0.269995	-0.203529
C91	C	0.840437	-0.226386	-0.288813
C92	C	0.844324	-0.267080	-0.386330
H93	H	0.794934	-0.293134	-0.207690
H94	H	0.876351	-0.304037	-0.207673
H95	H	0.799958	-0.192356	-0.284670
H96	H	0.881369	-0.203246	-0.284687
H97	H	0.884807	-0.301122	-0.390474
H98	H	0.803389	-0.290217	-0.390480
H99	H	0.847431	-0.237498	-0.444206
C100	C	0.160720	0.223549	-0.000593
C101	C	0.206200	0.223728	-0.092503
C102	C	0.234148	0.287870	-0.092736
H103	H	0.185989	0.229499	0.061639
H104	H	0.123554	0.260992	-0.000656
H105	H	0.243360	0.186297	-0.092431
H106	H	0.180948	0.217790	-0.154750
H107	H	0.196982	0.325312	-0.092799
H108	H	0.259413	0.293814	-0.030500
H109	H	0.265004	0.288002	-0.155101
C110	C	0.640191	-0.035338	-0.000438
C111	C	0.631814	-0.078148	-0.092361
C112	C	0.676725	-0.141284	-0.092597
H113	H	0.628968	-0.058922	0.061786
H114	H	0.687569	-0.025540	-0.000486
H115	H	0.584447	-0.087948	-0.092303
H116	H	0.643043	-0.054587	-0.154599
H117	H	0.724102	-0.131486	-0.092645
H118	H	0.665498	-0.164861	-0.030370
H119	H	0.671052	-0.170336	-0.154970
C120	C	0.488199	-0.037477	-0.000323
C121	C	0.414810	-0.024917	-0.000379
C122	C	0.386770	-0.089017	-0.000452
H123	H	0.500717	-0.060675	0.061964
H124	H	0.506435	-0.066278	-0.062638
H125	H	0.396581	0.003873	0.061930
H126	H	0.402272	-0.001729	-0.062662
H127	H	0.405006	-0.117818	-0.062767
H128	H	0.399294	-0.112210	0.061836
H129	H	0.336974	-0.080504	-0.000500
H130	H	0.828243	-0.703039	-0.177016
C131	C	0.810783	-0.695799	0.202709
C132	C	0.749856	-0.729311	0.208393
C133	C	0.744769	-0.761391	0.305704
H134	H	0.808585	-0.661123	0.260790
H135	H	0.850859	-0.729516	0.206774
H136	H	0.709789	-0.695598	0.204338
H137	H	0.752040	-0.763998	0.150335
H138	H	0.784846	-0.795108	0.309769
H139	H	0.742574	-0.726711	0.363777
H140	H	0.703434	-0.784138	0.309569
H141	H	0.886650	0.030716	0.480426
C142	C	0.044194	-0.044031	-0.000448
C143	C	-0.029195	-0.031471	-0.000498
C144	C	-0.057234	-0.095572	-0.000572
H145	H	0.056715	-0.067231	0.061836
H146	H	0.062428	-0.072830	-0.062766
H147	H	-0.047423	-0.002683	0.061814
H148	H	-0.041736	-0.008282	-0.062777
H149	H	-0.039000	-0.124371	-0.062890
H150	H	-0.044708	-0.118767	0.061713
H151	H	-0.107031	-0.087060	-0.000615
H152	H	0.818794	-0.243037	0.176368
C153	C	0.196181	-0.041887	-0.000575
C154	C	0.187806	-0.084696	-0.092501
C155	C	0.232714	-0.147833	-0.092735
H156	H	0.184955	-0.065471	0.061647
H157	H	0.243559	-0.032091	-0.000619
H158	H	0.140439	-0.094494	-0.092447
H159	H	0.199038	-0.061134	-0.154737
H160	H	0.280092	-0.138037	-0.092779
H161	H	0.221484	-0.171410	-0.030509
H162	H	0.227042	-0.176884	-0.155109
C163	C	0.831511	-0.562363	-0.203553
C164	C	0.834649	-0.613694	-0.288838
C165	C	0.839555	-0.581828	-0.386354
H166	H	0.872816	-0.539594	-0.207769
H167	H	0.791393	-0.528701	-0.207640
H168	H	0.874763	-0.647344	-0.284753
H169	H	0.793348	-0.636467	-0.284658
H170	H	0.799437	-0.548166	-0.390442
H171	H	0.880861	-0.559060	-0.390559
H172	H	0.841679	-0.616651	-0.444232
H173	H	0.814199	-0.554935	0.176353
