data_functionalizedCrystal
_audit_creation_method	'MofGen! by Chris Wilmer'
_symmetry_space_group_name_H-M	'P1'
_symmetry_Int_Tables_number	1
_symmetry_cell_setting	triclinic
loop_
_symmetry_equiv_pos_as_xyz
  x,y,z
_cell_length_a	11.792241
_cell_length_b	19.188925
_cell_length_c	10.268362
_cell_angle_alpha	89.995070
_cell_angle_beta	89.999626
_cell_angle_gamma	83.667982
loop_
_atom_site_label
_atom_site_type_symbol
_atom_site_fract_x
_atom_site_fract_y
_atom_site_fract_z
O1	O	1.505473	0.095695	-0.108173
O2	O	1.174984	0.105558	-0.108203
O3	O	1.349769	-0.000975	-0.108180
O4	O	1.330688	0.202229	-0.108196
O5	O	1.349754	-0.000980	0.108421
O6	O	1.174969	0.105553	0.108398
O7	O	1.505458	0.095691	0.108428
Cu8	Cu	1.340212	0.100622	0.128190
Cu9	Cu	1.340230	0.100627	-0.127965
O10	O	1.330673	0.202224	0.108405
C11	C	1.132695	0.104936	0.000093
C12	C	1.006709	0.103082	0.000082
C13	C	1.349145	-0.026992	0.000120
C14	C	1.347293	-0.104507	0.000117
C15	C	0.776048	0.099672	0.000120
C16	C	0.904405	0.101567	0.000099
C17	C	1.437452	-0.665767	0.000092
C18	C	1.439201	-0.592934	0.000104
C19	C	1.336643	-0.548580	0.000094
C20	C	1.232327	-0.577065	0.000106
C21	C	1.230581	-0.649897	0.000107
N22	N	1.262401	-0.428319	-0.073638
N23	N	1.264067	-0.359132	-0.073641
C24	C	1.341900	-0.329141	0.000094
N25	N	1.418022	-0.370952	0.073817
N26	N	1.416358	-0.440146	0.073815
C27	C	1.338526	-0.469605	0.000094
C28	C	1.448107	-0.221691	0.000105
C29	C	1.449852	-0.148856	0.000125
C30	C	1.242975	-0.132988	0.000113
C31	C	1.241233	-0.205822	0.000106
C32	C	1.343802	-0.250169	0.000096
C33	C	1.547747	0.096313	0.000129
C34	C	1.673733	0.098167	0.000131
C35	C	1.331298	0.228241	0.000102
C36	C	1.333150	0.305756	0.000097
N37	N	1.340208	0.100618	0.308356
N38	N	1.340244	0.100626	-0.308131
C39	C	1.340225	0.100626	0.574027
C40	C	1.340212	0.100623	0.426189
H41	H	1.520971	-0.701870	0.000091
Br42	Br	1.591418	-0.110207	0.000117
H43	H	1.156299	-0.229008	0.000100
Br44	Br	1.580764	-0.554276	0.000119
H45	H	1.531625	-0.257800	0.000097
Br46	Br	1.089017	-0.688547	0.000114
H47	H	1.159471	-0.096876	0.000117
H48	H	1.148824	-0.540948	0.000102
