data_functionalizedCrystal
_audit_creation_method	'MofGen! by Chris Wilmer'
_symmetry_space_group_name_H-M	'P1'
_symmetry_Int_Tables_number	1
_symmetry_cell_setting	triclinic
loop_
_symmetry_equiv_pos_as_xyz
  x,y,z
_cell_length_a	29.839134
_cell_length_b	29.839131
_cell_length_c	29.839126
_cell_angle_alpha	89.975848
_cell_angle_beta	89.980151
_cell_angle_gamma	90.021992
loop_
_atom_site_label
_atom_site_type_symbol
_atom_site_fract_x
_atom_site_fract_y
_atom_site_fract_z
Zn1	Zn	0.686753	-0.179121	-0.254008
Zn2	Zn	0.686676	-0.254241	-0.178878
Zn3	Zn	0.611626	-0.179100	-0.178890
Zn4	Zn	0.611584	-0.254199	-0.253979
O5	O	0.649160	-0.216665	-0.216439
O6	O	0.749610	-0.189112	-0.244048
O7	O	0.676705	-0.244283	-0.116012
O8	O	0.621642	-0.116236	-0.188872
O9	O	0.749553	-0.244302	-0.188851
O10	O	0.676838	-0.116251	-0.244060
O11	O	0.621567	-0.189077	-0.116021
O12	O	0.548754	-0.189036	-0.188844
O13	O	0.621570	-0.244230	-0.316850
O14	O	0.548723	-0.244211	-0.244011
O15	O	0.676797	-0.189071	-0.316871
O16	O	0.676664	-0.317103	-0.188823
O17	O	0.621495	-0.317072	-0.243999
C18	C	0.532437	-0.216617	-0.216426
C19	C	0.482503	-0.216607	-0.216431
C20	C	0.125941	-0.187987	-0.245237
C21	C	0.313614	-0.187951	-0.245226
O22	O	0.337901	-0.163560	-0.269715
N23	N	0.337058	-0.216637	-0.216442
C24	C	0.313580	-0.245335	-0.187660
O25	O	0.337826	-0.269737	-0.163181
C26	C	0.125908	-0.245373	-0.187673
C27	C	0.102467	-0.216683	-0.216456
C28	C	0.102500	-0.159299	-0.274017
C29	C	0.055585	-0.159307	-0.274018
C30	C	0.032110	-0.188003	-0.245238
C31	C	0.055551	-0.216690	-0.216457
C32	C	0.102431	-0.274074	-0.158894
C33	C	0.055510	-0.274082	-0.158901
C34	C	0.032069	-0.245391	-0.187684
C35	C	-0.014839	-0.245394	-0.187677
N36	N	-0.038282	-0.216708	-0.216461
C37	C	-0.014807	-0.188013	-0.245242
C38	C	0.412110	-0.245313	-0.187655
C39	C	0.459028	-0.245303	-0.187651
C40	C	0.459060	-0.187919	-0.245218
C41	C	0.412141	-0.187927	-0.245219
C42	C	0.388667	-0.216627	-0.216439
C43	C	-0.113333	-0.188030	-0.245240
C44	C	-0.160253	-0.188039	-0.245237
C45	C	-0.160280	-0.245424	-0.187672
C46	C	-0.113365	-0.245414	-0.187674
C47	C	-0.089892	-0.216716	-0.216461
O48	O	-0.039154	-0.269775	-0.163204
O49	O	-0.039062	-0.163622	-0.269725
C50	C	0.172857	-0.187980	-0.245236
C51	C	0.196298	-0.216668	-0.216455
C52	C	0.172823	-0.245363	-0.187675
C53	C	0.243216	-0.216658	-0.216451
C54	C	0.266690	-0.187962	-0.245231
C55	C	0.243247	-0.159277	-0.274016
C56	C	0.196331	-0.159284	-0.274016
C57	C	0.196266	-0.274049	-0.158891
C58	C	0.243182	-0.274038	-0.158892
C59	C	0.266656	-0.245343	-0.187672
C60	C	0.649079	-0.333388	-0.216416
C61	C	0.649085	-0.383322	-0.216422
C62	C	0.677939	-0.692969	-0.187750
C63	C	0.677994	-0.880642	-0.187767
O64	O	0.702462	-0.904910	-0.163373
N65	N	0.649253	-0.904107	-0.216472
C66	C	0.620498	-0.880651	-0.245177
O67	O	0.596056	-0.904916	-0.269596
C68	C	0.620445	-0.692979	-0.245162
C69	C	0.649185	-0.669516	-0.216452
C70	C	0.706677	-0.669506	-0.159043
C71	C	0.706661	-0.622591	-0.159037
C72	C	0.677907	-0.599138	-0.187738
C73	C	0.649169	-0.622601	-0.216446
C74	C	0.591693	-0.669524	-0.273868
C75	C	0.591683	-0.622603	-0.273863
C76	C	0.620423	-0.599140	-0.245153
C77	C	0.620399	-0.552233	-0.245141
N78	N	0.649141	-0.528768	-0.216437
C79	C	0.677894	-0.552220	-0.187735
C80	C	0.620527	-0.979182	-0.245183
C81	C	0.620540	-1.026100	-0.245186
C82	C	0.678037	-1.026087	-0.187777
C83	C	0.678021	-0.979169	-0.187772
C84	C	0.649268	-0.955717	-0.216478
C85	C	0.677859	-0.453695	-0.187725
C86	C	0.677839	-0.406775	-0.187720
C87	C	0.620344	-0.406791	-0.245131
C88	C	0.620362	-0.453707	-0.245134
C89	C	0.649123	-0.477157	-0.216429
O90	O	0.595948	-0.527936	-0.269527
O91	O	0.702339	-0.527948	-0.163327
C92	C	0.677955	-0.739885	-0.187756
C93	C	0.649217	-0.763347	-0.216463
C94	C	0.620463	-0.739895	-0.245165
C95	C	0.649229	-0.810265	-0.216467
C96	C	0.677983	-0.833718	-0.187765
C97	C	0.706724	-0.810253	-0.159060
C98	C	0.706708	-0.763337	-0.159054
C99	C	0.591722	-0.763360	-0.273870
C100	C	0.591739	-0.810275	-0.273873
C101	C	0.620493	-0.833728	-0.245171
C102	C	0.766338	-0.216714	-0.216451
C103	C	0.816273	-0.216735	-0.216457
C104	C	0.649188	-0.216648	-0.333617
C105	C	0.649199	-0.216641	-0.383551
C106	C	0.649253	-0.099487	-0.216471
C107	C	0.649293	-0.049552	-0.216484
C108	C	0.620498	-0.187850	-0.693202
C109	C	0.620511	-0.187819	-0.880876
O110	O	0.596085	-0.163385	-0.905147
N111	N	0.649221	-0.216556	-0.904337
C112	C	0.677928	-0.245306	-0.880876
O113	O	0.702345	-0.269751	-0.905138
C114	C	0.677912	-0.245339	-0.693204
C115	C	0.649204	-0.216596	-0.669746
C116	C	0.591791	-0.159111	-0.669744
C117	C	0.591790	-0.159117	-0.622828
C118	C	0.620496	-0.187863	-0.599372
C119	C	0.649202	-0.216603	-0.622830
C120	C	0.706617	-0.274090	-0.669745
C121	C	0.706610	-0.274097	-0.622824
C122	C	0.677901	-0.245354	-0.599365
C123	C	0.677907	-0.245355	-0.552458
N124	N	0.649197	-0.216618	-0.528997
C125	C	0.620491	-0.187872	-0.552454
C126	C	0.677934	-0.245286	-0.979407
C127	C	0.677939	-0.245277	-1.026325
C128	C	0.620521	-0.187791	-1.026321
C129	C	0.620519	-0.187798	-0.979402
C130	C	0.649224	-0.216548	-0.955946
C131	C	0.620491	-0.187887	-0.453928
C132	C	0.620494	-0.187895	-0.407008
C133	C	0.677910	-0.245382	-0.407016
C134	C	0.677909	-0.245373	-0.453932
C135	C	0.649196	-0.216624	-0.477386
O136	O	0.702316	-0.269780	-0.528158
O137	O	0.596071	-0.163437	-0.528184
C138	C	0.620499	-0.187844	-0.740118
C139	C	0.649206	-0.216584	-0.763577
C140	C	0.677912	-0.245330	-0.740120
C141	C	0.649210	-0.216575	-0.810494
C142	C	0.620505	-0.187829	-0.833951
C143	C	0.591794	-0.159091	-0.810490
C144	C	0.591793	-0.159098	-0.763575
C145	C	0.706622	-0.274067	-0.763581
C146	C	0.706621	-0.274058	-0.810496
C147	C	0.677915	-0.245312	-0.833953
C148	C	0.649158	-0.216650	-0.099716
C149	C	0.649233	-0.216531	-0.049782
H150	H	-0.094228	-0.164661	-0.268682
H151	H	0.568307	-0.744268	-0.297242
O152	O	0.592548	-0.956473	-0.273080
C153	C	0.567193	-0.987251	-0.298420
H154	H	0.565665	-1.020704	-0.280016
H155	H	0.531788	-0.973722	-0.303176
H156	H	0.583624	-0.992214	-0.332556
O157	O	0.125319	-0.131485	-0.302024
C158	C	0.152476	-0.157088	-0.330991
H159	H	0.138339	-0.192480	-0.333705
H160	H	0.153018	-0.140883	-0.365592
H161	H	0.188030	-0.158603	-0.317100
H162	H	0.036504	-0.135946	-0.297458
O163	O	0.592681	-1.048938	-0.273094
C164	C	0.618249	-1.076035	-0.302146
H165	H	0.652305	-1.083054	-0.286332
H166	H	0.599953	-1.109035	-0.308157
H167	H	0.623164	-1.057930	-0.335439
H168	H	0.729994	-0.297496	-0.688837
H169	H	0.596931	-0.387689	-0.268498
O170	O	0.481937	-0.160088	-0.273163
C171	C	0.528373	-0.166228	-0.266976
H172	H	0.534763	-0.200875	-0.252194
H173	H	0.546222	-0.163231	-0.300630
H174	H	0.541684	-0.139542	-0.243102
H175	H	0.730111	-0.744237	-0.135676
O176	O	0.592561	-0.159960	-0.384291
C177	C	0.567233	-0.134581	-0.415059
H178	H	0.565666	-0.152978	-0.448497
H179	H	0.531839	-0.129776	-0.401495
H180	H	0.583711	-0.100467	-0.420064
O181	O	0.265929	-0.301975	-0.130977
C182	C	0.254443	-0.346762	-0.140714
H183	H	0.241560	-0.349076	-0.176601
H184	H	0.285289	-0.368952	-0.136805
H185	H	0.227195	-0.358476	-0.116610
O186	O	0.563962	-0.131153	-0.600023
C187	C	0.589553	-0.102155	-0.572888
H188	H	0.624941	-0.099388	-0.587032
H189	H	0.573327	-0.067577	-0.572364
H190	H	0.591083	-0.116050	-0.537325
O191	O	0.389442	-0.160046	-0.273223
C192	C	0.420228	-0.134710	-0.298614
H193	H	0.453670	-0.153107	-0.300129
H194	H	0.406692	-0.129969	-0.334021
H195	H	0.425216	-0.100566	-0.282223
O196	O	0.481727	-0.273212	-0.159674
C197	C	0.450940	-0.298532	-0.134267
H198	H	0.417504	-0.300116	-0.152670
H199	H	0.464484	-0.333920	-0.129411
H200	H	0.445938	-0.282035	-0.100177
H201	H	-0.179336	-0.164674	-0.268675
O202	O	0.734715	-0.833054	-0.131250
C203	C	0.763713	-0.860159	-0.156871
H204	H	0.766446	-0.845994	-0.192255
H205	H	0.798302	-0.860671	-0.140669
H206	H	0.749839	-0.895728	-0.158408
O207	O	0.706045	-1.048811	-0.159920
C208	C	0.750803	-1.037303	-0.169807
H209	H	0.751693	-1.003230	-0.187080
H210	H	0.770979	-1.035688	-0.137412
H211	H	0.765929	-1.063684	-0.192923
H212	H	0.393002	-0.268685	-0.164217
H213	H	0.262368	-0.135910	-0.297448
O214	O	0.705845	-0.273151	-0.956575
C215	C	0.734888	-0.247591	-0.929459
H216	H	0.719069	-0.213542	-0.922429
H217	H	0.740896	-0.265902	-0.896466
H218	H	0.768184	-0.242661	-0.947554
O219	O	0.125124	-0.301988	-0.130921
C220	C	0.094335	-0.327307	-0.105518
H221	H	0.060899	-0.328887	-0.123923
H222	H	0.107875	-0.362697	-0.100664
H223	H	0.089333	-0.310813	-0.071427
O224	O	0.032688	-0.302009	-0.131007
C225	C	0.005543	-0.331058	-0.156532
H226	H	0.019693	-0.333876	-0.191911
H227	H	0.005000	-0.365610	-0.140224
H228	H	-0.030012	-0.317177	-0.158103
O229	O	0.734536	-0.302041	-0.600109
C230	C	0.759864	-0.327414	-0.630879
H231	H	0.761437	-0.309006	-0.664328
H232	H	0.795256	-0.332229	-0.617334
H233	H	0.743381	-0.361524	-0.635856
O234	O	0.173544	-0.131369	-0.301915
C235	C	0.146391	-0.102326	-0.276397
H236	H	0.160512	-0.099499	-0.241016
H237	H	0.145877	-0.067776	-0.292709
H238	H	0.110828	-0.116218	-0.274831
O239	O	0.705768	-0.273370	-0.384274
C240	C	0.695900	-0.318139	-0.395713
H241	H	0.678638	-0.319057	-0.429777
H242	H	0.728303	-0.338303	-0.397314
H243	H	0.672781	-0.333258	-0.369300
H244	H	-0.179402	-0.268786	-0.164238
H245	H	0.177158	-0.297417	-0.135454
O246	O	-0.090661	-0.273325	-0.159700
C247	C	-0.121444	-0.298645	-0.134289
H248	H	-0.154884	-0.300224	-0.152686
H249	H	-0.107901	-0.334034	-0.129438
H250	H	-0.126437	-0.282150	-0.100197
O251	O	0.563761	-0.692239	-0.301802
C252	C	0.538378	-0.661469	-0.327123
H253	H	0.556773	-0.628012	-0.328684
H254	H	0.533572	-0.675003	-0.362520
H255	H	0.504265	-0.656509	-0.310643
H256	H	0.701291	-0.268773	-0.473033
H257	H	0.568332	-0.829374	-0.297251
O258	O	0.705801	-0.384053	-0.159816
C259	C	0.731176	-0.414818	-0.134479
H260	H	0.732730	-0.448251	-0.152888
H261	H	0.766571	-0.401241	-0.129717
H262	H	0.714745	-0.419839	-0.100345
H263	H	0.597111	-0.164476	-0.473019
O264	O	0.705736	-0.476523	-0.159825
C265	C	0.680191	-0.503692	-0.130778
H266	H	0.646137	-0.510738	-0.146588
H267	H	0.698508	-0.536673	-0.124783
H268	H	0.675272	-0.485634	-0.097477
H269	H	0.730065	-0.603490	-0.135660
H270	H	0.730094	-0.688597	-0.135670
H271	H	0.568413	-0.135702	-0.688837
H272	H	0.701424	-0.960068	-0.164394
O273	O	0.705845	-0.273236	-1.049040
C274	C	0.731185	-0.298600	-1.018270
H275	H	0.712777	-0.300151	-0.984821
H276	H	0.735951	-0.333997	-1.031815
H277	H	0.765318	-0.282164	-1.013292
O278	O	0.563815	-0.599801	-0.301796
C279	C	0.589367	-0.572620	-0.330824
H280	H	0.624754	-0.586732	-0.333631
H281	H	0.573101	-0.572082	-0.365384
H282	H	0.590910	-0.537068	-0.316932
O283	O	0.592491	-0.476482	-0.273084
C284	C	0.602273	-0.464974	-0.317865
H285	H	0.638156	-0.452046	-0.320162
H286	H	0.598405	-0.495818	-0.340063
H287	H	0.578169	-0.437752	-0.329582
H288	H	0.597142	-0.164393	-0.960305
H289	H	0.568423	-0.135684	-0.829597
H290	H	0.597149	-0.164383	-1.045427
H291	H	0.568416	-0.135693	-0.744479
H292	H	0.730004	-0.297463	-0.829592
H293	H	0.729996	-0.297478	-0.744487
