data_functionalizedCrystal
_audit_creation_method	'MofGen! by Chris Wilmer'
_symmetry_space_group_name_H-M	'P1'
_symmetry_Int_Tables_number	1
_symmetry_cell_setting	triclinic
loop_
_symmetry_equiv_pos_as_xyz
  x,y,z
_cell_length_a	23.532407
_cell_length_b	10.723024
_cell_length_c	9.198806
_cell_angle_alpha	90.003648
_cell_angle_beta	89.992171
_cell_angle_gamma	96.341727
loop_
_atom_site_label
_atom_site_type_symbol
_atom_site_fract_x
_atom_site_fract_y
_atom_site_fract_z
O1	O	0.079871	-1.654700	-0.120900
O2	O	0.087516	-1.291309	-0.120906
O3	O	0.000833	-1.483962	-0.120876
O4	O	0.166554	-1.462046	-0.120930
O5	O	0.000833	-1.483947	0.120909
O6	O	0.087516	-1.291294	0.120879
O7	O	0.079871	-1.654684	0.120885
Cu8	Cu	0.083693	-1.472988	0.142959
Cu9	Cu	0.083693	-1.473006	-0.142980
O10	O	0.166554	-1.462031	0.120855
C11	C	0.086960	-1.244819	-0.000014
C12	C	0.085295	-1.106317	-0.000015
C13	C	-0.020387	-1.483397	0.000020
C14	C	-0.083615	-1.481719	0.000031
N15	N	0.083693	-1.472984	0.344073
C16	C	-0.482046	-1.585203	-0.000046
C17	C	-0.541457	-1.583644	-0.000058
O18	O	-0.577579	-1.679575	-0.000109
N19	N	-0.564826	-1.469112	-0.000059
C20	C	-0.528782	-1.356131	-0.000063
O21	O	-0.554114	-1.258569	-0.000067
C22	C	-0.469373	-1.357691	-0.000063
C23	C	-0.446007	-1.472230	-0.000047
C24	C	-0.458680	-1.699733	-0.000032
C25	C	-0.399274	-1.701291	-0.000019
C26	C	-0.363234	-1.588319	-0.000019
C27	C	-0.386600	-1.473789	-0.000033
C28	C	-0.433329	-1.244711	-0.000078
C29	C	-0.373917	-1.246281	-0.000078
C30	C	-0.350551	-1.360821	-0.000062
C31	C	-0.291154	-1.362374	-0.000020
N32	N	-0.267785	-1.476907	-0.000019
C33	C	-0.303825	-1.589879	-0.000018
C34	C	-0.653545	-1.352863	-0.000067
C35	C	-0.712953	-1.351302	-0.000057
C36	C	-0.725625	-1.578816	-0.000054
C37	C	-0.666215	-1.580376	-0.000054
C38	C	-0.630176	-1.467395	-0.000066
C39	C	-0.179067	-1.593143	0.000012
C40	C	-0.119655	-1.594691	0.000032
C41	C	-0.106989	-1.367178	0.000021
C42	C	-0.166396	-1.365629	0.000009
C43	C	-0.202434	-1.478622	-0.000001
O44	O	-0.254997	-1.266494	0.000026
O45	O	-0.278484	-1.687425	-0.000034
C46	C	0.187774	-1.462597	-0.000044
C47	C	0.251001	-1.464275	-0.000065
C48	C	0.080427	-1.701174	-0.000010
C49	C	0.082092	-1.839677	-0.000018
C50	C	0.133798	-1.029823	-0.000032
C51	C	0.132079	-0.886673	-0.000033
N52	N	0.083689	-1.473019	-0.344094
C53	C	0.047136	-1.553879	0.416283
C54	C	0.047134	-1.553898	0.583695
H55	H	-0.380255	-1.794561	-0.000012
N56	N	-0.094453	-1.718234	0.000057
H57	H	-0.126303	-1.789562	0.000051
H58	H	-0.070072	-1.723848	-0.089569
N59	N	-0.217931	-1.715010	0.000002
H60	H	-0.194106	-1.787792	0.000016
H61	H	-0.242863	-1.719316	0.089632
N62	N	-0.497546	-1.821592	-0.000030
H63	H	-0.473720	-1.894371	-0.000020
H64	H	-0.522474	-1.825897	0.089607
H65	H	0.015839	-1.623160	0.645792
N66	N	0.027085	-0.926722	0.000018
H67	H	-0.006510	-0.875684	0.000031
H68	H	0.025505	-0.981397	-0.089612
H69	H	0.173602	-0.820947	-0.000054
H70	H	0.042497	-1.065828	-0.000039
H71	H	0.114991	-1.403763	0.593818
H72	H	-0.077635	-1.275199	0.000026
H73	H	0.114986	-1.403737	0.406190
N74	N	-0.335054	-1.124410	-0.000066
H75	H	-0.310132	-1.119977	0.089574
H76	H	-0.310149	-1.120045	-0.089745
N77	N	-0.641016	-1.703912	-0.000036
H78	H	-0.672867	-1.775237	-0.000031
H79	H	-0.616639	-1.709530	-0.089669
H80	H	0.176597	-1.070312	-0.000038
N81	N	0.005673	-1.645572	0.333992
H82	H	0.027607	-1.700636	0.270805
H83	H	-0.018721	-1.699478	0.405255
N84	N	-0.764502	-1.700669	-0.000054
H85	H	-0.805682	-1.682291	-0.000062
H86	H	-0.756882	-1.750623	-0.089686
H87	H	-0.731972	-1.258032	-0.000045
H88	H	-0.624205	-1.260855	-0.000065
N89	N	-0.458521	-1.121171	-0.000076
H90	H	-0.426668	-1.049852	-0.000079
H91	H	-0.482889	-1.115561	-0.089709
H92	H	-0.185421	-1.272361	0.000036
