data_functionalizedCrystal
_audit_creation_method	'MofGen! by Chris Wilmer'
_symmetry_space_group_name_H-M	'P1'
_symmetry_Int_Tables_number	1
_symmetry_cell_setting	triclinic
loop_
_symmetry_equiv_pos_as_xyz
  x,y,z
_cell_length_a	12.811438
_cell_length_b	11.892095
_cell_length_c	10.654551
_cell_angle_alpha	93.929772
_cell_angle_beta	95.736462
_cell_angle_gamma	99.333629
loop_
_atom_site_label
_atom_site_type_symbol
_atom_site_fract_x
_atom_site_fract_y
_atom_site_fract_z
O1	O	-1.410797	-0.238614	0.148869
O2	O	-1.103114	-0.207075	0.169943
O3	O	-1.264029	-0.223570	-0.023431
O4	O	-1.249882	-0.222119	0.342243
O5	O	-1.250613	-0.034187	-0.007333
O6	O	-1.089697	-0.017692	0.186042
O7	O	-1.397380	-0.049231	0.164967
Zn8	Zn	-1.241409	-0.003393	0.178061
Zn9	Zn	-1.259086	-0.252913	0.156850
O10	O	-1.236465	-0.032736	0.358342
C11	C	-1.057008	-0.108346	0.177305
C12	C	-0.939616	-0.096313	0.175242
C13	C	-1.256282	-0.128775	-0.062166
C14	C	-1.253174	-0.128464	-0.201566
C15	C	-1.443487	-0.147963	0.157605
C16	C	-1.560879	-0.160003	0.159668
C17	C	-0.766844	0.023873	0.181108
C18	C	-0.877144	0.012572	0.183048
C19	C	-0.891780	-0.193904	0.165498
C20	C	-0.781480	-0.182604	0.163558
C21	C	-0.719016	-0.073711	0.171361
C22	C	-0.608715	-0.062412	0.169412
C23	C	-0.623352	-0.268887	0.151871
C24	C	-0.733652	-0.280188	0.153811
N25	N	-1.229352	0.166897	0.192535
N26	N	-1.271151	-0.423204	0.142365
C27	C	-1.355046	0.390660	0.041572
C28	C	-1.346627	0.509865	0.051698
C29	C	-1.204088	0.524514	0.222909
C30	C	-1.212508	0.405309	0.212782
C31	C	-1.287991	0.338386	0.122112
C32	C	-1.296415	0.219179	0.111992
C33	C	-1.153872	0.233830	0.283195
C34	C	-1.145452	0.353035	0.293322
C35	C	-1.259029	-0.231545	-0.275833
C36	C	-1.256099	-0.231239	-0.406813
C37	C	-1.241462	-0.024763	-0.389246
C38	C	-1.244385	-0.025069	-0.258268
C39	C	-1.267818	-0.334940	-0.219131
C40	C	-1.273675	-0.438029	-0.293399
C41	C	-1.270745	-0.437724	-0.424378
C42	C	-1.261958	-0.334329	-0.481090
C43	C	-1.244213	-0.127534	0.397076
C44	C	-1.247321	-0.127852	0.536476
H45	H	-0.557857	0.026254	0.175775
O46	O	-1.259231	-0.333913	-0.608333
C47	C	-1.345659	-0.286587	-0.661857
H48	H	-1.373559	-0.229593	-0.586121
H49	H	-1.319537	-0.233538	-0.741901
H50	H	-1.413767	-0.358357	-0.700833
O51	O	-1.369573	0.154084	0.023807
C52	C	-1.317207	0.091068	-0.059368
H53	H	-1.236127	0.081644	-0.010579
H54	H	-1.367110	0.002734	-0.086568
H55	H	-1.306039	0.137866	-0.148212
O56	O	-1.238712	0.075162	-0.186307
C57	C	-1.230298	0.166489	-0.264432
H58	H	-1.263797	0.133033	-0.365686
H59	H	-1.277238	0.233371	-0.228577
H60	H	-1.143059	0.206914	-0.262206
O61	O	-1.130812	0.589398	0.311130
C62	C	-1.150969	0.558449	0.432932
H63	H	-1.197844	0.467716	0.425323
H64	H	-1.072231	0.562487	0.494648
H65	H	-1.199129	0.620117	0.477317
H66	H	-0.916080	0.092036	0.190989
H67	H	-1.275503	-0.521663	-0.484842
H68	H	-1.401229	0.552423	-0.013887
H69	H	-1.083993	0.407538	0.367141
H70	H	-1.099273	0.191256	0.348780
O71	O	-0.952566	-0.299608	0.158104
C72	C	-1.005598	-0.311167	0.267459
H73	H	-1.012023	-0.222837	0.311615
H74	H	-1.088779	-0.363051	0.240668
H75	H	-0.958877	-0.356960	0.338518
H76	H	-1.416514	0.336170	-0.032247
O77	O	-0.794430	-0.385896	0.146406
C78	C	-0.847470	-0.397477	0.255752
H79	H	-0.853909	-0.309155	0.299919
H80	H	-0.930646	-0.449370	0.228948
H81	H	-0.800747	-0.443270	0.326809
O82	O	-1.270478	-0.335279	-0.091874
C83	C	-1.184082	-0.382678	-0.038387
H84	H	-1.118376	-0.374139	-0.103541
H85	H	-1.152204	-0.335262	0.057907
H86	H	-1.211803	-0.476959	-0.026275
H87	H	-1.280819	-0.522209	-0.247214
H88	H	-0.584399	-0.348348	0.143938
O89	O	-1.232794	0.075611	-0.444453
C90	C	-1.139244	0.091346	-0.505119
H91	H	-1.114684	0.004882	-0.527517
H92	H	-1.154651	0.133147	-0.596778
H93	H	-1.072752	0.148733	-0.440123
H94	H	-0.715984	0.112537	0.187470
