data_functionalizedCrystal
_audit_creation_method	'MofGen! by Chris Wilmer'
_symmetry_space_group_name_H-M	'P1'
_symmetry_Int_Tables_number	1
_symmetry_cell_setting	triclinic
loop_
_symmetry_equiv_pos_as_xyz
  x,y,z
_cell_length_a	29.839134
_cell_length_b	25.639239
_cell_length_c	25.639233
_cell_angle_alpha	90.018747
_cell_angle_beta	89.976874
_cell_angle_gamma	89.966453
loop_
_atom_site_label
_atom_site_type_symbol
_atom_site_fract_x
_atom_site_fract_y
_atom_site_fract_z
Zn1	Zn	0.686733	0.208286	-0.295756
Zn2	Zn	0.686667	0.295705	-0.208320
Zn3	Zn	0.611615	0.208277	-0.208318
Zn4	Zn	0.611567	0.295684	-0.295708
O5	O	0.649146	0.251988	-0.252026
O6	O	0.749592	0.219895	-0.284178
O7	O	0.676704	0.284112	-0.135155
O8	O	0.621626	0.135113	-0.219936
O9	O	0.749543	0.284121	-0.219939
O10	O	0.676816	0.135120	-0.284176
O11	O	0.621563	0.219880	-0.135153
O12	O	0.548741	0.219860	-0.219890
O13	O	0.621546	0.284086	-0.368880
O14	O	0.548706	0.284078	-0.284095
O15	O	0.676770	0.219875	-0.368915
O16	O	0.676658	0.368867	-0.219893
O17	O	0.621482	0.368852	-0.284097
C18	C	0.649070	0.387831	-0.252002
C19	C	0.649079	0.445945	-0.252009
C20	C	0.532423	0.251966	-0.251988
C21	C	0.482489	0.251969	-0.251984
C22	C	0.649160	0.251979	-0.388399
C23	C	0.649166	0.251975	-0.446513
C24	C	0.172837	0.285476	-0.285416
C25	C	-0.014836	0.285490	-0.285439
O26	O	-0.039108	0.313954	-0.313842
N27	N	-0.038296	0.252007	-0.252065
C28	C	-0.014835	0.218516	-0.218685
O29	O	-0.039096	0.190033	-0.190302
C30	C	0.172837	0.218499	-0.218664
C31	C	0.196294	0.251988	-0.252037
C32	C	0.196294	0.318962	-0.318787
C33	C	0.243210	0.318960	-0.318779
C34	C	0.266668	0.285472	-0.285400
C35	C	0.243210	0.251986	-0.252029
C36	C	0.196297	0.185005	-0.185287
C37	C	0.243218	0.185003	-0.185286
C38	C	0.266676	0.218492	-0.218659
C39	C	0.313583	0.218496	-0.218642
N40	N	0.337043	0.251979	-0.252017
C41	C	0.313585	0.285467	-0.285396
C42	C	-0.113366	0.218528	-0.218697
C43	C	-0.160284	0.218533	-0.218701
C44	C	-0.160282	0.285507	-0.285457
C45	C	-0.113363	0.285504	-0.285450
C46	C	-0.089906	0.252011	-0.252071
C47	C	0.412111	0.285460	-0.285376
C48	C	0.459031	0.285457	-0.285363
C49	C	0.459025	0.218481	-0.218609
C50	C	0.412109	0.218486	-0.218620
C51	C	0.388654	0.251978	-0.252007
O52	O	0.337884	0.190043	-0.190258
O53	O	0.337854	0.313937	-0.313782
C54	C	0.125921	0.285478	-0.285424
C55	C	0.102464	0.251992	-0.252054
C56	C	0.125921	0.218504	-0.218675
C57	C	0.055546	0.251997	-0.252058
C58	C	0.032088	0.285485	-0.285437
C59	C	0.055548	0.318968	-0.318811
C60	C	0.102463	0.318966	-0.318803
C61	C	0.102461	0.185021	-0.185300
C62	C	0.055546	0.185026	-0.185311
C63	C	0.032088	0.218514	-0.218690
C64	C	0.766324	0.252011	-0.252064
C65	C	0.816258	0.252021	-0.252080
C66	C	0.649234	0.115615	-0.252061
C67	C	0.649271	0.057501	-0.252076
C68	C	0.677951	0.806303	-0.218652
C69	C	0.677968	0.860907	-0.218659
O70	O	0.702437	0.889140	-0.190271
N71	N	0.649225	0.888227	-0.252060
C72	C	0.620465	0.860940	-0.285461
O73	O	0.596018	0.889192	-0.313872
C74	C	0.620450	0.806337	-0.285456
C75	C	0.649192	0.779020	-0.252048
C76	C	0.706691	0.778986	-0.185247
C77	C	0.706673	0.724385	-0.185240
C78	C	0.677914	0.697102	-0.218636
C79	C	0.649174	0.724419	-0.252041
C80	C	0.591693	0.779050	-0.318859
C81	C	0.591681	0.724443	-0.318852
C82	C	0.620423	0.697126	-0.285444
C83	C	0.620398	0.642535	-0.285430
N84	N	0.649141	0.615215	-0.252029
C85	C	0.677900	0.642499	-0.218632
C86	C	0.620499	0.975611	-0.285469
C87	C	0.620511	1.030213	-0.285471
C88	C	0.678015	1.030177	-0.218670
C89	C	0.678000	0.975573	-0.218665
C90	C	0.649242	0.948291	-0.252067
C91	C	0.677859	0.527834	-0.218618
C92	C	0.677837	0.473228	-0.218612
C93	C	0.620335	0.473269	-0.285415
C94	C	0.620355	0.527870	-0.285420
C95	C	0.649121	0.555151	-0.252019
O96	O	0.595942	0.614268	-0.313805
O97	O	0.702346	0.614240	-0.190230
C98	C	0.677958	0.218441	-0.806900
C99	C	0.677963	0.218427	-0.861504
O100	O	0.702407	0.189976	-0.889761
N101	N	0.649216	0.251853	-0.888795
C102	C	0.620458	0.285291	-0.861480
O103	O	0.596006	0.313721	-0.889707
C104	C	0.620450	0.285303	-0.806876
C105	C	0.649203	0.251878	-0.779588
C106	C	0.706708	0.185019	-0.779611
C107	C	0.706703	0.185034	-0.725010
C108	C	0.677948	0.218472	-0.697698
C109	C	0.649198	0.251894	-0.724987
C110	C	0.591690	0.318739	-0.779562
C111	C	0.591685	0.318747	-0.724954
C112	C	0.620437	0.285323	-0.697666
C113	C	0.620438	0.285346	-0.643075
N114	N	0.649185	0.251920	-0.615783
C115	C	0.677940	0.218483	-0.643095
C116	C	0.620475	0.285264	-0.976150
C117	C	0.620484	0.285256	-1.030753
C118	C	0.677990	0.218390	-1.030773
C119	C	0.677982	0.218402	-0.976170
C120	C	0.649223	0.251838	-0.948859
C121	C	0.677928	0.218518	-0.528430
C122	C	0.677921	0.218538	-0.473825
C123	C	0.620415	0.285401	-0.473809
C124	C	0.620422	0.285384	-0.528409
C125	C	0.649180	0.251938	-0.555719
O126	O	0.596005	0.313781	-0.614783
O127	O	0.702384	0.190053	-0.614861
C128	C	0.649157	0.251960	-0.116183
C129	C	0.649238	0.251816	-0.058069
H130	H	0.478128	0.312730	-0.312540
H131	H	0.701284	0.550039	-0.191421
Cl132	Cl	0.555563	0.813378	-0.360866
Cl133	Cl	0.131944	0.142916	-0.143335
Cl134	Cl	0.714135	0.941238	-0.176666
H135	H	0.701242	0.450988	-0.191406
Cl136	Cl	0.555527	0.690149	-0.360847
H137	H	-0.094272	0.191253	-0.191514
Cl138	Cl	0.584339	0.941318	-0.327460
Cl139	Cl	0.584186	0.438960	-0.327401
Cl140	Cl	0.714129	0.176380	-0.941870
Cl141	Cl	0.584371	1.064548	-0.327465
Cl142	Cl	0.714071	0.176516	-0.439522
Cl143	Cl	0.584320	0.327308	-0.941822
Cl144	Cl	0.742848	0.143009	-0.690713
Cl145	Cl	0.714079	0.176469	-0.562753
Cl146	Cl	0.555543	0.360763	-0.813854
Cl147	Cl	0.272704	0.142894	-0.143322
Cl148	Cl	0.555527	0.360784	-0.690624
Cl149	Cl	0.131946	0.361068	-0.360761
Cl150	Cl	0.742849	0.813275	-0.143257
H151	H	0.393009	0.191218	-0.191444
Cl152	Cl	0.742868	0.142984	-0.813936
H153	H	0.730078	0.702147	-0.158038
H154	H	0.597014	0.312605	-0.550629
H155	H	0.701433	1.052401	-0.191478
Cl156	Cl	0.584343	0.327285	-1.065052
Cl157	Cl	0.382632	0.327565	-0.327348
H158	H	0.596953	0.550113	-0.312625
Cl159	Cl	0.026049	0.361068	-0.360771
Cl160	Cl	0.714138	0.176353	-1.065118
Cl161	Cl	0.584266	0.327433	-0.439464
H162	H	0.262305	0.346229	-0.345956
H163	H	0.177200	0.346232	-0.345971
H164	H	-0.094267	0.312773	-0.312626
H165	H	-0.179389	0.312774	-0.312635
H166	H	-0.179379	0.191268	-0.191520
H167	H	0.036451	0.157756	-0.158130
Cl168	Cl	0.166819	0.142898	-0.143333
Cl169	Cl	0.488523	0.176384	-0.176650
