data_functionalizedCrystal
_audit_creation_method	'MofGen! by Chris Wilmer'
_symmetry_space_group_name_H-M	'P1'
_symmetry_Int_Tables_number	1
_symmetry_cell_setting	triclinic
loop_
_symmetry_equiv_pos_as_xyz
  x,y,z
_cell_length_a	14.853569
_cell_length_b	17.019294
_cell_length_c	15.500369
_cell_angle_alpha	83.293667
_cell_angle_beta	92.833854
_cell_angle_gamma	83.514757
loop_
_atom_site_label
_atom_site_type_symbol
_atom_site_fract_x
_atom_site_fract_y
_atom_site_fract_z
O1	O	1.191434	0.107055	-0.079877
O2	O	1.691434	0.607055	0.420123
O3	O	0.928887	0.119369	-0.080805
O4	O	1.428887	0.619369	0.419195
O5	O	1.067984	-0.002049	-0.071750
O6	O	1.567984	0.497951	0.428250
O7	O	1.052338	0.228473	-0.088932
O8	O	1.552338	0.728473	0.411068
O9	O	1.076380	-0.009392	0.072683
O10	O	1.576380	0.490608	0.572683
O11	O	0.937284	0.112026	0.063628
O12	O	1.437284	0.612026	0.563628
O13	O	1.199830	0.099712	0.064556
O14	O	1.699830	0.599712	0.564556
Cu15	Cu	1.069324	0.105199	0.077280
Cu16	Cu	1.569324	0.605199	0.577280
Cu17	Cu	1.059394	0.113882	-0.093529
Cu18	Cu	1.559394	0.613882	0.406471
O19	O	1.060734	0.221130	0.055501
O20	O	1.560734	0.721130	0.555501
C21	C	0.899501	0.115140	-0.008548
C22	C	1.399501	0.615140	0.491452
C23	C	0.799429	0.113467	-0.008427
C24	C	1.299429	0.613467	0.491573
C25	C	0.763566	0.040557	-0.002996
C26	C	1.263566	0.540557	0.497004
C27	C	0.741260	0.184805	-0.013738
C28	C	1.241260	0.684805	0.486262
C29	C	0.647237	0.183236	-0.013620
C30	C	1.147237	0.683236	0.486380
C31	C	0.611374	0.110326	-0.008189
C32	C	1.111374	0.610326	0.491811
C33	C	0.669534	0.038986	-0.002875
C34	C	1.169534	0.538986	0.497125
C35	C	0.589071	0.254575	-0.018924
C36	C	1.089071	0.754575	0.481076
C37	C	0.495042	0.253008	-0.018806
C38	C	0.995042	0.753008	0.481194
C39	C	0.459177	0.180098	-0.013381
C40	C	0.959177	0.680098	0.486619
C41	C	0.517343	0.108755	-0.008068
C42	C	1.017343	0.608755	0.491932
C43	C	0.481480	0.035845	-0.002637
C44	C	0.981480	0.535845	0.497363
C45	C	0.539644	-0.035499	0.002670
C46	C	1.039644	0.464501	0.502670
C47	C	0.633669	-0.033924	0.002550
C48	C	1.133669	0.466076	0.502550
C49	C	0.365152	0.178524	-0.013261
C50	C	0.865152	0.678524	0.486739
C51	C	0.387449	0.034274	-0.002516
C52	C	0.887449	0.534274	0.497484
C53	C	1.071754	-0.035222	0.002663
C54	C	1.571754	0.464778	0.502663
C55	C	1.070469	-0.123127	0.009210
C56	C	1.570469	0.376873	0.509210
C57	C	1.065291	-0.160418	-0.066445
C58	C	1.565291	0.339582	0.433555
C59	C	1.064078	-0.243014	-0.060291
C60	C	1.564078	0.256986	0.439709
C61	C	1.068050	-0.288317	0.021518
C62	C	1.568050	0.211683	0.521518
C63	C	1.073226	-0.251021	0.097178
C64	C	1.573226	0.248979	0.597178
C65	C	1.074432	-0.168426	0.091023
C66	C	1.574432	0.331574	0.591023
C67	C	1.064630	-0.537900	0.044039
C68	C	1.564630	-0.037900	0.544039
C69	C	1.063426	-0.620501	0.050188
C70	C	1.563426	-0.120501	0.550188
C71	C	1.054277	-0.612488	-0.107282
C72	C	1.554277	-0.112488	0.392718
C73	C	1.055489	-0.529892	-0.113429
C74	C	1.555489	-0.029892	0.386571
C75	C	1.060660	-0.492602	-0.037769
C76	C	1.560660	0.007398	0.462231
C77	C	1.066813	-0.372744	0.027810
C78	C	1.566813	0.127256	0.527810
C79	C	1.061890	-0.408177	-0.044062
C80	C	1.561890	0.091823	0.455938
C81	C	1.229217	0.103941	-0.007703
C82	C	1.729217	0.603941	0.492297
C83	C	1.329289	0.105614	-0.007829
C84	C	1.829289	0.605614	0.492171
C85	C	1.056964	0.254303	-0.018915
C86	C	1.556964	0.754303	0.481085
C87	C	1.058248	0.342209	-0.025466
C88	C	1.558248	0.842209	0.474534
N89	N	1.076314	0.099090	0.197418
N90	N	1.576314	0.599090	0.697418
N91	N	1.052411	0.119984	-0.213666
N92	N	1.552411	0.619984	0.286334
C93	C	1.111361	0.068555	0.744870
C94	C	1.611361	0.568555	1.244870
C95	C	1.106054	0.073184	0.653954
C96	C	1.606054	0.573184	1.153954
C97	C	1.041791	0.129239	0.604504
C98	C	1.541791	0.629239	1.104504
C99	C	0.982838	0.180674	0.645973
C100	C	1.482838	0.680674	1.145973
C101	C	0.988151	0.176048	0.736887
C102	C	1.488151	0.676048	1.236887
C103	C	1.022673	0.145899	0.329802
C104	C	1.522673	0.645899	0.829802
C105	C	1.017364	0.150519	0.238881
C106	C	1.517364	0.650519	0.738881
C107	C	1.140581	0.043031	0.246868
C108	C	1.640581	0.543031	0.746868
C109	C	1.145884	0.038406	0.337784
C110	C	1.645884	0.538406	0.837784
C111	C	1.086934	0.089843	0.379246
C112	C	1.586934	0.589843	0.879246
C113	C	1.036363	0.133971	0.511573
C114	C	1.536363	0.633971	1.011573
C115	C	1.092368	0.085115	0.472175
C116	C	1.592368	0.585115	0.972175
H117	H	0.510432	-0.094862	0.007086
H118	H	1.010432	0.405138	0.507086
H119	H	0.810927	-0.017529	0.001321
H120	H	1.310927	0.482471	0.501321
H121	H	0.770467	0.244165	-0.018154
H122	H	1.270467	0.744165	0.481846
H123	H	1.070050	-0.409640	0.094419
H124	H	1.570050	0.090360	0.594419
Cl125	Cl	1.214688	-0.021627	0.194741
Cl126	Cl	1.714688	0.478373	0.694741
H127	H	0.618279	0.313934	-0.023341
H128	H	1.118279	0.813934	0.476659
H129	H	1.076454	-0.287913	0.163789
H130	H	1.576454	0.212087	0.663789
Cl131	Cl	0.948564	0.210558	0.381919
Cl132	Cl	1.448564	0.710558	0.881919
Cl133	Cl	0.706794	-0.123605	0.009230
Cl134	Cl	1.206794	0.376395	0.509230
Cl135	Cl	1.071117	-0.491030	0.139156
Cl136	Cl	1.571117	0.008970	0.639156
H137	H	0.447692	0.311101	-0.023128
H138	H	0.947692	0.811101	0.476872
H139	H	1.062061	-0.123538	-0.133062
H140	H	1.562061	0.376462	0.366938
Cl141	Cl	1.057570	-0.289890	-0.155405
Cl142	Cl	1.557570	0.210110	0.344595
Cl143	Cl	0.292037	0.268205	-0.019921
Cl144	Cl	0.792037	0.768205	0.480079
Cl145	Cl	0.936567	0.220994	0.176721
Cl146	Cl	1.436567	0.720994	0.676721
Cl147	Cl	1.056902	-0.351223	-0.146904
Cl148	Cl	1.556902	0.148777	0.353096
H149	H	1.163687	0.022906	0.785127
H150	H	1.663687	0.522906	1.285127
Cl151	Cl	0.914041	0.240708	0.789012
Cl152	Cl	1.414041	0.740708	1.289012
Cl153	Cl	1.180165	0.008531	0.601826
Cl154	Cl	1.680165	0.508531	1.101826
H155	H	1.052256	-0.493011	-0.180046
H156	H	1.552256	0.006989	0.319954
H157	H	1.050065	-0.642858	-0.168880
H158	H	1.550065	-0.142858	0.331120
H159	H	1.198211	-0.007238	0.378045
H160	H	1.698211	0.492762	0.878045
H161	H	0.930517	0.226319	0.605705
H162	H	1.430517	0.726319	1.105705
H163	H	1.066656	-0.657385	0.116810
H164	H	1.566656	-0.157385	0.616810
H165	H	0.984037	0.179611	0.471303
H166	H	1.484037	0.679611	0.971303
Cl167	Cl	0.342372	-0.057390	0.004305
Cl168	Cl	0.842372	0.442610	0.504305
Cl169	Cl	1.080941	-0.121546	0.186136
Cl170	Cl	1.580941	0.378454	0.686136
Cl171	Cl	1.173155	0.014651	0.534341
Cl172	Cl	1.673155	0.514651	1.034341
