data_functionalizedCrystal
_audit_creation_method	'MofGen! by Chris Wilmer'
_symmetry_space_group_name_H-M	'P1'
_symmetry_Int_Tables_number	1
_symmetry_cell_setting	triclinic
loop_
_symmetry_equiv_pos_as_xyz
  x,y,z
_cell_length_a	19.188930
_cell_length_b	19.188930
_cell_length_c	17.666332
_cell_angle_alpha	89.988397
_cell_angle_beta	89.976766
_cell_angle_gamma	83.144779
loop_
_atom_site_label
_atom_site_type_symbol
_atom_site_fract_x
_atom_site_fract_y
_atom_site_fract_z
O1	O	0.926150	0.087169	-0.063200
O2	O	0.722838	0.098903	-0.063149
O3	O	0.830361	-0.008620	-0.063161
O4	O	0.818627	0.194692	-0.063188
O5	O	0.830342	-0.008625	0.062735
O6	O	0.722820	0.098897	0.062747
O7	O	0.926131	0.087163	0.062697
Cu8	Cu	0.824473	0.093030	0.074217
Cu9	Cu	0.824496	0.093036	-0.074670
O10	O	0.818608	0.194686	0.062709
C11	C	0.696818	0.098520	-0.000194
C12	C	0.619313	0.097380	-0.000174
C13	C	0.574389	0.160470	-0.000194
C14	C	0.501566	0.159399	-0.000203
C15	C	0.473669	0.095233	-0.000206
C16	C	0.518603	0.032133	-0.000181
C17	C	0.591425	0.033207	-0.000166
N18	N	0.365695	0.046188	-0.043078
N19	N	0.296517	0.045172	-0.043095
C20	C	0.254260	0.091994	-0.000252
N21	N	0.283795	0.139881	0.042599
N22	N	0.352979	0.140899	0.042612
C23	C	0.394707	0.094062	-0.000222
C24	C	0.130372	0.153928	-0.000280
C25	C	0.057547	0.152853	-0.000283
C26	C	0.074586	0.025586	-0.000270
C27	C	0.147409	0.026662	-0.000258
C28	C	0.175298	0.090835	-0.000267
C29	C	0.829972	-0.034634	-0.000211
C30	C	0.828831	-0.112138	-0.000204
C31	C	0.891922	-0.157062	-0.000216
C32	C	0.890850	-0.229886	-0.000228
C33	C	0.826684	-0.257782	-0.000212
C34	C	0.763585	-0.212849	-0.000205
C35	C	0.764658	-0.140026	-0.000200
N36	N	0.777630	-0.365789	0.042645
N37	N	0.776615	-0.434968	0.042642
C38	C	0.823446	-0.477191	-0.000227
N39	N	0.871341	-0.447624	-0.043084
N40	N	0.872359	-0.378439	-0.043079
C41	C	0.825513	-0.336745	-0.000218
C42	C	0.885379	-0.601079	-0.000253
C43	C	0.884305	-0.673904	-0.000270
C44	C	0.757038	-0.656865	-0.000239
C45	C	0.758114	-0.584042	-0.000230
C46	C	0.822287	-0.556154	-0.000233
C47	C	0.952151	0.087546	-0.000260
C48	C	1.029656	0.088687	-0.000285
C49	C	0.818997	0.220700	-0.000244
C50	C	0.820138	0.298204	-0.000255
N51	N	0.824463	0.093025	0.178937
N52	N	0.824512	0.093036	-0.179390
C53	C	0.872089	0.045437	0.218541
C54	C	0.872093	0.045433	0.297789
C55	C	0.824478	0.093030	0.337429
C56	C	0.776842	0.140621	0.297815
C57	C	0.776835	0.140619	0.218569
N58	N	0.815401	0.154837	0.461841
N59	N	0.815413	0.154837	0.537121
C60	C	0.824496	0.093040	0.576193
N61	N	0.833582	0.031239	0.537140
N62	N	0.833574	0.031240	0.461853
C63	C	0.824480	0.093038	0.423358
C64	C	0.872130	0.045444	0.701727
C65	C	0.872129	0.045440	0.780976
C66	C	0.776881	0.140634	0.781000
C67	C	0.776878	0.140632	0.701753
C68	C	0.824506	0.093038	0.662121
H69	H	0.628003	-0.018171	-0.000150
N70	N	0.696606	-0.091570	-0.000170
H71	H	0.707024	-0.041205	-0.000164
H72	H	0.668634	-0.100562	-0.046834
H73	H	0.910878	0.006680	0.330041
N74	N	0.488517	-0.037074	-0.000193
H75	H	0.528030	-0.076881	-0.000178
H76	H	0.458646	-0.040293	0.046471
H77	H	0.738109	0.179385	0.813275
N78	N	0.195862	-0.041390	-0.000240
H79	H	0.186939	-0.069394	-0.046909
H80	H	0.246208	-0.030920	-0.000199
H81	H	0.711340	-0.235567	-0.000194
N82	N	0.725461	0.191949	0.175854
H83	H	0.733346	0.241485	0.189628
H84	H	0.732707	0.184667	0.119651
N85	N	0.009092	0.220906	-0.000311
H86	H	-0.041274	0.210491	-0.000317
H87	H	0.018076	0.248884	0.046355
H88	H	0.910909	0.006688	0.669457
N89	N	0.961133	-0.126982	-0.000221
H90	H	1.000939	-0.166496	-0.000231
H91	H	0.964361	-0.097129	-0.046892
N92	N	0.958897	-0.278357	-0.000237
H93	H	0.986918	-0.269403	-0.046909
H94	H	0.986835	-0.269397	0.046462
H95	H	0.738099	0.179386	0.669505
H96	H	0.051874	-0.026659	-0.000319
N97	N	0.954589	-0.570993	-0.000260
H98	H	0.994396	-0.610505	-0.000276
H99	H	0.957813	-0.541136	-0.046928
N100	N	0.952355	-0.722363	-0.000278
H101	H	0.954760	-0.752945	-0.046951
H102	H	0.993129	-0.693594	-0.000248
N103	N	0.604469	0.229682	-0.000209
H104	H	0.564955	0.269487	-0.000225
H105	H	0.634288	0.232904	0.046466
N106	N	0.923511	-0.005878	0.823696
H107	H	0.953686	-0.036021	0.786561
H108	H	0.954285	0.020797	0.856545
N109	N	0.687824	-0.686936	-0.000224
H110	H	0.684547	-0.716758	-0.046895
H111	H	0.684574	-0.716746	0.046475
H112	H	0.738072	0.179374	0.330094
H113	H	0.910869	0.006681	0.186275
N114	N	0.453100	0.227449	-0.000226
H115	H	0.481817	0.268264	-0.000229
H116	H	0.422543	0.229769	-0.046907
N117	N	0.160459	0.223138	-0.000285
H118	H	0.120946	0.262945	-0.000293
H119	H	0.190280	0.226352	0.046390
N120	N	0.690066	-0.535583	-0.000212
H121	H	0.649253	-0.564303	-0.000204
H122	H	0.687732	-0.505008	0.046462
