data_functionalizedCrystal
_audit_creation_method	'MofGen! by Chris Wilmer'
_symmetry_space_group_name_H-M	'P1'
_symmetry_Int_Tables_number	1
_symmetry_cell_setting	triclinic
loop_
_symmetry_equiv_pos_as_xyz
  x,y,z
_cell_length_a	13.897449
_cell_length_b	19.120904
_cell_length_c	13.897448
_cell_angle_alpha	87.585296
_cell_angle_beta	89.981028
_cell_angle_gamma	92.423877
loop_
_atom_site_label
_atom_site_type_symbol
_atom_site_fract_x
_atom_site_fract_y
_atom_site_fract_z
Zn1	Zn	1.451391	-0.397102	0.407269
Zn2	Zn	1.951391	0.102898	0.907269
Zn3	Zn	1.458180	-0.279657	0.561695
Zn4	Zn	1.958180	0.220343	1.061695
Zn5	Zn	1.296974	-0.279670	0.400420
Zn6	Zn	1.796974	0.220330	0.900420
Zn7	Zn	1.290064	-0.397068	0.568526
Zn8	Zn	1.790064	0.102932	1.068526
O9	O	1.374152	-0.338374	0.484477
O10	O	1.874152	0.161626	0.984477
O11	O	1.587273	-0.381531	0.427762
O12	O	2.087273	0.118469	0.927762
O13	O	1.442528	-0.181376	0.534576
O14	O	1.942528	0.318624	1.034576
O15	O	1.317509	-0.295267	0.266348
O16	O	1.817509	0.204733	0.766348
O17	O	1.592260	-0.295246	0.541218
O18	O	2.092260	0.204754	1.041218
O19	O	1.430958	-0.381543	0.271380
O20	O	1.930958	0.118457	0.771380
O21	O	1.324091	-0.181386	0.416088
O22	O	1.824091	0.318614	0.916088
O23	O	1.161076	-0.295234	0.422711
O24	O	1.661076	0.204766	0.922711
O25	O	1.305731	-0.495355	0.552860
O26	O	1.805731	0.004645	1.052860
O27	O	1.155999	-0.381486	0.546218
O28	O	1.655999	0.118514	1.046218
O29	O	1.424258	-0.495380	0.434386
O30	O	1.924258	0.004620	0.934386
O31	O	1.435828	-0.295213	0.697581
O32	O	1.935828	0.204787	1.197581
O33	O	1.312314	-0.381474	0.702600
O34	O	1.812314	0.118526	1.202600
C35	C	1.123539	-0.338358	0.484463
C36	C	1.623539	0.161642	0.984463
C37	C	1.016324	-0.338368	0.484482
C38	C	1.516324	0.161632	0.984482
C39	C	1.363467	-0.521564	0.495149
C40	C	1.863467	-0.021564	0.995149
C41	C	1.358913	-0.599628	0.499697
C42	C	1.858913	-0.099628	0.999697
C43	C	0.820028	-0.338387	0.484486
C44	C	1.320028	0.161613	0.984486
C45	C	0.929261	-0.338374	0.484481
C46	C	1.429261	0.161626	0.984481
C47	C	1.418481	-0.636317	0.440153
C48	C	1.918481	-0.136317	0.940153
C49	C	1.414191	-0.709667	0.444422
C50	C	1.914191	-0.209667	0.944422
C51	C	1.350337	-0.746327	0.508241
C52	C	1.850337	-0.246327	1.008241
C53	C	1.290762	-0.709633	0.567787
C54	C	1.790762	-0.209633	1.067787
C55	C	1.295048	-0.636284	0.563512
C56	C	1.795048	-0.136284	1.063512
C57	C	1.334304	-0.967791	0.524230
C58	C	1.834304	-0.467791	1.024230
C59	C	1.330024	-1.041145	0.528502
C60	C	1.830024	-0.541145	1.028502
C61	C	1.453452	-1.041174	0.405135
C62	C	1.953452	-0.541174	0.905135
C63	C	1.457736	-0.967824	0.400870
C64	C	1.957736	-0.467824	0.900870
C65	C	1.398158	-0.931136	0.460413
C66	C	1.898158	-0.431136	0.960413
C67	C	1.345952	-0.821302	0.512608
C68	C	1.845952	-0.321302	1.012608
C69	C	1.402539	-0.856162	0.456039
C70	C	1.902539	-0.356162	0.956039
C71	C	1.625744	-0.338391	0.484492
C72	C	2.125744	0.161609	0.984492
C73	C	1.732958	-0.338398	0.484498
C74	C	2.232958	0.161602	0.984498
C75	C	1.374083	-0.338354	0.735090
C76	C	1.874083	0.161646	1.235090
C77	C	1.374140	-0.338369	0.842305
C78	C	1.874140	0.161631	1.342305
C79	C	1.384852	-0.155898	0.473777
C80	C	1.884852	0.344102	0.973777
C81	C	1.389592	-0.077834	0.468958
C82	C	1.889592	0.422166	0.968958
C83	C	1.374247	-0.338410	0.232886
C84	C	1.874247	0.161590	0.732886
C85	C	1.374287	-0.338425	0.125673
C86	C	1.874287	0.161575	0.625673
C87	C	1.374239	-0.338413	1.038603
C88	C	1.874239	0.161587	1.538603
C89	C	1.374181	-0.338391	0.929369
C90	C	1.874181	0.161609	1.429369
H91	H	1.470481	-0.606474	0.388187
H92	H	1.970481	-0.106474	0.888187
C93	C	1.268762	-0.927444	0.589726
C94	C	1.768762	-0.427444	1.089726
N95	N	1.219392	-0.897053	0.639060
N96	N	1.719392	-0.397053	1.139060
C97	C	1.220512	-0.749961	0.637979
C98	C	1.720512	-0.249961	1.137979
N99	N	1.167599	-0.780336	0.690849
N100	N	1.667599	-0.280336	1.190849
H101	H	1.246532	-0.606413	0.611990
H102	H	1.746532	-0.106413	1.111990
H103	H	1.501955	-1.071053	0.356658
H104	H	2.001955	-0.571053	0.856658
C105	C	1.259774	-1.081469	0.598708
C106	C	1.759774	-0.581469	1.098708
N107	N	1.206864	-1.111841	0.651584
N108	N	1.706864	-0.611841	1.151584
H109	H	1.462699	-0.739536	0.395937
H110	H	1.962699	-0.239536	0.895937
C111	C	1.472776	-0.815835	0.385840
C112	C	1.972776	-0.315835	0.885840
N113	N	1.525682	-0.785453	0.332969
N114	N	2.025682	-0.285453	0.832969
H115	H	1.509736	-0.937981	0.348904
H116	H	2.009736	-0.437981	0.848904
H117	H	1.293966	-0.851159	0.564574
H118	H	1.793966	-0.351159	1.064574
