data_functionalizedCrystal
_audit_creation_method	'MofGen! by Chris Wilmer'
_symmetry_space_group_name_H-M	'P1'
_symmetry_Int_Tables_number	1
_symmetry_cell_setting	triclinic
loop_
_symmetry_equiv_pos_as_xyz
  x,y,z
_cell_length_a	12.811438
_cell_length_b	12.811415
_cell_length_c	11.892095
_cell_angle_alpha	88.492960
_cell_angle_beta	91.498957
_cell_angle_gamma	84.560771
loop_
_atom_site_label
_atom_site_type_symbol
_atom_site_fract_x
_atom_site_fract_y
_atom_site_fract_z
O1	O	1.390870	0.143801	0.033863
O2	O	1.087661	0.156865	0.001434
O3	O	1.245798	-0.001274	0.033865
O4	O	1.232732	0.301939	0.001432
O5	O	1.232613	0.011891	0.219170
O6	O	1.074476	0.170030	0.186740
O7	O	1.377684	0.156966	0.219169
Zn8	Zn	1.223987	0.165588	0.232375
Zn9	Zn	1.241359	0.148243	-0.011773
O10	O	1.219547	0.315104	0.186738
C11	C	1.042236	0.162311	0.090222
C12	C	0.926527	0.158911	0.078706
C13	C	0.770623	0.146944	-0.038523
C14	C	0.879343	0.150137	-0.027712
C15	C	0.864982	0.164490	0.174320
C16	C	0.756262	0.161297	0.163509
C17	C	0.709087	0.152526	0.057084
C18	C	0.600364	0.149340	0.046273
C19	C	0.586006	0.163686	0.248305
C20	C	0.694726	0.166878	0.259116
C21	C	1.238070	-0.033525	0.130381
C22	C	1.234671	-0.149236	0.141891
C23	C	1.242644	-0.381013	-0.038526
C24	C	1.239451	-0.489735	-0.027716
C25	C	1.225087	-0.475403	0.174317
C26	C	1.228279	-0.366681	0.163508
C27	C	1.237059	-0.319490	0.057083
C28	C	1.240259	-0.210768	0.046276
C29	C	1.225887	-0.196436	0.248307
C30	C	1.222695	-0.305158	0.259117
C31	C	1.423110	0.151520	0.130379
C32	C	1.538820	0.154919	0.141887
C33	C	1.227276	0.347355	0.090219
C34	C	1.230675	0.463066	0.078702
N35	N	1.212138	0.177425	0.399001
N36	N	1.253216	0.136398	-0.178396
C37	C	1.335663	0.053970	0.660974
C38	C	1.327388	0.062252	0.777618
C39	C	1.187310	0.202264	0.748936
C40	C	1.195585	0.193982	0.632291
C41	C	1.269764	0.119834	0.588315
C42	C	1.278043	0.111558	0.471669
C43	C	1.137961	0.251565	0.442989
C44	C	1.129687	0.259846	0.559633
H45	H	1.247412	-0.172347	-0.040380
C46	C	1.215717	-0.526516	0.289951
C47	C	1.301613	-0.506404	0.358529
C48	C	1.293013	-0.553455	0.465066
H49	H	1.214654	-0.600090	0.282872
H50	H	1.152679	-0.498482	0.322791
H51	H	1.364634	-0.534442	0.325697
H52	H	1.302693	-0.432840	0.365640
H53	H	1.229975	-0.525421	0.497906
H54	H	1.291948	-0.627026	0.457976
H55	H	1.351286	-0.539808	0.511612
H56	H	1.221344	-0.146333	0.326160
H57	H	1.215542	-0.343595	0.345764
H58	H	1.243995	-0.539823	-0.105571
H59	H	1.338446	0.051186	0.435865
H60	H	1.396070	-0.006397	0.625168
H61	H	1.381048	0.008618	0.836775
H62	H	1.126908	0.262627	0.784757
H63	H	1.249802	-0.342591	-0.125180
H64	H	1.069288	0.320214	0.595452
C65	C	0.549259	0.139978	-0.069357
C66	C	0.569379	0.225873	-0.137949
C67	C	0.522333	0.217274	-0.244481
H68	H	0.475684	0.138920	-0.062271
H69	H	0.577290	0.076939	-0.102189
H70	H	0.541344	0.288896	-0.105125
H71	H	0.642944	0.226947	-0.145068
H72	H	0.550364	0.154235	-0.277313
H73	H	0.448761	0.216215	-0.237383
H74	H	0.535986	0.275546	-0.291037
C75	C	1.066348	0.323210	0.364284
C76	C	0.999636	0.389933	0.427769
C77	C	0.933667	0.455957	0.355306
H78	H	1.025665	0.282089	0.318166
H79	H	1.107541	0.363876	0.318193
H80	H	0.958447	0.349272	0.473841
H81	H	1.040290	0.431077	0.473885
H82	H	0.974860	0.496622	0.309215
H83	H	0.892991	0.414827	0.309191
H84	H	0.888402	0.501242	0.398370
H85	H	0.929442	0.145592	-0.105565
C86	C	0.719511	0.137594	-0.154151
C87	C	0.739626	0.223499	-0.222732
C88	C	0.692571	0.214917	-0.329261
H89	H	0.645937	0.136535	-0.147059
H90	H	0.747539	0.074560	-0.186997
H91	H	0.711594	0.286516	-0.189894
H92	H	0.813191	0.224574	-0.229857
H93	H	0.720598	0.151883	-0.362107
H94	H	0.618999	0.213856	-0.322158
H95	H	0.706220	0.273196	-0.375809
H96	H	0.733152	0.174016	0.345764
C97	C	0.916189	0.173786	0.289910
C98	C	0.896116	0.087859	0.358479
C99	C	0.943285	0.096378	0.464963
H100	H	0.888236	0.236791	0.322840
H101	H	0.989765	0.174829	0.282700
H102	H	0.822554	0.086827	0.365693
H103	H	0.924070	0.024843	0.325586
H104	H	1.016861	0.097420	0.457753
H105	H	0.915328	0.159385	0.497882
H106	H	0.929680	0.038074	0.511497
H107	H	0.535891	0.168235	0.326154
