data_functionalizedCrystal
_audit_creation_method	'MofGen! by Chris Wilmer'
_symmetry_space_group_name_H-M	'P1'
_symmetry_Int_Tables_number	1
_symmetry_cell_setting	triclinic
loop_
_symmetry_equiv_pos_as_xyz
  x,y,z
_cell_length_a	10.967829
_cell_length_b	11.026623
_cell_length_c	10.065875
_cell_angle_alpha	100.706105
_cell_angle_beta	110.808508
_cell_angle_gamma	83.619121
loop_
_atom_site_label
_atom_site_type_symbol
_atom_site_fract_x
_atom_site_fract_y
_atom_site_fract_z
O1	O	0.554366	-1.576565	0.243877
O2	O	1.054366	-1.076565	0.743877
O3	O	0.492924	-1.225011	0.229428
O4	O	0.992924	-0.725011	0.729428
O5	O	0.338314	-1.415732	0.193060
O6	O	0.838314	-0.915732	0.693060
O7	O	0.708975	-1.385844	0.280246
O8	O	1.208975	-0.885844	0.780246
O9	O	0.308720	-1.452134	-0.040891
O10	O	0.808720	-0.952134	0.459109
O11	O	0.463329	-1.261412	-0.004522
O12	O	0.963329	-0.761412	0.495478
O13	O	0.524771	-1.612966	0.009927
O14	O	1.024771	-1.112966	0.509927
Zn15	Zn	0.489351	-1.442969	-0.034442
Zn16	Zn	0.989351	-0.942969	0.465558
Zn17	Zn	0.528343	-1.395008	0.273797
Zn18	Zn	1.028343	-0.895008	0.773797
O19	O	0.679381	-1.422245	0.046296
O20	O	1.179381	-0.922245	0.546296
C21	C	0.466792	-1.198324	0.109787
C22	C	0.966792	-0.698324	0.609787
C23	C	0.433002	-1.064574	0.101841
C24	C	0.933002	-0.564574	0.601841
C25	C	0.526298	-0.988107	0.123787
C26	C	1.026298	-0.488107	0.623787
C27	C	0.491378	-0.849869	0.115574
C28	C	0.991378	-0.349869	0.615574
C29	C	0.275327	-1.434508	0.064752
C30	C	0.775327	-0.934508	0.564752
C31	C	0.131733	-1.436209	0.030985
C32	C	0.631733	-0.936209	0.530985
C33	C	0.083051	-1.418110	0.137125
C34	C	0.583051	-0.918110	0.637125
C35	C	-0.065360	-1.419867	0.102228
C36	C	0.434640	-0.919867	0.602228
C37	C	0.742368	-1.403468	0.174606
C38	C	1.242368	-0.903468	0.674606
C39	C	0.885963	-1.401766	0.208383
C40	C	1.385963	-0.901766	0.708383
C41	C	0.550902	-0.639653	0.129570
C42	C	1.050902	-0.139653	0.629570
C43	C	0.584688	-0.773403	0.137523
C44	C	1.084688	-0.273403	0.637523
N45	N	0.554945	-1.362278	0.484161
N46	N	1.054945	-0.862278	0.984161
N47	N	0.462742	-1.475709	-0.244807
N48	N	0.962742	-0.975709	0.255193
C49	C	0.519070	-1.406399	0.700664
C50	C	1.019070	-0.906399	1.200664
C51	C	0.498609	-1.431598	0.538684
C52	C	0.998609	-0.931598	1.038684
H53	H	0.327279	-1.027693	0.077008
H54	H	0.827279	-0.527693	0.577008
Br55	Br	0.760919	-0.834844	0.178951
Br56	Br	1.260919	-0.334844	0.678951
H57	H	0.063537	-1.452997	-0.085721
H58	H	0.563537	-0.952997	0.414279
Br59	Br	0.196705	-1.390142	0.331651
Br60	Br	0.696705	-0.890142	0.831651
Br61	Br	-0.179009	-1.447850	-0.092306
Br62	Br	0.320991	-0.947850	0.407694
Br63	Br	-0.000398	-1.373712	0.402917
Br64	Br	0.499602	-0.873712	0.902917
Br65	Br	0.624713	-1.276406	0.822712
Br66	Br	1.124713	-0.776406	1.322712
H67	H	0.435237	-1.509603	0.465456
H68	H	0.935237	-1.009603	0.965456
H69	H	0.618328	-1.284282	0.557391
H70	H	1.118328	-0.784282	1.057391
H71	H	0.399374	-1.553709	0.681961
H72	H	0.899374	-1.053709	1.181961
H73	H	0.632025	-1.024984	0.148648
H74	H	1.132025	-0.524984	0.648648
H75	H	0.385648	-0.812993	0.090740
H76	H	0.885648	-0.312993	0.590740
