data_functionalizedCrystal
_audit_creation_method	'MofGen! by Chris Wilmer'
_symmetry_space_group_name_H-M	'P1'
_symmetry_Int_Tables_number	1
_symmetry_cell_setting	triclinic
loop_
_symmetry_equiv_pos_as_xyz
  x,y,z
_cell_length_a	10.967926
_cell_length_b	11.026660
_cell_length_c	9.730223
_cell_angle_alpha	89.999666
_cell_angle_beta	102.128227
_cell_angle_gamma	83.620037
loop_
_atom_site_label
_atom_site_type_symbol
_atom_site_fract_x
_atom_site_fract_y
_atom_site_fract_z
O1	O	-0.523477	1.614504	-0.238262
O2	O	-0.023477	2.114504	0.261738
O3	O	-0.463870	1.260704	-0.224147
O4	O	0.036130	1.760704	0.275853
O5	O	-0.313860	1.445765	-0.188616
O6	O	0.186140	1.945765	0.311384
O7	O	-0.673486	1.429443	-0.273794
O8	O	-0.173486	1.929443	0.226206
O9	O	-0.313865	1.445763	0.039963
O10	O	0.186135	1.945763	0.539963
O11	O	-0.463874	1.260702	0.004432
O12	O	0.036126	1.760702	0.504432
O13	O	-0.523481	1.614502	-0.009683
O14	O	-0.023481	2.114502	0.490317
Zn15	Zn	-0.493678	1.437602	0.033666
Zn16	Zn	0.006322	1.937602	0.533666
Zn17	Zn	-0.493673	1.437604	-0.267497
Zn18	Zn	0.006327	1.937604	0.232503
O19	O	-0.673491	1.429441	-0.045215
O20	O	-0.173491	1.929441	0.454785
C21	C	-0.452875	1.215401	-0.107254
C22	C	0.047125	1.715401	0.392746
C23	C	-0.420094	1.080415	-0.099491
C24	C	0.079906	1.580415	0.400509
C25	C	-0.476740	0.867846	-0.112912
C26	C	0.023260	1.367846	0.387088
C27	C	-0.510624	1.007361	-0.120934
C28	C	-0.010624	1.507361	0.379066
C29	C	-0.720244	1.430630	-0.170578
C30	C	-0.220244	1.930630	0.329422
C31	C	-0.859564	1.434183	-0.203576
C32	C	-0.359564	1.934183	0.296424
C33	C	-0.921680	1.435767	-0.099877
C34	C	-0.421680	1.935767	0.400123
C35	C	-1.065674	1.439440	-0.133980
C36	C	-0.565674	1.939440	0.366020
C37	C	-0.267107	1.444576	-0.063255
C38	C	0.232893	1.944576	0.436745
C39	C	-0.127787	1.441023	-0.030266
C40	C	0.372213	1.941023	0.469734
C41	C	-0.534476	1.659805	-0.126580
C42	C	-0.034476	2.159805	0.373420
C43	C	-0.567257	1.794791	-0.134352
C44	C	-0.067257	2.294791	0.365648
N45	N	-0.493683	1.437609	0.239201
N46	N	0.006317	1.937609	0.739201
N47	N	-0.493660	1.437607	-0.473030
N48	N	0.006340	1.937607	0.026970
C49	C	-0.427293	1.519575	0.326852
C50	C	0.072707	2.019575	0.826852
C51	C	-0.427277	1.519572	0.470739
C52	C	0.072723	2.019572	0.970739
C53	C	-0.560053	1.355632	0.439308
C54	C	-0.060053	1.855632	0.939308
C55	C	-0.560061	1.355630	0.295426
C56	C	-0.060061	1.855630	0.795426
C57	C	-0.350640	1.614228	0.344999
C58	C	0.149360	2.114228	0.844999
C59	C	-0.350624	1.614225	0.488886
C60	C	0.149376	2.114225	0.988886
H61	H	-0.613211	1.048098	-0.145223
H62	H	-0.113211	1.548098	0.354777
H63	H	-0.614108	1.288877	0.224063
H64	H	-0.114108	1.788877	0.724063
N65	N	-1.136457	1.441232	-0.285020
N66	N	-0.636457	1.941232	0.214980
H67	H	-1.120549	1.515882	-0.335781
H68	H	-0.620549	2.015882	0.164219
H69	H	-1.106934	1.365363	-0.332422
H70	H	-0.606934	1.865363	0.167578
H71	H	-0.868256	1.434397	0.014150
H72	H	-0.368256	1.934397	0.514150
H73	H	-0.374160	0.827105	-0.088595
H74	H	0.125840	1.327105	0.411405
N75	N	-0.284203	1.026473	-0.067294
N76	N	0.215797	1.526473	0.432706
H77	H	-0.279255	0.934455	-0.066122
H78	H	0.220745	1.434455	0.433878
H79	H	-0.241230	1.054500	-0.141852
H80	H	0.258770	1.554500	0.358148
N81	N	-1.057044	1.439205	0.120791
N82	N	-0.557044	1.939205	0.620791
H83	H	-0.964207	1.436836	0.123745
H84	H	-0.464207	1.936836	0.623745
H85	H	-1.086645	1.515023	0.168226
H86	H	-0.586645	2.015023	0.668226
H87	H	-0.912987	1.435537	-0.317604
H88	H	-0.412987	1.935537	0.182396
H89	H	-0.669837	0.835533	-0.158639
H90	H	-0.169837	1.335533	0.341361
N91	N	-0.631638	1.267213	0.499952
N92	N	-0.131638	1.767213	0.999952
H93	H	-0.621557	1.279647	0.604403
H94	H	-0.121557	1.779647	1.104403
H95	H	-0.723491	1.281985	0.453061
H96	H	-0.223491	1.781985	0.953061
H97	H	-0.250249	1.593484	0.329722
H98	H	0.249751	2.093484	0.829722
N99	N	-0.416110	1.731139	0.270364
N100	N	0.083890	2.231139	0.770364
H101	H	-0.447737	1.787629	0.340130
H102	H	0.052263	2.287629	0.840130
H103	H	-0.355127	1.771902	0.226348
H104	H	0.144873	2.271902	0.726348
N105	N	-0.222122	1.575151	0.578424
N106	N	0.277878	2.075151	1.078424
H107	H	-0.191938	1.489714	0.553546
H108	H	0.308062	1.989714	1.053546
H109	H	-0.161635	1.633066	0.560683
H110	H	0.338365	2.133066	1.060683
H111	H	-0.392154	1.707649	0.518101
H112	H	0.107846	2.207649	1.018101
