data_functionalizedCrystal
_audit_creation_method	'MofGen! by Chris Wilmer'
_symmetry_space_group_name_H-M	'P1'
_symmetry_Int_Tables_number	1
_symmetry_cell_setting	triclinic
loop_
_symmetry_equiv_pos_as_xyz
  x,y,z
_cell_length_a	9.065218
_cell_length_b	10.065918
_cell_length_c	11.026607
_cell_angle_alpha	97.653451
_cell_angle_beta	96.800951
_cell_angle_gamma	99.742159
loop_
_atom_site_label
_atom_site_type_symbol
_atom_site_fract_x
_atom_site_fract_y
_atom_site_fract_z
O1	O	2.028537	0.113494	0.194550
O2	O	1.602903	0.113496	0.209187
O3	O	1.780443	0.113490	0.024827
O4	O	1.850997	0.113500	0.378910
O5	O	1.733154	-0.113499	-0.007369
O6	O	1.555615	-0.113494	0.176992
O7	O	1.981249	-0.113495	0.162354
Zn8	Zn	1.760924	-0.149534	0.164561
Zn9	Zn	1.823228	0.149534	0.206980
O10	O	1.803709	-0.113490	0.346714
C11	C	1.523921	0.000001	0.191683
C12	C	1.359030	0.000002	0.187477
N13	N	1.718413	-0.353640	0.135611
C14	C	1.808427	-0.421418	0.196908
C15	C	1.775720	-0.578585	0.174615
C16	C	2.060231	0.000002	0.179859
C17	C	2.225124	0.000010	0.184066
C18	C	1.743783	-0.000003	-0.036624
C19	C	1.704984	0.000002	-0.171764
N20	N	1.865747	0.353640	0.235921
C21	C	1.812118	0.000004	-0.244392
C22	C	1.772020	0.000009	-0.384066
C23	C	1.840369	0.000006	0.408166
C24	C	1.879170	0.000010	0.543307
H25	H	1.909711	-0.363090	0.265885
C26	C	1.976136	-0.000007	-0.188706
N27	N	2.099678	-0.000020	-0.146766
C28	C	1.581586	-0.432432	0.042417
N29	N	1.478522	-0.491777	-0.027777
C30	C	1.607991	0.000007	-0.439749
N31	N	1.484446	0.000002	-0.481692
H32	H	2.000607	0.000112	-0.415460
H33	H	1.583578	0.000011	-0.212989
H34	H	1.674438	-0.636908	0.105625
C35	C	2.002578	-0.567576	0.329124
N36	N	2.105635	-0.508234	0.399326
