data_functionalizedCrystal
_audit_creation_method	'MofGen! by Chris Wilmer'
_symmetry_space_group_name_H-M	'P1'
_symmetry_Int_Tables_number	1
_symmetry_cell_setting	triclinic
loop_
_symmetry_equiv_pos_as_xyz
  x,y,z
_cell_length_a	9.065218
_cell_length_b	9.065215
_cell_length_c	9.130313
_cell_angle_alpha	89.996437
_cell_angle_beta	89.996409
_cell_angle_gamma	85.015291
loop_
_atom_site_label
_atom_site_type_symbol
_atom_site_fract_x
_atom_site_fract_y
_atom_site_fract_z
O1	O	1.960397	0.216357	-0.121800
O2	O	2.460397	0.716357	0.378200
O3	O	1.531112	0.234103	-0.121802
O4	O	2.031112	0.734103	0.378198
O5	O	1.754630	0.010587	-0.121794
O6	O	2.254630	0.510587	0.378206
O7	O	1.736879	0.439873	-0.121807
O8	O	2.236879	0.939873	0.378193
O9	O	1.754615	0.010581	0.121804
O10	O	2.254615	0.510581	0.621804
O11	O	1.531097	0.234097	0.121797
O12	O	2.031097	0.734097	0.621797
O13	O	1.960382	0.216350	0.121799
O14	O	2.460382	0.716350	0.621799
Cu15	Cu	1.745738	0.225223	0.144041
Cu16	Cu	2.245738	0.725223	0.644041
Cu17	Cu	1.745756	0.225231	-0.144043
Cu18	Cu	2.245756	0.725231	0.355957
O19	O	1.736864	0.439866	0.121792
O20	O	2.236864	0.939866	0.621792
C21	C	1.476118	0.232394	-0.000002
C22	C	1.976118	0.732394	0.499998
C23	C	1.312275	0.227295	-0.000003
C24	C	1.812275	0.727295	0.499997
C25	C	1.752917	-0.044403	0.000003
C26	C	2.252917	0.455597	0.500003
C27	C	1.747819	-0.208246	-0.000001
C28	C	2.247819	0.291754	0.499999
C29	C	2.015376	0.218059	-0.000003
C30	C	2.515376	0.718059	0.499997
C31	C	2.179219	0.223159	-0.000012
C32	C	2.679219	0.723159	0.499988
C33	C	1.738576	0.494856	-0.000009
C34	C	2.238576	0.994856	0.499991
C35	C	1.743674	0.658699	-0.000014
C36	C	2.243674	1.158699	0.499986
N37	N	1.745736	0.225216	0.346663
N38	N	2.245736	0.725216	0.846663
N39	N	1.745770	0.225225	-0.346666
N40	N	2.245770	0.725225	0.153334
C41	C	1.844743	0.126286	0.423318
C42	C	2.344743	0.626286	0.923318
C43	C	1.844758	0.126286	0.576655
C44	C	2.344758	0.626286	1.076655
C45	C	1.646751	0.324161	0.576668
C46	C	2.146751	0.824161	1.076668
C47	C	1.646731	0.324152	0.423334
C48	C	2.146731	0.824152	0.923334
H49	H	1.925377	0.045726	0.639063
H50	H	2.425377	0.545726	1.139063
H51	H	1.566146	0.404714	0.639109
H52	H	2.066146	0.904714	1.139109
H53	H	1.925357	0.045725	0.360896
H54	H	2.425357	0.545725	0.860896
H55	H	1.566100	0.404714	0.360918
H56	H	2.066100	0.904714	0.860918
