data_functionalizedCrystal
_audit_creation_method	'MofGen! by Chris Wilmer'
_symmetry_space_group_name_H-M	'P1'
_symmetry_Int_Tables_number	1
_symmetry_cell_setting	triclinic
loop_
_symmetry_equiv_pos_as_xyz
  x,y,z
_cell_length_a	16.120530
_cell_length_b	16.120297
_cell_length_c	16.120484
_cell_angle_alpha	95.614431
_cell_angle_beta	90.167327
_cell_angle_gamma	90.128140
loop_
_atom_site_label
_atom_site_type_symbol
_atom_site_fract_x
_atom_site_fract_y
_atom_site_fract_z
Zn1	Zn	1.224987	-0.554813	-0.422264
Zn2	Zn	1.724987	-0.054813	0.077736
Zn3	Zn	1.224883	-0.422118	-0.554948
Zn4	Zn	1.724883	0.077882	-0.054948
Zn5	Zn	1.093726	-0.408056	-0.408180
Zn6	Zn	1.593726	0.091944	0.091820
Zn7	Zn	1.078880	-0.554051	-0.554181
Zn8	Zn	1.578880	-0.054051	-0.054181
O9	O	1.155619	-0.484760	-0.484893
O10	O	1.655619	0.015240	0.015107
O11	O	1.341009	-0.543415	-0.446081
O12	O	1.841009	-0.043415	0.053919
O13	O	1.213654	-0.303620	-0.529906
O14	O	1.713654	0.196380	-0.029906
O15	O	1.117395	-0.421958	-0.293418
O16	O	1.617395	0.078042	0.206582
O17	O	1.340932	-0.445925	-0.543563
O18	O	1.840932	0.054075	-0.043563
O19	O	1.213832	-0.529780	-0.303765
O20	O	1.713832	-0.029780	0.196235
O21	O	1.117294	-0.293289	-0.422076
O22	O	1.617294	0.206711	0.077924
O23	O	0.975721	-0.421218	-0.421332
O24	O	1.475721	0.078782	0.078668
O25	O	1.092092	-0.670785	-0.542255
O26	O	1.592092	-0.170785	-0.042255
O27	O	0.964814	-0.528480	-0.528598
O28	O	1.464814	-0.028480	-0.028598
O29	O	1.199436	-0.671345	-0.445336
O30	O	1.699436	-0.171345	0.054664
O31	O	1.199258	-0.445185	-0.671477
O32	O	1.699258	0.054815	-0.171477
O33	O	1.091990	-0.542116	-0.670913
O34	O	1.591990	-0.042116	-0.170913
C35	C	0.940181	-0.473241	-0.473354
C36	C	1.440181	0.026759	0.026646
C37	C	0.848013	-0.468334	-0.468438
C38	C	1.348013	0.031666	0.031562
C39	C	0.679262	-0.459381	-0.459445
C40	C	1.179262	0.040619	0.040555
C41	C	0.632810	-0.510202	-0.510407
C42	C	1.132810	-0.010202	-0.010407
C43	C	0.538911	-0.505220	-0.505403
C44	C	1.038911	-0.005220	-0.005403
C45	C	0.773169	-0.464361	-0.464448
C46	C	1.273169	0.035639	0.035552
C47	C	1.144119	-0.702152	-0.495281
C48	C	1.644119	-0.202152	0.004719
C49	C	1.139219	-0.794791	-0.499708
C50	C	1.639219	-0.294791	0.000292
C51	C	1.130243	-0.964403	-0.507770
C52	C	1.630243	-0.464403	-0.007770
C53	C	1.181172	-1.005965	-0.461776
C54	C	1.681172	-0.505965	0.038224
C55	C	1.176177	-1.100342	-0.466262
C56	C	1.676177	-0.600342	0.033738
C57	C	1.135236	-0.870017	-0.503285
C58	C	1.635236	-0.370017	-0.003285
C59	C	1.371899	-0.496324	-0.496479
C60	C	1.871899	0.003676	0.003521
C61	C	1.464064	-0.501252	-0.501416
C62	C	1.964064	-0.001252	-0.001416
C63	C	1.144023	-0.495113	-0.701438
C64	C	1.644023	0.004887	-0.201438
C65	C	1.139137	-0.499574	-0.794083
C66	C	1.639137	0.000426	-0.294083
C67	C	1.167125	-0.268213	-0.474489
C68	C	1.667125	0.231787	0.025511
C69	C	1.172198	-0.175571	-0.469836
C70	C	1.672198	0.324429	0.030164
C71	C	1.130220	-0.507736	-0.963706
C72	C	1.630220	-0.007736	-0.463706
C73	C	1.181166	-0.461804	-1.005249
C74	C	1.681166	0.038196	-0.505249
C75	C	1.176204	-0.466346	-1.099633
C76	C	1.676204	0.033654	-0.599633
C77	C	1.135180	-0.503196	-0.869313
C78	C	1.635180	-0.003196	-0.369313
C79	C	1.167282	-0.474385	-0.267505
C80	C	1.667282	0.025615	0.232495
C81	C	1.172251	-0.469964	-0.174867
C82	C	1.672251	0.030036	0.325133
H83	H	0.663563	-0.557453	-0.557794
H84	H	1.163563	-0.057453	-0.057794
H85	H	1.082894	-0.999698	-0.550512
H86	H	1.582894	-0.499698	-0.050512
H87	H	0.648511	-0.412135	-0.412060
H88	H	1.148511	0.087865	0.087940
O89	O	1.237632	-0.963735	-0.410841
O90	O	1.737632	-0.463735	0.089159
C91	C	1.230097	-0.877538	-0.417626
C92	C	1.730097	-0.377538	0.082374
H93	H	1.200113	-0.867371	-0.479947
H94	H	1.700113	-0.367371	0.020053
H95	H	1.189861	-0.848107	-0.364679
H96	H	1.689861	-0.348107	0.135321
C97	C	1.353552	-0.849358	-0.335829
C98	C	1.853552	-0.349358	0.164171
C99	C	1.316730	-0.836870	-0.412377
C100	C	1.816730	-0.336870	0.087623
H101	H	1.406990	-0.824270	-0.332588
H102	H	1.906990	-0.324270	0.167412
H103	H	1.358627	-0.907430	-0.331256
H104	H	1.858627	-0.407430	0.168744
H105	H	1.320013	-0.824832	-0.291715
H106	H	1.820013	-0.324832	0.208285
H107	H	1.350263	-0.861405	-0.456489
H108	H	1.850263	-0.361405	0.043511
H109	H	1.311663	-0.778801	-0.416958
H110	H	1.811663	-0.278801	0.083042
O111	O	1.237569	-0.410830	-0.962990
O112	O	1.737569	0.089170	-0.462990
C113	C	1.230035	-0.417591	-0.876794
C114	C	1.730035	0.082409	-0.376794
H115	H	1.165187	-0.440869	-0.862933
H116	H	1.665187	0.059131	-0.362933
H117	H	1.278116	-0.463466	-0.856769
H118	H	1.778116	0.036534	-0.356769
C119	C	1.324101	-0.302972	-0.845439
C120	C	1.824101	0.197028	-0.345439
C121	C	1.244452	-0.331555	-0.828414
C122	C	1.744452	0.168445	-0.328414
H123	H	1.332997	-0.249903	-0.815595
H124	H	1.832997	0.250097	-0.315595
H125	H	1.329179	-0.298419	-0.903511
H126	H	1.829179	0.201581	-0.403511
H127	H	1.364160	-0.341209	-0.828751
H128	H	1.864160	0.158791	-0.328751
H129	H	1.204395	-0.293324	-0.845112
H130	H	1.704395	0.206676	-0.345112
H131	H	1.239367	-0.336100	-0.770344
H132	H	1.739367	0.163900	-0.270344
H133	H	1.082881	-0.550467	-0.999022
H134	H	1.582881	-0.050467	-0.499022
