data_functionalizedCrystal
_audit_creation_method	'MofGen! by Chris Wilmer'
_symmetry_space_group_name_H-M	'P1'
_symmetry_Int_Tables_number	1
_symmetry_cell_setting	triclinic
loop_
_symmetry_equiv_pos_as_xyz
  x,y,z
_cell_length_a	27.732064
_cell_length_b	16.992695
_cell_length_c	15.455313
_cell_angle_alpha	87.152573
_cell_angle_beta	87.352697
_cell_angle_gamma	93.341176
loop_
_atom_site_label
_atom_site_type_symbol
_atom_site_fract_x
_atom_site_fract_y
_atom_site_fract_z
O1	O	0.646935	-0.089874	-0.071889
O2	O	0.506757	-0.104037	-0.071943
O3	O	0.576284	0.017180	-0.071910
O4	O	0.577408	-0.211091	-0.071923
O5	O	0.572307	0.010277	0.072351
O6	O	0.502780	-0.110940	0.072317
O7	O	0.642958	-0.096777	0.072371
Cu8	Cu	0.572506	-0.104489	0.085516
Cu9	Cu	0.577209	-0.096325	-0.085088
O10	O	0.573431	-0.217994	0.072337
C11	C	0.486749	-0.107189	0.000180
C12	C	0.433056	-0.106287	0.000159
C13	C	0.572849	0.042924	0.000220
C14	C	0.568536	0.129916	0.000218
C15	C	0.662966	-0.093625	0.000246
C16	C	0.716659	-0.094527	0.000261
C17	C	1.097095	-0.172296	0.000216
C18	C	0.895291	-0.168979	0.000240
O19	O	0.866647	-0.229328	0.000273
N20	N	0.873056	-0.097099	0.000248
C21	C	0.901274	-0.026043	0.000256
O22	O	0.877731	0.035171	0.000272
C23	C	1.103078	-0.029361	0.000238
C24	C	1.125311	-0.101245	0.000221
C25	C	1.119329	-0.244174	0.000200
C26	C	1.169777	-0.245002	0.000189
C27	C	1.197992	-0.173952	0.000194
C28	C	1.175759	-0.102073	0.000210
C29	C	1.131295	0.041694	0.000252
C30	C	1.181749	0.040858	0.000250
C31	C	1.203982	-0.031027	0.000233
C32	C	1.254422	-0.031851	0.000205
N33	N	1.276658	-0.103731	0.000197
C34	C	1.248442	-0.174782	0.000191
C35	C	0.795325	-0.024307	0.000264
C36	C	0.744874	-0.023477	0.000266
C37	C	0.738894	-0.166413	0.000252
C38	C	0.789346	-0.167242	0.000243
C39	C	0.817560	-0.096187	0.000255
C40	C	1.354388	-0.176515	0.000168
C41	C	1.404841	-0.177337	0.000154
C42	C	1.410816	-0.034401	0.000173
C43	C	1.360368	-0.033579	0.000183
C44	C	1.332154	-0.104643	0.000183
O45	O	1.283096	0.028465	0.000182
O46	O	1.271994	-0.235988	0.000194
C47	C	1.046647	-0.171468	0.000226
C48	C	1.024414	-0.099589	0.000243
C49	C	1.052629	-0.028539	0.000248
C50	C	0.973964	-0.098759	0.000245
C51	C	0.945748	-0.169810	0.000240
C52	C	0.967984	-0.241690	0.000232
C53	C	1.018432	-0.242518	0.000221
C54	C	1.030394	0.043341	0.000256
C55	C	0.979945	0.044164	0.000266
C56	C	0.951730	-0.026887	0.000261
C57	C	0.576865	-0.243738	0.000206
C58	C	0.581179	-0.330730	0.000202
N59	N	0.569201	-0.110231	0.205510
C60	C	0.610158	0.180656	0.000235
C61	C	0.606102	0.262394	0.000225
C62	C	0.560423	0.293391	0.000205
C63	C	0.518797	0.242644	0.000185
C64	C	0.522854	0.160908	0.000188
C65	C	0.543610	0.536787	0.000186
C66	C	0.539557	0.618530	0.000185
C67	C	0.626862	0.638274	0.000224
C68	C	0.630914	0.556535	0.000233
C69	C	0.589289	0.505796	0.000208
N70	N	0.556276	0.376940	0.000197
N71	N	0.593436	0.422249	0.000209
N72	N	0.580517	-0.090577	-0.205082
C73	C	0.598750	-0.058752	0.250919
C74	C	0.596256	-0.063102	0.341725
C75	C	0.564215	-0.118934	0.387122
C76	C	0.534662	-0.170415	0.341707
C77	C	0.537154	-0.166061	0.250902
C78	C	0.553457	-0.137705	0.658698
C79	C	0.550968	-0.142056	0.749509
C80	C	0.612561	-0.034741	0.749521
C81	C	0.615053	-0.030396	0.658715
C82	C	0.585498	-0.081874	0.613308
N83	N	0.561665	-0.123382	0.479941
N84	N	0.588046	-0.077421	0.520490
H85	H	1.331422	-0.234382	0.000171
H86	H	0.488960	0.119596	0.000174
O87	O	0.629888	-0.004447	0.206959
C88	C	0.690735	0.101507	0.216565
C89	C	0.655486	0.040052	0.266454
H90	H	0.711447	0.137490	0.264646
H91	H	0.669554	0.142521	0.174084
H92	H	0.717323	0.069961	0.174023
H93	H	0.628890	0.071531	0.309044
H94	H	0.676698	-0.000958	0.308880
H95	H	0.509716	0.495485	0.000167
O96	O	1.209172	0.109856	0.000412
C97	C	1.267575	0.188282	0.075122
C98	C	1.236538	0.110118	0.075060
H99	H	1.289716	0.188513	0.135459
H100	H	1.243035	0.239823	0.075190
H101	H	1.292976	0.194355	0.014717
H102	H	1.211133	0.103969	0.135455
H103	H	1.261106	0.058615	0.074947
H104	H	0.481604	0.267888	0.000163
O105	O	1.091900	-0.313185	0.000342
C106	C	1.029403	-0.398787	0.075025
C107	C	1.060438	-0.320613	0.074993
H108	H	1.003951	-0.404810	0.135364
H109	H	1.053943	-0.450329	0.075068
H110	H	1.007316	-0.399068	0.014622
H111	H	1.082529	-0.320254	0.135386
H112	H	1.035871	-0.269106	0.074905
O113	O	1.191291	-0.314903	0.000221
C114	C	1.180018	-0.456585	0.000168
C115	C	1.155595	-0.377475	0.000146
H116	H	1.151169	-0.507194	0.000089
H117	H	1.201814	-0.463494	0.060554
H118	H	1.205158	-0.457625	-0.060191
H119	H	1.130431	-0.376379	0.060465
H120	H	1.133828	-0.370597	-0.060280
H121	H	0.620317	-0.021183	0.378696
O122	O	0.646526	0.311719	0.000088
C123	C	0.694667	0.419055	-0.074613
C124	C	0.648873	0.363235	-0.074572
H125	H	0.696574	0.460730	-0.134960
H126	H	0.728028	0.382899	-0.074649
H127	H	0.693282	0.454898	-0.014217
H128	H	0.650211	0.327380	-0.134957
H129	H	0.615531	0.399436	-0.074490
O130	O	0.646188	0.023912	0.614754
C131	C	0.707037	0.129864	0.624352
C132	C	0.671788	0.068413	0.674245
H133	H	0.727751	0.165849	0.672429
H134	H	0.685856	0.170878	0.581870
H135	H	0.733623	0.098316	0.581809
H136	H	0.645193	0.099895	0.716835
H137	H	0.693001	0.027403	0.716672
H138	H	0.524874	-0.187525	0.786467
H139	H	0.961848	0.102705	0.000273
O140	O	0.524733	-0.187795	0.614732
C141	C	0.463359	-0.294667	0.624311
C142	C	0.495871	-0.237997	0.674215
H143	H	0.440008	-0.335258	0.672381
H144	H	0.486870	-0.331608	0.581812
H145	H	0.439104	-0.259043	0.581784
H146	H	0.520131	-0.273558	0.716789
H147	H	0.472331	-0.201054	0.716658
O148	O	0.675326	0.526560	0.000217
C149	C	0.761490	0.554769	0.000321
C150	C	0.711226	0.588822	0.000310
H151	H	0.790528	0.605091	0.000415
H152	H	0.767273	0.519907	-0.060059
H153	H	0.763877	0.514087	0.060686
H154	H	0.708803	0.629538	-0.060014
H155	H	0.705465	0.623638	0.060730
O156	O	0.503510	-0.224547	0.385900
C157	C	0.435343	-0.246871	0.488385
C158	C	0.470597	-0.185482	0.438408
H159	H	0.408718	-0.215311	0.530836
H160	H	0.456519	-0.287824	0.530947
H161	H	0.414673	-0.282932	0.440316
H162	H	0.491276	-0.149367	0.486415
H163	H	0.449394	-0.144583	0.395833
H164	H	0.513092	-0.207979	0.213931
O165	O	0.495145	0.648512	0.000117
C166	C	0.408977	0.620307	0.000111
C167	C	0.459239	0.586247	0.000168
H168	H	0.379933	0.569981	0.000170
H169	H	0.406536	0.660939	-0.060279
H170	H	0.403254	0.655222	0.060466
H171	H	0.464996	0.551294	-0.060147
H172	H	0.461657	0.545657	0.060597
H173	H	0.636622	0.007171	0.786500
H174	H	1.422940	-0.235876	0.000139
H175	H	1.053362	0.101201	0.000263
H176	H	0.807444	-0.225777	0.000234
H177	H	0.715913	-0.224265	0.000248
H178	H	0.660751	0.679594	0.000242
O179	O	0.723357	0.046419	0.000311
C180	C	0.734628	0.188106	0.000277
C181	C	0.759055	0.109001	0.000241
H182	H	0.763480	0.238725	0.000202
H183	H	0.709518	0.189233	0.060667
H184	H	0.712799	0.194920	-0.060078
H185	H	0.780910	0.102135	0.060556
H186	H	0.784138	0.107909	-0.060188
H187	H	0.818293	0.033558	0.000274
H188	H	1.342265	0.024956	0.000184
O189	O	1.109783	0.111590	0.000315
C190	C	1.121061	0.253274	0.000307
C191	C	1.145484	0.174167	0.000252
H192	H	1.149915	0.303889	0.000237
H193	H	1.095954	0.254396	0.060701
H194	H	1.099229	0.260101	-0.060045
H195	H	1.167341	0.167288	0.060562
H196	H	1.170564	0.173081	-0.060182
O197	O	1.438158	0.034687	0.000138
C198	C	1.438778	0.176546	0.000218
C199	C	1.407754	0.098362	0.000231
H200	H	1.414209	0.228046	0.000311
H201	H	1.464191	0.182676	-0.060171
H202	H	1.460904	0.176788	0.060574
H203	H	1.385599	0.098066	-0.060084
H204	H	1.382372	0.092263	0.060660
O205	O	1.039971	-0.312393	0.000093
C206	C	1.052346	-0.431218	-0.074689
C207	C	1.027923	-0.352110	-0.074641
H208	H	1.042623	-0.463344	-0.135114
H209	H	1.039281	-0.469237	-0.014360
H210	H	1.093250	-0.419607	-0.074651
H211	H	0.987017	-0.363648	-0.074709
H212	H	1.041027	-0.314116	-0.134965
O213	O	0.940523	-0.310653	0.000111
C214	C	0.882152	-0.389100	-0.074646
C215	C	0.913219	-0.310964	-0.074613
H216	H	0.860077	-0.389384	-0.135063
H217	H	0.856697	-0.395176	-0.014310
H218	H	0.906712	-0.440613	-0.074613
H219	H	0.888696	-0.259405	-0.074677
H220	H	0.938679	-0.304957	-0.134944
H221	H	0.647355	0.155425	0.000257
