data_functionalizedCrystal
_audit_creation_method	'MofGen! by Chris Wilmer'
_symmetry_space_group_name_H-M	'P1'
_symmetry_Int_Tables_number	1
_symmetry_cell_setting	triclinic
loop_
_symmetry_equiv_pos_as_xyz
  x,y,z
_cell_length_a	14.853567
_cell_length_b	14.853559
_cell_length_c	14.586319
_cell_angle_alpha	89.998399
_cell_angle_beta	89.999465
_cell_angle_gamma	83.633192
loop_
_atom_site_label
_atom_site_type_symbol
_atom_site_fract_x
_atom_site_fract_y
_atom_site_fract_z
O1	O	1.196360	0.117704	-0.076173
O2	O	1.696360	0.617704	0.423827
O3	O	0.933900	0.131725	-0.076188
O4	O	1.433900	0.631725	0.423812
O5	O	1.072145	-0.006516	-0.076179
O6	O	1.572145	0.493484	0.423821
O7	O	1.058115	0.255945	-0.076182
O8	O	1.558115	0.755945	0.423818
O9	O	1.072135	-0.006518	0.076302
O10	O	1.572135	0.493482	0.576302
O11	O	0.933890	0.131723	0.076293
O12	O	1.433890	0.631723	0.576293
O13	O	1.196350	0.117701	0.076308
O14	O	1.696350	0.617701	0.576308
Cu15	Cu	1.065120	0.124712	0.090223
Cu16	Cu	1.565120	0.624712	0.590223
Cu17	Cu	1.065131	0.124714	-0.090103
Cu18	Cu	1.565131	0.624714	0.409897
O19	O	1.058106	0.255942	0.076299
O20	O	1.558106	0.755942	0.576299
C21	C	0.900307	0.131089	0.000051
C22	C	1.400307	0.631089	0.500051
C23	C	0.800223	0.129185	0.000045
C24	C	1.300223	0.629185	0.500045
C25	C	0.387692	0.039019	0.000066
C26	C	0.887692	0.539019	0.500066
C27	C	0.366406	0.203252	0.000064
C28	C	0.866406	0.703252	0.500064
C29	C	0.460440	0.205042	0.000061
C30	C	0.960440	0.705042	0.500061
C31	C	0.518104	0.123819	0.000059
C32	C	1.018104	0.623819	0.500059
C33	C	0.481735	0.040806	0.000060
C34	C	0.981735	0.540806	0.500060
C35	C	0.496816	0.288054	0.000050
C36	C	0.996816	0.788054	0.500050
C37	C	0.590855	0.289847	0.000046
C38	C	1.090855	0.789847	0.500046
C39	C	0.648521	0.208623	0.000051
C40	C	1.148521	0.708623	0.500051
C41	C	0.612147	0.125607	0.000053
C42	C	1.112147	0.625607	0.500053
C43	C	0.669811	0.044384	0.000052
C44	C	1.169811	0.544384	0.500052
C45	C	0.633438	-0.038633	0.000061
C46	C	1.133438	0.461367	0.500061
C47	C	0.539401	-0.040418	0.000065
C48	C	1.039401	0.459582	0.500065
C49	C	0.742559	0.210408	0.000046
C50	C	1.242559	0.710408	0.500046
C51	C	0.763854	0.046172	0.000046
C52	C	1.263854	0.546172	0.500046
C53	C	1.071506	-0.040106	0.000060
C54	C	1.571506	0.459894	0.500060
C55	C	1.069605	-0.140190	0.000055
C56	C	1.569605	0.359810	0.500055
C57	C	1.061546	-0.563364	-0.083063
C58	C	1.561546	-0.063364	0.416937
C59	C	1.061536	-0.563361	0.083177
C60	C	1.561536	-0.063361	0.583177
C61	C	1.063329	-0.469328	0.083178
C62	C	1.563329	0.030672	0.583178
C63	C	1.064230	-0.422308	0.000057
C64	C	1.564230	0.077692	0.500057
C65	C	1.063337	-0.469322	-0.083065
C66	C	1.563337	0.030678	0.416935
C67	C	1.064213	-0.422306	0.166299
C68	C	1.564213	0.077694	0.666299
C69	C	1.066005	-0.328267	0.166303
C70	C	1.566005	0.171733	0.666303
C71	C	1.066912	-0.281246	0.083181
C72	C	1.566912	0.218754	0.583181
C73	C	1.066021	-0.328266	0.000055
C74	C	1.566021	0.171734	0.500055
C75	C	1.066921	-0.281246	-0.083066
C76	C	1.566921	0.218754	0.416934
C77	C	1.066036	-0.328265	-0.166192
C78	C	1.566036	0.171735	0.333808
C79	C	1.064244	-0.422301	-0.166187
C80	C	1.564244	0.077699	0.333813
C81	C	1.068704	-0.187210	0.083176
C82	C	1.568704	0.312790	0.583176
C83	C	1.068712	-0.187204	-0.083067
C84	C	1.568712	0.312796	0.416933
C85	C	1.229944	0.118338	0.000068
C86	C	1.729944	0.618338	0.500068
C87	C	1.330028	0.120242	0.000068
C88	C	1.830028	0.620242	0.500068
C89	C	1.058745	0.289532	0.000059
C90	C	1.558745	0.789532	0.500059
C91	C	1.060646	0.389616	0.000058
C92	C	1.560646	0.889616	0.500058
N93	N	1.065118	0.124710	0.217055
N94	N	1.565118	0.624710	0.717055
N95	N	1.065139	0.124710	-0.216935
N96	N	1.565139	0.624710	0.283065
C97	C	1.126353	0.063517	0.452065
C98	C	1.626353	0.563517	0.952065
C99	C	1.126356	0.063515	0.548047
C100	C	1.626356	0.563515	1.048047
C101	C	1.003898	0.185905	0.548048
C102	C	1.503898	0.685905	1.048048
C103	C	1.003892	0.185902	0.452069
C104	C	1.503892	0.685902	0.952069
C105	C	1.065124	0.124709	0.404080
C106	C	1.565124	0.624709	0.904080
C107	C	1.065133	0.124710	0.596041
C108	C	1.565133	0.624710	1.096041
C109	C	1.065136	0.124708	0.700108
C110	C	1.565136	0.624708	1.200108
C111	C	1.065121	0.124710	0.300006
C112	C	1.565121	0.624710	0.800006
H113	H	0.319450	0.269380	0.000057
H114	H	0.819450	0.769380	0.500057
H115	H	1.176213	0.013686	0.587114
H116	H	1.676213	0.513686	1.087114
H117	H	1.063523	-0.460592	-0.233864
H118	H	1.563523	0.039408	0.266136
H119	H	0.620461	0.357445	0.000039
H120	H	1.120461	0.857445	0.500039
H121	H	1.069405	-0.148929	0.150856
H122	H	1.569405	0.351071	0.650856
C123	C	0.499388	-0.131726	0.000066
C124	C	0.999388	0.368274	0.500066
H125	H	0.435125	-0.121155	0.000058
H126	H	0.935125	0.378845	0.500058
H127	H	0.519171	-0.165178	0.053237
H128	H	1.019171	0.334822	0.553237
H129	H	0.519172	-0.165168	-0.053116
H130	H	1.019172	0.334832	0.446884
C131	C	0.347687	-0.052293	0.000072
C132	C	0.847687	0.447707	0.500072
H133	H	0.283423	-0.041730	0.000071
H134	H	0.783423	0.458270	0.500071
H135	H	0.367479	-0.085743	0.053243
H136	H	0.867479	0.414257	0.553243
H137	H	0.367469	-0.085736	-0.053111
H138	H	0.867469	0.414264	0.446889
C139	C	1.066991	-0.276556	0.257736
C140	C	1.566991	0.223444	0.757736
H141	H	1.066205	-0.318029	0.307238
H142	H	1.566205	0.181971	0.807238
H143	H	1.015163	-0.233055	0.261193
H144	H	1.515163	0.266945	0.761193
H145	H	1.120232	-0.246692	0.261189
H146	H	1.620232	0.253308	0.761189
C147	C	0.433387	0.377390	0.000056
C148	C	0.933387	0.877390	0.500056
H149	H	0.372174	0.364434	0.000073
H150	H	0.872174	0.864434	0.500073
H151	H	0.444414	0.411428	-0.053119
H152	H	0.944414	0.911428	0.446881
H153	H	0.444431	0.411420	0.053235
H154	H	0.944431	0.911420	0.553235
H155	H	0.772169	0.277999	0.000041
H156	H	1.272169	0.777999	0.500041
H157	H	0.954028	0.235733	0.412996
H158	H	1.454028	0.735733	0.912996
C159	C	0.827278	-0.043175	0.000040
C160	C	1.327278	0.456825	0.500040
H161	H	0.792145	-0.092868	0.000038
H162	H	1.292145	0.407132	0.500038
H163	H	0.864413	-0.045895	0.053206
H164	H	1.364413	0.454105	0.553206
H165	H	0.864395	-0.045890	-0.053147
H166	H	1.364395	0.454110	0.446853
H167	H	0.680401	-0.104765	0.000053
H168	H	1.180401	0.395235	0.500053
H169	H	1.060829	-0.601651	-0.150743
H170	H	1.560829	-0.101651	0.349257
H171	H	1.069450	-0.148927	-0.150756
H172	H	1.569450	0.351073	0.349244
H173	H	1.066763	-0.289968	-0.233869
H174	H	1.566763	0.210032	0.266131
H175	H	1.060796	-0.601649	0.150851
H176	H	1.560796	-0.101649	0.650851
H177	H	1.063475	-0.460595	0.233971
H178	H	1.563475	0.039405	0.733971
C179	C	1.193698	-0.003800	0.399280
C180	C	1.693698	0.496200	0.899280
H181	H	1.230157	-0.040249	0.441609
H182	H	1.730157	0.459751	0.941609
H183	H	1.231264	0.028693	0.361832
H184	H	1.731264	0.528693	0.861832
H185	H	1.161213	-0.041391	0.361847
H186	H	1.661213	0.458609	0.861847
H187	H	0.954045	0.235728	0.587130
H188	H	1.454045	0.735728	1.087130
