data_functionalizedCrystal
_audit_creation_method	'MofGen! by Chris Wilmer'
_symmetry_space_group_name_H-M	'P1'
_symmetry_Int_Tables_number	1
_symmetry_cell_setting	triclinic
loop_
_symmetry_equiv_pos_as_xyz
  x,y,z
_cell_length_a	21.395362
_cell_length_b	19.120786
_cell_length_c	21.395355
_cell_angle_alpha	92.459295
_cell_angle_beta	90.043940
_cell_angle_gamma	92.480156
loop_
_atom_site_label
_atom_site_type_symbol
_atom_site_fract_x
_atom_site_fract_y
_atom_site_fract_z
Zn1	Zn	0.947248	-0.279415	0.343943
Zn2	Zn	1.197248	-0.029415	0.593943
Zn3	Zn	1.447248	0.220585	0.843943
Zn4	Zn	1.697248	0.470585	1.093943
Zn5	Zn	0.942691	-0.396855	0.234692
Zn6	Zn	1.192691	-0.146855	0.484692
Zn7	Zn	1.442691	0.103145	0.734692
Zn8	Zn	1.692691	0.353145	0.984692
Zn9	Zn	0.842462	-0.279448	0.239143
Zn10	Zn	1.092462	-0.029448	0.489143
Zn11	Zn	1.342462	0.220552	0.739143
Zn12	Zn	1.592462	0.470552	0.989143
Zn13	Zn	0.837972	-0.396870	0.339397
Zn14	Zn	1.087972	-0.146870	0.589397
Zn15	Zn	1.337972	0.103130	0.839397
Zn16	Zn	1.587972	0.353130	1.089397
O17	O	0.892593	-0.338147	0.289294
O18	O	1.142593	-0.088147	0.539294
O19	O	1.392593	0.161853	0.789294
O20	O	1.642593	0.411853	1.039294
O21	O	1.034322	-0.294974	0.329491
O22	O	1.284322	-0.044974	0.579491
O23	O	1.534322	0.205026	0.829491
O24	O	1.784322	0.455026	1.079491
O25	O	0.929367	-0.381289	0.147605
O26	O	1.179367	-0.131289	0.397605
O27	O	1.429367	0.118711	0.647605
O28	O	1.679367	0.368711	0.897605
O29	O	0.860149	-0.181153	0.256810
O30	O	1.110149	0.068847	0.506810
O31	O	1.360149	0.318847	0.756810
O32	O	1.610149	0.568847	1.006810
O33	O	1.030974	-0.381257	0.249225
O34	O	1.280974	-0.131257	0.499225
O35	O	1.530974	0.118743	0.749225
O36	O	1.780974	0.368743	0.999225
O37	O	0.937135	-0.181129	0.333806
O38	O	1.187135	0.068871	0.583806
O39	O	1.437135	0.318871	0.833806
O40	O	1.687135	0.568871	1.083806
O41	O	0.855729	-0.295030	0.150874
O42	O	1.105729	-0.045030	0.400874
O43	O	1.355729	0.204970	0.650874
O44	O	1.605729	0.454970	0.900874
O45	O	0.754188	-0.295044	0.252402
O46	O	1.004188	-0.045044	0.502402
O47	O	1.254188	0.204956	0.752402
O48	O	1.504188	0.454956	1.002402
O49	O	0.852496	-0.381281	0.427678
O50	O	1.102496	-0.131281	0.677678
O51	O	1.352496	0.118719	0.927678
O52	O	1.602496	0.368719	1.177678
O53	O	0.750889	-0.381313	0.326058
O54	O	1.000889	-0.131313	0.576058
O55	O	1.250889	0.118687	0.826058
O56	O	1.500889	0.368687	1.076058
O57	O	0.932781	-0.294988	0.431018
O58	O	1.182781	-0.044988	0.681018
O59	O	1.432781	0.205012	0.931018
O60	O	1.682781	0.455012	1.181018
O61	O	0.925013	-0.495148	0.244816
O62	O	1.175013	-0.245148	0.494816
O63	O	1.425013	0.004852	0.744816
O64	O	1.675013	0.254852	0.994816
O65	O	0.848076	-0.495159	0.321742
O66	O	1.098076	-0.245159	0.571742
O67	O	1.348076	0.004841	0.821742
O68	O	1.598076	0.254841	1.071742
C69	C	0.729804	-0.338184	0.289220
C70	C	0.979804	-0.088184	0.539220
C71	C	1.229804	0.161816	0.789220
C72	C	1.479804	0.411816	1.039220
C73	C	0.660162	-0.338217	0.289202
C74	C	0.910162	-0.088217	0.539202
C75	C	1.160162	0.161783	0.789202
C76	C	1.410162	0.411783	1.039202
C77	C	0.885580	-0.520639	0.282317
C78	C	1.135580	-0.270639	0.532317
C79	C	1.385580	-0.020639	0.782317
C80	C	1.635580	0.229361	1.032317
C81	C	0.882637	-0.598710	0.279353
C82	C	1.132637	-0.348710	0.529353
C83	C	1.382637	-0.098710	0.779353
C84	C	1.632637	0.151290	1.029353
C85	C	0.625745	-0.383197	0.327493
C86	C	0.875745	-0.133197	0.577493
C87	C	1.125745	0.116803	0.827493
C88	C	1.375745	0.366803	1.077493
C89	C	0.560310	-0.383180	0.327521
C90	C	0.810310	-0.133180	0.577521
C91	C	1.060310	0.116820	0.827521
C92	C	1.310310	0.366820	1.077521
C93	C	0.529294	-0.338190	0.289248
C94	C	0.779294	-0.088190	0.539248
C95	C	1.029294	0.161810	0.789248
C96	C	1.279294	0.411810	1.039248
C97	C	0.563719	-0.293201	0.250955
C98	C	0.813719	-0.043201	0.500955
C99	C	1.063719	0.206799	0.750955
C100	C	1.313719	0.456799	1.000955
C101	C	0.629153	-0.293215	0.250932
C102	C	0.879153	-0.043215	0.500932
C103	C	1.129153	0.206785	0.750932
C104	C	1.379153	0.456785	1.000932
C105	C	0.425784	-0.332531	0.233058
C106	C	0.675784	-0.082531	0.483058
C107	C	0.925784	0.167469	0.733058
C108	C	1.175784	0.417469	0.983058
C109	C	0.360352	-0.332523	0.233080
C110	C	0.610352	-0.082523	0.483080
C111	C	0.860352	0.167477	0.733080
C112	C	1.110352	0.417477	0.983080
C113	C	0.327475	-0.338144	0.289319
C114	C	0.577475	-0.088144	0.539319
C115	C	0.827475	0.161856	0.789319
C116	C	1.077475	0.411856	1.039319
C117	C	0.360039	-0.343789	0.345537
C118	C	0.610039	-0.093789	0.595537
C119	C	0.860039	0.156211	0.845537
C120	C	1.110039	0.406211	1.095537
C121	C	0.425473	-0.343802	0.345515
C122	C	0.675473	-0.093802	0.595515
C123	C	0.925473	0.156198	0.845515
C124	C	1.175473	0.406198	1.095515
C125	C	0.458343	-0.338170	0.289269
C126	C	0.708343	-0.088170	0.539269
C127	C	0.958343	0.161830	0.789269
C128	C	1.208343	0.411830	1.039269
C129	C	0.222107	-0.383108	0.327643
C130	C	0.472107	-0.133108	0.577643
C131	C	0.722107	0.116892	0.827643
C132	C	0.972107	0.366892	1.077643
C133	C	0.156671	-0.383086	0.327673
C134	C	0.406671	-0.133086	0.577673
C135	C	0.656671	0.116914	0.827673
C136	C	0.906671	0.366914	1.077673
C137	C	0.160081	-0.293111	0.251101
C138	C	0.410081	-0.043111	0.501101
C139	C	0.660081	0.206889	0.751101
C140	C	0.910081	0.456889	1.001101
C141	C	0.225516	-0.293129	0.251077
C142	C	0.475516	-0.043129	0.501077
C143	C	0.725516	0.206871	0.751077
C144	C	0.975516	0.456871	1.001077
C145	C	0.256525	-0.338131	0.289347
C146	C	0.506525	-0.088131	0.539347
C147	C	0.756525	0.161869	0.789347
C148	C	1.006525	0.411869	1.039347
C149	C	0.921307	-0.635315	0.318080
C150	C	1.171307	-0.385315	0.568080
C151	C	1.421307	-0.135315	0.818080
C152	C	1.671307	0.114685	1.068080
C153	C	0.918539	-0.708671	0.315297
C154	C	1.168539	-0.458671	0.565297
C155	C	1.418539	-0.208671	0.815297
C156	C	1.668539	0.041329	1.065297
C157	C	0.877104	-0.745420	0.273781
C158	C	1.127104	-0.495420	0.523781
C159	C	1.377104	-0.245420	0.773781
C160	C	1.627104	0.004580	1.023781
C161	C	0.838430	-0.708810	0.235052
C162	C	1.088430	-0.458810	0.485052
C163	C	1.338430	-0.208810	0.735052
C164	C	1.588430	0.041190	0.985052
C165	C	0.841195	-0.635456	0.237839
C166	C	1.091195	-0.385456	0.487839
C167	C	1.341195	-0.135456	0.737839
C168	C	1.591195	0.114544	0.987839
C169	C	0.866749	-0.966907	0.263361
C170	C	1.116749	-0.716907	0.513361
C171	C	1.366749	-0.466907	0.763361
C172	C	1.616749	-0.216907	1.013361
C173	C	0.863988	-1.040267	0.260575
C174	C	1.113988	-0.790267	0.510575
C175	C	1.363988	-0.540267	0.760575
C176	C	1.613988	-0.290267	1.010575
C177	C	0.944097	-1.040122	0.340821
C178	C	1.194097	-0.790122	0.590821
C179	C	1.444097	-0.540122	0.840821
C180	C	1.694097	-0.290122	1.090821
C181	C	0.946861	-0.966766	0.343602
C182	C	1.196861	-0.716766	0.593602
C183	C	1.446861	-0.466766	0.843602
C184	C	1.696861	-0.216766	1.093602
C185	C	0.908185	-0.930162	0.304875
C186	C	1.158185	-0.680162	0.554875
C187	C	1.408185	-0.430162	0.804875
C188	C	1.658185	-0.180162	1.054875
C189	C	0.874276	-0.820402	0.270933
C190	C	1.124276	-0.570402	0.520933
C191	C	1.374276	-0.320402	0.770933
C192	C	1.624276	-0.070402	1.020933
C193	C	0.911011	-0.855182	0.307726
C194	C	1.161011	-0.605182	0.557726
C195	C	1.411011	-0.355182	0.807726
C196	C	1.661011	-0.105182	1.057726
C197	C	1.056018	-0.338110	0.289369
C198	C	1.306018	-0.088110	0.539369
C199	C	1.556018	0.161890	0.789369
C200	C	1.806018	0.411890	1.039369
C201	C	1.125660	-0.338094	0.289400
C202	C	1.375660	-0.088094	0.539400
C203	C	1.625660	0.161906	0.789400
C204	C	1.875660	0.411906	1.039400
C205	C	0.892646	-0.338133	0.452718
C206	C	1.142646	-0.088133	0.702718
C207	C	1.392646	0.161867	0.952718
C208	C	1.642646	0.411867	1.202718
C209	C	0.892668	-0.338127	0.522359
C210	C	1.142668	-0.088127	0.772359
C211	C	1.392668	0.161873	1.022359
C212	C	1.642668	0.411873	1.272359
C213	C	0.899651	-0.154942	0.296312
C214	C	1.149651	0.095058	0.546312
C215	C	1.399651	0.345058	0.796312
C216	C	1.649651	0.595058	1.046312
C217	C	0.902658	-0.076871	0.299303
C218	C	1.152658	0.173129	0.549303
C219	C	1.402658	0.423129	0.799303
C220	C	1.652658	0.673129	1.049303
C221	C	0.892579	-0.338110	0.126508
C222	C	1.142579	-0.088110	0.376508
C223	C	1.392579	0.161890	0.626508
C224	C	1.642579	0.411890	0.876508
C225	C	0.892685	-0.337919	0.056874
C226	C	1.142685	-0.087919	0.306874
C227	C	1.392685	0.162081	0.556874
C228	C	1.642685	0.412081	0.806874
C229	C	0.934471	-0.293192	0.556813
C230	C	1.184471	-0.043192	0.806813
C231	C	1.434471	0.206808	1.056813
C232	C	1.684471	0.456808	1.306813
C233	C	0.934471	-0.293162	0.622249
C234	C	1.184471	-0.043162	0.872249
C235	C	1.434471	0.206838	1.122249
C236	C	1.684471	0.456838	1.372249
C237	C	0.892675	-0.338079	0.653229
C238	C	1.142675	-0.088079	0.903229
C239	C	1.392675	0.161921	1.153229
C240	C	1.642675	0.411921	1.403229
C241	C	0.850864	-0.383017	0.618768
C242	C	1.100864	-0.133017	0.868768
C243	C	1.350864	0.116983	1.118768
C244	C	1.600864	0.366983	1.368768
C245	C	0.850861	-0.383041	0.553333
C246	C	1.100861	-0.133041	0.803333
C247	C	1.350861	0.116959	1.053333
C248	C	1.600861	0.366959	1.303333
C249	C	0.885297	-0.401324	0.754484
C250	C	1.135297	-0.151324	1.004484
C251	C	1.385297	0.098676	1.254484
C252	C	1.635297	0.348676	1.504484
C253	C	0.885305	-0.401302	0.819918
C254	C	1.135305	-0.151302	1.069918
C255	C	1.385305	0.098698	1.319918
C256	C	1.635305	0.348698	1.569918
C257	C	0.892681	-0.338005	0.855053
C258	C	1.142681	-0.088005	1.105053
C259	C	1.392681	0.161995	1.355053
C260	C	1.642681	0.411995	1.605053
C261	C	0.900064	-0.274728	0.824746
C262	C	1.150064	-0.024728	1.074746
C263	C	1.400064	0.225272	1.324746
C264	C	1.650064	0.475272	1.574746
C265	C	0.900060	-0.274752	0.759311
C266	C	1.150060	-0.024752	1.009311
C267	C	1.400060	0.225248	1.259311
C268	C	1.650060	0.475248	1.509311
C269	C	0.892673	-0.338058	0.724183
C270	C	1.142673	-0.088058	0.974183
C271	C	1.392673	0.161942	1.224183
C272	C	1.642673	0.411942	1.474183
C273	C	0.934487	-0.293033	0.960461
C274	C	1.184487	-0.043033	1.210461
C275	C	1.434487	0.206967	1.460461
C276	C	1.684487	0.456967	1.710461
C277	C	0.934483	-0.293002	1.025898
C278	C	1.184483	-0.043002	1.275898
C279	C	1.434483	0.206998	1.525898
C280	C	1.684483	0.456998	1.775898
C281	C	0.850879	-0.382863	1.022416
C282	C	1.100879	-0.132863	1.272416
C283	C	1.350879	0.117137	1.522416
C284	C	1.600879	0.367137	1.772416
C285	C	0.850880	-0.382888	0.956979
C286	C	1.100880	-0.132888	1.206979
C287	C	1.350880	0.117112	1.456979
C288	C	1.600880	0.367112	1.706979
C289	C	0.892687	-0.337974	0.926006
C290	C	1.142687	-0.087974	1.176006
C291	C	1.392687	0.162026	1.426006
C292	C	1.642687	0.412026	1.676006
H293	H	0.532283	-0.419808	0.358704
H294	H	0.782283	-0.169808	0.608704
H295	H	1.032283	0.080192	0.858704
H296	H	1.282283	0.330192	1.108704
O297	O	0.119541	-0.431695	0.368887
O298	O	0.369541	-0.181695	0.618887
O299	O	0.619541	0.068305	0.868887
O300	O	0.869541	0.318305	1.118887
H301	H	0.152098	-0.463026	0.395457
H302	H	0.402098	-0.213026	0.645457
H303	H	0.652098	0.036974	0.895457
H304	H	0.902098	0.286974	1.145457
H305	H	0.247355	-0.419748	0.358808
H306	H	0.497355	-0.169748	0.608808
H307	H	0.747355	0.080252	0.858808
H308	H	0.997355	0.330252	1.108808
H309	H	0.944745	-0.825259	0.341530
H310	H	1.194745	-0.575259	0.591530
H311	H	1.444745	-0.325259	0.841530
H312	H	1.694745	-0.075259	1.091530
O313	O	0.666282	-0.244702	0.209630
O314	O	0.916282	0.005298	0.459630
O315	O	1.166282	0.255298	0.709630
O316	O	1.416282	0.505298	0.959630
H317	H	0.694839	-0.276099	0.176502
H318	H	0.944839	-0.026099	0.426502
H319	H	1.194839	0.223901	0.676502
H320	H	1.444839	0.473901	0.926502
H321	H	0.980601	-0.936846	0.377407
H322	H	1.230601	-0.686846	0.627407
H323	H	1.480601	-0.436846	0.877407
H324	H	1.730601	-0.186846	1.127407
H325	H	0.879297	-0.452825	0.844589
H326	H	1.129297	-0.202825	1.094589
H327	H	1.379297	0.047175	1.344589
H328	H	1.629297	0.297175	1.594589
O329	O	0.979561	-0.244748	0.523408
O330	O	1.229561	0.005252	0.773408
O331	O	1.479561	0.255252	1.023408
O332	O	1.729561	0.505252	1.273408
H333	H	0.952897	-0.209029	0.494933
H334	H	1.202897	0.040971	0.744933
H335	H	1.452897	0.290971	0.994933
H336	H	1.702897	0.540971	1.244933
O337	O	0.985802	-1.079599	0.382599
O338	O	1.235802	-0.829599	0.632599
O339	O	1.485802	-0.579599	0.882599
O340	O	1.735802	-0.329599	1.132599
H341	H	0.976915	-1.136781	0.373694
H342	H	1.226915	-0.886781	0.623694
H343	H	1.476915	-0.636781	0.873694
H344	H	1.726915	-0.386781	1.123694
H345	H	0.809705	-0.605652	0.206304
H346	H	1.059705	-0.355652	0.456304
H347	H	1.309705	-0.105652	0.706304
H348	H	1.559705	0.144348	0.956304
H349	H	0.650988	-0.419840	0.358656
H350	H	0.900988	-0.169840	0.608656
H351	H	1.150988	0.080160	0.858656
H352	H	1.400988	0.330160	1.108656
H353	H	0.955051	-0.605398	0.351884
H354	H	1.205051	-0.355398	0.601884
H355	H	1.455051	-0.105398	0.851884
H356	H	1.705051	0.144602	1.101884
H357	H	0.968523	-0.256406	1.053950
H358	H	1.218523	-0.006406	1.303950
H359	H	1.468523	0.243594	1.553950
H360	H	1.718523	0.493594	1.803950
O361	O	0.126640	-0.244581	0.209821
O362	O	0.376640	0.005419	0.459821
O363	O	0.626640	0.255419	0.709821
O364	O	0.876640	0.505419	0.959821
H365	H	0.138684	-0.256546	0.160168
H366	H	0.388684	-0.006546	0.410168
H367	H	0.638684	0.243454	0.660168
H368	H	0.888684	0.493454	0.910168
O369	O	0.530276	-0.244674	0.209671
O370	O	0.780276	0.005326	0.459671
O371	O	1.030276	0.255326	0.709671
O372	O	1.280276	0.505326	0.959671
H373	H	0.542327	-0.256640	0.160020
H374	H	0.792327	-0.006640	0.410020
H375	H	1.042327	0.243360	0.660020
H376	H	1.292327	0.493360	0.910020
O377	O	0.805797	-0.431308	1.055825
O378	O	1.055797	-0.181308	1.305825
O379	O	1.305797	0.068692	1.555825
O380	O	1.555797	0.318692	1.805825
H381	H	0.757087	-0.419270	1.043691
H382	H	1.007087	-0.169270	1.293691
H383	H	1.257087	0.080730	1.543691
H384	H	1.507087	0.330730	1.793691
H385	H	0.950033	-0.738471	0.346828
H386	H	1.200033	-0.488471	0.596828
H387	H	1.450033	-0.238471	0.846828
H388	H	1.700033	0.011529	1.096828
H389	H	0.840541	-0.850331	0.237130
H390	H	1.090541	-0.600331	0.487130
H391	H	1.340541	-0.350331	0.737130
H392	H	1.590541	-0.100331	0.987130
O393	O	0.819291	-1.079908	0.215801
O394	O	1.069291	-0.829908	0.465801
O395	O	1.319291	-0.579908	0.715801
O396	O	1.569291	-0.329908	0.965801
H397	H	0.792856	-1.042132	0.189344
H398	H	1.042856	-0.792132	0.439344
H399	H	1.292856	-0.542132	0.689344
H400	H	1.542856	-0.292132	0.939344
O401	O	0.825049	-0.927430	0.221581
O402	O	1.075049	-0.677430	0.471581
O403	O	1.325049	-0.427430	0.721581
O404	O	1.575049	-0.177430	0.971581
H405	H	0.795782	-0.965311	0.192237
H406	H	1.045782	-0.715311	0.442237
H407	H	1.295782	-0.465311	0.692237
H408	H	1.545782	-0.215311	0.942237
O409	O	0.805796	-0.431351	0.919805
O410	O	1.055796	-0.181351	1.169805
O411	O	1.305796	0.068649	1.419805
O412	O	1.555796	0.318649	1.669805
H413	H	0.775134	-0.399917	0.891174
H414	H	1.025134	-0.149917	1.141174
H415	H	1.275134	0.100083	1.391174
H416	H	1.525134	0.350083	1.641174
O417	O	0.908016	-0.206509	0.726623
O418	O	1.158016	0.043491	0.976623
O419	O	1.408016	0.293491	1.226623
O420	O	1.658016	0.543491	1.476623
H421	H	0.950420	-0.207624	0.696804
H422	H	1.200420	0.042376	0.946804
H423	H	1.450420	0.292376	1.196804
H424	H	1.700420	0.542376	1.446804
H425	H	0.968525	-0.256457	0.935241
H426	H	1.218525	-0.006457	1.185241
H427	H	1.468525	0.243543	1.435241
H428	H	1.718525	0.493543	1.685241
H429	H	0.451983	-0.348396	0.391290
H430	H	0.701983	-0.098396	0.641290
H431	H	0.951983	0.151604	0.891290
H432	H	1.201983	0.401604	1.141290
O433	O	0.324592	-0.349846	0.406203
O434	O	0.574592	-0.099846	0.656203
O435	O	0.824592	0.150154	0.906203
O436	O	1.074592	0.400154	1.156203
H437	H	0.273621	-0.348878	0.396779
H438	H	0.523621	-0.098878	0.646779
H439	H	0.773621	0.151122	0.896779
H440	H	1.023621	0.401122	1.146779
H441	H	0.253538	-0.256505	0.219894
H442	H	0.503538	-0.006505	0.469894
H443	H	0.753538	0.243495	0.719894
H444	H	1.003538	0.493495	0.969894
H445	H	0.879123	-0.452855	0.725883
H446	H	1.129123	-0.202855	0.975883
H447	H	1.379123	0.047145	1.225883
H448	H	1.629123	0.297145	1.475883
O449	O	0.805781	-0.431463	0.652176
O450	O	1.055781	-0.181463	0.902176
O451	O	1.305781	0.068537	1.152176
O452	O	1.555781	0.318537	1.402176
H453	H	0.812809	-0.423902	0.703466
H454	H	1.062809	-0.173902	0.953466
H455	H	1.312809	0.076098	1.203466
H456	H	1.562809	0.326098	1.453466
O457	O	0.325230	-0.326431	0.172449
O458	O	0.575230	-0.076431	0.422449
O459	O	0.825230	0.173569	0.672449
O460	O	1.075230	0.423569	0.922449
H461	H	0.359083	-0.322509	0.133340
H462	H	0.609083	-0.072509	0.383340
H463	H	0.859083	0.177491	0.633340
H464	H	1.109083	0.427491	0.883340
O465	O	0.461243	-0.326470	0.172397
O466	O	0.711243	-0.076470	0.422397
O467	O	0.961243	0.173530	0.672397
O468	O	1.211243	0.423530	0.922397
H469	H	0.427608	-0.322555	0.133309
H470	H	0.677608	-0.072555	0.383309
H471	H	0.927608	0.177445	0.633309
H472	H	1.177608	0.427445	0.883309
H473	H	0.804690	-0.738737	0.201252
H474	H	1.054690	-0.488737	0.451252
H475	H	1.304690	-0.238737	0.701252
H476	H	1.554690	0.011263	0.951252
O477	O	0.979565	-0.244701	0.659422
O478	O	1.229565	0.005299	0.909422
O479	O	1.479565	0.255299	1.159422
O480	O	1.729565	0.505299	1.409422
H481	H	1.008638	-0.213478	0.626891
H482	H	1.258638	0.036522	0.876891
H483	H	1.508638	0.286522	1.126891
H484	H	1.758638	0.536522	1.376891
O485	O	0.908004	-0.206448	0.862630
O486	O	1.158004	0.043552	1.112630
O487	O	1.408004	0.293552	1.362630
O488	O	1.658004	0.543552	1.612630
H489	H	0.906753	-0.217057	0.913223
H490	H	1.156753	0.032943	1.163223
H491	H	1.406753	0.282943	1.413223
H492	H	1.656753	0.532943	1.663223
H493	H	0.816817	-0.419631	0.525281
H494	H	1.066817	-0.169631	0.775281
H495	H	1.316817	0.080369	1.025281
H496	H	1.566817	0.330369	1.275281
