data_functionalizedCrystal
_audit_creation_method	'MofGen! by Chris Wilmer'
_symmetry_space_group_name_H-M	'P1'
_symmetry_Int_Tables_number	1
_symmetry_cell_setting	triclinic
loop_
_symmetry_equiv_pos_as_xyz
  x,y,z
_cell_length_a	8.559649
_cell_length_b	8.559648
_cell_length_c	8.140239
_cell_angle_alpha	90.008289
_cell_angle_beta	90.002894
_cell_angle_gamma	110.221336
loop_
_atom_site_label
_atom_site_type_symbol
_atom_site_fract_x
_atom_site_fract_y
_atom_site_fract_z
O1	O	2.126878	0.055037	0.136618
O2	O	1.651393	-0.028744	0.136604
O3	O	1.931026	0.250889	0.136653
O4	O	1.847245	-0.224596	0.136570
O5	O	1.931013	0.250890	-0.136574
O6	O	1.651380	-0.028743	-0.136623
O7	O	2.126864	0.055038	-0.136609
Zn8	Zn	1.889120	0.013148	-0.179997
Zn9	Zn	1.889138	0.013146	0.179992
O10	O	1.847231	-0.224595	-0.136658
C11	C	1.591077	-0.035093	-0.000010
C12	C	1.411378	-0.053992	-0.000013
C13	C	1.937369	0.311198	0.000053
C14	C	1.956268	0.490898	0.000095
C15	C	2.187180	0.061387	0.000009
C16	C	2.366879	0.080286	0.000022
N17	N	1.889120	0.013151	-0.425679
C18	C	1.840889	0.715096	-0.000009
C19	C	1.821990	0.535396	0.000097
N20	N	1.889152	0.013157	0.425674
H21	H	1.466268	0.209714	0.000045
H22	H	2.085696	0.590286	0.000100
O23	O	1.292619	-0.208273	-0.000097
C24	C	1.133619	-0.193433	-0.000025
H25	H	1.142918	-0.066762	-0.051728
H26	H	1.045402	-0.296013	-0.079354
H27	H	1.083964	-0.205524	0.131063
O28	O	1.667709	0.416637	0.000157
C29	C	1.682549	0.257637	0.000098
H30	H	1.809225	0.266951	0.051825
H31	H	1.579977	0.169443	0.079413
H32	H	1.670443	0.207945	-0.130989
