data_functionalizedCrystal
_audit_creation_method	'MofGen! by Chris Wilmer'
_symmetry_space_group_name_H-M	'P1'
_symmetry_Int_Tables_number	1
_symmetry_cell_setting	triclinic
loop_
_symmetry_equiv_pos_as_xyz
  x,y,z
_cell_length_a	19.805407
_cell_length_b	12.759400
_cell_length_c	19.805399
_cell_angle_alpha	90.022119
_cell_angle_beta	90.019573
_cell_angle_gamma	90.013166
loop_
_atom_site_label
_atom_site_type_symbol
_atom_site_fract_x
_atom_site_fract_y
_atom_site_fract_z
Zn1	Zn	1.034798	-0.418291	0.382745
Zn2	Zn	1.034739	-0.593984	0.269568
Zn3	Zn	0.921613	-0.418320	0.269570
Zn4	Zn	0.921602	-0.593928	0.382715
O5	O	0.978188	-0.506131	0.326149
O6	O	1.129507	-0.441608	0.367744
O7	O	1.019712	-0.570717	0.174852
O8	O	0.936656	-0.271295	0.284597
O9	O	1.129463	-0.570689	0.284593
O10	O	1.019813	-0.271273	0.367746
O11	O	0.936599	-0.441657	0.174853
O12	O	0.826895	-0.441603	0.284567
O13	O	0.936638	-0.570594	0.477435
O14	O	0.826887	-0.570622	0.367694
O15	O	1.019803	-0.441554	0.477458
O16	O	1.019702	-0.740998	0.284563
O17	O	0.936581	-0.740957	0.367692
C18	C	0.802332	-0.506110	0.326128
C19	C	0.727100	-0.506127	0.326134
C20	C	0.691770	-0.573408	0.369348
C21	C	0.621081	-0.573410	0.369358
C22	C	0.585724	-0.506135	0.326149
C23	C	0.621060	-0.438847	0.282933
C24	C	0.691747	-0.438840	0.282928
C25	C	0.335986	-0.438870	0.282956
C26	C	0.265294	-0.438884	0.282963
C27	C	0.265321	-0.573440	0.369386
C28	C	0.336008	-0.573433	0.369380
C29	C	0.371337	-0.506141	0.326167
C30	C	0.447985	-0.506139	0.326158
C31	C	0.509077	-0.506142	0.326154
C32	C	0.978152	-0.779098	0.326139
C33	C	0.978199	-0.895875	0.326157
C34	C	1.021477	-0.950646	0.369488
C35	C	1.021509	-1.060370	0.369505
C36	C	0.934982	-1.060542	0.282853
C37	C	0.934948	-0.950820	0.282840
C38	C	1.064729	-0.895701	0.412805
C39	C	1.108011	-0.950472	0.456139
C40	C	1.108042	-1.060196	0.456156
C41	C	1.064792	-1.115149	0.412838
C42	C	1.154731	-0.506152	0.326172
C43	C	1.229963	-0.506160	0.326181
C44	C	0.978226	-0.506064	0.502692
C45	C	0.978242	-0.506036	0.577924
C46	C	0.978242	-0.232097	0.326175
C47	C	0.978265	-0.115321	0.326186
C48	C	0.978189	-0.506121	0.150293
C49	C	0.978304	-0.505853	0.075062
C50	C	1.021547	-0.438842	0.613281
C51	C	1.021554	-0.438811	0.683970
C52	C	0.978259	-0.505981	0.719300
C53	C	0.934949	-0.573179	0.683938
C54	C	0.934940	-0.573203	0.613251
C55	C	0.934988	-0.573081	0.969011
C56	C	0.935002	-0.573054	1.039704
C57	C	1.021602	-0.438689	1.039730
C58	C	1.021592	-0.438713	0.969043
C59	C	0.978280	-0.505906	0.933687
C60	C	0.978272	-0.505937	0.857039
C61	C	0.978270	-0.505957	0.795947
H62	H	0.236547	-0.628228	0.404575
O63	O	1.149998	-0.896934	0.498154
C64	C	1.140680	-0.788345	0.488862
H65	H	1.118539	-0.773431	0.436604
H66	H	1.191365	-0.746587	0.493494
H67	H	1.104604	-0.757208	0.528972
H68	H	0.364743	-0.384085	0.247764
H69	H	1.056866	-0.383973	1.068526
O70	O	1.064921	-1.221735	0.412925
C71	C	1.112376	-1.258298	0.460478
H72	H	1.151902	-1.195023	0.469980
H73	H	1.138087	-1.331704	0.440094
H74	H	1.085512	-1.277734	0.509811
H75	H	0.899706	-0.906225	0.247556
O76	O	0.726082	-0.638648	0.411419
C77	C	0.708826	-0.615839	0.478903
H78	H	0.689406	-0.531916	0.482412
H79	H	0.755325	-0.624952	0.512330
H80	H	0.667796	-0.672205	0.496538
O81	O	0.892942	-1.114035	0.240867
C82	C	0.849212	-1.177500	0.279369
H83	H	0.873059	-1.193864	0.330687
H84	H	0.840184	-1.254691	0.251800
H85	H	0.799035	-1.135266	0.286754
O86	O	0.892876	-0.638335	1.073920
C87	C	0.854656	-0.697664	1.027557
H88	H	0.852312	-0.654651	0.977172
H89	H	0.801329	-0.708849	1.047974
H90	H	0.879419	-0.777467	1.020036
H91	H	1.056805	-0.384147	0.584520
H92	H	0.236509	-0.384094	0.247778
O93	O	1.150145	-1.113240	0.498272
C94	C	1.188296	-1.041211	0.536512
H95	H	1.190631	-0.963021	0.508779
H96	H	1.241630	-1.072848	0.543785
H97	H	1.163478	-1.029519	0.587894
O98	O	1.063549	-0.373398	0.934655
C99	C	1.025009	-0.305536	0.893787
H100	H	0.973712	-0.342603	0.883180
H101	H	1.052572	-0.291454	0.844087
H102	H	1.017581	-0.227677	0.921044
H103	H	0.592318	-0.628198	0.404547
H104	H	1.056818	-0.384097	0.712754
H105	H	0.899731	-0.627809	0.940233
H106	H	0.899696	-0.627866	0.712709
H107	H	0.899670	-0.627909	0.584464
H108	H	0.720512	-0.384048	0.247742
O109	O	0.370248	-0.638817	0.411417
C110	C	0.323906	-0.698221	0.449551
H111	H	0.273522	-0.655200	0.451946
H112	H	0.344351	-0.709531	0.502866
H113	H	0.316370	-0.777966	0.424680
H114	H	1.064709	-0.806358	0.412795
O115	O	0.586612	-0.373588	0.240985
C116	C	0.516645	-0.388000	0.250268
H117	H	0.506990	-0.469129	0.272343
H118	H	0.489759	-0.380765	0.199580
H119	H	0.496609	-0.325763	0.286386
