data_functionalizedCrystal
_audit_creation_method	'MofGen! by Chris Wilmer'
_symmetry_space_group_name_H-M	'P1'
_symmetry_Int_Tables_number	1
_symmetry_cell_setting	triclinic
loop_
_symmetry_equiv_pos_as_xyz
  x,y,z
_cell_length_a	19.077105
_cell_length_b	16.625546
_cell_length_c	19.076919
_cell_angle_alpha	87.730083
_cell_angle_beta	89.923776
_cell_angle_gamma	87.718759
loop_
_atom_site_label
_atom_site_type_symbol
_atom_site_fract_x
_atom_site_fract_y
_atom_site_fract_z
Zn1	Zn	1.058283	-0.390077	0.440407
Zn2	Zn	1.062927	-0.519720	0.322896
Zn3	Zn	0.945500	-0.379275	0.318200
Zn4	Zn	0.940748	-0.519234	0.435649
O5	O	1.001864	-0.452076	0.379288
O6	O	1.157231	-0.411998	0.428775
O7	O	1.051282	-0.496773	0.223942
O8	O	0.960506	-0.267879	0.334437
O9	O	1.160642	-0.507246	0.342441
O10	O	1.043367	-0.275815	0.424222
O11	O	0.965009	-0.393589	0.220492
O12	O	0.846538	-0.393117	0.329824
O13	O	0.952407	-0.506418	0.534611
O14	O	0.843047	-0.495944	0.416113
O15	O	1.038759	-0.411527	0.538107
O16	O	1.046674	-0.632485	0.337827
O17	O	0.956910	-0.632127	0.420666
C18	C	0.819296	-0.443306	0.371943
C19	C	0.741192	-0.439575	0.368817
C20	C	0.702702	-0.491432	0.412204
C21	C	0.629314	-0.487916	0.409270
C22	C	0.594418	-0.432544	0.362946
C23	C	0.632913	-0.380681	0.319557
C24	C	0.706299	-0.384194	0.322495
C25	C	0.375130	-0.416284	0.349354
C26	C	0.301739	-0.412776	0.346418
C27	C	0.298145	-0.520010	0.436133
C28	C	0.371533	-0.523522	0.439063
C29	C	0.410021	-0.471655	0.395677
N30	N	0.519405	-0.428950	0.359945
N31	N	0.485034	-0.475247	0.398682
C32	C	1.001799	-0.661563	0.379256
C33	C	1.001834	-0.751186	0.379268
C34	C	1.001954	-1.079371	0.379346
C35	C	1.001918	-0.988060	0.379327
C36	C	1.001894	-0.915281	0.379307
C37	C	1.001859	-0.823965	0.379288
C38	C	1.185146	-0.460881	0.386662
C39	C	1.263249	-0.464634	0.389805
C40	C	0.994535	-0.460123	0.562568
C41	C	0.991412	-0.463552	0.640671
C42	C	1.001948	-0.241774	0.379336
C43	C	1.001984	-0.152155	0.379357
C44	C	1.009205	-0.444005	0.196723
C45	C	1.012465	-0.440356	0.118626
C46	C	1.034901	-0.415760	0.679185
C47	C	1.031958	-0.418978	0.752571
C48	C	0.985529	-0.469993	0.787441
C49	C	0.942035	-0.517786	0.748922
C50	C	0.944975	-0.514563	0.675537
C51	C	0.971911	-0.484926	1.006722
C52	C	0.968976	-0.488147	1.080112
C53	C	1.058898	-0.389338	1.083755
C54	C	1.061837	-0.386123	1.010369
C55	C	1.018341	-0.433913	0.971856
N56	N	0.982521	-0.473286	0.862453
N57	N	1.021346	-0.430616	0.896846
H58	H	0.406459	-0.374056	0.314021
C59	C	0.255807	-0.577053	0.483861
C60	C	0.175085	-0.573191	0.480637
C61	C	0.132747	-0.630234	0.528371
C62	C	0.171130	-0.691139	0.579329
C63	C	0.251857	-0.695003	0.582554
C64	C	0.294195	-0.637960	0.534821
H65	H	0.146667	-0.528104	0.442914
H66	H	0.072987	-0.627374	0.525983
H67	H	0.139789	-0.733366	0.614664
H68	H	0.280275	-0.740090	0.620278
H69	H	0.353954	-0.640821	0.537209
H70	H	0.904228	-0.559320	0.777319
C71	C	1.079802	-0.366409	0.794933
C72	C	1.132933	-0.406213	0.847600
C73	C	1.180779	-0.353639	0.889960
C74	C	1.175494	-0.261262	0.879654
C75	C	1.122361	-0.221453	0.826985
C76	C	1.074515	-0.274026	0.784624
H77	H	1.136847	-0.474600	0.855231
H78	H	1.220112	-0.383109	0.928949
H79	H	1.210913	-0.222343	0.911011
H80	H	1.118447	-0.153065	0.819353
H81	H	1.035182	-0.244556	0.745635
H82	H	0.909554	-0.553472	0.644180
H83	H	1.099647	-0.344584	0.981983
C84	C	0.263352	-0.351861	0.295460
C85	C	0.182630	-0.348005	0.292226
C86	C	0.144243	-0.287096	0.241269
C87	C	0.186576	-0.230044	0.193546
C88	C	0.267302	-0.233898	0.196779
C89	C	0.305690	-0.294807	0.247735
H90	H	0.151288	-0.390240	0.327555
H91	H	0.084484	-0.284243	0.238877
H92	H	0.158159	-0.184955	0.155825
H93	H	0.298645	-0.191663	0.161450
H94	H	0.365449	-0.297660	0.250128
C95	C	0.594530	-0.319771	0.268599
C96	C	0.513809	-0.315907	0.265361
C97	C	0.475428	-0.254998	0.214400
C98	C	0.517768	-0.197954	0.166676
C99	C	0.598494	-0.201816	0.169911
C100	C	0.636875	-0.262725	0.220873
H101	H	0.482462	-0.358136	0.300691
H102	H	0.415669	-0.252139	0.212005
H103	H	0.489356	-0.152866	0.128951
H104	H	0.629841	-0.159587	0.134582
H105	H	0.696634	-0.265584	0.223268
H106	H	0.737637	-0.341962	0.287168
C107	C	1.085975	-0.359642	0.640830
C108	C	1.079870	-0.268151	0.650711
C109	C	1.130943	-0.212029	0.612359
C110	C	1.188121	-0.247399	0.564125
C111	C	1.194228	-0.338896	0.554243
C112	C	1.143155	-0.395017	0.592595
H113	H	1.037542	-0.241963	0.686418
H114	H	1.126422	-0.144297	0.619675
H115	H	1.225928	-0.205855	0.535735
H116	H	1.236556	-0.365083	0.518536
H117	H	1.147676	-0.462749	0.585279
H118	H	0.399940	-0.568613	0.476784
H119	H	1.094310	-0.350429	1.115120
H120	H	0.936503	-0.523853	0.975374
C121	C	0.741084	-0.552343	0.463162
C122	C	0.731199	-0.643252	0.456882
C123	C	0.769579	-0.704162	0.507844
C124	C	0.817845	-0.674162	0.565085
C125	C	0.827732	-0.583248	0.571368
C126	C	0.789352	-0.522339	0.520406
H127	H	0.695468	-0.665463	0.414507
H128	H	0.762259	-0.771462	0.503193
H129	H	0.846256	-0.719251	0.602810
H130	H	0.863463	-0.561037	0.613743
H131	H	0.796671	-0.455038	0.525057
C132	C	0.586978	-0.544964	0.456997
C133	C	0.597277	-0.636839	0.451515
C134	C	0.554943	-0.693890	0.499245
C135	C	0.502310	-0.659067	0.552456
C136	C	0.492009	-0.567187	0.557940
C137	C	0.534343	-0.510136	0.510211
H138	H	0.636241	-0.662621	0.412122
H139	H	0.562568	-0.761905	0.495185
H140	H	0.470972	-0.701299	0.587789
H141	H	0.453045	-0.541405	0.597333
H142	H	0.526718	-0.442121	0.514270
C143	C	0.917922	-0.544293	1.118472
C144	C	0.870094	-0.596881	1.076112
C145	C	0.819056	-0.653039	1.114473
C146	C	0.815847	-0.656608	1.195194
C147	C	0.863677	-0.604018	1.237559
C148	C	0.914714	-0.547861	1.199198
H149	H	0.872468	-0.594241	1.016353
H150	H	0.783649	-0.691970	1.083112
H151	H	0.778066	-0.698180	1.223592
H152	H	0.861303	-0.606659	1.297318
H153	H	0.950121	-0.508930	1.230559
