data_functionalizedCrystal
_audit_creation_method	'MofGen! by Chris Wilmer'
_symmetry_space_group_name_H-M	'P1'
_symmetry_Int_Tables_number	1
_symmetry_cell_setting	triclinic
loop_
_symmetry_equiv_pos_as_xyz
  x,y,z
_cell_length_a	29.839131
_cell_length_b	29.839135
_cell_length_c	16.959447
_cell_angle_alpha	89.981319
_cell_angle_beta	89.966085
_cell_angle_gamma	90.043950
loop_
_atom_site_label
_atom_site_type_symbol
_atom_site_fract_x
_atom_site_fract_y
_atom_site_fract_z
Zn1	Zn	-0.178814	0.686734	-0.446981
Zn2	Zn	-0.253947	0.686662	-0.314794
Zn3	Zn	-0.178836	0.611612	-0.314808
Zn4	Zn	-0.253921	0.611564	-0.446923
O5	O	-0.216380	0.649143	-0.380876
O6	O	-0.188783	0.749591	-0.429464
O7	O	-0.244004	0.676696	-0.204185
O8	O	-0.115966	0.621628	-0.332372
O9	O	-0.243983	0.749538	-0.332347
O10	O	-0.115950	0.676819	-0.429478
O11	O	-0.188819	0.621558	-0.204196
O12	O	-0.188794	0.548739	-0.332315
O13	O	-0.243938	0.621546	-0.557541
O14	O	-0.243959	0.548704	-0.429379
O15	O	-0.188757	0.676772	-0.557584
O16	O	-0.316811	0.676650	-0.332291
O17	O	-0.316792	0.621476	-0.429365
C18	C	-0.216376	0.532421	-0.380843
C19	C	-0.216385	0.482486	-0.380847
C20	C	-0.187680	0.172867	-0.431520
C21	C	-0.187683	-0.014806	-0.431542
O22	O	-0.163267	-0.039050	-0.474589
N23	N	-0.216380	-0.038299	-0.380905
C24	C	-0.245076	-0.014871	-0.330256
O25	O	-0.269481	-0.039160	-0.287181
C26	C	-0.245070	0.172801	-0.330230
C27	C	-0.216375	0.196292	-0.380876
C28	C	-0.158987	0.196358	-0.482161
C29	C	-0.158988	0.243274	-0.482158
C30	C	-0.187683	0.266698	-0.431514
C31	C	-0.216376	0.243207	-0.380873
C32	C	-0.273763	0.196228	-0.279577
C33	C	-0.273758	0.243149	-0.279573
C34	C	-0.245063	0.266640	-0.330219
C35	C	-0.245072	0.313547	-0.330225
N36	N	-0.216375	0.337041	-0.380862
C37	C	-0.187681	0.313616	-0.431506
C38	C	-0.245077	-0.113402	-0.330274
C39	C	-0.245079	-0.160320	-0.330281
C40	C	-0.187686	-0.160251	-0.431567
C41	C	-0.187687	-0.113332	-0.431563
C42	C	-0.216381	-0.089908	-0.380911
C43	C	-0.187686	0.412142	-0.431496
C44	C	-0.187691	0.459061	-0.431491
C45	C	-0.245082	0.458989	-0.330203
C46	C	-0.245079	0.412073	-0.330211
C47	C	-0.216377	0.388651	-0.380860
O48	O	-0.269472	0.337820	-0.287195
O49	O	-0.163272	0.337913	-0.474563
C50	C	-0.187679	0.125952	-0.431523
C51	C	-0.216372	0.102461	-0.380882
C52	C	-0.245067	0.125886	-0.330238
C53	C	-0.216374	0.055543	-0.380889
C54	C	-0.187680	0.032119	-0.431533
C55	C	-0.158983	0.055612	-0.482170
C56	C	-0.158985	0.102527	-0.482167
C57	C	-0.273763	0.102392	-0.279601
C58	C	-0.273760	0.055477	-0.279609
C59	C	-0.245066	0.032052	-0.330253
C60	C	-0.333102	0.649062	-0.380837
C61	C	-0.383037	0.649068	-0.380847
C62	C	-0.692677	0.677924	-0.330404
C63	C	-0.880350	0.677980	-0.330434
O64	O	-0.904613	0.702450	-0.287516
N65	N	-0.903822	0.649236	-0.380936
C66	C	-0.880372	0.620479	-0.431437
O67	O	-0.904642	0.596035	-0.474399
C68	C	-0.692700	0.620426	-0.431410
C69	C	-0.669231	0.649168	-0.380899
C70	C	-0.669208	0.706664	-0.279898
C71	C	-0.622293	0.706649	-0.279888
C72	C	-0.598846	0.677893	-0.330383
C73	C	-0.622315	0.649152	-0.380889
C74	C	-0.669250	0.591671	-0.481915
C75	C	-0.622329	0.591661	-0.481905
C76	C	-0.598861	0.620404	-0.431394
C77	C	-0.551953	0.620380	-0.431375
N78	N	-0.528482	0.649124	-0.380873
C79	C	-0.551929	0.677880	-0.330377
C80	C	-0.978902	0.620508	-0.431447
C81	C	-1.025820	0.620521	-0.431453
C82	C	-1.025796	0.678022	-0.330451
C83	C	-0.978877	0.678007	-0.330442
C84	C	-0.955431	0.649252	-0.380945
C85	C	-0.453403	0.677844	-0.330359
C86	C	-0.406483	0.677824	-0.330351
C87	C	-0.406512	0.620325	-0.431356
C88	C	-0.453427	0.620343	-0.431361
C89	C	-0.476872	0.649106	-0.380860
O90	O	-0.527662	0.595927	-0.474277
O91	O	-0.527651	0.702327	-0.287435
C92	C	-0.739593	0.677940	-0.330414
C93	C	-0.763062	0.649200	-0.380920
C94	C	-0.739615	0.620444	-0.431415
C95	C	-0.809979	0.649213	-0.380926
C96	C	-0.833426	0.677969	-0.330430
C97	C	-0.809955	0.706712	-0.279929
C98	C	-0.763039	0.706696	-0.279918
C99	C	-0.763086	0.591700	-0.481917
C100	C	-0.810002	0.591718	-0.481923
C101	C	-0.833448	0.620474	-0.431427
C102	C	-0.099201	0.649237	-0.380933
C103	C	-0.049267	0.649277	-0.380957
C104	C	-0.216342	0.649162	-0.587045
C105	C	-0.216327	0.649170	-0.674901
C106	C	-0.216383	0.766321	-0.380911
C107	C	-0.216385	0.816256	-0.380925
C108	C	-0.245009	0.620469	-1.046357
C109	C	-0.187549	0.677978	-1.046397
C110	C	-0.187559	0.677966	-0.963851
C111	C	-0.216294	0.649206	-0.922555
C112	C	-0.245021	0.620458	-0.963804
C113	C	-0.158836	0.706716	-0.922596
C114	C	-0.158845	0.706706	-0.840045
C115	C	-0.187579	0.677943	-0.798747
C116	C	-0.216306	0.649194	-0.840001
C117	C	-0.245041	0.620434	-0.798704
C118	C	-0.273767	0.591682	-0.839957
C119	C	-0.273754	0.591695	-0.922506
C120	C	-0.187591	0.677930	-0.716198
C121	C	-0.245053	0.620422	-0.716151
C122	C	-0.216384	0.649150	-0.175510
C123	C	-0.216273	0.649229	-0.087654
H124	H	-0.164322	-0.179331	-0.472804
H125	H	-0.743934	0.730101	-0.238788
O126	O	-0.272971	0.389321	-0.280948
C127	C	-0.298308	0.420060	-0.236267
H128	H	-0.279907	0.453519	-0.233589
H129	H	-0.303058	0.406489	-0.173974
H130	H	-0.332448	0.425027	-0.265106
H131	H	-0.268445	0.478070	-0.288971
H132	H	-0.135455	0.730117	-0.806464
O133	O	-0.832845	0.563858	-0.531033
C134	C	-0.859924	0.589429	-0.582150
H135	H	-0.866930	0.623485	-0.554326
H136	H	-0.892930	0.571136	-0.592732
H137	H	-0.841807	0.594343	-0.640724
O138	O	-0.301574	0.173366	-0.230339
C139	C	-0.275960	0.146244	-0.179357
H140	H	-0.241937	0.139242	-0.207349
H141	H	-0.294255	0.113238	-0.168699
H142	H	-0.270978	0.164321	-0.120800
H143	H	-0.135618	0.121649	-0.523408
O144	O	-0.740264	0.563742	-0.530858
C145	C	-0.713185	0.534725	-0.485798
H146	H	-0.706159	0.550591	-0.425926
H147	H	-0.680188	0.528675	-0.517980
H148	H	-0.731311	0.501444	-0.477053
H149	H	-0.164204	0.701341	-0.682614
H150	H	-0.297142	0.568288	-0.956101
O151	O	-0.131171	0.032803	-0.531405
C152	C	-0.156787	0.005662	-0.582387
H153	H	-0.190814	-0.001393	-0.554402
H154	H	-0.138498	-0.027317	-0.593032
H155	H	-0.161760	0.023749	-0.640950
O156	O	-0.956080	0.592549	-0.480395
C157	C	-0.928998	0.563533	-0.435339
H158	H	-0.921970	0.579400	-0.375468
H159	H	-0.896002	0.557486	-0.467526
H160	H	-0.947121	0.530251	-0.426592
O161	O	-0.272960	0.592606	-1.086461
C162	C	-0.301963	0.618164	-1.134215
H163	H	-0.304743	0.653542	-1.109345
H164	H	-0.336536	0.601887	-1.135127
H165	H	-0.288064	0.619729	-1.196786
H166	H	-0.268451	-0.179442	-0.289049
O167	O	-0.159856	0.389414	-0.480813
C168	C	-0.169728	0.400901	-0.559555
H169	H	-0.205622	0.413769	-0.563419
H170	H	-0.165884	0.370061	-0.598629
H171	H	-0.145660	0.428162	-0.580289
H172	H	-0.387376	0.701230	-0.289217
H173	H	-0.164156	0.701395	-1.080026
H174	H	-0.135444	0.730134	-0.956226
H175	H	-0.268445	-0.094334	-0.289025
O176	O	-0.301677	0.265833	-0.230346
C177	C	-0.326993	0.235034	-0.185638
H178	H	-0.328569	0.201596	-0.218013
H179	H	-0.362385	0.248558	-0.177090
H180	H	-0.310499	0.230045	-0.125660
O181	O	-0.272905	0.592436	-0.676005
C182	C	-0.247336	0.563441	-0.628248
H183	H	-0.211948	0.560697	-0.653139
H184	H	-0.263584	0.528854	-0.627299
H185	H	-0.245802	0.577323	-0.565688
O186	O	-0.301700	0.032711	-0.230446
C187	C	-0.346489	0.044136	-0.247584
H188	H	-0.347442	0.078205	-0.277973
H189	H	-0.366590	0.045720	-0.190470
H190	H	-0.361652	0.017724	-0.288165
O191	O	-0.599507	0.563704	-0.530856
C192	C	-0.572426	0.534685	-0.485806
H193	H	-0.565399	0.550546	-0.425929
H194	H	-0.539429	0.528640	-0.517991
H195	H	-0.590550	0.501402	-0.477068
H196	H	-0.164323	0.478186	-0.472736
O197	O	-0.301727	0.563735	-0.799960
C198	C	-0.327072	0.538354	-0.854065
H199	H	-0.328616	0.556755	-0.912918
H200	H	-0.362473	0.533539	-0.830193
H201	H	-0.310624	0.504244	-0.862834
H202	H	-0.297130	0.121460	-0.238358
H203	H	-0.688294	0.730084	-0.238778
O204	O	-0.476119	0.705848	-0.281340
C205	C	-0.464598	0.750611	-0.298706
H206	H	-0.430523	0.751512	-0.329099
H207	H	-0.462982	0.770776	-0.241694
H208	H	-0.490973	0.765743	-0.339364
O209	O	-0.131131	0.266039	-0.531458
C210	C	-0.141008	0.254590	-0.610209
H211	H	-0.158287	0.220515	-0.611793
H212	H	-0.108608	0.253008	-0.645748
H213	H	-0.164116	0.280988	-0.636764
O214	O	-0.131175	0.173559	-0.531403
C215	C	-0.156790	0.146425	-0.582396
H216	H	-0.190814	0.139357	-0.554405
H217	H	-0.138497	0.113452	-0.593069
H218	H	-0.161773	0.164524	-0.640945
H219	H	-0.164320	-0.094209	-0.472802
O220	O	-0.599568	0.734616	-0.230805
C221	C	-0.630332	0.759990	-0.186233
H222	H	-0.663761	0.761535	-0.218622
H223	H	-0.616748	0.795389	-0.177867
H224	H	-0.635362	0.743566	-0.126170
H225	H	-0.959771	0.701412	-0.289312
H226	H	-1.044894	0.701437	-0.289336
O227	O	-1.048545	0.592583	-0.480587
C228	C	-1.017784	0.567194	-0.525138
H229	H	-0.984320	0.585587	-0.527895
H230	H	-1.031318	0.562382	-0.587411
H231	H	-1.012840	0.533084	-0.496133
O232	O	-0.691971	0.563738	-0.531059
C233	C	-0.661206	0.538353	-0.575609
H234	H	-0.627743	0.556747	-0.578357
H235	H	-0.674736	0.533544	-0.637886
H236	H	-0.656263	0.504241	-0.546609
H237	H	-0.472537	0.596940	-0.472494
O238	O	-0.383709	0.592459	-0.480491
C239	C	-0.356515	0.618018	-0.531557
H240	H	-0.370621	0.653401	-0.536497
H241	H	-0.355969	0.601752	-0.592363
H242	H	-0.320967	0.619568	-0.507107
O243	O	-0.832750	0.734705	-0.231000
C244	C	-0.859839	0.763701	-0.276083
H245	H	-0.845668	0.766431	-0.338338
H246	H	-0.860341	0.798292	-0.247579
H247	H	-0.895414	0.749827	-0.278786
