data_functionalizedCrystal
_audit_creation_method	'MofGen! by Chris Wilmer'
_symmetry_space_group_name_H-M	'P1'
_symmetry_Int_Tables_number	1
_symmetry_cell_setting	triclinic
loop_
_symmetry_equiv_pos_as_xyz
  x,y,z
_cell_length_a	16.625548
_cell_length_b	18.050589
_cell_length_c	16.625539
_cell_angle_alpha	90.024824
_cell_angle_beta	90.020568
_cell_angle_gamma	90.029289
loop_
_atom_site_label
_atom_site_type_symbol
_atom_site_fract_x
_atom_site_fract_y
_atom_site_fract_z
Zn1	Zn	1.232648	-0.295637	0.455929
Zn2	Zn	1.732648	0.204363	0.955929
Zn3	Zn	1.232538	-0.419835	0.321104
Zn4	Zn	1.732538	0.080165	0.821104
Zn5	Zn	1.097810	-0.295665	0.321109
Zn6	Zn	1.597810	0.204335	0.821109
Zn7	Zn	1.097767	-0.419792	0.455894
Zn8	Zn	1.597767	0.080208	0.955894
O9	O	1.165191	-0.357732	0.388509
O10	O	1.665191	0.142268	0.888509
O11	O	1.345466	-0.312118	0.438056
O12	O	1.845466	0.187882	0.938056
O13	O	1.214638	-0.403393	0.208272
O14	O	1.714638	0.096607	0.708272
O15	O	1.115761	-0.191737	0.339010
O16	O	1.615761	0.308263	0.839010
O17	O	1.345385	-0.403366	0.339001
O18	O	1.845385	0.096634	0.839001
O19	O	1.214826	-0.191716	0.438061
O20	O	1.714826	0.308284	0.938061
O21	O	1.115654	-0.312166	0.208276
O22	O	1.615654	0.187834	0.708276
O23	O	0.984972	-0.312125	0.338976
O24	O	1.484972	0.187875	0.838976
O25	O	1.115687	-0.403293	0.568731
O26	O	1.615687	0.096707	1.068731
O27	O	0.984940	-0.403320	0.438002
O28	O	1.484940	0.096680	0.938002
O29	O	1.214784	-0.312077	0.568757
O30	O	1.714784	0.187923	1.068757
O31	O	1.214596	-0.523754	0.338968
O32	O	1.714596	-0.023754	0.838968
O33	O	1.115580	-0.523722	0.437997
O34	O	1.615580	-0.023722	0.937997
C35	C	0.955700	-0.357722	0.388487
C36	C	1.455700	0.142278	0.888487
C37	C	0.866079	-0.357735	0.388496
C38	C	1.366079	0.142265	0.888496
C39	C	0.537903	-0.357740	0.388531
C40	C	1.037903	0.142260	0.888531
C41	C	0.629212	-0.357736	0.388518
C42	C	1.129212	0.142264	0.888518
C43	C	0.701988	-0.357738	0.388513
C44	C	1.201988	0.142262	0.888513
C45	C	0.793302	-0.357734	0.388502
C46	C	1.293302	0.142266	0.888502
C47	C	1.165093	-0.550684	0.388496
C48	C	1.665093	-0.050684	0.888496
C49	C	1.165126	-0.633230	0.388517
C50	C	1.665126	-0.133230	0.888517
C51	C	1.111334	-0.832691	0.442350
C52	C	1.611334	-0.332691	0.942350
C53	C	1.091677	-0.882133	0.368775
C54	C	1.591677	-0.382133	0.868775
C55	C	1.165205	-0.784360	0.388528
C56	C	1.665205	-0.284360	0.888528
C57	C	1.184901	-0.882000	0.462112
C58	C	1.684901	-0.382000	0.962112
C59	C	1.165280	-0.930346	0.388544
C60	C	1.665280	-0.430346	0.888544
C61	C	1.145510	-0.832715	0.314913
C62	C	1.645510	-0.332715	0.814913
C63	C	1.238767	-0.832578	0.408300
C64	C	1.738767	-0.332578	0.908300
C65	C	1.219139	-0.881998	0.334673
C66	C	1.719139	-0.381998	0.834673
C67	C	1.165160	-0.700262	0.388519
C68	C	1.665160	-0.200262	0.888519
C69	C	1.165325	-1.014442	0.388544
C70	C	1.665325	-0.514442	0.888544
C71	C	1.375500	-0.357743	0.388532
C72	C	1.875500	0.142257	0.888532
C73	C	1.465121	-0.357748	0.388542
C74	C	1.965121	0.142252	0.888542
C75	C	1.165243	-0.357677	0.598818
C76	C	1.665243	0.142323	1.098818
C77	C	1.165266	-0.357653	0.688439
C78	C	1.665266	0.142347	1.188439
C79	C	1.165310	-0.164027	0.388540
C80	C	1.665310	0.335973	0.888540
C81	C	1.165361	-0.081481	0.388553
C82	C	1.665361	0.418519	0.888553
C83	C	1.165185	-0.357734	0.179018
C84	C	1.665185	0.142266	0.679018
C85	C	1.165319	-0.357548	0.089398
C86	C	1.665319	0.142452	0.589398
C87	C	1.165303	-0.357570	1.016615
C88	C	1.665303	0.142430	1.516615
C89	C	1.165290	-0.357596	0.925307
C90	C	1.665290	0.142404	1.425307
C91	C	1.165285	-0.357612	0.852530
C92	C	1.665285	0.142388	1.352530
C93	C	1.165271	-0.357637	0.761216
C94	C	1.665271	0.142363	1.261216
H95	H	1.065710	-0.811040	0.487802
H96	H	1.565710	-0.311040	0.987802
H97	H	1.128809	-0.811156	0.252673
H98	H	1.628809	-0.311156	0.752673
C99	C	1.007683	-0.911543	0.346183
C100	C	1.507683	-0.411543	0.846183
C101	C	0.934459	-0.892111	0.398805
C102	C	1.434459	-0.392111	0.898805
C103	C	0.850464	-0.921519	0.376220
C104	C	1.350464	-0.421519	0.876220
C105	C	0.839692	-0.970359	0.301013
C106	C	1.339692	-0.470359	0.801013
C107	C	0.912918	-0.989794	0.248386
C108	C	1.412918	-0.489794	0.748386
C109	C	0.996913	-0.960386	0.270971
C110	C	1.496913	-0.460386	0.770971
H111	H	0.942431	-0.855955	0.454482
H112	H	1.442431	-0.355955	0.954482
H113	H	0.796257	-0.907132	0.415178
H114	H	1.296257	-0.407132	0.915178
H115	H	0.777513	-0.992128	0.284294
H116	H	1.277513	-0.492128	0.784294
H117	H	0.904946	-1.025950	0.192709
H118	H	1.404946	-0.525950	0.692709
H119	H	1.051120	-0.974773	0.232013
H120	H	1.551120	-0.474773	0.732013
C121	C	1.280719	-0.911081	0.273126
C122	C	1.780719	-0.411081	0.773126
C123	C	1.271670	-0.891459	0.183447
C124	C	1.771670	-0.391459	0.683447
C125	C	1.333243	-0.920548	0.121897
C126	C	1.833243	-0.420548	0.621897
C127	C	1.403864	-0.969259	0.150026
C128	C	1.903864	-0.469259	0.650026
C129	C	1.412916	-0.988884	0.239709
C130	C	1.912916	-0.488884	0.739709
C131	C	1.351344	-0.959794	0.301259
C132	C	1.851344	-0.459794	0.801259
H133	H	1.219389	-0.855397	0.162620
H134	H	1.719389	-0.355397	0.662620
H135	H	1.326541	-0.906020	0.055507
H136	H	1.826541	-0.406020	0.555507
H137	H	1.449444	-0.990793	0.104463
H138	H	1.949444	-0.490793	0.604463
H139	H	1.465197	-1.024945	0.260536
H140	H	1.965197	-0.524945	0.760536
H141	H	1.358045	-0.974322	0.367648
H142	H	1.858045	-0.474322	0.867648
C143	C	1.322740	-0.803144	0.430917
C144	C	1.822740	-0.303144	0.930917
C145	C	1.359703	-0.822520	0.513199
C146	C	1.859703	-0.322520	1.013199
C147	C	1.443675	-0.793084	0.535827
C148	C	1.943675	-0.293084	1.035827
C149	C	1.490685	-0.744273	0.476173
C150	C	1.990685	-0.244273	0.976173
C151	C	1.453723	-0.724895	0.393885
C152	C	1.953723	-0.224895	0.893885
C153	C	1.369750	-0.754331	0.371257
C154	C	1.869750	-0.254331	0.871257
H155	H	1.324903	-0.858656	0.557364
H156	H	1.824903	-0.358656	1.057364
H157	H	1.471037	-0.807430	0.596742
H158	H	1.971037	-0.307430	1.096742
H159	H	1.552846	-0.722483	0.492923
H160	H	2.052846	-0.222483	0.992923
H161	H	1.488522	-0.688759	0.349720
H162	H	1.988522	-0.188759	0.849720
H163	H	1.342388	-0.739985	0.310342
H164	H	1.842388	-0.239985	0.810342
H165	H	1.201530	-0.903649	0.524335
H166	H	1.701530	-0.403649	1.024335
