data_functionalizedCrystal
_audit_creation_method	'MofGen! by Chris Wilmer'
_symmetry_space_group_name_H-M	'P1'
_symmetry_Int_Tables_number	1
_symmetry_cell_setting	triclinic
loop_
_symmetry_equiv_pos_as_xyz
  x,y,z
_cell_length_a	16.109302
_cell_length_b	19.188924
_cell_length_c	14.586319
_cell_angle_alpha	89.994146
_cell_angle_beta	89.994552
_cell_angle_gamma	83.301872
loop_
_atom_site_label
_atom_site_type_symbol
_atom_site_fract_x
_atom_site_fract_y
_atom_site_fract_z
O1	O	1.102830	0.089747	-0.076286
O2	O	1.602830	0.589747	0.423714
O3	O	0.860731	0.100915	-0.076279
O4	O	1.360731	0.600915	0.423721
O5	O	0.988770	-0.006309	-0.076272
O6	O	1.488770	0.493691	0.423728
O7	O	0.974791	0.196970	-0.076293
O8	O	1.474791	0.696970	0.423707
O9	O	0.988761	-0.006311	0.076209
O10	O	1.488761	0.493689	0.576209
O11	O	0.860722	0.100913	0.076202
O12	O	1.360722	0.600913	0.576202
O13	O	1.102822	0.089745	0.076195
O14	O	1.602822	0.589745	0.576195
Cu15	Cu	0.981771	0.095329	0.090121
Cu16	Cu	1.481771	0.595329	0.590121
Cu17	Cu	0.981782	0.095331	-0.090205
Cu18	Cu	1.481782	0.595331	0.409795
O19	O	0.974782	0.196969	0.076188
O20	O	1.474782	0.696969	0.576188
C21	C	0.829753	0.100461	-0.000038
C22	C	1.329753	0.600461	0.499962
C23	C	0.737463	0.099105	-0.000035
C24	C	1.237463	0.599105	0.499965
C25	C	0.525127	0.095967	0.083074
C26	C	1.025127	0.595967	0.583074
C27	C	0.438412	0.094685	0.083071
C28	C	0.938412	0.594685	0.583071
C29	C	0.438432	0.094690	-0.083172
C30	C	0.938432	0.594690	0.416828
C31	C	0.525147	0.095968	-0.083168
C32	C	1.025147	0.595968	0.416832
C33	C	0.568492	0.096609	-0.000042
C34	C	1.068492	0.596609	0.499958
C35	C	0.395061	0.094050	-0.000050
C36	C	0.895061	0.594050	0.499950
C37	C	0.301040	0.092660	-0.000053
C38	C	0.801040	0.592660	0.499947
C39	C	0.662519	0.097998	-0.000038
C40	C	1.162519	0.597998	0.499962
C41	C	0.988314	-0.032322	-0.000031
C42	C	1.488314	0.467678	0.499969
C43	C	0.986958	-0.109830	-0.000028
C44	C	1.486958	0.390170	0.499972
C45	C	0.986330	-0.146229	-0.083145
C46	C	1.486330	0.353771	0.416855
C47	C	0.985044	-0.219055	-0.083152
C48	C	1.485044	0.280945	0.416848
C49	C	0.984403	-0.255480	-0.000037
C50	C	1.484403	0.244520	0.499963
C51	C	0.985026	-0.219072	0.083091
C52	C	1.485026	0.280928	0.583091
C53	C	0.986304	-0.146246	0.083096
C54	C	1.486304	0.353754	0.583096
N55	N	1.029706	-0.375038	0.061822
N56	N	1.529706	0.124962	0.561822
N57	N	1.028494	-0.444219	0.061812
N58	N	1.528494	0.055781	0.561812
C59	C	0.980552	-0.474898	-0.000046
C60	C	1.480552	0.025102	0.499954
N61	N	0.933878	-0.433784	-0.061908
N62	N	1.433878	0.066216	0.438092
N63	N	0.935094	-0.364597	-0.061900
N64	N	1.435094	0.135403	0.438100
C65	C	0.983017	-0.334447	-0.000033
C66	C	1.483017	0.165553	0.499967
C67	C	0.978528	-0.590264	-0.083177
C68	C	1.478528	-0.090264	0.416823
C69	C	0.977237	-0.663090	-0.083180
C70	C	1.477237	-0.163090	0.416820
C71	C	0.977228	-0.663106	0.083066
C72	C	1.477228	-0.163106	0.583066
C73	C	0.978511	-0.590280	0.083067
C74	C	1.478511	-0.090280	0.583067
C75	C	0.979165	-0.553864	-0.000057
C76	C	1.479165	-0.053864	0.499943
C77	C	1.133799	0.090198	-0.000048
C78	C	1.633799	0.590198	0.499952
C79	C	1.226090	0.091555	-0.000057
C80	C	1.726090	0.591555	0.499943
C81	C	0.975239	0.222982	-0.000055
C82	C	1.475239	0.722982	0.499945
C83	C	0.976595	0.300490	-0.000064
C84	C	1.476595	0.800490	0.499936
N85	N	0.981770	0.095327	0.216953
N86	N	1.481770	0.595327	0.716953
N87	N	0.981789	0.095327	-0.217037
N88	N	1.481789	0.595327	0.282963
C89	C	1.038484	0.047864	0.451963
C90	C	1.538484	0.547864	0.951963
C91	C	1.038487	0.047863	0.547944
C92	C	1.538487	0.547863	1.047944
C93	C	0.925069	0.142792	0.547947
C94	C	1.425069	0.642792	1.047947
C95	C	0.925063	0.142790	0.451967
C96	C	1.425063	0.642790	0.951967
C97	C	0.981776	0.095327	0.403978
C98	C	1.481776	0.595327	0.903978
C99	C	0.981784	0.095327	0.595938
C100	C	1.481784	0.595327	1.095938
C101	C	0.981786	0.095326	0.700006
C102	C	1.481786	0.595326	1.200006
C103	C	0.981773	0.095327	0.299904
C104	C	1.481773	0.595327	0.799904
H105	H	0.986860	-0.116583	-0.150832
H106	H	1.486860	0.383417	0.349168
H107	H	0.984527	-0.248697	-0.150839
H108	H	1.484527	0.251303	0.349161
H109	H	0.560416	0.096490	0.150760
H110	H	1.060416	0.596490	0.650760
H111	H	1.084661	0.009216	0.412892
H112	H	1.584661	0.509216	0.912892
O113	O	1.093655	0.001733	0.594414
O114	O	1.593655	0.501733	1.094414
C115	C	1.143691	-0.040169	0.531471
C116	C	1.643691	0.459831	1.031471
H117	H	1.144520	-0.011542	0.463050
H118	H	1.644520	0.488458	0.963050
H119	H	1.116889	-0.092044	0.521274
H120	H	1.616889	0.407956	1.021274
C121	C	1.232413	-0.089698	0.652953
C122	C	1.732413	0.410302	1.152953
C123	C	1.233437	-0.054535	0.568919
C124	C	1.733437	0.445465	1.068919
H125	H	1.287771	-0.098563	0.676053
H126	H	1.787771	0.401437	1.176053
H127	H	1.198701	-0.061470	0.695360
H128	H	1.698701	0.438530	1.195360
H129	H	1.210074	-0.132923	0.644444
H130	H	1.710074	0.367077	1.144444
H131	H	1.255765	-0.011307	0.577432
H132	H	1.755765	0.488693	1.077432
H133	H	1.267154	-0.082756	0.526515
H134	H	1.767154	0.417244	1.026515
H135	H	0.560455	0.096489	-0.150856
H136	H	1.060455	0.596489	0.349144
H137	H	0.979056	-0.560611	-0.150861
H138	H	1.479056	-0.060611	0.349139
H139	H	0.403108	0.094162	0.150752
H140	H	0.903108	0.594162	0.650752
O141	O	0.869903	0.188923	0.594424
O142	O	1.369903	0.688923	1.094424
C143	C	0.819861	0.230824	0.531486
C144	C	1.319861	0.730824	1.031486
H145	H	0.819026	0.202196	0.463073
H146	H	1.319026	0.702196	0.963073
H147	H	0.846660	0.282699	0.521265
H148	H	1.346660	0.782699	1.021265
C149	C	0.731150	0.280351	0.652982
C150	C	1.231150	0.780351	1.152982
C151	C	0.730118	0.245188	0.568959
C152	C	1.230118	0.745188	1.068959
H153	H	0.675793	0.289215	0.676098
H154	H	1.175793	0.789215	1.176098
H155	H	0.764866	0.252124	0.695386
H156	H	1.264866	0.752124	1.195386
H157	H	0.753486	0.323577	0.644453
H158	H	1.253486	0.823577	1.144453
H159	H	0.707792	0.201960	0.577491
H160	H	1.207792	0.701960	1.077491
H161	H	0.696396	0.273408	0.526558
H162	H	1.196396	0.773408	1.026558
H163	H	0.878880	0.181440	0.412895
H164	H	1.378880	0.681440	0.912895
H165	H	0.984502	-0.248733	0.150764
H166	H	1.484502	0.251267	0.650764
O167	O	0.396190	0.094102	-0.163834
O168	O	0.896190	0.594102	0.336166
C169	C	0.310357	0.092822	-0.146017
C170	C	0.810357	0.592822	0.353983
H171	H	0.294981	0.114735	-0.074584
H172	H	0.794981	0.614735	0.425416
H173	H	0.294676	0.036480	-0.149957
H174	H	0.794676	0.536480	0.350043
C175	C	0.277431	0.111016	-0.305464
C176	C	0.777431	0.611016	0.194536
C177	C	0.258546	0.137936	-0.217731
C178	C	0.758546	0.637936	0.282269
H179	H	0.245471	0.138842	-0.349702
H180	H	0.745471	0.638842	0.150298
H181	H	0.335259	0.111876	-0.317469
H182	H	0.835259	0.611876	0.182531
H183	H	0.264364	0.064065	-0.308734
H184	H	0.764364	0.564065	0.191266
H185	H	0.271623	0.184883	-0.214459
H186	H	0.771623	0.684883	0.285541
H187	H	0.200718	0.137085	-0.205727
H188	H	0.700718	0.637085	0.294273
H189	H	0.986812	-0.116610	0.150782
H190	H	1.486812	0.383390	0.650782
O191	O	0.976674	-0.698348	-0.164007
O192	O	1.476674	-0.198348	0.335993
C193	C	0.977511	-0.650584	-0.237367
C194	C	1.477511	-0.150584	0.262633
H195	H	1.004728	-0.601570	-0.212990
H196	H	1.504728	-0.101570	0.287010
H197	H	0.910968	-0.635497	-0.262941
H198	H	1.410968	-0.135497	0.237059
C199	C	0.998117	-0.745200	-0.345826
C200	C	1.498117	-0.245200	0.154174
C201	C	1.031552	-0.685002	-0.315888
C202	C	1.531552	-0.185002	0.184112
H203	H	1.031449	-0.766431	-0.394264
H204	H	1.531449	-0.266431	0.105736
H205	H	0.997550	-0.777380	-0.296403
H206	H	1.497550	-0.277380	0.203597
H207	H	0.942666	-0.732619	-0.367132
H208	H	1.442666	-0.232619	0.132868
H209	H	1.086998	-0.697586	-0.294573
H210	H	1.586998	-0.197586	0.205427
H211	H	1.032130	-0.652825	-0.365309
H212	H	1.532130	-0.152825	0.134691
H213	H	0.976699	-0.692762	0.150740
H214	H	1.476699	-0.192762	0.650740
O215	O	0.979170	-0.555031	0.163891
O216	O	1.479170	-0.055031	0.663891
C217	C	0.978309	-0.602792	0.237251
C218	C	1.478309	-0.102792	0.737251
H219	H	1.003710	-0.657600	0.212879
H220	H	1.503710	-0.157600	0.712879
H221	H	0.911487	-0.603196	0.262815
H222	H	1.411487	-0.103196	0.762815
C223	C	1.002121	-0.513066	0.345713
C224	C	1.502121	-0.013066	0.845713
C225	C	1.033326	-0.580381	0.315780
C226	C	1.533326	-0.080381	0.815780
H227	H	1.036055	-0.499241	0.394155
H228	H	1.536055	0.000759	0.894155
H229	H	1.002698	-0.480888	0.296289
H230	H	1.502698	0.019112	0.796289
H231	H	0.946437	-0.513411	0.367009
H232	H	1.446437	-0.013411	0.867009
H233	H	1.089005	-0.580033	0.294473
H234	H	1.589005	-0.080033	0.794473
H235	H	1.032760	-0.612559	0.365202
H236	H	1.532760	-0.112559	0.865202
