data_functionalizedCrystal
_audit_creation_method	'MofGen! by Chris Wilmer'
_symmetry_space_group_name_H-M	'P1'
_symmetry_Int_Tables_number	1
_symmetry_cell_setting	triclinic
loop_
_symmetry_equiv_pos_as_xyz
  x,y,z
_cell_length_a	14.853566
_cell_length_b	14.853567
_cell_length_c	16.776229
_cell_angle_alpha	89.997147
_cell_angle_beta	89.995710
_cell_angle_gamma	83.634672
loop_
_atom_site_label
_atom_site_type_symbol
_atom_site_fract_x
_atom_site_fract_y
_atom_site_fract_z
O1	O	1.196369	0.117701	-0.066229
O2	O	1.696369	0.617701	0.433771
O3	O	0.933909	0.131723	-0.066241
O4	O	1.433909	0.631723	0.433759
O5	O	1.072150	-0.006518	-0.066237
O6	O	1.572150	0.493482	0.433763
O7	O	1.058128	0.255942	-0.066233
O8	O	1.558128	0.755942	0.433767
O9	O	1.072131	-0.006526	0.066340
O10	O	1.572131	0.493474	0.566340
O11	O	0.933891	0.131715	0.066336
O12	O	1.433891	0.631715	0.566336
O13	O	1.196350	0.117692	0.066348
O14	O	1.696350	0.617692	0.566348
Zn15	Zn	1.065118	0.124702	0.087391
Zn16	Zn	1.565118	0.624702	0.587391
Zn17	Zn	1.065142	0.124714	-0.087284
Zn18	Zn	1.565142	0.624714	0.412716
O19	O	1.058110	0.255933	0.066344
O20	O	1.558110	0.755933	0.566344
C21	C	0.900311	0.131084	0.000046
C22	C	1.400311	0.631084	0.500046
C23	C	0.800227	0.129181	0.000041
C24	C	1.300227	0.629181	0.500041
C25	C	1.071505	-0.040111	0.000049
C26	C	1.571505	0.459889	0.500049
C27	C	1.069601	-0.140194	0.000042
C28	C	1.569601	0.359806	0.500042
C29	C	0.377052	0.121135	-0.072213
C30	C	0.877052	0.621135	0.427787
C31	C	0.377054	0.121126	0.072327
C32	C	0.877054	0.621126	0.572327
C33	C	0.471088	0.122913	0.072325
C34	C	0.971088	0.622913	0.572325
C35	C	0.518108	0.123813	0.000052
C36	C	1.018108	0.623813	0.500052
C37	C	0.471095	0.122925	-0.072218
C38	C	0.971095	0.622925	0.427782
C39	C	0.518107	0.123810	0.144593
C40	C	1.018107	0.623810	0.644593
C41	C	0.612147	0.125599	0.144594
C42	C	1.112147	0.625599	0.644594
C43	C	0.659170	0.126492	0.072320
C44	C	1.159170	0.626492	0.572320
C45	C	0.612151	0.125603	0.000048
C46	C	1.112151	0.625603	0.500048
C47	C	0.659171	0.126503	-0.072225
C48	C	1.159171	0.626503	0.427775
C49	C	0.612155	0.125607	-0.144498
C50	C	1.112155	0.625607	0.355502
C51	C	0.518118	0.123818	-0.144491
C52	C	1.018118	0.623818	0.355509
C53	C	0.753207	0.128281	0.072313
C54	C	1.253207	0.628281	0.572313
C55	C	0.753214	0.128293	-0.072229
C56	C	1.253214	0.628293	0.427771
C57	C	0.979435	-0.552728	0.000053
C58	C	1.479435	-0.052728	0.500053
C59	C	1.143668	-0.574009	0.000061
C60	C	1.643668	-0.074009	0.500061
C61	C	1.145458	-0.479976	0.000056
C62	C	1.645458	0.020024	0.500056
C63	C	1.064236	-0.422313	0.000051
C64	C	1.564236	0.077687	0.500051
C65	C	0.981223	-0.458685	0.000051
C66	C	1.481223	0.041315	0.500051
C67	C	1.228470	-0.443597	0.000064
C68	C	1.728470	0.056403	0.500064
C69	C	1.230263	-0.349558	0.000061
C70	C	1.730263	0.150442	0.500061
C71	C	1.149040	-0.291894	0.000050
C72	C	1.649040	0.208106	0.500050
C73	C	1.066023	-0.328271	0.000049
C74	C	1.566023	0.171729	0.500049
C75	C	0.984801	-0.270608	0.000044
C76	C	1.484801	0.229392	0.500044
C77	C	0.901784	-0.306984	0.000037
C78	C	1.401784	0.193016	0.500037
C79	C	0.899999	-0.401021	0.000040
C80	C	1.399999	0.098979	0.500040
C81	C	1.150824	-0.197856	0.000047
C82	C	1.650824	0.302144	0.500047
C83	C	0.986588	-0.176566	0.000042
C84	C	1.486588	0.323434	0.500042
C85	C	1.229948	0.118332	0.000060
C86	C	1.729948	0.618332	0.500060
C87	C	1.330032	0.120235	0.000059
C88	C	1.830032	0.620235	0.500059
C89	C	1.058754	0.289526	0.000056
C90	C	1.558754	0.789526	0.500056
C91	C	1.060658	0.389610	0.000058
C92	C	1.560658	0.889610	0.500058
N93	N	1.065108	0.124694	0.206602
N94	N	1.565108	0.624694	0.706602
N95	N	1.065159	0.124715	-0.206495
N96	N	1.565159	0.624715	0.293505
C97	C	1.126339	0.063506	0.248321
C98	C	1.626339	0.563506	0.748321
C99	C	1.126344	0.063505	0.331773
C100	C	1.626344	0.563505	0.831773
C101	C	1.065121	0.124698	0.373505
C102	C	1.565121	0.624698	0.873505
C103	C	1.003883	0.185888	0.331780
C104	C	1.503883	0.685888	0.831780
C105	C	1.003874	0.185884	0.248330
C106	C	1.503874	0.685884	0.748330
C107	C	1.003916	0.185906	0.668328
C108	C	1.503916	0.685906	1.168328
C109	C	1.003931	0.185908	0.751784
C110	C	1.503931	0.685908	1.251784
C111	C	1.126385	0.063527	0.751771
C112	C	1.626385	0.563527	1.251771
C113	C	1.126377	0.063523	0.668321
C114	C	1.626377	0.563523	1.168321
C115	C	1.065136	0.124710	0.626603
C116	C	1.565136	0.624710	1.126603
C117	C	1.065130	0.124709	0.536115
C118	C	1.565130	0.624709	1.036115
C119	C	1.065131	0.124704	0.463992
C120	C	1.565131	0.624704	0.963992
H121	H	0.791492	0.129022	-0.131083
H122	H	1.291492	0.629022	0.368917
H123	H	0.479829	0.123088	-0.203332
H124	H	0.979829	0.623088	0.296668
N125	N	0.937830	0.251885	0.203336
N126	N	1.437830	0.751885	0.703336
H127	H	0.972320	0.291865	0.168701
H128	H	1.472320	0.791865	0.668701
H129	H	0.897885	0.217291	0.168770
H130	H	1.397885	0.717291	0.668770
H131	H	1.297861	-0.319950	0.000065
H132	H	1.797861	0.180050	0.500065
H133	H	0.650450	0.126346	-0.203342
H134	H	1.150450	0.626346	0.296658
N135	N	1.192440	-0.002472	0.796766
N136	N	1.692440	0.497528	1.296766
H137	H	1.183157	0.006810	0.855964
H138	H	1.683157	0.506810	1.355964
H139	H	1.181953	-0.066449	0.782184
H140	H	1.681953	0.433551	1.282184
H141	H	1.176198	0.013680	0.214349
H142	H	1.676198	0.513680	0.714349
N143	N	1.316063	-0.505796	0.000080
N144	N	1.816063	-0.005796	0.500080
H145	H	1.318988	-0.545285	-0.049066
H146	H	1.818988	-0.045285	0.450934
H147	H	1.368877	-0.468429	0.000118
H148	H	1.868877	0.031571	0.500118
N149	N	0.937884	0.251905	0.796793
N150	N	1.437884	0.751905	1.296793
H151	H	0.897942	0.217371	0.831427
H152	H	1.397942	0.717371	1.331427
H153	H	0.972444	0.291877	0.831361
H154	H	1.472444	0.791877	1.331361
N155	N	0.467398	0.122850	0.222541
N156	N	0.967398	0.622850	0.722541
H157	H	0.400540	0.122824	0.211584
H158	H	0.900540	0.622824	0.711584
H159	H	0.490221	0.066689	0.253624
H160	H	0.990221	0.566689	0.753624
H161	H	0.650420	0.126326	0.203443
H162	H	1.150420	0.626326	0.703443
N163	N	0.326354	0.120176	-0.150165
N164	N	0.826354	0.620176	0.349835
H165	H	0.349964	0.064647	-0.181760
H166	H	0.849964	0.564647	0.318240
H167	H	0.259658	0.118938	-0.139138
H168	H	0.759658	0.618938	0.360862
N169	N	0.803917	0.129257	0.150254
N170	N	1.303917	0.629257	0.650254
H171	H	0.759860	0.128421	0.196038
H172	H	1.259860	0.628421	0.696038
H173	H	0.850172	0.074155	0.153405
H174	H	1.350172	0.574155	0.653405
N175	N	0.326344	0.120166	0.150275
N176	N	0.826344	0.620166	0.650275
H177	H	0.259488	0.120132	0.139318
H178	H	0.759488	0.620132	0.639318
H179	H	0.349174	0.064008	0.181361
H180	H	0.849174	0.564008	0.681361
N181	N	1.240351	-0.158621	0.000063
N182	N	1.740351	0.341379	0.500063
H183	H	1.291533	-0.209419	0.000071
H184	H	1.791533	0.290581	0.500071
H185	H	1.244683	-0.120069	-0.049086
H186	H	1.744683	0.379931	0.450914
H187	H	1.176203	0.013681	0.365741
H188	H	1.676203	0.513681	0.865741
N189	N	1.192413	-0.002473	0.623310
N190	N	1.692413	0.497527	1.123310
H191	H	1.231204	-0.041237	0.662402
H192	H	1.731204	0.458763	1.162402
H193	H	1.157848	-0.042393	0.588695
H194	H	1.657848	0.457607	1.088695
N195	N	0.889896	-0.591947	0.000046
N196	N	1.389896	-0.091947	0.500046
H197	H	0.885497	-0.630486	-0.049100
H198	H	1.385497	-0.130486	0.450900
H199	H	0.885537	-0.630446	0.049225
H200	H	1.385537	-0.130446	0.549225
H201	H	1.209796	-0.620963	0.000071
H202	H	1.709796	-0.120963	0.500071
N203	N	0.898988	-0.114367	0.000037
N204	N	1.398988	0.385633	0.500037
H205	H	0.862782	-0.126073	-0.049112
H206	H	1.362782	0.373927	0.450888
H207	H	0.862839	-0.126109	0.049213
H208	H	1.362839	0.373891	0.549213
N209	N	0.814181	-0.244788	0.000052
N210	N	1.314181	0.255212	0.500052
H211	H	0.827917	-0.179698	0.000060
H212	H	1.327917	0.320302	0.500060
H213	H	0.778005	-0.256560	-0.049094
H214	H	1.278005	0.243440	0.450906
H215	H	0.954053	0.235729	0.634368
H216	H	1.454053	0.735729	1.134368
H217	H	0.832411	-0.430646	0.000035
H218	H	1.332411	0.069354	0.500035
H219	H	0.954030	0.235709	0.365763
H220	H	1.454030	0.735709	0.865763
