data_functionalizedCrystal
_audit_creation_method	'MofGen! by Chris Wilmer'
_symmetry_space_group_name_H-M	'P1'
_symmetry_Int_Tables_number	1
_symmetry_cell_setting	triclinic
loop_
_symmetry_equiv_pos_as_xyz
  x,y,z
_cell_length_a	16.109318
_cell_length_b	13.339070
_cell_length_c	15.186229
_cell_angle_alpha	89.998719
_cell_angle_beta	90.000224
_cell_angle_gamma	99.548929
loop_
_atom_site_label
_atom_site_type_symbol
_atom_site_fract_x
_atom_site_fract_y
_atom_site_fract_z
O1	O	1.133164	0.130106	-0.073150
O2	O	0.894836	0.146269	-0.073168
O3	O	0.986647	-0.009069	-0.073158
O4	O	1.041352	0.285444	-0.073160
O5	O	0.986638	-0.009071	0.073299
O6	O	0.894827	0.146267	0.073290
O7	O	1.133155	0.130104	0.073307
Zn8	Zn	1.013989	0.138185	0.096552
Zn9	Zn	1.014001	0.138188	-0.096412
O10	O	1.041343	0.285442	0.073298
C11	C	0.863705	0.145610	0.000059
C12	C	0.770955	0.143638	0.000052
C13	C	0.470415	0.137270	-0.079766
C14	C	0.557563	0.139116	-0.079772
C15	C	0.557568	0.139100	0.079904
C16	C	0.470422	0.137247	0.079909
C17	C	0.426848	0.136337	0.000071
C18	C	0.601142	0.140036	0.000061
C19	C	0.695632	0.142038	0.000056
C20	C	0.332352	0.134333	0.000076
C21	C	0.977402	-0.046757	0.000068
C22	C	0.949858	-0.159052	0.000063
C23	C	1.164028	-0.523899	0.000079
C24	C	1.189910	-0.418393	0.000089
C25	C	1.129899	-0.353553	0.000082
C26	C	1.044002	-0.394228	0.000066
C27	C	1.018117	-0.499745	0.000063
C28	C	0.983988	-0.329398	0.000066
C29	C	0.898091	-0.370074	0.000049
C30	C	0.872211	-0.475581	0.000046
C31	C	0.932222	-0.540421	0.000052
C32	C	1.009873	-0.223882	0.000069
C33	C	0.863962	-0.199728	0.000053
C34	C	0.838081	-0.305234	0.000043
C35	C	1.164286	0.130763	0.000079
C36	C	1.257035	0.132735	0.000080
C37	C	1.050588	0.323130	0.000069
C38	C	1.078132	0.435425	0.000069
N39	N	1.013987	0.138183	0.228244
N40	N	1.014008	0.138183	-0.228105
C41	C	1.054666	0.069422	0.453971
C42	C	1.054668	0.069420	0.546161
C43	C	0.973324	0.206946	0.546162
C44	C	0.973317	0.206943	0.453974
C45	C	1.013993	0.138182	0.407881
C46	C	1.014002	0.138183	0.592259
C47	C	1.014004	0.138181	0.692215
C48	C	1.013990	0.138183	0.307918
H49	H	0.434940	0.136528	-0.144775
H50	H	1.150977	-0.267645	0.000091
H51	H	1.259847	-0.385282	0.000104
H52	H	0.940208	0.262932	0.583700
H53	H	0.593031	0.139875	-0.144783
H54	H	0.593057	0.139843	0.144905
H55	H	0.940193	0.262936	0.416444
H56	H	0.434948	0.136486	0.144925
H57	H	0.815096	-0.146934	0.000052
H58	H	1.087785	0.013431	0.416445
H59	H	1.079810	-0.190774	0.000083
H60	H	1.212879	-0.576700	0.000092
H61	H	1.087786	0.013428	0.583685
H62	H	0.911153	-0.626334	0.000041
H63	H	0.802268	-0.508695	0.000039
H64	H	0.768142	-0.338368	0.000030
