data_functionalizedCrystal
_audit_creation_method	'MofGen! by Chris Wilmer'
_symmetry_space_group_name_H-M	'P1'
_symmetry_Int_Tables_number	1
_symmetry_cell_setting	triclinic
loop_
_symmetry_equiv_pos_as_xyz
  x,y,z
_cell_length_a	21.395364
_cell_length_b	21.395361
_cell_length_c	21.395355
_cell_angle_alpha	89.978489
_cell_angle_beta	89.975448
_cell_angle_gamma	90.045659
loop_
_atom_site_label
_atom_site_type_symbol
_atom_site_fract_x
_atom_site_fract_y
_atom_site_fract_z
Zn1	Zn	0.957859	-0.249261	-0.354248
Zn2	Zn	1.207859	0.000739	-0.104248
Zn3	Zn	1.457859	0.250739	0.145752
Zn4	Zn	1.707859	0.500739	0.395752
Zn5	Zn	0.957762	-0.354021	-0.249466
Zn6	Zn	1.207762	-0.104021	0.000534
Zn7	Zn	1.457762	0.145979	0.250534
Zn8	Zn	1.707762	0.395979	0.500534
Zn9	Zn	0.853074	-0.249289	-0.249485
Zn10	Zn	1.103074	0.000711	0.000515
Zn11	Zn	1.353074	0.250711	0.250515
Zn12	Zn	1.603074	0.500711	0.500515
Zn13	Zn	0.853043	-0.354032	-0.354206
Zn14	Zn	1.103043	-0.104032	-0.104206
Zn15	Zn	1.353043	0.145968	0.145794
Zn16	Zn	1.603043	0.395968	0.395794
O17	O	0.905435	-0.301651	-0.301851
O18	O	1.155435	-0.051651	-0.051851
O19	O	1.405435	0.198349	0.198149
O20	O	1.655435	0.448349	0.448149
O21	O	1.045524	-0.263142	-0.340358
O22	O	1.295524	-0.013142	-0.090358
O23	O	1.545524	0.236858	0.159642
O24	O	1.795524	0.486858	0.409642
O25	O	0.943847	-0.340135	-0.161790
O26	O	1.193847	-0.090135	0.088210
O27	O	1.443847	0.159865	0.338210
O28	O	1.693847	0.409865	0.588210
O29	O	0.867028	-0.161607	-0.263408
O30	O	1.117028	0.088393	-0.013408
O31	O	1.367028	0.338393	0.236592
O32	O	1.617028	0.588393	0.486592
O33	O	1.045453	-0.340108	-0.263375
O34	O	1.295453	-0.090108	-0.013375
O35	O	1.545453	0.159892	0.236625
O36	O	1.795453	0.409892	0.486625
O37	O	0.944013	-0.161587	-0.340378
O38	O	1.194013	0.088413	-0.090378
O39	O	1.444013	0.338413	0.159622
O40	O	1.694013	0.588413	0.409622
O41	O	0.866933	-0.263188	-0.161805
O42	O	1.116933	-0.013188	0.088195
O43	O	1.366933	0.236812	0.338195
O44	O	1.616933	0.486812	0.588195
O45	O	0.765392	-0.263199	-0.263367
O46	O	1.015392	-0.013199	-0.013367
O47	O	1.265392	0.236801	0.236633
O48	O	1.515392	0.486801	0.486633
O49	O	0.866975	-0.340127	-0.441889
O50	O	1.116975	-0.090127	-0.191889
O51	O	1.366975	0.159873	0.058111
O52	O	1.616975	0.409873	0.308111
O53	O	0.765370	-0.340154	-0.340305
O54	O	1.015370	-0.090154	-0.090305
O55	O	1.265370	0.159846	0.159695
O56	O	1.515370	0.409846	0.409695
O57	O	0.943983	-0.263152	-0.441921
O58	O	1.193983	-0.013152	-0.191921
O59	O	1.443983	0.236848	0.058079
O60	O	1.693983	0.486848	0.308079
O61	O	0.943817	-0.441700	-0.263333
O62	O	1.193817	-0.191700	-0.013333
O63	O	1.443817	0.058300	0.236667
O64	O	1.693817	0.308300	0.486667
O65	O	0.866881	-0.441709	-0.340286
O66	O	1.116881	-0.191709	-0.090286
O67	O	1.366881	0.058291	0.159714
O68	O	1.616881	0.308291	0.409714
C69	C	0.742647	-0.301681	-0.301834
C70	C	0.992647	-0.051681	-0.051834
C71	C	1.242647	0.198319	0.198166
C72	C	1.492647	0.448319	0.448166
C73	C	0.673006	-0.301709	-0.301841
C74	C	0.923006	-0.051709	-0.051841
C75	C	1.173006	0.198291	0.198159
C76	C	1.423006	0.448291	0.448159
C77	C	0.640352	-0.261698	-0.341988
C78	C	0.890352	-0.011698	-0.091988
C79	C	1.140352	0.238302	0.158012
C80	C	1.390352	0.488302	0.408012
C81	C	0.574917	-0.261682	-0.341991
C82	C	0.824917	-0.011682	-0.091991
C83	C	1.074917	0.238318	0.158009
C84	C	1.324917	0.488318	0.408009
C85	C	0.542137	-0.301687	-0.301852
C86	C	0.792137	-0.051687	-0.051852
C87	C	1.042137	0.198313	0.198148
C88	C	1.292137	0.448313	0.448148
C89	C	0.574799	-0.341701	-0.261697
C90	C	0.824799	-0.091701	-0.011697
C91	C	1.074799	0.158299	0.238303
C92	C	1.324799	0.408299	0.488303
C93	C	0.640233	-0.341712	-0.261692
C94	C	0.890233	-0.091712	-0.011692
C95	C	1.140233	0.158288	0.238308
C96	C	1.390233	0.408288	0.488308
C97	C	0.438413	-0.358112	-0.296812
C98	C	0.688413	-0.108112	-0.046812
C99	C	0.938413	0.141888	0.203188
C100	C	1.188413	0.391888	0.453188
C101	C	0.372980	-0.358102	-0.296822
C102	C	0.622980	-0.108102	-0.046822
C103	C	0.872980	0.141898	0.203178
C104	C	1.122980	0.391898	0.453178
C105	C	0.340317	-0.301653	-0.301866
C106	C	0.590317	-0.051653	-0.051866
C107	C	0.840317	0.198347	0.198134
C108	C	1.090317	0.448347	0.448134
C109	C	0.373094	-0.245212	-0.306914
C110	C	0.623094	0.004788	-0.056914
C111	C	0.873094	0.254788	0.193086
C112	C	1.123094	0.504788	0.443086
C113	C	0.438528	-0.245223	-0.306908
C114	C	0.688528	0.004777	-0.056908
C115	C	0.938528	0.254777	0.193092
C116	C	1.188528	0.504777	0.443092
C117	C	0.471185	-0.301679	-0.301854
C118	C	0.721185	-0.051679	-0.051854
C119	C	0.971185	0.198321	0.198146
C120	C	1.221185	0.448321	0.448146
C121	C	0.236711	-0.261620	-0.342018
C122	C	0.486711	-0.011620	-0.092018
C123	C	0.736711	0.238380	0.157982
C124	C	0.986711	0.488380	0.407982
C125	C	0.171274	-0.261603	-0.342016
C126	C	0.421274	-0.011603	-0.092016
C127	C	0.671274	0.238397	0.157984
C128	C	0.921274	0.488397	0.407984
C129	C	0.171157	-0.341627	-0.261726
C130	C	0.421157	-0.091627	-0.011726
C131	C	0.671157	0.158373	0.238274
C132	C	0.921157	0.408373	0.488274
C133	C	0.236593	-0.341640	-0.261725
C134	C	0.486593	-0.091640	-0.011725
C135	C	0.736593	0.158360	0.238275
C136	C	0.986593	0.408360	0.488275
C137	C	0.269365	-0.301637	-0.301874
C138	C	0.519365	-0.051637	-0.051874
C139	C	0.769365	0.198363	0.198126
C140	C	1.019365	0.448363	0.448126
C141	C	0.905352	-0.464438	-0.301816
C142	C	1.155352	-0.214438	-0.051816
C143	C	1.405352	0.035562	0.198184
C144	C	1.655352	0.285562	0.448184
C145	C	0.905374	-0.534080	-0.301822
C146	C	1.155374	-0.284080	-0.051822
C147	C	1.405374	-0.034080	0.198178
C148	C	1.655374	0.215920	0.448178
C149	C	0.945470	-0.566768	-0.261794
C150	C	1.195470	-0.316768	-0.011794
C151	C	1.445470	-0.066768	0.238206
C152	C	1.695470	0.183232	0.488206
C153	C	0.945499	-0.632203	-0.261808
C154	C	1.195499	-0.382203	-0.011808
C155	C	1.445499	-0.132203	0.238192
C156	C	1.695499	0.117797	0.488192
C157	C	0.905421	-0.664948	-0.301844
C158	C	1.155421	-0.414948	-0.051844
C159	C	1.405421	-0.164948	0.198156
C160	C	1.655421	0.085052	0.448156
C161	C	0.865322	-0.632252	-0.341880
C162	C	1.115322	-0.382252	-0.091880
C163	C	1.365322	-0.132252	0.158120
C164	C	1.615322	0.117748	0.408120
C165	C	0.865298	-0.566818	-0.341869
C166	C	1.115298	-0.316818	-0.091869
C167	C	1.365298	-0.066818	0.158131
C168	C	1.615298	0.183182	0.408131
C169	C	0.849006	-0.768678	-0.306754
C170	C	1.099006	-0.518678	-0.056754
C171	C	1.349006	-0.268678	0.193246
C172	C	1.599006	-0.018678	0.443246
C173	C	0.849029	-0.834111	-0.306760
C174	C	1.099029	-0.584111	-0.056760
C175	C	1.349029	-0.334111	0.193240
C176	C	1.599029	-0.084111	0.443240
C177	C	0.905494	-0.866769	-0.301881
C178	C	1.155494	-0.616769	-0.051881
C179	C	1.405494	-0.366769	0.198119
C180	C	1.655494	-0.116769	0.448119
C181	C	0.961938	-0.833986	-0.296982
C182	C	1.211938	-0.583986	-0.046982
C183	C	1.461938	-0.333986	0.203018
C184	C	1.711938	-0.083986	0.453018
C185	C	0.961915	-0.768551	-0.296971
C186	C	1.211915	-0.518551	-0.046971
C187	C	1.461915	-0.268551	0.203029
C188	C	1.711915	-0.018551	0.453029
C189	C	0.905442	-0.735900	-0.301860
C190	C	1.155442	-0.485900	-0.051860
C191	C	1.405442	-0.235900	0.198140
C192	C	1.655442	0.014100	0.448140
C193	C	0.945625	-0.970409	-0.261866
C194	C	1.195625	-0.720409	-0.011866
C195	C	1.445625	-0.470409	0.238134
C196	C	1.695625	-0.220409	0.488134
C197	C	0.945655	-1.035846	-0.261884
C198	C	1.195655	-0.785846	-0.011884
C199	C	1.445655	-0.535846	0.238116
C200	C	1.695655	-0.285846	0.488116
C201	C	0.865473	-1.035893	-0.341952
C202	C	1.115473	-0.785893	-0.091952
C203	C	1.365473	-0.535893	0.158048
C204	C	1.615473	-0.285893	0.408048
C205	C	0.865448	-0.970458	-0.341937
C206	C	1.115448	-0.720458	-0.091937
C207	C	1.365448	-0.470458	0.158063
C208	C	1.615448	-0.220458	0.408063
C209	C	0.905523	-0.937720	-0.301890
C210	C	1.155523	-0.687720	-0.051890
C211	C	1.405523	-0.437720	0.198110
C212	C	1.655523	-0.187720	0.448110
C213	C	1.068858	-0.301621	-0.301869
C214	C	1.318858	-0.051621	-0.051869
C215	C	1.568858	0.198379	0.198131
C216	C	1.818858	0.448379	0.448131
C217	C	1.138499	-0.301608	-0.301877
C218	C	1.388499	-0.051608	-0.051877
C219	C	1.638499	0.198392	0.198123
C220	C	1.888499	0.448392	0.448123
C221	C	0.905487	-0.301638	-0.465275
C222	C	1.155487	-0.051638	-0.215275
C223	C	1.405487	0.198362	0.034725
C224	C	1.655487	0.448362	0.284725
C225	C	0.905509	-0.301633	-0.534916
C226	C	1.155509	-0.051633	-0.284916
C227	C	1.405509	0.198367	-0.034916
C228	C	1.655509	0.448367	0.215084
C229	C	0.905535	-0.138227	-0.301900
C230	C	1.155535	0.111773	-0.051900
C231	C	1.405535	0.361773	0.198100
C232	C	1.655535	0.611773	0.448100
C233	C	0.905577	-0.068586	-0.301921
C234	C	1.155577	0.181414	-0.051921
C235	C	1.405577	0.431414	0.198079
C236	C	1.655577	0.681414	0.448079
C237	C	0.945605	-0.261550	-0.567646
C238	C	1.195605	-0.011550	-0.317646
C239	C	1.445605	0.238450	-0.067646
C240	C	1.695605	0.488450	0.182354
C241	C	0.945604	-0.261523	-0.633082
C242	C	1.195604	-0.011523	-0.383082
C243	C	1.445604	0.238477	-0.133082
C244	C	1.695604	0.488477	0.116918
C245	C	0.905514	-0.301590	-0.665784
C246	C	1.155514	-0.051590	-0.415784
C247	C	1.405514	0.198410	-0.165784
C248	C	1.655514	0.448410	0.084216
C249	C	0.865410	-0.341675	-0.633046
C250	C	1.115410	-0.091675	-0.383046
C251	C	1.365410	0.158325	-0.133046
C252	C	1.615410	0.408325	0.116954
C253	C	0.865407	-0.341697	-0.567612
C254	C	1.115407	-0.091697	-0.317612
C255	C	1.365407	0.158303	-0.067612
C256	C	1.615407	0.408303	0.182388
C257	C	0.900538	-0.358007	-0.769447
C258	C	1.150538	-0.108007	-0.519447
C259	C	1.400538	0.141993	-0.269447
C260	C	1.650538	0.391993	-0.019447
C261	C	0.900545	-0.357986	-0.834880
C262	C	1.150545	-0.107986	-0.584880
C263	C	1.400545	0.142014	-0.334880
C264	C	1.650545	0.392014	-0.084880
C265	C	0.905518	-0.301524	-0.867605
C266	C	1.155518	-0.051524	-0.617605
C267	C	1.405518	0.198476	-0.367605
C268	C	1.655518	0.448476	-0.117605
C269	C	0.910497	-0.245080	-0.834889
C270	C	1.160497	0.004920	-0.584889
C271	C	1.410497	0.254920	-0.334889
C272	C	1.660497	0.504920	-0.084889
C273	C	0.910494	-0.245101	-0.769455
C274	C	1.160494	0.004899	-0.519455
C275	C	1.410494	0.254899	-0.269455
C276	C	1.660494	0.504899	-0.019455
C277	C	0.905512	-0.301571	-0.736737
C278	C	1.155512	-0.051571	-0.486737
C279	C	1.405512	0.198429	-0.236737
C280	C	1.655512	0.448429	0.013263
C281	C	0.945615	-0.261409	-0.971288
C282	C	1.195615	-0.011409	-0.721288
C283	C	1.445615	0.238591	-0.471288
C284	C	1.695615	0.488591	-0.221288
C285	C	0.945610	-0.261381	-1.036725
C286	C	1.195610	-0.011381	-0.786725
C287	C	1.445610	0.238619	-0.536725
C288	C	1.695610	0.488619	-0.286725
C289	C	0.865419	-0.341538	-1.036688
C290	C	1.115419	-0.091538	-0.786688
C291	C	1.365419	0.158462	-0.536688
C292	C	1.615419	0.408462	-0.286688
C293	C	0.865421	-0.341561	-0.971252
C294	C	1.115421	-0.091561	-0.721252
C295	C	1.365421	0.158439	-0.471252
C296	C	1.615421	0.408439	-0.221252
C297	C	0.905522	-0.301497	-0.938556
C298	C	1.155522	-0.051497	-0.688556
C299	C	1.405522	0.198503	-0.438556
C300	C	1.655522	0.448503	-0.188556
C301	C	0.905419	-0.301618	-0.139064
C302	C	1.155419	-0.051618	0.110936
C303	C	1.405419	0.198382	0.360936
C304	C	1.655419	0.448382	0.610936
C305	C	0.905518	-0.301447	-0.069423
C306	C	1.155518	-0.051447	0.180577
C307	C	1.405518	0.198553	0.430577
C308	C	1.655518	0.448553	0.680577
H309	H	0.548325	-0.229097	-0.374682
H310	H	0.798325	0.020903	-0.124682
H311	H	1.048325	0.270903	0.125318
H312	H	1.298325	0.520903	0.375318
Br313	Br	0.999919	-0.676575	-0.207481
Br314	Br	1.249919	-0.426575	0.042519
Br315	Br	1.499919	-0.176575	0.292519
Br316	Br	1.749919	0.073425	0.542519
H317	H	0.263396	-0.229044	-0.374706
H318	H	0.513396	0.020956	-0.124706
H319	H	0.763396	0.270956	0.125294
H320	H	1.013396	0.520956	0.375294
H321	H	0.832691	-0.658917	-0.374478
H322	H	1.082691	-0.408917	-0.124478
H323	H	1.332691	-0.158917	0.125522
H324	H	1.582691	0.091083	0.375522
H325	H	0.896321	-0.403973	-0.742807
H326	H	1.146321	-0.153973	-0.492807
H327	H	1.396321	0.096027	-0.242807
H328	H	1.646321	0.346027	0.007193
Br329	Br	1.000041	-0.206987	-1.081146
Br330	Br	1.250041	0.043013	-0.831146
Br331	Br	1.500041	0.293013	-0.581146
Br332	Br	1.750041	0.543013	-0.331146
H333	H	0.144689	-0.229017	-0.374708
H334	H	0.394689	0.020983	-0.124708
H335	H	0.644689	0.270983	0.125292
H336	H	0.894689	0.520983	0.375292
H337	H	0.803022	-0.742094	-0.310730
H338	H	1.053022	-0.492094	-0.060730
H339	H	1.303022	-0.242094	0.189270
H340	H	1.553022	0.007906	0.439270
H341	H	0.346501	-0.199246	-0.311021
H342	H	0.596501	0.050754	-0.061021
H343	H	0.846501	0.300754	0.188979
H344	H	1.096501	0.550754	0.438979
H345	H	0.832843	-1.062554	-0.374552
H346	H	1.082843	-0.812554	-0.124552
H347	H	1.332843	-0.562554	0.125448
H348	H	1.582843	-0.312554	0.375448
H349	H	1.007873	-0.741861	-0.292984
H350	H	1.257873	-0.491861	-0.042984
H351	H	1.507873	-0.241861	0.207016
H352	H	1.757873	0.008139	0.457016
Br353	Br	0.280911	-0.395938	-0.207231
Br354	Br	0.530911	-0.145938	0.042769
Br355	Br	0.780911	0.104062	0.292769
Br356	Br	1.030911	0.354062	0.542769
Br357	Br	0.917252	-0.168447	-0.879293
Br358	Br	1.167252	0.081553	-0.629293
Br359	Br	1.417252	0.331553	-0.379293
Br360	Br	1.667252	0.581553	-0.129293
Br361	Br	1.038575	-0.878298	-0.290349
Br362	Br	1.288575	-0.628298	-0.040349
Br363	Br	1.538575	-0.378298	0.209651
Br364	Br	1.788575	-0.128298	0.459651
Br365	Br	1.000026	-0.207176	-0.523276
Br366	Br	1.250026	0.042824	-0.273276
Br367	Br	1.500026	0.292824	-0.023276
Br368	Br	1.750026	0.542824	0.226724
H369	H	0.978103	-0.540114	-0.229188
H370	H	1.228103	-0.290114	0.020812
H371	H	1.478103	-0.040114	0.270812
H372	H	1.728103	0.209886	0.520812
Br373	Br	1.000009	-0.925975	-0.207517
Br374	Br	1.250009	-0.675975	0.042483
Br375	Br	1.500009	-0.425975	0.292483
Br376	Br	1.750009	-0.175975	0.542483
Br377	Br	1.000083	-1.080210	-0.207562
Br378	Br	1.250083	-0.830210	0.042438
Br379	Br	1.500083	-0.580210	0.292438
Br380	Br	1.750083	-0.330210	0.542438
Br381	Br	0.684827	-0.207409	-0.396476
Br382	Br	0.934827	0.042591	-0.146476
Br383	Br	1.184827	0.292591	0.103524
Br384	Br	1.434827	0.542591	0.353524
H385	H	0.465213	-0.199267	-0.311016
H386	H	0.715213	0.050733	-0.061016
H387	H	0.965213	0.300733	0.188984
H388	H	1.215213	0.550733	0.438984
Br389	Br	0.126678	-0.395915	-0.207245
Br390	Br	0.376678	-0.145915	0.042755
Br391	Br	0.626678	0.104085	0.292755
Br392	Br	0.876678	0.354085	0.542755
H393	H	0.978254	-0.228880	-0.659736
H394	H	1.228254	0.021120	-0.409736
H395	H	1.478254	0.271120	-0.159736
H396	H	1.728254	0.521120	0.090264
H397	H	0.896494	-0.403946	-0.861512
H398	H	1.146494	-0.153946	-0.611512
H399	H	1.396494	0.096054	-0.361512
H400	H	1.646494	0.346054	-0.111512
Br401	Br	0.917249	-0.168503	-0.725057
Br402	Br	1.167249	0.081497	-0.475057
Br403	Br	1.417249	0.331497	-0.225057
Br404	Br	1.667249	0.581497	0.024943
H405	H	0.978265	-0.228783	-0.944666
H406	H	1.228265	0.021217	-0.694666
H407	H	1.478265	0.271217	-0.444666
H408	H	1.728265	0.521217	-0.194666
H409	H	0.832795	-0.943842	-0.374529
H410	H	1.082795	-0.693842	-0.124529
H411	H	1.332795	-0.443842	0.125471
H412	H	1.582795	-0.193842	0.375471
Br413	Br	0.811001	-0.395908	-1.081062
Br414	Br	1.061001	-0.145908	-0.831062
Br415	Br	1.311001	0.104092	-0.581062
Br416	Br	1.561001	0.354092	-0.331062
Br417	Br	0.811002	-0.395963	-0.926829
Br418	Br	1.061002	-0.145963	-0.676829
Br419	Br	1.311002	0.104037	-0.426829
Br420	Br	1.561002	0.354037	-0.176829
H421	H	0.465002	-0.404083	-0.292703
H422	H	0.715002	-0.154083	-0.042703
H423	H	0.965002	0.095917	0.207297
H424	H	1.215002	0.345917	0.457297
Br425	Br	0.328503	-0.434700	-0.289986
Br426	Br	0.578503	-0.184700	-0.039986
Br427	Br	0.828503	0.065300	0.210014
Br428	Br	1.078503	0.315300	0.460014
H429	H	0.548106	-0.374273	-0.229016
H430	H	0.798106	-0.124273	0.020984
H431	H	1.048106	0.125727	0.270984
H432	H	1.298106	0.375727	0.520984
Br433	Br	0.772427	-0.878596	-0.313405
Br434	Br	1.022427	-0.628596	-0.063405
Br435	Br	1.272427	-0.378596	0.186595
Br436	Br	1.522427	-0.128596	0.436595
H437	H	0.832766	-0.374296	-0.659676
H438	H	1.082766	-0.124296	-0.409676
H439	H	1.332766	0.125704	-0.159676
H440	H	1.582766	0.375704	0.090324
H441	H	0.832753	-0.374336	-0.540963
H442	H	1.082753	-0.124336	-0.290963
H443	H	1.332753	0.125664	-0.040963
H444	H	1.582753	0.375664	0.209037
H445	H	0.666819	-0.374295	-0.228998
H446	H	0.916819	-0.124295	0.021002
H447	H	1.166819	0.125705	0.271002
H448	H	1.416819	0.375705	0.521002
H449	H	0.832647	-0.540203	-0.374465
H450	H	1.082647	-0.290203	-0.124465
H451	H	1.332647	-0.040203	0.125535
H452	H	1.582647	0.209797	0.375535
