data_functionalizedCrystal
_audit_creation_method	'MofGen! by Chris Wilmer'
_symmetry_space_group_name_H-M	'P1'
_symmetry_Int_Tables_number	1
_symmetry_cell_setting	triclinic
loop_
_symmetry_equiv_pos_as_xyz
  x,y,z
_cell_length_a	21.395364
_cell_length_b	21.395361
_cell_length_c	21.395355
_cell_angle_alpha	90.021511
_cell_angle_beta	90.025677
_cell_angle_gamma	90.024740
loop_
_atom_site_label
_atom_site_type_symbol
_atom_site_fract_x
_atom_site_fract_y
_atom_site_fract_z
Zn1	Zn	-0.957859	0.249611	-0.354267
Zn2	Zn	-0.457859	0.749611	0.145733
Zn3	Zn	-0.957761	0.354371	-0.249484
Zn4	Zn	-0.457761	0.854371	0.250516
Zn5	Zn	-0.853074	0.249600	-0.249502
Zn6	Zn	-0.353074	0.749600	0.250498
Zn7	Zn	-0.853043	0.354344	-0.354222
Zn8	Zn	-0.353043	0.854344	0.145778
O9	O	-0.905434	0.301981	-0.301869
O10	O	-0.405434	0.801981	0.198131
O11	O	-1.045524	0.263523	-0.340379
O12	O	-0.545524	0.763523	0.159621
O13	O	-0.943847	0.340479	-0.161809
O14	O	-0.443847	0.840479	0.338191
O15	O	-0.867028	0.161924	-0.263425
O16	O	-0.367028	0.661924	0.236575
O17	O	-1.045452	0.340490	-0.263395
O18	O	-0.545452	0.840490	0.236605
O19	O	-0.944013	0.161932	-0.340396
O20	O	-0.444013	0.661932	0.159604
O21	O	-0.866933	0.263505	-0.161822
O22	O	-0.366933	0.763505	0.338178
O23	O	-0.765392	0.263479	-0.263382
O24	O	-0.265392	0.763479	0.236618
O25	O	-0.866975	0.340444	-0.441906
O26	O	-0.366975	0.840444	0.058094
O27	O	-0.765369	0.340433	-0.340320
O28	O	-0.265369	0.840433	0.159680
O29	O	-0.943983	0.263497	-0.441939
O30	O	-0.443983	0.763497	0.058061
O31	O	-0.943817	0.442045	-0.263352
O32	O	-0.443817	0.942045	0.236648
O33	O	-0.866881	0.442025	-0.340302
O34	O	-0.366881	0.942025	0.159698
C35	C	-0.742647	0.301952	-0.301848
C36	C	-0.242647	0.801952	0.198152
C37	C	-0.673006	0.301955	-0.301854
C38	C	-0.173006	0.801955	0.198146
C39	C	-0.905486	0.301969	-0.465292
C40	C	-0.405486	0.801969	0.034708
C41	C	-0.905509	0.301963	-0.534933
C42	C	-0.405509	0.801963	-0.034933
C43	C	-0.905352	0.464769	-0.301834
C44	C	-0.405352	0.964769	0.198166
C45	C	-0.905374	0.534410	-0.301840
C46	C	-0.405374	1.034410	0.198160
C47	C	-0.171246	0.261977	-0.342013
C48	C	0.328754	0.761977	0.157987
C49	C	-0.236681	0.261975	-0.342015
C50	C	0.263319	0.761975	0.157985
C51	C	-0.269367	0.301981	-0.301870
C52	C	0.230633	0.801981	0.198130
C53	C	-0.236612	0.342005	-0.261733
C54	C	0.263388	0.842005	0.238267
C55	C	-0.171178	0.342011	-0.261737
C56	C	0.328822	0.842011	0.238263
C57	C	-0.373004	0.306836	-0.245405
C58	C	0.126996	0.806836	0.254595
C59	C	-0.438437	0.306826	-0.245399
C60	C	0.061563	0.806826	0.254601
C61	C	-0.471188	0.301966	-0.301857
C62	C	0.028812	0.801966	0.198143
C63	C	-0.438498	0.297104	-0.358322
C64	C	0.061502	0.797104	0.141678
C65	C	-0.373064	0.297110	-0.358326
C66	C	0.126936	0.797110	0.141674
C67	C	-0.340320	0.301980	-0.301861
C68	C	0.159680	0.801980	0.198139
C69	C	-0.574888	0.261945	-0.341996
C70	C	-0.074888	0.761945	0.158004
C71	C	-0.640324	0.261947	-0.341998
C72	C	-0.140324	0.761947	0.158002
C73	C	-0.640254	0.341974	-0.261711
C74	C	-0.140254	0.841974	0.238289
C75	C	-0.574818	0.341976	-0.261714
C76	C	-0.074818	0.841976	0.238286
C77	C	-0.542139	0.301958	-0.301856
C78	C	-0.042139	0.801958	0.198144
C79	C	-0.068858	0.302003	-0.301885
C80	C	0.431142	0.802003	0.198115
C81	C	-0.138499	0.301993	-0.301879
C82	C	0.361501	0.801993	0.198121
C83	C	-0.905535	0.138558	-0.301918
C84	C	-0.405535	0.638558	0.198082
C85	C	-0.905577	0.068917	-0.301938
C86	C	-0.405577	0.568917	0.198062
C87	C	-0.945470	0.567113	-0.261813
C88	C	-0.445470	1.067113	0.238187
C89	C	-0.945499	0.632548	-0.261827
C90	C	-0.445499	1.132548	0.238173
C91	C	-0.905421	0.665279	-0.301861
C92	C	-0.405421	1.165279	0.198139
C93	C	-0.865322	0.632568	-0.341896
C94	C	-0.365322	1.132568	0.158104
C95	C	-0.865298	0.567134	-0.341886
C96	C	-0.365298	1.067134	0.158114
C97	C	-0.849006	0.768988	-0.306770
C98	C	-0.349006	1.268988	0.193230
C99	C	-0.849029	0.834421	-0.306777
C100	C	-0.349029	1.334421	0.193223
C101	C	-0.905494	0.867099	-0.301898
C102	C	-0.405494	1.367099	0.198102
C103	C	-0.961938	0.834337	-0.297000
C104	C	-0.461938	1.334337	0.203000
C105	C	-0.961915	0.768903	-0.296990
C106	C	-0.461915	1.268903	0.203010
C107	C	-0.905442	0.736231	-0.301878
C108	C	-0.405442	1.236231	0.198122
C109	C	-0.945625	0.970754	-0.261884
C110	C	-0.445625	1.470754	0.238116
C111	C	-0.945655	1.036191	-0.261903
C112	C	-0.445655	1.536191	0.238097
C113	C	-0.865472	1.036209	-0.341969
C114	C	-0.365472	1.536209	0.158031
C115	C	-0.865448	0.970774	-0.341954
C116	C	-0.365448	1.470774	0.158046
C117	C	-0.905523	0.938051	-0.301908
C118	C	-0.405523	1.438051	0.198092
C119	C	-0.945605	0.261895	-0.567665
C120	C	-0.445605	0.761895	-0.067665
C121	C	-0.945604	0.261868	-0.633100
C122	C	-0.445604	0.761868	-0.133100
C123	C	-0.905513	0.301921	-0.665802
C124	C	-0.405513	0.801921	-0.165802
C125	C	-0.865409	0.341991	-0.633063
C126	C	-0.365409	0.841991	-0.133063
C127	C	-0.865407	0.342013	-0.567629
C128	C	-0.365407	0.842013	-0.067629
C129	C	-0.900538	0.358335	-0.769464
C130	C	-0.400538	0.858335	-0.269464
C131	C	-0.900544	0.358315	-0.834897
C132	C	-0.400544	0.858315	-0.334897
C133	C	-0.905517	0.301854	-0.867623
C134	C	-0.405517	0.801854	-0.367623
C135	C	-0.910497	0.245412	-0.834907
C136	C	-0.410497	0.745412	-0.334907
C137	C	-0.910494	0.245434	-0.769473
C138	C	-0.410494	0.745434	-0.269473
C139	C	-0.905511	0.301902	-0.736754
C140	C	-0.405511	0.801902	-0.236754
C141	C	-0.945615	0.261754	-0.971307
C142	C	-0.445615	0.761754	-0.471307
C143	C	-0.945610	0.261726	-1.036743
C144	C	-0.445610	0.761726	-0.536743
C145	C	-0.865418	0.341854	-1.036704
C146	C	-0.365418	0.841854	-0.536704
C147	C	-0.865420	0.341877	-0.971269
C148	C	-0.365420	0.841877	-0.471269
C149	C	-0.905522	0.301827	-0.938574
C150	C	-0.405522	0.801827	-0.438574
C151	C	-0.905419	0.301949	-0.139081
C152	C	-0.405419	0.801949	0.360919
C153	C	-0.905518	0.301778	-0.069440
C154	C	-0.405518	0.801778	0.430560
H155	H	-0.144643	0.229394	-0.374703
H156	H	0.355357	0.729394	0.125297
H157	H	-0.465163	0.293144	-0.404295
H158	H	0.034837	0.793144	0.095705
H159	H	-0.978103	0.540471	-0.229207
H160	H	-0.478103	1.040471	0.270793
N161	N	-0.541495	0.221092	-0.383013
N162	N	-0.041495	0.721092	0.116987
N163	N	-0.504995	0.243210	-0.422894
N164	N	-0.004995	0.743210	0.077106
H165	H	-0.481409	0.214361	-0.451864
H166	H	0.018591	0.714361	0.048136
H167	H	-0.263349	0.229386	-0.374696
H168	H	0.236651	0.729386	0.125304
H169	H	-0.978254	0.229237	-0.659755
H170	H	-0.478254	0.729237	-0.159755
H171	H	-0.978152	0.659180	-0.229232
H172	H	-0.478152	1.159180	0.270768
N173	N	-0.339682	0.292144	-0.416004
N174	N	0.160318	0.792144	0.083996
N175	N	-0.368924	0.287803	-0.466411
N176	N	0.131076	0.787803	0.033589
H177	H	-0.345349	0.284297	-0.507147
H178	H	0.154651	0.784297	-0.007147
N179	N	-0.824534	1.069625	-0.382872
N180	N	-0.324534	1.569625	0.117128
N181	N	-0.828658	1.062280	-0.440689
N182	N	-0.328658	1.562280	0.059311
H183	H	-0.799746	1.085882	-0.469581
H184	H	-0.299746	1.585882	0.030419
H185	H	-0.832795	0.944146	-0.374545
H186	H	-0.332795	1.444146	0.125455
N187	N	-0.673624	0.382841	-0.220695
N188	N	-0.173624	0.882841	0.279305
N189	N	-0.644373	0.418564	-0.184858
N190	N	-0.144373	0.918564	0.315142
H191	H	-0.667942	0.447429	-0.155890
H192	H	-0.167942	0.947429	0.344110
H193	H	-1.007873	0.742229	-0.293003
H194	H	-0.507873	1.242229	0.206997
H195	H	-0.832753	0.374640	-0.540979
H196	H	-0.332753	0.874640	-0.040979
H197	H	-0.465048	0.310781	-0.199422
H198	H	0.034952	0.810781	0.300578
H199	H	-0.548155	0.374559	-0.229029
H200	H	-0.048155	0.874559	0.270971
N201	N	-0.339562	0.311803	-0.187725
N202	N	0.160438	0.811803	0.312275
N203	N	-0.368754	0.316136	-0.137316
N204	N	0.131246	0.816136	0.362684
H205	H	-0.345137	0.319645	-0.096581
H206	H	0.154863	0.819645	0.403419
N207	N	-0.673767	0.221072	-0.383008
N208	N	-0.173767	0.721072	0.116992
N209	N	-0.644579	0.185350	-0.418845
N210	N	-0.144579	0.685350	0.081155
H211	H	-0.668198	0.156481	-0.447810
H212	H	-0.168198	0.656481	0.052190
N213	N	-0.986560	0.220793	-1.070189
N214	N	-0.486560	0.720793	-0.570189
N215	N	-0.964542	0.180849	-1.106692
N216	N	-0.464542	0.680849	-0.606692
H217	H	-0.993464	0.151939	-1.130315
H218	H	-0.493464	0.651939	-0.630315
N219	N	-0.270006	0.382871	-0.220734
N220	N	0.229994	0.882871	0.279266
N221	N	-0.328429	0.382860	-0.220734
N222	N	0.171571	0.882860	0.279266
H223	H	-0.352014	0.411725	-0.191779
H224	H	0.147986	0.911725	0.308221
N225	N	-0.791369	0.867874	-0.311776
N226	N	-0.291369	1.367874	0.188224
N227	N	-0.740959	0.838692	-0.316141
N228	N	-0.240959	1.338692	0.183859
H229	H	-0.700235	0.862316	-0.319673
H230	H	-0.200235	1.362316	0.180327
N231	N	-0.791319	0.735621	-0.311761
N232	N	-0.291319	1.235621	0.188239
N233	N	-0.740929	0.764877	-0.316129
N234	N	-0.240929	1.264877	0.183871
H235	H	-0.700188	0.741313	-0.319655
H236	H	-0.200188	1.241313	0.180345
H237	H	-0.832773	0.374508	-0.944619
H238	H	-0.332773	0.874508	-0.444619
H239	H	-0.832691	0.659221	-0.374494
H240	H	-0.332691	1.159221	0.125506
H241	H	-0.896494	0.404274	-0.861529
H242	H	-0.396494	0.904274	-0.361529
N243	N	-0.137734	0.382894	-0.220736
N244	N	0.362266	0.882894	0.279264
N245	N	-0.166921	0.418617	-0.184899
N246	N	0.333079	0.918617	0.315101
H247	H	-0.143301	0.447491	-0.155940
H248	H	0.356699	0.947491	0.344060
H249	H	-1.007918	0.860942	-0.293028
H250	H	-0.507918	1.360942	0.206972
H251	H	-0.978264	0.229140	-0.944685
H252	H	-0.478264	0.729140	-0.444685
N253	N	-0.986578	0.937327	-0.220998
N254	N	-0.486578	1.437327	0.279002
N255	N	-1.026479	0.900773	-0.243080
N256	N	-0.526479	1.400773	0.256920
H257	H	-1.055406	0.877167	-0.214205
H258	H	-0.555406	1.377167	0.285795
H259	H	-0.978310	1.062816	-0.229309
H260	H	-0.478310	1.562816	0.270691
N261	N	-0.824337	0.533735	-0.382780
N262	N	-0.324337	1.033735	0.117220
N263	N	-0.788559	0.562962	-0.418528
N264	N	-0.288559	1.062962	0.081472
H265	H	-0.759629	0.539374	-0.447411
H266	H	-0.259629	1.039374	0.052589
H267	H	-0.978258	0.229283	-0.541049
H268	H	-0.478258	0.729283	-0.041049
H269	H	-0.914547	0.199476	-0.742838
H270	H	-0.414547	0.699476	-0.242838
H271	H	-0.832770	0.374459	-1.063330
H272	H	-0.332770	0.874459	-0.563330
H273	H	-0.914547	0.199436	-0.861551
H274	H	-0.414547	0.699436	-0.361551
N275	N	-0.895451	0.416018	-0.736049
N276	N	-0.395451	0.916018	-0.236049
N277	N	-0.891011	0.466406	-0.765264
N278	N	-0.391011	0.966406	-0.265264
H279	H	-0.887417	0.507144	-0.741666
H280	H	-0.387417	1.007144	-0.241666
N281	N	-0.824458	0.382896	-0.666473
N282	N	-0.324458	0.882896	-0.166473
N283	N	-0.824465	0.382872	-0.724896
N284	N	-0.324465	0.882872	-0.224896
H285	H	-0.795540	0.411759	-0.748493
H286	H	-0.295540	0.911759	-0.248493
