data_functionalizedCrystal
_audit_creation_method	'MofGen! by Chris Wilmer'
_symmetry_space_group_name_H-M	'P1'
_symmetry_Int_Tables_number	1
_symmetry_cell_setting	triclinic
loop_
_symmetry_equiv_pos_as_xyz
  x,y,z
_cell_length_a	14.971486
_cell_length_b	19.188930
_cell_length_c	13.448316
_cell_angle_alpha	90.011727
_cell_angle_beta	90.001801
_cell_angle_gamma	83.379455
loop_
_atom_site_label
_atom_site_type_symbol
_atom_site_fract_x
_atom_site_fract_y
_atom_site_fract_z
O1	O	1.186467	0.090988	0.082589
O2	O	0.926009	0.101884	0.082618
O3	O	1.063754	-0.005195	0.082583
O4	O	1.048722	0.198067	0.082624
O5	O	1.063737	-0.005202	-0.082801
O6	O	0.925992	0.101877	-0.082766
O7	O	1.186450	0.090981	-0.082795
Cu8	Cu	1.056219	0.096429	-0.097881
Cu9	Cu	1.056239	0.096437	0.097704
O10	O	1.048704	0.198061	-0.082760
C11	C	0.892678	0.101393	-0.000071
C12	C	0.793389	0.099933	-0.000061
C13	C	0.735831	0.162839	-0.000050
C14	C	0.642539	0.161463	-0.000065
C15	C	0.606806	0.097180	-0.000084
C16	C	0.664371	0.034269	-0.000098
C17	C	0.757662	0.035646	-0.000090
C18	C	0.469924	0.031403	-0.000112
C19	C	0.376627	0.030026	-0.000119
C20	C	0.354801	0.157221	-0.000087
C21	C	0.448092	0.158598	-0.000079
C22	C	0.505650	0.095686	-0.000091
C23	C	1.063259	-0.031211	-0.000112
C24	C	1.061797	-0.108721	-0.000120
C25	C	1.142622	-0.153384	-0.000134
C26	C	1.141249	-0.226213	-0.000118
C27	C	1.059047	-0.254374	-0.000108
C28	C	0.978212	-0.209700	-0.000089
C29	C	0.979587	-0.136874	-0.000095
N30	N	0.996208	-0.362583	-0.056384
N31	N	0.994907	-0.431766	-0.056381
C32	C	1.054899	-0.473796	-0.000087
N33	N	1.116254	-0.444030	0.056190
N34	N	1.117558	-0.374842	0.056182
C35	C	1.057547	-0.333341	-0.000101
C36	C	1.134240	-0.597429	-0.000082
C37	C	1.132864	-0.670258	-0.000060
C38	C	0.969825	-0.653744	-0.000041
C39	C	0.971203	-0.580916	-0.000053
C40	C	1.053413	-0.552763	-0.000078
C41	C	1.219780	0.091472	-0.000104
C42	C	1.319070	0.092932	-0.000107
C43	C	1.049200	0.224077	-0.000063
C44	C	1.050661	0.301586	-0.000048
N45	N	1.056211	0.096423	-0.235446
C46	C	1.117224	0.049028	-0.287501
C47	C	1.117229	0.049027	-0.391604
C48	C	1.056226	0.096426	-0.443650
C49	C	0.995207	0.143823	-0.391587
C50	C	0.995198	0.143820	-0.287486
C51	C	0.995232	0.143828	-0.608567
C52	C	0.995242	0.143832	-0.712676
C53	C	1.117263	0.049035	-0.712686
C54	C	1.117254	0.049032	-0.608585
C55	C	1.056236	0.096430	-0.556529
N56	N	1.056254	0.096437	0.235268
H57	H	0.804525	-0.015579	-0.000099
H58	H	0.945533	0.182414	-0.433969
H59	H	1.166903	0.010433	-0.245132
C60	C	1.224667	-0.566454	-0.000095
C61	C	1.226184	-0.486348	-0.000109
C62	C	1.316611	-0.455376	-0.000120
C63	C	1.405521	-0.504510	-0.000116
C64	C	1.404007	-0.584621	-0.000102
C65	C	1.313580	-0.615593	-0.000091
H66	H	1.160365	-0.449972	-0.000111
H67	H	1.317732	-0.396073	-0.000130
H68	H	1.472461	-0.481582	-0.000125
H69	H	1.469826	-0.620997	-0.000100
H70	H	1.312460	-0.674896	-0.000081
H71	H	1.209564	-0.130467	-0.000151
C72	C	0.928085	0.195957	-0.230222
C73	C	0.861013	0.248119	-0.287466
C74	C	0.793894	0.300256	-0.230204
C75	C	0.793847	0.300230	-0.115696
C76	C	0.860921	0.248066	-0.058445
C77	C	0.928040	0.195929	-0.115708
H78	H	0.861046	0.248140	-0.372237
H79	H	0.744241	0.338871	-0.272585
H80	H	0.744162	0.338824	-0.073307
H81	H	0.860889	0.248045	0.026326
H82	H	0.977693	0.157314	-0.073326
H83	H	0.347537	-0.022319	-0.000135
C84	C	0.882294	-0.531781	-0.000056
C85	C	0.791871	-0.562752	-0.000048
C86	C	0.702957	-0.513616	-0.000050
C87	C	0.704466	-0.433510	-0.000060
C88	C	0.794892	-0.402534	-0.000067
C89	C	0.883806	-0.451670	-0.000066
H90	H	0.790751	-0.622056	-0.000041
H91	H	0.636018	-0.536547	-0.000044
H92	H	0.638646	-0.397136	-0.000061
H93	H	0.796012	-0.343231	-0.000074
H94	H	0.950746	-0.428740	-0.000071
C95	C	0.487396	0.229310	-0.000059
C96	C	0.465569	0.281583	-0.085931
C97	C	0.504871	0.352297	-0.085915
C98	C	0.566001	0.370739	-0.000027
C99	C	0.587830	0.318465	0.085851
C100	C	0.548528	0.247751	0.085835
H101	H	0.420315	0.267932	-0.149516
H102	H	0.488711	0.390993	-0.149488
H103	H	0.595094	0.423086	-0.000015
H104	H	0.633085	0.332116	0.149436
H105	H	0.564689	0.209055	0.149408
C106	C	1.184380	-0.003106	-0.769945
C107	C	1.251489	-0.055241	-0.712704
C108	C	1.318606	-0.107377	-0.769970
C109	C	1.318614	-0.107378	-0.884477
C110	C	1.251502	-0.055242	-0.941725
C111	C	1.184385	-0.003106	-0.884459
H112	H	1.251486	-0.055242	-0.627933
H113	H	1.368287	-0.145972	-0.727590
H114	H	1.368298	-0.145972	-0.926869
H115	H	1.251505	-0.055241	-1.026496
H116	H	1.134704	0.035489	-0.926839
C117	C	0.533242	-0.037798	-0.000124
C118	C	0.529427	-0.090461	-0.086012
C119	C	0.592745	-0.159660	-0.086018
C120	C	0.659879	-0.176196	-0.000136
C121	C	0.663697	-0.123533	0.085758
C122	C	0.600379	-0.054334	0.085764
H123	H	0.479728	-0.078220	-0.149592
H124	H	0.589919	-0.198644	-0.149603
H125	H	0.706752	-0.227422	-0.000140
H126	H	0.713396	-0.135773	0.149339
H127	H	0.603205	-0.015349	0.149349
C128	C	1.184357	-0.003105	-0.551329
C129	C	1.183176	-0.082615	-0.565661
C130	C	1.250277	-0.134753	-0.508404
C131	C	1.318559	-0.107381	-0.436814
C132	C	1.319742	-0.027866	-0.422479
C133	C	1.252641	0.024272	-0.479736
H134	H	1.132628	-0.102882	-0.618659
H135	H	1.249401	-0.193615	-0.519017
H136	H	1.368231	-0.145977	-0.394429
H137	H	1.370290	-0.007600	-0.369481
H138	H	1.253517	0.083134	-0.469123
C139	C	1.230161	-0.275353	-0.000138
C140	C	1.251654	-0.327678	0.085737
C141	C	1.340566	-0.376816	0.085715
C142	C	1.407986	-0.373628	-0.000183
C143	C	1.386496	-0.321301	-0.086066
C144	C	1.297583	-0.272164	-0.086043
H145	H	1.201743	-0.330040	0.149330
H146	H	1.356474	-0.415552	0.149291
H147	H	1.473805	-0.410003	-0.000200
H148	H	1.436406	-0.318940	-0.149658
H149	H	1.281675	-0.233428	-0.149619
H150	H	0.911283	-0.232634	-0.000079
H151	H	0.764917	0.215186	-0.000034
H152	H	0.595679	0.212688	-0.000055
H153	H	0.307932	0.208445	-0.000082
H154	H	0.635271	-0.018072	-0.000128
H155	H	0.945566	0.182428	-0.755046
H156	H	0.913768	-0.100507	-0.000084
H157	H	1.198683	-0.706623	-0.000065
H158	H	1.166909	0.010434	-0.433988
H159	H	0.945542	0.182423	-0.566187
H160	H	0.902894	-0.676672	-0.000028
