data_functionalizedCrystal
_audit_creation_method	'MofGen! by Chris Wilmer'
_symmetry_space_group_name_H-M	'P1'
_symmetry_Int_Tables_number	1
_symmetry_cell_setting	triclinic
loop_
_symmetry_equiv_pos_as_xyz
  x,y,z
_cell_length_a	17.077404
_cell_length_b	16.959453
_cell_length_c	17.077396
_cell_angle_alpha	90.029064
_cell_angle_beta	90.018362
_cell_angle_gamma	90.017958
loop_
_atom_site_label
_atom_site_type_symbol
_atom_site_fract_x
_atom_site_fract_y
_atom_site_fract_z
Zn1	Zn	1.200070	-0.314724	0.443816
Zn2	Zn	1.199984	-0.446912	0.312548
Zn3	Zn	1.068802	-0.314747	0.312566
Zn4	Zn	1.068777	-0.446860	0.443775
O5	O	1.134408	-0.380811	0.378176
O6	O	1.309906	-0.332272	0.426413
O7	O	1.182557	-0.429411	0.202704
O8	O	1.086262	-0.204133	0.330001
O9	O	1.309842	-0.429390	0.329971
O10	O	1.182704	-0.204116	0.426430
O11	O	1.086178	-0.332310	0.202717
O12	O	0.958952	-0.332260	0.329962
O13	O	1.086219	-0.429301	0.553627
O14	O	0.958933	-0.429323	0.426360
O15	O	1.182680	-0.332221	0.553657
O16	O	1.182532	-0.557516	0.329931
O17	O	1.086135	-0.557478	0.426342
C18	C	0.930461	-0.380788	0.378159
C19	C	0.843211	-0.380798	0.378170
C20	C	0.802254	-0.330319	0.428463
C21	C	0.720274	-0.330324	0.428467
C22	C	0.679251	-0.380813	0.378180
C23	C	0.720213	-0.431294	0.327881
C24	C	0.802192	-0.431285	0.327874
C25	C	0.549343	-0.431312	0.327900
C26	C	0.467359	-0.431323	0.327908
C27	C	0.467425	-0.330351	0.428494
C28	C	0.549404	-0.330342	0.428487
C29	C	0.590360	-0.380824	0.378188
C30	C	1.134343	-0.586177	0.378147
C31	C	1.134387	-0.674034	0.378161
C32	C	1.184690	-1.045442	0.428481
C33	C	1.084346	-1.045576	0.327988
C34	C	1.084317	-0.963031	0.327970
C35	C	1.134474	-0.921687	0.378209
C36	C	1.184661	-0.962889	0.428466
C37	C	1.034126	-0.921822	0.277719
C38	C	1.034094	-0.839271	0.277699
C39	C	1.084256	-0.797926	0.327935
C40	C	1.134445	-0.839133	0.378194
C41	C	1.184603	-0.797789	0.428434
C42	C	1.234796	-0.838995	0.478689
C43	C	1.234823	-0.921543	0.478702
C44	C	1.084229	-0.715378	0.327922
C45	C	1.184573	-0.715236	0.428419
C46	C	1.339153	-0.380834	0.378194
C47	C	1.426402	-0.380844	0.378202
C48	C	1.134456	-0.380753	0.582921
C49	C	1.134476	-0.380728	0.670170
C50	C	1.134496	-0.174643	0.378222
C51	C	1.134533	-0.086786	0.378242
C52	C	1.134406	-0.380812	0.174228
C53	C	1.134538	-0.380614	0.086979
C54	C	1.184705	-0.330174	0.711178
C55	C	1.184715	-0.330148	0.793158
C56	C	1.134498	-0.380680	0.834130
C57	C	1.084264	-0.431236	0.793117
C58	C	1.084251	-0.431257	0.711138
C59	C	1.084296	-0.431188	0.963987
C60	C	1.084309	-0.431168	1.045972
C61	C	1.184759	-0.330079	1.046007
C62	C	1.184746	-0.330100	0.964028
C63	C	1.134512	-0.380657	0.923021
H64	H	0.835538	-0.472390	0.286919
H65	H	1.225641	-0.288957	0.930671
C66	C	1.240016	-0.274463	1.091111
C67	C	1.240031	-0.274431	1.181285
C68	C	1.295290	-0.218821	1.226392
C69	C	1.350533	-0.163244	1.181326
C70	C	1.350519	-0.163274	1.091148
C71	C	1.295261	-0.218883	1.046040
H72	H	1.199135	-0.315575	1.214650
H73	H	1.295299	-0.218799	1.293149
H74	H	1.391438	-0.122078	1.214718
H75	H	1.391415	-0.122130	1.057782
H76	H	1.295251	-0.218905	0.979283
H77	H	1.225421	-0.681579	0.469327
C78	C	1.029099	-0.486779	1.091043
C79	C	0.973860	-0.542407	1.045941
C80	C	0.918665	-0.598034	1.091012
C81	C	0.918709	-0.598035	1.181186
C82	C	0.973949	-0.542405	1.226293
C83	C	1.029145	-0.486778	1.181222
H84	H	0.973826	-0.542408	0.979184
H85	H	0.877772	-0.639215	1.057621
H86	H	0.877850	-0.639214	1.214551
H87	H	0.973984	-0.542404	1.293050
H88	H	1.070038	-0.445597	1.214614
H89	H	0.993288	-0.955491	0.236819
H90	H	1.043378	-0.472345	0.930602
C91	C	0.594527	-0.274805	0.483806
C92	C	0.583288	-0.281372	0.573032
C93	C	0.628409	-0.225833	0.628351
C94	C	0.684768	-0.163727	0.594445
C95	C	0.696009	-0.157157	0.505214
C96	C	0.650888	-0.212696	0.449895
H97	H	0.541565	-0.327349	0.598135
H98	H	0.620087	-0.230697	0.694406
H99	H	0.718169	-0.122614	0.635396
H100	H	0.737732	-0.111180	0.480111
H101	H	0.659210	-0.207832	0.383840
H102	H	0.993224	-0.805727	0.236778
C103	C	1.239969	-0.274543	0.838270
C104	C	1.205993	-0.212464	0.894635
C105	C	1.261249	-0.156856	0.939749
C106	C	1.350482	-0.163329	0.928496
C107	C	1.384463	-0.225411	0.872128
C108	C	1.329206	-0.281018	0.827015
H109	H	1.139934	-0.207670	0.902967
H110	H	1.236094	-0.110899	0.981476
H111	H	1.391386	-0.122165	0.961892
H112	H	1.450522	-0.230204	0.863796
H113	H	1.354362	-0.326975	0.785288
C114	C	0.422371	-0.274820	0.483820
C115	C	0.433656	-0.184952	0.477584
C116	C	0.388596	-0.129429	0.532911
C117	C	0.332251	-0.163773	0.594475
C118	C	0.320964	-0.253646	0.600714
C119	C	0.366024	-0.309169	0.545386
H120	H	0.475368	-0.159524	0.432008
H121	H	0.396952	-0.062899	0.528292
H122	H	0.298895	-0.122671	0.635432
H123	H	0.279252	-0.279074	0.646289
H124	H	0.357668	-0.375699	0.550005
C125	C	1.029003	-0.486869	0.666024
C126	C	0.939770	-0.480407	0.677280
C127	C	0.884518	-0.536018	0.632165
C128	C	0.918499	-0.598089	0.575794
C129	C	1.007736	-0.604553	0.564535
C130	C	1.062988	-0.548943	0.609650
H131	H	0.914611	-0.434456	0.719012
H132	H	0.818458	-0.531232	0.640500
H133	H	0.877598	-0.639255	0.542397
H134	H	1.032895	-0.650504	0.522803
H135	H	1.129047	-0.553728	0.601315
C136	C	1.029036	-0.486828	0.838190
C137	C	1.035415	-0.576688	0.826894
C138	C	0.980194	-0.632288	0.871968
C139	C	0.918594	-0.598028	0.928338
C140	C	0.912213	-0.508163	0.939636
C141	C	0.967434	-0.452564	0.894562
H142	H	1.081017	-0.602054	0.785163
H143	H	0.984918	-0.698812	0.863603
H144	H	0.877716	-0.639186	0.961704
H145	H	0.866611	-0.482798	0.981367
H146	H	0.962710	-0.386040	0.902927
H147	H	0.433960	-0.472436	0.286961
H148	H	0.835649	-0.289207	0.469415
C149	C	1.029176	-1.091055	0.272728
C150	C	1.063250	-1.147828	0.211147
C151	C	1.008079	-1.193312	0.155884
C152	C	0.918834	-1.182021	0.162203
C153	C	0.884755	-1.125245	0.223787
C154	C	0.939926	-1.079762	0.279050
H155	H	1.129319	-1.156189	0.206467
H156	H	1.033307	-1.235341	0.110295
H157	H	0.877993	-1.215691	0.121294
H158	H	0.818686	-1.116885	0.228467
H159	H	0.914698	-1.037732	0.324639
C160	C	0.594399	-0.486843	0.272573
C161	C	0.583093	-0.480285	0.183349
C162	C	0.628150	-0.535817	0.128027
C163	C	0.684512	-0.597907	0.161929
C164	C	0.695820	-0.604468	0.251159
C165	C	0.650763	-0.548936	0.306481
H166	H	0.541369	-0.434319	0.158248
H167	H	0.619779	-0.530959	0.061973
H168	H	0.717865	-0.639015	0.120977
H169	H	0.737544	-0.650434	0.276260
H170	H	0.659134	-0.553794	0.372535
H171	H	0.686806	-0.472399	0.286933
H172	H	1.275632	-0.805323	0.519598
H173	H	0.686931	-0.289220	0.469423
H174	H	1.275687	-0.955100	0.519618
H175	H	1.225559	-1.078995	0.469396
H176	H	1.043359	-0.681832	0.287009
H177	H	1.225599	-0.289028	0.677824
