data_functionalizedCrystal
_audit_creation_method	'MofGen! by Chris Wilmer'
_symmetry_space_group_name_H-M	'P1'
_symmetry_Int_Tables_number	1
_symmetry_cell_setting	triclinic
loop_
_symmetry_equiv_pos_as_xyz
  x,y,z
_cell_length_a	27.780882
_cell_length_b	27.780884
_cell_length_c	27.780936
_cell_angle_alpha	90.002261
_cell_angle_beta	120.002201
_cell_angle_gamma	60.000211
loop_
_atom_site_label
_atom_site_type_symbol
_atom_site_fract_x
_atom_site_fract_y
_atom_site_fract_z
O1	O	-0.424592	-0.330213	-0.014321
O2	O	-0.326022	-0.260214	0.014251
O3	O	-0.424588	-0.260214	-0.084318
O4	O	-0.326026	-0.330213	0.084247
O5	O	-0.344528	-0.340274	-0.084318
O6	O	-0.245962	-0.340274	0.014251
O7	O	-0.344532	-0.410273	-0.014321
Cu8	Cu	-0.287937	-0.382584	-0.000035
Cu9	Cu	-0.382617	-0.287904	-0.000035
O10	O	-0.245966	-0.410273	0.084248
C11	C	-0.177734	-0.120430	0.029862
C12	C	-0.211527	-0.056934	0.025772
C13	C	-0.119397	-0.149664	0.030267
C14	C	-0.177730	-0.207598	0.029867
C15	C	-0.211519	-0.237303	0.025783
C16	C	-0.119393	-0.236700	0.030273
C17	C	-0.090568	-0.207596	0.029862
C18	C	-0.031162	-0.237298	0.025772
C19	C	-0.206427	-0.149666	0.030273
C20	C	0.016831	-0.261295	0.022466
C21	C	-0.238829	-0.005636	0.022467
C22	C	-0.238818	-0.261301	0.022482
C23	C	0.077040	-0.291400	0.018321
C24	C	-0.273079	0.058719	0.018322
C25	C	-0.273065	-0.291409	0.018343
C26	C	-0.492828	-0.207603	-0.372394
C27	C	-0.459037	-0.237307	-0.402098
C28	C	-0.551166	-0.149673	-0.401496
C29	C	-0.492828	-0.207604	-0.285228
C30	C	-0.459036	-0.237307	-0.221733
C31	C	-0.551166	-0.149673	-0.314463
C32	C	-0.579994	-0.120438	-0.372393
C33	C	-0.639400	-0.056943	-0.402096
C34	C	-0.464132	-0.236706	-0.314464
C35	C	-0.687394	-0.005646	-0.426092
C36	C	-0.431736	-0.261304	-0.426095
C37	C	-0.431736	-0.261304	-0.170435
C38	C	-0.747605	0.058709	-0.456197
C39	C	-0.397486	-0.291409	-0.456201
C40	C	-0.397486	-0.291410	-0.106080
C41	C	-0.580008	-0.462879	-0.029964
C42	C	-0.639417	-0.433174	-0.025878
C43	C	-0.551182	-0.520809	-0.030373
C44	C	-0.492839	-0.462880	-0.029960
C45	C	-0.459045	-0.433178	-0.025869
C46	C	-0.464144	-0.520811	-0.030368
C47	C	-0.492842	-0.550045	-0.029964
C48	C	-0.459052	-0.613540	-0.025878
C49	C	-0.551178	-0.433777	-0.030369
C50	C	-0.431752	-0.664837	-0.022575
C51	C	-0.687412	-0.409177	-0.022576
C52	C	-0.431742	-0.409182	-0.022562
C53	C	-0.397504	-0.729192	-0.018433
C54	C	-0.747625	-0.379070	-0.018434
C55	C	-0.397490	-0.379077	-0.018415
O56	O	0.234707	-0.410266	-0.014339
O57	O	0.094711	-0.340265	0.014229
O58	O	0.094704	-0.340270	-0.084338
O59	O	0.234714	-0.410261	0.084228
O60	O	0.094701	-0.260209	-0.084343
O61	O	0.094708	-0.260204	0.014225
O62	O	0.234704	-0.330205	-0.014344
Cu63	Cu	0.164706	-0.287894	-0.000060
Cu64	Cu	0.164709	-0.382576	-0.000055
O65	O	0.234711	-0.330200	0.084223
O66	O	-0.344549	0.249047	-0.014343
O67	O	-0.245980	0.080483	0.014226
O68	O	-0.344550	0.179042	-0.084342
O69	O	-0.245978	0.150488	0.084224
O70	O	-0.424607	0.179040	-0.084336
O71	O	-0.326036	0.080480	0.014231
O72	O	-0.424605	0.249045	-0.014338
Cu73	Cu	-0.382630	0.164762	-0.000053
Cu74	Cu	-0.287954	0.164765	-0.000059
O75	O	-0.326034	0.150486	0.084230
O76	O	-0.905273	0.249033	-0.494995
O77	O	-0.765273	0.080470	-0.425001
O78	O	-0.765270	0.179032	-0.424994
O79	O	-0.905276	0.150471	-0.495003
O80	O	-0.765272	0.179034	-0.505055
O81	O	-0.765275	0.080472	-0.505062
O82	O	-0.905275	0.249035	-0.575056
Cu83	Cu	-0.835275	0.164754	-0.547369
Cu84	Cu	-0.835273	0.164751	-0.452688
O85	O	-0.905278	0.150473	-0.575063
O86	O	-0.326020	-0.330218	-0.575063
O87	O	-0.424588	-0.260215	-0.505065
O88	O	-0.326020	-0.260217	-0.505059
O89	O	-0.424589	-0.330216	-0.575069
O90	O	-0.245961	-0.340275	-0.425000
O91	O	-0.344530	-0.340273	-0.425006
O92	O	-0.245962	-0.410276	-0.495003
Cu93	Cu	-0.287936	-0.382585	-0.452694
Cu94	Cu	-0.382614	-0.287906	-0.547374
O95	O	-0.344531	-0.410274	-0.495009
C96	C	-0.090559	-0.550051	0.372323
C97	C	-0.031152	-0.613546	0.402025
C98	C	-0.119386	-0.520817	0.401426
C99	C	-0.177725	-0.462885	0.285158
C100	C	-0.211517	-0.433181	0.221663
C101	C	-0.206420	-0.433783	0.314394
C102	C	-0.177724	-0.462886	0.372324
C103	C	-0.211515	-0.433183	0.402029
C104	C	-0.119387	-0.520816	0.314392
C105	C	-0.238815	-0.409187	0.426026
C106	C	0.016842	-0.664843	0.426021
C107	C	-0.238818	-0.409184	0.170365
C108	C	-0.273064	-0.379082	0.456133
C109	C	0.077053	-0.729198	0.456125
C110	C	-0.273068	-0.379078	0.106010
C111	C	-0.177761	-0.120445	-0.372420
C112	C	-0.211554	-0.056951	-0.402125
C113	C	-0.206457	-0.149682	-0.401521
C114	C	-0.090590	-0.207608	-0.285252
C115	C	-0.031179	-0.237308	-0.221756
C116	C	-0.119418	-0.236712	-0.314485
C117	C	-0.177759	-0.207612	-0.372416
C118	C	-0.211551	-0.237318	-0.402117
C119	C	-0.119420	-0.149677	-0.314489
C120	C	-0.238852	-0.261316	-0.426113
C121	C	-0.238857	-0.005654	-0.426124
C122	C	0.016817	-0.261303	-0.170458
C123	C	-0.273102	-0.291424	-0.456216
C124	C	-0.273109	0.058701	-0.456232
C125	C	0.077032	-0.291406	-0.106103
C126	C	0.507174	-0.462860	0.372301
C127	C	0.540966	-0.433155	0.402003
C128	C	0.535872	-0.520790	0.401406
C129	C	0.420004	-0.462864	0.285137
C130	C	0.360594	-0.433163	0.221642
C131	C	0.448834	-0.520794	0.314373
C132	C	0.507175	-0.550027	0.372304
C133	C	0.540968	-0.613521	0.402010
C134	C	0.448833	-0.433760	0.314371
C135	C	0.568270	-0.664818	0.426008
C136	C	0.568268	-0.409157	0.425999
C137	C	0.312597	-0.409168	0.170343
C138	C	0.602522	-0.729173	0.456115
C139	C	0.602518	-0.379050	0.456103
C140	C	0.252383	-0.379064	0.105988
C141	C	-0.580005	0.194619	-0.372405
C142	C	-0.639409	0.190525	-0.402104
C143	C	-0.551178	0.195023	-0.401510
C144	C	-0.492843	0.194635	-0.285245
C145	C	-0.459054	0.190558	-0.221751
C146	C	-0.464149	0.195039	-0.314482
C147	C	-0.492843	0.194621	-0.372410
C148	C	-0.459052	0.190530	-0.402115
C149	C	-0.551179	0.195036	-0.314476
C150	C	-0.431752	0.187222	-0.426113
C151	C	-0.687401	0.187216	-0.426097
C152	C	-0.431754	0.187263	-0.170455
C153	C	-0.397503	0.183075	-0.456220
C154	C	-0.747609	0.183066	-0.456199
C155	C	-0.397506	0.183130	-0.106101
O156	O	-0.424649	0.249027	-0.575092
O157	O	-0.326070	0.080461	-0.505095
O158	O	-0.424629	0.179018	-0.505082
O159	O	-0.326090	0.150471	-0.575105
O160	O	-0.344563	0.179021	-0.425026
O161	O	-0.246004	0.080464	-0.425039
O162	O	-0.344583	0.249030	-0.495036
Cu163	Cu	-0.287983	0.164747	-0.452728
Cu164	Cu	-0.382670	0.164744	-0.547403
O165	O	-0.246024	0.150474	-0.495049
C166	C	-0.177742	0.134906	0.372298
C167	C	-0.211532	0.138997	0.402003
C168	C	-0.119406	0.134505	0.401398
C169	C	-0.177741	0.134893	0.285133
C170	C	-0.211531	0.138970	0.221639
C171	C	-0.119406	0.134492	0.314364
C172	C	-0.090580	0.134909	0.372293
C173	C	-0.031176	0.139004	0.401992
C174	C	-0.206435	0.134489	0.314370
C175	C	0.016815	0.142313	0.425985
C176	C	-0.238832	0.142304	0.426002
C177	C	-0.238831	0.142265	0.170343
C178	C	0.077023	0.146464	0.456086
C179	C	-0.273081	0.146451	0.456109
C180	C	-0.273079	0.146398	0.105989
H181	H	-0.095268	-0.284299	0.030928
H182	H	-0.253368	-0.126194	0.030932
O183	O	-0.090570	-0.548735	0.458247
C184	C	-0.071100	-0.517155	0.494049
H185	H	-0.063953	-0.489286	0.471747
H186	H	-0.112378	-0.487208	0.500713
C187	C	-0.012506	-0.594991	0.581675
C188	C	-0.003722	-0.560765	0.554285
H189	H	0.029054	-0.621891	0.618833
H190	H	-0.025625	-0.616266	0.557555
H191	H	-0.046906	-0.570029	0.587223
H192	H	0.030672	-0.585727	0.548731
H193	H	0.009404	-0.539495	0.578406
H194	H	-0.417198	-0.544282	-0.031019
H195	H	-0.095280	0.133853	0.448996
O196	O	-0.090504	-0.548891	0.286483
C197	C	-0.032741	-0.606407	0.324718
H198	H	-0.012838	-0.608216	0.372347
H199	H	-0.047210	-0.638835	0.314976
C200	C	-0.001429	-0.620764	0.256809
C201	C	0.023019	-0.622985	0.315307
H202	H	0.032966	-0.630992	0.251002
H203	H	-0.040346	-0.582016	0.231048
H204	H	-0.013486	-0.647788	0.248698
H205	H	0.035068	-0.595957	0.323415
H206	H	0.061940	-0.661730	0.341070
H207	H	-0.095271	-0.126191	0.030925
H208	H	-0.095281	-0.284313	-0.291012
O209	O	-0.262421	0.133680	0.286463
C210	C	-0.281703	0.133443	0.324699
H211	H	-0.235883	0.115351	0.372327
H212	H	-0.323868	0.180341	0.314958
C213	C	-0.363978	0.116491	0.256791
C214	C	-0.307699	0.094266	0.315289
H215	H	-0.380017	0.092327	0.250986
H216	H	-0.350990	0.116653	0.231029
H217	H	-0.399109	0.155572	0.248680
H218	H	-0.272567	0.055188	0.323397
H219	H	-0.320682	0.094096	0.341053
H220	H	-0.575304	-0.386180	-0.031019
H221	H	-0.417204	0.195694	-0.291009
H222	H	0.424738	-0.386177	0.290884
H223	H	-0.253408	-0.126207	-0.449117
O224	O	-0.580045	-0.548728	-0.031150
C225	C	-0.637836	-0.510477	-0.031439
H226	H	-0.633207	-0.475466	-0.012392
H227	H	-0.685508	-0.488259	-0.078623
C228	C	-0.648506	-0.589003	-0.017139
C229	C	-0.642817	-0.546004	0.006259
H230	H	-0.651581	-0.610917	0.006112
H231	H	-0.609573	-0.614773	-0.016947
H232	H	-0.688233	-0.570481	-0.056459
H233	H	-0.603087	-0.564527	0.045575
H234	H	-0.681744	-0.520238	0.006074
H235	H	-0.575284	-0.126201	-0.290985
O236	O	-0.580030	0.195774	-0.458285
C237	C	-0.637813	0.196051	-0.477819
H238	H	-0.633188	0.177023	-0.438174
H239	H	-0.685493	0.243228	-0.503291
C240	C	-0.648452	0.181698	-0.566994
C241	C	-0.642769	0.158323	-0.518302
H242	H	-0.651512	0.158429	-0.591968
H243	H	-0.609524	0.181514	-0.553835
H244	H	-0.688186	0.221012	-0.588214
H245	H	-0.603032	0.119013	-0.497079
H246	H	-0.681691	0.158500	-0.531458
O247	O	-0.579848	-0.121747	-0.458272
C248	C	-0.541879	-0.159994	-0.477809
H249	H	-0.487829	-0.195015	-0.438166
H250	H	-0.566853	-0.182200	-0.503284
C251	C	-0.606067	-0.081455	-0.566979
C252	C	-0.539680	-0.124465	-0.518289
H253	H	-0.604713	-0.059539	-0.591952
H254	H	-0.631650	-0.055687	-0.553818
H255	H	-0.626872	-0.099966	-0.588202
H256	H	-0.518880	-0.105953	-0.497064
H257	H	-0.514094	-0.150229	-0.531447
O258	O	0.591812	-0.548770	0.458220
C259	C	0.576628	-0.565115	0.494073
H260	H	0.519311	-0.535696	0.471795
H261	H	0.594665	-0.613069	0.500775
C262	C	0.683500	-0.594063	0.581643
C263	C	0.613103	-0.557927	0.554282
H264	H	0.706002	-0.589632	0.618783
H265	H	0.693732	-0.583053	0.557488
H266	H	0.698522	-0.634021	0.587222
H267	H	0.598082	-0.517969	0.548696
H268	H	0.602870	-0.568930	0.578437
H269	H	-0.095296	-0.126201	-0.291020
O270	O	-0.408118	-0.293484	-0.286541
C271	C	-0.388822	-0.313002	-0.324769
H272	H	-0.434649	-0.285311	-0.372401
H273	H	-0.346696	-0.308218	-0.315049
C274	C	-0.306459	-0.412203	-0.256813
C275	C	-0.362747	-0.378195	-0.315316
H276	H	-0.290371	-0.452418	-0.250981
H277	H	-0.319457	-0.399053	-0.231057
H278	H	-0.271361	-0.408210	-0.248720
H279	H	-0.397847	-0.382183	-0.323406
H280	H	-0.349754	-0.391347	-0.341074
H281	H	0.424704	-0.544265	0.290901
O282	O	-0.262404	-0.376991	0.286319
C283	C	-0.281684	-0.357464	0.228803
H284	H	-0.235865	-0.385189	0.226995
H285	H	-0.323854	-0.362192	0.196372
C286	C	-0.363950	-0.258243	0.214447
C287	C	-0.307673	-0.292293	0.212228
H288	H	-0.379985	-0.218042	0.204221
H289	H	-0.350963	-0.271399	0.253196
H290	H	-0.399085	-0.262190	0.187422
H291	H	-0.272537	-0.288352	0.239258
H292	H	-0.320655	-0.279135	0.173483
O293	O	-0.580063	0.195849	-0.286566
C294	C	-0.637823	0.196088	-0.324799
H295	H	-0.657725	0.214174	-0.372428
H296	H	-0.623351	0.149192	-0.315053
C297	C	-0.669137	0.213055	-0.256892
C298	C	-0.693585	0.235273	-0.315391
H299	H	-0.703534	0.237223	-0.251087
H300	H	-0.630222	0.212892	-0.231132
H301	H	-0.657078	0.173975	-0.248776
H302	H	-0.705636	0.274349	-0.323503
H303	H	-0.732504	0.235444	-0.341152
O304	O	-0.090693	0.133685	0.286285
C305	C	-0.128683	0.133430	0.228771
H306	H	-0.158209	0.115330	0.226968
H307	H	-0.165847	0.180324	0.196338
C308	C	-0.043828	0.116488	0.214405
C309	C	-0.080088	0.094252	0.212192
H310	H	-0.013854	0.092323	0.204177
H311	H	-0.018234	0.116661	0.253153
H312	H	-0.074804	0.155566	0.187378
H313	H	-0.049112	0.055178	0.239223
H314	H	-0.105675	0.094071	0.173448
