data_functionalizedCrystal
_audit_creation_method	'MofGen! by Chris Wilmer'
_symmetry_space_group_name_H-M	'P1'
_symmetry_Int_Tables_number	1
_symmetry_cell_setting	triclinic
loop_
_symmetry_equiv_pos_as_xyz
  x,y,z
_cell_length_a	19.288864
_cell_length_b	14.519709
_cell_length_c	17.766277
_cell_angle_alpha	89.992699
_cell_angle_beta	89.976791
_cell_angle_gamma	83.408195
loop_
_atom_site_label
_atom_site_type_symbol
_atom_site_fract_x
_atom_site_fract_y
_atom_site_fract_z
O1	O	0.921767	0.115045	-0.062837
O2	O	0.719562	0.130564	-0.062786
O3	O	0.826026	-0.011468	-0.062806
O4	O	0.815304	0.257077	-0.062817
O5	O	0.826007	-0.011475	0.062382
O6	O	0.719544	0.130557	0.062402
O7	O	0.921748	0.115038	0.062351
Cu8	Cu	0.820644	0.122797	0.073808
Cu9	Cu	0.820666	0.122805	-0.074242
O10	O	0.815285	0.257070	0.062371
C11	C	0.693675	0.130061	-0.000185
C12	C	0.616566	0.128562	-0.000165
C13	C	0.572169	0.211900	-0.000181
C14	C	0.499717	0.210492	-0.000189
C15	C	0.471665	0.125741	-0.000197
C16	C	0.516071	0.042392	-0.000178
C17	C	0.588521	0.043803	-0.000162
C18	C	0.363169	0.059120	-0.044079
C19	C	0.290720	0.057713	-0.044099
C20	C	0.248203	0.121387	-0.000242
C21	C	0.278144	0.186483	0.043625
C22	C	0.350594	0.187894	0.043641
C23	C	0.393105	0.124202	-0.000214
C24	C	0.125246	0.203203	-0.000265
C25	C	0.052792	0.201792	-0.000269
C26	C	0.069148	0.033689	-0.000265
C27	C	0.141599	0.035103	-0.000254
C28	C	0.169644	0.119863	-0.000258
C29	C	0.825517	-0.045828	-0.000212
C30	C	0.824019	-0.148200	-0.000211
C31	C	0.818507	-0.523061	-0.000229
C32	C	0.820037	-0.418762	-0.000224
C33	C	0.821263	-0.335633	-0.000219
C34	C	0.822794	-0.231329	-0.000215
C35	C	0.947636	0.115541	-0.000251
C36	C	1.024745	0.117040	-0.000276
C37	C	0.815794	0.291430	-0.000225
C38	C	0.817291	0.393802	-0.000230
N39	N	0.820634	0.122790	0.177938
N40	N	0.820682	0.122805	-0.178373
C41	C	0.867791	0.059929	0.217316
C42	C	0.867795	0.059925	0.296118
C43	C	0.820648	0.122798	0.335538
C44	C	0.773482	0.185664	0.296151
C45	C	0.773475	0.185660	0.217351
C46	C	0.811652	0.206826	0.460375
C47	C	0.811664	0.206831	0.539173
C48	C	0.820667	0.122809	0.578585
C49	C	0.829672	0.038778	0.539188
C50	C	0.829665	0.038775	0.460387
C51	C	0.820651	0.122808	0.420984
C52	C	0.867831	0.059938	0.703409
C53	C	0.867830	0.059932	0.782212
C54	C	0.773521	0.185679	0.782244
C55	C	0.773518	0.185676	0.703442
C56	C	0.820677	0.122807	0.664029
H57	H	0.266348	0.004711	-0.079822
N58	N	0.487408	-0.044171	-0.000178
N59	N	0.422720	-0.045420	-0.000193
H60	H	0.402476	-0.106558	-0.000189
N61	N	0.915984	-0.004296	0.822450
N62	N	0.915971	-0.004304	0.892807
H63	H	0.949973	-0.049675	0.921227
H64	H	0.016645	0.269658	-0.000277
N65	N	0.725358	0.249888	0.822513
N66	N	0.725367	0.249879	0.892869
H67	H	0.691349	0.295225	0.921314
H68	H	0.836996	-0.029646	0.428314
N69	N	0.234717	0.251515	0.088435
N70	N	0.242634	0.253008	0.158233
H71	H	0.211958	0.298935	0.189876
N72	N	0.838848	-0.047052	0.579440
N73	N	0.792419	-0.067592	0.623428
H74	H	0.798896	-0.128209	0.651858
H75	H	0.804309	0.275251	0.428292
N76	N	0.725343	0.249895	0.663226
N77	N	0.683248	0.306025	0.698428
H78	H	0.649219	0.351381	0.670026
N79	N	0.633865	-0.041338	-0.000143
N80	N	0.608814	-0.117005	-0.000142
H81	H	0.640839	-0.177137	-0.000129
H82	H	0.046308	-0.035317	-0.000319
H83	H	0.804336	0.275253	0.571244
H84	H	0.735093	0.236854	0.328251
N85	N	0.153886	0.289786	-0.000264
N86	N	0.114234	0.364192	-0.000269
H87	H	0.134459	0.425343	-0.000267
N88	N	0.186943	-0.050034	-0.000241
N89	N	0.161891	-0.125700	-0.000245
H90	H	0.193915	-0.185834	-0.000233
H91	H	0.735073	0.236850	0.185288
H92	H	0.463563	0.278358	-0.000199
N93	N	0.600803	0.298485	-0.000187
N94	N	0.561149	0.372890	-0.000201
H95	H	0.581373	0.434042	-0.000206
N96	N	0.915993	-0.004330	0.663184
N97	N	0.959179	0.024691	0.619187
H98	H	0.993193	-0.020719	0.590798
N99	N	0.381167	0.254389	0.088451
N100	N	0.343206	0.311242	0.127605
H101	H	0.364797	0.358204	0.159254
H102	H	0.397781	0.007267	-0.079797
N103	N	0.916024	-0.004217	0.177070
N104	N	0.958165	-0.060288	0.212245
H105	H	0.992253	-0.105564	0.183820
N106	N	0.915970	-0.004298	0.336341
N107	N	0.958068	-0.060428	0.301142
H108	H	0.992092	-0.105786	0.329547
