data_functionalizedCrystal
_audit_creation_method	'MofGen! by Chris Wilmer'
_symmetry_space_group_name_H-M	'P1'
_symmetry_Int_Tables_number	1
_symmetry_cell_setting	triclinic
loop_
_symmetry_equiv_pos_as_xyz
  x,y,z
_cell_length_a	19.077105
_cell_length_b	25.639239
_cell_length_c	25.639234
_cell_angle_alpha	89.975095
_cell_angle_beta	87.682510
_cell_angle_gamma	87.734929
loop_
_atom_site_label
_atom_site_type_symbol
_atom_site_fract_x
_atom_site_fract_y
_atom_site_fract_z
Zn1	Zn	1.075912	-0.240348	-0.327690
Zn2	Zn	1.575912	0.259652	0.172310
Zn3	Zn	1.075795	-0.327773	-0.240251
Zn4	Zn	1.575795	0.172227	0.259749
Zn5	Zn	0.958214	-0.236838	-0.236759
Zn6	Zn	1.458214	0.263162	0.263241
Zn7	Zn	0.958155	-0.324234	-0.324148
Zn8	Zn	1.458155	0.175766	0.175852
O9	O	1.017019	-0.282298	-0.282212
O10	O	1.517019	0.217702	0.217788
O11	O	1.174387	-0.254895	-0.319035
O12	O	1.674387	0.245105	0.180965
O13	O	1.060173	-0.315722	-0.166622
O14	O	1.560173	0.184278	0.333378
O15	O	0.973901	-0.164140	-0.248843
O16	O	1.473901	0.335860	0.251157
O17	O	1.174300	-0.319126	-0.254794
O18	O	1.674300	0.180874	0.245206
O19	O	1.060373	-0.166719	-0.315649
O20	O	1.560373	0.333281	0.184351
O21	O	0.973787	-0.248913	-0.164057
O22	O	1.473787	0.251087	0.335943
O23	O	0.859716	-0.245481	-0.245408
O24	O	1.359716	0.254519	0.254592
O25	O	0.973800	-0.313094	-0.397784
O26	O	1.473800	0.186906	0.102216
O27	O	0.859672	-0.309690	-0.309612
O28	O	1.359672	0.190310	0.190388
O29	O	1.060316	-0.251463	-0.400386
O30	O	1.560316	0.248537	0.099614
O31	O	1.060115	-0.400466	-0.251359
O32	O	1.560115	0.099534	0.248641
O33	O	0.973686	-0.397866	-0.312997
O34	O	1.473686	0.102134	0.187003
C35	C	0.834157	-0.276821	-0.276747
C36	C	1.334157	0.223179	0.223253
C37	C	0.755928	-0.274491	-0.274421
C38	C	1.255928	0.225509	0.225579
C39	C	0.719171	-0.306877	-0.306703
C40	C	1.219171	0.193123	0.193297
C41	C	0.645667	-0.304680	-0.304521
C42	C	1.145667	0.195320	0.195479
C43	C	0.608920	-0.270100	-0.270053
C44	C	1.108920	0.229900	0.229947
C45	C	0.645681	-0.237710	-0.237769
C46	C	1.145681	0.262290	0.262231
C47	C	0.719185	-0.239905	-0.239955
C48	C	1.219185	0.260095	0.260045
C49	C	0.389089	-0.259945	-0.259939
C50	C	0.889089	0.240055	0.240061
C51	C	0.315581	-0.257754	-0.257755
C52	C	0.815581	0.242246	0.242245
C53	C	0.315571	-0.324723	-0.324508
C54	C	0.815571	0.175277	0.175492
C55	C	0.389075	-0.326917	-0.326688
C56	C	0.889075	0.173083	0.173312
C57	C	0.425831	-0.294525	-0.294406
C58	C	0.925831	0.205475	0.205594
N59	N	0.533786	-0.267855	-0.267820
N60	N	1.033786	0.232145	0.232180
N61	N	0.500963	-0.296768	-0.296642
N62	N	1.000963	0.203232	0.203358
C63	C	1.016900	-0.418137	-0.282185
C64	C	1.516900	0.081863	0.217815
C65	C	1.016914	-0.476251	-0.282192
C66	C	1.516914	0.023749	0.217808
C67	C	1.062140	-0.837962	-0.250177
C68	C	1.562140	-0.337962	0.249823
C69	C	1.062167	-0.892567	-0.250185
C70	C	1.562167	-0.392567	0.249815
O71	O	1.100497	-0.921947	-0.222935
O72	O	1.600497	-0.421947	0.277065
N73	N	1.017143	-0.918541	-0.282250
N74	N	1.517143	-0.418541	0.217750
C75	C	0.972092	-0.889906	-0.314314
C76	C	1.472092	-0.389906	0.185686
O77	O	0.933798	-0.917012	-0.341589
O78	O	1.433798	-0.417012	0.158411
C79	C	0.972069	-0.835302	-0.314308
C80	C	1.472069	-0.335302	0.185692
C81	C	1.017092	-0.809332	-0.282237
C82	C	1.517092	-0.309332	0.217763
C83	C	1.107160	-0.811992	-0.218109
C84	C	1.607160	-0.311992	0.281891
C85	C	1.107131	-0.757390	-0.218101
C86	C	1.607131	-0.257390	0.281899
C87	C	1.062083	-0.728760	-0.250161
C88	C	1.562083	-0.228760	0.249839
C89	C	1.017064	-0.754730	-0.282229
C90	C	1.517064	-0.254730	0.217771
C91	C	0.927023	-0.806668	-0.346374
C92	C	1.427023	-0.306668	0.153626
C93	C	0.927004	-0.752061	-0.346366
C94	C	1.427004	-0.252061	0.153634
C95	C	0.972027	-0.726090	-0.314295
C96	C	1.472027	-0.226090	0.185705
C97	C	0.971987	-0.671498	-0.314280
C98	C	1.471987	-0.171498	0.185720
N99	N	1.017012	-0.645525	-0.282215
N100	N	1.517012	-0.145525	0.217785
C101	C	1.062060	-0.674156	-0.250155
C102	C	1.562060	-0.174156	0.249845
C103	C	0.972146	-1.004578	-0.314324
C104	C	1.472146	-0.504578	0.185676
C105	C	0.972165	-1.059181	-0.314327
C106	C	1.472165	-0.559181	0.185673
C107	C	1.062241	-1.061839	-0.250198
C108	C	1.562241	-0.561839	0.249802
C109	C	1.062218	-1.007235	-0.250193
C110	C	1.562218	-0.507235	0.249807
C111	C	1.017170	-0.978605	-0.282258
C112	C	1.517170	-0.478605	0.217742
C113	C	1.061997	-0.559489	-0.250140
C114	C	1.561997	-0.059489	0.249860
C115	C	1.061962	-0.504882	-0.250132
C116	C	1.561962	-0.004882	0.249868
C117	C	0.971889	-0.502229	-0.314262
C118	C	1.471889	-0.002229	0.185738
C119	C	0.971921	-0.556831	-0.314268
C120	C	1.471921	-0.056831	0.185732
C121	C	1.016980	-0.585459	-0.282205
C122	C	1.516980	-0.085459	0.217795
O123	O	0.933679	-0.642085	-0.341518
O124	O	1.433679	-0.142085	0.158482
O125	O	1.100354	-0.647043	-0.222890
O126	O	1.600354	-0.147043	0.277110
C127	C	1.200595	-0.287797	-0.287699
C128	C	1.700595	0.212203	0.212301
C129	C	1.278824	-0.290140	-0.290037
C130	C	1.778824	0.209860	0.209963
C131	C	1.017065	-0.282276	-0.418587
C132	C	1.517065	0.217724	0.081413
C133	C	1.017084	-0.282266	-0.476701
C134	C	1.517084	0.217734	0.023299
C135	C	1.017157	-0.145929	-0.282252
C136	C	1.517157	0.354071	0.217748
C137	C	1.017216	-0.087817	-0.282269
C138	C	1.517216	0.412183	0.217731
C139	C	0.972123	-0.247417	-0.835735
C140	C	1.472123	0.252583	-0.335735
C141	C	0.972126	-0.247407	-0.890339
C142	C	1.472126	0.252593	-0.390339
O143	O	0.933863	-0.217834	-0.917444
O144	O	1.433863	0.282166	-0.417444
N145	N	1.017107	-0.282185	-0.918985
N146	N	1.517107	0.217815	-0.418985
C147	C	1.062083	-0.316977	-0.893023
C148	C	1.562083	0.183023	-0.393023
O149	O	1.100342	-0.346558	-0.922402
O150	O	1.600342	0.153442	-0.422402
C151	C	1.062075	-0.316989	-0.838419
C152	C	1.562075	0.183011	-0.338419
C153	C	1.017096	-0.282205	-0.809777
C154	C	1.517096	0.217795	-0.309777
C155	C	0.927147	-0.212637	-0.807092
C156	C	1.427147	0.287363	-0.307092
C157	C	0.927144	-0.212645	-0.752492
C158	C	1.427144	0.287355	-0.252492
C159	C	0.972117	-0.247434	-0.726533
C160	C	1.472117	0.252566	-0.226533
C161	C	1.017093	-0.282214	-0.755176
C162	C	1.517093	0.217786	-0.255176
C163	C	1.107046	-0.351783	-0.812458
C164	C	1.607046	0.148217	-0.312458
C165	C	1.107034	-0.351792	-0.757850
C166	C	1.607034	0.148208	-0.257850
C167	C	1.062055	-0.317009	-0.729208
C168	C	1.562055	0.182991	-0.229208
C169	C	1.062064	-0.317012	-0.674617
C170	C	1.562064	0.182988	-0.174617
N171	N	1.017083	-0.282235	-0.645972
N172	N	1.517083	0.217765	-0.145972
C173	C	0.972109	-0.247446	-0.671930
C174	C	1.472109	0.252554	-0.171930
C175	C	1.062095	-0.316951	-1.007694
C176	C	1.562095	0.183049	-0.507694
C177	C	1.062107	-0.316937	-1.062296
C178	C	1.562107	0.183063	-0.562296
C179	C	0.972149	-0.247368	-1.059609
C180	C	1.472149	0.252632	-0.559609
C181	C	0.972142	-0.247379	-1.005006
C182	C	1.472142	0.252621	-0.505006
C183	C	1.017114	-0.282174	-0.979048
C184	C	1.517114	0.217826	-0.479048
C185	C	0.972108	-0.247467	-0.557265
C186	C	1.472108	0.252533	-0.057265
C187	C	0.972111	-0.247477	-0.502659
C188	C	1.472111	0.252523	-0.002659
C189	C	1.062065	-0.317048	-0.505351
C190	C	1.562065	0.182952	-0.005351
C191	C	1.062065	-0.317036	-0.559952
C192	C	1.562065	0.182964	-0.059952
C193	C	1.017080	-0.282243	-0.585907
C194	C	1.517080	0.217757	-0.085907
O195	O	1.100305	-0.346572	-0.647477
O196	O	1.600305	0.153428	-0.147477
O197	O	0.933849	-0.217875	-0.642544
O198	O	1.433849	0.282125	-0.142544
C199	C	1.017014	-0.282284	-0.146369
C200	C	1.517014	0.217716	0.353631
C201	C	1.017131	-0.282150	-0.088259
C202	C	1.517131	0.217850	0.411741
H203	H	0.749111	-0.213530	-0.213670
H204	H	1.249111	0.286470	0.286330
Cl205	Cl	1.163800	-0.847975	-0.177800
Cl206	Cl	1.663800	-0.347975	0.322200
Cl207	Cl	0.269360	-0.365442	-0.365087
Cl208	Cl	0.769360	0.134558	0.134913
H209	H	1.098725	-0.345282	-0.986563
H210	H	1.598725	0.154718	-0.486563
H211	H	1.143795	-0.736249	-0.191987
H212	H	1.643795	-0.236249	0.308013
Cl213	Cl	1.118567	-0.472237	-0.209811
Cl214	Cl	1.618567	0.027763	0.290189
Cl215	Cl	0.269385	-0.214282	-0.214416
Cl216	Cl	0.769385	0.285718	0.285584
H217	H	0.419006	-0.233573	-0.233649
H218	H	0.919006	0.266427	0.266351
H219	H	0.615756	-0.209552	-0.209707
H220	H	1.115756	0.290448	0.290293
Cl221	Cl	1.118642	-0.595470	-0.209830
Cl222	Cl	1.618642	-0.095470	0.290170
H223	H	0.890521	-0.184307	-0.828221
H224	H	1.390521	0.315693	-0.328221
H225	H	1.098924	-1.085160	-0.224095
H226	H	1.598924	-0.585160	0.275905
H227	H	1.098741	-0.345256	-1.085613
H228	H	1.598741	0.154744	-0.585613
H229	H	0.935457	-0.981270	-0.340433
H230	H	1.435457	-0.481270	0.159567
H231	H	1.098879	-0.986093	-0.224078
H232	H	1.598879	-0.486093	0.275922
H233	H	0.890357	-0.827804	-0.372488
H234	H	1.390357	-0.327804	0.127512
Cl235	Cl	0.915554	-1.091823	-0.354640
Cl236	Cl	1.415554	-0.591823	0.145360
H237	H	0.935516	-0.219056	-0.981688
H238	H	1.435516	0.280944	-0.481688
Cl239	Cl	0.870371	-0.716072	-0.386680
Cl240	Cl	1.370371	-0.216072	0.113320
Cl241	Cl	0.915306	-0.589480	-0.354575
Cl242	Cl	1.415306	-0.089480	0.145425
H243	H	0.935209	-0.478910	-0.340364
H244	H	1.435209	0.021090	0.159636
Cl245	Cl	0.870591	-0.168919	-0.716492
Cl246	Cl	1.370591	0.331081	-0.216492
H247	H	1.143672	-0.380108	-0.835769
H248	H	1.643672	0.119892	-0.335769
H249	H	0.935484	-0.219150	-0.479341
H250	H	1.435484	0.280850	0.020659
Cl251	Cl	1.163572	-0.395538	-0.725222
Cl252	Cl	1.663572	0.104462	-0.225222
Cl253	Cl	0.765360	-0.350354	-0.350035
Cl254	Cl	1.265360	0.149646	0.149965
H255	H	0.935477	-0.219135	-0.578391
H256	H	1.435477	0.280865	-0.078391
H257	H	0.615743	-0.331053	-0.330808
H258	H	1.115743	0.168947	0.169192
Cl259	Cl	1.118622	-0.360755	-0.595961
Cl260	Cl	1.618622	0.139245	-0.095961
H261	H	0.935529	-0.219041	-1.080754
H262	H	1.435529	0.280959	-0.580754
H263	H	1.098683	-0.345371	-0.484206
H264	H	1.598683	0.154629	0.015794
H265	H	0.418990	-0.355077	-0.354754
H266	H	0.918990	0.144923	0.145246
