data_functionalizedCrystal
_audit_creation_method	'MofGen! by Chris Wilmer'
_symmetry_space_group_name_H-M	'P1'
_symmetry_Int_Tables_number	1
_symmetry_cell_setting	triclinic
loop_
_symmetry_equiv_pos_as_xyz
  x,y,z
_cell_length_a	16.120490
_cell_length_b	29.839131
_cell_length_c	16.120297
_cell_angle_alpha	92.867727
_cell_angle_beta	90.129683
_cell_angle_gamma	87.133579
loop_
_atom_site_label
_atom_site_type_symbol
_atom_site_fract_x
_atom_site_fract_y
_atom_site_fract_z
Zn1	Zn	1.247317	-0.227636	-0.534499
Zn2	Zn	1.254226	-0.299153	-0.395429
Zn3	Zn	1.115311	-0.220041	-0.388421
Zn4	Zn	1.108182	-0.298735	-0.527402
O5	O	1.181259	-0.261391	-0.461438
O6	O	1.364598	-0.240476	-0.521954
O7	O	1.241674	-0.285655	-0.278135
O8	O	1.132913	-0.158185	-0.407835
O9	O	1.369675	-0.293019	-0.419780
O10	O	1.229897	-0.163765	-0.515158
O11	O	1.139613	-0.227531	-0.272985
O12	O	0.998000	-0.227126	-0.400954
O13	O	1.120764	-0.292307	-0.644709
O14	O	0.992763	-0.284942	-0.503063
O15	O	1.222985	-0.240071	-0.649922
O16	O	1.234762	-0.361961	-0.412899
O17	O	1.127464	-0.361654	-0.509859
C18	C	0.965209	-0.255165	-0.450479
C19	C	0.872781	-0.252513	-0.445810
C20	C	0.659806	-0.275145	-0.485656
C21	C	0.703559	-0.247675	-0.437285
C22	C	0.797723	-0.250367	-0.442030
C23	C	0.565634	-0.272453	-0.480913
C24	C	1.181111	-0.378108	-0.461389
C25	C	1.181122	-0.428043	-0.461400
C26	C	1.237222	-0.737843	-0.411033
C27	C	1.237323	-0.925520	-0.411071
O28	O	1.284903	-0.949914	-0.368210
N29	N	1.181428	-0.948840	-0.461509
C30	C	1.125508	-0.925237	-0.511946
O31	O	1.077974	-0.949378	-0.554854
C32	C	1.125412	-0.737561	-0.511912
C33	C	1.181304	-0.714244	-0.461464
C34	C	1.293110	-0.714526	-0.360590
C35	C	1.293082	-0.667610	-0.360578
C36	C	1.237164	-0.644010	-0.411009
C37	C	1.181275	-0.667328	-0.461452
C38	C	1.069496	-0.713960	-0.562353
C39	C	1.069478	-0.667038	-0.562341
C40	C	1.125371	-0.643721	-0.511893
C41	C	1.125329	-0.596812	-0.511871
N42	N	1.181224	-0.573492	-0.461432
C43	C	1.237141	-0.597092	-0.411001
C44	C	1.125562	-1.023770	-0.511959
C45	C	1.125584	-1.070688	-0.511966
C46	C	1.237400	-1.070968	-0.411092
C47	C	1.237373	-1.024048	-0.411081
C48	C	1.181456	-1.000450	-0.461520
C49	C	1.237076	-0.498563	-0.410979
C50	C	1.237040	-0.451643	-0.410969
C51	C	1.125227	-0.451367	-0.511846
C52	C	1.125260	-0.498283	-0.511853
C53	C	1.181191	-0.521881	-0.461417
O54	O	1.077780	-0.572389	-0.554716
O55	O	1.284680	-0.572943	-0.368113
C56	C	1.237251	-0.784760	-0.411046
C57	C	1.181362	-0.808077	-0.461489
C58	C	1.125445	-0.784478	-0.511920
C59	C	1.181385	-0.854996	-0.461496
C60	C	1.237302	-0.878595	-0.411065
C61	C	1.293197	-0.855276	-0.360627
C62	C	1.293168	-0.808359	-0.360615
C63	C	1.069550	-0.807797	-0.562358
C64	C	1.069583	-0.854714	-0.562365
C65	C	1.125500	-0.878313	-0.511935
C66	C	1.398152	-0.267642	-0.472440
C67	C	1.490579	-0.270305	-0.477129
C68	C	1.181429	-0.144219	-0.461506
C69	C	1.181502	-0.094287	-0.461535
C70	C	1.170309	-0.266990	-0.678331
C71	C	1.165642	-0.269375	-0.770758
C72	C	1.157092	-0.273720	-0.939983
C73	C	1.205590	-0.248932	-0.983753
C74	C	1.200833	-0.251349	-1.077915
C75	C	1.161848	-0.271303	-0.845812
C76	C	1.192215	-0.255783	-0.245390
C77	C	1.197042	-0.253275	-0.152972
H78	H	0.693066	-0.300684	-0.530627
H79	H	1.112003	-0.296757	-0.973226
H80	H	0.670298	-0.222134	-0.392310
H81	H	1.282554	-0.432659	-0.369885
Cl82	Cl	1.307389	-0.528221	-0.347572
H83	H	1.023945	-0.647827	-0.603418
H84	H	1.079697	-0.432145	-0.552904
H85	H	1.338596	-0.648628	-0.319502
H86	H	1.338650	-0.733736	-0.319523
Cl87	Cl	1.055307	-1.099995	-0.575379
H88	H	1.338725	-0.874498	-0.319562
Cl89	Cl	1.275231	-0.213373	-0.932430
Cl90	Cl	1.307695	-1.100644	-0.347692
Cl91	Cl	1.307641	-0.994740	-0.347660
H92	H	1.080025	-1.004559	-0.553034
H93	H	1.079750	-0.517269	-0.552935
Cl94	Cl	1.363441	-0.779053	-0.297195
Cl95	Cl	0.999236	-0.743262	-0.625788
H96	H	1.024061	-0.873695	-0.603445
H97	H	1.024016	-0.788586	-0.603426
