data_functionalizedCrystal
_audit_creation_method	'MofGen! by Chris Wilmer'
_symmetry_space_group_name_H-M	'P1'
_symmetry_Int_Tables_number	1
_symmetry_cell_setting	triclinic
loop_
_symmetry_equiv_pos_as_xyz
  x,y,z
_cell_length_a	10.967926
_cell_length_b	16.109301
_cell_length_c	14.586319
_cell_angle_alpha	89.998857
_cell_angle_beta	102.130661
_cell_angle_gamma	95.899663
loop_
_atom_site_label
_atom_site_type_symbol
_atom_site_fract_x
_atom_site_fract_y
_atom_site_fract_z
O1	O	-0.160392	1.104076	-0.101526
O2	O	0.339608	1.604076	0.398474
O3	O	-0.180352	0.862131	-0.104692
O4	O	0.319648	1.362131	0.395308
O5	O	0.011278	0.988683	-0.074409
O6	O	0.511278	1.488683	0.425591
O7	O	-0.352022	0.977524	-0.131810
O8	O	0.147978	1.477524	0.368190
O9	O	0.011281	0.988674	0.078073
O10	O	0.511281	1.488674	0.578073
O11	O	-0.180349	0.862122	0.047789
O12	O	0.319651	1.362122	0.547789
O13	O	-0.160389	1.104067	0.050955
O14	O	0.339611	1.604067	0.550955
Cu15	Cu	-0.170369	0.983094	0.063295
Cu16	Cu	0.329631	1.483094	0.563295
Cu17	Cu	-0.170372	0.983104	-0.117032
Cu18	Cu	0.329628	1.483104	0.382968
O19	O	-0.352019	0.977515	0.020672
O20	O	0.147981	1.477515	0.520672
C21	C	-0.179542	0.831147	-0.028325
C22	C	0.320458	1.331147	0.471675
C23	C	-0.177118	0.738838	-0.027947
C24	C	0.322882	1.238838	0.472053
C25	C	-0.282903	0.430463	-0.044645
C26	C	0.217097	0.930463	0.455355
C27	C	-0.285192	0.517196	-0.045012
C28	C	0.214808	1.017196	0.454988
C29	C	-0.057830	0.535730	-0.009101
C30	C	0.442170	1.035730	0.490899
C31	C	-0.055541	0.448998	-0.008741
C32	C	0.444459	0.948998	0.491259
C33	C	-0.168082	0.396366	-0.026509
C34	C	0.331918	0.896366	0.473491
C35	C	-0.172659	0.569832	-0.027236
C36	C	0.327341	1.069832	0.472764
C37	C	-0.175141	0.663873	-0.027634
C38	C	0.324859	1.163873	0.472366
C39	C	-0.165601	0.302319	-0.026113
C40	C	0.334399	0.802319	0.473887
C41	C	-0.398509	0.978332	-0.062914
C42	C	0.101491	1.478332	0.437086
C43	C	-0.537031	0.980763	-0.084800
C44	C	-0.037031	1.480763	0.415200
C45	C	-0.598787	0.981843	-0.015568
C46	C	-0.098787	1.481843	0.484432
C47	C	-0.741957	0.984355	-0.038187
C48	C	-0.241957	1.484355	0.461813
C49	C	0.057768	0.987866	0.009175
C50	C	0.557768	1.487866	0.509175
C51	C	0.196290	0.985435	0.031055
C52	C	0.696290	1.485435	0.531055
C53	C	-0.161199	1.135051	-0.025414
C54	C	0.338801	1.635051	0.474586
C55	C	-0.163623	1.227360	-0.025798
C56	C	0.336377	1.727360	0.474202
N57	N	-0.170366	0.983092	0.190127
N58	N	0.329634	1.483092	0.690127
N59	N	-0.170366	0.983112	-0.243862
N60	N	0.329634	1.483112	0.256138
C61	C	-0.085540	1.039148	0.438539
C62	C	0.414460	1.539148	0.938539
C63	C	-0.085537	1.039151	0.534520
C64	C	0.414463	1.539151	1.034520
C65	C	-0.255195	0.927050	0.507719
C66	C	0.244805	1.427050	1.007719
C67	C	-0.255191	0.927044	0.411740
C68	C	0.244809	1.427044	0.911740
C69	C	-0.170365	0.983098	0.377152
C70	C	0.329635	1.483098	0.877152
C71	C	-0.170366	0.983106	0.569113
C72	C	0.329634	1.483106	1.069113
C73	C	-0.170363	0.983108	0.673180
C74	C	0.329637	1.483108	1.173180
C75	C	-0.170366	0.983095	0.273078
C76	C	0.329634	1.483095	0.773078
H77	H	-0.378691	0.544953	-0.059781
H78	H	0.121309	1.044953	0.440219
H79	H	-0.545667	0.980902	0.060449
H80	H	-0.045667	1.480902	0.560449
H81	H	0.037965	0.421237	0.006026
H82	H	0.537965	0.921237	0.506026
O83	O	-0.404278	0.373692	-0.063819
O84	O	0.095722	0.873692	0.436181
H85	H	-0.484504	0.411976	-0.076501
H86	H	0.015496	0.911976	0.423499
H87	H	-0.795074	0.985285	-0.114209
H88	H	-0.295074	1.485285	0.385791
H89	H	-0.590153	0.981693	-0.160818
H90	H	-0.090153	1.481693	0.339182
O91	O	-0.733370	0.984202	0.131761
O92	O	-0.233370	1.484202	0.631761
H93	H	-0.631956	0.982431	0.133727
H94	H	-0.131956	1.482431	0.633727
H95	H	-0.016468	1.084790	0.410381
H96	H	0.483532	1.584790	0.910381
O97	O	0.005950	1.099605	0.600734
O98	O	0.505950	1.599605	1.100734
H99	H	-0.046602	1.140303	0.636161
H100	H	0.453398	1.640303	1.136161
O101	O	0.063551	0.592496	0.010081
O102	O	0.563551	1.092496	0.510081
H103	H	0.042673	0.658535	0.006797
H104	H	0.542673	1.158535	0.506797
O105	O	-0.346698	0.866603	0.545021
O106	O	0.153302	1.366603	1.045021
H107	H	-0.332463	0.876029	0.622072
H108	H	0.167537	1.376029	1.122072
O109	O	-0.346688	0.866591	0.345518
O110	O	0.153312	1.366591	0.845518
H111	H	-0.405687	0.827623	0.385689
H112	H	0.094313	1.327623	0.885689
