data_functionalizedCrystal
_audit_creation_method	'MofGen! by Chris Wilmer'
_symmetry_space_group_name_H-M	'P1'
_symmetry_Int_Tables_number	1
_symmetry_cell_setting	triclinic
loop_
_symmetry_equiv_pos_as_xyz
  x,y,z
_cell_length_a	27.732048
_cell_length_b	27.731993
_cell_length_c	26.809956
_cell_angle_alpha	90.002784
_cell_angle_beta	89.999364
_cell_angle_gamma	82.631525
loop_
_atom_site_label
_atom_site_type_symbol
_atom_site_fract_x
_atom_site_fract_y
_atom_site_fract_z
O1	O	0.057385	0.640948	-0.041351
O2	O	0.066158	0.500151	-0.041382
O3	O	-0.008626	0.574923	-0.041356
O4	O	0.132169	0.566177	-0.041377
O5	O	-0.008615	0.574908	0.041603
O6	O	0.066169	0.500137	0.041577
O7	O	0.057396	0.640934	0.041609
Zn8	Zn	0.061784	0.570533	0.054764
Zn9	Zn	0.061769	0.570552	-0.054538
O10	O	0.132180	0.566163	0.041582
C11	C	0.065983	0.482137	0.000094
C12	C	0.065441	0.428480	0.000082
C13	C	0.061504	0.045328	-0.045114
C14	C	0.063571	0.246985	-0.045128
O15	O	0.063814	0.273065	-0.083588
N16	N	0.063836	0.272198	0.000092
C17	C	0.063581	0.246993	0.045319
O18	O	0.063849	0.273066	0.083781
C19	C	0.061510	0.045337	0.045332
C20	C	0.061251	0.020127	0.000109
C21	C	0.061244	0.020117	-0.090333
C22	C	0.060730	-0.030295	-0.090329
C23	C	0.060476	-0.055496	-0.045106
C24	C	0.060736	-0.030285	0.000113
C25	C	0.061252	0.020134	0.090558
C26	C	0.060733	-0.030283	0.090558
C27	C	0.060473	-0.055493	0.045335
C28	C	0.059969	-0.105898	0.045340
N29	N	0.059704	-0.131110	0.000120
C30	C	0.059958	-0.105909	-0.045103
C31	C	0.064669	0.352866	0.045309
C32	C	0.065187	0.403279	0.045306
C33	C	0.065177	0.403268	-0.045141
C34	C	0.064662	0.352853	-0.045138
C35	C	0.064404	0.327653	0.000089
C36	C	0.058878	-0.211777	-0.045091
C37	C	0.058366	-0.262194	-0.045083
C38	C	0.058374	-0.262178	0.045363
C39	C	0.058889	-0.211766	0.045356
C40	C	0.059139	-0.186567	0.000124
O41	O	0.059720	-0.132008	0.083780
O42	O	0.059679	-0.131989	-0.083559
C43	C	0.062018	0.095740	-0.045118
C44	C	0.062279	0.120950	0.000101
C45	C	0.062025	0.095749	0.045325
C46	C	0.062797	0.171364	0.000098
C47	C	0.063051	0.196565	-0.045125
C48	C	0.062786	0.171352	-0.090345
C49	C	0.062272	0.120941	-0.090341
C50	C	0.062290	0.120962	0.090545
C51	C	0.062805	0.171373	0.090537
C52	C	0.063058	0.196574	0.045314
C53	C	-0.026628	0.574732	0.000125
C54	C	-0.080282	0.574179	0.000129
C55	C	-0.419105	0.614884	0.000113
C56	C	-0.620765	0.612833	0.000105
O57	O	-0.652028	0.650055	0.000092
N58	N	-0.639880	0.568497	0.000096
C59	C	-0.608576	0.524670	0.000085
O60	O	-0.629462	0.486912	0.000072
C61	C	-0.406918	0.526721	0.000089
C62	C	-0.387806	0.571061	0.000103
C63	C	-0.399993	0.659220	0.000126
C64	C	-0.349581	0.659732	0.000131
C65	C	-0.318282	0.615909	0.000122
C66	C	-0.337394	0.571573	0.000108
C67	C	-0.375616	0.482895	0.000074
C68	C	-0.325199	0.483412	0.000074
C69	C	-0.306087	0.527751	0.000089
C70	C	-0.255683	0.528262	0.000103
N71	N	-0.236568	0.572598	0.000112
C72	C	-0.267867	0.616422	0.000122
C73	C	-0.714450	0.523596	0.000084
C74	C	-0.764865	0.523083	0.000084
C75	C	-0.777049	0.611246	0.000103
C76	C	-0.726634	0.611759	0.000107
C77	C	-0.695335	0.567932	0.000093
C78	C	-0.161998	0.617494	0.000132
C79	C	-0.111582	0.618003	0.000138
C80	C	-0.099401	0.529839	0.000117
C81	C	-0.149814	0.529331	0.000113
C82	C	-0.181112	0.573162	0.000118
O83	O	-0.224392	0.491060	0.000111
O84	O	-0.246972	0.654174	0.000124
C85	C	-0.469517	0.614372	0.000108
C86	C	-0.488630	0.570036	0.000094
C87	C	-0.457331	0.526213	0.000085
C88	C	-0.539044	0.569523	0.000094
C89	C	-0.570343	0.613346	0.000103
C90	C	-0.551228	0.657683	0.000113
C91	C	-0.500817	0.658195	0.000117
C92	C	-0.476446	0.481876	0.000075
C93	C	-0.526858	0.481368	0.000071
C94	C	-0.558157	0.525191	0.000081
C95	C	0.150181	0.566353	0.000100
C96	C	0.203836	0.566906	0.000093
C97	C	0.057570	0.658949	0.000132
C98	C	0.058113	0.712605	0.000140
N99	N	0.061794	0.570524	0.129360
N100	N	0.061756	0.570565	-0.129134
C101	C	0.028663	0.603656	0.473998
C102	C	0.028656	0.603668	0.682876
O103	O	0.000489	0.631819	0.709889
N104	N	0.061759	0.570555	0.708988
C105	C	0.094864	0.537434	0.682877
O106	O	0.123016	0.509266	0.709879
C107	C	0.094869	0.537421	0.474000
C108	C	0.061767	0.570539	0.447891
C109	C	-0.004437	0.636772	0.447889
C110	C	-0.004433	0.636771	0.395673
C111	C	0.028671	0.603654	0.369565
C112	C	0.061771	0.570538	0.395675
C113	C	0.127971	0.504298	0.447890
C114	C	0.127968	0.504297	0.395668
C115	C	0.094867	0.537415	0.369559
C116	C	0.094878	0.537419	0.317351
N117	N	0.061775	0.570533	0.291239
C118	C	0.028671	0.603650	0.317347
C119	C	0.094860	0.537444	0.792540
C120	C	0.094859	0.537448	0.844759
C121	C	0.028650	0.603681	0.844754
C122	C	0.028653	0.603679	0.792534
C123	C	0.061757	0.570557	0.766428
C124	C	0.028683	0.603644	0.207689
C125	C	0.028691	0.603641	0.155468
C126	C	0.094898	0.537406	0.155477
C127	C	0.094891	0.537411	0.207693
C128	C	0.061780	0.570532	0.233798
O129	O	0.123026	0.509280	0.290305
O130	O	0.000516	0.631806	0.290335
C131	C	0.028659	0.603658	0.526214
C132	C	0.061759	0.570542	0.552324
C133	C	0.094862	0.537425	0.526216
C134	C	0.061758	0.570546	0.604542
C135	C	0.028655	0.603663	0.630650
C136	C	-0.004448	0.636777	0.604538
C137	C	-0.004444	0.636775	0.552322
C138	C	0.127965	0.504312	0.552328
C139	C	0.127959	0.504316	0.604545
C140	C	0.094855	0.537433	0.630652
H141	H	0.061449	0.040631	-0.127161
Br142	Br	-0.085647	0.678181	0.000158
H143	H	0.060516	-0.050816	-0.127155
Br144	Br	-0.552789	0.421187	0.000056
H145	H	-0.031401	0.663744	0.625803
H146	H	-0.688970	0.487905	0.000073
H147	H	-0.391168	0.446789	0.000060
Br148	Br	0.172897	0.459349	0.483313
Br149	Br	0.139823	0.492469	0.243126
H150	H	-0.425472	0.694908	0.000132
Br151	Br	-0.056915	0.470368	0.000104
H152	H	0.058156	-0.282718	-0.081911
Br153	Br	0.172895	0.459340	0.360241
Br154	Br	0.172890	0.459368	0.639973
Br155	Br	-0.433975	0.422395	0.000060
H156	H	0.059083	-0.191266	-0.081923
Br157	Br	0.139824	0.492464	0.120037
H158	H	0.064458	0.332353	0.082140
Br159	Br	-0.282724	0.423930	0.000054
H160	H	0.064450	0.332329	-0.081962
H161	H	0.059110	-0.191240	0.082180
H162	H	0.001735	0.630612	0.134211
Br163	Br	0.063162	0.205581	0.151917
H164	H	0.121819	0.510484	0.866013
Br165	Br	-0.016272	0.648628	0.757106
Br166	Br	-0.175753	0.469156	0.000104
H167	H	0.065385	0.423795	-0.081964
Br168	Br	0.139790	0.492489	0.757116
Br169	Br	-0.016255	0.648595	0.243108
H170	H	-0.485261	0.694301	0.000129
Br171	Br	0.065552	0.437486	0.106682
Br172	Br	0.061606	0.054336	0.151937
H173	H	-0.031388	0.663737	0.374418
Br174	Br	-0.016275	0.648626	0.880196
Br175	Br	-0.593716	0.717157	0.000129
Br176	Br	-0.049370	0.681724	0.516895
H177	H	0.058170	-0.282706	0.082183
H178	H	0.060527	-0.050798	0.127387
H179	H	0.062060	0.100419	-0.127166
H180	H	0.154922	0.477343	0.531076
H181	H	0.062081	0.100448	0.127372
Br182	Br	0.063133	0.205563	-0.151719
Br183	Br	-0.204466	0.676980	0.000139
H184	H	-0.334025	0.695838	0.000141
H185	H	-0.711077	0.647864	0.000118
H186	H	-0.802542	0.646929	0.000111
H187	H	-0.780421	0.486977	0.000081
H188	H	-0.031396	0.663740	0.469141
