data_functionalizedCrystal
_audit_creation_method	'MofGen! by Chris Wilmer'
_symmetry_space_group_name_H-M	'P1'
_symmetry_Int_Tables_number	1
_symmetry_cell_setting	triclinic
loop_
_symmetry_equiv_pos_as_xyz
  x,y,z
_cell_length_a	14.908979
_cell_length_b	14.908178
_cell_length_c	19.076919
_cell_angle_alpha	91.159747
_cell_angle_beta	84.563697
_cell_angle_gamma	96.795332
loop_
_atom_site_label
_atom_site_type_symbol
_atom_site_fract_x
_atom_site_fract_y
_atom_site_fract_z
Zn1	Zn	1.345286	-0.298183	0.324028
Zn2	Zn	1.845286	0.201817	0.824028
Zn3	Zn	1.343246	-0.442785	0.199913
Zn4	Zn	1.843246	0.057215	0.699913
Zn5	Zn	1.200007	-0.300869	0.212759
Zn6	Zn	1.700007	0.199131	0.712759
Zn7	Zn	1.185168	-0.458258	0.323979
Zn8	Zn	1.685168	0.041742	0.823979
O9	O	1.268427	-0.375024	0.265170
O10	O	1.768427	0.124976	0.765170
O11	O	1.471971	-0.309765	0.302208
O12	O	1.971971	0.190235	0.802208
O13	O	1.329602	-0.418609	0.103128
O14	O	1.829602	0.081391	0.603128
O15	O	1.226342	-0.174129	0.232915
O16	O	1.726342	0.325871	0.732915
O17	O	1.470473	-0.416004	0.211021
O18	O	1.970473	0.083996	0.711021
O19	O	1.333078	-0.172155	0.314665
O20	O	1.833078	0.327845	0.814665
O21	O	1.224364	-0.314344	0.112566
O22	O	1.724364	0.185656	0.612566
O23	O	1.071082	-0.329347	0.232868
O24	O	1.571082	0.170653	0.732868
O25	O	1.201051	-0.442374	0.422474
O26	O	1.701051	0.057626	0.922474
O27	O	1.060180	-0.444980	0.314581
O28	O	1.560180	0.055020	0.814581
O29	O	1.318689	-0.324768	0.422511
O30	O	1.818689	0.175232	0.922511
O31	O	1.315213	-0.571222	0.210974
O32	O	1.815213	-0.071222	0.710974
O33	O	1.199074	-0.582590	0.302125
O34	O	1.699074	-0.082590	0.802125
C35	C	1.032712	-0.389135	0.275113
C36	C	1.532712	0.110865	0.775113
C37	C	0.931871	-0.395194	0.279383
C38	C	1.431871	0.104806	0.779383
C39	C	0.784086	-0.464022	0.327860
C40	C	1.284086	0.035978	0.827860
C41	C	0.878836	-0.458329	0.323854
C42	C	1.378836	0.041671	0.823854
C43	C	0.890150	-0.337749	0.238913
C44	C	1.390150	0.162251	0.738913
C45	C	0.795401	-0.343442	0.242919
C46	C	1.295401	0.156558	0.742919
C47	C	0.742372	-0.406579	0.287395
C48	C	1.242372	0.093421	0.787395
C49	C	0.647621	-0.412267	0.291404
C50	C	1.147621	0.087733	0.791404
C51	C	0.658937	-0.291692	0.206459
C52	C	1.158937	0.208308	0.706459
C53	C	0.753687	-0.286000	0.202453
C54	C	1.253687	0.214000	0.702453
C55	C	1.255336	-0.609676	0.255164
C56	C	1.755336	-0.109676	0.755164
C57	C	1.249817	-0.710057	0.250904
C58	C	1.749817	-0.210057	0.750904
C59	C	1.350498	-0.896489	0.328124
C60	C	1.850498	-0.396489	0.828124
C61	C	1.345316	-0.990806	0.324123
C62	C	1.845316	-0.490806	0.824123
C63	C	1.234266	-0.993010	0.238906
C64	C	1.734266	-0.493010	0.738906
C65	C	1.239448	-0.898693	0.242907
C66	C	1.739448	-0.398693	0.742907
C67	C	1.297567	-0.850436	0.287516
C68	C	1.797567	-0.350436	0.787516
C69	C	1.302754	-0.756116	0.291513
C70	C	1.802754	-0.256116	0.791513
C71	C	1.191700	-0.758323	0.206300
C72	C	1.691700	-0.258323	0.706300
C73	C	1.186518	-0.852640	0.202299
C74	C	1.686518	-0.352640	0.702299
C75	C	1.505061	-0.360859	0.255187
C76	C	2.005061	0.139141	0.755187
C77	C	1.605901	-0.354822	0.250934
C78	C	2.105901	0.145178	0.750934
C79	C	1.258442	-0.384997	0.448744
C80	C	1.758442	0.115003	0.948744
C81	C	1.254188	-0.389247	0.526972
C82	C	1.754188	0.110753	1.026972
C83	C	1.281592	-0.139455	0.275229
C84	C	1.781592	0.360545	0.775229
C85	C	1.287203	-0.039070	0.279515
C86	C	1.787203	0.460930	0.779515
C87	C	1.278428	-0.365021	0.082310
C88	C	1.778428	0.134979	0.582310
C89	C	1.282872	-0.360506	0.004086
C90	C	1.782872	0.139494	0.504086
C91	C	1.313434	-0.330015	0.563744
C92	C	1.813434	0.169985	1.063744
C93	C	1.309425	-0.334006	0.637248
C94	C	1.809425	0.165994	1.137248
C95	C	1.246174	-0.397234	0.673979
C96	C	1.746174	0.102766	1.173979
C97	C	1.186922	-0.456468	0.637202
C98	C	1.686922	0.043532	1.137202
C99	C	1.190927	-0.452473	0.563700
C100	C	1.690927	0.047527	1.063700
C101	C	1.227625	-0.415745	0.893807
C102	C	1.727625	0.084255	1.393807
C103	C	1.223626	-0.419738	0.967314
C104	C	1.723626	0.080262	1.467314
C105	C	1.346129	-0.297274	0.967355
C106	C	1.846129	0.202726	1.467355
C107	C	1.350131	-0.293288	0.893851
C108	C	1.850131	0.206712	1.393851
C109	C	1.290876	-0.352519	0.857081
C110	C	1.790876	0.147481	1.357081
N111	N	1.242077	-0.401316	0.749112
N112	N	1.742077	0.098684	1.249112
N113	N	1.294970	-0.348432	0.781949
N114	N	1.794970	0.151568	1.281949
H115	H	0.912795	-0.505105	0.356805
H116	H	1.412795	-0.005105	0.856805
N117	N	1.155373	-0.487923	1.006919
N118	N	1.655373	0.012077	1.506919
H119	H	1.113729	-0.455377	1.040749
H120	H	1.613729	0.044623	1.540749
H121	H	1.188281	-0.529229	1.034037
H122	H	1.688281	-0.029229	1.534037
H123	H	0.933342	-0.286353	0.202698
H124	H	1.433342	0.213647	0.702698
H125	H	1.397827	-0.857196	0.364442
H126	H	1.897827	-0.357196	0.864442
N127	N	1.118707	-0.524669	0.676817
N128	N	1.618707	-0.024669	1.176817
H129	H	1.081782	-0.561586	0.642367
H130	H	1.581782	-0.061586	1.142367
H131	H	1.077116	-0.492080	0.710655
H132	H	1.577116	0.007920	1.210655
H133	H	1.388413	-1.028299	0.357194
H134	H	1.888413	-0.528299	0.857194
H135	H	1.142674	-0.500697	0.533762
H136	H	1.642674	-0.000697	1.033762
H137	H	1.364942	-0.278531	0.533842
H138	H	1.864942	0.221469	1.033842
N139	N	1.163689	-0.479600	0.854155
N140	N	1.663689	0.020400	1.354155
H141	H	1.123007	-0.520251	0.888580
H142	H	1.623007	-0.020251	1.388580
H143	H	1.199909	-0.517541	0.820303
H144	H	1.699909	-0.017541	1.320303
H145	H	0.796875	-0.234598	0.166241
H146	H	1.296875	0.265402	0.666241
H147	H	0.624964	-0.244915	0.173512
H148	H	1.124964	0.255085	0.673512
N149	N	1.373309	-0.270104	0.676911
N150	N	1.873309	0.229896	1.176911
H151	H	1.413984	-0.229442	0.642489
H152	H	1.913984	0.270558	1.142489
H153	H	1.411580	-0.305996	0.704079
H154	H	1.911580	0.194004	1.204079
H155	H	1.394370	-0.249050	0.997301
H156	H	1.894370	0.250950	1.497301
H157	H	1.139197	-0.891944	0.165981
H158	H	1.639197	-0.391944	0.665981
H159	H	1.148603	-0.720815	0.173232
H160	H	1.648603	-0.220815	0.673232
H161	H	0.604446	-0.463673	0.327621
H162	H	1.104446	0.036327	0.827621
N163	N	0.726887	-0.532118	0.375825
N164	N	1.226887	-0.032118	0.875825
H165	H	0.660534	-0.527009	0.372221
H166	H	1.160534	-0.027009	0.872221
H167	H	0.741498	-0.519895	0.426003
H168	H	1.241498	-0.019895	0.926003
N169	N	1.418355	-0.225095	0.854235
N170	N	1.918355	0.274905	1.354235
H171	H	1.455280	-0.188176	0.888684
H172	H	1.955280	0.311824	1.388684
H173	H	1.385424	-0.183852	0.827077
H174	H	1.885424	0.316148	1.327077
N175	N	1.171592	-1.045069	0.190792
N176	N	1.671592	-0.545069	0.690792
H177	H	1.125813	-1.088299	0.219478
H178	H	1.625813	-0.588299	0.719478
H179	H	1.208198	-1.080147	0.155000
H180	H	1.708198	-0.580147	0.655000
N181	N	1.365438	-0.704063	0.339623
N182	N	1.865438	-0.204063	0.839623
H183	H	1.398180	-0.747554	0.364742
H184	H	1.898180	-0.247554	0.864742
H185	H	1.328850	-0.668929	0.375386
H186	H	1.828850	-0.168929	0.875386
