data_functionalizedCrystal
_audit_creation_method	'MofGen! by Chris Wilmer'
_symmetry_space_group_name_H-M	'P1'
_symmetry_Int_Tables_number	1
_symmetry_cell_setting	triclinic
loop_
_symmetry_equiv_pos_as_xyz
  x,y,z
_cell_length_a	18.050591
_cell_length_b	18.050589
_cell_length_c	18.050582
_cell_angle_alpha	90.018205
_cell_angle_beta	89.979078
_cell_angle_gamma	89.975773
loop_
_atom_site_label
_atom_site_type_symbol
_atom_site_fract_x
_atom_site_fract_y
_atom_site_fract_z
Zn1	Zn	1.135293	0.295786	-0.420054
Zn2	Zn	1.635293	0.795786	0.079946
Zn3	Zn	1.135203	0.419969	-0.295873
Zn4	Zn	1.635203	0.919969	0.204127
Zn5	Zn	1.011112	0.295789	-0.295865
Zn6	Zn	1.511112	0.795789	0.204135
Zn7	Zn	1.011060	0.419930	-0.420009
Zn8	Zn	1.511060	0.919930	0.079991
O9	O	1.073167	0.357868	-0.357950
O10	O	1.573167	0.857868	0.142050
O11	O	1.239205	0.312274	-0.403603
O12	O	1.739205	0.812274	0.096397
O13	O	1.118727	0.403514	-0.191948
O14	O	1.618727	0.903514	0.308052
O15	O	1.027644	0.191864	-0.312354
O16	O	1.527644	0.691864	0.187646
O17	O	1.239140	0.403511	-0.312369
O18	O	1.739140	0.903511	0.187631
O19	O	1.118879	0.191862	-0.403595
O20	O	1.618879	0.691862	0.096405
O21	O	1.027557	0.312279	-0.191942
O22	O	1.527557	0.812279	0.308058
O23	O	0.907180	0.312241	-0.312311
O24	O	1.407180	0.812241	0.187689
O25	O	1.027555	0.403444	-0.523940
O26	O	1.527555	0.903444	-0.023940
O27	O	0.907142	0.403447	-0.403519
O28	O	1.407142	0.903447	0.096481
O29	O	1.118828	0.312236	-0.523973
O30	O	1.618828	0.812236	-0.023973
O31	O	1.118676	0.523888	-0.312325
O32	O	1.618676	1.023888	0.187675
O33	O	1.027468	0.523860	-0.403527
O34	O	1.527468	1.023860	0.096473
C35	C	0.880215	0.357841	-0.357909
C36	C	1.380215	0.857841	0.142091
C37	C	0.797669	0.357847	-0.357909
C38	C	1.297669	0.857847	0.142091
C39	C	1.073077	0.550820	-0.357938
C40	C	1.573077	1.050820	0.142062
C41	C	1.073107	0.633366	-0.357958
C42	C	1.573107	1.133366	0.142042
C43	C	1.073196	0.357835	-0.551656
C44	C	1.573196	0.857835	-0.051656
C45	C	1.073208	0.357821	-0.634202
C46	C	1.573208	0.857821	-0.134202
C47	C	0.598217	0.308191	-0.308425
C48	C	1.098217	0.808191	0.191575
C49	C	0.548798	0.375927	-0.290154
C50	C	1.048798	0.875927	0.209846
C51	C	0.646539	0.357869	-0.357943
C52	C	1.146539	0.857869	0.142057
C53	C	0.548877	0.290157	-0.376212
C54	C	1.048877	0.790157	0.123788
C55	C	0.500553	0.357885	-0.357974
C56	C	1.000553	0.857885	0.142026
C57	C	0.598206	0.425641	-0.339637
C58	C	1.098206	0.925641	0.160363
C59	C	0.598289	0.339825	-0.425726
C60	C	1.098289	0.839825	0.074274
C61	C	0.548892	0.407607	-0.407481
C62	C	1.048892	0.907607	0.092519
C63	C	0.730637	0.357859	-0.357923
C64	C	1.230637	0.857859	0.142077
C65	C	0.416457	0.357903	-0.357994
C66	C	0.916457	0.857903	0.142006
C67	C	1.266872	0.357897	-0.357992
C68	C	1.766872	0.857897	0.142008
C69	C	1.349418	0.357909	-0.358010
C70	C	1.849418	0.857909	0.141990
C71	C	1.073277	0.164163	-0.357979
C72	C	1.573277	0.664163	0.142021
C73	C	1.073324	0.081617	-0.357991
C74	C	1.573324	0.581617	0.142009
C75	C	1.023557	0.832828	-0.407536
C76	C	1.523557	1.332828	0.092464
C77	C	1.005459	0.882261	-0.339767
C78	C	1.505459	1.382261	0.160233
C79	C	1.073180	0.784497	-0.357967
C80	C	1.573180	1.284497	0.142033
C81	C	1.091314	0.882146	-0.425744
C82	C	1.591314	1.382146	0.074256
C83	C	1.073249	0.930482	-0.357983
C84	C	1.573249	1.430482	0.142017
C85	C	1.055046	0.832842	-0.290162
C86	C	1.555046	1.332842	0.209838
C87	C	1.140933	0.832722	-0.376186
C88	C	1.640933	1.332722	0.123814
C89	C	1.122861	0.882133	-0.308370
C90	C	1.622861	1.382133	0.191630
C91	C	1.073138	0.700398	-0.357959
C92	C	1.573138	1.200398	0.142041
C93	C	1.073291	1.014578	-0.357983
C94	C	1.573291	1.514578	0.142017
C95	C	1.023612	0.407353	-0.833635
C96	C	1.523612	0.907353	-0.333635
C97	C	1.091367	0.425511	-0.883034
C98	C	1.591367	0.925511	-0.383034
C99	C	1.073245	0.357765	-0.785332
C100	C	1.573245	0.857765	-0.285332
C101	C	1.005527	0.339586	-0.883014
C102	C	1.505527	0.839586	-0.383014
C103	C	1.073274	0.357711	-0.931317
C104	C	1.573274	0.857711	-0.431317
C105	C	1.141036	0.375958	-0.833645
C106	C	1.641036	0.875958	-0.333645
C107	C	1.055150	0.290002	-0.833620
C108	C	1.555150	0.790002	-0.333620
C109	C	1.122952	0.308134	-0.882998
C110	C	1.622952	0.808134	-0.382998
C111	C	1.073227	0.357797	-0.701234
C112	C	1.573227	0.857797	-0.201234
C113	C	1.073300	0.357679	-1.015414
C114	C	1.573300	0.857679	-0.515414
C115	C	1.073181	0.357848	-0.164998
C116	C	1.573181	0.857848	0.335002
C117	C	1.073312	0.357652	-0.082453
C118	C	1.573312	0.857652	0.417547
H119	H	0.619875	0.266226	-0.266503
H120	H	1.119875	0.766226	0.233497
C121	C	0.519415	0.396558	-0.212741
C122	C	1.019415	0.896558	0.287259
H123	H	0.490450	0.440389	-0.216044
H124	H	0.990450	0.940389	0.283956
H125	H	0.489718	0.357274	-0.194212
H126	H	0.989718	0.857274	0.305788
H127	H	0.559954	0.404747	-0.180209
H128	H	1.059954	0.904747	0.319791
H129	H	1.039669	0.811275	-0.232834
H130	H	1.539669	1.311275	0.267166
H131	H	0.527370	0.449673	-0.449370
H132	H	1.027370	0.949673	0.050630
H133	H	0.948195	0.904037	-0.324371
H134	H	1.448195	1.404037	0.175629
H135	H	1.106625	0.903802	-0.483056
H136	H	1.606625	1.403802	0.016944
H137	H	0.619785	0.482928	-0.324134
H138	H	1.119785	0.982928	0.175866
C139	C	1.179588	0.911203	-0.251689
C140	C	1.679588	1.411203	0.248311
H141	H	1.166609	0.894231	-0.203592
H142	H	1.666609	1.394231	0.296408
H143	H	1.227549	0.893492	-0.264214
H144	H	1.727549	1.393492	0.235786
H145	H	1.179590	0.963830	-0.252284
H146	H	1.679590	1.463830	0.247716
C147	C	0.627686	0.319164	-0.503121
C148	C	1.127686	0.819164	-0.003121
H149	H	0.610828	0.271006	-0.516018
H150	H	1.110828	0.771006	-0.016018
H151	H	0.610064	0.353966	-0.538434
H152	H	1.110064	0.853966	-0.038434
H153	H	0.680310	0.319753	-0.502651
H154	H	1.180310	0.819753	-0.002651
C155	C	0.519606	0.212792	-0.397075
C156	C	1.019606	0.712792	0.102925
H157	H	0.536505	0.177554	-0.361832
H158	H	1.036505	0.677554	0.138168
H159	H	0.466985	0.213460	-0.397381
H160	H	0.966985	0.713460	0.102619
H161	H	0.537288	0.199628	-0.444879
H162	H	1.037288	0.699628	0.055121
C163	C	1.179732	0.251456	-0.912102
C164	C	1.679732	0.751456	-0.412102
H165	H	1.227803	0.264472	-0.895106
H166	H	1.727803	0.764472	-0.395106
H167	H	1.167278	0.203484	-0.894434
H168	H	1.667278	0.703484	-0.394434
H169	H	1.179153	0.251460	-0.964729
H170	H	1.679153	0.751460	-0.464729
C171	C	1.218287	0.803330	-0.397012
C172	C	1.718287	1.303330	0.102988
H173	H	1.231079	0.820188	-0.445199
H174	H	1.731079	1.320188	0.054801
H175	H	1.253666	0.820963	-0.362287
H176	H	1.753666	1.320963	0.137713
H177	H	1.217835	0.750705	-0.396413
H178	H	1.717835	1.250705	0.103587
H179	H	0.981531	0.811178	-0.449395
H180	H	1.481531	1.311178	0.050605
C181	C	1.218439	0.396793	-0.804481
C182	C	1.718439	0.896793	-0.304481
H183	H	1.250759	0.405444	-0.845117
H184	H	1.750759	0.905444	-0.345117
H185	H	1.214985	0.440387	-0.775187
H186	H	1.714985	0.940387	-0.275187
H187	H	1.237332	0.357391	-0.775156
H188	H	1.737332	0.857391	-0.275156
C189	C	0.966965	0.464072	-0.804348
C190	C	1.466965	0.964072	-0.304348
H191	H	0.979957	0.512178	-0.821269
H192	H	1.479957	1.012178	-0.321269
H193	H	0.918972	0.451649	-0.821978
H194	H	1.418972	0.951649	-0.321978
H195	H	0.967034	0.463391	-0.751723
H196	H	1.467034	0.963391	-0.251723
H197	H	1.039807	0.232736	-0.811899
H198	H	1.539807	0.732736	-0.311899
H199	H	1.106690	0.482794	-0.904739
H200	H	1.606690	0.982794	-0.404739
C201	C	0.928149	0.318840	-0.912309
C202	C	1.428149	0.818840	-0.412309
H203	H	0.892938	0.354141	-0.895398
H204	H	1.392938	0.854141	-0.395398
H205	H	0.928822	0.318525	-0.964930
H206	H	1.428822	0.818525	-0.464930
H207	H	0.914943	0.271059	-0.894656
H208	H	1.414943	0.771059	-0.394656
