data_functionalizedCrystal
_audit_creation_method	'MofGen! by Chris Wilmer'
_symmetry_space_group_name_H-M	'P1'
_symmetry_Int_Tables_number	1
_symmetry_cell_setting	triclinic
loop_
_symmetry_equiv_pos_as_xyz
  x,y,z
_cell_length_a	16.109301
_cell_length_b	11.792241
_cell_length_c	14.586319
_cell_angle_alpha	89.996059
_cell_angle_beta	89.998857
_cell_angle_gamma	83.827500
loop_
_atom_site_label
_atom_site_type_symbol
_atom_site_fract_x
_atom_site_fract_y
_atom_site_fract_z
O1	O	1.103817	0.145887	-0.076190
O2	O	0.861841	0.164041	-0.076203
O3	O	0.988701	-0.010258	-0.076190
O4	O	0.976957	0.320186	-0.076203
O5	O	0.988692	-0.010261	0.076291
O6	O	0.861832	0.164039	0.076278
O7	O	1.103808	0.145884	0.076291
Cu8	Cu	0.982819	0.154961	0.090207
Cu9	Cu	0.982830	0.154964	-0.090119
O10	O	0.976948	0.320183	0.076277
C11	C	0.830858	0.163305	0.000036
C12	C	0.738552	0.161100	0.000031
C13	C	0.987959	-0.052544	0.000050
C14	C	0.985751	-0.178538	0.000049
C15	C	0.430007	0.257318	0.000043
C16	C	0.516737	0.259400	0.000037
C17	C	0.535637	0.052600	0.000034
C18	C	0.448908	0.050518	0.000033
C19	C	0.396095	0.152881	0.000042
C20	C	0.569554	0.157044	0.000038
C21	C	0.663590	0.159301	0.000032
C22	C	0.302053	0.150624	0.000046
C23	C	0.981691	-0.409215	0.000034
C24	C	0.983947	-0.280849	0.000042
C25	C	1.134791	0.146621	0.000050
C26	C	1.227097	0.148826	0.000048
C27	C	0.977690	0.362469	0.000035
C28	C	0.979898	0.488464	0.000030
N29	N	0.982818	0.154958	0.217039
N30	N	0.982838	0.154958	-0.216951
C31	C	1.039011	0.077804	0.452051
C32	C	1.039013	0.077802	0.548032
C33	C	0.926639	0.232116	0.548030
C34	C	0.926633	0.232112	0.452050
C35	C	0.982824	0.154958	0.404063
C36	C	0.982832	0.154959	0.596024
C37	C	0.982834	0.154956	0.700091
C38	C	0.982821	0.154958	0.299990
H39	H	0.387008	0.340668	0.000050
H40	H	0.880891	0.294935	0.587110
H41	H	0.578648	-0.030740	0.000028
C42	C	0.411923	-0.062762	-0.000017
C43	C	0.324667	-0.042672	-0.000045
C44	C	0.290568	-0.146993	-0.000108
H45	H	0.429922	-0.105004	0.053140
H46	H	0.429974	-0.104908	-0.053213
H47	H	0.306624	-0.000544	0.053146
H48	H	0.306645	-0.000448	-0.053199
H49	H	0.308618	-0.189139	-0.053305
H50	H	0.308572	-0.189226	0.053050
H51	H	0.231361	-0.133376	-0.000136
C52	C	1.100046	-0.006096	0.400115
C53	C	1.149236	-0.073685	0.462689
C54	C	1.205462	-0.151001	0.414883
H55	H	1.134915	0.034608	0.362663
H56	H	1.069944	-0.053417	0.362701
H57	H	1.179335	-0.026370	0.500088
H58	H	1.114389	-0.114413	0.500143
H59	H	1.175360	-0.198322	0.377469
H60	H	1.240326	-0.110287	0.377433
H61	H	1.238839	-0.196876	0.457332
H62	H	0.880875	0.294940	0.412976
C63	C	1.099885	-0.006094	0.600181
C64	C	1.055291	-0.075614	0.655271
C65	C	1.111339	-0.152926	0.703314
H66	H	1.134698	0.034614	0.637694
H67	H	1.133334	-0.052108	0.557881
H68	H	1.021857	-0.029606	0.697566
H69	H	1.020481	-0.116347	0.617782
H70	H	1.144789	-0.198940	0.661014
H71	H	1.146150	-0.112208	0.740821
H72	H	1.081091	-0.200111	0.740692
H73	H	0.544343	0.344443	0.000038
