data_functionalizedCrystal
_audit_creation_method	'MofGen! by Chris Wilmer'
_symmetry_space_group_name_H-M	'P1'
_symmetry_Int_Tables_number	1
_symmetry_cell_setting	triclinic
loop_
_symmetry_equiv_pos_as_xyz
  x,y,z
_cell_length_a	16.992694
_cell_length_b	9.065215
_cell_length_c	8.140239
_cell_angle_alpha	89.997429
_cell_angle_beta	90.002898
_cell_angle_gamma	87.841460
loop_
_atom_site_label
_atom_site_type_symbol
_atom_site_fract_x
_atom_site_fract_y
_atom_site_fract_z
O1	O	-1.042611	-0.313083	0.136402
O2	O	-0.542611	0.186917	0.636402
O3	O	-0.814301	-0.309648	0.136451
O4	O	-0.314301	0.190352	0.636451
O5	O	-0.933177	-0.097160	0.136418
O6	O	-0.433177	0.402840	0.636418
O7	O	-0.923736	-0.525570	0.136434
O8	O	-0.423736	-0.025570	0.636434
O9	O	-0.933170	-0.097157	-0.136809
O10	O	-0.433170	0.402843	0.363191
O11	O	-0.814295	-0.309644	-0.136777
O12	O	-0.314295	0.190356	0.363223
O13	O	-1.042604	-0.313079	-0.136825
O14	O	-0.542604	0.186921	0.363175
Zn15	Zn	-0.928449	-0.311361	-0.180181
Zn16	Zn	-0.428449	0.188639	0.319819
Zn17	Zn	-0.928457	-0.311366	0.179807
Zn18	Zn	-0.428457	0.188634	0.679807
O19	O	-0.923729	-0.525567	-0.136793
O20	O	-0.423729	-0.025567	0.363207
C21	C	-0.785054	-0.305228	-0.000157
C22	C	-0.285054	0.194772	0.499843
C23	C	-0.697917	-0.292044	-0.000138
C24	C	-0.197917	0.207956	0.499862
C25	C	-0.932267	-0.042088	-0.000193
C26	C	-0.432267	0.457912	0.499807
C27	C	-0.929555	0.122007	-0.000188
C28	C	-0.429555	0.622007	0.499812
C29	C	-1.071852	-0.317500	-0.000214
C30	C	-0.571852	0.182500	0.499786
C31	C	-1.158989	-0.330683	-0.000222
C32	C	-0.658989	0.169317	0.499778
C33	C	-0.648579	-0.419250	-0.000135
C34	C	-0.148579	0.080750	0.499865
C35	C	-0.566704	-0.406853	-0.000158
C36	C	-0.066704	0.093147	0.499842
C37	C	-0.534169	-0.267250	-0.000173
C38	C	-0.034169	0.232750	0.499827
C39	C	-0.583513	-0.140034	-0.000181
C40	C	-0.083513	0.359966	0.499819
C41	C	-0.665386	-0.152432	-0.000170
C42	C	-0.165386	0.347568	0.499830
C43	C	-0.290207	-0.215866	-0.000219
C44	C	0.209793	0.284134	0.499781
C45	C	-0.208327	-0.203477	-0.000225
C46	C	0.291673	0.296523	0.499775
C47	C	-0.191524	-0.470298	-0.000205
C48	C	0.308476	0.029702	0.499795
C49	C	-0.273399	-0.482684	-0.000184
C50	C	0.226601	0.017316	0.499816
C51	C	-0.322736	-0.355468	-0.000201
C52	C	0.177264	0.144532	0.499799
N53	N	-0.450480	-0.254575	-0.000191
N54	N	0.049520	0.245425	0.499809
N55	N	-0.406423	-0.368144	-0.000194
N56	N	0.093577	0.131856	0.499806
C57	C	-0.924639	-0.580639	-0.000177
C58	C	-0.424639	-0.080639	0.499823
C59	C	-0.927351	-0.744734	-0.000172
C60	C	-0.427351	-0.244734	0.499828
N61	N	-0.928448	-0.311358	-0.425864
N62	N	-0.428448	0.188642	0.074136
N63	N	-0.928464	-0.311358	0.425490
N64	N	-0.428464	0.188642	0.925490
H65	H	-0.526536	-0.510438	-0.000153
H66	H	-0.026536	-0.010438	0.499847
H67	H	-0.299883	-0.596364	-0.000153
H68	H	0.200117	-0.096364	0.499847
H69	H	-0.557017	-0.026365	-0.000217
H70	H	-0.057017	0.473635	0.499783
C71	C	-0.137864	-0.608286	0.000053
C72	C	0.362136	-0.108286	0.500053
C73	C	-0.090347	-0.608951	0.140593
C74	C	0.409653	-0.108951	0.640593
C75	C	-0.040898	-0.736038	0.140869
C76	C	0.459102	-0.236038	0.640869
H77	H	-0.168869	-0.693314	0.000145
H78	H	0.331131	-0.193314	0.500145
H79	H	-0.105535	-0.609000	-0.095184
H80	H	0.394465	-0.109000	0.404816
H81	H	-0.122671	-0.608251	0.235805
H82	H	0.377329	-0.108251	0.735805
H83	H	-0.059325	-0.523952	0.140530
H84	H	0.440675	-0.023952	0.640530
H85	H	-0.008570	-0.736752	0.045632
H86	H	0.491430	-0.236752	0.545632
H87	H	-0.071909	-0.821056	0.140957
H88	H	0.428091	-0.321056	0.640957
H89	H	-0.008647	-0.736500	0.236215
H90	H	0.491353	-0.236500	0.736215
C91	C	-0.718825	-0.014146	-0.000080
C92	C	-0.218825	0.485854	0.499920
C93	C	-0.672810	0.110768	-0.000048
C94	C	-0.172810	0.610768	0.499952
C95	C	-0.722009	0.238187	0.000051
C96	C	-0.222009	0.738187	0.500051
H97	H	-0.751134	-0.013226	-0.095330
H98	H	-0.251134	0.486774	0.404670
H99	H	-0.751095	-0.013355	0.095243
H100	H	-0.251095	0.486645	0.595243
H101	H	-0.640553	0.109979	-0.095362
H102	H	-0.140553	0.609979	0.404638
H103	H	-0.640502	0.109898	0.095195
H104	H	-0.140502	0.609898	0.595195
H105	H	-0.754280	0.238977	0.095374
H106	H	-0.254280	0.738977	0.595374
H107	H	-0.754316	0.239091	-0.095201
H108	H	-0.254316	0.739091	0.404799
H109	H	-0.690796	0.322956	0.000088
H110	H	-0.190796	0.822956	0.500088
C111	C	-0.172898	-0.051989	-0.000509
C112	C	0.327102	0.448011	0.499491
C113	C	-0.126373	-0.037105	-0.141059
C114	C	0.373627	0.462895	0.358941
C115	C	-0.093715	0.102411	-0.141362
C116	C	0.406285	0.602411	0.358638
H117	H	-0.213926	0.022135	-0.000605
H118	H	0.286074	0.522135	0.499395
H119	H	-0.141262	-0.041581	0.094721
H120	H	0.358738	0.458419	0.594721
H121	H	-0.158007	-0.047497	-0.236264
H122	H	0.341993	0.452503	0.263736
H123	H	-0.085332	-0.111195	-0.140992
H124	H	0.414668	0.388805	0.359008
H125	H	-0.062079	0.112818	-0.046132
H126	H	0.437921	0.612818	0.453868
H127	H	-0.134749	0.176523	-0.141454
H128	H	0.365251	0.676523	0.358546
H129	H	-0.062139	0.112523	-0.236715
H130	H	0.437861	0.612523	0.263285
H131	H	-0.675062	-0.532930	-0.000122
H132	H	-0.175062	-0.032930	0.499878
H133	H	-0.330367	-0.112277	-0.000234
H134	H	0.169633	0.387723	0.499766
