data_functionalizedCrystal
_audit_creation_method	'MofGen! by Chris Wilmer'
_symmetry_space_group_name_H-M	'P1'
_symmetry_Int_Tables_number	1
_symmetry_cell_setting	triclinic
loop_
_symmetry_equiv_pos_as_xyz
  x,y,z
_cell_length_a	31.640172
_cell_length_b	31.640172
_cell_length_c	20.016444
_cell_angle_alpha	59.991564
_cell_angle_beta	89.996414
_cell_angle_gamma	59.994337
loop_
_atom_site_label
_atom_site_type_symbol
_atom_site_fract_x
_atom_site_fract_y
_atom_site_fract_z
Zr1	Zr	0.407155	0.462631	-0.087826
O2	O	0.339659	0.550824	-0.194523
O3	O	0.427849	0.374445	-0.055101
O4	O	0.427840	0.462632	-0.194505
O5	O	0.339671	0.462633	0.054826
O6	O	0.497397	0.462625	-0.194509
O7	O	0.339667	0.462637	-0.055119
O8	O	0.497412	0.304874	0.054858
O9	O	0.339656	0.620384	-0.194542
O10	O	0.488580	0.410709	-0.041168
O11	O	0.436674	0.410712	0.040886
O12	O	0.436664	0.514541	-0.123243
O13	O	0.384758	0.514543	-0.041189
Zr14	Zr	0.518095	0.462614	0.087517
Zr15	Zr	0.518089	0.462619	-0.087833
Zr16	Zr	0.407161	0.462625	0.087524
Zr17	Zr	0.407150	0.573571	-0.087856
Zr18	Zr	0.518100	0.351674	0.087547
O19	O	0.497401	0.550800	0.054792
O20	O	0.497393	0.550807	-0.194533
O21	O	0.339667	0.550816	0.054802
O22	O	0.585591	0.374421	0.194214
O23	O	0.585583	0.374429	-0.055111
O24	O	0.427857	0.374437	0.194224
O25	O	0.585579	0.462611	-0.055135
O26	O	0.497410	0.462613	0.194195
O27	O	0.427853	0.462620	0.194200
O28	O	0.585583	0.462608	0.054810
O29	O	0.427834	0.620375	-0.194547
O30	O	0.497416	0.304870	0.194238
O31	O	0.585594	0.304861	0.194232
O32	O	0.585589	0.304865	0.054853
O33	O	0.339661	0.620379	-0.055162
O34	O	0.427838	0.620370	-0.055168
O35	O	0.488586	0.410704	0.122934
O36	O	0.540492	0.410701	0.040880
O37	O	0.488576	0.514533	-0.041196
O38	O	0.436670	0.514536	0.040858
C39	C	0.462631	0.323853	-0.000117
C40	C	0.462633	0.276756	-0.000104
C41	C	0.424303	0.023087	-0.060747
C42	C	0.424299	-0.153894	-0.060770
O43	O	0.391720	-0.144182	-0.112311
N44	N	0.462622	-0.214352	-0.000192
C45	C	0.500949	-0.230564	0.060393
O46	O	0.533548	-0.286048	0.111913
C47	C	0.500955	-0.053583	0.060412
C48	C	0.462627	0.006875	-0.000165
C49	C	0.385979	0.083542	-0.121320
C50	C	0.385979	0.127785	-0.121311
C51	C	0.424303	0.111572	-0.060729
C52	C	0.462627	0.051117	-0.000157
C53	C	0.539285	-0.069796	0.120993
C54	C	0.539283	-0.025545	0.120991
C55	C	0.500956	0.034913	0.060414
C56	C	0.500951	0.079146	0.060434
N57	N	0.462629	0.139604	-0.000144
C58	C	0.424305	0.155817	-0.060726
C59	C	0.500943	-0.323479	0.060380
C60	C	0.500941	-0.367724	0.060377
C61	C	0.424292	-0.291050	-0.060788
C62	C	0.424292	-0.246805	-0.060780
C63	C	0.462621	-0.263021	-0.000198
C64	C	0.424307	0.248726	-0.060702
C65	C	0.424309	0.292969	-0.060686
C66	C	0.500960	0.216291	0.060475
C67	C	0.500956	0.172052	0.060462
C68	C	0.462628	0.188274	-0.000134
O69	O	0.533517	0.069479	0.111943
O70	O	0.391718	0.211304	-0.112249
C71	C	0.424304	-0.021155	-0.060756
C72	C	0.462628	-0.081610	-0.000183
C73	C	0.500952	-0.097823	0.060399
C74	C	0.462626	-0.125855	-0.000187
C75	C	0.424302	-0.109642	-0.060768
C76	C	0.385980	-0.049184	-0.121347
C77	C	0.385980	-0.004942	-0.121338
C78	C	0.539274	-0.158280	0.120977
C79	C	0.539271	-0.202520	0.120964
C80	C	0.500947	-0.186307	0.060382
C81	C	0.323863	0.462637	-0.000146
C82	C	0.276769	0.462641	-0.000143
C83	C	-0.015239	0.462613	-0.060723
C84	C	-0.192225	0.462606	-0.060729
O85	O	-0.215099	0.462581	-0.112221
N86	N	-0.214354	0.462605	-0.000160
C87	C	-0.192231	0.462603	0.060418
O88	O	-0.215111	0.462596	0.111940
C89	C	-0.015243	0.462606	0.060427
C90	C	0.006880	0.462612	-0.000151
C91	C	0.006885	0.462619	-0.121295
C92	C	0.051127	0.462624	-0.121295
C93	C	0.073246	0.462624	-0.060724
C94	C	0.051122	0.462618	-0.000152
C95	C	0.006881	0.462599	0.121007
C96	C	0.051131	0.462598	0.121005
C97	C	0.073254	0.462605	0.060427
C98	C	0.117483	0.462622	0.060420
N99	N	0.139612	0.462622	-0.000149
C100	C	0.117493	0.462623	-0.060721
C101	C	-0.285153	0.462602	0.060408
C102	C	-0.329400	0.462602	0.060405
C103	C	-0.329391	0.462604	-0.060741
C104	C	-0.285145	0.462608	-0.060741
C105	C	-0.263024	0.462603	-0.000161
C106	C	0.210405	0.462635	-0.060718
C107	C	0.254650	0.462642	-0.060715
C108	C	0.254638	0.462637	0.060433
C109	C	0.210396	0.462632	0.060428
C110	C	0.188281	0.462629	-0.000151
O111	O	0.140388	0.462640	0.111890
O112	O	0.140387	0.462617	-0.112225
C113	C	-0.059481	0.462608	-0.060722
C114	C	-0.081605	0.462602	-0.000150
C115	C	-0.059486	0.462601	0.060422
C116	C	-0.125852	0.462602	-0.000153
C117	C	-0.147971	0.462603	-0.060725
C118	C	-0.125842	0.462604	-0.121294
C119	C	-0.081600	0.462609	-0.121294
C120	C	-0.081615	0.462601	0.120990
C121	C	-0.125857	0.462596	0.120985
C122	C	-0.147976	0.462597	0.060414
C123	C	0.601387	0.462608	-0.000164
C124	C	0.648481	0.462603	-0.000167
C125	C	0.462618	0.462629	-0.219491
C126	C	0.462615	0.462631	-0.293931
C127	C	0.462619	0.601392	-0.000192
C128	C	0.462617	0.648489	-0.000205
C129	C	0.435525	0.516823	-0.508030
C130	C	0.435529	0.516821	-0.577971
C131	C	0.489729	0.408417	-0.492271
C132	C	0.489727	0.408420	-0.422332
C133	C	0.462622	0.462625	-0.430214
C134	C	0.462628	0.462619	-0.570095
C135	C	0.462633	0.462616	-0.645928
C136	C	0.462618	0.462628	-0.354377
C137	C	0.462632	0.462616	0.219181
C138	C	0.462635	0.462613	0.293622
C139	C	0.601392	0.323839	-0.000126
C140	C	0.648489	0.276737	-0.000116
C141	C	0.462638	0.323846	0.219219
C142	C	0.462643	0.276747	0.293672
C143	C	0.601400	0.323832	0.219210
C144	C	0.648499	0.276728	0.293660
C145	C	0.323850	0.601413	-0.219519
C146	C	0.276751	0.648517	-0.293970
C147	C	0.323858	0.601406	-0.000184
C148	C	0.276761	0.648508	-0.000193
C149	C	0.462612	0.601398	-0.219528
C150	C	0.462607	0.648498	-0.293981
C151	C	0.643508	0.254621	-0.042947
C152	C	0.687756	0.210370	-0.042954
C153	C	0.736984	0.188232	-0.000125
C154	C	0.741964	0.210352	0.042707
C155	C	0.697716	0.254606	0.042709
C156	C	0.489742	0.254625	0.371471
C157	C	0.489744	0.210376	0.441435
C158	C	0.462650	0.188248	0.433597
C159	C	0.435547	0.210374	0.355790
C160	C	0.435542	0.254625	0.285828
C161	C	0.697716	0.254606	0.285792
C162	C	0.741975	0.210353	0.355739
C163	C	0.737015	0.188219	0.433554
C164	C	0.687792	0.210346	0.441421
C165	C	0.643535	0.254601	0.371475
C166	C	0.227534	0.670644	-0.286101
C167	C	0.183275	0.714911	-0.356048
C168	C	0.188235	0.737047	-0.433864
C169	C	0.237458	0.714917	-0.441731
C170	C	0.281715	0.670654	-0.371784
C171	C	0.281742	0.670628	0.042630
C172	C	0.237494	0.714891	0.042618
C173	C	0.188266	0.737031	-0.000213
C174	C	0.183286	0.714909	-0.043042
C175	C	0.227534	0.670649	-0.043034
C176	C	0.489707	0.670612	-0.286118
C177	C	0.489713	0.714861	-0.356068
C178	C	0.462616	0.736998	-0.433881
C179	C	0.435515	0.714879	-0.441743
C180	C	0.435513	0.670628	-0.371794
H181	H	0.393094	0.342198	-0.110014
H182	H	0.413443	0.652627	-0.378208
H183	H	0.782050	0.192342	0.349319
O184	O	0.242274	0.736357	0.084294
C185	C	0.223815	0.749844	0.191627
C186	C	0.218351	0.725525	0.144480
H187	H	0.204487	0.741083	0.240310
H188	H	0.204436	0.799993	0.147306
H189	H	0.266604	0.726419	0.222207
H190	H	0.175576	0.748904	0.113897
H191	H	0.237762	0.675371	0.188838
H192	H	0.773057	0.152184	0.490502
H193	H	0.321821	0.652605	0.077514
H194	H	0.413476	0.272631	0.222483
O195	O	0.515951	0.649167	-0.210517
C196	C	0.511004	0.635589	-0.081808
C197	C	0.481213	0.659913	-0.167403
H198	H	0.482932	0.644257	-0.046919
H199	H	0.530358	0.659007	-0.088167
H200	H	0.541788	0.585451	-0.046948
H201	H	0.450404	0.710047	-0.202310
H202	H	0.461894	0.636450	-0.160986
O203	O	0.409284	0.188782	0.348329
C204	C	0.385281	0.120604	0.418175
C205	C	0.415046	0.145004	0.426738
H206	H	0.389920	0.085214	0.481558
H207	H	0.401352	0.099837	0.383361
H208	H	0.342499	0.158735	0.383254
H209	H	0.457832	0.106907	0.461676
H210	H	0.398933	0.165789	0.461519
H211	H	0.570482	-0.251748	0.170300
H212	H	0.393087	-0.277856	-0.110116
O213	O	0.188894	0.462551	0.119290
C214	C	0.164739	0.411004	0.230361
C215	C	0.189080	0.411037	0.163716
H216	H	0.164891	0.369354	0.266310
H217	H	0.123199	0.452582	0.200537
H218	H	0.188144	0.411036	0.273615
H219	H	0.165717	0.410984	0.120442
H220	H	0.230625	0.369463	0.193596
H221	H	0.511806	0.272637	0.377869
O222	O	0.595680	0.276067	-0.084426
C223	C	0.514256	0.289650	-0.076595
C224	C	0.568407	0.265324	-0.029509
H225	H	0.492186	0.280984	-0.032218
H226	H	0.518273	0.266231	-0.107184
H227	H	0.492205	0.339788	-0.125262
H228	H	0.590488	0.215191	0.019196
H229	H	0.564352	0.288788	0.001023
H230	H	-0.347408	0.462606	-0.110062
H231	H	-0.011119	0.462618	-0.170620
H232	H	0.152241	0.773070	-0.000213
O233	O	0.702634	0.276012	0.210268
C234	C	0.761059	0.271214	0.132688
C235	C	0.755558	0.246960	0.218263
H236	H	0.803846	0.247727	0.139123
H237	H	0.741729	0.321356	0.097692
H238	H	0.741668	0.262487	0.097893
H239	H	0.774953	0.255644	0.253126
H240	H	0.774875	0.196825	0.253198
H241	H	0.143199	0.732941	-0.077914
H242	H	0.413454	0.560960	-0.514453
O243	O	0.576527	-0.174138	0.179912
C244	C	0.652567	-0.254867	0.300064
C245	C	0.610401	-0.236986	0.233372
H246	H	0.679971	-0.305680	0.343294
H247	H	0.633706	-0.236117	0.336038
H248	H	0.675262	-0.236036	0.270194
H249	H	0.587692	-0.255812	0.263174
H250	H	0.629293	-0.255727	0.197405
O251	O	0.516043	0.736300	-0.348274
C252	C	0.569811	0.731589	-0.255897
C253	C	0.540006	0.707268	-0.264609
H254	H	0.589202	0.708119	-0.188259
H255	H	0.541758	0.781728	-0.286464
H256	H	0.600570	0.722898	-0.286530
H257	H	0.509247	0.715916	-0.233972
H258	H	0.568091	0.657137	-0.234064
O259	O	0.462654	0.780003	-0.501742
C260	C	0.492426	0.843467	-0.555093
C261	C	0.492414	0.794773	-0.478178
H262	H	0.516493	0.855414	-0.536069
H263	H	0.451007	0.884943	-0.593085
H264	H	0.509815	0.826060	-0.593072
H265	H	0.475048	0.812124	-0.440136
H266	H	0.533842	0.753306	-0.440247
H267	H	0.241490	0.732946	-0.505096
H268	H	0.354774	-0.035990	-0.170673
H269	H	0.354772	0.177010	-0.170646
O270	O	0.387022	0.264590	-0.119600
C271	C	0.311010	0.345321	-0.239797
C272	C	0.353199	0.327438	-0.173138
H273	H	0.283660	0.396133	-0.283109
H274	H	0.288256	0.326563	-0.209985
H275	H	0.329908	0.326498	-0.275677
H276	H	0.334344	0.346255	-0.137235
H277	H	0.375949	0.346187	-0.202999
H278	H	0.223471	0.652640	-0.077904
H279	H	0.511816	0.192366	0.504782
H280	H	0.354770	0.096754	-0.170657
H281	H	0.511796	0.364285	-0.485863
H282	H	0.683692	0.192366	-0.077833
O283	O	0.683071	0.188755	0.517075
C284	C	0.727254	0.120583	0.662801
C285	C	0.732673	0.144977	0.577172
H286	H	0.767350	0.085193	0.711412
H287	H	0.705226	0.099818	0.670240
H288	H	0.705166	0.158717	0.670138
H289	H	0.754772	0.106876	0.569775
H290	H	0.754680	0.165760	0.569771
H291	H	-0.347415	0.462606	0.109726
H292	H	0.511796	0.364283	-0.358966
H293	H	0.413453	0.732910	-0.505108
O294	O	0.779910	0.145223	-0.000181
C295	C	0.813652	0.081753	-0.047227
C296	C	0.764998	0.130452	-0.047215
H297	H	0.801613	0.069805	-0.085263
H298	H	0.837684	0.040278	0.018248
H299	H	0.837681	0.099155	-0.074720
H300	H	0.740929	0.113105	-0.019760
H301	H	0.741004	0.171917	-0.112705
H302	H	0.393079	-0.197579	-0.110103
O303	O	-0.263597	0.462495	0.119321
C304	C	-0.187884	0.411005	0.230329
C305	C	-0.212232	0.411041	0.163661
H306	H	-0.146347	0.369415	0.266185
H307	H	-0.211266	0.410968	0.273670
H308	H	-0.188005	0.452635	0.200443
H309	H	-0.212114	0.369417	0.193477
H310	H	-0.188843	0.411109	0.120328
H311	H	0.570497	-0.038756	0.170325
H312	H	0.782051	0.192321	0.077576
O313	O	0.276089	0.462620	-0.119600
C314	C	0.271403	0.462658	-0.239787
C315	C	0.247080	0.462670	-0.173142
H316	H	0.247953	0.462710	-0.283104
H317	H	0.312921	0.421039	-0.209964
H318	H	0.271324	0.504261	-0.275667
H319	H	0.247122	0.421094	-0.137240
H320	H	0.205575	0.504316	-0.203015
O321	O	0.409288	0.569454	-0.653578
C322	C	0.414250	0.632346	-0.782292
C323	C	0.444033	0.572721	-0.696684
H324	H	0.442327	0.635002	-0.817174
H325	H	0.394895	0.671108	-0.775955
H326	H	0.383467	0.635052	-0.817146
H327	H	0.474840	0.569957	-0.661783
H328	H	0.463352	0.533987	-0.703080
O329	O	0.538220	-0.426423	0.119266
C330	C	0.614229	-0.497790	0.239470
C331	C	0.572045	-0.431293	0.172816
H332	H	0.641581	-0.501749	0.282793
H333	H	0.636982	-0.520438	0.209655
H334	H	0.595327	-0.520414	0.275341
H335	H	0.590904	-0.408617	0.136923
H336	H	0.549295	-0.408689	0.202681
O337	O	0.072651	0.462517	-0.180069
C338	C	0.111913	0.411015	-0.242915
C339	C	0.087562	0.411060	-0.176305
H340	H	0.123965	0.369422	-0.239905
H341	H	0.147363	0.410976	-0.232533
H342	H	0.082400	0.452643	-0.305665
H343	H	0.117036	0.369439	-0.113527
H344	H	0.052102	0.411129	-0.186759
H345	H	0.532157	-0.336693	0.109716
O346	O	0.462731	0.145241	0.501647
C347	C	0.492461	0.081767	0.649039
C348	C	0.492418	0.130463	0.572039
H349	H	0.516451	0.069813	0.705970
H350	H	0.509902	0.040295	0.649132
H351	H	0.451026	0.099177	0.649013
H352	H	0.533838	0.113109	0.572013
H353	H	0.474948	0.171926	0.571975
O354	O	0.595765	0.275999	0.379270
C355	C	0.546707	0.271326	0.471656
C356	C	0.600836	0.247034	0.462937
H357	H	0.550789	0.247928	0.539296
H358	H	0.524629	0.262599	0.441117
H359	H	0.524627	0.321473	0.441000
H360	H	0.622959	0.196884	0.493598
H361	H	0.622875	0.255807	0.493454
H362	H	0.701779	0.272606	0.077591
H363	H	0.143201	0.732921	-0.349627
O364	O	0.538233	0.113349	0.119353
C365	C	0.614235	0.041975	0.239568
C366	C	0.572055	0.108474	0.172914
H367	H	0.641585	0.038012	0.282900
H368	H	0.636991	0.019327	0.209754
H369	H	0.595329	0.019354	0.275428
H370	H	0.590919	0.131147	0.137032
H371	H	0.549303	0.131077	0.202778
H372	H	0.354769	0.044283	-0.170665
O373	O	0.222616	0.649237	-0.210578
C374	C	0.164191	0.653908	-0.132998
C375	C	0.169692	0.678204	-0.218572
H376	H	0.121404	0.677309	-0.139432
H377	H	0.183525	0.662627	-0.098106
H378	H	0.183578	0.603762	-0.098097
H379	H	0.150302	0.728354	-0.253541
H380	H	0.150371	0.669439	-0.253401
O381	O	0.145187	0.780022	-0.501722
C382	C	0.051946	0.843552	-0.555065
C383	C	0.100656	0.794875	-0.478153
H384	H	0.015930	0.855584	-0.536038
H385	H	0.051893	0.826166	-0.593043
H386	H	0.051958	0.884976	-0.593060
H387	H	0.100676	0.753436	-0.440095
H388	H	0.100690	0.812309	-0.440236
H389	H	0.321789	0.652638	-0.378201
H390	H	0.532161	0.203100	0.109801
O391	O	0.188960	0.462529	-0.119465
C392	C	0.164745	0.411040	-0.149075
C393	C	0.189056	0.411073	-0.082460
H394	H	0.164806	0.369449	-0.119181
H395	H	0.188163	0.411008	-0.192359
H396	H	0.123231	0.452669	-0.185004
H397	H	0.230568	0.369451	-0.046471
H398	H	0.165600	0.411136	-0.039232
O399	O	-0.060162	0.462585	-0.180175
C400	C	-0.064857	0.462622	-0.300362
C401	C	-0.089177	0.462637	-0.233713
H402	H	-0.088311	0.462676	-0.343675
H403	H	-0.023340	0.421002	-0.270540
H404	H	-0.064934	0.504224	-0.336244
H405	H	-0.089137	0.421063	-0.197808
H406	H	-0.130680	0.504284	-0.263585
H407	H	-0.011126	0.462593	0.170335
H408	H	-0.267134	0.462613	-0.110068
O409	O	0.072534	0.462630	0.179885
C410	C	0.067862	0.462605	0.300062
C411	C	0.043569	0.462575	0.233426
H412	H	0.044461	0.462548	0.343377
H413	H	0.067744	0.504231	0.270229
H414	H	0.109394	0.421009	0.335945
H415	H	0.002028	0.504143	0.197520
H416	H	0.043727	0.420921	0.263309
O417	O	0.276208	0.462608	0.119233
C418	C	0.344360	0.462638	0.172889
C419	C	0.319987	0.462663	0.106258
H420	H	0.379753	0.462694	0.162412
H421	H	0.356507	0.421013	0.235667
H422	H	0.314834	0.504235	0.169884
H423	H	0.349486	0.421094	0.109187
H424	H	0.307828	0.504315	0.043509
H425	H	0.570496	-0.119018	0.170321
H426	H	-0.143860	0.462608	-0.170616
O427	O	-0.147267	0.462564	0.179915
C428	C	-0.142606	0.462586	0.300056
C429	C	-0.118306	0.462615	0.233375
H430	H	-0.119208	0.462640	0.343285
H431	H	-0.142491	0.420961	0.336032
H432	H	-0.184138	0.504183	0.270174
H433	H	-0.076765	0.421047	0.263190
H434	H	-0.118462	0.504268	0.197406
H435	H	-0.063609	0.462599	0.170316
