data_functionalizedCrystal
_audit_creation_method	'MofGen! by Chris Wilmer'
_symmetry_space_group_name_H-M	'P1'
_symmetry_Int_Tables_number	1
_symmetry_cell_setting	triclinic
loop_
_symmetry_equiv_pos_as_xyz
  x,y,z
_cell_length_a	10.654550
_cell_length_b	16.109302
_cell_length_c	14.586319
_cell_angle_alpha	90.007794
_cell_angle_beta	89.998997
_cell_angle_gamma	83.973342
loop_
_atom_site_label
_atom_site_type_symbol
_atom_site_fract_x
_atom_site_fract_y
_atom_site_fract_z
O1	O	0.161416	1.104093	0.076279
O2	O	0.181504	0.862151	0.076272
O3	O	-0.011355	0.988685	0.076272
O4	O	0.354275	0.977560	0.076279
O5	O	-0.011343	0.988669	-0.076209
O6	O	0.181515	0.862135	-0.076209
O7	O	0.161428	1.104078	-0.076202
Cu8	Cu	0.171472	0.983105	-0.090128
Cu9	Cu	0.171459	0.983124	0.090198
O10	O	0.354286	0.977544	-0.076202
C11	C	0.180695	0.831164	0.000030
C12	C	0.178255	0.738854	0.000028
C13	C	0.172620	0.526471	-0.083081
C14	C	0.170314	0.439737	-0.083078
C15	C	0.170308	0.439765	0.083165
C16	C	0.172605	0.526497	0.083161
C17	C	0.173767	0.569848	0.000035
C18	C	0.169164	0.396381	0.000043
C19	C	0.166664	0.302341	0.000047
C20	C	0.176265	0.663895	0.000031
C21	C	-0.058136	0.987860	0.000033
C22	C	-0.197546	0.985416	0.000036
C23	C	-0.278042	1.059918	0.000036
C24	C	-0.409032	1.057616	0.000042
C25	C	-0.379016	0.906306	0.000045
C26	C	-0.248029	0.908608	0.000046
C27	C	-0.227559	1.136726	0.000026
C28	C	-0.308057	1.211233	0.000025
C29	C	-0.439046	1.208932	0.000031
C30	C	-0.489538	1.132123	0.000039
C31	C	0.401067	0.978369	0.000039
C32	C	0.540477	0.980813	0.000042
C33	C	0.162236	1.135065	0.000042
C34	C	0.164676	1.227375	0.000051
N35	N	0.171481	0.983098	-0.216960
C36	C	0.247653	1.033974	-0.451963
C37	C	0.247644	1.033983	-0.547944
C38	C	0.095260	0.932259	-0.547960
C39	C	0.095263	0.932256	-0.451981
C40	C	0.171466	0.983112	-0.403985
C41	C	0.171455	0.983124	-0.595945
C42	C	0.171445	0.983133	-0.700012
C43	C	0.171475	0.983104	-0.299911
N44	N	0.171440	0.983137	0.217030
H45	H	0.169363	0.404458	0.150843
H46	H	0.173566	0.561764	-0.150767
H47	H	0.033219	0.890853	-0.587050
F48	F	0.014172	0.878117	-0.400915
H49	H	-0.182487	0.847943	0.000045
F50	F	0.328748	1.088104	-0.400885
H51	H	0.309681	1.075401	-0.587004
H52	H	0.169380	0.404423	-0.150759
H53	H	0.173536	0.561816	0.150849
H54	H	-0.266937	1.273768	0.000041
F55	F	-0.088150	1.139181	0.000017
F56	F	-0.524714	1.288227	0.000039
H57	H	-0.596200	1.130255	0.000054
H58	H	-0.420138	0.843772	0.000050
