data_functionalizedCrystal
_audit_creation_method	'MofGen! by Chris Wilmer'
_symmetry_space_group_name_H-M	'P1'
_symmetry_Int_Tables_number	1
_symmetry_cell_setting	triclinic
loop_
_symmetry_equiv_pos_as_xyz
  x,y,z
_cell_length_a	15.995343
_cell_length_b	15.995350
_cell_length_c	12.503572
_cell_angle_alpha	93.525550
_cell_angle_beta	86.486087
_cell_angle_gamma	83.490779
loop_
_atom_site_label
_atom_site_type_symbol
_atom_site_fract_x
_atom_site_fract_y
_atom_site_fract_z
O1	O	1.115812	0.103058	-0.089207
O2	O	0.872037	0.116391	-0.089232
O3	O	1.000588	-0.012164	-0.089218
O4	O	0.987261	0.231612	-0.089221
O5	O	0.990920	-0.002480	0.089423
O6	O	0.862369	0.126075	0.089409
O7	O	1.106144	0.112742	0.089434
Cu8	Cu	0.983374	0.120292	0.105732
Cu9	Cu	0.994807	0.108840	-0.105531
O10	O	0.977593	0.241296	0.089419
C11	C	0.836008	0.120682	0.000085
C12	C	0.743058	0.119033	0.000075
C13	C	0.572871	0.116040	0.000089
C14	C	0.549525	0.023243	0.000090
C15	C	0.452825	0.021519	0.000502
C16	C	0.405311	0.113092	0.000102
C17	C	0.428892	0.165271	0.101912
C18	C	0.525680	0.166376	0.101991
C19	C	0.536586	0.156721	-0.101164
C20	C	0.440163	0.153224	-0.102496
C21	C	0.310612	0.111431	0.000113
C22	C	0.667569	0.117704	0.000086
C23	C	0.995203	-0.038516	0.000100
C24	C	0.993552	-0.131467	0.000094
C25	C	0.987619	-0.469214	0.000097
C26	C	0.896089	-0.421800	-0.000313
C27	C	0.897720	-0.325088	0.000090
C28	C	0.990562	-0.301654	0.000095
C29	C	1.030198	-0.337203	0.102110
C30	C	1.027893	-0.433834	0.102196
C31	C	1.040779	-0.445204	-0.100952
C32	C	1.040830	-0.348332	-0.102301
C33	C	0.992230	-0.206956	0.000097
C34	C	0.985954	-0.563912	0.000102
C35	C	1.142173	0.108450	0.000114
C36	C	1.235123	0.110099	0.000117
C37	C	0.982978	0.267649	0.000099
C38	C	0.984630	0.360599	0.000098
N39	N	0.975338	0.128347	0.254324
N40	N	1.002849	0.100779	-0.254122
C41	C	0.963518	0.140203	0.473438
C42	C	1.014667	0.088926	0.526770
C43	C	1.008090	0.095522	0.648693
C44	C	0.970094	0.133607	0.351504
H45	H	0.581483	-0.016683	-0.072907
H46	H	0.990838	-0.448000	0.178450
H47	H	0.914792	0.189054	0.519340
N48	N	0.845148	-0.282907	0.097119
H49	H	0.797727	-0.242775	0.072971
H50	H	0.820883	-0.327191	0.139757
H51	H	0.437755	-0.018961	-0.072464
N52	N	1.130958	-0.328441	-0.110458
H53	H	1.142275	-0.300990	-0.179673
H54	H	1.140463	-0.288737	-0.047562
N55	N	0.582689	-0.018400	0.096650
H56	H	0.612770	0.022584	0.140394
H57	H	0.534098	-0.035777	0.142209
N58	N	0.423127	-0.021357	0.097740
H59	H	0.452263	-0.080950	0.094860
H60	H	0.437108	0.010873	0.165053
H61	H	0.548332	0.138581	0.178385
H62	H	0.540019	0.234662	0.106343
H63	H	0.396857	0.232871	0.105411
N64	N	1.079226	0.024223	0.465969
H65	H	1.112449	-0.009077	0.518551
H66	H	1.049591	-0.015239	0.419305
H67	H	0.404685	0.137379	0.177967
N68	N	1.116593	-0.476214	0.108360
H69	H	1.119747	-0.508466	0.175231
H70	H	1.132397	-0.516427	0.042929
N71	N	0.579561	0.112402	-0.203419
H72	H	0.622993	0.065500	-0.185139
H73	H	0.536200	0.088017	-0.247590
H74	H	0.550652	0.224972	-0.102147
H75	H	1.098201	-0.322873	0.105908
N76	N	0.420985	0.102812	-0.202273
H77	H	0.389849	0.054181	-0.181115
H78	H	0.384834	0.140287	-0.247710
H79	H	0.994726	-0.304705	0.178023
H80	H	0.407555	0.219706	-0.108960
H81	H	0.866181	-0.300629	-0.073039
H82	H	0.863456	-0.444297	-0.073471
N83	N	1.006677	-0.477956	-0.203378
H84	H	1.051903	-0.517976	-0.245749
H85	H	0.956409	-0.508656	-0.185221
N86	N	0.842614	-0.442514	0.096045
H87	H	0.792708	-0.469965	0.071140
H88	H	0.877483	-0.482454	0.139920
N89	N	1.002565	-0.317603	-0.202276
H90	H	0.952876	-0.273627	-0.181339
H91	H	1.046239	-0.292059	-0.247544
H92	H	1.108317	-0.477004	-0.101634
