data_functionalizedCrystal
_audit_creation_method	'MofGen! by Chris Wilmer'
_symmetry_space_group_name_H-M	'P1'
_symmetry_Int_Tables_number	1
_symmetry_cell_setting	triclinic
loop_
_symmetry_equiv_pos_as_xyz
  x,y,z
_cell_length_a	10.489716
_cell_length_b	10.489716
_cell_length_c	8.965430
_cell_angle_alpha	90.004464
_cell_angle_beta	89.996523
_cell_angle_gamma	84.529136
loop_
_atom_site_label
_atom_site_type_symbol
_atom_site_fract_x
_atom_site_fract_y
_atom_site_fract_z
O1	O	1.694056	0.179811	-0.124013
O2	O	1.322855	0.196737	-0.124017
O3	O	1.516918	0.002674	-0.124020
O4	O	1.499992	0.373875	-0.124010
O5	O	1.516902	0.002686	0.124059
O6	O	1.322838	0.196750	0.124062
O7	O	1.694039	0.179824	0.124066
Cu8	Cu	1.508437	0.188288	0.146716
Cu9	Cu	1.508457	0.188273	-0.146666
O10	O	1.499976	0.373888	0.124069
C11	C	1.275314	0.195472	0.000022
C12	C	1.133684	0.191667	0.000020
C13	C	1.035999	0.310673	0.000019
C14	C	0.958651	0.247794	0.122340
C15	C	0.958674	0.247753	-0.122246
C16	C	1.058201	0.128838	0.122441
C17	C	1.058229	0.128815	-0.122255
C18	C	0.980929	0.065848	0.000096
C19	C	1.515638	-0.044852	0.000015
C20	C	1.511833	-0.186483	0.000001
C21	C	1.630839	-0.284167	0.000016
C22	C	1.567962	-0.361529	-0.122297
C23	C	1.567918	-0.361480	0.122290
C24	C	1.449006	-0.261979	-0.122413
C25	C	1.448980	-0.261925	0.122284
C26	C	1.386015	-0.339237	-0.000059
C27	C	1.741580	0.181089	0.000024
C28	C	1.883210	0.184894	0.000017
C29	C	1.501256	0.421413	0.000031
C30	C	1.505061	0.563044	0.000035
N31	N	1.508433	0.188298	0.353065
N32	N	1.508471	0.188253	-0.353015
C33	C	1.418657	0.278016	0.450372
C34	C	1.534153	0.303817	0.549788
C35	C	1.392986	0.162508	0.549776
C36	C	1.623987	0.214157	0.450292
C37	C	1.482744	0.072798	0.450271
C38	C	1.598323	0.098550	0.549642
H39	H	1.101514	0.078635	0.225956
H40	H	1.674343	0.022655	0.592956
O41	O	1.634522	-0.419167	-0.259261
H42	H	1.586089	-0.377742	-0.360696
O43	O	1.248786	-0.371557	-0.000131
H44	H	1.231323	-0.429033	-0.100760
O45	O	1.382518	-0.204625	-0.259546
H46	H	1.281235	-0.227080	-0.259851
H47	H	1.734354	-0.259500	-0.000107
O48	O	1.634467	-0.419049	0.259277
H49	H	1.735998	-0.397401	0.259008
H50	H	1.398780	-0.218397	0.225695
H51	H	1.460955	-0.024828	0.406525
H52	H	0.915157	0.298037	0.225754
H53	H	1.295339	0.140716	0.593479
O54	O	1.318186	0.378597	0.392611
H55	H	1.339842	0.474366	0.432469
O56	O	0.901074	0.314312	-0.259211
H57	H	0.942508	0.265864	-0.360647
O58	O	1.562933	0.433154	0.607784
H59	H	1.488252	0.507482	0.568068
H60	H	0.956508	-0.037744	0.000164
O61	O	1.753365	0.243174	0.392659
H62	H	1.817670	0.257524	0.488278
H63	H	1.101736	0.078610	-0.225674
H64	H	1.060659	0.414190	0.000136
