data_functionalizedCrystal
_audit_creation_method	'MofGen! by Chris Wilmer'
_symmetry_space_group_name_H-M	'P1'
_symmetry_Int_Tables_number	1
_symmetry_cell_setting	triclinic
loop_
_symmetry_equiv_pos_as_xyz
  x,y,z
_cell_length_a	12.759401
_cell_length_b	18.215405
_cell_length_c	12.759393
_cell_angle_alpha	89.962431
_cell_angle_beta	89.981504
_cell_angle_gamma	90.025046
loop_
_atom_site_label
_atom_site_type_symbol
_atom_site_fract_x
_atom_site_fract_y
_atom_site_fract_z
Zn1	Zn	1.606181	-0.292938	-0.593937
Zn2	Zn	1.606044	-0.416024	-0.418239
Zn3	Zn	1.430483	-0.292976	-0.418277
Zn4	Zn	1.430440	-0.415967	-0.593881
O5	O	1.518287	-0.354476	-0.506084
O6	O	1.753184	-0.309273	-0.570639
O7	O	1.582716	-0.399741	-0.271223
O8	O	1.453865	-0.189987	-0.441618
O9	O	1.753083	-0.399704	-0.441554
O10	O	1.582949	-0.189959	-0.570675
O11	O	1.453732	-0.309339	-0.271251
O12	O	1.283456	-0.309284	-0.441563
O13	O	1.453792	-0.399607	-0.740909
O14	O	1.283425	-0.399645	-0.570578
O15	O	1.582908	-0.309218	-0.740951
O16	O	1.582675	-0.519001	-0.441499
O17	O	1.453660	-0.518959	-0.570542
C18	C	1.245320	-0.354463	-0.506069
C19	C	1.128543	-0.354475	-0.506088
C20	C	1.073692	-0.401601	-0.573155
C21	C	0.963968	-0.401610	-0.573167
C22	C	0.963956	-0.307365	-0.439035
C23	C	1.073678	-0.307353	-0.439029
C24	C	1.073699	-0.456015	-0.650592
C25	C	0.963975	-0.456025	-0.650604
C26	C	1.518176	-0.545683	-0.506033
C27	C	1.518225	-0.627482	-0.506047
C28	C	1.585561	-0.815673	-0.438977
C29	C	1.585608	-0.892531	-0.439003
C30	C	1.451148	-0.892528	-0.573265
C31	C	1.451107	-0.815671	-0.573244
C32	C	1.518312	-0.777245	-0.506094
C33	C	1.518400	-0.930961	-0.506141
C34	C	1.518450	-1.014295	-0.506169
C35	C	1.518263	-0.693906	-0.506067
C36	C	1.792320	-0.354491	-0.506098
C37	C	1.909097	-0.354497	-0.506105
C38	C	1.518361	-0.354402	-0.780117
C39	C	1.518392	-0.354370	-0.896894
C40	C	1.518427	-0.162523	-0.506157
C41	C	1.518487	-0.080724	-0.506189
C42	C	1.585632	-0.307300	-0.951779
C43	C	1.585657	-0.307274	-1.061503
C44	C	1.451199	-0.401394	-1.061447
C45	C	1.451170	-0.401416	-0.951725
C46	C	1.663263	-0.252963	-0.951813
C47	C	1.663288	-0.252936	-1.061537
C48	C	1.518274	-0.354497	-0.233116
C49	C	1.518447	-0.354322	-0.116340
H50	H	0.934165	-0.513008	-0.628663
O51	O	1.637180	-0.185030	-0.916189
C52	C	1.545497	-0.189771	-0.854840
H53	H	1.536585	-0.248083	-0.823577
H54	H	1.474526	-0.175248	-0.904982
C55	C	1.564201	-0.064179	-0.800718
C56	C	1.553260	-0.135797	-0.762314
H57	H	1.568987	-0.030883	-0.743646
H58	H	1.625968	-0.060983	-0.842053
H59	H	1.505056	-0.052086	-0.842503
H60	H	1.612411	-0.147892	-0.720540
H61	H	1.491503	-0.138993	-0.720969
O62	O	1.385735	-0.447027	-0.898357
C63	C	1.317921	-0.405127	-0.834889
H64	H	1.311495	-0.347159	-0.867991
H65	H	1.350388	-0.402610	-0.751738
C66	C	1.216558	-0.512260	-0.792516
C67	C	1.208659	-0.441064	-0.833177
H68	H	1.149162	-0.534428	-0.791455
H69	H	1.262248	-0.540490	-0.835272
H70	H	1.243618	-0.510153	-0.723226
H71	H	1.181613	-0.443173	-0.902469
H72	H	1.162962	-0.412835	-0.790433
O73	O	1.114219	-0.520630	-0.615820
C74	C	1.079974	-0.578233	-0.681160
H75	H	1.057471	-0.555163	-0.761116
H76	H	1.008981	-0.606134	-0.644243
C77	C	1.196503	-0.662967	-0.596192
C78	C	1.168873	-0.634632	-0.694399
H79	H	1.251337	-0.697759	-0.604356
H80	H	1.219572	-0.624160	-0.552168
H81	H	1.137335	-0.686213	-0.565439
H82	H	1.228037	-0.611380	-0.725145
H83	H	1.145816	-0.673437	-0.738429
O84	O	1.385830	-0.929742	-0.638585
C85	C	1.326448	-0.879341	-0.697803
H86	H	1.369451	-0.824528	-0.701465
H87	H	1.246673	-0.871234	-0.659255
C88	C	1.258440	-0.976602	-0.805117
C89	C	1.311261	-0.909281	-0.809622
H90	H	1.249066	-0.995071	-0.874091
H91	H	1.298443	-1.010559	-0.765218
H92	H	1.191966	-0.969837	-0.772989
H93	H	1.377737	-0.916049	-0.841737
H94	H	1.271268	-0.875326	-0.849529
H95	H	1.744655	-0.268201	-1.091313
H96	H	0.919271	-0.268999	-0.384439
H97	H	1.396345	-0.784381	-0.627904
H98	H	0.929982	-0.435680	-0.727959
H99	H	1.640285	-0.784388	-0.384302
O100	O	1.650965	-0.929746	-0.373704
C101	C	1.710288	-0.879346	-0.314456
H102	H	1.667224	-0.824588	-0.310765
H103	H	1.790055	-0.871101	-0.352997
C104	C	1.778402	-0.976655	-0.207194
C105	C	1.725506	-0.909402	-0.202653
H106	H	1.787794	-0.995195	-0.138230
H107	H	1.738438	-1.010611	-0.247112
H108	H	1.844869	-0.969775	-0.239316
H109	H	1.659036	-0.916284	-0.170544
H110	H	1.765459	-0.875447	-0.162726
H111	H	1.740530	-0.273395	-0.917774
O112	O	1.126798	-0.261543	-0.373792
C113	C	1.054840	-0.219943	-0.314630
H114	H	0.976615	-0.250094	-0.310906
H115	H	1.043203	-0.164089	-0.353266
C116	C	1.193705	-0.172190	-0.207416
C117	C	1.097630	-0.209225	-0.202835
H118	H	1.220101	-0.165575	-0.138457
H119	H	1.242185	-0.200214	-0.247277
H120	H	1.183994	-0.125649	-0.239617
H121	H	1.107345	-0.255768	-0.170646
H122	H	1.049152	-0.181208	-0.162965
H123	H	1.103511	-0.440815	-0.732001
O124	O	1.386008	-0.447072	-1.114874
C125	C	1.400428	-0.436945	-1.223488
H126	H	1.481530	-0.412844	-1.238493
H127	H	1.338147	-0.397744	-1.254639
C128	C	1.291150	-0.540996	-1.261355
C129	C	1.390763	-0.511400	-1.279784
H130	H	1.285183	-0.586921	-1.296083
H131	H	1.281430	-0.547817	-1.188180
H132	H	1.239259	-0.508321	-1.287314
H133	H	1.442650	-0.544069	-1.253813
H134	H	1.400491	-0.504585	-1.352956
O135	O	1.628436	-0.188332	-1.102046
C136	C	1.524993	-0.175423	-1.067835
H137	H	1.509957	-0.207341	-0.992430
H138	H	1.467563	-0.194227	-1.130774
C139	C	1.528353	-0.053600	-1.139919
C140	C	1.509889	-0.092798	-1.047300
H141	H	1.519034	-0.002633	-1.127256
H142	H	1.598043	-0.062298	-1.162971
H143	H	1.480493	-0.069278	-1.192359
H144	H	1.557757	-0.077126	-0.994867
H145	H	1.440207	-0.084095	-1.024239
