data_functionalizedCrystal
_audit_creation_method	'MofGen! by Chris Wilmer'
_symmetry_space_group_name_H-M	'P1'
_symmetry_Int_Tables_number	1
_symmetry_cell_setting	triclinic
loop_
_symmetry_equiv_pos_as_xyz
  x,y,z
_cell_length_a	10.489741
_cell_length_b	17.666332
_cell_length_c	10.489716
_cell_angle_alpha	90.002385
_cell_angle_beta	84.534155
_cell_angle_gamma	90.006642
loop_
_atom_site_label
_atom_site_type_symbol
_atom_site_fract_x
_atom_site_fract_y
_atom_site_fract_z
O1	O	1.694047	0.062894	0.179972
O2	O	1.322849	0.062905	0.196865
O3	O	1.516911	0.062902	0.002819
O4	O	1.499985	0.062897	0.374018
O5	O	1.516876	-0.062995	0.002808
O6	O	1.322815	-0.062992	0.196854
O7	O	1.694012	-0.063003	0.179961
Cu8	Cu	1.508410	-0.074493	0.188407
Cu9	Cu	1.508451	0.074395	0.188420
O10	O	1.499951	-0.063000	0.374008
C11	C	1.275301	-0.000042	0.195584
C12	C	1.133672	-0.000037	0.191767
N13	N	1.508391	-0.179212	0.188397
C14	C	1.065542	-0.000043	0.068301
C15	C	0.973427	0.062029	0.126630
C16	C	0.973427	-0.062096	0.126649
C17	C	1.043422	0.062085	0.250147
C18	C	1.043431	-0.062095	0.250149
C19	C	0.951344	-0.000008	0.308568
C20	C	1.594350	-0.218823	0.102516
C21	C	1.594357	-0.298071	0.102510
C22	C	1.508418	-0.337704	0.188407
C23	C	1.422443	-0.298083	0.274295
C24	C	1.422430	-0.218837	0.274290
N25	N	1.493208	-0.462124	0.301130
N26	N	1.493228	-0.537404	0.301131
C27	C	1.508452	-0.576468	0.188425
N28	N	1.523680	-0.537408	0.075716
N29	N	1.523666	-0.462120	0.075716
C30	C	1.508423	-0.423633	0.188422
C31	C	1.594424	-0.702009	0.102531
C32	C	1.594422	-0.781258	0.102523
C33	C	1.422514	-0.781269	0.274318
C34	C	1.422509	-0.702021	0.274315
C35	C	1.508471	-0.662396	0.188423
C36	C	1.741561	-0.000054	0.181243
C37	C	1.883190	-0.000054	0.185060
C38	C	1.515622	-0.000044	-0.044719
C39	C	1.511817	-0.000037	-0.186350
N40	N	1.508481	0.179114	0.188419
C41	C	1.630822	-0.000047	-0.284024
C42	C	1.567954	0.062026	-0.361379
C43	C	1.567892	-0.062098	-0.361354
C44	C	1.448999	0.062088	-0.261840
C45	C	1.448955	-0.062092	-0.261809
C46	C	1.386000	-0.000003	-0.339115
C47	C	1.501240	-0.000052	0.421545
C48	C	1.505044	-0.000054	0.563176
H49	H	1.115241	0.000036	-0.033196
H50	H	1.074459	-0.114576	0.302342
H51	H	1.664415	-0.669744	0.032588
N52	N	1.334657	-0.338552	0.362052
N53	N	1.257912	-0.303172	0.438731
H54	H	1.195904	-0.331751	0.500710
H55	H	1.664358	-0.330328	0.032573
N56	N	1.631000	0.127858	-0.415925
N57	N	1.746725	0.138918	-0.402815
H58	H	1.791259	0.185410	-0.441332
N59	N	0.934515	0.127853	0.061094
N60	N	0.818621	0.138657	0.048502
H61	H	0.791142	0.185142	0.002209
H62	H	1.734335	0.000013	-0.259347
N63	N	0.934532	-0.127922	0.061082
N64	N	0.876763	-0.121024	-0.037133
H65	H	0.849295	-0.167510	-0.083448
N66	N	1.386037	0.127993	-0.207502
N67	N	1.378875	0.138650	-0.089232
H68	H	1.334412	0.185196	-0.050852
H69	H	1.282408	0.000033	-0.363546
H70	H	1.664416	-0.813510	0.032581
N71	N	1.334647	-0.178360	0.362029
N72	N	1.334657	-0.107605	0.362020
H73	H	1.272663	-0.079015	0.423990
N74	N	1.334718	-0.661541	0.362037
N75	N	1.255173	-0.617330	0.320788
H76	H	1.193166	-0.588739	0.382742
N77	N	1.385957	-0.127926	-0.207235
N78	N	1.338854	-0.175241	-0.277932
H79	H	1.294369	-0.221743	-0.239392
N80	N	1.082113	0.127979	0.315664
N81	N	1.197868	0.138628	0.329146
H82	H	1.225198	0.185162	0.375424
N83	N	0.889339	0.000036	0.436031
N84	N	0.907808	0.053381	0.510372
H85	H	0.864016	0.053416	0.600393
N86	N	1.334724	-0.821755	0.362041
N87	N	1.334739	-0.892510	0.362029
H88	H	1.272730	-0.921108	0.423981
H89	H	1.664342	-0.186562	0.032575
H90	H	1.618140	-0.114575	-0.404830
