data_functionalizedCrystal
_audit_creation_method	'MofGen! by Chris Wilmer'
_symmetry_space_group_name_H-M	'P1'
_symmetry_Int_Tables_number	1
_symmetry_cell_setting	triclinic
loop_
_symmetry_equiv_pos_as_xyz
  x,y,z
_cell_length_a	18.050582
_cell_length_b	12.759401
_cell_length_c	12.759400
_cell_angle_alpha	89.985155
_cell_angle_beta	89.980852
_cell_angle_gamma	90.011721
loop_
_atom_site_label
_atom_site_type_symbol
_atom_site_fract_x
_atom_site_fract_y
_atom_site_fract_z
Zn1	Zn	-0.419867	-1.606185	-0.418329
Zn2	Zn	0.080133	-1.106185	0.081671
Zn3	Zn	-0.295684	-1.606100	-0.594009
Zn4	Zn	0.204316	-1.106100	-0.094009
Zn5	Zn	-0.295698	-1.430508	-0.418346
Zn6	Zn	0.204302	-0.930508	0.081654
Zn7	Zn	-0.419840	-1.430476	-0.593967
Zn8	Zn	0.080160	-0.930476	-0.093967
O9	O	-0.357772	-1.518317	-0.506162
O10	O	0.142228	-1.018317	-0.006162
O11	O	-0.403399	-1.753195	-0.441644
O12	O	0.096601	-1.253195	0.058356
O13	O	-0.191761	-1.582786	-0.570732
O14	O	0.308239	-1.082786	-0.070732
O15	O	-0.312186	-1.453861	-0.271322
O16	O	0.187814	-0.953861	0.228678
O17	O	-0.312163	-1.753133	-0.570716
O18	O	0.187837	-1.253133	-0.070716
O19	O	-0.403413	-1.582930	-0.271310
O20	O	0.096587	-1.082930	0.228690
O21	O	-0.191771	-1.453779	-0.441673
O22	O	0.308229	-0.953779	0.058327
O23	O	-0.312160	-1.283483	-0.441631
O24	O	0.187840	-0.783483	0.058369
O25	O	-0.523768	-1.453806	-0.570643
O26	O	-0.023768	-0.953806	-0.070643
O27	O	-0.403366	-1.283459	-0.570659
O28	O	0.096634	-0.783459	-0.070659
O29	O	-0.523788	-1.582899	-0.441602
O30	O	-0.023788	-1.082899	0.058398
O31	O	-0.312137	-1.582754	-0.741025
O32	O	0.187863	-1.082754	-0.241025
O33	O	-0.403353	-1.453724	-0.740993
O34	O	0.096647	-0.953724	-0.240993
C35	C	-0.357762	-1.245350	-0.506143
C36	C	0.142238	-0.745350	-0.006143
C37	C	-0.357775	-1.128573	-0.506160
C38	C	0.142225	-0.628573	-0.006160
C39	C	-0.551478	-1.518359	-0.506116
C40	C	-0.051478	-1.018359	-0.006116
C41	C	-0.634024	-1.518376	-0.506096
C42	C	-0.134024	-1.018376	-0.006096
C43	C	-0.357757	-1.518255	-0.779130
C44	C	0.142243	-1.018255	-0.279130
C45	C	-0.357775	-1.518324	-0.895906
C46	C	0.142225	-1.018324	-0.395906
C47	C	-0.833464	-1.448229	-0.576172
C48	C	-0.333464	-0.948229	-0.076172
C49	C	-0.882852	-1.544088	-0.601854
C50	C	-0.382852	-1.044088	-0.101854
C51	C	-0.785154	-1.518428	-0.506016
C52	C	-0.285154	-1.018428	-0.006016
C53	C	-0.882847	-1.422622	-0.480305
C54	C	-0.382847	-0.922622	0.019695
C55	C	-0.931139	-1.518469	-0.505940
C56	C	-0.431139	-1.018469	-0.005940
C57	C	-0.833455	-1.614337	-0.531747
C58	C	-0.333455	-1.114337	-0.031747
C59	C	-0.833446	-1.492806	-0.410155
C60	C	-0.333446	-0.992806	0.089845
C61	C	-0.882813	-1.588731	-0.435799
C62	C	-0.382813	-1.088731	0.064201
C63	C	-0.701056	-1.518402	-0.506062
C64	C	-0.201056	-1.018402	-0.006062
C65	C	-1.015236	-1.518506	-0.505894
C66	C	-0.515236	-1.018506	-0.005894
C67	C	-0.164820	-1.518337	-0.506133
C68	C	0.335180	-1.018337	-0.006133
C69	C	-0.082275	-1.518523	-0.505857
C70	C	0.417725	-1.018523	-0.005857
C71	C	-0.357783	-1.792351	-0.506183
C72	C	0.142217	-1.292351	-0.006183
C73	C	-0.357787	-1.909127	-0.506191
C74	C	0.142213	-1.409127	-0.006191
C75	C	-0.405188	-1.073727	-0.573453
C76	C	0.094812	-0.573727	-0.073453
C77	C	-0.405196	-0.964003	-0.573466
C78	C	0.094804	-0.464003	-0.073466
C79	C	-0.310372	-0.963982	-0.438891
C80	C	0.189628	-0.463982	0.061109
C81	C	-0.310369	-1.073704	-0.438874
C82	C	0.189631	-0.573704	0.061126
C83	C	-0.459931	-1.073738	-0.651151
C84	C	0.040069	-0.573738	-0.151151
C85	C	-0.459940	-0.964014	-0.651165
C86	C	0.040060	-0.464014	-0.151165
C87	C	-0.310331	-1.585585	-0.950750
C88	C	0.189669	-1.085585	-0.450750
C89	C	-0.310354	-1.585650	-1.060474
C90	C	0.189646	-1.085650	-0.560474
C91	C	-0.405267	-1.451184	-1.060501
C92	C	0.094733	-0.951184	-0.560501
C93	C	-0.405247	-1.451125	-0.950779
C94	C	0.094753	-0.951125	-0.450779
C95	C	-0.255531	-1.663215	-0.950735
C96	C	0.244469	-1.163215	-0.450735
C97	C	-0.255554	-1.663279	-1.060459
C98	C	0.244446	-1.163279	-0.560459
C99	C	-0.357804	-1.518409	-0.232129
C100	C	0.142196	-1.018409	0.267871
C101	C	-0.357818	-1.518447	-0.115353
C102	C	0.142182	-1.018447	0.384647
H103	H	-0.811796	-1.388920	-0.635579
H104	H	-0.311796	-0.888920	-0.135579
F105	F	-0.180366	-1.634882	-1.099473
F106	F	0.319634	-1.134882	-0.599473
F107	F	-0.911219	-1.572448	-0.707772
F108	F	-0.411219	-1.072448	-0.207772
F109	F	-0.259917	-1.132072	-0.367236
F110	F	0.240083	-0.632072	0.132764
F111	F	-0.805220	-1.720291	-0.560259
F112	F	-0.305220	-1.220291	-0.060259
H113	H	-0.276203	-1.740580	-1.094410
H114	H	0.223797	-1.240580	-0.594410
F115	F	-0.805057	-1.464412	-0.304265
F116	F	-0.305057	-0.964412	0.195735
F117	F	-0.259923	-0.905576	-0.367283
F118	F	0.240077	-0.405576	0.132717
H119	H	-0.904344	-1.648182	-0.376438
H120	H	-0.404344	-1.148182	0.123562
F121	F	-0.911206	-1.316699	-0.451921
F122	F	-0.411206	-0.816699	0.048079
H123	H	-0.517475	-1.103536	-0.629470
H124	H	-0.017475	-0.603536	-0.129470
H125	H	-0.270978	-1.744556	-0.920882
H126	H	0.229022	-1.244556	-0.420882
F127	F	-0.432931	-1.118207	-0.752145
F128	F	0.067069	-0.618207	-0.252145
H129	H	-0.514617	-0.930007	-0.622137
H130	H	-0.014617	-0.430007	-0.122137
F131	F	-0.455753	-1.379552	-0.892414
F132	F	0.044247	-0.879552	-0.392414
F133	F	-0.439657	-0.925067	-0.757478
F134	F	0.060343	-0.425067	-0.257478
H135	H	-0.200872	-1.634099	-0.916771
H136	H	0.299128	-1.134099	-0.416771
H137	H	-0.443917	-1.396473	-1.105192
H138	H	0.056083	-0.896473	-0.605192
