data_functionalizedCrystal
_audit_creation_method	'MofGen! by Chris Wilmer'
_symmetry_space_group_name_H-M	'P1'
_symmetry_Int_Tables_number	1
_symmetry_cell_setting	triclinic
loop_
_symmetry_equiv_pos_as_xyz
  x,y,z
_cell_length_a	18.215407
_cell_length_b	18.215405
_cell_length_c	18.215399
_cell_angle_alpha	89.972459
_cell_angle_beta	89.980167
_cell_angle_gamma	90.023180
loop_
_atom_site_label
_atom_site_type_symbol
_atom_site_fract_x
_atom_site_fract_y
_atom_site_fract_z
Zn1	Zn	1.125083	-0.292983	-0.416118
Zn2	Zn	1.124996	-0.416054	-0.293053
Zn3	Zn	1.002016	-0.293007	-0.293065
Zn4	Zn	1.001986	-0.416013	-0.416077
O5	O	1.063520	-0.354514	-0.354578
O6	O	1.228056	-0.309316	-0.399805
O7	O	1.108658	-0.399759	-0.190070
O8	O	1.018389	-0.190020	-0.309411
O9	O	1.227992	-0.399736	-0.309389
O10	O	1.108807	-0.190002	-0.399817
O11	O	1.018305	-0.309357	-0.190079
O12	O	0.899027	-0.309317	-0.309372
O13	O	1.018339	-0.399666	-0.519067
O14	O	0.899006	-0.399689	-0.399748
O15	O	1.108778	-0.309276	-0.519097
O16	O	1.108630	-0.519033	-0.309350
O17	O	1.018255	-0.519003	-0.399736
C18	C	0.872314	-0.354502	-0.354557
C19	C	0.790515	-0.354514	-0.354566
C20	C	0.602329	-0.401645	-0.401566
C21	C	0.525470	-0.401647	-0.401575
C22	C	0.525463	-0.307397	-0.307607
C23	C	0.602321	-0.307392	-0.307602
C24	C	0.640751	-0.354520	-0.354580
C25	C	0.487035	-0.354528	-0.354594
C26	C	0.403702	-0.354530	-0.354604
C27	C	0.724090	-0.354517	-0.354572
C28	C	1.063450	-0.545721	-0.354553
C29	C	1.063487	-0.627520	-0.354567
C30	C	1.110589	-0.815643	-0.401705
C31	C	1.110616	-0.892502	-0.401719
C32	C	1.016542	-0.892634	-0.307497
C33	C	1.016512	-0.815776	-0.307488
C34	C	1.063540	-0.777283	-0.354590
C35	C	1.063597	-0.930999	-0.354614
C36	C	1.063625	-1.014333	-0.354628
C37	C	1.063511	-0.693944	-0.354577
C38	C	1.255473	-0.354528	-0.354600
C39	C	1.337272	-0.354533	-0.354609
C40	C	1.063565	-0.354464	-0.546531
C41	C	1.063584	-0.354442	-0.628330
C42	C	1.063611	-0.162561	-0.354620
C43	C	1.063650	-0.080763	-0.354638
C44	C	1.110692	-0.307332	-0.816541
C45	C	1.110701	-0.307311	-0.893400
C46	C	1.016528	-0.401438	-0.893358
C47	C	1.016516	-0.401455	-0.816500
C48	C	1.063602	-0.354403	-0.778094
C49	C	1.063623	-0.354365	-0.931810
C50	C	1.063632	-0.354342	-1.015144
C51	C	1.063592	-0.354425	-0.694755
C52	C	1.063518	-0.354512	-0.163372
C53	C	1.063641	-0.354326	-0.081574
H54	H	0.633605	-0.269012	-0.269341
H55	H	0.978255	-0.923984	-0.269147
C56	C	0.923528	-0.823620	-0.214345
C57	C	0.964793	-0.773605	-0.255694
H58	H	0.891603	-0.797583	-0.182371
H59	H	0.895370	-0.853599	-0.246384
H60	H	0.955628	-0.853590	-0.186230
H61	H	0.932693	-0.743638	-0.283814
H62	H	0.992953	-0.743613	-0.223650
H63	H	0.978164	-0.439786	-0.785196
C64	C	1.203772	-0.214283	-0.824305
C65	C	1.162442	-0.255606	-0.774324
H66	H	1.235716	-0.182344	-0.798242
H67	H	1.231914	-0.246340	-0.854277
H68	H	1.171715	-0.186129	-0.854286
H69	H	1.194499	-0.283764	-0.744347
H70	H	1.134298	-0.223545	-0.744340
C71	C	0.626034	-0.437638	-0.526119
C72	C	0.644575	-0.453438	-0.453210
H73	H	0.652118	-0.469611	-0.558003
H74	H	0.574768	-0.444389	-0.532841
H75	H	0.638655	-0.388202	-0.536961
H76	H	0.631949	-0.502874	-0.442366
H77	H	0.695853	-0.446695	-0.446485
H78	H	0.494190	-0.440020	-0.439836
C79	C	0.407642	-0.265556	-0.265891
C80	C	0.483217	-0.255599	-0.255968
H81	H	0.381564	-0.233580	-0.234006
H82	H	0.395075	-0.254849	-0.315352
H83	H	0.395033	-0.314992	-0.255032
H84	H	0.495827	-0.206164	-0.266832
H85	H	0.495789	-0.266301	-0.206495
C86	C	1.203569	-0.823236	-0.494850
C87	C	1.162271	-0.773331	-0.453489
H88	H	1.235470	-0.797114	-0.526825
H89	H	1.231754	-0.853206	-0.462819
H90	H	1.171488	-0.853225	-0.522966
H91	H	1.194353	-0.743345	-0.425369
H92	H	1.134085	-0.743348	-0.485525
H93	H	1.148927	-0.923731	-0.440086
H94	H	1.149046	-0.268979	-0.924700
C95	C	0.974734	-0.443211	-1.011156
C96	C	0.964778	-0.453162	-0.935577
H97	H	0.942789	-0.475148	-1.037218
H98	H	0.963985	-0.393767	-1.023760
H99	H	1.024181	-0.453981	-1.023750
H100	H	0.915332	-0.442386	-0.922982
H101	H	0.975522	-0.502617	-0.922968
