data_functionalizedCrystal
_audit_creation_method	'MofGen! by Chris Wilmer'
_symmetry_space_group_name_H-M	'P1'
_symmetry_Int_Tables_number	1
_symmetry_cell_setting	triclinic
loop_
_symmetry_equiv_pos_as_xyz
  x,y,z
_cell_length_a	14.560438
_cell_length_b	18.760492
_cell_length_c	14.560438
_cell_angle_alpha	59.997983
_cell_angle_beta	90.000200
_cell_angle_gamma	60.000218
loop_
_atom_site_label
_atom_site_type_symbol
_atom_site_fract_x
_atom_site_fract_y
_atom_site_fract_z
Zr1	Zr	0.884719	0.780265	-0.120548
O2	O	0.738069	0.928976	-0.267205
O3	O	0.929680	0.631553	-0.075585
O4	O	0.929677	0.780266	-0.267195
O5	O	0.738069	0.780262	0.075544
O6	O	1.080815	0.780268	-0.267193
O7	O	0.738072	0.780263	-0.075595
O8	O	1.080821	0.514247	0.075563
O9	O	0.738064	1.046283	-0.267211
O10	O	1.061642	0.692722	-0.056413
O11	O	0.948847	0.692720	0.056379
O12	O	0.948844	0.867811	-0.169217
O13	O	0.836049	0.867809	-0.056425
Zr14	Zr	1.125762	0.780268	0.120506
Zr15	Zr	1.125767	0.780268	-0.120544
Zr16	Zr	0.884714	0.780264	0.120502
Zr17	Zr	0.884710	0.967356	-0.120557
Zr18	Zr	1.125771	0.593176	0.120515
O19	O	1.080801	0.928980	0.075543
O20	O	1.080808	0.928980	-0.267200
O21	O	0.738062	0.928975	0.075537
O22	O	1.272412	0.631557	0.267163
O23	O	1.272419	0.631557	-0.075580
O24	O	0.929673	0.631552	0.267158
O25	O	1.272412	0.780270	-0.075587
O26	O	1.080804	0.780267	0.267153
O27	O	0.929666	0.780265	0.267150
O28	O	1.272409	0.780270	0.075553
O29	O	0.929665	1.046285	-0.267208
O30	O	1.080817	0.514247	0.267166
O31	O	1.272418	0.514250	0.267169
O32	O	1.272422	0.514250	0.075566
O33	O	0.738060	1.046282	-0.075608
O34	O	0.929661	1.046285	-0.075605
O35	O	1.061638	0.692722	0.169175
O36	O	1.174433	0.692723	0.056383
O37	O	1.061634	0.867812	-0.056421
O38	O	0.948839	0.867810	0.056371
C39	C	0.703726	0.780262	-0.000026
C40	C	0.601395	0.780261	-0.000028
C41	C	1.005251	0.546244	-0.000010
C42	C	1.005255	0.466818	-0.000006
C43	C	0.612196	0.688868	0.058855
C44	C	0.516041	0.688873	0.058865
C45	C	0.398287	0.871671	-0.058899
C46	C	0.494441	0.871665	-0.058902
C47	C	0.680180	0.583331	0.126841
C48	C	0.584025	0.583336	0.126851
C49	C	0.946348	0.131023	0.058845
C50	C	1.064108	0.131029	-0.058912
C51	C	1.064117	0.205645	-0.058905
C52	C	1.005239	0.242954	-0.000024
C53	C	0.946352	0.205647	0.058851
C54	C	1.122993	0.242964	-0.117788
C55	C	1.123003	0.317585	-0.117785
C56	C	1.064130	0.354890	-0.058896
C57	C	1.005243	0.317578	-0.000018
C58	C	0.946365	0.354887	0.058863
C59	C	0.887483	0.317572	0.117749
C60	C	0.887480	0.242953	0.117740
C61	C	1.064133	0.429509	-0.058887
C62	C	0.946369	0.429512	0.058869
C63	C	1.306755	0.780270	-0.000016
C64	C	1.409086	0.780271	-0.000015
C65	C	1.005247	0.780267	-0.301538
C66	C	1.005249	0.780267	-0.403871
C67	C	1.005230	1.014289	-0.000032
C68	C	1.005226	1.093714	-0.000036
C69	C	1.088507	0.780272	-0.451953
C70	C	1.088502	0.780268	-0.548102
C71	C	0.921970	0.780257	-0.548080
C72	C	0.921981	0.780254	-0.451928
C73	C	1.184650	0.780283	-0.451970
C74	C	1.184645	0.780278	-0.548119
C75	C	1.005235	0.780266	0.301496
C76	C	1.005233	0.780265	0.403828
C77	C	1.306766	0.546248	-0.000005
C78	C	1.409101	0.466824	0.000000
C79	C	1.005245	0.546243	0.301507
C80	C	1.005247	0.466818	0.403843
C81	C	1.306760	0.546247	0.301512
C82	C	1.409093	0.466823	0.403850
C83	C	0.703722	1.014285	-0.301554
C84	C	0.601389	1.093709	-0.403892
C85	C	0.703716	1.014285	-0.000037
C86	C	0.601381	1.093708	-0.000043
C87	C	1.005236	1.014289	-0.301550
C88	C	1.005234	1.093714	-0.403886
C89	C	1.398283	0.429525	-0.058885
C90	C	1.494428	0.354908	-0.058903
C91	C	1.601390	0.317587	-0.000027
C92	C	1.612206	0.354893	0.058860
C93	C	1.516062	0.429513	0.058870
C94	C	1.064123	0.429520	0.510790
C95	C	1.064120	0.354902	0.606954
C96	C	1.005247	0.317578	0.596170
C97	C	0.946364	0.354884	0.489213
C98	C	0.946361	0.429505	0.393050
C99	C	1.516037	0.429526	0.393032
C100	C	1.612199	0.354909	0.489180
C101	C	1.601414	0.317586	0.596144
C102	C	1.494458	0.354891	0.606960
C103	C	1.398299	0.429511	0.510813
C104	C	0.494444	1.131016	-0.393075
C105	C	0.398282	1.205656	-0.489222
C106	C	0.409068	1.242983	-0.596187
C107	C	0.516023	1.205673	-0.607002
C108	C	0.612183	1.131040	-0.510855
C109	C	0.612199	1.131015	0.058833
C110	C	0.516053	1.205653	0.058824
C111	C	0.409091	1.242977	-0.000055
C112	C	0.398275	1.205667	-0.058938
C113	C	0.494420	1.131036	-0.058935
C114	C	1.064119	1.131014	-0.393065
C115	C	1.064139	1.205633	-0.489212
C116	C	1.005268	1.242955	-0.596177
C117	C	0.946382	1.205648	-0.606995
C118	C	0.946368	1.131026	-0.510850
H119	H	0.485638	0.946086	-0.106845
H120	H	0.311204	1.236020	-0.480394
C121	C	0.729848	1.089977	0.123603
N122	N	0.818460	1.059077	0.172385
C123	C	0.303340	1.325069	-0.000041
N124	N	0.223692	1.386897	-0.000023
H125	H	1.167845	0.852677	-0.468789
C126	C	1.729875	0.313821	0.123628
N127	N	1.818507	0.282877	0.172419
C128	C	0.527976	1.246671	0.123612
N129	N	0.536959	1.277563	0.172414
C130	C	1.287953	0.682476	-0.525404
N131	N	1.365758	0.608809	-0.508295
C132	C	1.707204	0.235493	0.701899
N133	N	1.786889	0.173657	0.781549
H134	H	1.112059	1.100638	-0.305978
H135	H	0.699259	1.100665	-0.519676
H136	H	1.524886	0.459873	0.106829
H137	H	1.485693	0.324491	0.694063
H138	H	1.524840	0.459903	0.305945
C139	C	1.280661	0.470528	0.522731
N140	N	1.192058	0.501420	0.531717
H141	H	0.732338	0.542876	0.216862
C142	C	0.280606	1.246721	-0.123682
N143	N	0.191975	1.277636	-0.172437
H144	H	1.485600	0.324542	-0.106856
C145	C	1.707141	0.235495	-0.000041
N146	N	1.786789	0.173659	-0.000051
C147	C	0.482501	1.089995	-0.123692
N148	N	0.473515	1.059085	-0.172468
C149	C	0.748969	0.539088	0.066243
N150	N	0.800782	0.505765	0.020600
H151	H	1.699278	0.324543	0.480354
C152	C	1.005274	0.235482	0.701964
N153	N	1.005304	0.173642	0.781651
H154	H	0.311196	0.946090	-0.106832
H155	H	0.575308	0.550583	0.213910
H156	H	0.330759	1.303754	-0.674466
C157	C	0.583906	0.528775	0.075554
N158	N	0.583776	0.487745	0.036845
C159	C	1.128915	1.246662	-0.477287
N160	N	1.177703	1.277563	-0.468302
C161	C	1.005292	1.325044	-0.701930
N162	N	1.005311	1.386875	-0.781578
C163	C	0.881569	1.090018	-0.522771
N164	N	0.832756	1.059137	-0.531759
H165	H	0.898424	0.459882	0.106820
H166	H	0.839538	0.347963	0.165684
H167	H	0.898450	1.236048	-0.694099
H168	H	0.839542	0.212563	0.165682
H169	H	0.898431	0.324484	0.480449
C170	C	1.173347	0.875113	-0.644478
N171	N	1.164804	0.946554	-0.717064
H172	H	0.898412	0.100634	0.106792
C173	C	1.128868	0.089989	-0.123680
N174	N	1.177650	0.059072	-0.172464
H175	H	1.170948	0.347962	-0.165731
C176	C	1.128898	0.470553	-0.123658
N177	N	1.177686	0.501465	-0.172444
C178	C	1.187751	0.201922	-0.182556
N179	N	1.236531	0.171004	-0.231340
C180	C	0.881602	0.470514	0.275411
N181	N	0.832824	0.501397	0.186807
H182	H	1.311197	0.459911	-0.106843
H183	H	1.112065	0.459900	0.519592
H184	H	1.112074	0.324536	0.694034
H185	H	0.854194	0.780237	-0.412772
H186	H	0.485641	1.100628	-0.305988
H187	H	0.524792	1.236074	-0.694104
C188	C	0.830382	0.780241	-0.600951
N189	N	0.761395	0.780229	-0.640773
H190	H	1.266774	0.710119	-0.380678
