data_functionalizedCrystal
_audit_creation_method	'MofGen! by Chris Wilmer'
_symmetry_space_group_name_H-M	'P1'
_symmetry_Int_Tables_number	1
_symmetry_cell_setting	triclinic
loop_
_symmetry_equiv_pos_as_xyz
  x,y,z
_cell_length_a	25.639242
_cell_length_b	25.639240
_cell_length_c	21.295411
_cell_angle_alpha	89.973291
_cell_angle_beta	89.966692
_cell_angle_gamma	90.028283
loop_
_atom_site_label
_atom_site_type_symbol
_atom_site_fract_x
_atom_site_fract_y
_atom_site_fract_z
Zn1	Zn	0.799304	-0.208273	-0.356036
Zn2	Zn	1.299304	0.291727	0.143964
Zn3	Zn	0.799220	-0.295693	-0.250752
Zn4	Zn	1.299220	0.204307	0.249248
Zn5	Zn	0.711863	-0.208266	-0.250765
Zn6	Zn	1.211863	0.291734	0.249235
Zn7	Zn	0.711835	-0.295672	-0.355968
Zn8	Zn	1.211835	0.204328	0.144032
O9	O	0.755555	-0.251976	-0.303380
O10	O	1.255555	0.248024	0.196620
O11	O	0.872458	-0.219880	-0.342093
O12	O	1.372458	0.280120	0.157907
O13	O	0.787608	-0.284101	-0.162664
O14	O	1.287608	0.215899	0.337336
O15	O	0.723510	-0.135102	-0.264763
O16	O	1.223510	0.364898	0.235237
O17	O	0.872396	-0.284108	-0.264742
O18	O	1.372396	0.215892	0.235258
O19	O	0.787752	-0.135107	-0.342106
O20	O	1.287752	0.364893	0.157894
O21	O	0.723428	-0.219870	-0.162674
O22	O	1.223428	0.280130	0.337326
O23	O	0.638694	-0.219850	-0.264697
O24	O	1.138694	0.280150	0.235303
O25	O	0.723461	-0.284072	-0.444066
O26	O	1.223461	0.215928	0.055934
O27	O	0.638673	-0.284066	-0.341989
O28	O	1.138673	0.215934	0.158011
O29	O	0.787724	-0.219861	-0.444116
O30	O	1.287724	0.280139	0.055884
O31	O	0.787580	-0.368855	-0.264675
O32	O	1.287580	0.131145	0.235325
O33	O	0.723379	-0.368840	-0.341977
O34	O	1.223379	0.131160	0.158023
C35	C	0.619713	-0.251955	-0.303338
C36	C	1.119713	0.248045	0.196662
C37	C	0.561599	-0.251959	-0.303334
C38	C	1.061599	0.248041	0.196666
C39	C	0.201234	-0.285469	-0.343588
C40	C	0.701234	0.214531	0.156412
C41	C	0.146629	-0.285473	-0.343598
C42	C	0.646629	0.214527	0.156402
O43	O	0.118391	-0.313939	-0.377787
O44	O	0.618391	0.186061	0.122213
N45	N	0.119316	-0.251990	-0.303421
N46	N	0.619316	0.248010	0.196579
C47	C	0.146611	-0.218499	-0.263237
C48	C	0.646611	0.281501	0.236763
O49	O	0.118365	-0.190020	-0.229065
O50	O	0.618365	0.309980	0.270935
C51	C	0.201214	-0.218493	-0.263230
C52	C	0.701214	0.281507	0.236770
C53	C	0.228524	-0.251982	-0.303405
C54	C	0.728524	0.248018	0.196595
C55	C	0.228544	-0.318955	-0.383760
C56	C	0.728544	0.181045	0.116240
C57	C	0.283144	-0.318952	-0.383749
C58	C	0.783144	0.181048	0.116251
C59	C	0.310435	-0.285464	-0.343566
C60	C	0.810435	0.214536	0.156434
C61	C	0.283125	-0.251979	-0.303394
C62	C	0.783125	0.248021	0.196606
C63	C	0.228507	-0.185000	-0.223049
C64	C	0.728507	0.315000	0.276951
C65	C	0.283114	-0.184997	-0.223047
C66	C	0.783114	0.315003	0.276953
C67	C	0.310424	-0.218485	-0.263222
C68	C	0.810424	0.281515	0.236778
C69	C	0.365015	-0.218489	-0.263200
C70	C	0.865015	0.281511	0.236800
N71	N	0.392328	-0.251971	-0.303377
N72	N	0.892328	0.248029	0.196623
C73	C	0.365038	-0.285459	-0.343560
C74	C	0.865038	0.214541	0.156440
C75	C	0.031940	-0.218512	-0.263254
C76	C	0.531940	0.281488	0.236746
C77	C	-0.022662	-0.218520	-0.263256
C78	C	0.477338	0.281480	0.236744
C79	C	-0.022640	-0.285493	-0.343619
C80	C	0.477360	0.214507	0.156381
C81	C	0.031963	-0.285488	-0.343612
C82	C	0.531963	0.214512	0.156388
C83	C	0.059253	-0.251995	-0.303430
C84	C	0.559253	0.248005	0.196570
C85	C	0.479703	-0.285451	-0.343534
C86	C	0.979703	0.214549	0.156466
C87	C	0.534308	-0.285447	-0.343517
C88	C	1.034308	0.214553	0.156483
C89	C	0.534281	-0.218472	-0.263158
C90	C	1.034281	0.281528	0.236842
C91	C	0.479681	-0.218478	-0.263171
C92	C	0.979681	0.281522	0.236829
C93	C	0.452393	-0.251969	-0.303364
C94	C	0.952393	0.248031	0.196636
O95	O	0.393289	-0.190036	-0.229031
O96	O	0.893289	0.309964	0.270969
O97	O	0.393290	-0.313928	-0.377732
O98	O	0.893290	0.186072	0.122268
C99	C	0.755482	-0.387819	-0.303331
C100	C	1.255482	0.112181	0.196669
C101	C	0.755498	-0.445933	-0.303331
C102	C	1.255498	0.054067	0.196669
C103	C	0.789023	-0.806260	-0.343725
C104	C	1.289023	-0.306260	0.156275
C105	C	0.789038	-0.860864	-0.343738
C106	C	1.289038	-0.360864	0.156262
O107	O	0.817455	-0.889070	-0.378032
O108	O	1.317455	-0.389070	0.121968
N109	N	0.755628	-0.888215	-0.303441
N110	N	1.255628	-0.388215	0.196559
C111	C	0.722196	-0.860959	-0.263134
C112	C	1.222196	-0.360959	0.236866
O113	O	0.693779	-0.889237	-0.228860
O114	O	1.193779	-0.389237	0.271140
C115	C	0.722179	-0.806356	-0.263124
C116	C	1.222179	-0.306356	0.236876
C117	C	0.755595	-0.779007	-0.303419
C118	C	1.255595	-0.279007	0.196581
C119	C	0.822436	-0.778911	-0.384017
C120	C	1.322436	-0.278911	0.115983
C121	C	0.822421	-0.724311	-0.384003
C122	C	1.322421	-0.224311	0.115997
C123	C	0.788993	-0.697059	-0.343697
C124	C	1.288993	-0.197059	0.156303
C125	C	0.755580	-0.724407	-0.303405
C126	C	1.255580	-0.224407	0.196595
C127	C	0.688744	-0.779101	-0.222821
C128	C	1.188744	-0.279101	0.277179
C129	C	0.688729	-0.724494	-0.222815
C130	C	1.188729	-0.224494	0.277185
C131	C	0.722146	-0.697145	-0.263110
C132	C	1.222146	-0.197145	0.236890
C133	C	0.722137	-0.642554	-0.263086
C134	C	1.222137	-0.142554	0.236914
N135	N	0.755547	-0.615203	-0.303383
N136	N	1.255547	-0.115203	0.196617
C137	C	0.788976	-0.642455	-0.343688
C138	C	1.288976	-0.142455	0.156312
C139	C	0.722235	-0.975630	-0.263157
C140	C	1.222235	-0.475630	0.236843
C141	C	0.722255	-1.030232	-0.263162
C142	C	1.222255	-0.530232	0.236838
C143	C	0.789097	-1.030133	-0.343767
C144	C	1.289097	-0.530133	0.156233
C145	C	0.789079	-0.975530	-0.343758
C146	C	1.289079	-0.475530	0.156242
C147	C	0.755646	-0.948278	-0.303453
C148	C	1.255646	-0.448278	0.196547
C149	C	0.788942	-0.527790	-0.343656
C150	C	1.288942	-0.027790	0.156344
C151	C	0.788926	-0.473185	-0.343637
C152	C	1.288926	0.026815	0.156363
C153	C	0.722082	-0.473288	-0.263034
C154	C	1.222082	0.026712	0.236966
C155	C	0.722100	-0.527889	-0.263051
C156	C	1.222100	-0.027889	0.236949
C157	C	0.755532	-0.555139	-0.303367
C158	C	1.255532	-0.055139	0.196633
O159	O	0.693734	-0.614313	-0.228811
O160	O	1.193734	-0.114313	0.271189
O161	O	0.817383	-0.614170	-0.377962
O162	O	1.317383	-0.114170	0.122038
C163	C	0.891928	-0.251997	-0.303424
C164	C	1.391928	0.248003	0.196576
C165	C	0.950042	-0.252006	-0.303442
C166	C	1.450042	0.247994	0.196558
C167	C	0.755599	-0.251965	-0.467571
C168	C	1.255599	0.248035	0.032429
C169	C	0.755617	-0.251960	-0.537539
C170	C	1.255617	0.248040	-0.037539
C171	C	0.755644	-0.115603	-0.303444
C172	C	1.255644	0.384397	0.196556
C173	C	0.755682	-0.057489	-0.303471
C174	C	1.255682	0.442511	0.196529
C175	C	0.789078	-0.218524	-0.570433
C176	C	1.289078	0.281476	-0.070433
C177	C	0.789077	-0.218501	-0.636175
C178	C	1.289077	0.281499	-0.136175
C179	C	0.755621	-0.251924	-0.669021
C180	C	1.255621	0.248076	-0.169021
C181	C	0.722154	-0.285363	-0.636120
C182	C	1.222154	0.214637	-0.136120
C183	C	0.722152	-0.285381	-0.570378
C184	C	1.222152	0.214619	-0.070378
N185	N	0.751586	-0.297662	-0.772231
N186	N	1.251586	0.202338	-0.272231
N187	N	0.751591	-0.297643	-0.834683
N188	N	1.251591	0.202357	-0.334683
C189	C	0.755625	-0.251871	-0.867096
C190	C	1.255625	0.248129	-0.367096
N191	N	0.759664	-0.206117	-0.834699
N192	N	1.259664	0.293883	-0.334699
N193	N	0.759661	-0.206136	-0.772242
N194	N	1.259661	0.293864	-0.272242
C195	C	0.755620	-0.251908	-0.740307
C196	C	1.255620	0.248092	-0.240307
C197	C	0.789086	-0.218407	-0.971276
C198	C	1.289086	0.281593	-0.471276
C199	C	0.789082	-0.218384	-1.037019
C200	C	1.289082	0.281616	-0.537019
C201	C	0.722162	-0.285251	-1.036963
C202	C	1.222162	0.214749	-0.536963
C203	C	0.722163	-0.285269	-0.971220
C204	C	1.222163	0.214731	-0.471220
C205	C	0.755628	-0.251848	-0.938381
C206	C	1.255628	0.248152	-0.438381
C207	C	0.755542	-0.251949	-0.139829
C208	C	1.255542	0.248051	0.360171
C209	C	0.755625	-0.251807	-0.069861
C210	C	1.255625	0.248193	0.430139
H211	H	0.816139	-0.450919	-0.376449
H212	H	1.316139	0.049081	0.123551
H213	H	0.457444	-0.191210	-0.230456
H214	H	0.957444	0.308790	0.269544
H215	H	0.695050	-1.052494	-0.230343
H216	H	1.195050	-0.552494	0.269657
H217	H	0.661502	-0.702308	-0.189995
H218	H	1.161502	-0.202308	0.310005
C219	C	0.211688	-0.159397	-0.116516
C220	C	0.711688	0.340603	0.383484
C221	C	0.198511	-0.148184	-0.178878
C222	C	0.698511	0.351816	0.321122
H223	H	0.193177	-0.136664	-0.089243
H224	H	0.693177	0.363336	0.410757
H225	H	0.202706	-0.194508	-0.107223
H226	H	0.702706	0.305492	0.392777
H227	H	0.248119	-0.154615	-0.110789
H228	H	0.748119	0.345385	0.389211
H229	H	0.162081	-0.152970	-0.184606
H230	H	0.662081	0.347030	0.315394
H231	H	0.207490	-0.113065	-0.188174
H232	H	0.707490	0.386935	0.311826
C233	C	0.485225	-0.351653	-0.422966
C234	C	0.985225	0.148347	0.077034
C235	C	0.449714	-0.322266	-0.387713
C236	C	0.949714	0.177734	0.112287
H237	H	0.466710	-0.374383	-0.450235
H238	H	0.966710	0.125617	0.049765
H239	H	0.506546	-0.328899	-0.447089
H240	H	1.006546	0.171101	0.052911
H241	H	0.506497	-0.371614	-0.395478
H242	H	1.006497	0.128386	0.104522
H243	H	0.428444	-0.302302	-0.415201
H244	H	0.928444	0.197698	0.084799
H245	H	0.428384	-0.345022	-0.363588
H246	H	0.928384	0.154978	0.136412
H247	H	0.816333	-0.191191	-0.944536
H248	H	1.316333	0.308809	-0.444536
H249	H	0.816315	-1.052332	-0.376588
H250	H	1.316315	-0.552332	0.123412
H251	H	0.816162	-0.549970	-0.376489
H252	H	1.316162	-0.049970	0.123511
H253	H	0.305330	-0.157719	-0.190329
H254	H	0.805330	0.342281	0.309671
H255	H	0.694913	-0.312575	-0.662867
H256	H	1.194913	0.187425	-0.162867
C257	C	0.888488	-0.729715	-0.463680
C258	C	1.388488	-0.229715	0.036320
C259	C	0.859150	-0.694254	-0.428302
C260	C	1.359150	-0.194254	0.071698
H261	H	0.911160	-0.711161	-0.491033
H262	H	1.411160	-0.211161	0.008967
H263	H	0.908503	-0.751008	-0.436282
H264	H	1.408503	-0.251008	0.063718
H265	H	0.865695	-0.751019	-0.487727
H266	H	1.365695	-0.251019	0.012273
H267	H	0.881942	-0.672952	-0.404252
H268	H	1.381942	-0.172952	0.095748
H269	H	0.839133	-0.672952	-0.455704
H270	H	1.339133	-0.172952	0.044296
H271	H	0.694919	-0.312500	-0.944438
H272	H	1.194919	0.187500	-0.444438
H273	H	0.054196	-0.312756	-0.376327
H274	H	0.554196	0.187244	0.123673
H275	H	-0.044894	-0.191256	-0.230536
H276	H	0.455106	0.308744	0.269464
H277	H	0.816324	-0.191270	-0.662962
H278	H	1.316324	0.308730	-0.162962
H279	H	0.849657	-0.801094	-0.416843
H280	H	1.349657	-0.301094	0.083157
H281	H	0.816289	-0.953266	-0.376570
H282	H	1.316289	-0.453266	0.123430
H283	H	0.694867	-0.451091	-0.230216
H284	H	1.194867	0.048909	0.269784
C285	C	0.656172	-0.981221	-0.183476
C286	C	1.156172	-0.481221	0.316524
C287	C	0.685488	-0.945677	-0.218841
C288	C	1.185488	-0.445677	0.281159
H289	H	0.633489	-0.962730	-0.156116
H290	H	1.133489	-0.462730	0.343884
H291	H	0.636169	-1.002518	-0.210882
H292	H	1.136169	-0.502518	0.289118
H293	H	0.678978	-1.002513	-0.159437
H294	H	1.178978	-0.502513	0.340563
H295	H	0.662683	-0.924387	-0.242884
H296	H	1.162683	-0.424387	0.257116
H297	H	0.705492	-0.924371	-0.191432
H298	H	1.205492	-0.424371	0.308568
H299	H	0.661533	-0.801358	-0.190008
H300	H	1.161533	-0.301358	0.309992
C301	C	0.656009	-0.351477	-0.576927
C302	C	1.156009	0.148523	-0.076927
C303	C	0.685375	-0.322143	-0.534218
C304	C	1.185375	0.177857	-0.034218
H305	H	0.633308	-0.374176	-0.554601
H306	H	1.133308	0.125824	-0.054601
H307	H	0.636022	-0.328687	-0.602554
H308	H	1.136022	0.171313	-0.102554
H309	H	0.678782	-0.371469	-0.602586
H310	H	1.178782	0.128531	-0.102586
H311	H	0.662603	-0.302148	-0.508562
H312	H	1.162603	0.197852	-0.008562
H313	H	0.705363	-0.344936	-0.508580
H314	H	1.205363	0.155064	-0.008580
H315	H	0.816327	-0.191309	-0.543699
H316	H	1.316327	0.308691	-0.043699
C317	C	0.656027	-0.522499	-0.183377
C318	C	1.156027	-0.022499	0.316623
C319	C	0.685370	-0.557953	-0.218757
C320	C	1.185370	-0.057953	0.281243
H321	H	0.633347	-0.541058	-0.156038
H322	H	1.133347	-0.041058	0.343962
H323	H	0.678813	-0.501203	-0.159320
H324	H	1.178813	-0.001203	0.340680
H325	H	0.636016	-0.501197	-0.210779
H326	H	1.136016	-0.001197	0.289221
H327	H	0.705385	-0.579253	-0.191355
H328	H	1.205385	-0.079253	0.308645
H329	H	0.662582	-0.579259	-0.242816
H330	H	1.162582	-0.079259	0.257184
C331	C	0.814618	-0.129849	-1.057277
C332	C	1.314618	0.370151	-0.557277
C333	C	0.825865	-0.181624	-1.073175
C334	C	1.325865	0.318376	-0.573175
H335	H	0.837329	-0.107156	-1.079595
H336	H	1.337329	0.392844	-0.579595
H337	H	0.779499	-0.122189	-1.068032
H338	H	1.279499	0.377811	-0.568032
H339	H	0.819406	-0.125088	-1.013422
H340	H	1.319406	0.374912	-0.513422
H341	H	0.821073	-0.186386	-1.117030
H342	H	1.321073	0.313614	-0.617030
H343	H	0.860992	-0.189287	-1.062424
H344	H	1.360992	0.310713	-0.562424
C345	C	0.595762	-0.292815	-0.428167
C346	C	1.095762	0.207185	0.071833
C347	C	0.564328	-0.322257	-0.387683
C348	C	1.064328	0.177743	0.112317
H349	H	0.614295	-0.315539	-0.455430
H350	H	1.114295	0.184461	0.044570
H351	H	0.574485	-0.270069	-0.452299
H352	H	1.074485	0.229931	0.047701
H353	H	0.619831	-0.272875	-0.404227
H354	H	1.119831	0.227125	0.095773
H355	H	0.540257	-0.342194	-0.411623
H356	H	1.040257	0.157806	0.088377
H357	H	0.585607	-0.345012	-0.363549
H358	H	1.085607	0.154988	0.136451
C359	C	0.277665	-0.385145	-0.463188
C360	C	0.777665	0.114855	0.036812
C361	C	0.313159	-0.355758	-0.427918
C362	C	0.813159	0.144242	0.072082
H363	H	0.296193	-0.407865	-0.490461
H364	H	0.796193	0.092135	0.009539
H365	H	0.256347	-0.405112	-0.435716
H366	H	0.756347	0.094888	0.064284
H367	H	0.256389	-0.362387	-0.487315
H368	H	0.756389	0.137613	0.012685
H369	H	0.334432	-0.378516	-0.403787
H370	H	0.834432	0.121484	0.096213
H371	H	0.334486	-0.335790	-0.455393
H372	H	0.834486	0.164210	0.044607
C373	C	0.617979	-0.188730	-0.227477
C374	C	1.117979	0.311270	0.272523
C375	C	0.564286	-0.181660	-0.218993
C376	C	1.064286	0.318340	0.281007
H377	H	0.636503	-0.165999	-0.200217
H378	H	1.136503	0.334001	0.299783
H379	H	0.626903	-0.223843	-0.218175
H380	H	1.126903	0.276157	0.281825
H381	H	0.626946	-0.181134	-0.269794
H382	H	1.126946	0.318866	0.230206
H383	H	0.555318	-0.189260	-0.176678
H384	H	1.055318	0.310740	0.323322
H385	H	0.555359	-0.146540	-0.228291
H386	H	1.055359	0.353460	0.271709
H387	H	0.694916	-0.312459	-1.063705
H388	H	1.194916	0.187541	-0.563705
H389	H	0.206330	-0.346224	-0.416485
H390	H	0.706330	0.153776	0.083515
C391	C	-0.017146	-0.351696	-0.423058
C392	C	0.482854	0.148304	0.076942
C393	C	-0.052644	-0.322303	-0.387793
C394	C	0.447356	0.177697	0.112207
H395	H	-0.035672	-0.374421	-0.450324
H396	H	0.464328	0.125579	0.049676
H397	H	0.004174	-0.328945	-0.447187
H398	H	0.504174	0.171055	0.052813
H399	H	0.004127	-0.371662	-0.395578
H400	H	0.504127	0.128338	0.104422
H401	H	-0.073915	-0.302333	-0.415273
H402	H	0.426085	0.197667	0.084727
H403	H	-0.073973	-0.345056	-0.363663
H404	H	0.426027	0.154944	0.136337
C405	C	0.026424	-0.152320	-0.183810
C406	C	0.526424	0.347680	0.316190
C407	C	0.061934	-0.181701	-0.219071
C408	C	0.561934	0.318299	0.280929
H409	H	0.044940	-0.129598	-0.156531
H410	H	0.544940	0.370402	0.343469
H411	H	0.005154	-0.132356	-0.211286
H412	H	0.505154	0.367644	0.288714
H413	H	0.005102	-0.175082	-0.159689
H414	H	0.505102	0.324918	0.340311
H415	H	0.083254	-0.158939	-0.243196
H416	H	0.583254	0.341061	0.256804
H417	H	0.083213	-0.201667	-0.191591
H418	H	0.583213	0.298333	0.308409
