data_functionalizedCrystal
_audit_creation_method	'MofGen! by Chris Wilmer'
_symmetry_space_group_name_H-M	'P1'
_symmetry_Int_Tables_number	1
_symmetry_cell_setting	triclinic
loop_
_symmetry_equiv_pos_as_xyz
  x,y,z
_cell_length_a	13.897449
_cell_length_b	19.121063
_cell_length_c	13.897441
_cell_angle_alpha	92.405670
_cell_angle_beta	89.979267
_cell_angle_gamma	92.470221
loop_
_atom_site_label
_atom_site_type_symbol
_atom_site_fract_x
_atom_site_fract_y
_atom_site_fract_z
Zn1	Zn	1.458257	-0.279567	-0.561726
Zn2	Zn	1.451242	-0.397031	-0.407294
Zn3	Zn	1.296944	-0.279601	-0.400446
Zn4	Zn	1.290021	-0.396984	-0.568544
O5	O	1.374116	-0.338296	-0.484503
O6	O	1.592308	-0.295154	-0.541253
O7	O	1.430735	-0.381487	-0.271406
O8	O	1.324176	-0.181312	-0.416120
O9	O	1.587154	-0.381454	-0.427793
O10	O	1.442692	-0.181287	-0.534612
O11	O	1.317374	-0.295211	-0.266375
O12	O	1.161045	-0.295166	-0.422732
O13	O	1.312377	-0.381375	-0.702620
O14	O	1.155958	-0.381408	-0.546233
O15	O	1.435979	-0.295109	-0.697610
O16	O	1.424022	-0.495309	-0.434404
O17	O	1.305574	-0.495275	-0.552874
C18	C	1.123502	-0.338286	-0.484480
C19	C	1.016288	-0.338299	-0.484494
C20	C	0.819992	-0.338302	-0.484520
C21	C	0.929225	-0.338298	-0.484503
C22	C	1.363311	-0.520776	-0.495143
C23	C	1.358777	-0.598842	-0.499727
C24	C	1.418365	-0.635512	-0.440252
C25	C	1.414106	-0.708863	-0.444569
C26	C	1.350255	-0.745543	-0.508358
C27	C	1.290665	-0.708868	-0.567840
C28	C	1.294929	-0.635518	-0.563527
C29	C	1.334297	-0.967012	-0.524468
C30	C	1.330035	-1.040367	-0.528775
C31	C	1.453478	-1.040357	-0.405504
C32	C	1.457733	-0.967006	-0.401192
C33	C	1.398147	-0.930337	-0.460678
C34	C	1.345898	-0.820519	-0.512770
C35	C	1.402509	-0.855362	-0.456270
C36	C	1.625708	-0.338306	-0.484526
C37	C	1.732922	-0.338310	-0.484536
C38	C	1.374188	-0.338234	-0.736092
C39	C	1.374219	-0.338207	-0.843305
C40	C	1.384989	-0.155103	-0.473842
C41	C	1.389623	-0.077037	-0.469299
C42	C	1.374248	-0.338160	-1.039597
C43	C	1.374229	-0.338188	-0.930366
C44	C	1.374103	-0.338307	-0.233889
C45	C	1.374271	-0.338135	-0.126665
H46	H	1.470355	-0.605652	-0.388304
H47	H	1.278051	-1.070230	-0.580736
H48	H	1.501991	-1.070220	-0.357075
C49	C	1.268750	-0.926688	-0.589904
C50	C	1.158508	-0.936847	-0.582535
C51	C	1.092959	-0.896521	-0.647978
C52	C	1.137651	-0.846036	-0.720788
C53	C	1.247899	-0.835874	-0.728159
C54	C	1.313448	-0.876200	-0.662717
H55	H	1.125419	-0.974221	-0.528634
H56	H	1.011346	-0.904043	-0.642521
H57	H	1.089127	-0.816184	-0.769233
H58	H	1.280988	-0.798500	-0.782061
H59	H	1.395061	-0.868678	-0.668174
H60	H	1.238680	-0.738738	-0.619783
H61	H	1.454500	-0.825495	-0.404337
C62	C	1.479659	-0.749195	-0.379144
C63	C	1.472430	-0.739178	-0.268892
C64	C	1.537991	-0.779508	-0.203467
C65	C	1.610783	-0.829855	-0.248294
C66	C	1.618016	-0.839875	-0.358552
C67	C	1.552454	-0.799545	-0.423977
H68	H	1.418542	-0.701906	-0.235704
H69	H	1.532637	-0.772091	-0.121847
H70	H	1.659315	-0.859710	-0.199863
H71	H	1.671903	-0.877147	-0.391741
H72	H	1.557808	-0.806962	-0.505597
C73	C	1.229379	-0.595177	-0.628948
C74	C	1.119137	-0.605330	-0.621574
C75	C	1.053589	-0.564990	-0.687000
C76	C	1.098282	-0.514497	-0.759799
C77	C	1.208530	-0.504342	-0.767176
C78	C	1.274079	-0.544682	-0.701750
H79	H	1.086047	-0.642710	-0.567681
H80	H	0.971976	-0.572508	-0.681538
H81	H	1.049759	-0.484635	-0.808231
H82	H	1.241620	-0.466962	-0.821069
H83	H	1.355692	-0.537164	-0.707211
H84	H	1.509726	-0.937142	-0.349250
H85	H	1.293908	-0.850392	-0.564705
