data_functionalizedCrystal
_audit_creation_method	'MofGen! by Chris Wilmer'
_symmetry_space_group_name_H-M	'P1'
_symmetry_Int_Tables_number	1
_symmetry_cell_setting	triclinic
loop_
_symmetry_equiv_pos_as_xyz
  x,y,z
_cell_length_a	10.654550
_cell_length_b	16.098538
_cell_length_c	17.019448
_cell_angle_alpha	83.411091
_cell_angle_beta	83.942874
_cell_angle_gamma	92.768616
loop_
_atom_site_label
_atom_site_type_symbol
_atom_site_fract_x
_atom_site_fract_y
_atom_site_fract_z
O1	O	1.671126	0.061612	0.107682
O2	O	1.305421	0.060840	0.118277
O3	O	1.499131	0.069471	-0.002210
O4	O	1.477415	0.052980	0.228169
O5	O	1.487816	-0.069544	0.004800
O6	O	1.294105	-0.078175	0.125287
O7	O	1.659811	-0.077403	0.114693
Zn8	Zn	1.475161	-0.099861	0.121103
Zn9	Zn	1.490070	0.083298	0.111866
O10	O	1.466100	-0.086035	0.235179
C11	C	1.252981	-0.008614	0.121004
C12	C	1.113587	-0.008452	0.118677
N13	N	1.464996	-0.224862	0.127406
C14	C	1.032591	-0.013518	0.189617
C15	C	0.901618	-0.013347	0.187425
C16	C	0.932651	-0.003040	0.043347
C17	C	1.063621	-0.003217	0.045540
C18	C	1.082557	-0.018753	0.262754
C19	C	1.001559	-0.023819	0.333700
C20	C	0.870586	-0.023647	0.331507
C21	C	0.820611	-0.018411	0.258370
C22	C	1.547244	-0.264784	0.076285
C23	C	1.540145	-0.352290	0.080702
C24	C	1.450802	-0.399871	0.136244
C25	C	1.368544	-0.359942	0.187368
C26	C	1.375639	-0.272438	0.182946
C27	C	1.425083	-0.664268	0.152259
C28	C	1.417997	-0.751778	0.156678
C29	C	1.589596	-0.744120	0.050011
C30	C	1.596688	-0.656614	0.045598
C31	C	1.514427	-0.616693	0.096718
C32	C	1.443545	-0.489316	0.140762
C33	C	1.521678	-0.527250	0.092196
C34	C	1.712250	-0.007948	0.111965
C35	C	1.851645	-0.008104	0.114292
C36	C	1.492869	0.002077	-0.028204
C37	C	1.491050	0.008374	-0.116102
N38	N	1.500246	0.208299	0.105557
C39	C	1.481198	0.047880	-0.613440
C40	C	1.482893	0.041946	-0.530849
C41	C	1.477562	-0.036798	-0.485747
C42	C	1.470549	-0.109613	-0.523242
C43	C	1.468863	-0.103679	-0.605833
C44	C	1.482351	-0.058507	-0.236187
C45	C	1.484034	-0.064436	-0.153591
C46	C	1.496380	0.087124	-0.161203
C47	C	1.494686	0.093052	-0.243795
C48	C	1.487680	0.020237	-0.281283
C49	C	1.479290	-0.042865	-0.401325
C50	C	1.485961	0.026304	-0.365704
C51	C	1.472363	-0.018639	0.261173
C52	C	1.474181	-0.024930	0.349071
H53	H	1.189200	-0.018890	0.264547
H54	H	0.713962	-0.018285	0.256591
H55	H	1.479655	-0.128562	-0.116868
Br56	Br	1.463327	-0.216482	-0.462035
Br57	Br	1.501919	0.199923	-0.304998
Br58	Br	1.717944	-0.592039	-0.029778
Br59	Br	1.505914	0.185939	-0.110324
H60	H	1.042257	-0.028089	0.393246
Br61	Br	1.488419	0.154752	-0.674640
Br62	Br	1.247281	-0.424514	0.262742
Br63	Br	0.760662	-0.030533	0.427789
H64	H	1.476648	-0.117798	-0.266700
H65	H	0.891952	0.001237	-0.016199
Br66	Br	1.459354	-0.202496	-0.656713
H67	H	1.594417	-0.488506	0.046970
Br68	Br	1.472054	-0.149729	-0.340110
Br69	Br	1.173554	0.003653	-0.050736
Br70	Br	1.668511	-0.200219	0.000908
H71	H	1.607117	-0.384794	0.039075
H72	H	1.308662	-0.239934	0.224573
H73	H	1.488609	0.101236	-0.500329
H74	H	1.656568	-0.776632	0.008390
Br75	Br	1.296740	-0.816349	0.232067
Br76	Br	1.313448	-0.610094	0.221635
H77	H	1.370802	-0.528064	0.185987
Br78	Br	1.493208	0.133168	-0.426915
