data_functionalizedCrystal
_audit_creation_method	'MofGen! by Chris Wilmer'
_symmetry_space_group_name_H-M	'P1'
_symmetry_Int_Tables_number	1
_symmetry_cell_setting	triclinic
loop_
_symmetry_equiv_pos_as_xyz
  x,y,z
_cell_length_a	11.792241
_cell_length_b	7.540329
_cell_length_c	9.065218
_cell_angle_alpha	90.001345
_cell_angle_beta	84.604651
_cell_angle_gamma	89.998969
loop_
_atom_site_label
_atom_site_type_symbol
_atom_site_fract_x
_atom_site_fract_y
_atom_site_fract_z
O1	O	-1.508029	-0.147276	-0.202221
O2	O	-1.174696	0.186057	0.131113
O3	O	-0.841363	0.519391	0.464446
O4	O	-1.177804	-0.147322	-0.223062
O5	O	-0.844471	0.186011	0.110271
O6	O	-0.511137	0.519344	0.443605
O7	O	-1.349742	-0.147294	0.002065
O8	O	-1.016409	0.186039	0.335399
O9	O	-0.683076	0.519372	0.668732
O10	O	-1.336091	-0.147304	-0.427348
O11	O	-1.002758	0.186030	-0.094014
O12	O	-0.669424	0.519363	0.239319
O13	O	-1.349729	0.147671	0.002066
O14	O	-1.016396	0.481004	0.335399
O15	O	-0.683062	0.814337	0.668733
O16	O	-1.177791	0.147643	-0.223061
O17	O	-0.844457	0.480976	0.110272
O18	O	-0.511124	0.814310	0.443606
O19	O	-1.508016	0.147689	-0.202220
O20	O	-1.174683	0.481023	0.131113
O21	O	-0.841349	0.814356	0.464447
Cu22	Cu	-1.342902	0.174599	-0.212640
Cu23	Cu	-1.009569	0.507932	0.120693
Cu24	Cu	-0.676235	0.841265	0.454026
Cu25	Cu	-1.342918	-0.174232	-0.212641
Cu26	Cu	-1.009585	0.159102	0.120692
Cu27	Cu	-0.676251	0.492435	0.454025
O28	O	-1.336078	0.147661	-0.427347
O29	O	-1.002744	0.480995	-0.094014
O30	O	-0.669411	0.814328	0.239320
C31	C	-1.135499	0.000154	-0.221752
C32	C	-0.802166	0.333488	0.111581
C33	C	-0.468832	0.666821	0.444914
C34	C	-1.009464	0.000136	-0.217834
C35	C	-0.676130	0.333470	0.115499
C36	C	-0.342797	0.666803	0.448833
N37	N	-1.342899	0.419947	-0.212639
N38	N	-1.009566	0.753280	0.120694
N39	N	-0.676233	1.086614	0.454028
C40	C	-0.778711	0.000183	-0.210629
C41	C	-0.445378	0.333517	0.122705
C42	C	-0.112045	0.666850	0.456038
C43	C	-0.907119	0.000158	-0.214632
C44	C	-0.573785	0.333491	0.118701
C45	C	-0.240452	0.666824	0.452035
C46	C	-0.550321	0.000204	-0.203529
C47	C	-0.216988	0.333538	0.129804
C48	C	0.116346	0.666871	0.463137
C49	C	-0.676356	0.000197	-0.207448
C50	C	-0.343023	0.333531	0.125886
C51	C	-0.009690	0.666864	0.459219
C52	C	-1.348424	0.000185	0.057040
C53	C	-1.015090	0.333518	0.390373
C54	C	-0.681757	0.666852	0.723707
C55	C	-1.344501	0.000176	0.220846
C56	C	-1.011167	0.333509	0.554179
C57	C	-0.677834	0.666843	0.887513
N58	N	-1.342919	0.580420	-0.212638
N59	N	-1.009586	0.913753	0.120695
N60	N	-0.676253	1.247087	0.454028
C61	C	-1.337396	0.000178	-0.482322
C62	C	-1.004063	0.333511	-0.148988
C63	C	-0.670730	0.666845	0.184345
C64	C	-1.341319	0.000175	-0.646128
C65	C	-1.007986	0.333509	-0.312794
C66	C	-0.674652	0.666842	0.020539
