data_functionalizedCrystal
_audit_creation_method	'MofGen! by Chris Wilmer'
_symmetry_space_group_name_H-M	'P1'
_symmetry_Int_Tables_number	1
_symmetry_cell_setting	triclinic
loop_
_symmetry_equiv_pos_as_xyz
  x,y,z
_cell_length_a	14.560438
_cell_length_b	23.196402
_cell_length_c	23.196402
_cell_angle_alpha	90.003332
_cell_angle_beta	59.997646
_cell_angle_gamma	60.004327
loop_
_atom_site_label
_atom_site_type_symbol
_atom_site_fract_x
_atom_site_fract_y
_atom_site_fract_z
Zr1	Zr	1.005255	-0.075656	0.555365
O2	O	1.196858	-0.167703	0.463305
O3	O	0.813653	-0.047440	0.583587
O4	O	1.005251	-0.167707	0.583576
O5	O	1.005262	0.047434	0.463323
O6	O	1.005247	-0.167709	0.678448
O7	O	1.005259	-0.047436	0.463315
O8	O	0.662513	0.047426	0.678467
O9	O	1.347996	-0.167701	0.463305
O10	O	0.892458	-0.035406	0.666424
O11	O	0.892463	0.035395	0.595629
O12	O	1.118045	-0.106203	0.595616
O13	O	1.118050	-0.035401	0.524820
Zr14	Zr	1.005252	0.075647	0.706688
Zr15	Zr	1.005249	-0.075659	0.706675
Zr16	Zr	1.005259	0.075650	0.555378
Zr17	Zr	1.246303	-0.075654	0.555365
Zr18	Zr	0.764204	0.075645	0.706688
O19	O	1.196854	0.047431	0.678466
O20	O	1.196849	-0.167707	0.678448
O21	O	1.196863	0.047436	0.463323
O22	O	0.813649	0.167694	0.798748
O23	O	0.813644	-0.047445	0.798730
O24	O	0.813658	0.167698	0.583605
O25	O	1.005246	-0.047443	0.798729
O26	O	1.005256	0.167698	0.678477
O27	O	1.005260	0.167700	0.583605
O28	O	1.005248	0.047427	0.798737
O29	O	1.347992	-0.167704	0.583576
O30	O	0.662516	0.167695	0.678477
O31	O	0.662511	0.167692	0.798748
O32	O	0.662508	0.047424	0.798738
O33	O	1.347999	-0.047433	0.463315
O34	O	1.347995	-0.047435	0.583586
O35	O	0.892462	0.106194	0.666436
O36	O	0.892457	0.035392	0.737232
O37	O	1.118044	-0.035404	0.666424
O38	O	1.118049	0.035397	0.595628
C39	C	0.703738	-0.000007	0.631027
C40	C	0.601407	-0.000008	0.631027
C41	C	1.005261	-0.000000	0.441761
C42	C	1.005264	0.000001	0.377526
C43	C	1.005258	0.189257	0.631042
C44	C	1.005260	0.253491	0.631048
C45	C	0.553330	-0.036967	0.667979
C46	C	0.457173	-0.036962	0.667981
C47	C	0.457181	0.036963	0.594072
C48	C	0.553330	0.036961	0.594075
C49	C	0.601407	-0.073936	0.704931
C50	C	0.553331	-0.110899	0.741885
C51	C	0.457173	-0.110893	0.741887
C52	C	0.409092	-0.073925	0.704934
C53	C	1.306769	-0.000002	0.631026
C54	C	1.409100	-0.000001	0.631026
C55	C	1.005249	-0.189266	0.631010
C56	C	1.005247	-0.253500	0.631005
C57	C	1.123010	0.246711	0.594090
C58	C	1.123012	0.307065	0.594079
C59	C	1.005257	0.374199	0.631041
C60	C	0.887490	0.380977	0.668001
C61	C	0.887492	0.320622	0.668004
C62	C	0.915038	0.498134	0.692944
C63	C	0.915041	0.558485	0.692943
C64	C	1.005247	0.560353	0.631029
C65	C	1.095471	0.501854	0.569118
C66	C	1.095472	0.441500	0.569121
C67	C	1.005242	0.439647	0.631041
C68	C	1.123007	0.619013	0.594056
C69	C	1.123004	0.679370	0.594044
C70	C	0.887479	0.753282	0.667972
C71	C	0.887485	0.692925	0.667978
C72	C	1.005253	0.625793	0.631021
C73	C	1.005272	-0.052267	0.347349
C74	C	1.005261	-0.052267	0.286998
C75	C	1.005267	-0.000004	0.256818
C76	C	1.005251	0.052273	0.287004
C77	C	1.005250	0.052276	0.347358
C78	C	1.080951	0.016282	0.137444
C79	C	1.080961	0.016275	0.077089
C80	C	1.005265	-0.000008	0.070668
C81	C	0.929577	-0.016299	0.124604
C82	C	0.929576	-0.016296	0.184958
C83	C	1.005267	-0.000001	0.191374
C84	C	1.005259	-0.052279	-0.024948
C85	C	1.005239	-0.052274	-0.085298
C86	C	1.005243	0.052263	-0.085295
C87	C	1.005249	0.052261	-0.024942
C88	C	1.005264	-0.000013	0.005226
C89	C	1.005246	-0.000009	0.820292
C90	C	1.005243	-0.000010	0.884527
C91	C	0.703731	-0.000011	0.820292
C92	C	0.601397	-0.000014	0.884527
C93	C	0.703743	0.189254	0.631043
C94	C	0.601413	0.253487	0.631049
C95	C	0.703735	0.189250	0.820308
C96	C	0.601403	0.253482	0.884549
C97	C	1.306772	-0.189259	0.441744
C98	C	1.409104	-0.253490	0.377504
C99	C	1.306776	0.000002	0.441761
C100	C	1.409111	0.000005	0.377525
C101	C	1.306764	-0.189263	0.631010
C102	C	1.409094	-0.253496	0.631004
C103	C	0.553340	-0.036977	0.877732
C104	C	0.457199	-0.036994	0.938082
C105	C	0.409111	-0.000042	1.005226
C106	C	0.457177	0.036923	1.012021
C107	C	0.553322	0.036935	0.951671
C108	C	0.553357	0.320614	0.668012
C109	C	0.457221	0.380973	0.668015
C110	C	0.409136	0.374204	0.631057
C111	C	0.457201	0.307070	0.594089
C112	C	0.553342	0.246712	0.594083
C113	C	0.553344	0.246687	0.951678
C114	C	0.457205	0.307034	1.012044
C115	C	0.409120	0.374174	1.005280
C116	C	0.457189	0.380966	0.938144
C117	C	0.553332	0.320621	0.877779
C118	C	1.457175	-0.246696	0.310375
C119	C	1.553344	-0.307043	0.250008
C120	C	1.601434	-0.374182	0.256772
C121	C	1.553359	-0.380975	0.323908
C122	C	1.457199	-0.320630	0.384274
C123	C	1.457177	0.036962	0.384321
C124	C	1.553344	0.036962	0.323971
C125	C	1.601436	0.000008	0.256826
C126	C	1.553366	-0.036954	0.250032
C127	C	1.457207	-0.036958	0.310381
C128	C	1.457149	-0.246704	0.667969
C129	C	1.553286	-0.307052	0.667977
C130	C	1.601373	-0.374190	0.631017
C131	C	1.553308	-0.380981	0.594051
C132	C	1.457167	-0.320634	0.594047
H133	H	0.679706	-0.073947	0.704932
N134	N	1.405351	-0.076809	0.303044
H135	H	1.337133	-0.071207	0.351459
H136	H	1.478783	-0.128491	0.276347
N137	N	0.605181	-0.150771	0.781740
H138	H	0.588460	-0.116882	0.818935
H139	H	0.701682	-0.187962	0.747789
N140	N	1.705085	-0.439274	0.631016
H141	H	1.728266	-0.482841	0.601992
H142	H	1.671540	-0.439233	0.681093
H143	H	1.142596	0.029536	0.033175
N144	N	1.605178	0.076830	0.331308
H145	H	1.560105	0.100244	0.383002
H146	H	1.588455	0.113984	0.307878
H147	H	0.791602	0.326148	0.698100
H148	H	0.592498	0.326139	0.698107
N149	N	0.605134	0.327962	0.805380
H150	H	0.588386	0.304577	0.778695
H151	H	0.701637	0.304586	0.778731
H152	H	0.330788	-0.073920	0.704942
N153	N	0.405374	0.453374	0.707902
H154	H	0.337175	0.490589	0.702301
H155	H	0.478813	0.458960	0.688506
H156	H	1.592526	-0.435648	0.329407
H157	H	1.592410	-0.301509	0.698078
H158	H	0.418078	0.301490	1.066704
H159	H	0.418022	-0.140984	0.771982
H160	H	1.679735	0.000016	0.207692
H161	H	1.418011	-0.192042	0.698066
H162	H	0.330834	0.423305	1.054439
H163	H	0.330851	0.423357	0.631068
H164	H	0.418028	0.067059	0.563986
N165	N	0.605188	0.076826	0.554224
H166	H	0.560151	0.100241	0.530811
H167	H	0.701710	0.042893	0.517067
N168	N	1.405347	-0.327972	0.456672
H169	H	1.308833	-0.304590	0.483356
H170	H	1.422150	-0.304594	0.483323
N171	N	0.605236	0.174312	0.554171
H172	H	0.560200	0.179189	0.530749
H173	H	0.588541	0.147621	0.588067
N174	N	1.250025	0.174306	0.554259
H175	H	1.324621	0.179173	0.530854
H176	H	1.255209	0.147623	0.517098
H177	H	0.791613	0.435641	0.698093
N178	N	1.405353	-0.327972	0.554171
H179	H	1.478731	-0.354637	0.502470
H180	H	1.337132	-0.279537	0.559825
N181	N	0.760482	0.700233	0.707856
H182	H	0.685882	0.751919	0.731275
H183	H	0.755373	0.676805	0.745011
H184	H	1.592537	-0.067041	0.195355
N185	N	0.405301	0.453384	0.930857
H186	H	0.450326	0.448540	0.879172
H187	H	0.422031	0.480035	0.954294
H188	H	1.418028	0.067059	0.438988
H189	H	1.592476	-0.435654	0.563959
H190	H	1.679733	-0.423314	0.207613
N191	N	1.250019	0.299761	0.554215
H192	H	1.324623	0.248075	0.530803
H193	H	1.255134	0.323200	0.588154
H194	H	0.330822	-0.000056	1.054361
H195	H	1.168933	0.393873	0.518710
H196	H	1.005279	-0.094831	0.371912
N197	N	1.192778	0.503854	0.502334
H198	H	1.179087	0.550964	0.511722
H199	H	1.180702	0.497086	0.464225
N200	N	0.605145	0.076808	0.959006
H201	H	0.560083	0.100214	1.010701
H202	H	0.588401	0.113969	0.935585
H203	H	0.841569	0.496626	0.743363
H204	H	0.418035	0.301569	0.564000
H205	H	1.005250	0.094820	-0.000373
H206	H	1.418025	-0.192033	0.304854
H207	H	1.218901	0.564351	0.563961
H208	H	0.418009	0.067008	1.066698
N209	N	1.605181	-0.299707	0.177604
H210	H	1.560108	-0.248016	0.182484
H211	H	1.588459	-0.323141	0.150945
H212	H	1.218895	0.673843	0.563944
H213	H	0.791600	0.807942	0.698062
N214	N	0.817727	0.621569	0.759721
H215	H	0.726824	0.639588	0.775705
H216	H	0.831516	0.660044	0.750286
H217	H	0.592481	0.192024	0.957199
H218	H	1.005267	-0.094831	0.262424
H219	H	0.867945	-0.029558	0.228873
H220	H	0.867944	-0.029562	0.119378
N221	N	1.005269	-0.108655	0.007597
H222	H	1.005261	-0.141765	-0.020677
H223	H	0.925189	-0.085799	0.057777
H224	H	1.005238	-0.094835	-0.109866
H225	H	1.142512	0.029600	0.142689
N226	N	1.005235	0.108639	-0.117833
H227	H	1.005232	0.100709	-0.160645
H228	H	1.085316	0.106333	-0.132421
H229	H	0.592493	-0.067077	0.823065
H230	H	1.005243	0.094839	0.371929
N231	N	1.005247	0.108644	0.254455
H232	H	1.085328	0.085843	0.204278
H233	H	1.005189	0.141743	0.282783
N234	N	0.405371	-0.076865	0.930745
H235	H	0.450420	-0.100264	0.879051
H236	H	0.308849	-0.042937	0.954181
