data_functionalizedCrystal
_audit_creation_method	'MofGen! by Chris Wilmer'
_symmetry_space_group_name_H-M	'P1'
_symmetry_Int_Tables_number	1
_symmetry_cell_setting	triclinic
loop_
_symmetry_equiv_pos_as_xyz
  x,y,z
_cell_length_a	17.038272
_cell_length_b	27.732048
_cell_length_c	16.098538
_cell_angle_alpha	92.695138
_cell_angle_beta	87.069734
_cell_angle_gamma	86.877106
loop_
_atom_site_label
_atom_site_type_symbol
_atom_site_fract_x
_atom_site_fract_y
_atom_site_fract_z
O1	O	1.039664	0.102899	-0.069167
O2	O	0.812054	0.101233	-0.069192
O3	O	0.932928	0.031993	-0.069163
O4	O	0.918791	0.172139	-0.069196
O5	O	0.925867	0.036021	0.069348
O6	O	0.804994	0.105261	0.069320
O7	O	1.032604	0.106927	0.069344
Zn8	Zn	0.917678	0.106733	0.091323
Zn9	Zn	0.926980	0.101427	-0.091171
O10	O	0.911730	0.176167	0.069315
C11	C	0.779414	0.101731	0.000061
C12	C	0.692674	0.097211	0.000053
C13	C	0.642076	0.138713	0.000043
C14	C	0.560575	0.134463	0.000056
C15	C	0.529672	0.088710	0.000072
C16	C	0.580276	0.047205	0.000083
C17	C	0.661776	0.051455	0.000077
C18	C	0.284088	0.073694	0.000098
C19	C	0.202582	0.069446	0.000102
C20	C	0.182886	0.156706	0.000076
C21	C	0.264389	0.160952	0.000064
C22	C	0.314985	0.119446	0.000080
C23	C	0.446365	0.084365	0.000082
C24	C	0.398290	0.123792	0.000076
C25	C	0.929100	0.015987	0.000095
C26	C	0.928206	-0.037709	0.000102
C27	C	0.994011	-0.373515	0.000066
C28	C	0.990696	-0.575327	0.000054
O29	O	1.050870	-0.603831	0.000024
N30	N	0.919023	-0.597729	0.000047
C31	C	0.848173	-0.569676	0.000038
O32	O	0.787135	-0.593361	0.000023
C33	C	0.851490	-0.367865	0.000044
C34	C	0.923167	-0.345465	0.000059
C35	C	1.065683	-0.351115	0.000080
C36	C	1.066511	-0.300665	0.000088
C37	C	0.995667	-0.272615	0.000081
C38	C	0.923995	-0.295015	0.000067
C39	C	0.780641	-0.339813	0.000029
C40	C	0.781477	-0.289357	0.000028
C41	C	0.853155	-0.266957	0.000043
C42	C	0.853979	-0.216515	0.000067
N43	N	0.925652	-0.194113	0.000074
C44	C	0.996496	-0.222163	0.000081
C45	C	0.846437	-0.675629	0.000036
C46	C	0.845608	-0.726081	0.000036
C47	C	0.988131	-0.731729	0.000051
C48	C	0.988959	-0.681276	0.000057
C49	C	0.918111	-0.653227	0.000043
C50	C	0.998229	-0.116214	0.000098
C51	C	0.999051	-0.065759	0.000109
C52	C	0.856528	-0.060116	0.000090
C53	C	0.855706	-0.110566	0.000083
C54	C	0.926563	-0.138614	0.000084
O55	O	0.793838	-0.187981	0.000088
O56	O	1.057527	-0.198469	0.000077
C57	C	0.993184	-0.423965	0.000059
C58	C	0.921512	-0.446365	0.000044
C59	C	0.850668	-0.418315	0.000037
C60	C	0.920682	-0.496818	0.000044
C61	C	0.991526	-0.524868	0.000051
C62	C	1.063200	-0.502465	0.000058
C63	C	1.064028	-0.452015	0.000065
C64	C	0.778994	-0.440718	0.000030
C65	C	0.778172	-0.491168	0.000024
C66	C	0.849016	-0.519218	0.000031
C67	C	1.065245	0.106428	0.000089
C68	C	1.151985	0.110949	0.000092
C69	C	0.915558	0.192173	0.000055
C70	C	0.916452	0.245869	0.000043
N71	N	0.911335	0.110355	0.215871
N72	N	0.933330	0.097802	-0.215719
C73	C	0.962657	0.080979	0.259468
C74	C	0.958226	0.083517	0.346656
C75	C	0.902478	0.115434	0.390245
C76	C	0.851150	0.144812	0.346642
C77	C	0.855577	0.142270	0.259456
C78	C	0.886429	0.124638	0.653492
C79	C	0.882008	0.127178	0.740684
C80	C	0.989084	0.065882	0.740692
C81	C	0.993509	0.063346	0.653504
C82	C	0.942179	0.092721	0.609908
C83	C	0.897950	0.118031	0.479365
C84	C	0.946704	0.090122	0.520790
H85	H	0.519381	0.168259	0.000048
H86	H	0.325275	0.039897	0.000111
O87	O	1.056881	-0.759055	0.000014
C88	C	1.040769	-0.808386	0.000030
H89	H	0.980743	-0.813602	-0.026188
H90	H	1.088002	-0.830534	-0.040190
H91	H	1.040533	-0.820914	0.066479
H92	H	0.141682	0.190497	0.000064
H93	H	0.836608	0.153170	0.776170
H94	H	0.555109	0.009952	0.000108
O95	O	0.775967	-0.747819	-0.000117
C96	C	0.736471	-0.735838	-0.071849
H97	H	0.780955	-0.725079	-0.121982
H98	H	0.704824	-0.768431	-0.095935
H99	H	0.691699	-0.704318	-0.055636
O100	O	0.672223	0.183121	-0.000012
C101	C	0.755006	0.177976	0.000003
H102	H	0.775937	0.140298	-0.026210
H103	H	0.781731	0.206284	-0.040222
H104	H	0.774292	0.183184	0.066451
H105	H	0.702973	0.017659	0.000084
O106	O	0.428217	0.168259	-0.000052
C107	C	0.405977	0.191667	-0.071808
H108	H	0.350817	0.175483	-0.095715
H109	H	0.393364	0.231905	-0.055692
H110	H	0.455765	0.186545	-0.122042
O111	O	0.836507	0.153107	0.611108
C112	C	0.791182	0.123770	0.560675
H113	H	0.788980	0.086380	0.586964
H114	H	0.728886	0.140882	0.559683
H115	H	0.819027	0.120325	0.494597
H116	H	0.421194	0.047113	0.000118
H117	H	0.177426	0.032187	0.000113
O118	O	1.068753	-0.044079	0.000083
C119	C	1.131100	-0.079659	0.000105
H120	H	1.110951	-0.115554	-0.026124
H121	H	1.183229	-0.068224	-0.040102
H122	H	1.149537	-0.083970	0.066557
H123	H	1.123376	-0.373948	0.000083
H124	H	0.813784	0.166191	0.223960
H125	H	0.721303	-0.417884	0.000023
H126	H	1.008056	0.054990	0.223984
O127	O	0.777656	-0.648330	0.000139
C128	C	0.770200	-0.616906	0.071885
H129	H	0.830975	-0.611101	0.095806
H130	H	0.741437	-0.580702	0.055749
H131	H	0.732160	-0.633502	0.122115
O132	O	0.787640	-0.032934	0.000114
C133	C	0.724195	-0.063520	0.000074
H134	H	0.743145	-0.099553	0.026305
H135	H	0.672543	-0.045796	0.040272
H136	H	0.705595	-0.069944	-0.066383
H137	H	0.722274	-0.358042	0.000011
O138	O	0.294272	0.205435	0.000091
C139	C	0.232136	0.241155	0.000065
H140	H	0.175595	0.226099	0.026296
H141	H	0.246752	0.274066	0.040269
H142	H	0.223818	0.252186	-0.066389
H143	H	0.992092	0.064133	0.485297
O144	O	1.008172	0.054968	0.388877
C145	C	1.058320	0.026249	0.331709
H146	H	1.062107	0.044281	0.269549
H147	H	1.119538	0.022211	0.356890
H148	H	1.033869	-0.010968	0.322459
H149	H	1.055928	-0.139045	0.000095
H150	H	0.723782	-0.266522	0.000016
O151	O	0.786136	-0.132388	-0.000035
C152	C	0.785043	-0.163467	-0.071791
H153	H	0.848009	-0.174169	-0.095702
H154	H	0.753480	-0.197284	-0.055672
H155	H	0.752757	-0.144081	-0.122022
O156	O	1.136210	-0.278988	0.000059
C157	C	1.198551	-0.314572	0.000083
H158	H	1.178395	-0.350466	-0.026142
H159	H	1.250682	-0.303142	-0.040127
H160	H	1.216988	-0.318882	0.066535
O161	O	1.058658	-0.659597	0.000026
C162	C	1.121001	-0.695179	0.000056
H163	H	1.100848	-0.731075	-0.026165
H164	H	1.173132	-0.683750	-0.040155
H165	H	1.139438	-0.699485	0.066509
H166	H	1.030873	0.041965	0.776196
O167	O	0.708593	-0.512982	-0.000102
C168	C	0.707501	-0.544061	-0.071858
H169	H	0.770468	-0.554769	-0.095761
H170	H	0.675927	-0.577875	-0.055742
H171	H	0.675226	-0.524673	-0.122094
H172	H	1.122395	-0.433782	0.000078
O173	O	1.047685	0.032298	0.611294
C174	C	1.092047	0.006922	0.668471
H175	H	1.056862	0.006857	0.730625
H176	H	1.105717	-0.031900	0.643293
H177	H	1.149435	0.025287	0.677727
O178	O	1.132075	-0.529670	-0.000049
C179	C	1.179277	-0.521150	-0.071792
H180	H	1.160843	-0.484406	-0.095703
H181	H	1.243675	-0.521549	-0.055655
H182	H	1.171481	-0.550607	-0.122029
O183	O	0.796959	0.175751	0.389076
C184	C	0.746495	0.149345	0.439513
H185	H	0.777415	0.113213	0.452584
H186	H	0.730777	0.170785	0.500816
H187	H	0.690487	0.142688	0.405924
O188	O	0.843833	0.149101	0.521615
C189	C	0.857046	0.196835	0.500311
H190	H	0.890383	0.196183	0.437004
H191	H	0.798171	0.218103	0.497328
H192	H	0.893269	0.214816	0.549371
