data_functionalizedCrystal
_audit_creation_method	'MofGen! by Chris Wilmer'
_symmetry_space_group_name_H-M	'P1'
_symmetry_Int_Tables_number	1
_symmetry_cell_setting	triclinic
loop_
_symmetry_equiv_pos_as_xyz
  x,y,z
_cell_length_a	10.723024
_cell_length_b	14.853567
_cell_length_c	9.198806
_cell_angle_alpha	90.000611
_cell_angle_beta	89.996352
_cell_angle_gamma	84.051400
loop_
_atom_site_label
_atom_site_type_symbol
_atom_site_fract_x
_atom_site_fract_y
_atom_site_fract_z
O1	O	1.655909	0.126445	-0.120870
O2	O	1.292634	0.138549	-0.120873
O3	O	1.483975	0.001318	-0.120876
O4	O	1.464568	0.263675	-0.120867
O5	O	1.483960	0.001318	0.120909
O6	O	1.292619	0.138548	0.120912
O7	O	1.655894	0.126445	0.120915
Cu8	Cu	1.474255	0.132497	0.142991
Cu9	Cu	1.474273	0.132497	-0.142948
O10	O	1.464553	0.263675	0.120918
C11	C	1.246136	0.137668	0.000019
C12	C	1.107608	0.135032	0.000017
C13	C	1.031849	0.211819	0.000018
C14	C	0.888673	0.209097	0.000016
C15	C	1.483088	-0.032275	0.000013
C16	C	1.480453	-0.132373	-0.000000
C17	C	1.355653	-0.545565	0.000026
C18	C	1.582971	-0.565646	0.000029
C19	C	1.585448	-0.471599	0.000020
C20	C	1.473027	-0.414531	0.000017
C21	C	1.358127	-0.451510	0.000022
C22	C	1.700345	-0.434614	0.000029
C23	C	1.702828	-0.340562	0.000022
C24	C	1.590405	-0.283491	0.000009
C25	C	1.475501	-0.320475	0.000013
C26	C	1.363079	-0.263407	0.000009
C27	C	1.248174	-0.300389	0.000003
C28	C	1.245704	-0.394440	0.000009
C29	C	1.592874	-0.189441	0.000003
C30	C	1.365554	-0.169351	0.000005
C31	C	1.702392	0.127326	0.000020
C32	C	1.840919	0.129961	0.000013
C33	C	1.465439	0.297269	0.000026
C34	C	1.468075	0.397366	0.000030
N35	N	1.474251	0.132496	0.344104
N36	N	1.474286	0.132491	-0.344062
C37	C	1.554592	0.074623	0.416300
C38	C	1.554612	0.074619	0.583713
H39	H	1.072985	0.279574	0.000029
O40	O	1.636618	0.015381	0.657611
C41	C	1.708792	-0.140977	0.704516
C42	C	1.615869	-0.073987	0.620706
H43	H	1.692031	-0.213246	0.674732
H44	H	1.808878	-0.128872	0.674628
H45	H	1.694202	-0.130400	0.826330
H46	H	1.630344	-0.084524	0.498873
H47	H	1.515816	-0.086109	0.650715
H48	H	1.405478	0.182038	0.406233
H49	H	0.823575	0.274833	0.000012
H50	H	1.686428	-0.159334	0.000018
O51	O	1.636832	0.015551	0.342385
C52	C	1.853552	-0.036179	0.295509
C53	C	1.760535	0.030759	0.379308
H54	H	1.953585	-0.023894	0.325307
H55	H	1.837032	-0.108479	0.325395
H56	H	1.838890	-0.025677	0.173694
H57	H	1.775142	0.020339	0.501142
H58	H	1.777078	0.103035	0.349302
H59	H	0.906010	0.064222	0.000002
H60	H	1.156641	-0.253912	0.000010
H61	H	1.405504	0.182044	0.593862
H62	H	1.066471	0.067277	-0.000023
H63	H	1.152154	-0.424559	0.000005
O64	O	1.256228	-0.114047	0.000064
C65	C	1.030496	-0.104056	-0.000041
C66	C	1.154211	-0.166790	-0.000072
H67	H	0.947983	-0.146673	-0.000182
H68	H	1.025872	-0.059538	0.101170
H69	H	1.026052	-0.059503	-0.101204
H70	H	1.158738	-0.211398	0.101022
H71	H	1.158784	-0.211246	-0.101350
O72	O	1.244009	-0.581442	-0.000238
C73	C	1.048940	-0.593003	-0.125466
C74	C	1.175344	-0.552328	-0.125363
H75	H	0.993378	-0.569465	-0.226604
H76	H	1.066402	-0.670030	-0.125563
H77	H	0.993422	-0.569573	-0.024235
H78	H	1.230927	-0.575688	-0.226577
H79	H	1.157793	-0.475306	-0.125191
O80	O	1.692251	-0.620988	-0.000162
C81	C	1.885749	-0.666985	-0.125475
C82	C	1.762044	-0.604239	-0.125418
H83	H	1.942199	-0.653479	-0.226749
H84	H	1.942371	-0.653433	-0.024361
H85	H	1.864209	-0.740549	-0.125396
H86	H	1.783470	-0.530652	-0.125548
H87	H	1.705458	-0.617869	-0.226522
O88	O	1.809580	-0.490006	0.000289
C89	C	2.003139	-0.535913	0.125505
C90	C	1.879459	-0.473141	0.125415
H91	H	2.059683	-0.522287	0.226643
H92	H	1.981711	-0.609504	0.125591
H93	H	2.059628	-0.522377	0.024274
H94	H	1.822909	-0.486596	0.226628
H95	H	1.900975	-0.399570	0.125253
H96	H	1.796390	-0.310459	0.000026
