data_functionalizedCrystal
_audit_creation_method	'MofGen! by Chris Wilmer'
_symmetry_space_group_name_H-M	'P1'
_symmetry_Int_Tables_number	1
_symmetry_cell_setting	triclinic
loop_
_symmetry_equiv_pos_as_xyz
  x,y,z
_cell_length_a	10.654550
_cell_length_b	16.109302
_cell_length_c	14.586319
_cell_angle_alpha	90.007794
_cell_angle_beta	89.998997
_cell_angle_gamma	83.973342
loop_
_atom_site_label
_atom_site_type_symbol
_atom_site_fract_x
_atom_site_fract_y
_atom_site_fract_z
O1	O	0.161416	1.104093	0.076279
O2	O	0.661416	1.604093	0.576279
O3	O	0.181504	0.862151	0.076272
O4	O	0.681504	1.362151	0.576272
O5	O	-0.011355	0.988685	0.076272
O6	O	0.488645	1.488685	0.576272
O7	O	0.354275	0.977560	0.076279
O8	O	0.854275	1.477560	0.576279
O9	O	-0.011343	0.988669	-0.076209
O10	O	0.488657	1.488669	0.423791
O11	O	0.181515	0.862135	-0.076209
O12	O	0.681515	1.362135	0.423791
O13	O	0.161428	1.104078	-0.076202
O14	O	0.661428	1.604078	0.423798
Cu15	Cu	0.171472	0.983105	-0.090128
Cu16	Cu	0.671472	1.483105	0.409872
Cu17	Cu	0.171459	0.983124	0.090198
Cu18	Cu	0.671459	1.483124	0.590198
O19	O	0.354286	0.977544	-0.076202
O20	O	0.854286	1.477544	0.423798
C21	C	0.180695	0.831164	0.000030
C22	C	0.680695	1.331164	0.500030
C23	C	0.178255	0.738854	0.000028
C24	C	0.678255	1.238854	0.500028
C25	C	0.172620	0.526471	-0.083081
C26	C	0.672620	1.026471	0.416919
C27	C	0.170314	0.439737	-0.083078
C28	C	0.670314	0.939737	0.416922
C29	C	0.170308	0.439765	0.083165
C30	C	0.670308	0.939765	0.583165
C31	C	0.172605	0.526497	0.083161
C32	C	0.672605	1.026497	0.583161
C33	C	0.173767	0.569848	0.000035
C34	C	0.673767	1.069848	0.500035
C35	C	0.169164	0.396381	0.000043
C36	C	0.669164	0.896381	0.500043
C37	C	0.166664	0.302341	0.000047
C38	C	0.666664	0.802341	0.500047
C39	C	0.176265	0.663895	0.000031
C40	C	0.676265	1.163895	0.500031
C41	C	-0.058136	0.987860	0.000033
C42	C	0.441864	1.487860	0.500033
C43	C	-0.197546	0.985416	0.000036
C44	C	0.302454	1.485416	0.500036
C45	C	-0.278042	1.059918	0.000036
C46	C	0.221958	1.559918	0.500036
C47	C	-0.409032	1.057616	0.000042
C48	C	0.090968	1.557616	0.500042
C49	C	-0.379016	0.906306	0.000045
C50	C	0.120984	1.406306	0.500045
C51	C	-0.248029	0.908608	0.000046
C52	C	0.251971	1.408608	0.500046
C53	C	-0.227559	1.136726	0.000026
C54	C	0.272441	1.636726	0.500026
C55	C	-0.308057	1.211233	0.000025
C56	C	0.191943	1.711233	0.500025
C57	C	-0.439046	1.208932	0.000031
C58	C	0.060954	1.708932	0.500031
C59	C	-0.489538	1.132123	0.000039
C60	C	0.010462	1.632123	0.500039
C61	C	0.401067	0.978369	0.000039
C62	C	0.901067	1.478369	0.500039
C63	C	0.540477	0.980813	0.000042
C64	C	1.040477	1.480813	0.500042
C65	C	0.162236	1.135065	0.000042
C66	C	0.662236	1.635065	0.500042
C67	C	0.164676	1.227375	0.000051
C68	C	0.664676	1.727375	0.500051
N69	N	0.171481	0.983098	-0.216960
N70	N	0.671481	1.483098	0.283040
C71	C	0.247653	1.033974	-0.451963
C72	C	0.747653	1.533974	0.048037
C73	C	0.247644	1.033983	-0.547944
C74	C	0.747644	1.533983	-0.047944
C75	C	0.095260	0.932259	-0.547960
C76	C	0.595260	1.432259	-0.047960
C77	C	0.095263	0.932256	-0.451981
C78	C	0.595263	1.432256	0.048019
C79	C	0.171466	0.983112	-0.403985
C80	C	0.671466	1.483112	0.096015
C81	C	0.171455	0.983124	-0.595945
C82	C	0.671455	1.483124	-0.095945
C83	C	0.171445	0.983133	-0.700012
C84	C	0.671445	1.483133	-0.200012
C85	C	0.171475	0.983104	-0.299911
C86	C	0.671475	1.483104	0.200089
N87	N	0.171440	0.983137	0.217030
N88	N	0.671440	1.483137	0.717030
H89	H	0.169363	0.404458	0.150843
H90	H	0.669363	0.904458	0.650843
H91	H	0.173566	0.561764	-0.150767
H92	H	0.673566	1.061764	0.349233
H93	H	0.033219	0.890853	-0.587050
H94	H	0.533219	1.390853	-0.087050
F95	F	0.014172	0.878117	-0.400915
F96	F	0.514172	1.378117	0.099085
H97	H	-0.182487	0.847943	0.000045
H98	H	0.317513	1.347943	0.500045
F99	F	0.328748	1.088104	-0.400885
F100	F	0.828748	1.588104	0.099115
H101	H	0.309681	1.075401	-0.587004
H102	H	0.809681	1.575401	-0.087004
H103	H	0.169380	0.404423	-0.150759
H104	H	0.669380	0.904423	0.349241
H105	H	0.173536	0.561816	0.150849
H106	H	0.673536	1.061816	0.650849
H107	H	-0.266937	1.273768	0.000041
H108	H	0.233063	1.773768	0.500041
F109	F	-0.088150	1.139181	0.000017
F110	F	0.411850	1.639181	0.500017
F111	F	-0.524714	1.288227	0.000039
F112	F	-0.024714	1.788227	0.500039
H113	H	-0.596200	1.130255	0.000054
H114	H	-0.096200	1.630255	0.500054
H115	H	-0.420138	0.843772	0.000050
H116	H	0.079862	1.343772	0.500050
