data_functionalizedCrystal
_audit_creation_method	'MofGen! by Chris Wilmer'
_symmetry_space_group_name_H-M	'P1'
_symmetry_Int_Tables_number	1
_symmetry_cell_setting	triclinic
loop_
_symmetry_equiv_pos_as_xyz
  x,y,z
_cell_length_a	13.101039
_cell_length_b	14.044209
_cell_length_c	14.044220
_cell_angle_alpha	93.188415
_cell_angle_beta	86.332523
_cell_angle_gamma	93.659214
loop_
_atom_site_label
_atom_site_type_symbol
_atom_site_fract_x
_atom_site_fract_y
_atom_site_fract_z
O1	O	-0.085094	-1.281968	-0.225339
O2	O	-0.085123	-1.005298	-0.217034
O3	O	-0.085099	-1.139480	-0.082851
O4	O	-0.085118	-1.147787	-0.359521
O5	O	0.085329	-1.129854	-0.092496
O6	O	0.085305	-0.995672	-0.226679
O7	O	0.085334	-1.272342	-0.234984
Zn8	Zn	0.112379	-1.132479	-0.232362
Zn9	Zn	-0.112168	-1.145161	-0.219655
O10	O	0.085310	-1.138161	-0.369166
C11	C	0.000087	-0.964864	-0.218221
C12	C	0.000077	-0.858721	-0.207376
N13	N	0.265626	-1.123830	-0.241035
N14	N	-0.265415	-1.153817	-0.210975
C15	C	0.000096	-0.664383	-0.187553
C16	C	0.000094	-0.613253	-0.264467
C17	C	0.000105	-0.505116	-0.253437
C18	C	0.000085	-0.772529	-0.198581
C19	C	0.474666	-1.112064	-0.252843
C20	C	0.525551	-1.165580	-0.199170
C21	C	0.641869	-1.159033	-0.205740
C22	C	0.358338	-1.118610	-0.246274
C23	C	0.000118	-0.312777	-0.233798
C24	C	0.000114	-0.418920	-0.244648
C25	C	0.000115	-1.131031	-0.052052
C26	C	0.000115	-1.120187	0.054091
C27	C	0.000093	-1.146609	-0.399965
C28	C	0.000087	-1.157454	-0.506108
C29	C	0.000099	-1.100361	0.248429
C30	C	0.000103	-1.177275	0.299560
C31	C	0.000094	-1.166244	0.407696
C32	C	0.000108	-1.111391	0.140283
H33	H	0.000106	-0.626945	-0.113426
H34	H	0.000042	-1.251412	0.262125
H35	H	0.000085	-0.650693	-0.338600
H36	H	0.481758	-1.216314	-0.148286
O37	O	0.527016	-1.051491	-0.313423
C38	C	0.648273	-0.916113	-0.329612
C39	C	0.589052	-0.984653	-0.260901
H40	H	0.698427	-0.862046	-0.287174
H41	H	0.698568	-0.958619	-0.383513
H42	H	0.591599	-0.876894	-0.369019
H43	H	0.645652	-1.023890	-0.221429
H44	H	0.538742	-0.942096	-0.207062
O45	O	0.000139	-1.011992	0.293234
C46	C	0.000073	-0.920299	0.443446
C47	C	0.000045	-1.020429	0.392812
H48	H	-0.000024	-0.927088	0.523965
H49	H	0.071415	-0.875806	0.417961
H50	H	-0.071233	-0.883874	0.425892
H51	H	0.071303	-1.056936	0.410343
H52	H	-0.071344	-1.064853	0.418302
