data_functionalizedCrystal
_audit_creation_method	'MofGen! by Chris Wilmer'
_symmetry_space_group_name_H-M	'P1'
_symmetry_Int_Tables_number	1
_symmetry_cell_setting	triclinic
loop_
_symmetry_equiv_pos_as_xyz
  x,y,z
_cell_length_a	9.565339
_cell_length_b	8.559649
_cell_length_c	8.559649
_cell_angle_alpha	69.778664
_cell_angle_beta	90.001910
_cell_angle_gamma	89.997257
loop_
_atom_site_label
_atom_site_type_symbol
_atom_site_fract_x
_atom_site_fract_y
_atom_site_fract_z
O1	O	0.116238	-2.126882	0.055047
O2	O	0.116243	-1.651397	-0.028735
O3	O	0.116239	-1.931030	0.250898
O4	O	0.116243	-1.847249	-0.224586
O5	O	-0.116281	-1.931009	0.250880
O6	O	-0.116277	-1.651376	-0.028753
O7	O	-0.116282	-2.126860	0.055029
Zn8	Zn	-0.153197	-1.889115	0.013135
Zn9	Zn	0.153158	-1.889143	0.013159
O10	O	-0.116277	-1.847227	-0.224604
C11	C	-0.000016	-1.591077	-0.035093
C12	C	-0.000014	-1.411378	-0.053992
C13	C	-0.000019	-1.937369	0.311198
C14	C	-0.000011	-1.956268	0.490898
N15	N	-0.362276	-1.889107	0.013121
C16	C	-0.453477	-1.759756	-0.116166
C17	C	-0.546658	-1.902491	-0.129655
C18	C	-0.546651	-1.746434	0.026606
C19	C	-0.453405	-2.031907	-0.000432
C20	C	-0.453390	-1.875762	0.155881
C21	C	-0.546529	-2.018610	0.142467
N22	N	0.362238	-1.889165	0.013187
C23	C	-0.000020	-2.187180	0.061387
C24	C	-0.000013	-2.366879	0.080286
C25	C	-0.000017	-1.840889	-0.284904
C26	C	-0.000015	-1.821990	-0.464604
H27	H	-0.412621	-1.650445	-0.225578
H28	H	-0.000018	-1.692570	0.436018
H29	H	-0.000024	-2.085696	0.590286
Cl30	Cl	-0.609893	-1.560118	0.044181
Cl31	Cl	-0.609910	-1.919984	-0.316000
H32	H	-0.412618	-2.152595	-0.011957
Cl33	Cl	-0.609225	-2.187693	0.311339
H34	H	-0.412391	-1.864383	0.276534
H35	H	-0.000007	-1.466258	0.209705
H36	H	-0.000005	-1.311990	-0.183420
