data_functionalizedCrystal
_audit_creation_method	'MofGen! by Chris Wilmer'
_symmetry_space_group_name_H-M	'P1'
_symmetry_Int_Tables_number	1
_symmetry_cell_setting	triclinic
loop_
_symmetry_equiv_pos_as_xyz
  x,y,z
_cell_length_a	12.759400
_cell_length_b	12.759401
_cell_length_c	12.759393
_cell_angle_alpha	90.020011
_cell_angle_beta	89.968436
_cell_angle_gamma	89.989237
loop_
_atom_site_label
_atom_site_type_symbol
_atom_site_fract_x
_atom_site_fract_y
_atom_site_fract_z
Zn1	Zn	-0.418314	-1.606255	-0.594024
Zn2	Zn	-0.594033	-1.606150	-0.418344
Zn3	Zn	-0.418357	-1.430557	-0.418359
Zn4	Zn	-0.593940	-1.430546	-0.593981
O5	O	-0.506161	-1.518377	-0.506177
O6	O	-0.441645	-1.753262	-0.570731
O7	O	-0.570786	-1.582818	-0.271325
O8	O	-0.271330	-1.453913	-0.441685
O9	O	-0.570745	-1.753185	-0.441660
O10	O	-0.271299	-1.582998	-0.570746
O11	O	-0.441717	-1.453811	-0.271335
O12	O	-0.441627	-1.283535	-0.441643
O13	O	-0.570586	-1.453894	-0.741008
O14	O	-0.570627	-1.283527	-0.570672
O15	O	-0.441554	-1.582987	-0.741039
O16	O	-0.741042	-1.582807	-0.441618
O17	O	-0.740973	-1.453791	-0.570658
C18	C	-0.506122	-1.245410	-0.506155
C19	C	-0.506131	-1.128633	-0.506171
C20	C	-0.439033	-1.073805	-0.573481
C21	C	-0.439047	-0.964081	-0.573485
C22	C	-0.573267	-0.964023	-0.438866
C23	C	-0.573247	-1.073745	-0.438857
C24	C	-0.371917	-1.128692	-0.640795
C25	C	-0.304814	-1.073864	-0.708111
C26	C	-0.304828	-0.964140	-0.708115
C27	C	-0.371946	-0.909244	-0.640803
C28	C	-0.779128	-1.518315	-0.506155
C29	C	-0.895905	-1.518384	-0.506181
C30	C	-0.950768	-1.585637	-0.439064
C31	C	-1.060492	-1.585702	-0.439096
C32	C	-1.060480	-1.451252	-0.573365
C33	C	-0.950758	-1.451193	-0.573337
C34	C	-0.895914	-1.652828	-0.371907
C35	C	-0.950777	-1.720086	-0.304784
C36	C	-1.060501	-1.720150	-0.304817
C37	C	-1.115362	-1.652957	-0.371972
C38	C	-0.232128	-1.518468	-0.506222
C39	C	-0.115351	-1.518507	-0.506241
C40	C	-0.506055	-1.518451	-0.780210
C41	C	-0.506010	-1.518482	-0.896987
C42	C	-0.506188	-0.792410	-0.506193
C43	C	-0.506166	-0.909187	-0.506183
C44	C	-0.438817	-1.585710	-0.951867
C45	C	-0.438779	-1.585735	-1.061591
C46	C	-0.573136	-1.451301	-1.061545
C47	C	-0.573168	-1.451272	-0.951823
C48	C	-0.371659	-1.652920	-0.897031
C49	C	-0.304461	-1.720155	-0.951911
C50	C	-0.304423	-1.720180	-1.061635
C51	C	-0.371583	-1.652970	-1.116479
C52	C	-0.506191	-1.518364	-0.233209
C53	C	-0.505940	-1.518537	-0.116433
H54	H	-0.627913	-0.919319	-0.384065
H55	H	-0.371684	-1.652910	-0.807688
C56	C	-1.094099	-1.898114	-0.253831
C57	C	-1.120768	-1.794114	-0.231043
H58	H	-1.131289	-1.943783	-0.208277
H59	H	-1.112030	-1.913450	-0.324429
H60	H	-1.020893	-1.907643	-0.244225
H61	H	-1.193974	-1.784583	-0.240656
H62	H	-1.102844	-1.778773	-0.160428
C63	C	-0.738741	-1.725940	-0.298760
C64	C	-0.775305	-1.652763	-0.371874
H65	H	-0.664282	-1.725900	-0.298745
H66	H	-0.763629	-1.707812	-0.230964
H67	H	-0.763502	-1.793741	-0.316997
H68	H	-0.750550	-1.584960	-0.353632
H69	H	-0.750406	-1.670885	-0.439685
C70	C	-1.228674	-1.391637	-0.633015
C71	C	-1.120782	-1.377388	-0.647169
H72	H	-1.265899	-1.346029	-0.678573
H73	H	-1.246587	-1.462220	-0.648462
H74	H	-1.246710	-1.376309	-0.562410
H75	H	-1.102745	-1.392723	-0.717772
H76	H	-1.102862	-1.306789	-0.631729
C77	C	-1.272548	-1.726254	-0.298922
C78	C	-1.235974	-1.653031	-0.372011
H79	H	-1.347006	-1.726292	-0.298941
H80	H	-1.247661	-1.794018	-0.317148
H81	H	-1.247792	-1.708100	-0.231104
H82	H	-1.260724	-1.671190	-0.439831
H83	H	-1.260871	-1.585252	-0.353791
C84	C	-0.961760	-1.318305	-0.706064
C85	C	-0.890445	-1.377274	-0.647118
H86	H	-0.924522	-1.272671	-0.751613
H87	H	-1.004493	-1.364083	-0.746292
H88	H	-1.004618	-1.278155	-0.660258
H89	H	-0.847591	-1.417430	-0.692923
H90	H	-0.847694	-1.331490	-0.606886
C91	C	-0.289804	-1.861524	-1.185057
C92	C	-0.230557	-1.794070	-1.121968
H93	H	-0.244200	-1.907137	-1.222307
H94	H	-0.335588	-1.901686	-1.142249
H95	H	-0.329793	-1.821492	-1.233414
H96	H	-0.190573	-1.834101	-1.073606
H97	H	-0.184754	-1.753903	-1.164780
H98	H	-0.627814	-1.396582	-1.106208
H99	H	-0.371930	-0.819900	-0.640789
H100	H	-0.250182	-0.919501	-0.762920
H101	H	-0.250163	-1.118567	-0.762908
C102	C	-0.244859	-1.779808	-0.783734
C103	C	-0.230637	-1.794023	-0.891631
H104	H	-0.199283	-1.825417	-0.746524
H105	H	-0.229477	-1.709227	-0.765754
H106	H	-0.315460	-1.795160	-0.765749
H107	H	-0.160037	-1.778664	-0.909618
H108	H	-0.246011	-1.864621	-0.909618
H109	H	-0.371534	-1.652984	-1.205824
C110	C	-0.398794	-1.285904	-0.740691
C111	C	-0.371895	-1.249302	-0.640794
H112	H	-0.398775	-1.360362	-0.740690
H113	H	-0.466613	-1.261089	-0.758723
H114	H	-0.349221	-1.261095	-0.790404
H115	H	-0.421472	-1.274105	-0.591082
H116	H	-0.304066	-1.274127	-0.622749
H117	H	-0.627884	-1.118388	-0.384047
H118	H	-0.906104	-1.774798	-0.250115
C119	C	-0.706016	-1.318437	-0.962790
C120	C	-0.647056	-1.377403	-0.891491
H121	H	-0.751641	-1.272843	-0.925541
H122	H	-0.660233	-1.278254	-1.005579
H123	H	-0.746176	-1.364227	-1.005594
H124	H	-0.606890	-1.331613	-0.848692
H125	H	-0.692845	-1.417589	-0.848683
