data_functionalizedCrystal
_audit_creation_method	'MofGen! by Chris Wilmer'
_symmetry_space_group_name_H-M	'P1'
_symmetry_Int_Tables_number	1
_symmetry_cell_setting	triclinic
loop_
_symmetry_equiv_pos_as_xyz
  x,y,z
_cell_length_a	18.266242
_cell_length_b	14.044220
_cell_length_c	14.044220
_cell_angle_alpha	93.188878
_cell_angle_beta	89.993114
_cell_angle_gamma	89.996046
loop_
_atom_site_label
_atom_site_type_symbol
_atom_site_fract_x
_atom_site_fract_y
_atom_site_fract_z
O1	O	0.060806	-1.277174	-0.230170
O2	O	0.560806	-0.777174	0.269830
O3	O	0.060824	-1.000503	-0.221864
O4	O	0.560824	-0.500503	0.278136
O5	O	0.060808	-1.134686	-0.087681
O6	O	0.560808	-0.634686	0.412319
O7	O	0.060822	-1.142991	-0.364352
O8	O	0.560822	-0.642991	0.135648
O9	O	-0.060954	-1.134660	-0.087671
O10	O	0.439046	-0.634660	0.412329
O11	O	-0.060938	-1.000477	-0.221854
O12	O	0.439062	-0.500477	0.278146
O13	O	-0.060956	-1.277149	-0.230160
O14	O	0.439044	-0.777149	0.269840
Zn15	Zn	-0.080279	-1.138809	-0.226006
Zn16	Zn	0.419721	-0.638809	0.273994
Zn17	Zn	0.080148	-1.138843	-0.226018
Zn18	Zn	0.580148	-0.638843	0.273982
O19	O	-0.060940	-1.142966	-0.364343
O20	O	0.439060	-0.642966	0.135657
C21	C	-0.000054	-0.964868	-0.218223
C22	C	0.499946	-0.464868	0.281777
C23	C	-0.000047	-0.858725	-0.207379
C24	C	0.499953	-0.358725	0.292621
C25	C	-0.000073	-1.131037	-0.052054
C26	C	0.499927	-0.631037	0.447946
C27	C	-0.000073	-1.120193	0.054088
C28	C	0.499927	-0.620193	0.554088
N29	N	-0.189766	-1.138793	-0.225997
N30	N	0.310234	-0.638793	0.274003
C31	C	-0.228082	-1.198233	-0.166614
C32	C	0.271918	-0.698233	0.333386
C33	C	-0.304727	-1.198239	-0.166610
C34	C	0.195273	-0.698239	0.333390
C35	C	-0.343053	-1.138815	-0.226006
C36	C	0.156947	-0.638815	0.273994
C37	C	-0.304728	-1.079363	-0.285393
C38	C	0.195272	-0.579363	0.214607
C39	C	-0.228084	-1.079352	-0.285388
C40	C	0.271916	-0.579352	0.214612
N41	N	-0.463381	-1.133806	-0.309456
N42	N	0.036619	-0.633806	0.190544
N43	N	-0.536189	-1.133822	-0.309458
N44	N	-0.036189	-0.633822	0.190542
C45	C	-0.573975	-1.138843	-0.226022
C46	C	-0.073975	-0.638843	0.273978
N47	N	-0.536203	-1.143866	-0.142584
N48	N	-0.036203	-0.643866	0.357416
N49	N	-0.463389	-1.143855	-0.142583
N50	N	0.036611	-0.643855	0.357417
C51	C	-0.426160	-1.138820	-0.226017
C52	C	0.073840	-0.638820	0.273983
C53	C	-0.695399	-1.198292	-0.166630
C54	C	-0.195399	-0.698292	0.333370
C55	C	-0.772045	-1.198291	-0.166625
C56	C	-0.272045	-0.698291	0.333375
C57	C	-0.772044	-1.079420	-0.285416
C58	C	-0.272044	-0.579420	0.214584
C59	C	-0.695399	-1.079416	-0.285413
C60	C	-0.195399	-0.579416	0.214587
C61	C	-0.657081	-1.138857	-0.226022
C62	C	-0.157081	-0.638857	0.273978
N63	N	0.189634	-1.138865	-0.226020
N64	N	0.689634	-0.638865	0.273980
C65	C	-0.000076	-1.312783	-0.233800
C66	C	0.499924	-0.812783	0.266200
C67	C	-0.000078	-1.418926	-0.244645
C68	C	0.499922	-0.918926	0.255355
C69	C	-0.000063	-0.664388	-0.187553
C70	C	0.499937	-0.164388	0.312447
C71	C	-0.000062	-0.613258	-0.264467
C72	C	0.499938	-0.113258	0.235533
C73	C	-0.000071	-0.505122	-0.253435
C74	C	0.499929	-0.005122	0.246565
C75	C	-0.000054	-0.772534	-0.198583
C76	C	0.499946	-0.272534	0.301417
C77	C	-0.000057	-1.146614	-0.399969
C78	C	0.499943	-0.646614	0.100031
C79	C	-0.000052	-1.157459	-0.506112
C80	C	0.499948	-0.657459	-0.006112
C81	C	-0.000061	-1.100366	0.248426
C82	C	0.499939	-0.600366	0.748426
C83	C	-0.000064	-1.177281	0.299556
C84	C	0.499936	-0.677281	0.799556
C85	C	-0.000057	-1.166249	0.407692
C86	C	0.499943	-0.666249	0.907692
C87	C	-0.000068	-1.111397	0.140280
C88	C	0.499932	-0.611397	0.640280
H89	H	-0.196886	-1.246631	-0.118252
H90	H	0.303114	-0.746631	0.381748
H91	H	-0.803248	-1.031032	-0.333773
H92	H	-0.303248	-0.531032	0.166227
H93	H	-0.000055	-0.650697	-0.338600
H94	H	0.499945	-0.150697	0.161400
H95	H	-0.000054	-1.026239	0.285863
H96	H	0.499946	-0.526239	0.785863
N97	N	-0.000081	-0.617429	-0.094557
N98	N	0.499919	-0.117429	0.405443
N99	N	-0.051411	-0.562643	-0.069759
N100	N	0.448589	-0.062643	0.430241
H101	H	-0.051422	-0.529468	-0.004081
H102	H	0.448578	-0.029468	0.495919
N103	N	-0.343865	-1.258961	-0.105941
N104	N	0.156135	-0.758961	0.394059
N105	N	-0.309644	-1.312023	-0.052916
N106	N	0.190356	-0.812023	0.447084
H107	H	-0.337283	-1.354908	-0.010067
H108	H	0.162717	-0.854908	0.489933
H109	H	-0.196887	-1.030947	-0.333745
H110	H	0.303113	-0.530947	0.166255
N111	N	-0.343884	-1.018662	-0.346052
N112	N	0.156116	-0.518662	0.153948
N113	N	-0.412315	-1.018679	-0.346049
N114	N	0.087685	-0.518679	0.153951
H115	H	-0.439970	-0.975804	-0.388888
H116	H	0.060030	-0.475804	0.111112
N117	N	-0.656263	-1.258882	-0.105832
N118	N	-0.156263	-0.758882	0.394168
N119	N	-0.690488	-1.311859	-0.052721
N120	N	-0.190488	-0.811859	0.447279
H121	H	-0.662851	-1.354603	-0.009732
H122	H	-0.162851	-0.854603	0.490268
N123	N	-0.000075	-1.270276	0.252582
N124	N	0.499925	-0.770276	0.752582
N125	N	-0.000083	-1.279224	0.163531
N126	N	0.499917	-0.779224	0.663531
H127	H	-0.000093	-1.344899	0.130350
H128	H	0.499907	-0.844899	0.630350
H129	H	-0.664200	-1.031019	-0.333772
H130	H	-0.164200	-0.531019	0.166228
N131	N	-0.811175	-1.259009	-0.105949
N132	N	-0.311175	-0.759009	0.394051
N133	N	-0.776950	-1.312070	-0.052928
N134	N	-0.276950	-0.812070	0.447072
H135	H	-0.804585	-1.354953	-0.010073
H136	H	-0.304585	-0.854953	0.489927
