data_functionalizedCrystal
_audit_creation_method	'MofGen! by Chris Wilmer'
_symmetry_space_group_name_H-M	'P1'
_symmetry_Int_Tables_number	1
_symmetry_cell_setting	triclinic
loop_
_symmetry_equiv_pos_as_xyz
  x,y,z
_cell_length_a	14.519709
_cell_length_b	10.654550
_cell_length_c	9.730223
_cell_angle_alpha	90.004253
_cell_angle_beta	89.997675
_cell_angle_gamma	84.082538
loop_
_atom_site_label
_atom_site_type_symbol
_atom_site_fract_x
_atom_site_fract_y
_atom_site_fract_z
O1	O	-1.224719	-0.164623	-0.114110
O2	O	-0.724719	0.335377	0.385890
O3	O	-0.956343	-0.184009	-0.114152
O4	O	-0.456343	0.315991	0.385848
O5	O	-1.096702	0.008483	-0.114122
O6	O	-0.596702	0.508483	0.385878
O7	O	-1.084361	-0.357114	-0.114141
O8	O	-0.584361	0.142886	0.385859
O9	O	-1.096693	0.008488	0.114458
O10	O	-0.596693	0.508488	0.614458
O11	O	-0.956334	-0.184004	0.114428
O12	O	-0.456334	0.315996	0.614428
O13	O	-1.224710	-0.164617	0.114470
O14	O	-0.724710	0.335383	0.614470
Zn15	Zn	-1.090521	-0.174310	0.150741
Zn16	Zn	-0.590521	0.325690	0.650741
Zn17	Zn	-1.090533	-0.174317	-0.150423
Zn18	Zn	-0.590533	0.325683	0.349577
O19	O	-1.084352	-0.357109	0.114439
O20	O	-0.584352	0.142891	0.614439
C21	C	-0.921974	-0.183103	0.000132
C22	C	-0.421974	0.316897	0.500132
C23	C	-0.819579	-0.180396	0.000116
C24	C	-0.319579	0.319604	0.500116
C25	C	-1.095791	0.055275	0.000167
C26	C	-0.595791	0.555275	0.500167
C27	C	-1.093080	0.194692	0.000165
C28	C	-0.593080	0.694692	0.500165
C29	C	-1.259079	-0.165524	0.000182
C30	C	-0.759079	0.334476	0.500182
C31	C	-1.361475	-0.168231	0.000189
C32	C	-0.861475	0.331769	0.500189
C33	C	-0.444631	-0.170428	0.000179
C34	C	0.055369	0.329572	0.500179
C35	C	-0.548954	-0.173196	0.000162
C36	C	-0.048954	0.326804	0.500162
C37	C	-0.632102	-0.175412	0.000147
C38	C	-0.132102	0.324588	0.500147
C39	C	-0.736431	-0.178180	0.000131
C40	C	-0.236431	0.321820	0.500131
C41	C	-1.085262	-0.403901	0.000147
C42	C	-0.585262	0.096099	0.500147
C43	C	-1.087973	-0.543318	0.000140
C44	C	-0.587973	-0.043318	0.500140
N45	N	-1.090519	-0.174304	0.356277
N46	N	-0.590519	0.325696	0.856277
C47	C	-1.175721	0.274972	0.000177
C48	C	-0.675721	0.774972	0.500177
C49	C	-1.173168	0.405968	0.000160
C50	C	-0.673168	0.905968	0.500160
C51	C	-1.005326	0.376391	0.000124
C52	C	-0.505326	0.876391	0.500124
C53	C	-1.007880	0.245397	0.000131
C54	C	-0.507880	0.745397	0.500131
N55	N	-1.090541	-0.174312	-0.355960
N56	N	-0.590541	0.325688	0.144040
C57	C	-1.152691	-0.089105	0.428216
C58	C	-0.652691	0.410895	0.928216
C59	C	-1.152701	-0.089105	0.572099
C60	C	-0.652701	0.410895	1.072099
C61	C	-1.028363	-0.259516	0.572091
C62	C	-0.528363	0.240484	1.072091
C63	C	-1.028350	-0.259508	0.428210
C64	C	-0.528350	0.240492	0.928210
H65	H	-1.245096	0.233692	0.000202
H66	H	-0.745096	0.733692	0.500202
H67	H	-0.935959	0.417692	0.000099
H68	H	-0.435959	0.917692	0.500099
C69	C	-0.975578	-0.476759	0.616350
C70	C	-0.475578	0.023241	1.116350
C71	C	-0.960029	-0.353176	0.651157
C72	C	-0.460029	0.146824	1.151157
H73	H	-0.933386	-0.534581	0.665153
H74	H	-0.433386	-0.034581	1.165153
H75	H	-1.037204	-0.490586	0.639929
H76	H	-0.537204	0.009414	1.139929
H77	H	-0.966674	-0.488927	0.520360
H78	H	-0.466674	0.011073	1.020360
H79	H	-0.968940	-0.341006	0.747145
H80	H	-0.468940	0.158994	1.247145
H81	H	-0.898388	-0.339345	0.627586
H82	H	-0.398388	0.160655	1.127586
H83	H	-1.240463	0.471328	0.000167
H84	H	-0.740463	0.971328	0.500167
C85	C	-1.009408	-0.430356	0.266371
C86	C	-0.509408	0.069644	0.766371
C87	C	-0.960008	-0.353171	0.349122
C88	C	-0.460008	0.146829	0.849122
H89	H	-0.967215	-0.488168	0.217540
H90	H	-0.467215	0.011832	0.717540
H91	H	-1.048076	-0.475650	0.322489
H92	H	-0.548076	0.024350	0.822489
H93	H	-1.046423	-0.379591	0.202946
H94	H	-0.546423	0.120409	0.702946
H95	H	-0.922997	-0.403935	0.412554
H96	H	-0.422997	0.096065	0.912554
H97	H	-0.921324	-0.307873	0.292999
H98	H	-0.421324	0.192127	0.792999
H99	H	-0.940579	0.180029	0.000117
H100	H	-0.440579	0.680029	0.500117
C101	C	-1.275586	0.079348	0.442682
C102	C	-0.775586	0.579348	0.942682
C103	C	-1.221018	0.004562	0.349146
C104	C	-0.721018	0.504562	0.849146
H105	H	-1.317763	0.137182	0.393867
H106	H	-0.817763	0.637182	0.893867
H107	H	-1.309095	0.026969	0.498783
H108	H	-0.809095	0.526969	0.998783
H109	H	-1.236905	0.124630	0.498817
H110	H	-0.736905	0.624630	0.998817
H111	H	-1.259699	-0.040727	0.293017
H112	H	-0.759699	0.459273	0.793017
H113	H	-1.187507	0.056948	0.293022
H114	H	-0.687507	0.556948	0.793022
C115	C	-1.171649	0.081751	0.733911
C116	C	-0.671649	0.581751	1.233911
C117	C	-1.221044	0.004549	0.651174
C118	C	-0.721044	0.504549	1.151174
H119	H	-1.213844	0.139576	0.782720
H120	H	-0.713844	0.639576	1.282720
H121	H	-1.134639	0.031009	0.797342
H122	H	-0.634639	0.531009	1.297342
H123	H	-1.132976	0.127041	0.677775
H124	H	-0.632976	0.627041	1.177775
H125	H	-1.259712	-0.040749	0.707311
H126	H	-0.759712	0.459251	1.207311
H127	H	-1.258070	0.055297	0.587735
H128	H	-0.758070	0.555297	1.087735
