data_functionalizedCrystal
_audit_creation_method	'MofGen! by Chris Wilmer'
_symmetry_space_group_name_H-M	'P1'
_symmetry_Int_Tables_number	1
_symmetry_cell_setting	triclinic
loop_
_symmetry_equiv_pos_as_xyz
  x,y,z
_cell_length_a	18.101398
_cell_length_b	18.101397
_cell_length_c	18.101389
_cell_angle_alpha	90.021047
_cell_angle_beta	90.024327
_cell_angle_gamma	90.015732
loop_
_atom_site_label
_atom_site_type_symbol
_atom_site_fract_x
_atom_site_fract_y
_atom_site_fract_z
Zn1	Zn	1.132176	-0.295001	0.418825
Zn2	Zn	1.132095	-0.418826	0.294978
Zn3	Zn	1.008335	-0.294993	0.294986
Zn4	Zn	1.008308	-0.418795	0.418767
O5	O	1.070228	-0.356904	0.356889
O6	O	1.235798	-0.311443	0.402418
O7	O	1.115655	-0.402410	0.191346
O8	O	1.024807	-0.191361	0.311442
O9	O	1.235738	-0.402417	0.311428
O10	O	1.115793	-0.191367	0.402426
O11	O	1.024729	-0.311430	0.191352
O12	O	0.904698	-0.311399	0.311385
O13	O	1.024763	-0.402363	0.522407
O14	O	0.904679	-0.402356	0.402326
O15	O	1.115767	-0.311412	0.522450
O16	O	1.115629	-0.522455	0.311371
O17	O	1.024684	-0.522432	0.402318
C18	C	0.877818	-0.356874	0.356850
C19	C	0.795504	-0.356879	0.356851
C20	C	0.496413	-0.356925	0.356914
C21	C	0.527725	-0.299411	0.299975
C22	C	0.613344	-0.299566	0.299732
C23	C	0.644795	-0.356901	0.356883
C24	C	0.613692	-0.434909	0.335555
C25	C	0.528046	-0.434590	0.335159
C26	C	0.528024	-0.337109	0.435314
C27	C	0.613674	-0.335371	0.434886
C28	C	0.728655	-0.356893	0.356867
C29	C	0.412553	-0.356939	0.356928
C30	C	1.070165	-0.549314	0.356853
C31	C	1.070206	-0.631628	0.356863
C32	C	1.070300	-0.930719	0.356930
C33	C	1.127361	-0.899378	0.299555
C34	C	1.127559	-0.813759	0.299704
C35	C	1.070253	-0.782337	0.356896
C36	C	1.091409	-0.813359	0.434959
C37	C	1.091851	-0.899004	0.434646
C38	C	0.991931	-0.899218	0.336918
C39	C	0.992318	-0.813569	0.335175
C40	C	1.070226	-0.698477	0.356881
C41	C	1.070330	-1.014579	0.356950
C42	C	1.263390	-0.356934	0.356928
C43	C	1.345704	-0.356948	0.356945
C44	C	1.070271	-0.356885	0.550051
C45	C	1.070289	-0.356877	0.632365
C46	C	1.070312	-0.163742	0.356941
C47	C	1.070348	-0.081428	0.356964
C48	C	1.070228	-0.356869	0.164479
C49	C	1.070354	-0.356668	0.082165
C50	C	1.070333	-0.356738	0.931456
C51	C	1.012878	-0.413780	0.900104
C52	C	1.013033	-0.414045	0.814486
C53	C	1.070310	-0.356807	0.783074
C54	C	1.148340	-0.377998	0.814178
C55	C	1.148020	-0.378372	0.899823
C56	C	1.050437	-0.278379	0.899884
C57	C	1.048701	-0.278832	0.814233
C58	C	1.070303	-0.356845	0.699214
C59	C	1.070345	-0.356702	1.015316
H60	H	0.507144	-0.241388	0.313197
H61	H	0.635110	-0.452008	0.278859
H62	H	0.506441	-0.281216	0.454705
O63	O	0.641203	-0.222940	0.317435
H64	H	0.702521	-0.222974	0.317281
H65	H	0.633800	-0.312665	0.241639
O66	O	1.110407	-0.926697	0.222568
H67	H	1.158419	-0.958300	0.201242
O68	O	0.935997	-0.396393	0.927359
H69	H	0.935036	-0.398939	0.988616
H70	H	1.025884	-0.471508	0.921627
H71	H	1.185610	-0.793223	0.312946
O72	O	1.203842	-0.927807	0.316894
H73	H	1.201392	-0.964161	0.366198
H74	H	1.164885	-0.435654	0.919804
O75	O	1.105860	-0.222077	0.926744
H76	H	1.147378	-0.249721	0.962408
O77	O	1.167730	-0.925409	0.457090
H78	H	1.203764	-0.877007	0.468061
O79	O	0.976368	-0.252814	0.928463
H80	H	0.978151	-0.249587	0.989672
H81	H	1.052111	-0.919734	0.478868
O82	O	1.171076	-0.453067	0.785781
H83	H	1.130122	-0.494975	0.803842
O84	O	1.030435	-0.490999	0.787398
H85	H	1.081495	-0.489631	0.753496
O86	O	0.499209	-0.316572	0.223463
H87	H	0.462830	-0.365886	0.225812
H88	H	0.508038	-0.451397	0.277844
O89	O	0.972639	-0.257653	0.787306
H90	H	0.976223	-0.205752	0.754869
H91	H	1.192298	-0.337757	0.793834
H92	H	0.947517	-0.792186	0.373903
H93	H	1.192280	-0.338629	0.920566
O94	O	0.642023	-0.386812	0.494104
H95	H	0.594660	-0.414864	0.521101
O96	O	0.935548	-0.926063	0.392203
H97	H	0.892212	-0.958272	0.363100
H98	H	0.976366	-0.793299	0.277727
O99	O	0.500599	-0.493265	0.387698
H100	H	0.548499	-0.521748	0.413270
O101	O	1.100087	-0.219541	0.785923
H102	H	1.142022	-0.244837	0.749041
H103	H	0.634064	-0.478909	0.375728
H104	H	0.507775	-0.378999	0.477738
O105	O	0.640605	-0.259333	0.456197
H106	H	0.701894	-0.259189	0.458120
O107	O	1.110043	-0.785969	0.223032
H108	H	1.101355	-0.833703	0.185512
H109	H	1.051120	-0.793003	0.478857
H110	H	1.148052	-0.791859	0.452196
H111	H	0.972685	-0.920868	0.280981
H112	H	0.955171	-0.400783	0.793454
