data_functionalizedCrystal
_audit_creation_method	'MofGen! by Chris Wilmer'
_symmetry_space_group_name_H-M	'P1'
_symmetry_Int_Tables_number	1
_symmetry_cell_setting	triclinic
loop_
_symmetry_equiv_pos_as_xyz
  x,y,z
_cell_length_a	17.077404
_cell_length_b	18.215399
_cell_length_c	17.077402
_cell_angle_alpha	90.028745
_cell_angle_beta	89.979147
_cell_angle_gamma	89.981547
loop_
_atom_site_label
_atom_site_type_symbol
_atom_site_fract_x
_atom_site_fract_y
_atom_site_fract_z
Zn1	Zn	1.200055	-0.416085	0.312559
Zn2	Zn	1.199962	-0.293017	0.443831
Zn3	Zn	1.068787	-0.293035	0.312579
Zn4	Zn	1.068755	-0.416045	0.443782
O5	O	1.134390	-0.354545	0.378188
O6	O	1.309890	-0.399769	0.329985
O7	O	1.182536	-0.190035	0.426449
O8	O	1.086252	-0.309382	0.202729
O9	O	1.309821	-0.309351	0.426430
O10	O	1.182695	-0.399786	0.202714
O11	O	1.086162	-0.190048	0.330019
O12	O	0.958936	-0.309343	0.329971
O13	O	1.086198	-0.519034	0.426346
O14	O	0.958912	-0.399718	0.426365
O15	O	1.182664	-0.519064	0.329937
O16	O	1.182505	-0.309312	0.553672
O17	O	1.086108	-0.399700	0.553635
C18	C	0.930442	-0.354529	0.378165
C19	C	0.843192	-0.354539	0.378175
C20	C	0.802238	-0.401691	0.328045
C21	C	0.720258	-0.401695	0.328050
C22	C	0.679233	-0.354549	0.378189
C23	C	0.720192	-0.307392	0.428321
C24	C	0.802171	-0.307385	0.428312
C25	C	0.549322	-0.307410	0.428339
C26	C	0.467338	-0.307417	0.428350
C27	C	0.467409	-0.401720	0.328077
C28	C	0.549388	-0.401713	0.328068
C29	C	0.590342	-0.354556	0.378201
C30	C	1.134438	-0.546498	0.378133
C31	C	1.134458	-0.628297	0.378110
C32	C	1.184706	-0.816508	0.327863
C33	C	1.184715	-0.893367	0.327840
C34	C	1.084266	-0.893325	0.428236
C35	C	1.084253	-0.816467	0.428255
C36	C	1.134478	-0.778061	0.378069
C37	C	1.134500	-0.931777	0.378028
C38	C	1.134509	-1.015111	0.378004
C39	C	1.134467	-0.694722	0.378092
C40	C	1.339134	-0.354562	0.378211
C41	C	1.426384	-0.354569	0.378220
C42	C	1.134314	-0.354516	0.582136
C43	C	1.134354	-0.354528	0.669385
C44	C	1.134387	-0.163339	0.378185
C45	C	1.134519	-0.081541	0.377987
C46	C	1.134487	-0.354591	0.173443
C47	C	1.134529	-0.354610	0.086194
C48	C	1.184599	-0.307513	0.710368
C49	C	1.184637	-0.307532	0.792349
C50	C	1.134426	-0.354562	0.833345
C51	C	1.084178	-0.401582	0.792356
C52	C	1.084144	-0.401566	0.710377
C53	C	1.084251	-0.401610	0.963226
C54	C	1.084284	-0.401625	1.045211
C55	C	1.184744	-0.307576	1.045198
C56	C	1.184710	-0.307560	0.963219
C57	C	1.134461	-0.354579	0.922236
H58	H	0.582664	-0.269008	0.469161
H59	H	1.225600	-0.785239	0.286997
H60	H	1.043346	-0.785163	0.469138
O61	O	1.035553	-0.447361	0.923376
C62	C	1.024893	-0.546660	0.830711
C63	C	1.080132	-0.494910	0.875808
H64	H	1.060912	-0.585106	0.792229
H65	H	0.989020	-0.580331	0.874053
H66	H	0.983840	-0.512812	0.792423
H67	H	1.121232	-0.528702	0.914097
H68	H	1.115950	-0.461237	0.832423
H69	H	1.225483	-0.269213	0.676995
H70	H	1.225551	-0.269248	0.825713
H71	H	0.835515	-0.268988	0.469132
H72	H	1.225615	-0.924667	0.286956
H73	H	1.225592	-0.269261	0.929840
H74	H	1.043377	-0.924604	0.469097
H75	H	0.433937	-0.269028	0.469179
O76	O	0.427546	-0.447564	0.279484
C77	C	0.335076	-0.546982	0.269077
C78	C	0.380160	-0.495096	0.324190
H79	H	0.296766	-0.585435	0.305200
H80	H	0.296640	-0.513311	0.227996
H81	H	0.378497	-0.580645	0.233227
H82	H	0.336796	-0.461422	0.360090
H83	H	0.418608	-0.528809	0.365219
H84	H	1.225661	-0.269294	1.078570
O85	O	0.680597	-0.447568	0.279329
C86	C	0.689319	-0.541072	0.179839
C87	C	0.734332	-0.489169	0.234993
H88	H	0.732744	-0.574709	0.143967
H89	H	0.650965	-0.579543	0.215896
H90	H	0.650916	-0.507344	0.138783
H91	H	0.772777	-0.522838	0.276060
H92	H	0.772637	-0.450697	0.198887
H93	H	1.043412	-0.439935	1.078587
H94	H	1.043299	-0.439878	0.825741
H95	H	0.686783	-0.269001	0.469142
H96	H	0.582788	-0.440108	0.287244
O97	O	1.035448	-0.447313	0.670526
C98	C	1.024797	-0.546616	0.577866
C99	C	1.080032	-0.494861	0.622961
H100	H	1.060820	-0.585062	0.539387
H101	H	0.988926	-0.580288	0.621210
H102	H	0.983742	-0.512773	0.539576
H103	H	1.121134	-0.528648	0.661253
H104	H	1.115847	-0.461187	0.579576
O105	O	0.842123	-0.447568	0.279452
C106	C	0.934760	-0.546909	0.269014
C107	C	0.889629	-0.495012	0.324138
H108	H	0.973191	-0.585270	0.305120
H109	H	0.891439	-0.580664	0.233198
H110	H	0.973101	-0.513172	0.227903
H111	H	0.851286	-0.528692	0.365297
H112	H	0.932991	-0.461255	0.359899
