data_functionalizedCrystal
_audit_creation_method	'MofGen! by Chris Wilmer'
_symmetry_space_group_name_H-M	'P1'
_symmetry_Int_Tables_number	1
_symmetry_cell_setting	triclinic
loop_
_symmetry_equiv_pos_as_xyz
  x,y,z
_cell_length_a	23.532407
_cell_length_b	22.610064
_cell_length_c	23.532407
_cell_angle_alpha	89.999397
_cell_angle_beta	97.151288
_cell_angle_gamma	90.005499
loop_
_atom_site_label
_atom_site_type_symbol
_atom_site_fract_x
_atom_site_fract_y
_atom_site_fract_z
O1	O	0.755263	0.049153	-0.069127
O2	O	1.255263	0.549153	0.430873
O3	O	0.589400	0.049163	-0.079131
O4	O	1.089400	0.549163	0.420869
O5	O	0.677333	0.049147	0.008803
O6	O	1.177333	0.549147	0.508803
O7	O	0.667330	0.049169	-0.157061
O8	O	1.167330	0.549169	0.342939
O9	O	0.677318	-0.049222	0.008790
O10	O	1.177318	0.450778	0.508790
O11	O	0.589385	-0.049206	-0.079143
O12	O	1.089385	0.450794	0.420857
O13	O	0.755248	-0.049216	-0.069140
O14	O	1.255248	0.450784	0.430860
Zn15	Zn	0.672314	-0.064829	-0.074144
Zn16	Zn	1.172314	0.435171	0.425856
Zn17	Zn	0.672334	0.064777	-0.074127
Zn18	Zn	1.172334	0.564777	0.425873
O19	O	0.667315	-0.049200	-0.157074
O20	O	1.167315	0.450800	0.342926
C21	C	0.568176	-0.000020	-0.078882
C22	C	1.068176	0.499980	0.421118
C23	C	0.504959	-0.000017	-0.078116
C24	C	1.004959	0.499983	0.421884
C25	C	0.238792	-0.000040	-0.022921
C26	C	0.738792	0.499960	0.477079
C27	C	0.298192	-0.000040	-0.023632
C28	C	0.798192	0.499960	0.476368
O29	O	0.334937	-0.000066	0.020153
O30	O	0.834937	0.499934	0.520153
N31	N	0.320818	-0.000029	-0.075909
N32	N	0.820818	0.499971	0.424091
C33	C	0.284041	-0.000024	-0.127477
C34	C	0.784041	0.499976	0.372523
O35	O	0.308740	-0.000015	-0.172007
O36	O	0.808740	0.499985	0.327993
C37	C	0.224642	-0.000029	-0.126765
C38	C	0.724642	0.499971	0.373235
C39	C	0.202019	-0.000034	-0.074485
C40	C	0.702019	0.499966	0.425515
C41	C	0.216168	-0.000046	0.029354
C42	C	0.716168	0.499954	0.529354
C43	C	0.156772	-0.000045	0.030066
C44	C	0.656772	0.499955	0.530066
C45	C	0.119999	-0.000038	-0.021499
C46	C	0.619999	0.499962	0.478501
C47	C	0.142623	-0.000033	-0.073774
C48	C	0.642623	0.499967	0.426226
C49	C	0.187865	-0.000028	-0.178333
C50	C	0.687865	0.499972	0.321667
C51	C	0.128463	-0.000033	-0.177616
C52	C	0.628463	0.499967	0.322384
C53	C	0.105840	-0.000038	-0.125336
C54	C	0.605840	0.499962	0.374664
C55	C	0.046454	-0.000025	-0.124627
C56	C	0.546454	0.499975	0.375373
N57	N	0.023828	-0.000036	-0.072351
N58	N	0.523828	0.499964	0.427649
C59	C	0.060600	-0.000043	-0.020787
C60	C	0.560600	0.499957	0.479213
C61	C	0.408783	-0.000016	-0.128968
C62	C	0.908783	0.499984	0.371032
C63	C	0.468181	-0.000007	-0.129681
C64	C	0.968181	0.499993	0.370319
C65	C	0.482328	-0.000024	-0.025836
C66	C	0.982328	0.499976	0.474164
C67	C	0.422929	-0.000028	-0.025124
C68	C	0.922929	0.499972	0.474876
C69	C	0.386157	-0.000027	-0.076692
C70	C	0.886157	0.499973	0.423308
C71	C	-0.064136	-0.000041	-0.019297
C72	C	0.435864	0.499959	0.480703
C73	C	-0.123538	-0.000037	-0.018590
C74	C	0.376462	0.499963	0.481410
C75	C	-0.137680	-0.000024	-0.122435
C76	C	0.362320	0.499976	0.377565
C77	C	-0.078284	-0.000024	-0.123142
C78	C	0.421716	0.499976	0.376858
C79	C	-0.041512	-0.000034	-0.071568
C80	C	0.458488	0.499966	0.428432
O81	O	0.009675	-0.000001	-0.168390
O82	O	0.509675	0.499999	0.331610
O83	O	0.035892	-0.000060	0.023737
O84	O	0.535892	0.499940	0.523737
N85	N	0.672304	-0.153282	-0.074155
N86	N	1.172304	0.346718	0.425845
C87	C	0.711273	-0.561930	-0.035196
C88	C	1.211273	-0.061930	0.464804
C89	C	0.711276	-0.623850	-0.035192
C90	C	1.211276	-0.123850	0.464808
O91	O	0.744384	-0.655875	-0.002076
O92	O	1.244384	-0.155875	0.497924
N93	N	0.672334	-0.654819	-0.074115
N94	N	1.172334	-0.154819	0.425885
C95	C	0.633383	-0.623864	-0.113041
C96	C	1.133383	-0.123864	0.386959
O97	O	0.600259	-0.655891	-0.146148
O98	O	1.100259	-0.155891	0.353852
C99	C	0.633377	-0.561945	-0.113042
C100	C	1.133377	-0.061945	0.386958
C101	C	0.672326	-0.530980	-0.074120
C102	C	1.172326	-0.030980	0.425880
C103	C	0.750217	-0.530965	0.003723
C104	C	1.250217	-0.030965	0.503723
C105	C	0.750215	-0.469049	0.003718
C106	C	1.250215	0.030951	0.503718
C107	C	0.711268	-0.438099	-0.035206
C108	C	1.211268	0.061901	0.464794
C109	C	0.672323	-0.469064	-0.074125
C110	C	1.172323	0.030936	0.425875
C111	C	0.594424	-0.530992	-0.151965
C112	C	1.094424	-0.030992	0.348035
C113	C	0.594422	-0.469069	-0.151963
C114	C	1.094422	0.030931	0.348037
C115	C	0.633370	-0.438104	-0.113041
C116	C	1.133370	0.061896	0.386959
C117	C	0.633374	-0.376199	-0.113055
C118	C	1.133374	0.123801	0.386945
N119	N	0.672316	-0.345230	-0.074131
N120	N	1.172316	0.154770	0.425869
C121	C	0.711263	-0.376180	-0.035207
C122	C	1.211263	0.123820	0.464793
C123	C	0.633396	-0.753898	-0.113036
C124	C	1.133396	-0.253898	0.386964
C125	C	0.633403	-0.815816	-0.113038
C126	C	1.133403	-0.315816	0.386962
C127	C	0.711296	-0.815797	-0.035188
C128	C	1.211296	-0.315797	0.464812
C129	C	0.711291	-0.753878	-0.035189
C130	C	1.211291	-0.253878	0.464811
C131	C	0.672338	-0.722929	-0.074112
C132	C	1.172338	-0.222929	0.425888
C133	C	0.711255	-0.246153	-0.035221
C134	C	1.211255	0.253847	0.464779
C135	C	0.711251	-0.184232	-0.035231
C136	C	1.211251	0.315768	0.464769
C137	C	0.633357	-0.184256	-0.113079
C138	C	1.133357	0.315744	0.386921
C139	C	0.633363	-0.246171	-0.113071
C140	C	1.133363	0.253829	0.386929
C141	C	0.672314	-0.277118	-0.074137
C142	C	1.172314	0.222882	0.425863
O143	O	0.600281	-0.344134	-0.146152
O144	O	1.100281	0.155866	0.353848
O145	O	0.744376	-0.344146	-0.002101
O146	O	1.244376	0.155854	0.497899
C147	C	0.776472	-0.000031	-0.069389
C148	C	1.276472	0.499969	0.430611
C149	C	0.839689	-0.000031	-0.070155
C150	C	1.339689	0.499969	0.429845
C151	C	0.677071	-0.000039	0.030012
C152	C	1.177071	0.499961	0.530012
C153	C	0.676305	-0.000043	0.093229
C154	C	1.176305	0.499957	0.593229
N155	N	0.672349	0.153229	-0.074111
N156	N	1.172349	0.653229	0.425889
C157	C	0.667577	-0.000012	-0.178283
C158	C	1.167577	0.499988	0.321717
C159	C	0.668343	-0.000004	-0.241500
C160	C	1.168343	0.499996	0.258500
C161	C	0.723538	-0.000014	0.492332
C162	C	1.223538	0.499986	0.992332
C163	C	0.722827	-0.000009	0.551733
C164	C	1.222827	0.499991	1.051733
O165	O	0.766613	0.000010	0.588477
O166	O	1.266613	0.500010	1.088477
N167	N	0.670551	-0.000007	0.574359
N168	N	1.170551	0.499993	1.074359
C169	C	0.618982	-0.000002	0.537581
C170	C	1.118982	0.499998	1.037581
O171	O	0.574452	0.000001	0.562281
O172	O	1.074452	0.500001	1.062281
C173	C	0.619695	-0.000003	0.478182
C174	C	1.119695	0.499997	0.978182
C175	C	0.671974	-0.000011	0.455559
C176	C	1.171974	0.499989	0.955559
C177	C	0.775814	-0.000022	0.469709
C178	C	1.275814	0.499978	0.969709
C179	C	0.776525	-0.000028	0.410313
C180	C	1.276525	0.499972	0.910313
C181	C	0.724961	-0.000025	0.373540
C182	C	1.224961	0.499975	0.873540
C183	C	0.672685	-0.000017	0.396163
C184	C	1.172685	0.499983	0.896163
C185	C	0.568127	0.000006	0.441406
C186	C	1.068127	0.500006	0.941406
C187	C	0.568843	0.000006	0.382003
C188	C	1.068843	0.500006	0.882003
C189	C	0.621123	-0.000003	0.359381
C190	C	1.121123	0.499997	0.859381
C191	C	0.621832	-0.000020	0.299994
C192	C	1.121832	0.499980	0.799994
N193	N	0.674109	-0.000023	0.277368
N194	N	1.174109	0.499977	0.777368
C195	C	0.725673	-0.000025	0.314141
C196	C	1.225673	0.499975	0.814141
C197	C	0.617491	-0.000001	0.662324
C198	C	1.117491	0.499999	1.162324
C199	C	0.616778	-0.000005	0.721722
C200	C	1.116778	0.499995	1.221722
C201	C	0.720623	-0.000011	0.735869
C202	C	1.220623	0.499989	1.235869
C203	C	0.721335	-0.000011	0.676470
C204	C	1.221335	0.499989	1.176470
C205	C	0.669767	-0.000003	0.639698
C206	C	1.169767	0.499997	1.139698
C207	C	0.727163	-0.000038	0.189404
C208	C	1.227163	0.499962	0.689404
C209	C	0.727869	-0.000046	0.130002
C210	C	1.227869	0.499954	0.630002
C211	C	0.624025	-0.000037	0.115860
C212	C	1.124025	0.499963	0.615860
C213	C	0.623318	-0.000032	0.175257
C214	C	1.123318	0.499968	0.675257
C215	C	0.674891	-0.000030	0.212028
C216	C	1.174891	0.499970	0.712028
O217	O	0.578069	-0.000037	0.263215
O218	O	1.078069	0.499963	0.763215
O219	O	0.770196	-0.000021	0.289433
O220	O	1.270196	0.499979	0.789433
H221	H	-0.141954	-0.000040	0.023984
H222	H	0.358046	0.499960	0.523984
H223	H	0.486595	0.000005	-0.172252
H224	H	0.986595	0.500005	0.327748
H225	H	0.601694	-0.841023	-0.144738
H226	H	1.101694	-0.341023	0.355262
Cl227	Cl	-0.049843	-0.000010	-0.188865
Cl228	Cl	0.450157	0.499990	0.311135
H229	H	0.819097	-0.000032	0.391900
H230	H	1.319097	0.499968	0.891900
H231	H	0.574207	-0.000008	0.740135
H232	H	1.074207	0.499992	1.240135
H233	H	0.098525	-0.000034	-0.219610
H234	H	0.598525	0.499966	0.280390
Cl235	Cl	0.760255	-0.714957	0.013745
Cl236	Cl	1.260255	-0.214957	0.513745
Cl237	Cl	0.394496	-0.000038	0.040601
Cl238	Cl	0.894496	0.499962	0.540601
H239	H	0.575496	0.000000	0.632386
H240	H	1.075496	0.500000	1.132386
H241	H	0.525555	0.000017	0.459814
H242	H	1.025555	0.500017	0.959814
Cl243	Cl	0.216290	-0.000022	-0.244060
Cl244	Cl	0.716290	0.499978	0.255940
Cl245	Cl	-0.183920	-0.000013	-0.187255
Cl246	Cl	0.316080	0.499987	0.312745
H247	H	0.512280	-0.000029	0.016150
H248	H	1.012280	0.499971	0.516150
Cl249	Cl	0.584404	-0.285098	-0.162009
Cl250	Cl	1.084404	0.214902	0.337991
Cl251	Cl	0.760225	-0.285048	0.013724
Cl252	Cl	1.260225	0.214952	0.513724
H253	H	0.781929	-0.443841	0.035413
H254	H	1.281929	0.056159	0.535413
Cl255	Cl	-0.017919	-0.000052	0.045539
Cl256	Cl	0.482081	0.499948	0.545539
H257	H	0.601677	-0.728702	-0.144737
H258	H	1.101677	-0.228702	0.355263
H259	H	0.763906	-0.000018	0.658055
H260	H	1.263906	0.499982	1.158055
H261	H	0.769159	-0.000034	0.219337
H262	H	1.269159	0.499966	0.719337
H263	H	0.601648	-0.159046	-0.144772
H264	H	1.101648	0.340954	0.355228
Cl265	Cl	0.760219	-0.145307	0.013702
Cl266	Cl	1.260219	0.354693	0.513702
Cl267	Cl	0.545457	-0.569908	-0.200896
Cl268	Cl	1.045457	-0.069908	0.299104
Cl269	Cl	0.840647	-0.000026	0.515928
Cl270	Cl	1.340647	0.499974	1.015928
H271	H	0.580747	-0.000041	0.193677
H272	H	1.080747	0.499959	0.693677
Cl273	Cl	0.793597	-0.000056	0.101567
Cl274	Cl	1.293597	0.499944	0.601567
Cl275	Cl	0.504011	0.000016	0.335778
Cl276	Cl	1.004011	0.500016	0.835778
H277	H	0.743008	-0.841008	-0.003493
H278	H	1.243008	-0.341008	0.496507
Cl279	Cl	0.559205	-0.000032	0.069621
Cl280	Cl	1.059205	0.499968	0.569621
Cl281	Cl	0.799186	-0.569863	0.052663
Cl282	Cl	1.299186	-0.069863	0.552663
H283	H	0.138359	-0.000052	0.072637
H284	H	0.638359	0.499948	0.572637
H285	H	0.246104	-0.000053	0.071347
H286	H	0.746104	0.499947	0.571347
H287	H	0.378846	-0.000010	-0.170964
H288	H	0.878846	0.499990	0.329036
Cl289	Cl	0.545448	-0.430166	-0.200898
Cl290	Cl	1.045448	0.069834	0.299102
H291	H	0.762610	-0.000010	0.765821
H292	H	1.262610	0.499990	1.265821
