data_functionalizedCrystal
_audit_creation_method	'MofGen! by Chris Wilmer'
_symmetry_space_group_name_H-M	'P1'
_symmetry_Int_Tables_number	1
_symmetry_cell_setting	triclinic
loop_
_symmetry_equiv_pos_as_xyz
  x,y,z
_cell_length_a	20.016444
_cell_length_b	14.560438
_cell_length_c	14.560438
_cell_angle_alpha	60.006590
_cell_angle_beta	90.001790
_cell_angle_gamma	59.999440
loop_
_atom_site_label
_atom_site_type_symbol
_atom_site_fract_x
_atom_site_fract_y
_atom_site_fract_z
Zr1	Zr	0.643636	1.005160	-0.120334
O2	O	0.536965	1.196750	-0.266961
O3	O	0.676333	0.813574	-0.075405
O4	O	0.676338	1.005159	-0.266979
O5	O	0.536959	1.005165	0.075753
O6	O	0.786283	1.005154	-0.266972
O7	O	0.536959	1.005166	-0.075386
O8	O	0.786273	0.662443	0.075720
O9	O	0.536969	1.347876	-0.266939
O10	O	0.772332	0.892371	-0.056214
O11	O	0.690282	0.892375	0.056574
O12	O	0.690289	1.117941	-0.168980
O13	O	0.608238	1.117945	-0.056192
Zr14	Zr	0.818985	1.005152	0.120728
Zr15	Zr	0.818985	1.005152	-0.120322
Zr16	Zr	0.643636	1.005160	0.120716
Zr17	Zr	0.643643	1.246188	-0.120299
Zr18	Zr	0.818978	0.764124	0.120692
O19	O	0.786288	1.196738	0.075798
O20	O	0.786288	1.196738	-0.266944
O21	O	0.536965	1.196750	0.075782
O22	O	0.925656	0.813562	0.267354
O23	O	0.925656	0.813562	-0.075388
O24	O	0.676333	0.813574	0.267337
O25	O	0.925662	1.005147	-0.075360
O26	O	0.786283	1.005153	0.267373
O27	O	0.676338	1.005159	0.267366
O28	O	0.925661	1.005147	0.075780
O29	O	0.676348	1.347869	-0.266929
O30	O	0.786273	0.662443	0.267323
O31	O	0.925652	0.662436	0.267332
O32	O	0.925652	0.662436	0.075729
O33	O	0.536969	1.347876	-0.075336
O34	O	0.676348	1.347869	-0.075326
O35	O	0.772332	0.892371	0.169374
O36	O	0.854383	0.892367	0.056585
O37	O	0.772339	1.117937	-0.056181
O38	O	0.690289	1.117941	0.056607
C39	C	0.731302	0.703667	0.000153
C40	C	0.731299	0.601345	0.000138
C41	C	0.670734	0.636474	-0.083088
C42	C	0.670747	0.540285	-0.083031
C43	C	0.791893	0.373838	0.083486
C44	C	0.791882	0.470026	0.083424
C45	C	0.600790	0.732571	-0.179222
C46	C	0.600803	0.636382	-0.179166
C47	C	0.511976	1.005167	0.000182
C48	C	0.437536	1.005170	0.000177
C49	C	0.266280	1.005155	-0.083071
C50	C	0.196340	1.005147	-0.083063
C51	C	0.196347	1.005153	0.083472
C52	C	0.266289	1.005152	0.083468
C53	C	0.301252	1.005160	0.000191
C54	C	0.161369	1.005153	0.000203
C55	C	0.085537	1.005144	0.000211
C56	C	0.377090	1.005166	0.000183
C57	C	0.950645	1.005146	0.000212
C58	C	1.025085	1.005142	0.000217
C59	C	0.731311	1.005156	-0.301320
C60	C	0.731311	1.005156	-0.403652
C61	C	0.731319	1.306645	0.000241
C62	C	0.731322	1.408967	0.000256
C63	C	0.688486	1.122903	-0.606746
C64	C	0.688483	1.122904	-0.510594
C65	C	0.774136	0.887400	-0.392863
C66	C	0.774134	0.887401	-0.489013
C67	C	0.639038	1.258869	-0.674716
C68	C	0.639035	1.258870	-0.578565
C69	C	0.731310	1.005156	0.301714
C70	C	0.731310	1.005156	0.404046
C71	C	0.950636	0.703657	0.000167
C72	C	1.025073	0.601331	0.000157
C73	C	0.731302	0.703667	0.301670
C74	C	0.731299	0.601345	0.403987
C75	C	0.950636	0.703657	0.301684
C76	C	1.025073	0.601330	0.404006
C77	C	0.511985	1.306656	-0.301291
C78	C	0.437548	1.408982	-0.403613
C79	C	0.511985	1.306656	0.000226
C80	C	0.437548	1.408982	0.000236
C81	C	0.731319	1.306645	-0.301276
C82	C	0.731322	1.408968	-0.403593
C83	C	1.017200	0.553279	-0.058737
C84	C	1.087135	0.457146	-0.058769
C85	C	1.164942	0.409060	0.000101
C86	C	1.172814	0.457121	0.058997
C87	C	1.102880	0.553258	0.059022
C88	C	1.102866	0.553275	0.393184
C89	C	1.172815	0.457142	0.489317
C90	C	1.164968	0.409060	0.596272
C91	C	1.087167	0.457125	0.607093
C92	C	1.017220	0.553262	0.510960
C93	C	0.359754	1.457049	-0.392790
C94	C	0.289806	1.553212	-0.488924
C95	C	0.297653	1.601299	-0.595878
C96	C	0.375454	1.553228	-0.606699
C97	C	0.445401	1.457073	-0.510567
C98	C	0.445421	1.457043	0.059121
C99	C	0.375486	1.553203	0.059126
C100	C	0.297679	1.601292	0.000253
C101	C	0.289807	1.553227	-0.058639
C102	C	0.359741	1.457076	-0.058651
C103	C	0.774128	0.553266	0.510936
C104	C	0.774119	0.457128	0.607069
C105	C	0.688450	0.457152	0.489292
C106	C	0.688455	0.553295	0.393160
C107	C	0.823591	0.553248	0.578934
C108	C	0.823582	0.457110	0.675068
H109	H	0.613023	0.636348	-0.255622
H110	H	1.221880	0.330777	0.000073
H111	H	0.167873	1.005150	0.151274
C112	C	0.525641	0.813204	-0.156553
H113	H	0.492180	0.782556	-0.146421
H114	H	0.543197	0.804908	-0.090579
H115	H	0.495174	0.901901	-0.218691
C116	C	0.304764	1.005158	0.175058
H117	H	0.351431	1.005144	0.163133
H118	H	0.265908	1.080485	0.171616
H119	H	0.320705	0.929822	0.246933
C120	C	0.683121	1.315851	-0.743502
H121	H	0.681622	1.313897	-0.807688
H122	H	0.656542	1.403031	-0.766941
H123	H	0.738406	1.265750	-0.698311
C124	C	0.351071	1.404202	-0.123412
H125	H	0.294715	1.446610	-0.158458
H126	H	0.376572	1.419943	-0.179130
H127	H	0.376564	1.313431	-0.072590
H128	H	1.109301	0.592370	0.106988
H129	H	0.240741	1.679585	0.000271
H130	H	0.240691	1.679594	-0.674146
H131	H	0.381834	1.592393	-0.693793
H132	H	0.666550	1.311070	-0.578564
H133	H	0.575708	1.301080	-0.569846
C134	C	0.157875	1.005130	-0.174642
H135	H	0.111219	1.005111	-0.162707
H136	H	0.141935	1.080451	-0.246519
H137	H	0.196745	0.929788	-0.171181
H138	H	1.109271	0.592409	0.306104
C139	C	0.821241	0.757880	-0.477141
H140	H	0.846752	0.687754	-0.399680
H141	H	0.784275	0.752985	-0.512206
H142	H	0.861776	0.752985	-0.512196
H143	H	0.226464	1.592335	-0.480091
C144	C	0.821237	0.757881	-0.275231
H145	H	0.815107	0.774742	-0.219511
H146	H	0.800081	0.709508	-0.266811
H147	H	0.877588	0.709493	-0.266794
C148	C	0.530969	1.404194	-0.522486
H149	H	0.525617	1.446601	-0.599954
H150	H	0.560052	1.419932	-0.487425
H151	H	0.560023	1.313423	-0.487450
C152	C	0.204218	1.606125	-0.123385
H153	H	0.163701	1.670260	-0.114927
H154	H	0.198067	1.643638	-0.200845
H155	H	0.198076	1.537104	-0.094304
H156	H	0.573549	1.311079	-0.726909
H157	H	1.080710	0.418027	-0.106730
H158	H	0.508769	1.417896	0.107070
C159	C	0.520126	0.650962	-0.167915
H160	H	0.486941	0.722224	-0.163316
H161	H	0.491966	0.665927	-0.231692
H162	H	0.531707	0.573721	-0.101769
C163	C	1.258385	0.404275	0.477395
H164	H	1.253034	0.446668	0.399926
H165	H	1.287459	0.420037	0.512441
H166	H	1.287448	0.313500	0.512445
C167	C	0.931622	0.606164	-0.123507
H168	H	0.936961	0.563778	-0.158593
H169	H	0.902551	0.590407	-0.072699
H170	H	0.902563	0.696940	-0.179213
H171	H	0.841206	0.441412	0.151184
H172	H	1.221930	0.330778	0.674540
H173	H	0.796085	0.643253	0.578963
H174	H	0.653570	0.592449	0.306080
H175	H	0.653567	0.418019	0.480491
H176	H	0.841217	0.266910	0.151294
C177	C	1.258403	0.404206	0.123760
H178	H	1.298920	0.340058	0.115315
H179	H	1.264558	0.473206	0.094712
H180	H	1.264541	0.366677	0.201223
C181	C	0.384159	1.606045	0.123922
H182	H	0.440515	1.563611	0.158997
H183	H	0.358670	1.696811	0.073127
H184	H	0.358653	1.590283	0.179639
H185	H	0.886913	0.517114	0.570205
H186	H	0.294746	1.005159	-0.150879
C187	C	0.351111	1.404171	-0.275150
H188	H	0.403906	1.340011	-0.219436
H189	H	0.322057	1.473193	-0.266708
H190	H	0.322043	1.366669	-0.266726
H191	H	0.790954	0.493240	0.725994
H192	H	1.080790	0.417962	0.694188
H193	H	0.953880	0.592377	0.519788
H194	H	0.889068	0.367091	0.727258
H195	H	0.606810	0.795545	-0.261353
