data_functionalizedCrystal
_audit_creation_method	'MofGen! by Chris Wilmer'
_symmetry_space_group_name_H-M	'P1'
_symmetry_Int_Tables_number	1
_symmetry_cell_setting	triclinic
loop_
_symmetry_equiv_pos_as_xyz
  x,y,z
_cell_length_a	13.032721
_cell_length_b	12.759401
_cell_length_c	12.759393
_cell_angle_alpha	90.021921
_cell_angle_beta	97.147972
_cell_angle_gamma	82.799494
loop_
_atom_site_label
_atom_site_type_symbol
_atom_site_fract_x
_atom_site_fract_y
_atom_site_fract_z
Zn1	Zn	-0.416084	-1.553083	-0.647172
Zn2	Zn	-0.590865	-1.530641	-0.493795
Zn3	Zn	-0.416126	-1.377379	-0.471507
Zn4	Zn	-0.590771	-1.355050	-0.669414
O5	O	-0.503462	-1.454038	-0.570472
O6	O	-0.439291	-1.697124	-0.626846
O7	O	-0.567742	-1.510264	-0.343825
O8	O	-0.269885	-1.419424	-0.476173
O9	O	-0.567702	-1.680637	-0.514161
O10	O	-0.269854	-1.548512	-0.605234
O11	O	-0.439362	-1.397663	-0.327449
O12	O	-0.439272	-1.227399	-0.497740
O13	O	-0.567542	-1.381366	-0.813478
O14	O	-0.567583	-1.210993	-0.643142
O15	O	-0.439200	-1.526860	-0.797137
O16	O	-0.737088	-1.488612	-0.535727
O17	O	-0.737019	-1.359605	-0.664754
C18	C	-0.503422	-1.181076	-0.570436
C19	C	-0.503431	-1.064298	-0.570449
C20	C	-0.436528	-1.017959	-0.494848
C21	C	-0.436547	-0.908233	-0.494859
C22	C	-0.570372	-0.891194	-0.646083
C23	C	-0.570358	-1.000917	-0.646066
C24	C	-0.399082	-0.763008	-0.366259
C25	C	-0.332164	-0.716667	-0.290665
C26	C	-0.230174	-0.765310	-0.261693
C27	C	-0.195081	-0.860293	-0.308328
C28	C	-0.261994	-0.906628	-0.383930
C29	C	-0.363999	-0.857986	-0.412883
C30	C	-0.607812	-1.146146	-0.774666
C31	C	-0.674720	-1.192484	-0.850273
C32	C	-0.776712	-1.143844	-0.879256
C33	C	-0.811801	-1.048857	-0.832639
C34	C	-0.744892	-1.002519	-0.757032
C35	C	-0.642902	-1.051167	-0.728047
C36	C	-0.774971	-1.419279	-0.605096
C37	C	-0.891124	-1.404505	-0.619943
C38	C	-0.942908	-1.461805	-0.562770
C39	C	-1.062958	-1.446536	-0.578114
C40	C	-0.230892	-1.488962	-0.535736
C41	C	-0.114739	-1.503844	-0.520934
C42	C	-0.503356	-1.454125	-0.844492
C43	C	-0.503311	-1.454162	-0.961263
C44	C	-0.503488	-0.728068	-0.570497
C45	C	-0.503463	-0.844848	-0.570478
C46	C	-0.436452	-1.395556	-1.007596
C47	C	-0.436419	-1.395585	-1.117316
C48	C	-0.570109	-1.512834	-1.134360
C49	C	-0.570146	-1.512798	-1.024643
C50	C	-0.399011	-1.276515	-1.262488
C51	C	-0.332135	-1.217921	-1.308823
C52	C	-0.230178	-1.214846	-1.260223
C53	C	-0.195075	-1.270383	-1.165286
C54	C	-0.261946	-1.328986	-1.118956
C55	C	-0.363918	-1.332039	-1.167557
C56	C	-0.607543	-1.631871	-0.879468
C57	C	-0.674409	-1.690481	-0.833135
C58	C	-0.776368	-1.693566	-0.881734
C59	C	-0.811467	-1.638047	-0.976673
C60	C	-0.744601	-1.579438	-1.023006
C61	C	-0.642643	-1.576351	-0.974400
C62	C	-0.503492	-1.454022	-0.297508
C63	C	-0.503242	-1.454226	-0.180701
H64	H	-0.894848	-1.009248	-0.856245
O65	O	-1.121940	-1.366576	-0.658009
H66	H	-1.101122	-1.286760	-0.637274
H67	H	-0.645818	-1.735699	-0.755837
O68	O	-0.950122	-1.324546	-0.699824
H69	H	-0.929167	-1.345168	-0.779641
H70	H	-0.382031	-1.347811	-0.955995
O71	O	-0.883922	-1.541785	-0.482904
H72	H	-0.798886	-1.541233	-0.483392
H73	H	-0.646133	-1.269814	-0.888250
O74	O	-0.642190	-1.576082	-1.202715
H75	H	-0.595412	-1.635553	-1.246742
O76	O	-1.055751	-1.583810	-0.441048
H77	H	-1.111948	-1.623466	-0.401509
O78	O	-0.158067	-1.151630	-1.310205
H79	H	-0.088634	-1.204979	-1.328187
O80	O	-0.224103	-1.388886	-1.016569
H81	H	-0.141967	-1.376906	-0.990553
H82	H	-0.112047	-1.267886	-1.125728
O83	O	-0.782456	-1.519538	-1.125397
H84	H	-0.864593	-1.531517	-1.151405
H85	H	-0.360725	-1.172701	-1.386122
O86	O	-0.508989	-1.279823	-1.314901
H87	H	-0.522151	-1.231375	-1.388703
O88	O	-0.848470	-1.756827	-0.831785
H89	H	-0.925259	-1.749657	-0.881545
O90	O	-0.921442	-1.641358	-1.029097
H91	H	-0.962045	-1.691428	-0.980923
O92	O	-0.497565	-1.628544	-0.827054
H93	H	-0.484386	-1.677012	-0.753264
H94	H	-0.382030	-1.069562	-0.433277
H95	H	-0.233419	-0.983956	-0.421907
H96	H	-0.112027	-0.899887	-0.284739
O97	O	-0.157999	-0.715344	-0.180147
H98	H	-0.199536	-0.641134	-0.152581
H99	H	-0.360746	-0.639330	-0.252696
H100	H	-0.624861	-0.839576	-0.707649
O101	O	-0.509099	-0.710562	-0.397504
H102	H	-0.506990	-0.630546	-0.430627
O103	O	-0.782737	-0.900078	-0.706732
H104	H	-0.864904	-0.874041	-0.739577
H105	H	-0.524764	-1.185764	-0.751065
O106	O	-0.848883	-1.193817	-0.960807
H107	H	-0.807354	-1.268039	-0.988360
