data_functionalizedCrystal
_audit_creation_method	'MofGen! by Chris Wilmer'
_symmetry_space_group_name_H-M	'P1'
_symmetry_Int_Tables_number	1
_symmetry_cell_setting	triclinic
loop_
_symmetry_equiv_pos_as_xyz
  x,y,z
_cell_length_a	10.654550
_cell_length_b	16.109301
_cell_length_c	9.730223
_cell_angle_alpha	89.997247
_cell_angle_beta	89.996251
_cell_angle_gamma	83.973192
loop_
_atom_site_label
_atom_site_type_symbol
_atom_site_fract_x
_atom_site_fract_y
_atom_site_fract_z
O1	O	1.666250	0.116770	-0.114408
O2	O	1.300620	0.127896	-0.114386
O3	O	1.493479	0.001362	-0.114384
O4	O	1.473391	0.243304	-0.114410
O5	O	1.493477	0.001365	0.114196
O6	O	1.300618	0.127899	0.114194
O7	O	1.666248	0.116773	0.114172
Zn8	Zn	1.483433	0.122337	0.150475
Zn9	Zn	1.483436	0.122332	-0.150689
O10	O	1.473389	0.243307	0.114170
C11	C	1.253832	0.127080	-0.000093
C12	C	1.114422	0.124636	-0.000085
C13	C	1.033926	0.199138	-0.000113
C14	C	0.902936	0.196836	-0.000136
C15	C	0.932952	0.045526	-0.000109
C16	C	1.063939	0.047828	-0.000076
C17	C	1.016595	0.286496	-0.000135
C18	C	0.885606	0.284194	-0.000158
C19	C	1.492665	-0.029616	-0.000093
C20	C	1.490225	-0.121926	-0.000091
C21	C	1.598991	-0.343552	-0.000119
C22	C	1.596689	-0.430286	-0.000130
C23	C	1.367868	-0.411772	-0.000111
C24	C	1.370172	-0.325040	-0.000110
C25	C	1.485737	-0.290932	-0.000107
C26	C	1.481131	-0.464399	-0.000119
C27	C	1.478634	-0.558440	-0.000131
C28	C	1.488234	-0.196885	-0.000097
C29	C	1.713036	0.117589	-0.000124
C30	C	1.852446	0.120033	-0.000141
C31	C	1.474204	0.274286	-0.000124
C32	C	1.476643	0.366595	-0.000135
N33	N	1.483440	0.122339	0.356011
N34	N	1.483438	0.122324	-0.356225
C35	C	1.568859	0.066329	0.427939
C36	C	1.568856	0.066319	0.571822
C37	C	1.398010	0.178336	0.571837
C38	C	1.398008	0.178342	0.427957
C39	C	1.667500	0.001659	0.427931
C40	C	1.667497	0.001649	0.571814
H41	H	1.051874	0.314310	-0.098825
H42	H	1.693091	-0.315785	-0.000119
H43	H	1.328442	0.223942	0.369395
Cl44	Cl	0.814527	0.324958	0.152190
H45	H	0.843427	0.317108	-0.095829
H46	H	1.763815	0.015894	0.610857
Cl47	Cl	1.222595	-0.454657	-0.000115
H48	H	1.129476	-0.012838	-0.000033
H49	H	1.045462	0.320662	0.095527
Cl50	Cl	1.635731	-0.096999	0.367636
Cl51	Cl	1.290615	0.248736	0.662292
H52	H	1.637803	-0.058740	0.616438
H53	H	1.688912	-0.473126	-0.000143
H54	H	0.891833	-0.017009	-0.000123
H55	H	1.277941	-0.282194	-0.000104
H56	H	1.758409	0.021908	0.383296
