data_functionalizedCrystal
_audit_creation_method	'MofGen! by Chris Wilmer'
_symmetry_space_group_name_H-M	'P1'
_symmetry_Int_Tables_number	1
_symmetry_cell_setting	triclinic
loop_
_symmetry_equiv_pos_as_xyz
  x,y,z
_cell_length_a	29.839133
_cell_length_b	18.215407
_cell_length_c	18.215399
_cell_angle_alpha	89.982632
_cell_angle_beta	89.979424
_cell_angle_gamma	90.027045
loop_
_atom_site_label
_atom_site_type_symbol
_atom_site_fract_x
_atom_site_fract_y
_atom_site_fract_z
Zn1	Zn	-0.178889	1.125048	-0.416105
Zn2	Zn	-0.254018	1.124946	-0.293055
Zn3	Zn	-0.178899	1.001980	-0.293058
Zn4	Zn	-0.253989	1.001936	-0.416085
O5	O	-0.216449	1.063478	-0.354576
O6	O	-0.188862	1.228019	-0.399789
O7	O	-0.244070	1.108610	-0.190071
O8	O	-0.116031	1.018367	-0.309390
O9	O	-0.244059	1.227944	-0.309385
O10	O	-0.116023	1.108784	-0.399792
O11	O	-0.188881	1.018268	-0.190073
O12	O	-0.188852	0.898990	-0.309370
O13	O	-0.244010	1.018291	-0.519072
O14	O	-0.244020	0.898958	-0.399758
O15	O	-0.188834	1.108741	-0.519087
O16	O	-0.316881	1.108567	-0.309365
O17	O	-0.316860	1.018193	-0.399755
C18	C	-0.216435	0.872271	-0.354563
C19	C	-0.216440	0.790472	-0.354575
C20	C	-0.187758	0.602316	-0.401723
C21	C	-0.187762	0.525458	-0.401725
C22	C	-0.245152	0.525391	-0.307441
C23	C	-0.245146	0.602248	-0.307436
C24	C	-0.216449	0.640709	-0.354581
C25	C	-0.216459	0.486993	-0.354589
C26	C	-0.216464	0.403659	-0.354591
C27	C	-0.216444	0.724048	-0.354578
C28	C	-0.333171	1.063384	-0.354574
C29	C	-0.383106	1.063412	-0.354597
C30	C	-0.739654	1.110585	-0.401702
C31	C	-0.551981	1.110515	-0.401701
O32	O	-0.527683	1.150528	-0.441741
N33	N	-0.528551	1.063470	-0.354596
C34	C	-0.552042	1.016442	-0.307483
O35	O	-0.527807	0.976430	-0.267412
C36	C	-0.739714	1.016516	-0.307481
C37	C	-0.763142	1.063559	-0.354595
C38	C	-0.763081	1.157625	-0.448812
C39	C	-0.809997	1.157639	-0.448814
C40	C	-0.833485	1.110613	-0.401707
C41	C	-0.810057	1.063573	-0.354598
C42	C	-0.763205	0.969492	-0.260365
C43	C	-0.810126	0.969516	-0.260368
C44	C	-0.833553	1.016559	-0.307482
C45	C	-0.880461	1.016561	-0.307493
N46	N	-0.903890	1.063607	-0.354599
C47	C	-0.880402	1.110633	-0.401706
C48	C	-0.453511	1.016405	-0.307489
C49	C	-0.406594	1.016386	-0.307490
C50	C	-0.406535	1.110460	-0.401707
C51	C	-0.453454	1.110476	-0.401709
C52	C	-0.476941	1.063451	-0.354595
C53	C	-0.978928	1.110658	-0.401708
C54	C	-1.025848	1.110666	-0.401709
C55	C	-1.025902	1.016594	-0.307489
C56	C	-0.978986	1.016583	-0.307491
C57	C	-0.955501	1.063621	-0.354603
O58	O	-0.904787	0.976575	-0.267469
O59	O	-0.904645	1.150649	-0.441760
C60	C	-0.692738	1.110571	-0.401700
C61	C	-0.669311	1.063531	-0.354590
C62	C	-0.692799	1.016505	-0.307483
C63	C	-0.622393	1.063511	-0.354591
C64	C	-0.598905	1.110537	-0.401698
C65	C	-0.622335	1.157583	-0.448804
C66	C	-0.669250	1.157597	-0.448807
C67	C	-0.669369	0.969459	-0.260377
C68	C	-0.622453	0.969448	-0.260379
C69	C	-0.598965	1.016474	-0.307486
C70	C	-0.099270	1.063591	-0.354594
C71	C	-0.049336	1.063640	-0.354602
C72	C	-0.216418	1.063522	-0.546529
C73	C	-0.216404	1.063542	-0.628328
C74	C	-0.216463	1.255430	-0.354589
C75	C	-0.216469	1.337229	-0.354595
C76	C	-0.187648	1.110656	-0.816531
C77	C	-0.187634	1.110664	-0.893389
C78	C	-0.245092	1.016480	-0.893363
C79	C	-0.245102	1.016468	-0.816505
C80	C	-0.216381	1.063560	-0.778091
C81	C	-0.216357	1.063581	-0.931807
C82	C	-0.216343	1.063590	-1.015141
C83	C	-0.216394	1.063550	-0.694752
C84	C	-0.216447	1.063475	-0.163369
C85	C	-0.216334	1.063599	-0.081571
H86	H	-0.164390	0.633629	-0.440109
H87	H	-0.164397	0.494202	-0.440112
H88	H	-0.744137	0.931185	-0.222001
H89	H	-0.268516	0.494067	-0.269059
H90	H	-0.164259	1.148999	-0.785256
H91	H	-0.164236	1.149013	-0.924683
H92	H	-0.268477	0.978140	-0.924649
H93	H	-1.045034	0.978305	-0.269137
H94	H	-0.268500	0.978111	-0.785207
H95	H	-0.268510	0.633508	-0.269043
H96	H	-1.044920	1.148973	-0.440079
H97	H	-0.959812	1.148962	-0.440070
H98	H	-0.829067	1.195952	-0.487174
H99	H	-0.743961	1.195922	-0.487172
H100	H	-0.472526	1.148779	-0.440077
H101	H	-0.688488	0.931165	-0.222015
H102	H	-0.387404	1.148750	-0.440065
H103	H	-0.688321	1.195904	-0.487173
H104	H	-0.387522	0.978070	-0.269134
H105	H	-0.472630	0.978109	-0.269120
H106	H	-0.829246	0.931222	-0.222000
H107	H	-0.959911	0.978269	-0.269134
H108	H	-0.603203	1.195871	-0.487163
H109	H	-0.603382	0.931133	-0.222015
