data_functionalizedCrystal
_audit_creation_method	'MofGen! by Chris Wilmer'
_symmetry_space_group_name_H-M	'P1'
_symmetry_Int_Tables_number	1
_symmetry_cell_setting	triclinic
loop_
_symmetry_equiv_pos_as_xyz
  x,y,z
_cell_length_a	12.759401
_cell_length_b	12.759399
_cell_length_c	12.759393
_cell_angle_alpha	89.969094
_cell_angle_beta	90.020183
_cell_angle_gamma	89.985240
loop_
_atom_site_label
_atom_site_type_symbol
_atom_site_fract_x
_atom_site_fract_y
_atom_site_fract_z
Zn1	Zn	1.606263	0.418225	0.593996
Zn2	Zn	1.606153	0.593941	0.418315
Zn3	Zn	1.430562	0.418276	0.418333
Zn4	Zn	1.430553	0.593862	0.593954
O5	O	1.518383	0.506076	0.506150
O6	O	1.753270	0.441547	0.570701
O7	O	1.582818	0.570693	0.271296
O8	O	1.453919	0.271248	0.441661
O9	O	1.753189	0.570644	0.441629
O10	O	1.583006	0.271211	0.570719
O11	O	1.453812	0.441632	0.271310
O12	O	1.283540	0.441555	0.441620
O13	O	1.453903	0.570509	0.740981
O14	O	1.283533	0.570558	0.570648
O15	O	1.582997	0.441470	0.741012
O16	O	1.582809	0.740952	0.441589
O17	O	1.453796	0.740893	0.570630
C18	C	1.245415	0.506054	0.506132
C19	C	1.128639	0.506070	0.506150
C20	C	0.964025	0.438833	0.439094
C21	C	1.073749	0.438811	0.439083
C22	C	1.073799	0.573348	0.573239
C23	C	0.964077	0.573364	0.573254
C24	C	0.909140	0.371577	0.372015
C25	C	0.963972	0.304297	0.304928
C26	C	1.073696	0.304275	0.304917
C27	C	1.128588	0.371533	0.371995
C28	C	1.518318	0.779043	0.506126
C29	C	1.518387	0.895820	0.506151
C30	C	1.518461	0.505975	0.780183
C31	C	1.518495	0.505932	0.896960
C32	C	1.792416	0.506099	0.506168
C33	C	1.909193	0.506108	0.506175
C34	C	1.518476	0.232043	0.506197
C35	C	1.518516	0.115266	0.506217
C36	C	1.585641	0.950677	0.439035
C37	C	1.585708	1.060401	0.439070
C38	C	1.451259	1.060401	0.573340
C39	C	1.451198	0.950679	0.573309
C40	C	1.518365	0.506101	0.233182
C41	C	1.518535	0.505848	0.116406
C42	C	1.585719	0.438731	0.951839
C43	C	1.585737	0.438685	1.061564
C44	C	1.451303	0.573052	1.061519
C45	C	1.451281	0.573091	0.951797
H46	H	1.217933	0.371499	0.371991
C47	C	1.377338	0.647023	0.891425
H48	H	1.337323	0.687027	0.939797
H49	H	1.331567	0.606848	0.848619
H50	H	1.417515	0.692820	0.848624
C51	C	1.659637	0.364846	0.891522
H52	H	1.699667	0.324809	0.939925
H53	H	1.705394	0.405047	0.848715
H54	H	1.619443	0.319078	0.848726
C55	C	1.659544	0.890331	0.365168
H56	H	1.649869	0.817127	0.374751
H57	H	1.730139	0.908239	0.380604
H58	H	1.644202	0.908388	0.294567
C59	C	1.134014	0.230268	0.231134
H60	H	1.207222	0.239880	0.240737
H61	H	1.115999	0.245564	0.160519
H62	H	1.116043	0.159696	0.246639
C63	C	1.134178	0.647338	0.647002
H64	H	1.207377	0.637702	0.637376
H65	H	1.116238	0.632058	0.717625
H66	H	1.116177	0.717915	0.631493
C67	C	0.788448	0.371595	0.372027
H68	H	0.763612	0.321900	0.322478
H69	H	0.763612	0.439377	0.353753
H70	H	0.763662	0.353498	0.439863
H71	H	1.640474	1.105061	0.384420
C72	C	0.903596	0.230315	0.231154
H73	H	0.830396	0.239967	0.240760
H74	H	0.921590	0.159740	0.246648
H75	H	0.921545	0.245611	0.160531
C76	C	1.377384	0.646930	1.121843
H77	H	1.387032	0.637291	1.195050
H78	H	1.306794	0.631557	1.103856
H79	H	1.392740	0.717532	1.103847
H80	H	1.396555	1.105081	0.628016
C81	C	1.659688	0.364769	1.121927
H82	H	1.699718	0.324785	1.073550
H83	H	1.619529	0.318968	1.164731
H84	H	1.705461	0.404957	1.164728
H85	H	0.919432	0.628143	0.627880
C86	C	1.377214	0.890332	0.647138
H87	H	1.337197	0.938717	0.687129
H88	H	1.417357	0.847458	0.692935
H89	H	1.331431	0.847600	0.606889
