data_functionalizedCrystal
_audit_creation_method	'MofGen! by Chris Wilmer'
_symmetry_space_group_name_H-M	'P1'
_symmetry_Int_Tables_number	1
_symmetry_cell_setting	triclinic
loop_
_symmetry_equiv_pos_as_xyz
  x,y,z
_cell_length_a	17.699083
_cell_length_b	14.971486
_cell_length_c	14.048226
_cell_angle_alpha	89.993360
_cell_angle_beta	89.999567
_cell_angle_gamma	83.448572
loop_
_atom_site_label
_atom_site_type_symbol
_atom_site_fract_x
_atom_site_fract_y
_atom_site_fract_z
O1	O	1.004356	0.113112	-0.079028
O2	O	1.504356	0.613112	0.420972
O3	O	0.784014	0.127829	-0.079059
O4	O	1.284014	0.627829	0.420941
O5	O	0.900091	-0.009750	-0.079036
O6	O	1.400091	0.490250	0.420964
O7	O	0.888279	0.250691	-0.079051
O8	O	1.388279	0.750691	0.420949
O9	O	0.900077	-0.009758	0.079286
O10	O	1.400077	0.490242	0.579286
O11	O	0.784000	0.127820	0.079262
O12	O	1.284000	0.627820	0.579262
O13	O	1.004342	0.113104	0.079294
O14	O	1.504342	0.613104	0.579294
Zn15	Zn	0.894169	0.120461	0.104415
Zn16	Zn	1.394169	0.620461	0.604415
Zn17	Zn	0.894187	0.120472	-0.104180
Zn18	Zn	1.394187	0.620472	0.395820
O19	O	0.888265	0.250683	0.079270
O20	O	1.388265	0.750683	0.579270
C21	C	0.899556	-0.043077	0.000125
C22	C	1.399556	0.456923	0.500125
C23	C	0.897973	-0.142368	0.000124
C24	C	1.397973	0.357632	0.500124
C25	C	0.755809	0.127297	0.000098
C26	C	1.255809	0.627297	0.500098
C27	C	0.671787	0.125715	0.000086
C28	C	1.171787	0.625715	0.500086
C29	C	0.966165	-0.199828	0.000134
C30	C	1.466165	0.300172	0.500134
C31	C	0.964673	-0.293123	0.000124
C32	C	1.464673	0.206877	0.500124
C33	C	0.894988	-0.328955	0.000111
C34	C	1.394988	0.171045	0.500111
C35	C	0.826791	-0.271488	0.000098
C36	C	1.326791	0.228512	0.500098
C37	C	0.828284	-0.178196	0.000101
C38	C	1.328284	0.321804	0.500101
C39	C	0.823685	-0.465940	0.000094
C40	C	1.323685	0.034060	0.500094
C41	C	0.822192	-0.559239	0.000093
C42	C	1.322192	-0.059239	0.500093
C43	C	0.960074	-0.580867	0.000117
C44	C	1.460074	-0.080867	0.500117
C45	C	0.961566	-0.487574	0.000120
C46	C	1.461566	0.012426	0.500120
C47	C	0.893369	-0.430114	0.000109
C48	C	1.393369	0.069886	0.500109
C49	C	0.623365	0.206471	0.000082
C50	C	1.123365	0.706471	0.500082
C51	C	0.544418	0.204979	0.000094
C52	C	1.044418	0.704979	0.500094
C53	C	0.513894	0.122731	0.000104
C54	C	1.013894	0.622731	0.500104
C55	C	0.562323	0.041969	0.000111
C56	C	1.062323	0.541969	0.500111
C57	C	0.641268	0.043462	0.000106
C58	C	1.141268	0.543462	0.500106
C59	C	0.243945	0.035947	0.000135
C60	C	0.743945	0.535947	0.500135
C61	C	0.164993	0.034461	0.000138
C62	C	0.664993	0.534461	0.500138
C63	C	0.147094	0.197465	0.000124
C64	C	0.647094	0.697465	0.500124
C65	C	0.226040	0.198958	0.000118
C66	C	0.726040	0.698958	0.500118
C67	C	0.274461	0.118196	0.000130
C68	C	0.774461	0.618196	0.500130
C69	C	0.360064	0.119815	0.000119
C70	C	0.860064	0.619815	0.500119
C71	C	0.428293	0.121111	0.000109
C72	C	0.928293	0.621111	0.500109
C73	C	1.032547	0.113636	0.000135
C74	C	1.532547	0.613636	0.500135
C75	C	1.116569	0.115218	0.000140
C76	C	1.616569	0.615218	0.500140
C77	C	0.888801	0.284010	0.000108
C78	C	1.388801	0.784010	0.500108
C79	C	0.890383	0.383301	0.000103
C80	C	1.390383	0.883301	0.500103
N81	N	0.894162	0.120453	0.246776
N82	N	1.394162	0.620453	0.746776
N83	N	0.894200	0.120472	-0.246541
N84	N	1.394200	0.620472	0.253459
C85	C	0.945577	0.059559	0.296604
C86	C	1.445577	0.559559	0.796604
C87	C	0.945582	0.059558	0.396262
C88	C	1.445582	0.559558	0.896262
C89	C	0.894175	0.120457	0.446089
C90	C	1.394175	0.620457	0.946089
C91	C	0.842755	0.181355	0.396254
C92	C	1.342755	0.681355	0.896254
C93	C	0.842746	0.181350	0.296598
C94	C	1.342746	0.681350	0.796598
C95	C	0.842776	0.181361	0.603968
C96	C	1.342776	0.681361	1.103968
C97	C	0.842785	0.181367	0.703631
C98	C	1.342785	0.681367	1.203631
C99	C	0.945612	0.059569	0.703632
C100	C	1.445612	0.559569	1.203632
C101	C	0.945604	0.059565	0.603976
C102	C	1.445604	0.559565	1.103976
C103	C	0.894184	0.120464	0.554148
C104	C	1.394184	0.620464	1.054148
H105	H	1.022910	-0.170661	0.000151
H106	H	1.522910	0.329339	0.500151
F107	F	0.095554	0.283419	0.000114
F108	F	0.595554	0.783419	0.500114
H109	H	0.800902	0.230949	0.563401
H110	H	1.300902	0.730949	1.063401
F111	F	0.132511	-0.053083	0.000149
F112	F	0.632511	0.446917	0.500149
F113	F	0.295469	-0.050006	0.000148
F114	F	0.795469	0.449994	0.500148
H115	H	0.250887	0.265933	0.000105
H116	H	0.750887	0.765933	0.500105
F117	F	1.000337	-0.005243	0.756667
F118	F	1.500337	0.494757	1.256667
H119	H	0.770052	-0.300671	0.000081
H120	H	1.270052	0.199329	0.500081
H121	H	0.537465	-0.024999	0.000133
H122	H	1.037465	0.475001	0.500133
F123	F	0.755704	-0.117043	0.000087
F124	F	1.255704	0.382957	0.500087
F125	F	0.692803	-0.042490	0.000114
F126	F	1.192803	0.457510	0.500114
H127	H	1.015603	-0.627656	0.000124
H128	H	1.515603	-0.127656	0.500124
H129	H	0.987441	0.009971	0.256041
H130	H	1.487441	0.509971	0.756041
H131	H	1.020202	-0.339903	0.000135
H132	H	1.520202	0.160097	0.500135
F133	F	0.788039	0.246165	0.449285
F134	F	1.288039	0.746165	0.949285
F135	F	0.655842	0.294012	0.000065
F136	F	1.155842	0.794012	0.500065
F137	F	1.035732	-0.449441	0.000132
F138	F	1.535732	0.050559	0.500132
F139	F	1.000302	-0.005254	0.449293
F140	F	1.500302	0.494746	0.949293
F141	F	0.751100	-0.404788	0.000079
F142	F	1.251100	0.095212	0.500079
F143	F	0.788070	0.246183	0.756654
F144	F	1.288070	0.746183	1.256654
F145	F	0.788021	0.246161	0.243568
F146	F	1.288021	0.746161	0.743568
F147	F	0.748025	-0.597373	0.000080
F148	F	1.248025	-0.097373	0.500080
F149	F	0.492886	0.290931	0.000085
F150	F	0.992886	0.790931	0.500085
F151	F	1.000320	-0.005245	0.550945
F152	F	1.500320	0.494755	1.050945
