data_functionalizedCrystal
_audit_creation_method	'MofGen! by Chris Wilmer'
_symmetry_space_group_name_H-M	'P1'
_symmetry_Int_Tables_number	1
_symmetry_cell_setting	triclinic
loop_
_symmetry_equiv_pos_as_xyz
  x,y,z
_cell_length_a	6.817900
_cell_length_b	16.256275
_cell_length_c	17.329378
_cell_angle_alpha	91.806094
_cell_angle_beta	103.025558
_cell_angle_gamma	103.500333
loop_
_atom_site_label
_atom_site_type_symbol
_atom_site_fract_x
_atom_site_fract_y
_atom_site_fract_z
V1	V	-4.010344	-0.099779	-0.245267
O2	O	-3.998088	0.022592	-0.240311
O3	O	-3.962053	-0.214961	-0.243867
O4	O	-3.954748	-0.090435	-0.352111
O5	O	-4.005444	-0.102796	-0.131317
V6	V	-4.494891	-0.086064	-0.231604
O7	O	-4.269358	-0.129862	-0.275238
O8	O	-4.686075	-0.055981	-0.201634
O9	O	-4.319976	0.029118	-0.233005
O10	O	-4.624544	-0.208435	-0.236561
O11	O	-4.617188	-0.083047	-0.345554
O12	O	-4.327281	-0.095408	-0.124761
C13	C	-3.807313	-0.243284	-0.240069
C14	C	-3.849067	-0.337397	-0.239636
C15	C	-4.139810	-0.569004	-0.242676
C16	C	-4.101857	-0.629541	-0.305474
C17	C	-3.925423	-0.509702	-0.238829
C18	C	-4.037762	-0.616858	-0.175274
C19	C	-3.999191	-0.676141	-0.238047
C20	C	-3.886945	-0.569005	-0.301687
C21	C	-3.822846	-0.556311	-0.171429
C22	C	-3.784751	-0.616821	-0.234241
C23	C	-3.882932	-0.413821	-0.239280
C24	C	-4.041668	-0.772020	-0.237601
C25	C	-3.797994	-0.084437	-0.378144
C26	C	-3.833821	-0.077560	-0.465491
C27	C	-3.890145	-0.151026	-0.517932
C28	C	-3.923817	-0.144562	-0.600004
C29	C	-3.901150	-0.064631	-0.629632
C30	C	-3.844827	0.008840	-0.577184
C31	C	-3.811170	0.002376	-0.495114
C32	C	-4.000809	-0.041275	-0.876859
C33	C	-4.034465	-0.034816	-0.958935
C34	C	-4.113457	-0.188219	-0.981749
C35	C	-4.079784	-0.194677	-0.899677
C36	C	-4.023474	-0.121205	-0.847236
C37	C	-3.935561	-0.058022	-0.713522
C38	C	-3.989079	-0.127815	-0.763348
C39	C	-4.138058	0.057436	-0.236801
C40	C	-4.075542	0.151549	-0.237239
C41	C	-4.147378	-0.101409	-0.098724
C42	C	-4.090788	-0.108282	-0.011376
H43	H	-3.908592	-0.216114	-0.493816
H44	H	-3.969688	-0.204387	-0.642699
H45	H	-4.101977	-0.638021	-0.121852
C46	C	-3.819883	0.096766	-0.609777
N47	N	-3.801081	0.162993	-0.634325
H48	H	-3.704568	-0.524406	-0.114759
H49	H	-4.016045	0.030276	-0.983055
H50	H	-3.822898	-0.547954	-0.355173
C51	C	-4.261726	-0.672622	-0.382031
N52	N	-4.382149	-0.705068	-0.439692
C53	C	-4.342035	-0.540454	-0.247611
N54	N	-4.494347	-0.518947	-0.251332
C55	C	-4.014018	-0.215737	-0.730755
N56	N	-4.032792	-0.281960	-0.706198
C57	C	-4.175418	-0.269033	-1.039440
N58	N	-4.222100	-0.329905	-1.082894
C59	C	-3.582305	-0.645159	-0.229437
N60	N	-3.429825	-0.666503	-0.225822
H61	H	-4.098253	-0.259765	-0.875560
H62	H	-3.954960	0.018551	-0.834170
H63	H	-3.917104	0.007058	-0.737654
C64	C	-3.749204	0.083195	-0.437428
N65	N	-3.702534	0.144070	-0.393979
