data_functionalizedCrystal
_audit_creation_method	'MofGen! by Chris Wilmer'
_symmetry_space_group_name_H-M	'P1'
_symmetry_Int_Tables_number	1
_symmetry_cell_setting	triclinic
loop_
_symmetry_equiv_pos_as_xyz
  x,y,z
_cell_length_a	13.897449
_cell_length_b	21.295417
_cell_length_c	13.897441
_cell_angle_alpha	89.963577
_cell_angle_beta	89.979267
_cell_angle_gamma	90.031786
loop_
_atom_site_label
_atom_site_type_symbol
_atom_site_fract_x
_atom_site_fract_y
_atom_site_fract_z
Zn1	Zn	1.474617	-0.250568	-0.545342
Zn2	Zn	1.807950	0.082766	-0.212009
Zn3	Zn	2.141283	0.416099	0.121325
Zn4	Zn	1.474475	-0.355847	-0.384027
Zn5	Zn	1.807808	-0.022513	-0.050694
Zn6	Zn	2.141141	0.310820	0.282640
Zn7	Zn	1.313306	-0.250598	-0.384060
Zn8	Zn	1.646639	0.082736	-0.050727
Zn9	Zn	1.979973	0.416069	0.282606
Zn10	Zn	1.313252	-0.355805	-0.545280
Zn11	Zn	1.646585	-0.022472	-0.211946
Zn12	Zn	1.979918	0.310861	0.121387
O13	O	1.393912	-0.303204	-0.464677
O14	O	1.727246	0.030129	-0.131344
O15	O	2.060579	0.363462	0.201989
O16	O	1.609579	-0.264538	-0.523955
O17	O	1.942913	0.068795	-0.190622
O18	O	2.276246	0.402129	0.142711
O19	O	1.453059	-0.341915	-0.249050
O20	O	1.786392	-0.008582	0.084284
O21	O	2.119725	0.324752	0.417617
O22	O	1.334786	-0.162504	-0.405495
O23	O	1.668120	0.170829	-0.072162
O24	O	2.001453	0.504162	0.261172
O25	O	1.609475	-0.341886	-0.405438
O26	O	1.942808	-0.008553	-0.072105
O27	O	2.276142	0.324781	0.261229
O28	O	1.453301	-0.162482	-0.523988
O29	O	1.786634	0.170851	-0.190655
O30	O	2.119967	0.504184	0.142679
O31	O	1.334649	-0.264589	-0.249074
O32	O	1.667982	0.068744	0.084259
O33	O	2.001315	0.402078	0.417592
O34	O	1.178317	-0.264549	-0.405434
O35	O	1.511650	0.068784	-0.072101
O36	O	1.844984	0.402118	0.261232
O37	O	1.334694	-0.341815	-0.680270
O38	O	1.668027	-0.008482	-0.346936
O39	O	2.001360	0.324851	-0.013603
O40	O	1.178277	-0.341844	-0.523881
O41	O	1.511610	-0.008511	-0.190548
O42	O	1.844944	0.324822	0.142785
O43	O	1.453248	-0.264498	-0.680316
O44	O	1.786581	0.068836	-0.346982
O45	O	2.119915	0.402169	-0.013649
O46	O	1.453006	-0.443931	-0.405378
O47	O	1.786339	-0.110597	-0.072044
O48	O	2.119672	0.222736	0.261289
O49	O	1.334556	-0.443900	-0.523849
O50	O	1.667889	-0.110567	-0.190516
O51	O	2.001223	0.222766	0.142818
C52	C	1.143298	-0.303196	-0.464655
C53	C	1.476631	0.030137	-0.131322
C54	C	1.809965	0.363471	0.202011
C55	C	1.036084	-0.303207	-0.464669
C56	C	1.369417	0.030126	-0.131336
C57	C	1.702751	0.363459	0.201998
C58	C	0.839789	-0.303210	-0.464694
C59	C	1.173122	0.030124	-0.131361
C60	C	1.506455	0.363457	0.201973
C61	C	0.949021	-0.303207	-0.464677
C62	C	1.282355	0.030127	-0.131344
C63	C	1.615688	0.363460	0.201989
C64	C	1.393786	-0.466756	-0.464624
C65	C	1.727119	-0.133423	-0.131291
C66	C	2.060452	0.199911	0.202043
C67	C	1.393820	-0.536724	-0.464633
C68	C	1.727153	-0.203391	-0.131300
C69	C	2.060487	0.129943	0.202033
C70	C	1.455552	-0.569586	-0.403008
C71	C	1.788885	-0.236252	-0.069675
C72	C	2.122218	0.097081	0.263658
C73	C	1.455597	-0.635328	-0.403030
C74	C	1.788930	-0.301995	-0.069697
C75	C	2.122263	0.031339	0.263637
C76	C	1.393893	-0.668207	-0.464667
C77	C	1.727226	-0.334873	-0.131333
C78	C	2.060560	-0.001540	0.202000
C79	C	1.332157	-0.635337	-0.526304
C80	C	1.665490	-0.302004	-0.192970
C81	C	1.998824	0.031330	0.140363
C82	C	1.332120	-0.569596	-0.526287
C83	C	1.665454	-0.236262	-0.192954
C84	C	1.998787	0.097071	0.140380
N85	N	1.309512	-0.771473	-0.472013
N86	N	1.642845	-0.438140	-0.138679
N87	N	1.976179	-0.104806	0.194654
N88	N	1.309550	-0.833925	-0.472023
N89	N	1.642883	-0.500591	-0.138690
N90	N	1.976216	-0.167258	0.194644
C91	C	1.394001	-0.866281	-0.464722
C92	C	1.727334	-0.532948	-0.131389
C93	C	2.060668	-0.199615	0.201945
N94	N	1.478416	-0.833827	-0.457392
N95	N	1.811749	-0.500494	-0.124058
N96	N	2.145082	-0.167160	0.209275
N97	N	1.478377	-0.771370	-0.457376
N98	N	1.811710	-0.438037	-0.124043
N99	N	2.145044	-0.104703	0.209290
C100	C	1.393926	-0.739492	-0.464692
C101	C	1.727260	-0.406159	-0.131359
C102	C	2.060593	-0.072825	0.201975
C103	C	1.455787	-0.970428	-0.403117
C104	C	1.789120	-0.637095	-0.069784
C105	C	2.122454	-0.303762	0.263549
C106	C	1.455834	-1.036172	-0.403146
C107	C	1.789167	-0.702839	-0.069812
C108	C	2.122501	-0.369505	0.263521
C109	C	1.332386	-1.036180	-0.526414
C110	C	1.665719	-0.702846	-0.193081
C111	C	1.999052	-0.369513	0.140253
C112	C	1.332347	-0.970437	-0.526391
C113	C	1.665681	-0.637104	-0.193057
C114	C	1.999014	-0.303771	0.140276
C115	C	1.394047	-0.937565	-0.464737
C116	C	1.727380	-0.604232	-0.131404
C117	C	2.060713	-0.270899	0.201930
C118	C	1.645505	-0.303213	-0.464700
C119	C	1.978838	0.030120	-0.131367
C120	C	2.312172	0.363453	0.201967
C121	C	1.752719	-0.303217	-0.464710
C122	C	2.086052	0.030116	-0.131376
C123	C	2.419386	0.363450	0.201957
C124	C	1.393981	-0.303149	-0.716270
C125	C	1.727314	0.030185	-0.382937
C126	C	2.060647	0.363518	-0.049604
C127	C	1.394010	-0.303125	-0.823484
C128	C	1.727343	0.030208	-0.490151
C129	C	2.060676	0.363542	-0.156818
C130	C	1.394065	-0.139014	-0.464752
C131	C	1.727399	0.194319	-0.131419
C132	C	2.060732	0.527653	0.201915
C133	C	1.394131	-0.069046	-0.464784
C134	C	1.727464	0.264287	-0.131451
C135	C	2.060797	0.597621	0.201883
C136	C	1.394036	-0.303082	-1.019780
C137	C	1.727369	0.030251	-0.686446
C138	C	2.060703	0.363584	-0.353113
C139	C	1.394018	-0.303108	-0.910547
C140	C	1.727352	0.030226	-0.577214
C141	C	2.060685	0.363559	-0.243881
C142	C	1.393900	-0.303214	-0.214063
C143	C	1.727233	0.030119	0.119270
C144	C	2.060566	0.363452	0.452604
C145	C	1.394057	-0.303061	-0.106850
C146	C	1.727391	0.030273	0.226484
C147	C	2.060724	0.363606	0.559817
H148	H	1.505793	-0.542823	-0.352809
H149	H	1.839126	-0.209490	-0.019476
H150	H	2.172460	0.123843	0.313858
Br151	Br	1.539630	-1.080771	-0.319514
Br152	Br	1.872964	-0.747438	0.013819
Br153	Br	2.206297	-0.414105	0.347153
H154	H	1.281850	-0.542839	-0.576471
H155	H	1.615184	-0.209506	-0.243137
H156	H	1.948517	0.123827	0.090196
H157	H	1.506030	-0.943663	-0.352918
H158	H	1.839363	-0.610330	-0.019585
H159	H	2.172696	-0.276996	0.313749
Br160	Br	1.248653	-1.080793	-0.610075
Br161	Br	1.581986	-0.747460	-0.276742
Br162	Br	1.915320	-0.414126	0.056591
Br163	Br	1.539382	-0.679936	-0.319391
Br164	Br	1.872715	-0.346603	0.013943
Br165	Br	2.206048	-0.013269	0.347276
H166	H	1.282075	-0.943680	-0.576567
H167	H	1.615409	-0.610346	-0.243234
H168	H	1.948742	-0.277013	0.090099
Br169	Br	1.248423	-0.679956	-0.609961
Br170	Br	1.581756	-0.346622	-0.276628
Br171	Br	1.915090	-0.013289	0.056705
