data_functionalizedCrystal
_audit_creation_method	'MofGen! by Chris Wilmer'
_symmetry_space_group_name_H-M	'P1'
_symmetry_Int_Tables_number	1
_symmetry_cell_setting	triclinic
loop_
_symmetry_equiv_pos_as_xyz
  x,y,z
_cell_length_a	10.540539
_cell_length_b	11.026607
_cell_length_c	9.482900
_cell_angle_alpha	78.599815
_cell_angle_beta	99.382321
_cell_angle_gamma	96.555754
loop_
_atom_site_label
_atom_site_type_symbol
_atom_site_fract_x
_atom_site_fract_y
_atom_site_fract_z
O1	O	-1.738884	-0.152500	-0.120820
O2	O	-1.373010	-0.168642	-0.120838
O3	O	-1.525623	0.016344	-0.120825
O4	O	-1.586271	-0.337486	-0.120833
O5	O	-1.494659	-0.021383	0.120965
O6	O	-1.342045	-0.206369	0.120952
O7	O	-1.707920	-0.190227	0.120969
Cu8	Cu	-1.522155	-0.201743	0.143038
Cu9	Cu	-1.558774	-0.157126	-0.142906
O10	O	-1.555307	-0.375213	0.120957
C11	C	-1.309960	-0.186294	0.000055
C12	C	-1.168219	-0.182671	0.000048
C13	C	-1.498953	0.042789	0.000067
C14	C	-1.465601	0.177793	0.000061
C15	C	-1.770970	-0.172574	0.000074
C16	C	-1.912712	-0.176196	0.000071
C17	C	-0.954316	-0.043955	0.000616
C18	C	-1.101810	-0.047539	0.000056
C19	C	-1.138473	-0.226159	-0.138022
C20	C	-0.990931	-0.221532	-0.138122
C21	C	-0.955832	-0.267183	0.136838
C22	C	-1.102855	-0.268710	0.138648
C23	C	-1.581977	-0.401657	0.000061
C24	C	-1.615330	-0.536660	0.000058
N25	N	-1.496409	-0.233123	0.344156
C26	C	-1.557693	0.250800	0.000063
C27	C	-1.523225	0.390334	0.000056
N28	N	-1.584529	-0.125736	-0.344025
C29	C	-1.551170	-0.166375	0.416360
C30	C	-1.529760	-0.192494	0.583776
H31	H	-1.120541	-0.011813	0.099030
H32	H	-1.144965	0.019460	-0.099088
N33	N	-1.667641	-0.024423	0.573715
H34	H	-1.629674	0.057846	0.600135
H35	H	-1.671136	-0.020231	0.465806
N36	N	-1.125997	-0.226900	0.273955
H37	H	-1.087922	-0.138488	0.273088
H38	H	-1.221861	-0.231689	0.276604
H39	H	-0.925074	0.024568	-0.097849
N40	N	-1.413300	-0.334426	0.426437
H41	H	-1.466306	-0.398368	0.489584
H42	H	-1.379709	-0.375284	0.355161
N43	N	-1.753585	0.409334	0.000064
H44	H	-1.783018	0.371274	-0.089566
H45	H	-1.759963	0.343362	0.089757
H46	H	-1.361240	0.218591	0.000046
N47	N	-1.634232	-0.065034	0.334086
H48	H	-1.637736	-0.060727	0.226151
H49	H	-1.724324	-0.083752	0.360578
H50	H	-1.418857	0.431127	0.000041
H51	H	-1.467016	-0.268976	0.645895
N52	N	-1.695934	0.196773	0.000089
H53	H	-1.725373	0.158705	-0.089533
H54	H	-1.702289	0.130804	0.089789
N55	N	-0.884175	0.006297	0.131780
H56	H	-0.824744	-0.056166	0.192123
H57	H	-0.831923	0.086551	0.098733
H58	H	-0.965052	-0.317739	-0.144391
N59	N	-0.957102	-0.136530	-0.274817
H60	H	-1.004917	-0.169426	-0.362647
H61	H	-0.982611	-0.050556	-0.277012
N62	N	-1.197760	-0.356539	-0.144858
H63	H	-1.161181	-0.415222	-0.055420
H64	H	-1.294395	-0.359063	-0.149323
N65	N	-1.199202	-0.145091	-0.274138
H66	H	-1.246011	-0.080159	-0.246681
H67	H	-1.129719	-0.102983	-0.333296
H68	H	-0.901304	-0.239781	0.241494
H69	H	-1.147594	-0.368531	0.146982
H70	H	-0.929865	-0.364934	0.137769
