data_functionalizedCrystal
_audit_creation_method	'MofGen! by Chris Wilmer'
_symmetry_space_group_name_H-M	'P1'
_symmetry_Int_Tables_number	1
_symmetry_cell_setting	triclinic
loop_
_symmetry_equiv_pos_as_xyz
  x,y,z
_cell_length_a	16.109301
_cell_length_b	27.732048
_cell_length_c	14.586319
_cell_angle_alpha	89.991275
_cell_angle_beta	89.999213
_cell_angle_gamma	83.052068
loop_
_atom_site_label
_atom_site_type_symbol
_atom_site_fract_x
_atom_site_fract_y
_atom_site_fract_z
O1	O	1.102362	0.062130	-0.076193
O2	O	0.860204	0.069862	-0.076208
O3	O	0.988804	-0.004369	-0.076183
O4	O	0.973762	0.136361	-0.076218
O5	O	0.988795	-0.004370	0.076298
O6	O	0.860195	0.069861	0.076272
O7	O	1.102353	0.062129	0.076288
Cu8	Cu	0.981273	0.065995	0.090203
Cu9	Cu	0.981283	0.065996	-0.090123
O10	O	0.973753	0.136360	0.076262
C11	C	0.829228	0.069548	0.000030
C12	C	0.736945	0.068609	0.000025
C13	C	0.514154	0.110473	0.000025
C14	C	0.427445	0.109587	0.000031
C15	C	0.448409	0.021514	0.000050
C16	C	0.535117	0.022401	0.000050
C17	C	0.567987	0.066882	0.000033
C18	C	0.394570	0.065109	0.000039
C19	C	0.300556	0.064148	0.000045
C20	C	0.662007	0.067843	0.000028
C21	C	0.988483	-0.022378	0.000060
C22	C	0.987533	-0.076037	0.000068
C23	C	1.057541	-0.414559	0.000025
C24	C	1.054013	-0.616233	0.000012
O25	O	1.118031	-0.647221	-0.000024
N26	N	0.977759	-0.635676	0.000008
C27	C	0.902381	-0.604697	0.000001
O28	O	0.837441	-0.625862	-0.000012
C29	C	0.905910	-0.403024	0.000008
C30	C	0.982169	-0.383584	0.000021
C31	C	1.133794	-0.395119	0.000038
C32	C	1.134675	-0.344703	0.000046
C33	C	1.059303	-0.313728	0.000042
C34	C	0.983050	-0.333168	0.000029
C35	C	0.830533	-0.372045	-0.000006
C36	C	0.831422	-0.321624	-0.000006
C37	C	0.907681	-0.302184	0.000007
C38	C	0.908559	-0.251777	0.000034
N39	N	0.984814	-0.232334	0.000038
C40	C	1.060186	-0.263310	0.000042
C41	C	0.900534	-0.710579	-0.000000
C42	C	0.899652	-0.760997	-0.000000
C43	C	1.051284	-0.772530	0.000009
C44	C	1.052166	-0.722111	0.000016
C45	C	0.976789	-0.691136	0.000004
C46	C	1.062030	-0.157433	0.000060
C47	C	1.062905	-0.107012	0.000072
C48	C	0.911273	-0.095484	0.000058
C49	C	0.910398	-0.145900	0.000051
C50	C	0.985783	-0.176874	0.000049
O51	O	0.844576	-0.220761	0.000059
O52	O	1.125116	-0.242135	0.000035
C53	C	1.056660	-0.464975	0.000017
C54	C	0.980407	-0.484415	0.000005
C55	C	0.905035	-0.453440	0.000001
C56	C	0.979525	-0.534833	0.000005
C57	C	1.054897	-0.565808	0.000009
C58	C	1.131151	-0.546365	0.000013
C59	C	1.132032	-0.495950	0.000021
C60	C	0.828781	-0.472883	-0.000004
C61	C	0.827906	-0.523299	-0.000011
C62	C	0.903278	-0.554274	-0.000007
C63	C	1.133328	0.062443	0.000048
C64	C	1.225612	0.063382	0.000047
C65	C	0.974073	0.154369	0.000017
C66	C	0.975024	0.208028	0.000004
N67	N	0.981272	0.065994	0.217035
N68	N	0.981291	0.065994	-0.216955
C69	C	1.038234	0.033135	0.452053
C70	C	1.038237	0.033134	0.548034
C71	C	0.924323	0.098854	0.548020
C72	C	0.924317	0.098852	0.452041
C73	C	0.981278	0.065993	0.404060
C74	C	0.981286	0.065994	0.596020
C75	C	0.981288	0.065993	0.700087
C76	C	0.981275	0.065994	0.299986
H77	H	0.578951	-0.013099	0.000059
O78	O	0.836341	-0.164809	0.000208
C79	C	0.747352	-0.215069	0.079148
C80	C	0.831243	-0.193684	0.079106
H81	H	0.743210	-0.238428	0.142920
H82	H	0.693603	-0.184285	0.079209
H83	H	0.743162	-0.238354	0.015297
H84	H	0.835515	-0.170405	0.142946
H85	H	0.884952	-0.224491	0.078997
O86	O	0.756380	-0.390841	-0.000064
C87	C	0.606077	-0.374059	-0.000039
C88	C	0.690001	-0.352710	0.000007
H89	H	0.552388	-0.343241	0.000037
H90	H	0.601818	-0.397349	-0.063871
H91	H	0.601900	-0.397397	0.063755
H92	H	0.694235	-0.329350	-0.063744
H93	H	0.694224	-0.329447	0.063881
O94	O	0.545946	0.153722	0.000057
C95	C	0.515996	0.240985	-0.000009
C96	C	0.479884	0.192038	-0.000028
H97	H	0.462603	0.271976	-0.000097
H98	H	0.556035	0.243632	0.063818
H99	H	0.556095	0.243578	-0.063808
H100	H	0.439748	0.189411	0.063728
H101	H	0.439892	0.189411	-0.063897
O102	O	0.416436	-0.021680	-0.000105
C103	C	0.330668	-0.073778	-0.079069
C104	C	0.366835	-0.024848	-0.079015
H105	H	0.290544	-0.076351	-0.142851
H106	H	0.384007	-0.104802	-0.079120
H107	H	0.290630	-0.076389	-0.015228
H108	H	0.406863	-0.022189	-0.142845
H109	H	0.313457	0.006153	-0.078916
H110	H	0.767402	-0.447667	-0.000009
O111	O	0.375069	0.151901	-0.000105
C112	C	0.265045	0.202029	-0.079143
C113	C	0.324298	0.154084	-0.079093
H114	H	0.223994	0.203814	-0.143008
H115	H	0.223869	0.203824	-0.015373
H116	H	0.303454	0.233961	-0.079111
H117	H	0.285955	0.122124	-0.079158
H118	H	0.365477	0.152331	-0.142857
H119	H	1.192521	-0.571594	0.000020
O120	O	0.753748	-0.542099	-0.000063
C121	C	0.603444	-0.525325	-0.000036
C122	C	0.687364	-0.503971	0.000013
H123	H	0.549751	-0.494509	0.000045
H124	H	0.599188	-0.548613	-0.063871
H125	H	0.599271	-0.548666	0.063755
H126	H	0.691593	-0.480608	-0.063735
H127	H	0.691584	-0.480711	0.063890
O128	O	0.827328	-0.680474	-0.000168
C129	C	0.740326	-0.616838	-0.079137
C130	C	0.823253	-0.650908	-0.079076
H131	H	0.737011	-0.592918	-0.142917
H132	H	0.685650	-0.639377	-0.079196
H133	H	0.736949	-0.592972	-0.015294
H134	H	0.826710	-0.674780	-0.142908
H135	H	0.877890	-0.628339	-0.078969
O136	O	1.093428	0.001175	0.405362
C137	C	1.111906	-0.064891	0.297132
C138	C	1.049320	-0.028702	0.349918
H139	H	1.076269	-0.089063	0.252308
H140	H	1.153185	-0.044072	0.252104
H141	H	1.152604	-0.088353	0.347967
H142	H	1.008567	-0.005231	0.299150
H143	H	1.008098	-0.049550	0.394961
O144	O	1.093647	0.001198	0.594512
C145	C	1.206602	-0.064005	0.584390
C146	C	1.143907	-0.027854	0.531641
H147	H	1.247242	-0.087510	0.533581
H148	H	1.247924	-0.043154	0.629292
H149	H	1.171006	-0.088138	0.629359
H150	H	1.179434	-0.003712	0.486622
H151	H	1.102586	-0.048736	0.486797
O152	O	0.869080	0.130756	0.594774
C153	C	0.818574	0.159868	0.742629
C154	C	0.881193	0.123719	0.689799
H155	H	0.828333	0.154184	0.819466
H156	H	0.828909	0.198595	0.723809
H157	H	0.752074	0.153564	0.723713
H158	H	0.947718	0.129978	0.708686
H159	H	0.870785	0.085004	0.708623
O160	O	0.758220	-0.291516	-0.000178
C161	C	0.671239	-0.227871	-0.079149
C162	C	0.754159	-0.261948	-0.079083
H163	H	0.667936	-0.203950	-0.142927
H164	H	0.616556	-0.250406	-0.079218
H165	H	0.667863	-0.204008	-0.015304
H166	H	0.757617	-0.285818	-0.142917
H167	H	0.808802	-0.239384	-0.078966
H168	H	1.114263	-0.706287	0.000026
O169	O	1.135205	-0.187565	0.000184
C170	C	1.222241	-0.251162	0.079216
C171	C	1.139335	-0.217074	0.079171
H172	H	1.225615	-0.275022	0.143080
H173	H	1.225647	-0.275083	0.015445
H174	H	1.276872	-0.228589	0.079183
H175	H	1.084657	-0.239608	0.079236
H176	H	1.136002	-0.193152	0.142937
O177	O	1.124524	-0.802605	0.000169
C178	C	1.253878	-0.827892	0.079120
C179	C	1.170964	-0.793811	0.079074
H180	H	1.291457	-0.820788	0.142897
H181	H	1.240188	-0.867274	0.079175
H182	H	1.291400	-0.820823	0.015274
H183	H	1.133402	-0.800837	0.142908
H184	H	1.184714	-0.754440	0.078971
O185	O	0.868955	0.130820	0.405556
C186	C	0.755934	0.195985	0.415663
C187	C	0.818598	0.159820	0.468421
H188	H	0.715192	0.219434	0.466467
H189	H	0.791470	0.220170	0.370740
H190	H	0.714708	0.175097	0.370716
H191	H	0.859839	0.180669	0.513419
H192	H	0.783009	0.135635	0.513287
O193	O	1.136913	-0.088049	0.000121
C194	C	1.205483	-0.015493	0.000077
C195	C	1.121614	-0.036902	0.000046
H196	H	1.193143	0.025862	-0.000003
H197	H	1.242706	-0.028224	0.063904
H198	H	1.242696	-0.028273	-0.063722
H199	H	1.084334	-0.024131	0.063802
H200	H	1.084454	-0.024173	-0.063823
H201	H	1.195175	-0.420334	0.000038
O202	O	1.208828	-0.325903	0.000011
C203	C	1.359131	-0.342682	0.000070
C204	C	1.275208	-0.364032	0.000091
H205	H	1.412822	-0.373499	0.000154
H206	H	1.363400	-0.319379	-0.063757
H207	H	1.363295	-0.319356	0.063869
H208	H	1.270988	-0.387381	-0.063664
H209	H	1.270975	-0.387308	0.063961
O210	O	0.825500	-0.779798	-0.000044
C211	C	0.675196	-0.763023	-0.000004
C212	C	0.759116	-0.741670	0.000031
H213	H	0.621503	-0.732208	0.000075
H214	H	0.670936	-0.786316	-0.063834
H215	H	0.671028	-0.786361	0.063792
H216	H	0.763341	-0.718310	-0.063723
H217	H	0.763341	-0.718406	0.063902
H218	H	0.849907	-0.070255	0.000058
H219	H	1.194130	-0.480127	0.000032
