data_functionalizedCrystal
_audit_creation_method	'MofGen! by Chris Wilmer'
_symmetry_space_group_name_H-M	'P1'
_symmetry_Int_Tables_number	1
_symmetry_cell_setting	triclinic
loop_
_symmetry_equiv_pos_as_xyz
  x,y,z
_cell_length_a	13.339070
_cell_length_b	14.971486
_cell_length_c	14.048226
_cell_angle_alpha	90.000107
_cell_angle_beta	90.000732
_cell_angle_gamma	80.378288
loop_
_atom_site_label
_atom_site_type_symbol
_atom_site_fract_x
_atom_site_fract_y
_atom_site_fract_z
O1	O	0.131869	-1.219547	0.079045
O2	O	0.631869	-0.719547	0.579045
O3	O	0.147661	-0.963051	0.079070
O4	O	0.647661	-0.463051	0.579070
O5	O	-0.007534	-1.061862	0.079057
O6	O	0.492466	-0.561862	0.579057
O7	O	0.287064	-1.120737	0.079057
O8	O	0.787064	-0.620737	0.579057
O9	O	-0.007535	-1.061849	-0.079264
O10	O	0.492465	-0.561849	0.420736
O11	O	0.147660	-0.963038	-0.079251
O12	O	0.647660	-0.463038	0.420749
O13	O	0.131868	-1.219534	-0.079276
O14	O	0.631868	-0.719534	0.420724
Zn15	Zn	0.139763	-1.091284	-0.104401
Zn16	Zn	0.639763	-0.591284	0.395599
Zn17	Zn	0.139765	-1.091302	0.104194
Zn18	Zn	0.639765	-0.591302	0.604194
O19	O	0.287063	-1.120723	-0.079264
O20	O	0.787063	-0.620723	0.420736
C21	C	0.146954	-0.929545	-0.000087
C22	C	0.646954	-0.429545	0.499913
C23	C	0.144838	-0.829725	-0.000077
C24	C	0.644838	-0.329725	0.499923
C25	C	-0.045236	-1.051910	-0.000101
C26	C	0.454764	-0.551910	0.499899
C27	C	-0.157574	-1.022266	-0.000094
C28	C	0.342426	-0.522266	0.499906
C29	C	0.132575	-1.253040	-0.000117
C30	C	0.632575	-0.753040	0.499883
C31	C	0.134691	-1.352860	-0.000121
C32	C	0.634691	-0.852860	0.499879
C33	C	-0.522088	-1.252762	-0.000117
C34	C	-0.022088	-0.752762	0.499883
C35	C	-0.416541	-1.280617	-0.000129
C36	C	0.083459	-0.780617	0.499871
C37	C	-0.351794	-1.216032	-0.000120
C38	C	0.148206	-0.716032	0.499880
C39	C	-0.392604	-1.123587	-0.000100
C40	C	0.107396	-0.623587	0.499900
C41	C	-0.498161	-1.095729	-0.000096
C42	C	0.001839	-0.595729	0.499904
C43	C	-0.327867	-1.058999	-0.000098
C44	C	0.172133	-0.558999	0.499902
C45	C	-0.368677	-0.966554	-0.000078
C46	C	0.131323	-0.466554	0.499922
C47	C	-0.474224	-0.938701	-0.000073
C48	C	0.025776	-0.438701	0.499927
C49	C	-0.538970	-1.003286	-0.000082
C50	C	-0.038970	-0.503286	0.499918
C51	C	-0.222311	-1.086856	-0.000102
C52	C	0.277689	-0.586856	0.499898
C53	C	-0.198383	-0.929823	-0.000081
C54	C	0.301617	-0.429823	0.499919
C55	C	-0.303930	-0.901968	-0.000069
C56	C	0.196070	-0.401968	0.499931
C57	C	0.324765	-1.130675	-0.000103
C58	C	0.824765	-0.630675	0.499897
C59	C	0.437102	-1.160319	-0.000104
C60	C	0.937102	-0.660319	0.499896
N61	N	0.139762	-1.091278	-0.246761
N62	N	0.639762	-0.591278	0.253239
C63	C	0.236011	-0.795041	-0.000079
C64	C	0.736011	-0.295041	0.499921
C65	C	0.234016	-0.701248	-0.000093
C66	C	0.734016	-0.201248	0.499907
C67	C	0.140847	-0.642141	-0.000099
C68	C	0.640847	-0.142141	0.499901
C69	C	0.049667	-0.676832	-0.000101
C70	C	0.549667	-0.176832	0.499899
C71	C	0.051663	-0.770623	-0.000093
C72	C	0.551663	-0.270623	0.499907
C73	C	0.045514	-0.481342	-0.000114
C74	C	0.545514	0.018658	0.499886
C75	C	0.043518	-0.387545	-0.000119
C76	C	0.543518	0.112455	0.499881
C77	C	0.227867	-0.411968	-0.000114
C78	C	0.727867	0.088032	0.499886
C79	C	0.229863	-0.505759	-0.000106
C80	C	0.729863	-0.005759	0.499894
C81	C	0.138682	-0.540442	-0.000106
C82	C	0.638682	-0.040442	0.499894
C83	C	0.201239	-1.160780	-0.296581
C84	C	0.701239	-0.660780	0.203419
C85	C	0.201235	-1.160790	-0.396239
C86	C	0.701235	-0.660790	0.103761
C87	C	0.139758	-1.091295	-0.446075
C88	C	0.639758	-0.591295	0.053925
C89	C	0.078273	-1.021789	-0.396249
C90	C	0.578273	-0.521789	0.103751
C91	C	0.078273	-1.021783	-0.296593
C92	C	0.578273	-0.521783	0.203407
C93	C	0.078280	-1.021806	-0.603963
C94	C	0.578280	-0.521806	-0.103963
C95	C	0.078281	-1.021811	-0.703625
C96	C	0.578281	-0.521811	-0.203625
C97	C	0.201242	-1.160813	-0.703609
C98	C	0.701242	-0.660813	-0.203609
C99	C	0.201242	-1.160807	-0.603953
C100	C	0.701242	-0.660807	-0.103953
C101	C	0.139758	-1.091300	-0.554133
C102	C	0.639758	-0.591300	-0.054133
N103	N	0.139759	-1.091312	0.246555
N104	N	0.639759	-0.591312	0.746555
H105	H	-0.189094	-1.162125	-0.000119
H106	H	0.310906	-0.662125	0.499881
Br107	Br	-0.005179	-0.927465	-0.228979
Br108	Br	0.494821	-0.427465	0.271021
H109	H	-0.507447	-0.863426	-0.000064
H110	H	-0.007447	-0.363426	0.499936
H111	H	0.251294	-1.217387	-0.436797
H112	H	0.751294	-0.717387	0.063203
H113	H	-0.265854	-1.238717	-0.000130
H114	H	0.234146	-0.738717	0.499870
Br115	Br	-0.609960	-1.340403	-0.000152
Br116	Br	-0.109960	-0.840403	0.499848
H117	H	0.251308	-1.217367	-0.256011
H118	H	0.751308	-0.717367	0.243989
H119	H	-0.383322	-1.355886	-0.000147
H120	H	0.116678	-0.855886	0.499853
Br121	Br	-0.682219	-0.965486	0.000062
Br122	Br	-0.182219	-0.465486	0.500062
H123	H	0.302110	-0.383724	-0.000118
H124	H	0.802110	0.116276	0.499882
H125	H	0.251307	-1.217393	-0.563379
H126	H	0.751307	-0.717393	-0.063379
Br127	Br	-0.359327	-0.776510	-0.000036
Br128	Br	0.140673	-0.276510	0.499964
Br129	Br	0.284683	-1.255145	-0.771219
Br130	Br	0.784683	-0.755145	-0.271219
H131	H	0.311879	-0.843160	-0.000073
H132	H	0.811879	-0.343160	0.499927
Br133	Br	0.356307	-0.585975	-0.000084
Br134	Br	0.856307	-0.085975	0.499916
Br135	Br	-0.005157	-0.927497	-0.771261
Br136	Br	0.494843	-0.427497	-0.271261
Br137	Br	-0.005183	-0.927487	-0.536351
Br138	Br	0.494817	-0.427487	-0.036351
H139	H	-0.028735	-0.509578	-0.000115
H140	H	0.471265	-0.009578	0.499885
H141	H	0.028212	-0.965208	-0.436833
H142	H	0.528212	-0.465208	0.063167
Br143	Br	-0.082926	-0.307329	-0.000159
Br144	Br	0.417074	0.192671	0.499841
H145	H	-0.145666	-0.877232	-0.000078
H146	H	0.354334	-0.377232	0.499922
Br147	Br	0.357756	-0.654180	-0.000092
Br148	Br	0.857756	-0.154180	0.499908
Br149	Br	-0.076778	-0.596617	-0.000118
Br150	Br	0.423222	-0.096617	0.499882
Br151	Br	-0.072076	-0.817695	-0.000100
Br152	Br	0.427924	-0.317695	0.499900
