data_functionalizedCrystal
_audit_creation_method	'MofGen! by Chris Wilmer'
_symmetry_space_group_name_H-M	'P1'
_symmetry_Int_Tables_number	1
_symmetry_cell_setting	triclinic
loop_
_symmetry_equiv_pos_as_xyz
  x,y,z
_cell_length_a	16.109318
_cell_length_b	23.532407
_cell_length_c	22.610064
_cell_angle_alpha	90.005928
_cell_angle_beta	90.001801
_cell_angle_gamma	83.158621
loop_
_atom_site_label
_atom_site_type_symbol
_atom_site_fract_x
_atom_site_fract_y
_atom_site_fract_z
O1	O	1.102546	0.073237	-0.049142
O2	O	0.860414	0.082337	-0.049154
O3	O	0.988782	-0.005118	-0.049137
O4	O	0.974179	0.160691	-0.049159
O5	O	0.988773	-0.005095	0.049233
O6	O	0.860405	0.082359	0.049215
O7	O	1.102537	0.073260	0.049228
Zn8	Zn	0.981470	0.077813	0.064840
Zn9	Zn	0.981481	0.077783	-0.064766
O10	O	0.974170	0.160714	0.049210
C11	C	0.829438	0.081978	0.000029
C12	C	0.737152	0.080867	0.000024
C13	C	0.438112	0.077269	-0.053586
C14	C	0.524825	0.078309	-0.053589
C15	C	0.524834	0.078325	0.053658
C16	C	0.438123	0.077282	0.053661
C17	C	0.394764	0.076757	0.000038
C18	C	0.568188	0.078840	0.000031
C19	C	0.662206	0.079967	0.000027
C20	C	0.300740	0.075629	0.000041
C21	C	0.988405	-0.026324	0.000049
C22	C	0.987287	-0.089545	0.000054
C23	C	1.056240	-0.488391	0.000025
C24	C	1.055201	-0.547795	0.000021
O25	O	1.119121	-0.584301	0.000002
N26	N	0.978887	-0.570706	0.000017
C27	C	0.903606	-0.534209	0.000012
O28	O	0.838600	-0.559151	0.000008
C29	C	0.904646	-0.474806	0.000012
C30	C	0.980965	-0.451899	0.000022
C31	C	1.132553	-0.465483	0.000034
C32	C	1.133591	-0.406083	0.000040
C33	C	1.058316	-0.369591	0.000036
C34	C	0.982003	-0.392499	0.000027
C35	C	0.829366	-0.438311	0.000003
C36	C	0.830412	-0.378904	0.000003
C37	C	0.906731	-0.355997	0.000012
C38	C	0.907767	-0.296607	0.000030
N39	N	0.984081	-0.273696	0.000033
C40	C	1.059356	-0.310188	0.000037
C41	C	0.901429	-0.658960	0.000010
C42	C	0.900389	-0.718362	0.000014
C43	C	1.051984	-0.731943	0.000022
C44	C	1.053024	-0.672540	0.000022
C45	C	0.977743	-0.636049	0.000014
C46	C	1.061530	-0.185443	0.000049
C47	C	1.062562	-0.126037	0.000057
C48	C	0.910967	-0.112461	0.000047
C49	C	0.909935	-0.171861	0.000042
C50	C	0.985224	-0.208352	0.000041
O51	O	0.843881	-0.260066	0.000046
O52	O	1.124352	-0.285237	0.000033
C53	C	1.133513	0.073619	0.000043
C54	C	1.225799	0.074729	0.000044
C55	C	0.974546	0.181920	0.000023
C56	C	0.975664	0.245141	0.000014
N57	N	0.981468	0.077833	0.153292
N58	N	0.981490	0.077759	-0.153219
C59	C	0.924609	0.116510	0.438132
C60	C	0.924606	0.116516	0.376212
O61	O	0.876237	0.149426	0.344187
N62	N	0.981462	0.077810	0.345244
C63	C	1.038318	0.039092	0.376199
O64	O	1.086678	0.006170	0.344173
C65	C	1.038316	0.039084	0.438118
C66	C	0.981462	0.077797	0.469083
C67	C	0.867759	0.155219	0.469097
C68	C	0.867762	0.155214	0.531013
C69	C	0.924616	0.116500	0.561964
C70	C	0.981466	0.077792	0.530999
C71	C	1.095168	0.000364	0.469072
C72	C	1.095160	0.000359	0.530995
C73	C	1.038306	0.039072	0.561960
C74	C	1.038323	0.039073	0.623865
N75	N	0.981467	0.077779	0.654833
C76	C	0.924613	0.116493	0.623882
C77	C	1.038318	0.039111	0.246166
C78	C	1.038325	0.039121	0.184248
C79	C	0.924611	0.116544	0.184265
C80	C	0.924609	0.116536	0.246184
C81	C	0.981462	0.077817	0.277134
C82	C	0.924626	0.116480	0.753910
C83	C	0.924636	0.116473	0.815831
C84	C	1.038346	0.039048	0.815808
C85	C	1.038339	0.039056	0.753892
C86	C	0.981471	0.077774	0.722945
O87	O	1.086665	0.006178	0.655930
O88	O	0.876255	0.149404	0.655916
H89	H	1.124713	-0.107389	0.000067
C90	C	0.805214	0.197792	0.565071
C91	C	0.710555	0.196805	0.556547
C92	C	0.648001	0.239383	0.590602
C93	C	0.680106	0.282949	0.633180
C94	C	0.774770	0.283938	0.641706
C95	C	0.837324	0.241359	0.607651
H96	H	0.686785	0.164554	0.525027
H97	H	0.577925	0.238651	0.584290
H98	H	0.633800	0.314468	0.658389
H99	H	0.798540	0.316189	0.673226
H100	H	0.907400	0.242092	0.613963
C101	C	0.390434	0.076719	0.112651
C102	C	0.295056	0.075569	0.112653
C103	C	0.247366	0.075003	0.171639
C104	C	0.295054	0.075588	0.230624
C105	C	0.390438	0.076739	0.230623
C106	C	0.438127	0.077304	0.171637
H107	H	0.259749	0.075135	0.068988
H108	H	0.176757	0.074152	0.171639
H109	H	0.259752	0.075170	0.274289
H110	H	0.425744	0.077172	0.274289
H111	H	0.508736	0.078156	0.171637
H112	H	0.878313	0.148059	0.271392
H113	H	1.122838	-0.215147	0.000046
H114	H	0.840123	-0.629251	0.000009
H115	H	0.560148	0.078754	0.097316
C116	C	1.134790	-0.772091	0.000020
C117	C	1.154914	-0.814798	0.051097
C118	C	1.237715	-0.854947	0.051096
C119	C	1.300392	-0.852389	0.000018
C120	C	1.280270	-0.809681	-0.051063
C121	C	1.197469	-0.769532	-0.051062
H122	H	1.108516	-0.816693	0.088912
H123	H	1.252611	-0.886562	0.088910
H124	H	1.361686	-0.882109	0.000018
H125	H	1.326668	-0.807786	-0.088877
H126	H	1.182573	-0.737916	-0.088876
H127	H	1.195738	-0.387437	0.000045
C128	C	0.862091	0.159057	0.849892
C129	C	0.862088	0.159057	0.918000
C130	C	0.799544	0.201639	0.952059
C131	C	0.737004	0.244220	0.918009
C132	C	0.737004	0.244221	0.849897
C133	C	0.799548	0.201640	0.815838
H134	H	0.908387	0.127535	0.943209
H135	H	0.799544	0.201638	1.002480
H136	H	0.690705	0.275742	0.943222
H137	H	0.690706	0.275744	0.824688
H138	H	0.799549	0.201641	0.765417
C139	C	0.572509	0.078873	-0.112576
C140	C	0.622277	0.129008	-0.127328
C141	C	0.669961	0.129571	-0.186317
C142	C	0.667878	0.079999	-0.230553
C143	C	0.618108	0.029861	-0.215801
C144	C	0.570423	0.029298	-0.156813
H145	H	0.623821	0.165708	-0.094581
H146	H	0.706804	0.166687	-0.197237
H147	H	0.703177	0.080416	-0.274220
H148	H	0.616564	-0.006839	-0.248548
H149	H	0.533580	-0.007819	-0.145893
H150	H	0.767219	-0.456951	-0.000008
H151	H	1.084629	0.007603	0.159041
H152	H	1.141456	-0.031173	0.556191
H153	H	0.847790	-0.190513	0.000050
H154	H	0.878318	0.148007	0.728719
C155	C	1.100881	-0.003538	0.849860
C156	C	1.100906	-0.003523	0.917968
C157	C	1.163437	-0.046113	0.952021
C158	C	1.225943	-0.088719	0.917966
C159	C	1.225921	-0.088736	0.849853
C160	C	1.163390	-0.046145	0.815801
H161	H	1.054634	0.028017	0.943181
H162	H	1.163454	-0.046100	1.002442
H163	H	1.272232	-0.120246	0.943173
H164	H	1.272193	-0.120276	0.824640
H165	H	1.163373	-0.046158	0.765379
H166	H	1.084621	0.007582	0.271362
C167	C	1.157703	-0.042224	0.435019
C168	C	1.156839	-0.107075	0.443532
C169	C	1.219375	-0.149667	0.409480
C170	C	1.282776	-0.127407	0.366914
C171	C	1.283642	-0.062552	0.358399
C172	C	1.221105	-0.019961	0.392452
H173	H	1.109904	-0.123557	0.475043
H174	H	1.218734	-0.197677	0.415783
H175	H	1.329069	-0.158936	0.341706
H176	H	1.330577	-0.046071	0.326888
H177	H	1.221747	0.028049	0.386148
C178	C	1.100883	-0.003524	0.719829
C179	C	1.100030	-0.068377	0.728339
C180	C	1.162570	-0.110963	0.694282
C181	C	1.225963	-0.088696	0.651716
C182	C	1.226819	-0.023840	0.643205
C183	C	1.164279	0.018746	0.677261
H184	H	1.053100	-0.084864	0.759851
H185	H	1.161935	-0.158974	0.700583
H186	H	1.272259	-0.120221	0.626505
H187	H	1.273749	-0.007354	0.611693
H188	H	1.164913	0.066757	0.670960
H189	H	1.193854	-0.495189	0.000035
C190	C	0.390417	0.076684	-0.112570
C191	C	0.438103	0.077244	-0.171554
C192	C	0.390412	0.076657	-0.230540
C193	C	0.295033	0.075510	-0.230542
C194	C	0.247341	0.074950	-0.171555
C195	C	0.295033	0.075537	-0.112569
H196	H	0.508713	0.078093	-0.171555
H197	H	0.425717	0.077071	-0.274206
H198	H	0.259729	0.075075	-0.274207
H199	H	0.176731	0.074101	-0.171554
H200	H	0.259727	0.075123	-0.068903
C201	C	0.747601	-0.338764	-0.000004
C202	C	0.684935	-0.341334	-0.051091
C203	C	0.602125	-0.301194	-0.051097
C204	C	0.581981	-0.258486	-0.000016
C205	C	0.644648	-0.255914	0.051075
C206	C	0.727458	-0.296053	0.051080
H207	H	0.699846	-0.372951	-0.088908
H208	H	0.555735	-0.303098	-0.088917
H209	H	0.520680	-0.228772	-0.000020
H210	H	0.629737	-0.224297	0.088891
H211	H	0.773848	-0.294150	0.088901
H212	H	1.115169	-0.653894	0.000029
H213	H	0.838242	-0.737007	0.000017
C214	C	0.828169	-0.072311	0.000040
C215	C	0.808060	-0.029610	-0.051043
C216	C	0.725262	0.010542	-0.051055
C217	C	0.662573	0.007992	0.000017
C218	C	0.682680	-0.034711	0.051104
C219	C	0.765479	-0.074863	0.051116
H220	H	0.854467	-0.027721	-0.088853
H221	H	0.710377	0.042154	-0.088873
H222	H	0.601281	0.037715	0.000008
H223	H	0.636273	-0.036600	0.088914
H224	H	0.780363	-0.106474	0.088934
H225	H	0.821458	0.186744	0.443903
H226	H	0.878317	0.148066	0.159054
