data_functionalizedCrystal
_audit_creation_method	'MofGen! by Chris Wilmer'
_symmetry_space_group_name_H-M	'P1'
_symmetry_Int_Tables_number	1
_symmetry_cell_setting	triclinic
loop_
_symmetry_equiv_pos_as_xyz
  x,y,z
_cell_length_a	27.732048
_cell_length_b	27.732048
_cell_length_c	26.210047
_cell_angle_alpha	89.996535
_cell_angle_beta	89.987768
_cell_angle_gamma	97.357346
loop_
_atom_site_label
_atom_site_type_symbol
_atom_site_fract_x
_atom_site_fract_y
_atom_site_fract_z
O1	O	-0.057510	0.640931	-0.042355
O2	O	0.442490	1.140931	0.457645
O3	O	-0.066256	0.500138	-0.042369
O4	O	0.433744	1.000138	0.457631
O5	O	0.008514	0.574907	-0.042369
O6	O	0.508514	1.074907	0.457631
O7	O	-0.132279	0.566162	-0.042356
O8	O	0.367721	1.066162	0.457644
O9	O	0.008502	0.574893	0.042489
O10	O	0.508502	1.074893	0.542489
O11	O	-0.066267	0.500123	0.042489
O12	O	0.433733	1.000123	0.542489
O13	O	-0.057522	0.640917	0.042503
O14	O	0.442478	1.140917	0.542503
Cu15	Cu	-0.061896	0.570519	0.050244
Cu16	Cu	0.438104	1.070519	0.550244
Cu17	Cu	-0.061882	0.570536	-0.050110
Cu18	Cu	0.438118	1.070536	0.449890
O19	O	-0.132291	0.566147	0.042502
O20	O	0.367709	1.066147	0.542502
C21	C	-0.066078	0.482124	0.000058
C22	C	0.433922	0.982124	0.500058
C23	C	-0.065525	0.428469	0.000052
C24	C	0.434475	0.928469	0.500052
C25	C	-0.106229	0.089654	0.000078
C26	C	0.393771	0.589654	0.500078
C27	C	-0.104178	-0.112006	0.000082
C28	C	0.395822	0.387994	0.500082
O29	O	-0.141398	-0.143262	0.000107
O30	O	0.358602	0.356738	0.500107
N31	N	-0.059843	-0.131130	0.000077
N32	N	0.440157	0.368870	0.500077
C33	C	-0.016017	-0.099835	0.000074
C34	C	0.483983	0.400165	0.500074
O35	O	0.021740	-0.120728	0.000076
O36	O	0.521740	0.379272	0.500076
C37	C	-0.018068	0.101824	0.000074
C38	C	0.481932	0.601824	0.500074
C39	C	-0.062407	0.120944	0.000073
C40	C	0.437593	0.620944	0.500073
C41	C	-0.150563	0.108775	0.000078
C42	C	0.349437	0.608775	0.500078
C43	C	-0.151076	0.159187	0.000074
C44	C	0.348924	0.659187	0.500074
C45	C	-0.107253	0.190477	0.000070
C46	C	0.392747	0.690477	0.500070
C47	C	-0.062919	0.171356	0.000070
C48	C	0.437081	0.671356	0.500070
C49	C	0.025757	0.133117	0.000075
C50	C	0.525757	0.633117	0.500075
C51	C	0.025240	0.183535	0.000076
C52	C	0.525240	0.683535	0.500076
C53	C	-0.019098	0.202655	0.000076
C54	C	0.480902	0.702655	0.500076
C55	C	-0.019609	0.253059	0.000062
C56	C	0.480391	0.753059	0.500062
N57	N	-0.063944	0.272183	0.000066
N58	N	0.436056	0.772183	0.500066
C59	C	-0.107766	0.240892	0.000071
C60	C	0.392234	0.740892	0.500071
C61	C	-0.014943	-0.205709	0.000074
C62	C	0.485057	0.294291	0.500074
C63	C	-0.014430	-0.256124	0.000073
C64	C	0.485570	0.243876	0.500073
C65	C	-0.102591	-0.268291	0.000082
C66	C	0.397409	0.231709	0.500082
C67	C	-0.103104	-0.217876	0.000079
C68	C	0.396896	0.282124	0.500079
C69	C	-0.059278	-0.186585	0.000079
C70	C	0.440722	0.313415	0.500079
C71	C	-0.108839	0.346761	0.000062
C72	C	0.391161	0.846761	0.500062
C73	C	-0.109347	0.397178	0.000056
C74	C	0.390653	0.897178	0.500056
C75	C	-0.021186	0.409341	0.000050
C76	C	0.478814	0.909341	0.500050
C77	C	-0.020678	0.358929	0.000054
C78	C	0.479322	0.858929	0.500054
C79	C	-0.064508	0.327639	0.000061
C80	C	0.435492	0.827639	0.500061
O81	O	0.017592	0.284343	0.000042
O82	O	0.517592	0.784343	0.500042
O83	O	-0.145518	0.261794	0.000081
O84	O	0.354482	0.761794	0.500081
C85	C	-0.105716	0.039242	0.000081
C86	C	0.394284	0.539242	0.500081
C87	C	-0.061382	0.020120	0.000081
C88	C	0.438618	0.520120	0.500081
C89	C	-0.017560	0.051411	0.000077
C90	C	0.482440	0.551411	0.500077
C91	C	-0.060869	-0.030294	0.000080
C92	C	0.439131	0.469706	0.500080
C93	C	-0.104691	-0.061585	0.000085
C94	C	0.395309	0.438415	0.500085
C95	C	-0.149026	-0.042461	0.000089
C96	C	0.350974	0.457539	0.500089
C97	C	-0.149539	0.007951	0.000086
C98	C	0.350461	0.507951	0.500086
C99	C	0.026775	0.032287	0.000072
C100	C	0.526775	0.532287	0.500072
C101	C	0.027284	-0.018125	0.000075
C102	C	0.527284	0.481875	0.500075
C103	C	-0.016538	-0.049416	0.000080
C104	C	0.483462	0.450584	0.500080
C105	C	-0.150292	0.566338	0.000075
C106	C	0.349708	1.066338	0.500075
C107	C	-0.203947	0.566891	0.000080
C108	C	0.296053	1.066891	0.500080
C109	C	-0.542762	0.526187	0.000051
C110	C	-0.042762	1.026187	0.500051
C111	C	-0.744422	0.528238	0.000045
C112	C	-0.244422	1.028238	0.500045
O113	O	-0.775677	0.491017	0.000019
O114	O	-0.275677	0.991017	0.500019
N115	N	-0.763546	0.572573	0.000050
N116	N	-0.263546	1.072573	0.500050
C117	C	-0.732251	0.616399	0.000054
C118	C	-0.232251	1.116399	0.500054
O119	O	-0.753144	0.654156	0.000053
O120	O	-0.253144	1.154156	0.500053
C121	C	-0.530592	0.614347	0.000056
C122	C	-0.030592	1.114347	0.500056
C123	C	-0.511472	0.570009	0.000056
C124	C	-0.011472	1.070009	0.500056
C125	C	-0.523641	0.481853	0.000051
C126	C	-0.023641	0.981853	0.500051
C127	C	-0.473229	0.481340	0.000055
C128	C	0.026771	0.981340	0.500055
C129	C	-0.441938	0.525162	0.000060
C130	C	0.058062	1.025162	0.500060
C131	C	-0.461060	0.569497	0.000060
C132	C	0.038940	1.069497	0.500060
C133	C	-0.499299	0.658172	0.000056
C134	C	0.000701	1.158172	0.500056
C135	C	-0.448881	0.657656	0.000055
C136	C	0.051119	1.157656	0.500055
C137	C	-0.429761	0.613317	0.000055
C138	C	0.070239	1.113317	0.500055
C139	C	-0.379357	0.612807	0.000069
C140	C	0.120643	1.112807	0.500069
N141	N	-0.360233	0.568472	0.000064
N142	N	0.139767	1.068472	0.500064
C143	C	-0.391524	0.524649	0.000059
C144	C	0.108476	1.024649	0.500059
C145	C	-0.838125	0.617473	0.000054
C146	C	-0.338125	1.117473	0.500054
C147	C	-0.888539	0.617986	0.000054
C148	C	-0.388539	1.117986	0.500054
C149	C	-0.900707	0.529825	0.000045
C150	C	-0.400707	1.029825	0.500045
C151	C	-0.850291	0.529312	0.000048
C152	C	-0.350291	1.029312	0.500048
C153	C	-0.819001	0.573138	0.000048
C154	C	-0.319001	1.073138	0.500048
C155	C	-0.285655	0.523577	0.000069
C156	C	0.214345	1.023577	0.500069
C157	C	-0.235238	0.523069	0.000075
C158	C	0.264762	1.023069	0.500075
C159	C	-0.223075	0.611229	0.000082
C160	C	0.276925	1.111229	0.500082
C161	C	-0.273487	0.611738	0.000078
C162	C	0.226513	1.111738	0.500078
C163	C	-0.304777	0.567908	0.000070
C164	C	0.195223	1.067908	0.500070
O165	O	-0.348073	0.650008	0.000090
O166	O	0.151927	1.150008	0.500090
O167	O	-0.370621	0.486898	0.000049
O168	O	0.129379	0.986898	0.500049
C169	C	-0.593174	0.526699	0.000047
C170	C	-0.093174	1.026699	0.500047
C171	C	-0.612295	0.571034	0.000048
C172	C	-0.112295	1.071034	0.500048
C173	C	-0.581005	0.614856	0.000052
C174	C	-0.081005	1.114856	0.500052
C175	C	-0.662710	0.571547	0.000048
C176	C	-0.162710	1.071547	0.500048
C177	C	-0.694001	0.527725	0.000043
C178	C	-0.194001	1.027725	0.500043
C179	C	-0.674877	0.483389	0.000038
C180	C	-0.174877	0.983389	0.500038
C181	C	-0.624465	0.482877	0.000042
C182	C	-0.124465	0.982877	0.500042
C183	C	-0.600129	0.659191	0.000058
C184	C	-0.100129	1.159191	0.500058
C185	C	-0.650541	0.659700	0.000054
C186	C	-0.150541	1.159700	0.500054
C187	C	-0.681832	0.615878	0.000049
C188	C	-0.181832	1.115878	0.500049
C189	C	0.026515	0.574716	0.000058
C190	C	0.526515	1.074716	0.500058
C191	C	0.080170	0.574164	0.000049
C192	C	0.580170	1.074164	0.500049
C193	C	-0.057699	0.658931	0.000075
C194	C	0.442301	1.158931	0.500075
C195	C	-0.058252	0.712586	0.000077
C196	C	0.441748	1.212586	0.500077
N197	N	-0.061905	0.570510	0.120828
N198	N	0.438095	1.070510	0.620828
N199	N	-0.061868	0.570548	-0.120694
N200	N	0.438132	1.070548	0.379306
C201	C	-0.028781	0.603640	0.473342
C202	C	0.471219	1.103640	0.973342
C203	C	-0.028774	0.603651	0.687001
C204	C	0.471226	1.103651	1.187001
O205	O	-0.000614	0.631801	0.714623
O206	O	0.499386	1.131801	1.214623
N207	N	-0.061871	0.570538	0.713722
N208	N	0.438129	1.070538	1.213722
C209	C	-0.094970	0.537419	0.687025
C210	C	0.405030	1.037419	1.187025
O211	O	-0.123117	0.509251	0.714655
O212	O	0.376883	1.009251	1.214655
C213	C	-0.094974	0.537406	0.473367
C214	C	0.405026	1.037406	0.973367
C215	C	-0.061878	0.570524	0.446649
C216	C	0.438122	1.070524	0.946649
C217	C	0.004312	0.636755	0.446624
C218	C	0.504312	1.136755	0.946624
C219	C	0.004308	0.636754	0.393213
C220	C	0.504308	1.136754	0.893213
C221	C	-0.028789	0.603638	0.366519
C222	C	0.471211	1.103638	0.866519
C223	C	-0.061882	0.570523	0.393238
C224	C	0.438118	1.070523	0.893238
C225	C	-0.128070	0.504284	0.446671
C226	C	0.371930	1.004284	0.946671
C227	C	-0.128067	0.504283	0.393253
C228	C	0.371933	1.004283	0.893253
C229	C	-0.094971	0.537401	0.366535
C230	C	0.405029	1.037401	0.866535
C231	C	-0.094983	0.537405	0.313133
C232	C	0.405017	1.037405	0.813133
N233	N	-0.061886	0.570518	0.286412
N234	N	0.438114	1.070518	0.786412
C235	C	-0.028789	0.603634	0.313105
C236	C	0.471211	1.103634	0.813105
C237	C	-0.094966	0.537428	0.799198
C238	C	0.405034	1.037428	1.299198
C239	C	-0.094965	0.537432	0.852612
C240	C	0.405035	1.037432	1.352612
C241	C	-0.028769	0.603664	0.852585
C242	C	0.471231	1.103664	1.352585
C243	C	-0.028773	0.603662	0.799170
C244	C	0.471227	1.103662	1.299170
C245	C	-0.061869	0.570541	0.772477
C246	C	0.438131	1.070541	1.272477
C247	C	-0.028800	0.603629	0.200937
C248	C	0.471200	1.103629	0.700937
C249	C	-0.028808	0.603626	0.147521
C250	C	0.471192	1.103626	0.647521
C251	C	-0.095002	0.537393	0.147553
C252	C	0.404998	1.037393	0.647553
C253	C	-0.094996	0.537397	0.200965
C254	C	0.405004	1.037397	0.700965
C255	C	-0.061891	0.570517	0.227656
C256	C	0.438109	1.070517	0.727656
O257	O	-0.123125	0.509267	0.285478
O258	O	0.376875	1.009267	0.785478
O259	O	-0.000639	0.631790	0.285466
O260	O	0.499361	1.131790	0.785466
C261	C	-0.028777	0.603641	0.526754
C262	C	0.471223	1.103641	1.026754
C263	C	-0.061871	0.570527	0.553472
C264	C	0.438129	1.070527	1.053472
C265	C	-0.094968	0.537410	0.526779
C266	C	0.405032	1.037410	1.026779
C267	C	-0.061870	0.570530	0.606886
C268	C	0.438130	1.070530	1.106886
C269	C	-0.028773	0.603646	0.633579
C270	C	0.471227	1.103646	1.133579
C271	C	0.004323	0.636759	0.606858
C272	C	0.504323	1.136759	1.106858
C273	C	0.004320	0.636758	0.553447
C274	C	0.504320	1.136758	1.053447
C275	C	-0.128064	0.504298	0.553500
C276	C	0.371936	1.004298	1.053500
C277	C	-0.128058	0.504302	0.606911
C278	C	0.371942	1.004302	1.106911
C279	C	-0.094961	0.537418	0.633604
C280	C	0.405039	1.037418	1.133604
H281	H	-0.145454	0.412743	0.000055
H282	H	0.354546	0.912743	0.500055
H283	H	0.031266	0.663722	0.468353
H284	H	0.531266	1.163722	0.968353
H285	H	-0.423407	0.693344	0.000053
H286	H	0.076593	1.193344	0.500053
H287	H	-0.121951	0.510432	0.125812
H288	H	0.378049	1.010432	0.625812
H289	H	-0.574656	0.694877	0.000061
H290	H	-0.074656	1.194877	0.500061
H291	H	-0.155015	0.477330	0.531770
H292	H	0.344985	0.977330	1.031770
H293	H	-0.139207	-0.202311	0.000081
H294	H	0.360793	0.297689	0.500081
H295	H	0.031259	0.663720	0.371462
H296	H	0.531259	1.163720	0.871462
H297	H	-0.904103	0.654090	0.000062
H298	H	-0.404103	1.154090	0.500062
H299	H	-0.186251	0.083302	0.000083
H300	H	0.313749	0.583302	0.500083
Br301	Br	-0.162064	-0.310766	0.000088
Br302	Br	0.337936	0.189234	0.500088
H303	H	-0.155013	0.477334	0.628661
H304	H	0.344987	0.977334	1.128661
Br305	Br	0.085934	0.107181	0.000064
Br306	Br	0.585934	0.607181	0.500064
Br307	Br	0.016108	0.648577	0.111263
Br308	Br	0.516108	1.148577	0.611263
Br309	Br	-0.209715	0.033892	0.000084
Br310	Br	0.290285	0.533892	0.500084
Br311	Br	0.049237	0.681706	0.517194
Br312	Br	0.549237	1.181706	1.017194
Br313	Br	0.084721	0.225997	0.000079
Br314	Br	0.584721	0.725997	0.500079
Br315	Br	0.039496	0.332978	0.000055
Br316	Br	0.539496	0.832978	0.500055
H317	H	0.021674	-0.271687	0.000065
H318	H	0.521674	0.228313	0.500065
H319	H	-0.608902	0.446773	0.000042
H320	H	-0.108902	0.946773	0.500042
Br321	Br	-0.172987	0.459337	0.482921
Br322	Br	0.327013	0.959337	0.982921
Br323	Br	-0.525235	0.718349	0.000044
Br324	Br	-0.025235	1.218349	0.500044
Br325	Br	-0.676483	0.719879	0.000055
Br326	Br	-0.176483	1.219879	0.500055
H327	H	0.031271	0.663725	0.628601
H328	H	0.531271	1.163725	1.128601
H329	H	0.014492	0.434827	0.000045
H330	H	0.514492	0.934827	0.500045
H331	H	-0.001821	0.630629	0.874327
H332	H	0.498179	1.130629	1.374327
H333	H	-0.155018	0.477311	0.371523
H334	H	0.344982	0.977311	0.871523
H335	H	-0.834727	0.493208	0.000050
H336	H	-0.334727	0.993208	0.500050
Br337	Br	0.044540	-0.163250	0.000074
Br338	Br	0.544540	0.336750	0.500074
H339	H	-0.184708	-0.067947	0.000091
H340	H	0.315292	0.432053	0.500091
Br341	Br	-0.299438	0.671911	0.000100
Br342	Br	0.200562	1.171911	0.500100
H343	H	0.063392	-0.033688	0.000072
H344	H	0.563392	0.466312	0.500072
Br345	Br	-0.447288	0.421164	0.000049
Br346	Br	0.052712	0.921164	0.500049
Br347	Br	-0.209292	0.462892	0.000078
Br348	Br	0.290708	0.962892	0.500078
H349	H	-0.700363	0.447708	0.000037
H350	H	-0.200363	0.947708	0.500037
Br351	Br	-0.566098	0.422371	0.000042
Br352	Br	-0.066098	0.922371	0.500042
Br353	Br	-0.139919	0.492457	0.237224
Br354	Br	0.360081	0.992457	0.737224
Br355	Br	-0.328111	0.464093	0.000058
Br356	Br	0.171889	0.964093	0.500058
H357	H	0.062462	0.057760	0.000070
H358	H	0.562462	0.557760	0.500070
H359	H	-0.812652	0.653163	0.000055
H360	H	-0.312652	1.153163	0.500055
Br361	Br	-0.943182	0.470352	0.000039
Br362	Br	-0.443182	0.970352	0.500039
Br363	Br	0.016129	0.648578	0.237152
Br364	Br	0.516129	1.148578	0.737152
Br365	Br	0.016144	0.648609	0.762915
Br366	Br	0.516144	1.148609	1.262915
H367	H	-0.121920	0.510469	0.874363
H368	H	0.378080	1.010469	1.374363
H369	H	-0.187180	0.174750	0.000074
H370	H	0.312820	0.674750	0.500074
H371	H	-0.197589	0.646908	0.000088
H372	H	0.302411	1.146908	0.500088
H373	H	-0.144530	0.321291	0.000070
H374	H	0.355470	0.821291	0.500070
Br375	Br	-0.139887	0.492475	0.762979
Br376	Br	0.360113	0.992475	1.262979
