data_functionalizedCrystal
_audit_creation_method	'MofGen! by Chris Wilmer'
_symmetry_space_group_name_H-M	'P1'
_symmetry_Int_Tables_number	1
_symmetry_cell_setting	triclinic
loop_
_symmetry_equiv_pos_as_xyz
  x,y,z
_cell_length_a	25.639242
_cell_length_b	25.639239
_cell_length_c	25.639234
_cell_angle_alpha	89.978894
_cell_angle_beta	89.980236
_cell_angle_gamma	90.034213
loop_
_atom_site_label
_atom_site_type_symbol
_atom_site_fract_x
_atom_site_fract_y
_atom_site_fract_z
Zn1	Zn	0.799213	-0.208265	-0.295742
Zn2	Zn	1.299213	0.291735	0.204258
Zn3	Zn	0.799140	-0.295687	-0.208307
Zn4	Zn	1.299140	0.204313	0.291693
Zn5	Zn	0.711793	-0.208261	-0.208306
Zn6	Zn	1.211793	0.291739	0.291694
Zn7	Zn	0.711734	-0.295664	-0.295696
Zn8	Zn	1.211734	0.204336	0.204304
O9	O	0.755470	-0.251969	-0.252013
O10	O	1.255470	0.248031	0.247987
O11	O	0.872368	-0.219873	-0.284163
O12	O	1.372368	0.280127	0.215837
O13	O	0.787547	-0.284098	-0.135141
O14	O	1.287547	0.215902	0.364859
O15	O	0.723444	-0.135096	-0.219924
O16	O	1.223444	0.364904	0.280076
O17	O	0.872315	-0.284102	-0.219924
O18	O	1.372315	0.215898	0.280076
O19	O	0.787671	-0.135099	-0.284163
O20	O	1.287671	0.364901	0.215837
O21	O	0.723373	-0.219866	-0.135141
O22	O	1.223373	0.280134	0.364859
O23	O	0.638620	-0.219844	-0.219880
O24	O	1.138620	0.280156	0.280120
O25	O	0.723344	-0.284062	-0.368868
O26	O	1.223344	0.215938	0.131132
O27	O	0.638577	-0.284058	-0.284085
O28	O	1.138577	0.215942	0.215915
O29	O	0.787614	-0.219850	-0.368901
O30	O	1.287614	0.280150	0.131099
O31	O	0.787490	-0.368849	-0.219880
O32	O	1.287490	0.131151	0.280120
O33	O	0.723274	-0.368832	-0.284085
O34	O	1.223274	0.131168	0.215915
C35	C	0.619627	-0.251948	-0.251977
C36	C	1.119627	0.248052	0.248023
C37	C	0.561513	-0.251952	-0.251975
C38	C	1.061513	0.248048	0.248025
C39	C	0.201137	-0.285462	-0.285413
C40	C	0.701137	0.214538	0.214587
C41	C	0.146532	-0.285465	-0.285421
C42	C	0.646532	0.214535	0.214579
O43	O	0.118284	-0.313930	-0.313821
O44	O	0.618284	0.186070	0.186179
N45	N	0.119231	-0.251983	-0.252047
N46	N	0.619231	0.248017	0.247953
C47	C	0.146536	-0.218493	-0.218666
C48	C	0.646536	0.281507	0.281334
O49	O	0.118300	-0.190014	-0.190280
O50	O	0.618300	0.309986	0.309720
C51	C	0.201140	-0.218487	-0.218661
C52	C	0.701140	0.281513	0.281339
C53	C	0.228438	-0.251975	-0.252034
C54	C	0.728438	0.248025	0.247966
C55	C	0.228435	-0.318946	-0.318783
C56	C	0.728435	0.181054	0.181217
C57	C	0.283036	-0.318943	-0.318774
C58	C	0.783036	0.181057	0.181226
C59	C	0.310338	-0.285456	-0.285395
C60	C	0.810338	0.214544	0.214605
C61	C	0.283039	-0.251972	-0.252024
C62	C	0.783039	0.248028	0.247976
C63	C	0.228444	-0.184995	-0.185283
C64	C	0.728444	0.315005	0.314717
C65	C	0.283051	-0.184992	-0.185281
C66	C	0.783051	0.315008	0.314719
C67	C	0.310350	-0.218479	-0.218654
C68	C	0.810350	0.281521	0.281346
C69	C	0.364941	-0.218483	-0.218636
C70	C	0.864941	0.281517	0.281364
N71	N	0.392243	-0.251964	-0.252010
N72	N	0.892243	0.248036	0.247990
C73	C	0.364941	-0.285451	-0.285389
C74	C	0.864941	0.214549	0.214611
C75	C	0.031866	-0.218506	-0.218680
C76	C	0.531866	0.281494	0.281320
C77	C	-0.022737	-0.218514	-0.218683
C78	C	0.477263	0.281486	0.281317
C79	C	-0.022737	-0.285485	-0.285438
C80	C	0.477263	0.214515	0.214562
C81	C	0.031866	-0.285480	-0.285433
C82	C	0.531866	0.214520	0.214567
C83	C	0.059167	-0.251988	-0.252054
C84	C	0.559167	0.248012	0.247946
C85	C	0.479606	-0.285443	-0.285368
C86	C	0.979606	0.214557	0.214632
C87	C	0.534211	-0.285439	-0.285354
C88	C	1.034211	0.214561	0.214646
C89	C	0.534207	-0.218466	-0.218601
C90	C	1.034207	0.281534	0.281399
C91	C	0.479606	-0.218472	-0.218612
C92	C	0.979606	0.281528	0.281388
C93	C	0.452307	-0.251962	-0.252000
C94	C	0.952307	0.248038	0.248000
O95	O	0.393224	-0.190030	-0.190252
O96	O	0.893224	0.309970	0.309748
O97	O	0.393184	-0.313920	-0.313776
O98	O	0.893184	0.186080	0.186224
C99	C	0.755382	-0.387812	-0.251989
C100	C	1.255382	0.112188	0.248011
C101	C	0.755392	-0.445926	-0.251996
C102	C	1.255392	0.054074	0.248004
C103	C	0.788995	-0.806285	-0.218638
C104	C	1.288995	-0.306285	0.281362
C105	C	0.789015	-0.860889	-0.218645
C106	C	1.289015	-0.360889	0.281355
O107	O	0.817494	-0.889123	-0.190257
O108	O	1.317494	-0.389123	0.309743
N109	N	0.755562	-0.888208	-0.252048
N110	N	1.255562	-0.388208	0.247952
C111	C	0.722090	-0.860920	-0.285449
C112	C	1.222090	-0.360920	0.214551
O113	O	0.693637	-0.889171	-0.313861
O114	O	1.193637	-0.389171	0.186139
C115	C	0.722073	-0.806317	-0.285444
C116	C	1.222073	-0.306317	0.214556
C117	C	0.755524	-0.779000	-0.252036
C118	C	1.255524	-0.279000	0.247964
C119	C	0.822444	-0.778969	-0.185233
C120	C	1.322444	-0.278969	0.314767
C121	C	0.822423	-0.724368	-0.185226
C122	C	1.322423	-0.224368	0.314774
C123	C	0.788952	-0.697084	-0.218623
C124	C	1.288952	-0.197084	0.281377
C125	C	0.755503	-0.724400	-0.252028
C126	C	1.255503	-0.224400	0.247972
C127	C	0.688604	-0.779029	-0.318847
C128	C	1.188604	-0.279029	0.181153
C129	C	0.688590	-0.724422	-0.318840
C130	C	1.188590	-0.224422	0.181160
C131	C	0.722041	-0.697106	-0.285432
C132	C	1.222041	-0.197106	0.214568
C133	C	0.722012	-0.642515	-0.285418
C134	C	1.222012	-0.142515	0.214582
N135	N	0.755465	-0.615196	-0.252016
N136	N	1.255465	-0.115196	0.247984
C137	C	0.788935	-0.642481	-0.218618
C138	C	1.288935	-0.142481	0.281382
C139	C	0.722129	-0.975590	-0.285457
C140	C	1.222129	-0.475590	0.214543
C141	C	0.722143	-1.030193	-0.285459
C142	C	1.222143	-0.530193	0.214541
C143	C	0.789069	-1.030158	-0.218656
C144	C	1.289069	-0.530158	0.281344
C145	C	0.789052	-0.975555	-0.218652
C146	C	1.289052	-0.475555	0.281348
C147	C	0.755582	-0.948272	-0.252055
C148	C	1.255582	-0.448272	0.247945
C149	C	0.788888	-0.527815	-0.218605
C150	C	1.288888	-0.027815	0.281395
C151	C	0.788862	-0.473210	-0.218599
C152	C	1.288862	0.026790	0.281401
C153	C	0.721939	-0.473249	-0.285403
C154	C	1.221939	0.026751	0.214597
C155	C	0.721962	-0.527850	-0.285408
C156	C	1.221962	-0.027850	0.214592
C157	C	0.755441	-0.555132	-0.252007
C158	C	1.255441	-0.055132	0.247993
O159	O	0.693549	-0.614247	-0.313793
O160	O	1.193549	-0.114247	0.186207
O161	O	0.817388	-0.614223	-0.190216
O162	O	1.317388	-0.114223	0.309784
C163	C	0.891843	-0.251990	-0.252049
C164	C	1.391843	0.248010	0.247951
C165	C	0.949957	-0.251999	-0.252064
C166	C	1.449957	0.248001	0.247936
C167	C	0.755481	-0.251954	-0.388386
C168	C	1.255481	0.248046	0.111614
C169	C	0.755486	-0.251948	-0.446500
C170	C	1.255486	0.248052	0.053500
C171	C	0.755572	-0.115596	-0.252048
C172	C	1.255572	0.384404	0.247952
C173	C	0.755616	-0.057482	-0.252064
C174	C	1.255616	0.442518	0.247936
C175	C	0.722055	-0.285317	-0.697670
C176	C	1.222055	0.214683	-0.197670
C177	C	0.722046	-0.285329	-0.643066
C178	C	1.222046	0.214671	-0.143066
O179	O	0.693572	-0.313753	-0.614810
O180	O	1.193572	0.186247	-0.114810
N181	N	0.755506	-0.251906	-0.615774
N182	N	1.255506	0.248094	-0.115774
C183	C	0.788973	-0.218465	-0.643089
C184	C	1.288973	0.281535	-0.143089
O185	O	0.817432	-0.190036	-0.614861
O186	O	1.317432	0.309964	-0.114861
C187	C	0.788979	-0.218451	-0.697692
C188	C	1.288979	0.281549	-0.197692
C189	C	0.755521	-0.251880	-0.724982
C190	C	1.255521	0.248120	-0.224982
C191	C	0.688599	-0.318744	-0.724960
C192	C	1.188599	0.181256	-0.224960
C193	C	0.688609	-0.318732	-0.779560
C194	C	1.188609	0.181268	-0.279560
C195	C	0.722075	-0.285295	-0.806871
C196	C	1.222075	0.214705	-0.306871
C197	C	0.755531	-0.251869	-0.779582
C198	C	1.255531	0.248131	-0.279582
C199	C	0.822443	-0.185007	-0.725007
C200	C	1.322443	0.314993	-0.225007
C201	C	0.822446	-0.184996	-0.779614
C202	C	1.322446	0.315004	-0.279614
C203	C	0.788988	-0.218425	-0.806903
C204	C	1.288988	0.281575	-0.306903
C205	C	0.789007	-0.218420	-0.861494
C206	C	1.289007	0.281580	-0.361494
N207	N	0.755547	-0.251843	-0.888786
N208	N	1.255547	0.248157	-0.388786
C209	C	0.722081	-0.285281	-0.861475
C210	C	1.222081	0.214719	-0.361475
C211	C	0.788957	-0.218496	-0.528418
C212	C	1.288957	0.281504	-0.028418
C213	C	0.788954	-0.218512	-0.473816
C214	C	1.288954	0.281488	0.026184
C215	C	0.722026	-0.285376	-0.473797
C216	C	1.222026	0.214624	0.026203
C217	C	0.722032	-0.285362	-0.528400
C218	C	1.222032	0.214638	-0.028400
C219	C	0.755497	-0.251919	-0.555710
C220	C	1.255497	0.248081	-0.055710
C221	C	0.722105	-0.285255	-0.976140
C222	C	1.222105	0.214745	-0.476140
C223	C	0.722120	-0.285243	-1.030745
C224	C	1.222120	0.214757	-0.530745
C225	C	0.789045	-0.218377	-1.030760
C226	C	1.289045	0.281623	-0.530760
C227	C	0.789033	-0.218391	-0.976159
C228	C	1.289033	0.281609	-0.476159
C229	C	0.755559	-0.251832	-0.948851
C230	C	1.255559	0.248168	-0.448851
O231	O	0.817465	-0.190009	-0.889785
O232	O	1.317465	0.309991	-0.389785
O233	O	0.693622	-0.313700	-0.889709
O234	O	1.193622	0.186300	-0.389709
C235	C	0.755489	-0.251946	-0.116170
C236	C	1.255489	0.248054	0.383830
C237	C	0.755585	-0.251805	-0.058057
C238	C	1.255585	0.248195	0.441943
H239	H	-0.044976	-0.312751	-0.312619
H240	H	0.455024	0.187249	0.187381
C241	C	0.796350	-0.148083	-0.914757
C242	C	1.296350	0.351917	-0.414757
C243	C	0.825816	-0.181657	-0.946154
C244	C	1.325816	0.318343	-0.446154
H245	H	0.819058	-0.125407	-0.896233
H246	H	1.319058	0.374593	-0.396233
H247	H	0.773598	-0.128072	-0.936058
H248	H	1.273598	0.371928	-0.436058
H249	H	0.776414	-0.168003	-0.890680
H250	H	1.276414	0.331997	-0.390680
H251	H	0.845749	-0.161737	-0.970233
H252	H	1.345749	0.338263	-0.470233
H253	H	0.848577	-0.201670	-0.924851
H254	H	1.348577	0.298330	-0.424851
C255	C	0.344462	-0.326301	-0.389090
C256	C	0.844462	0.173699	0.110910
C257	C	0.313038	-0.355747	-0.355466
C258	C	0.813038	0.144253	0.144534
H259	H	0.362983	-0.349023	-0.411743
H260	H	0.862983	0.150977	0.088257
H261	H	0.323179	-0.303552	-0.409124
H262	H	0.823179	0.196448	0.090876
H263	H	0.368541	-0.306364	-0.369206
H264	H	0.868541	0.193636	0.130794
H265	H	0.288956	-0.375681	-0.375350
H266	H	0.788956	0.124319	0.124650
H267	H	0.334322	-0.378505	-0.335429
H268	H	0.834322	0.121495	0.164571
H269	H	0.816212	-0.191264	-0.550651
H270	H	1.316212	0.308736	-0.050651
H271	H	0.206227	-0.157727	-0.158106
H272	H	0.706227	0.342273	0.341894
C273	C	0.829830	-0.840436	-0.114948
C274	C	1.329830	-0.340436	0.385052
C275	C	0.859257	-0.808976	-0.148555
C276	C	1.359257	-0.308976	0.351445
H277	H	0.852563	-0.858967	-0.092314
H278	H	1.352563	-0.358967	0.407686
H279	H	0.807077	-0.819178	-0.094893
H280	H	1.307077	-0.319178	0.405107
H281	H	0.809897	-0.864508	-0.134847
H282	H	1.309897	-0.364508	0.365153
H283	H	0.879187	-0.784902	-0.128656
H284	H	1.379187	-0.284902	0.371344
H285	H	0.882019	-0.830236	-0.168611
H286	H	1.382019	-0.330236	0.331389
C287	C	0.847954	-0.096474	-0.708247
C288	C	1.347954	0.403526	-0.208247
C289	C	0.859217	-0.148249	-0.695027
C290	C	1.359217	0.351751	-0.195027
H291	H	0.870655	-0.073777	-0.689739
H292	H	1.370655	0.426223	-0.189739
H293	H	0.852740	-0.091698	-0.744674
H294	H	1.352740	0.408302	-0.244674
H295	H	0.812827	-0.088832	-0.699285
H296	H	1.312827	0.411168	-0.199285
H297	H	0.894342	-0.155892	-0.703993
H298	H	1.394342	0.344108	-0.203993
H299	H	0.854435	-0.153027	-0.658592
H300	H	1.354435	0.346973	-0.158592
H301	H	0.457379	-0.191205	-0.191436
H302	H	0.957379	0.308795	0.308564
C303	C	0.093236	-0.355819	-0.292571
C304	C	0.593236	0.144181	0.207429
C305	C	0.061870	-0.322287	-0.322120
C306	C	0.561870	0.177713	0.177880
H307	H	0.111754	-0.378544	-0.315223
H308	H	0.611754	0.121456	0.184777
H309	H	0.117314	-0.335875	-0.272699
H310	H	0.617314	0.164125	0.227301
H311	H	0.071911	-0.375785	-0.269756
H312	H	0.571911	0.124215	0.230244
H313	H	0.083196	-0.302318	-0.344932
H314	H	0.583196	0.197682	0.155068
H315	H	0.037790	-0.342232	-0.342001
H316	H	0.537790	0.157768	0.157999
H317	H	0.556446	-0.191204	-0.191422
H318	H	1.056446	0.308796	0.308578
C319	C	0.892792	-0.177720	-0.841033
C320	C	1.392792	0.322280	-0.341033
C321	C	0.859233	-0.148235	-0.809634
C322	C	1.359233	0.351765	-0.309634
H323	H	0.915500	-0.155025	-0.859567
H324	H	1.415500	0.344975	-0.359567
H325	H	0.912770	-0.200502	-0.819731
H326	H	1.412770	0.299498	-0.319731
H327	H	0.872864	-0.197623	-0.865100
H328	H	1.372864	0.302377	-0.365100
H329	H	0.879162	-0.128334	-0.785564
H330	H	1.379162	0.371666	-0.285564
H331	H	0.839253	-0.125444	-0.830937
H332	H	1.339253	0.374556	-0.330937
C333	C	0.818764	-0.188673	-1.114477
C334	C	1.318764	0.311327	-0.614477
C335	C	0.825828	-0.181622	-1.060788
C336	C	1.325828	0.318378	-0.560788
H337	H	0.841469	-0.165977	-1.133014
H338	H	1.341469	0.334023	-0.633014
H339	H	0.826394	-0.223797	-1.123417
H340	H	1.326394	0.276203	-0.623417
H341	H	0.783638	-0.181016	-1.123411
H342	H	1.283638	0.318984	-0.623411
H343	H	0.860953	-0.189282	-1.051853
H344	H	1.360953	0.310718	-0.551853
H345	H	0.818202	-0.146490	-1.051844
H346	H	1.318202	0.353510	-0.551844
C347	C	0.233934	-0.385147	-0.384758
C348	C	0.733934	0.114853	0.115242
C349	C	0.198432	-0.355762	-0.355475
C350	C	0.698432	0.144238	0.144525
H351	H	0.215413	-0.407882	-0.407406
H352	H	0.715413	0.092118	0.092594
H353	H	0.255248	-0.362392	-0.404796
H354	H	0.755248	0.137608	0.095204
H355	H	0.255214	-0.405103	-0.361929
H356	H	0.755214	0.094897	0.138071
H357	H	0.177154	-0.335803	-0.378304
H358	H	0.677154	0.164197	0.121696
H359	H	0.177109	-0.378520	-0.335435
H360	H	0.677109	0.121480	0.164565
H361	H	0.694870	-0.953379	-0.312656
H362	H	1.194870	-0.453379	0.187344
C363	C	0.528718	-0.351637	-0.351344
C364	C	1.028718	0.148363	0.148656
C365	C	0.564217	-0.322248	-0.322043
C366	C	1.064217	0.177752	0.177957
H367	H	0.547242	-0.374357	-0.373996
H368	H	1.047242	0.125643	0.126004
H369	H	0.507401	-0.371604	-0.328531
H370	H	1.007401	0.128396	0.171469
H371	H	0.507442	-0.328879	-0.371385
H372	H	1.007442	0.171121	0.128615
H373	H	0.585491	-0.345006	-0.301999
H374	H	1.085491	0.154994	0.198001
H375	H	0.585544	-0.302280	-0.344858
H376	H	1.085544	0.197720	0.155142
H377	H	0.816204	-0.191296	-0.451602
H378	H	1.316204	0.308704	0.048398
H379	H	0.457386	-0.312713	-0.312556
H380	H	0.957386	0.187287	0.187444
C381	C	0.093239	-0.211135	-0.148350
C382	C	0.593239	0.288865	0.351650
C383	C	0.061874	-0.181696	-0.181981
C384	C	0.561874	0.318304	0.318019
H385	H	0.111765	-0.188408	-0.125697
H386	H	0.611765	0.311592	0.374303
H387	H	0.071917	-0.233886	-0.128317
H388	H	0.571917	0.266114	0.371683
H389	H	0.117314	-0.231069	-0.168230
H390	H	0.617314	0.268931	0.331770
H391	H	0.037796	-0.161764	-0.162101
H392	H	0.537796	0.338236	0.337899
H393	H	0.083199	-0.158936	-0.202016
H394	H	0.583199	0.341064	0.297984
H395	H	0.661361	-0.801261	-0.346049
H396	H	1.161361	-0.301261	0.153951
H397	H	0.694686	-0.451026	-0.312594
H398	H	1.194686	0.048974	0.187406
H399	H	-0.044959	-0.191250	-0.191502
H400	H	0.455041	0.308750	0.308498
H401	H	0.305277	-0.157715	-0.158103
H402	H	0.805277	0.342285	0.341897
C403	C	0.855021	-0.478669	-0.152568
C404	C	1.355021	0.021331	0.347432
C405	C	0.825637	-0.443185	-0.181876
C406	C	1.325637	0.056815	0.318124
H407	H	0.877726	-0.460133	-0.129901
H408	H	1.377726	0.039867	0.370099
H409	H	0.832264	-0.499997	-0.132548
H410	H	1.332264	0.000003	0.367452
H411	H	0.875009	-0.499937	-0.175379
H412	H	1.375009	0.000063	0.324621
H413	H	0.805647	-0.421920	-0.159064
H414	H	1.305647	0.078080	0.340936
H415	H	0.848398	-0.421848	-0.201897
H416	H	1.348398	0.078152	0.298103
C417	C	0.655866	-0.351468	-0.479249
C418	C	1.155866	0.148532	0.020751
C419	C	0.685235	-0.322129	-0.443770
C420	C	1.185235	0.177871	0.056230
H421	H	0.633157	-0.374158	-0.460709
H422	H	1.133157	0.125842	0.039291
H423	H	0.635888	-0.328681	-0.500545
H424	H	1.135888	0.171319	-0.000545
H425	H	0.678636	-0.371470	-0.500548
H426	H	1.178636	0.128530	-0.000548
H427	H	0.662465	-0.302125	-0.422472
H428	H	1.162465	0.197875	0.077528
H429	H	0.705214	-0.344919	-0.422464
H430	H	1.205214	0.155081	0.077536
C431	C	0.859267	-0.589133	-0.211424
C432	C	1.359267	-0.089133	0.288576
C433	C	0.825696	-0.557792	-0.181894
C434	C	1.325696	-0.057792	0.318106
H435	H	0.881994	-0.607635	-0.188759
H436	H	1.381994	-0.107635	0.311241
H437	H	0.839353	-0.613225	-0.231307
H438	H	1.339353	-0.113225	0.268693
H439	H	0.879230	-0.567793	-0.234227
H440	H	1.379230	-0.067793	0.265773
H441	H	0.805731	-0.579133	-0.159093
H442	H	1.305731	-0.079133	0.340907
H443	H	0.845613	-0.533698	-0.162002
H444	H	1.345613	-0.033698	0.337998
C445	C	0.888584	-0.729836	-0.119205
C446	C	1.388584	-0.229836	0.380795
C447	C	0.859202	-0.694347	-0.148510
C448	C	1.359202	-0.194347	0.351490
H449	H	0.911295	-0.711304	-0.096541
H450	H	1.411295	-0.211304	0.403459
H451	H	0.865825	-0.751160	-0.099182
H452	H	1.365825	-0.251160	0.400818
H453	H	0.908565	-0.751107	-0.142019
H454	H	1.408565	-0.251107	0.357981
H455	H	0.839218	-0.673079	-0.125696
H456	H	1.339218	-0.173079	0.374304
H457	H	0.881964	-0.673014	-0.168534
H458	H	1.381964	-0.173014	0.331466
H459	H	0.816292	-0.953318	-0.191448
H460	H	1.316292	-0.453318	0.308552
H461	H	0.694787	-0.312583	-0.550615
H462	H	1.194787	0.187417	-0.050615
C463	C	0.818877	-1.113851	-0.189076
C464	C	1.318877	-0.613851	0.310924
C465	C	0.825908	-1.060157	-0.181991
C466	C	1.325908	-0.560157	0.318009
H467	H	0.841634	-1.132371	-0.166456
H468	H	1.341634	-0.632371	0.333544
H469	H	0.783775	-1.122854	-0.181344
H470	H	1.283775	-0.622854	0.318656
H471	H	0.826464	-1.122744	-0.224233
H472	H	1.326464	-0.622744	0.275767
H473	H	0.818318	-1.051263	-0.146835
H474	H	1.318318	-0.551263	0.353165
H475	H	0.861018	-1.051150	-0.189719
H476	H	1.361018	-0.551150	0.310281
C477	C	0.655990	-1.024728	-0.351490
C478	C	1.155990	-0.524728	0.148510
C479	C	0.685369	-1.060215	-0.322180
C480	C	1.185369	-0.560215	0.177820
H481	H	0.633291	-1.043263	-0.374164
H482	H	1.133291	-0.543263	0.125836
H483	H	0.636002	-1.003464	-0.328684
H484	H	1.136002	-0.503464	0.171316
H485	H	0.678755	-1.003397	-0.371507
H486	H	1.178755	-0.503397	0.128493
H487	H	0.662604	-1.081543	-0.302159
H488	H	1.162604	-0.581543	0.197841
H489	H	0.705359	-1.081488	-0.344989
H490	H	1.205359	-0.581488	0.155011
C491	C	0.622444	-0.729945	-0.384880
C492	C	1.122444	-0.229945	0.115120
C493	C	0.651798	-0.694433	-0.355559
C494	C	1.151798	-0.194433	0.144441
H495	H	0.599729	-0.711431	-0.407545
H496	H	1.099729	-0.211431	0.092455
H497	H	0.645220	-0.751210	-0.404901
H498	H	1.145220	-0.251210	0.095099
H499	H	0.602468	-0.751273	-0.362076
H500	H	1.102468	-0.251273	0.137924
H501	H	0.671776	-0.673108	-0.378363
H502	H	1.171776	-0.173108	0.121637
H503	H	0.629019	-0.673160	-0.335536
H504	H	1.129019	-0.173160	0.164464
H505	H	0.661344	-0.345972	-0.702729
H506	H	1.161344	0.154028	-0.202729
C507	C	0.655810	-0.522396	-0.351442
C508	C	1.155810	-0.022396	0.148558
C509	C	0.685192	-0.557879	-0.322130
C510	C	1.185192	-0.057879	0.177870
H511	H	0.633115	-0.540933	-0.374118
H512	H	1.133115	-0.040933	0.125882
H513	H	0.635816	-0.501136	-0.328637
H514	H	1.135816	-0.001136	0.171363
H515	H	0.678573	-0.501061	-0.371457
H516	H	1.178573	-0.001061	0.128543
H517	H	0.662429	-0.579211	-0.302112
H518	H	1.162429	-0.079211	0.197888
H519	H	0.705187	-0.579148	-0.344938
H520	H	1.205187	-0.079148	0.155062
C521	C	0.692419	-0.314929	-1.114437
C522	C	1.192419	0.185071	-0.614437
C523	C	0.685343	-0.321993	-1.060742
C524	C	1.185343	0.178007	-0.560742
H525	H	0.669718	-0.337620	-1.132953
H526	H	1.169718	0.162380	-0.632953
H527	H	0.684790	-0.279803	-1.123391
H528	H	1.184790	0.220197	-0.623391
H529	H	0.727546	-0.322583	-1.123384
H530	H	1.227546	0.177417	-0.623384
H531	H	0.650216	-0.314336	-1.051794
H532	H	1.150216	0.185664	-0.551794
H533	H	0.692968	-0.357128	-1.051784
H534	H	1.192968	0.142872	-0.551784
H535	H	0.694842	-0.312481	-0.953912
H536	H	1.194842	0.187519	-0.453912
C537	C	0.622449	-0.384817	-0.774039
C538	C	1.122449	0.115183	-0.274039
C539	C	0.651824	-0.355473	-0.809552
C540	C	1.151824	0.144527	-0.309552
H541	H	0.599735	-0.407496	-0.792553
H542	H	1.099735	0.092504	-0.292553
H543	H	0.645212	-0.404826	-0.752748
H544	H	1.145212	0.095174	-0.252748
H545	H	0.602472	-0.362029	-0.752738
H546	H	1.102472	0.137971	-0.252738
H547	H	0.671804	-0.378261	-0.830850
H548	H	1.171804	0.121739	-0.330850
H549	H	0.629058	-0.335463	-0.830852
H550	H	1.129058	0.164537	-0.330852
