data_functionalizedCrystal
_audit_creation_method	'MofGen! by Chris Wilmer'
_symmetry_space_group_name_H-M	'P1'
_symmetry_Int_Tables_number	1
_symmetry_cell_setting	triclinic
loop_
_symmetry_equiv_pos_as_xyz
  x,y,z
_cell_length_a	11.169417
_cell_length_b	18.215405
_cell_length_c	18.215387
_cell_angle_alpha	89.908406
_cell_angle_beta	89.942747
_cell_angle_gamma	90.025764
loop_
_atom_site_label
_atom_site_type_symbol
_atom_site_fract_x
_atom_site_fract_y
_atom_site_fract_z
Zn1	Zn	1.835285	-0.292531	-0.416035
Zn2	Zn	2.335285	0.207469	0.083965
Zn3	Zn	1.834992	-0.415734	-0.292963
Zn4	Zn	2.334992	0.084266	0.207037
Zn5	Zn	1.634439	-0.292687	-0.292990
Zn6	Zn	2.134439	0.207313	0.207010
Zn7	Zn	1.634527	-0.415562	-0.415995
Zn8	Zn	2.134527	0.084438	0.084005
O9	O	1.734811	-0.354129	-0.354496
O10	O	2.234811	0.145871	0.145504
O11	O	2.003195	-0.308881	-0.399714
O12	O	2.503195	0.191119	0.100286
O13	O	1.808229	-0.399548	-0.189982
O14	O	2.308229	0.100452	0.310018
O15	O	1.661168	-0.189682	-0.309339
O16	O	2.161168	0.310318	0.190661
O17	O	2.002980	-0.399397	-0.309294
O18	O	2.502980	0.100603	0.190706
O19	O	1.808728	-0.189568	-0.399740
O20	O	2.308728	0.310432	0.100260
O21	O	1.660884	-0.309147	-0.190001
O22	O	2.160884	0.190853	0.309999
O23	O	1.466501	-0.308981	-0.309301
O24	O	1.966501	0.191019	0.190699
O25	O	1.661317	-0.399105	-0.518985
O26	O	2.161317	0.100895	-0.018985
O27	O	1.466566	-0.399257	-0.399673
O28	O	1.966566	0.100743	0.100327
O29	O	1.808813	-0.308715	-0.519014
O30	O	2.308813	0.191285	-0.019014
O31	O	1.808314	-0.518695	-0.309256
O32	O	2.308314	-0.018695	0.190744
O33	O	1.661033	-0.518570	-0.399647
O34	O	2.161033	-0.018570	0.100353
C35	C	1.422986	-0.354118	-0.354486
C36	C	1.922986	0.145882	0.145514
C37	C	1.289586	-0.354130	-0.354500
C38	C	1.789586	0.145870	0.145500
C39	C	1.734684	-0.545335	-0.354460
C40	C	2.234684	-0.045335	0.145540
C41	C	1.734739	-0.627134	-0.354470
C42	C	2.234739	-0.127134	0.145530
C43	C	1.811609	-0.815369	-0.307489
C44	C	2.311609	-0.315369	0.192511
C45	C	1.811662	-0.892227	-0.307507
C46	C	2.311662	-0.392227	0.192493
C47	C	1.658166	-0.892137	-0.401555
C48	C	2.158166	-0.392137	0.098445
C49	C	1.658119	-0.815279	-0.401540
C50	C	2.158119	-0.315279	0.098460
C51	C	1.734839	-0.776897	-0.354503
C52	C	2.234839	-0.276897	0.145497
C53	C	1.734939	-0.930613	-0.354536
C54	C	2.234939	-0.430613	0.145464
C55	C	1.734997	-1.013947	-0.354555
C56	C	2.234997	-0.513947	0.145445
C57	C	1.734783	-0.693558	-0.354484
C58	C	2.234783	-0.193558	0.145516
C59	C	2.047853	-0.354140	-0.354506
C60	C	2.547853	0.145860	0.145494
C61	C	2.181253	-0.354145	-0.354510
C62	C	2.681253	0.145855	0.145490
C63	C	1.735107	-0.353873	-0.546449
C64	C	2.235107	0.146127	-0.046449
C65	C	1.735234	-0.353765	-0.628248
C66	C	2.235234	0.146235	-0.128248
C67	C	1.734971	-0.162176	-0.354547
C68	C	2.234971	0.337824	0.145453
C69	C	1.735039	-0.080377	-0.354569
C70	C	2.235039	0.419623	0.145431
C71	C	1.734584	-0.354330	-0.163289
C72	C	2.234584	0.145670	0.336711
C73	C	1.734690	-0.354231	-0.081490
C74	C	2.234690	0.145769	0.418510
C75	C	1.657745	-0.307231	0.183522
C76	C	2.157745	0.192769	0.683522
C77	C	1.657649	-0.307311	0.106663
C78	C	2.157649	0.192689	0.606663
C79	C	1.812183	-0.400770	0.106745
C80	C	2.312183	0.099230	0.606745
C81	C	1.812271	-0.400693	0.183602
C82	C	2.312271	0.099307	0.683602
C83	C	1.735054	-0.353919	0.221989
C84	C	2.235054	0.146081	0.721989
C85	C	1.734870	-0.354076	0.068273
C86	C	2.234870	0.145924	0.568273
C87	C	1.734768	-0.354164	-0.015061
C88	C	2.234768	0.145836	0.484939
C89	C	1.735154	-0.353833	0.305327
C90	C	2.235154	0.146167	0.805327
H91	H	1.874178	-0.923547	-0.269225
H92	H	2.374178	-0.423547	0.230775
H93	H	1.595604	-0.783954	-0.439828
H94	H	2.095604	-0.283954	0.060172
H95	H	1.874080	-0.784120	-0.269190
H96	H	2.374080	-0.284120	0.230810
H97	H	1.594869	-0.269145	0.214774
H98	H	2.094869	0.230855	0.714774
N99	N	1.574262	-0.256958	0.065173
N100	N	2.074262	0.243042	0.565173
H101	H	1.525361	-0.227318	0.101156
H102	H	2.025361	0.272682	0.601156
H103	H	1.622704	-0.222721	0.033142
H104	H	2.122704	0.277279	0.533142
H105	H	1.875051	-0.438851	0.075481
H106	H	2.375051	0.061149	0.575481
H107	H	1.875228	-0.438715	0.214923
H108	H	2.375228	0.061285	0.714923
H109	H	1.595702	-0.923396	-0.439849
H110	H	2.095702	-0.423396	0.060151
