data_functionalizedCrystal
_audit_creation_method	'MofGen! by Chris Wilmer'
_symmetry_space_group_name_H-M	'P1'
_symmetry_Int_Tables_number	1
_symmetry_cell_setting	triclinic
loop_
_symmetry_equiv_pos_as_xyz
  x,y,z
_cell_length_a	16.959455
_cell_length_b	25.639239
_cell_length_c	16.959447
_cell_angle_alpha	90.033076
_cell_angle_beta	90.014322
_cell_angle_gamma	90.035633
loop_
_atom_site_label
_atom_site_type_symbol
_atom_site_fract_x
_atom_site_fract_y
_atom_site_fract_z
Zn1	Zn	1.208282	-0.208183	0.446894
Zn2	Zn	1.708282	0.291817	0.946894
Zn3	Zn	1.208161	-0.295624	0.314709
Zn4	Zn	1.708161	0.204376	0.814709
Zn5	Zn	1.076110	-0.208199	0.314731
Zn6	Zn	1.576110	0.291801	0.814731
Zn7	Zn	1.076032	-0.295585	0.446847
Zn8	Zn	1.576032	0.204415	0.946847
O9	O	1.142146	-0.251898	0.380795
O10	O	1.642146	0.248102	0.880795
O11	O	1.318876	-0.219792	0.429369
O12	O	1.818876	0.280208	0.929369
O13	O	1.190627	-0.284050	0.204101
O14	O	1.690627	0.215950	0.704101
O15	O	1.093726	-0.135032	0.332291
O16	O	1.593726	0.364968	0.832291
O17	O	1.318788	-0.284034	0.332253
O18	O	1.818788	0.215966	0.832253
O19	O	1.190832	-0.135020	0.429391
O20	O	1.690832	0.364980	0.929391
O21	O	1.093609	-0.219820	0.204117
O22	O	1.593609	0.280180	0.704117
O23	O	0.965489	-0.219782	0.332247
O24	O	1.465489	0.280218	0.832247
O25	O	1.093593	-0.283967	0.557464
O26	O	1.593593	0.216033	1.057464
O27	O	0.965431	-0.283983	0.429312
O28	O	1.465431	0.216017	0.929312
O29	O	1.190756	-0.219754	0.557498
O30	O	1.690756	0.280246	1.057498
O31	O	1.190551	-0.368784	0.332208
O32	O	1.690551	0.131216	0.832208
O33	O	1.093476	-0.368755	0.429290
O34	O	1.593476	0.131245	0.929290
C35	C	0.936780	-0.251880	0.380777
C36	C	1.436780	0.248120	0.880777
C37	C	0.848923	-0.251886	0.380788
C38	C	1.348923	0.248114	0.880788
C39	C	0.477453	-0.218441	0.330359
C40	C	0.977453	0.281559	0.830359
C41	C	0.477442	-0.285398	0.431277
C42	C	0.977442	0.214602	0.931277
C43	C	0.559988	-0.285390	0.431272
C44	C	1.059988	0.214610	0.931272
C45	C	0.601270	-0.251908	0.380809
C46	C	1.101270	0.248092	0.880809
C47	C	0.560007	-0.218433	0.330351
C48	C	1.060007	0.281567	0.830351
C49	C	0.601258	-0.318868	0.481723
C50	C	1.101258	0.181132	0.981723
C51	C	0.683809	-0.318863	0.481720
C52	C	1.183809	0.181137	0.981720
C53	C	0.725092	-0.285377	0.431260
C54	C	1.225092	0.214623	0.931260
C55	C	0.683824	-0.251901	0.380801
C56	C	1.183824	0.248099	0.880801
C57	C	0.725106	-0.218418	0.330338
C58	C	1.225106	0.281582	0.830338
C59	C	0.683839	-0.184939	0.279882
C60	C	1.183839	0.315061	0.779882
C61	C	0.601290	-0.184948	0.279891
C62	C	1.101290	0.315052	0.779891
C63	C	0.807641	-0.285368	0.431251
C64	C	1.307641	0.214632	0.931251
C65	C	0.807660	-0.218411	0.330330
C66	C	1.307660	0.281589	0.830330
C67	C	1.142013	-0.387740	0.380759
C68	C	1.642013	0.112260	0.880759
C69	C	1.142029	-0.445854	0.380770
C70	C	1.642029	0.054146	0.880770
C71	C	1.192825	-0.806220	0.330331
C72	C	1.692825	-0.306220	0.830331
C73	C	1.192855	-0.860824	0.330341
C74	C	1.692855	-0.360824	0.830341
O75	O	1.235906	-0.889063	0.287417
O76	O	1.735906	-0.389063	0.787417
N77	N	1.142285	-0.888137	0.380847
N78	N	1.642285	-0.388137	0.880847
C79	C	1.091686	-0.860842	0.431352
C80	C	1.591686	-0.360842	0.931352
O81	O	1.048675	-0.889088	0.474313
O82	O	1.548675	-0.389088	0.974313
C83	C	1.091660	-0.806239	0.431345
C84	C	1.591660	-0.306239	0.931345
C85	C	1.142228	-0.778929	0.380830
C86	C	1.642228	-0.278929	0.880830
C87	C	1.243389	-0.778910	0.279820
C88	C	1.743389	-0.278910	0.779820
C89	C	1.243358	-0.724309	0.279809
C90	C	1.743358	-0.224309	0.779809
C91	C	1.192761	-0.697019	0.330308
C92	C	1.692761	-0.197019	0.830308
C93	C	1.142196	-0.724329	0.380818
C94	C	1.642196	-0.224329	0.880818
C95	C	1.041066	-0.778946	0.481853
C96	C	1.541066	-0.278946	0.981853
C97	C	1.041045	-0.724339	0.481842
C98	C	1.541045	-0.224339	0.981842
C99	C	1.091613	-0.697029	0.431326
C100	C	1.591613	-0.197029	0.931326
C101	C	1.091568	-0.642437	0.431306
C102	C	1.591568	-0.142437	0.931306
N103	N	1.142139	-0.615125	0.380800
N104	N	1.642139	-0.115125	0.880800
C105	C	1.192735	-0.642415	0.330301
C106	C	1.692735	-0.142415	0.830301
C107	C	1.091746	-0.975513	0.431364
C108	C	1.591746	-0.475513	0.931364
C109	C	1.091767	-1.030115	0.431368
C110	C	1.591767	-0.530115	0.931368
C111	C	1.192938	-1.030093	0.330358
C112	C	1.692938	-0.530093	0.830358
C113	C	1.192912	-0.975490	0.330351
C114	C	1.692912	-0.475490	0.830351
C115	C	1.142316	-0.948200	0.380858
C116	C	1.642316	-0.448200	0.880858
C117	C	1.192664	-0.527750	0.330280
C118	C	1.692664	-0.027750	0.830280
C119	C	1.192625	-0.473145	0.330271
C120	C	1.692625	0.026855	0.830271
C121	C	1.091458	-0.473172	0.431283
C122	C	1.591458	0.026828	0.931283
C123	C	1.091493	-0.527772	0.431290
C124	C	1.591493	-0.027772	0.931290
C125	C	1.142103	-0.555060	0.380786
C126	C	1.642103	-0.055060	0.880786
O127	O	1.048541	-0.614164	0.474211
O128	O	1.548541	-0.114164	0.974211
O129	O	1.235746	-0.614163	0.287355
O130	O	1.735746	-0.114163	0.787355
C131	C	1.348314	-0.251915	0.380814
C132	C	1.848314	0.248085	0.880814
C133	C	1.436171	-0.251923	0.380822
C134	C	1.936171	0.248077	0.880822
C135	C	1.142179	-0.251854	0.586963
C136	C	1.642179	0.248146	1.086963
C137	C	1.142193	-0.251836	0.674820
C138	C	1.642193	0.248164	1.174820
C139	C	1.142301	-0.115525	0.380849
C140	C	1.642301	0.384475	0.880849
C141	C	1.142367	-0.057411	0.380872
C142	C	1.642367	0.442589	0.880872
C143	C	1.142159	-0.251903	0.175429
C144	C	1.642159	0.248097	0.675429
C145	C	1.142298	-0.251774	0.087573
C146	C	1.642298	0.248226	0.587573
C147	C	1.091699	-0.285214	1.046281
C148	C	1.591699	0.214786	1.546281
C149	C	1.192876	-0.218348	1.046311
C150	C	1.692876	0.281652	1.546311
C151	C	1.192855	-0.218359	0.963765
C152	C	1.692855	0.281641	1.463765
C153	C	1.142256	-0.251799	0.922473
C154	C	1.642256	0.248201	1.422473
C155	C	1.091678	-0.285227	0.963727
C156	C	1.591678	0.214773	1.463727
C157	C	1.243438	-0.184935	0.922505
C158	C	1.743438	0.315065	1.422505
C159	C	1.243419	-0.184945	0.839954
C160	C	1.743419	0.315055	1.339954
C161	C	1.192816	-0.218382	0.798661
C162	C	1.692816	0.281618	1.298661
C163	C	1.142235	-0.251812	0.839920
C164	C	1.642235	0.248188	1.339920
C165	C	1.091636	-0.285251	0.798628
C166	C	1.591636	0.214749	1.298628
C167	C	1.041051	-0.318679	0.839885
C168	C	1.541051	0.181321	1.339885
C169	C	1.041074	-0.318665	0.922433
C170	C	1.541074	0.181335	1.422433
C171	C	1.192792	-0.218396	0.716112
C172	C	1.692792	0.281604	1.216112
C173	C	1.091615	-0.285265	0.716074
C174	C	1.591615	0.214735	1.216074
H175	H	0.567640	-0.346132	0.522802
H176	H	1.067640	0.153868	1.022802
N177	N	1.298011	-0.148873	0.967042
N178	N	1.798011	0.351127	1.467042
H179	H	1.285781	-0.111517	0.952694
H180	H	1.785781	0.388483	1.452694
H181	H	1.354452	-0.157049	0.952656
H182	H	1.854452	0.342951	1.452656
N183	N	0.728376	-0.148827	0.225461
N184	N	1.228376	0.351173	0.725461
H185	H	0.714049	-0.111480	0.237843
H186	H	1.214049	0.388520	0.737843
H187	H	0.713971	-0.156943	0.168983
H188	H	1.213971	0.343057	0.668983
H189	H	1.050403	-0.312491	0.682460
H190	H	1.550403	0.187509	1.182460
N191	N	1.247456	-0.946034	0.275875
N192	N	1.747456	-0.446034	0.775875
H193	H	1.235223	-0.955569	0.219389
H194	H	1.735223	-0.455569	0.719389
H195	H	1.303905	-0.955511	0.288274
H196	H	1.803905	-0.455511	0.788274
H197	H	1.050538	-0.953296	0.472491
H198	H	1.550538	-0.453296	0.972491
H199	H	0.717401	-0.346123	0.522805
H200	H	1.217401	0.153877	1.022805
N201	N	0.852151	-0.321477	0.485658
N202	N	1.352151	0.178523	0.985658
H203	H	0.813473	-0.342691	0.517623
H204	H	1.313473	0.157309	1.017623
H205	H	0.886429	-0.300223	0.522296
H206	H	1.386429	0.199777	1.022296
H207	H	0.999884	-0.801172	0.522984
H208	H	1.499884	-0.301172	1.022984
H209	H	1.233804	-0.450911	0.289133
H210	H	1.733804	0.049089	0.789133
H211	H	1.050511	-0.312428	1.079876
H212	H	1.550511	0.187572	1.579876
H213	H	1.050319	-0.550009	0.472426
H214	H	1.550319	-0.050009	0.972426
N215	N	0.556783	-0.148857	0.225450
N216	N	1.056783	0.351143	0.725450
H217	H	0.498225	-0.153950	0.233103
H218	H	0.998225	0.346050	0.733103
H219	H	0.571201	-0.156964	0.168984
H220	H	1.071201	0.343036	0.668984
H221	H	1.233876	-0.549962	0.289157
H222	H	1.733876	-0.049962	0.789157
N223	N	0.986475	-0.694905	0.536320
N224	N	1.486475	-0.194905	1.036320
H225	H	0.954448	-0.720495	0.568318
H226	H	1.454448	-0.220495	1.068318
H227	H	0.949900	-0.672289	0.504111
H228	H	1.449900	-0.172289	1.004111
N229	N	1.247512	-1.059533	0.275889
N230	N	1.747512	-0.559533	0.775889
H231	H	1.239852	-1.098267	0.283564
H232	H	1.739852	-0.598267	0.783564
H233	H	1.303951	-1.049950	0.288241
H234	H	1.803951	-0.549950	0.788241
N235	N	0.986504	-0.354705	0.966931
N236	N	1.486504	0.145295	1.466931
H237	H	0.994194	-0.349620	1.025490
H238	H	1.494194	0.150380	1.525490
H239	H	0.998744	-0.392053	0.952491
H240	H	1.498744	0.107947	1.452491
H241	H	1.050260	-0.450943	0.472397
H242	H	1.550260	0.049057	0.972397
N243	N	1.297911	-0.694857	0.225337
N244	N	1.797911	-0.194857	0.725337
H245	H	1.329968	-0.720438	0.193357
H246	H	1.829968	-0.220438	0.693357
H247	H	1.334457	-0.672169	0.257550
H248	H	1.834457	-0.172169	0.757550
N249	N	1.037213	-1.059568	0.485838
N250	N	1.537213	-0.559568	0.985838
H251	H	1.005157	-1.033989	0.517823
H252	H	1.505157	-0.533989	1.017823
H253	H	1.069370	-1.082186	0.522456
H254	H	1.569370	-0.582186	1.022456
H255	H	1.284608	-0.157726	0.806369
H256	H	1.784608	0.342274	1.306369
N257	N	0.432951	-0.182341	0.275926
N258	N	0.932951	0.317659	0.775926
H259	H	0.374392	-0.187426	0.283582
H260	H	0.874392	0.312574	0.783582
H261	H	0.447364	-0.190443	0.219457
H262	H	0.947364	0.309557	0.719457
H263	H	0.999857	-0.345907	0.806254
H264	H	1.499857	0.154093	1.306254
H265	H	1.284596	-0.801124	0.238698
H266	H	1.784596	-0.301124	0.738698
N267	N	1.247453	-0.182286	1.090843
N268	N	1.747453	0.317714	1.590843
H269	H	1.239793	-0.187351	1.149397
H270	H	1.739793	0.312649	1.649397
H271	H	1.235188	-0.144946	1.076436
H272	H	1.735188	0.355054	1.576436
H273	H	1.233980	-0.191182	0.682524
H274	H	1.733980	0.308818	1.182524
H275	H	0.841266	-0.191142	0.289241
H276	H	1.341266	0.308858	0.789241
N277	N	0.432912	-0.321506	0.485700
N278	N	0.932912	0.178494	0.985700
H279	H	0.447300	-0.313429	0.542197
H280	H	0.947300	0.186571	1.042197
H281	H	0.447261	-0.358838	0.473257
H282	H	0.947261	0.141162	0.973257
