data_functionalizedCrystal
_audit_creation_method	'MofGen! by Chris Wilmer'
_symmetry_space_group_name_H-M	'P1'
_symmetry_Int_Tables_number	1
_symmetry_cell_setting	triclinic
loop_
_symmetry_equiv_pos_as_xyz
  x,y,z
_cell_length_a	11.026623
_cell_length_b	11.792241
_cell_length_c	10.268362
_cell_angle_alpha	89.998512
_cell_angle_beta	90.004701
_cell_angle_gamma	83.609940
loop_
_atom_site_label
_atom_site_type_symbol
_atom_site_fract_x
_atom_site_fract_y
_atom_site_fract_z
O1	O	-1.613294	0.475913	-0.108313
O2	O	-1.259632	0.421720	-0.108313
O3	O	-1.445045	0.285350	-0.108304
O4	O	-1.427880	0.612283	-0.108322
O5	O	-1.445027	0.285353	0.108297
O6	O	-1.259614	0.421722	0.108288
O7	O	-1.613276	0.475916	0.108287
Cu8	Cu	-1.436443	0.448819	0.128065
Cu9	Cu	-1.436464	0.448816	-0.128090
O10	O	-1.427863	0.612285	0.108278
C11	C	-1.214346	0.411723	-0.000013
C12	C	-1.079436	0.381920	-0.000012
C13	C	-1.443958	0.242846	-0.000004
C14	C	-1.440731	0.116192	-0.000005
C15	C	-1.006172	0.464210	-0.000018
C16	C	-0.866735	0.433408	-0.000018
C17	C	-1.434797	-0.115699	-0.000027
C18	C	-1.438094	0.013341	-0.000015
C19	C	-0.658562	0.485911	-0.000015
C20	C	-0.793472	0.515710	-0.000023
C21	C	-1.428950	0.654789	-0.000024
C22	C	-1.432177	0.781444	-0.000032
N23	N	-1.436437	0.448822	0.308231
N24	N	-1.436480	0.448806	-0.308256
C25	C	-1.436446	0.448825	0.426073
C26	C	-1.436461	0.448817	0.573911
H27	H	-1.046677	0.557464	-0.000016
C28	C	-1.024736	0.255938	-0.000005
H29	H	-1.088783	0.208304	0.000007
H30	H	-0.975850	0.240888	-0.075535
H31	H	-0.975845	0.240893	0.075541
C32	C	-0.812034	0.307422	-0.000018
H33	H	-0.725494	0.303247	-0.000029
H34	H	-0.838418	0.270644	0.075514
H35	H	-0.838431	0.270656	-0.075562
C36	C	-0.848170	0.641697	-0.000037
H37	H	-0.934711	0.645875	-0.000047
H38	H	-0.821773	0.678477	0.075489
H39	H	-0.821785	0.678460	-0.075587
