data_functionalizedCrystal
_audit_creation_method	'MofGen! by Chris Wilmer'
_symmetry_space_group_name_H-M	'P1'
_symmetry_Int_Tables_number	1
_symmetry_cell_setting	triclinic
loop_
_symmetry_equiv_pos_as_xyz
  x,y,z
_cell_length_a	23.532407
_cell_length_b	19.288864
_cell_length_c	22.010155
_cell_angle_alpha	89.984364
_cell_angle_beta	89.993714
_cell_angle_gamma	97.007539
loop_
_atom_site_label
_atom_site_type_symbol
_atom_site_fract_x
_atom_site_fract_y
_atom_site_fract_z
O1	O	0.071031	-0.921128	0.050726
O2	O	0.080615	-0.718838	0.050685
O3	O	-0.007096	-0.826083	0.050696
O4	O	0.158742	-0.813883	0.050716
O5	O	-0.007073	-0.826076	-0.050355
O6	O	0.080638	-0.718831	-0.050365
O7	O	0.071055	-0.921121	-0.050324
Cu8	Cu	0.075849	-0.819975	-0.059571
Cu9	Cu	0.075821	-0.819984	0.059932
O10	O	0.158765	-0.813876	-0.050335
C11	C	0.080318	-0.692959	0.000155
C12	C	0.079393	-0.615858	0.000139
C13	C	-0.028301	-0.825769	0.000169
C14	C	-0.091520	-0.824835	0.000164
N15	N	0.075867	-0.819974	-0.143624
C16	C	-0.490503	-0.882442	0.000209
C17	C	-0.549905	-0.881574	0.000213
O18	O	-0.586539	-0.934976	0.000247
N19	N	-0.572664	-0.817817	0.000200
C20	C	-0.536017	-0.754923	0.000189
O21	O	-0.560829	-0.700613	0.000178
C22	C	-0.476616	-0.755792	0.000189
C23	C	-0.453861	-0.819553	0.000196
C24	C	-0.467748	-0.946198	0.000217
C25	C	-0.408350	-0.947065	0.000211
C26	C	-0.371708	-0.884176	0.000198
C27	C	-0.394463	-0.820420	0.000190
C28	C	-0.439970	-0.692899	0.000181
C29	C	-0.380565	-0.693773	0.000182
C30	C	-0.357811	-0.757534	0.000189
C31	C	-0.298422	-0.758399	0.000171
N32	N	-0.275664	-0.822156	0.000184
C33	C	-0.312307	-0.885045	0.000198
C34	C	-0.660763	-0.753104	0.000190
C35	C	-0.720163	-0.752235	0.000186
C36	C	-0.734047	-0.878886	0.000212
C37	C	-0.674647	-0.879755	0.000212
C38	C	-0.638005	-0.816861	0.000203
C39	C	-0.187566	-0.886862	0.000186
C40	C	-0.128162	-0.887724	0.000178
C41	C	-0.114283	-0.761073	0.000155
C42	C	-0.173681	-0.760211	0.000160
C43	C	-0.210322	-0.823111	0.000177
O44	O	-0.261754	-0.705025	0.000141
O45	O	-0.287486	-0.939346	0.000216
C46	C	0.179971	-0.814190	0.000193
C47	C	0.243190	-0.815124	0.000202
C48	C	0.071351	-0.947000	0.000208
C49	C	0.072277	-1.024101	0.000228
C50	C	0.130858	-0.571003	0.000154
C51	C	0.129988	-0.498559	0.000161
C52	C	0.077650	-0.470973	0.000164
C53	C	0.026179	-0.515838	0.000145
C54	C	0.027050	-0.588280	0.000132
C55	C	0.036499	-0.362840	0.035582
C56	C	0.035630	-0.290398	0.035599
C57	C	0.074961	-0.247535	0.000201
C58	C	0.115171	-0.277121	-0.035206
C59	C	0.116042	-0.349564	-0.035219
C60	C	0.076700	-0.392422	0.000178
C61	C	0.125487	-0.124127	0.000223
C62	C	0.124615	-0.051682	0.000226
C63	C	0.020804	-0.068962	0.000216
C64	C	0.021678	-0.141406	0.000207
C65	C	0.074021	-0.168984	0.000213
C66	C	0.114660	-0.772470	-0.436240
C67	C	0.114666	-0.772468	-0.372633
O68	O	0.147672	-0.732058	-0.339745
N69	N	0.075846	-0.819968	-0.340808
C70	C	0.037014	-0.867469	-0.372594
O71	O	0.003995	-0.907872	-0.339684
C72	C	0.037007	-0.867467	-0.436201
C73	C	0.075833	-0.819968	-0.468022
C74	C	0.153483	-0.724974	-0.468062
C75	C	0.153479	-0.724977	-0.531665
C76	C	0.114651	-0.772475	-0.563447
C77	C	0.075829	-0.819971	-0.531625
C78	C	-0.001827	-0.914964	-0.467985
C79	C	-0.001831	-0.914958	-0.531596
C80	C	0.036995	-0.867459	-0.563418
C81	C	0.036997	-0.867472	-0.627010
N82	N	0.075817	-0.819972	-0.658835
C83	C	0.114644	-0.772473	-0.627053
C84	C	0.037032	-0.867469	-0.239016
C85	C	0.037042	-0.867475	-0.175411
C86	C	0.114693	-0.772473	-0.175454
C87	C	0.114685	-0.772471	-0.239061
C88	C	0.075852	-0.819969	-0.270841
C89	C	0.114632	-0.772483	-0.760625
C90	C	0.114625	-0.772492	-0.824233
C91	C	0.036973	-0.867492	-0.824185
C92	C	0.036981	-0.867486	-0.760582
C93	C	0.075813	-0.819976	-0.728803
O94	O	0.004005	-0.907860	-0.659938
O95	O	0.147653	-0.732072	-0.659971
N96	N	0.075798	-0.819991	0.143985
H97	H	-0.109639	-0.939648	0.000182
H98	H	-0.350734	-0.642556	0.000176
H99	H	0.005371	-0.906170	-0.734672
Cl100	Cl	0.194691	-0.442159	0.000179
Cl101	Cl	-0.748761	-0.672075	0.000165
H102	H	-0.630931	-0.701886	0.000178
H103	H	0.168107	-0.146582	0.000219
H104	H	-0.033443	-0.953642	-0.442085
Cl105	Cl	0.166587	-0.386757	-0.079730
H106	H	-0.217393	-0.938081	0.000202
Cl107	Cl	-0.011836	-0.927203	-0.864149
Cl108	Cl	0.163440	-0.712776	-0.864234
H109	H	-0.389829	-0.998986	0.000220
Cl110	Cl	-0.014913	-0.253211	0.080115
Cl111	Cl	-0.468560	-0.612736	0.000176
H112	H	0.147198	-0.242223	-0.064031
Cl113	Cl	0.202301	-0.665254	-0.428118
H114	H	-0.497577	-0.997412	0.000230
H115	H	0.146307	-0.733796	-0.149566
Cl116	Cl	-0.011763	-0.927200	-0.135414
Cl117	Cl	0.189320	0.004709	0.000242
H118	H	0.185093	-0.686297	-0.557571
H119	H	-0.021810	-0.046503	0.000256
H120	H	0.005411	-0.906153	-0.264889
H121	H	-0.192209	-0.708291	0.000137
H122	H	0.146251	-0.733795	-0.734758
H123	H	-0.656124	-0.931675	0.000218
H124	H	-0.033455	-0.953636	-0.557469
H125	H	-0.020231	-0.177928	0.000197
H126	H	0.004470	-0.397734	0.064411
H127	H	-0.763893	-0.930094	0.000225
H128	H	-0.016435	-0.493372	0.000156
Cl129	Cl	-0.068207	-0.682017	0.000139
Cl130	Cl	0.163496	-0.712754	-0.279058
H131	H	-0.014860	-0.624802	0.000120
Cl132	Cl	0.196660	-0.605669	0.000160
