data_functionalizedCrystal
_audit_creation_method	'MofGen! by Chris Wilmer'
_symmetry_space_group_name_H-M	'P1'
_symmetry_Int_Tables_number	1
_symmetry_cell_setting	triclinic
loop_
_symmetry_equiv_pos_as_xyz
  x,y,z
_cell_length_a	14.446369
_cell_length_b	23.096457
_cell_length_c	14.446369
_cell_angle_alpha	89.999875
_cell_angle_beta	60.001874
_cell_angle_gamma	60.001351
loop_
_atom_site_label
_atom_site_type_symbol
_atom_site_fract_x
_atom_site_fract_y
_atom_site_fract_z
Zr1	Zr	1.013217	0.557786	-0.121511
O2	O	1.206319	0.465341	-0.269308
O3	O	0.820108	0.586122	-0.076203
O4	O	1.013210	0.586126	-0.269314
O5	O	1.013226	0.465337	0.076132
O6	O	1.013212	0.681407	-0.269320
O7	O	1.013217	0.465337	-0.076197
O8	O	0.667788	0.681399	0.076121
O9	O	1.358650	0.465345	-0.269309
O10	O	0.899541	0.669317	-0.056884
O11	O	0.899545	0.598210	0.056801
O12	O	1.126898	0.598215	-0.170563
O13	O	1.126903	0.527109	-0.056877
Zr14	Zr	1.013235	0.709747	0.121427
Zr15	Zr	1.013221	0.709747	-0.121520
Zr16	Zr	1.013231	0.557785	0.121436
Zr17	Zr	1.256167	0.557791	-0.121512
Zr18	Zr	0.770285	0.709742	0.121428
O19	O	1.206344	0.681410	0.076118
O20	O	1.206325	0.681411	-0.269321
O21	O	1.206338	0.465341	0.076131
O22	O	0.820132	0.802191	0.269224
O23	O	0.820113	0.802191	-0.076216
O24	O	0.820126	0.586122	0.269236
O25	O	1.013226	0.802195	-0.076217
O26	O	1.013242	0.681406	0.269230
O27	O	1.013239	0.586126	0.269235
O28	O	1.013235	0.802195	0.076112
O29	O	1.358654	0.586133	-0.269316
O30	O	0.667798	0.681399	0.269231
O31	O	0.667802	0.802188	0.269224
O32	O	0.667791	0.802188	0.076114
O33	O	1.358661	0.465344	-0.076199
O34	O	1.358664	0.586133	-0.076206
O35	O	0.899553	0.669317	0.170478
O36	O	0.899549	0.740424	0.056793
O37	O	1.126907	0.669322	-0.056886
O38	O	1.126911	0.598215	0.056800
C39	C	0.709332	0.633760	-0.000041
C40	C	0.606194	0.633758	-0.000040
C41	C	0.566908	0.588908	0.071671
C42	C	0.459273	0.589114	0.072051
C43	C	0.371482	0.711057	0.051873
C44	C	0.478727	0.710801	0.052417
C45	C	0.653906	0.601952	-0.123710
C46	C	0.547733	0.600401	-0.123525
C47	C	1.013221	0.443686	-0.000031
C48	C	1.013219	0.379174	-0.000027
C49	C	0.894544	0.385983	0.059301
C50	C	0.894543	0.325368	0.059306
C51	C	1.013222	0.257944	-0.000040
C52	C	1.131912	0.251138	-0.059370
C53	C	1.131911	0.311753	-0.059364
N54	N	1.101559	0.135150	-0.096621
N55	N	1.101552	0.077571	-0.096624
C56	C	1.013234	0.075311	-0.000060
N57	N	0.924902	0.132813	0.096507
N58	N	0.924905	0.190398	0.096509
C59	C	1.013237	0.192213	-0.000052
C60	C	0.894549	0.016396	0.059279
C61	C	0.894552	-0.044222	0.059287
C62	C	1.131925	-0.118452	-0.059400
C63	C	1.131919	-0.057834	-0.059397
C64	C	1.013227	0.009588	-0.000060
C65	C	1.317119	0.633773	-0.000044
C66	C	1.420258	0.633775	-0.000044
C67	C	1.013209	0.633766	-0.303932
C68	C	1.013204	0.633767	-0.407069
C69	C	1.013231	0.823847	-0.000053
C70	C	1.013233	0.888358	-0.000057
C71	C	0.869824	0.678834	-0.482053
C72	C	0.869728	0.678639	-0.374725
C73	C	1.084427	0.556505	-0.481625
C74	C	1.083517	0.556752	-0.588483
C75	C	1.086473	0.665336	-0.590063
C76	C	1.083770	0.666900	-0.481392
C77	C	1.013243	0.633766	0.303847
C78	C	1.013248	0.633766	0.406984
C79	C	0.709338	0.823840	-0.000052
C80	C	0.606201	0.888350	-0.000055
C81	C	0.709349	0.633760	0.303849
C82	C	0.606216	0.633757	0.406986
C83	C	0.709354	0.823840	0.303838
C84	C	0.606223	0.888349	0.406972
C85	C	1.317098	0.443692	-0.303922
C86	C	1.420229	0.379183	-0.407056
C87	C	1.317114	0.443692	-0.000033
C88	C	1.420251	0.379183	-0.000029
C89	C	1.317103	0.633773	-0.303933
C90	C	1.420236	0.633775	-0.407071
C91	C	0.557762	0.881527	-0.059405
C92	C	0.460867	0.942135	-0.059431
C93	C	0.412406	1.009564	-0.000099
C94	C	0.460854	1.016385	0.059252
C95	C	0.557754	0.955778	0.059271
C96	C	0.557789	0.955767	0.396062
C97	C	0.460900	1.016386	0.492958
C98	C	0.412440	1.009586	0.600763
C99	C	0.460883	0.942161	0.611670
C100	C	0.557777	0.881544	0.514775
C101	C	1.468674	0.311766	-0.396146
C102	C	1.565594	0.251146	-0.493042
C103	C	1.614059	0.257946	-0.600847
C104	C	1.565610	0.325371	-0.611755
C105	C	1.468699	0.385989	-0.514860
C106	C	1.468700	0.386005	0.059310
C107	C	1.565621	0.325398	0.059309
C108	C	1.614086	0.257968	-0.000026
C109	C	1.565633	0.251147	-0.059373
C110	C	1.468720	0.311754	-0.059378
C111	C	0.459905	0.588691	0.481972
C112	C	0.566822	0.588883	0.374643
C113	C	0.479369	0.711019	0.481536
C114	C	0.371998	0.710775	0.588396
C115	C	0.546962	0.602195	0.589987
C116	C	0.655428	0.600629	0.481315
H117	H	0.437918	0.736246	0.143409
F118	F	1.222315	0.510706	-0.517216
H119	H	0.500977	0.746053	0.003535
H120	H	0.333542	1.058951	0.679652
H121	H	0.597180	0.961343	0.107607
F122	F	0.768235	-0.036971	0.122447
H123	H	1.692970	0.208582	-0.679736
H124	H	0.421433	0.936567	-0.107762
F125	F	0.309275	1.074062	-0.000128
H126	H	0.597199	0.826651	0.523674
H127	H	1.429255	0.440882	-0.523756
H128	H	0.421412	0.936635	0.699458
H129	H	1.429219	0.306215	-0.308375
F130	F	0.343016	0.617974	0.191290
H131	H	1.605025	0.196252	-0.484139
H132	H	0.421383	1.071295	0.107558
H133	H	1.192139	0.632655	-0.668261
F134	F	0.609353	0.963020	0.281337
F135	F	0.609324	0.809769	-0.122562
H136	H	0.813480	0.656743	-0.320937
H137	H	0.497142	0.531651	0.479641
H138	H	1.605083	0.330899	-0.699541
F139	F	0.428967	0.744286	0.414084
F140	F	0.409356	1.088137	0.481325
F141	F	1.417141	0.457763	0.122464
F142	F	1.617167	0.332672	0.122481
F143	F	0.250678	0.744555	0.169661
H144	H	1.692999	0.208624	-0.000012
H145	H	0.586531	0.546160	0.594107
H146	H	1.188745	0.521345	-0.667062
H147	H	0.745916	0.543709	0.429898
F148	F	0.342711	0.617041	0.480616
F149	F	1.617223	0.179378	-0.122514
F150	F	0.334218	0.756659	-0.013148
H151	H	1.429276	0.306189	-0.107696
F152	F	0.683601	0.514520	0.303710
F153	F	0.519986	0.638635	-0.199203
H154	H	0.797903	0.071294	0.107618
H155	H	0.501618	0.746058	0.508765
H156	H	0.680170	0.634459	-0.177386
F157	F	0.517856	0.617504	0.304333
H158	H	0.813812	0.657137	-0.481018
F159	F	0.253380	0.743805	0.588037
H160	H	0.342047	0.746182	0.666973
F161	F	0.697432	0.639074	0.514666
F162	F	0.507024	0.514740	0.026584
F163	F	1.019766	0.523234	-0.414177
H164	H	0.655613	0.531855	0.037068
F165	F	0.520034	0.617489	0.190205
F166	F	0.768221	0.457735	0.122458
H167	H	0.522177	0.634867	0.668200
H168	H	1.040577	0.721371	-0.594183
H169	H	1.228557	-0.173349	-0.107721
H170	H	0.747487	0.545884	-0.167116
H171	H	0.587179	0.543463	-0.162313
F172	F	1.258230	-0.065082	-0.122549
H173	H	0.797900	0.330912	0.107618
H174	H	1.228553	0.306203	-0.107674
F175	F	1.258220	0.179380	-0.122525
F176	F	1.015894	0.741299	-0.414186
H177	H	0.813535	0.735874	-0.479717
F178	F	1.017355	0.523718	-0.588132
F179	F	0.796677	0.753002	-0.303781
H180	H	1.188443	0.637487	-0.506906
