data_functionalizedCrystal
_audit_creation_method	'MofGen! by Chris Wilmer'
_symmetry_space_group_name_H-M	'P1'
_symmetry_Int_Tables_number	1
_symmetry_cell_setting	triclinic
loop_
_symmetry_equiv_pos_as_xyz
  x,y,z
_cell_length_a	17.077404
_cell_length_b	18.050589
_cell_length_c	17.077396
_cell_angle_alpha	89.975358
_cell_angle_beta	89.980499
_cell_angle_gamma	90.028446
loop_
_atom_site_label
_atom_site_type_symbol
_atom_site_fract_x
_atom_site_fract_y
_atom_site_fract_z
Zn1	Zn	1.200026	-0.295655	-0.443864
Zn2	Zn	1.533359	0.037678	-0.110530
Zn3	Zn	1.866692	0.371012	0.222803
Zn4	Zn	1.199920	-0.419852	-0.312606
Zn5	Zn	1.533254	-0.086519	0.020727
Zn6	Zn	1.866587	0.246814	0.354060
Zn7	Zn	1.068757	-0.295681	-0.312612
Zn8	Zn	1.402091	0.037652	0.020722
Zn9	Zn	1.735424	0.370986	0.354055
Zn10	Zn	1.068713	-0.419808	-0.443830
Zn11	Zn	1.402046	-0.086475	-0.110497
Zn12	Zn	1.735380	0.246859	0.222837
O13	O	1.134354	-0.357749	-0.378228
O14	O	1.467687	-0.024416	-0.044895
O15	O	1.801021	0.308918	0.288439
O16	O	1.309858	-0.312138	-0.426464
O17	O	1.643192	0.021196	-0.093131
O18	O	1.976525	0.354529	0.240203
O19	O	1.182496	-0.403410	-0.202760
O20	O	1.515829	-0.070077	0.130573
O21	O	1.849163	0.263257	0.463907
O22	O	1.086233	-0.191753	-0.330039
O23	O	1.419566	0.141580	0.003295
O24	O	1.752900	0.474914	0.336628
O25	O	1.309781	-0.403385	-0.330030
O26	O	1.643115	-0.070051	0.003303
O27	O	1.976448	0.263282	0.336637
O28	O	1.182675	-0.191734	-0.426469
O29	O	1.516008	0.141599	-0.093136
O30	O	1.849342	0.474933	0.240198
O31	O	1.086131	-0.312182	-0.202764
O32	O	1.419464	0.021151	0.130569
O33	O	1.752798	0.354485	0.463903
O34	O	0.958905	-0.312139	-0.330006
O35	O	1.292238	0.021194	0.003327
O36	O	1.625571	0.354527	0.336661
O37	O	1.086157	-0.403310	-0.553681
O38	O	1.419491	-0.069976	-0.220348
O39	O	1.752824	0.263357	0.112985
O40	O	0.958872	-0.403335	-0.426412
O41	O	1.292205	-0.070002	-0.093078
O42	O	1.625539	0.263332	0.240255
O43	O	1.182632	-0.312095	-0.553706
O44	O	1.515965	0.021239	-0.220373
O45	O	1.849299	0.354572	0.112961
O46	O	1.182453	-0.523771	-0.329997
O47	O	1.515786	-0.190438	0.003336
O48	O	1.849120	0.142896	0.336669
O49	O	1.086056	-0.523739	-0.426407
O50	O	1.419389	-0.190405	-0.093073
O51	O	1.752722	0.142928	0.240260
C52	C	0.930406	-0.357736	-0.378206
C53	C	1.263740	-0.024402	-0.044873
C54	C	1.597073	0.308931	0.288460
C55	C	0.843156	-0.357748	-0.378216
C56	C	1.176490	-0.024414	-0.044882
C57	C	1.509823	0.308919	0.288451
C58	C	0.802170	-0.405305	-0.428333
C59	C	1.135503	-0.071972	-0.095000
C60	C	1.468837	0.261362	0.238333
C61	C	0.720189	-0.405307	-0.428346
C62	C	1.053523	-0.071973	-0.095013
C63	C	1.386856	0.261360	0.238321
C64	C	0.679197	-0.357754	-0.378236
C65	C	1.012530	-0.024421	-0.044903
C66	C	1.345864	0.308912	0.288431
C67	C	0.720189	-0.310192	-0.328116
C68	C	1.053523	0.023142	0.005217
C69	C	1.386856	0.356475	0.338551
C70	C	0.802168	-0.310187	-0.328108
C71	C	1.135502	0.023146	0.005225
C72	C	1.468835	0.356480	0.338559
C73	C	0.549319	-0.310206	-0.328135
C74	C	0.882653	0.023127	0.005198
C75	C	1.215986	0.356460	0.338532
C76	C	0.467335	-0.310212	-0.328142
C77	C	0.800668	0.023121	0.005192
C78	C	1.134001	0.356455	0.338525
C79	C	0.467340	-0.405326	-0.428373
C80	C	0.800674	-0.071993	-0.095040
C81	C	1.134007	0.261341	0.238294
C82	C	0.549319	-0.405321	-0.428365
C83	C	0.882653	-0.071988	-0.095032
C84	C	1.215986	0.261345	0.238302
C85	C	0.590306	-0.357760	-0.378244
C86	C	0.923639	-0.024426	-0.044910
C87	C	1.256973	0.308907	0.288423
C88	C	1.134259	-0.550701	-0.378215
C89	C	1.467593	-0.217368	-0.044882
C90	C	1.800926	0.115965	0.288452
C91	C	1.134291	-0.633247	-0.378236
C92	C	1.467624	-0.299914	-0.044902
C93	C	1.800957	0.033420	0.288431
C94	C	1.081921	-0.832707	-0.430645
C95	C	1.415255	-0.499374	-0.097311
C96	C	1.748588	-0.166040	0.236022
C97	C	1.062786	-0.882149	-0.359016
C98	C	1.396119	-0.548815	-0.025682
C99	C	1.729453	-0.215482	0.307651
C100	C	1.134368	-0.784377	-0.378246
C101	C	1.467701	-0.451044	-0.044912
C102	C	1.801034	-0.117711	0.288421
C103	C	1.153541	-0.882017	-0.449883
C104	C	1.486875	-0.548684	-0.116550
C105	C	1.820208	-0.215351	0.216784
C106	C	1.134441	-0.930362	-0.378262
C107	C	1.467774	-0.597029	-0.044929
C108	C	1.801107	-0.263696	0.288405
C109	C	1.115195	-0.832732	-0.306579
C110	C	1.448528	-0.499398	0.026755
C111	C	1.781862	-0.166065	0.360088
C112	C	1.205984	-0.832596	-0.397495
C113	C	1.539317	-0.499263	-0.064161
C114	C	1.872650	-0.165929	0.269172
C115	C	1.186876	-0.882016	-0.325816
C116	C	1.520209	-0.548682	0.007517
C117	C	1.853542	-0.215349	0.340851
C118	C	1.134324	-0.700279	-0.378238
C119	C	1.467657	-0.366946	-0.044904
C120	C	1.800990	-0.033612	0.288429
C121	C	1.134485	-1.014459	-0.378262
C122	C	1.467818	-0.681126	-0.044929
C123	C	1.801152	-0.347792	0.288404
C124	C	1.339098	-0.357763	-0.378250
C125	C	1.672432	-0.024430	-0.044917
C126	C	2.005765	0.308904	0.288417
C127	C	1.426348	-0.357769	-0.378260
C128	C	1.759681	-0.024436	-0.044926
C129	C	2.093015	0.308898	0.288407
C130	C	1.134402	-0.357694	-0.582972
C131	C	1.467735	-0.024361	-0.249639
C132	C	1.801068	0.308972	0.083694
C133	C	1.134422	-0.357671	-0.670222
C134	C	1.467755	-0.024338	-0.336889
C135	C	1.801089	0.308996	-0.003555
C136	C	1.134471	-0.164043	-0.378258
C137	C	1.467804	0.169290	-0.044925
C138	C	1.801137	0.502623	0.288408
C139	C	1.134520	-0.081498	-0.378271
C140	C	1.467854	0.251836	-0.044938
C141	C	1.801187	0.585169	0.288396
C142	C	1.184658	-0.310172	-0.711226
C143	C	1.517991	0.023162	-0.377893
C144	C	1.851325	0.356495	-0.044560
C145	C	1.184667	-0.310147	-0.793207
C146	C	1.518001	0.023186	-0.459874
C147	C	1.851334	0.356520	-0.126540
C148	C	1.134444	-0.357626	-0.834182
C149	C	1.467777	-0.024293	-0.500848
C150	C	1.801111	0.309041	-0.167515
C151	C	1.084202	-0.405128	-0.793172
C152	C	1.417536	-0.071794	-0.459838
C153	C	1.750869	0.261539	-0.126505
C154	C	1.084190	-0.405148	-0.711193
C155	C	1.417523	-0.071815	-0.377859
C156	C	1.750856	0.261519	-0.044526
C157	C	1.084234	-0.405083	-0.964042
C158	C	1.417567	-0.071750	-0.630708
C159	C	1.750901	0.261584	-0.297375
C160	C	1.084248	-0.405064	-1.046026
C161	C	1.417581	-0.071730	-0.712693
C162	C	1.750914	0.261603	-0.379360
C163	C	1.184712	-0.310082	-1.046056
C164	C	1.518045	0.023252	-0.712723
C165	C	1.851379	0.356585	-0.379389
C166	C	1.184699	-0.310102	-0.964077
C167	C	1.518032	0.023231	-0.630744
C168	C	1.851366	0.356564	-0.297410
C169	C	1.134458	-0.357605	-0.923073
C170	C	1.467792	-0.024272	-0.589739
C171	C	1.801125	0.309062	-0.256406
C172	C	1.134352	-0.357750	-0.174280
C173	C	1.467685	-0.024417	0.159053
C174	C	1.801019	0.308917	0.492387
C175	C	1.134484	-0.357564	-0.087031
C176	C	1.467817	-0.024231	0.246303
C177	C	1.801151	0.309103	0.579636
H178	H	0.433961	-0.271482	-0.287347
H179	H	0.767294	0.061852	0.045986
H180	H	1.100627	0.395185	0.379319
C181	C	1.175444	-0.911227	-0.531720
C182	C	1.508778	-0.577894	-0.198386
C183	C	1.842111	-0.244560	0.134947
H184	H	1.221787	-0.940134	-0.528217
H185	H	1.555120	-0.606800	-0.194884
H186	H	1.888453	-0.273467	0.138450
H187	H	1.184099	-0.870612	-0.566044
H188	H	1.517432	-0.537279	-0.232710
H189	H	1.850766	-0.203945	0.100623
H190	H	1.133964	-0.940957	-0.551384
H191	H	1.467297	-0.607624	-0.218050
H192	H	1.800631	-0.274291	0.115283
C193	C	0.981018	-0.911558	-0.337021
C194	C	1.314351	-0.578224	-0.003687
C195	C	1.647685	-0.244891	0.329646
H196	H	0.984623	-0.940527	-0.290704
H197	H	1.317956	-0.607194	0.042629
H198	H	1.651289	-0.273861	0.375962
H199	H	0.961338	-0.941253	-0.378501
H200	H	1.294671	-0.607920	-0.045167
H201	H	1.628005	-0.274587	0.288166
H202	H	0.946648	-0.871027	-0.328277
H203	H	1.279981	-0.537694	0.005057
H204	H	1.613315	-0.204360	0.338390
H205	H	0.433965	-0.444050	-0.469186
H206	H	0.767299	-0.110717	-0.135853
H207	H	1.100632	0.222616	0.197481
C208	C	1.028996	-0.457359	-0.918938
C209	C	1.362329	-0.124026	-0.585605
C210	C	1.695663	0.209307	-0.252272
H211	H	0.999100	-0.485646	-0.955081
H212	H	1.332433	-0.152313	-0.621748
H213	H	1.665766	0.181021	-0.288415
H214	H	0.994797	-0.428981	-0.886943
H215	H	1.328130	-0.095647	-0.553609
H216	H	1.661464	0.237686	-0.220276
H217	H	1.059030	-0.489722	-0.886973
H218	H	1.392363	-0.156388	-0.553640
H219	H	1.725696	0.176945	-0.220307
H220	H	1.225558	-0.271511	-0.677871
H221	H	1.558892	0.061823	-0.344537
H222	H	1.892225	0.395156	-0.011204
C223	C	0.847258	-0.457617	-0.483449
C224	C	1.180591	-0.124284	-0.150115
C225	C	1.513925	0.209050	0.183218
H226	H	0.901953	-0.450811	-0.476261
H227	H	1.235286	-0.117477	-0.142928
H228	H	1.568619	0.215856	0.190405
H229	H	0.833853	-0.446817	-0.536213
H230	H	1.167187	-0.113484	-0.202879
H231	H	1.500520	0.219849	0.130454
H232	H	0.833791	-0.507503	-0.471862
H233	H	1.167125	-0.174170	-0.138529
H234	H	1.500458	0.159164	0.194804
C235	C	1.028995	-0.457279	-1.091101
C236	C	1.362329	-0.123945	-0.757768
C237	C	1.695662	0.209388	-0.424434
H238	H	1.036205	-0.450466	-1.145797
H239	H	1.369539	-0.117132	-0.812464
H240	H	1.702872	0.216201	-0.479130
H241	H	0.976260	-0.446401	-1.077660
H242	H	1.309593	-0.113068	-0.744326
H243	H	1.642927	0.220266	-0.410993
H244	H	1.040445	-0.507187	-1.077663
H245	H	1.373778	-0.173854	-0.744330
H246	H	1.707111	0.159479	-0.410996
C247	C	1.093224	-0.803613	-0.224725
C248	C	1.426557	-0.470279	0.108609
C249	C	1.759890	-0.136946	0.441942
H250	H	1.093303	-0.750983	-0.225226
H251	H	1.426636	-0.417649	0.108107
H252	H	1.759970	-0.084316	0.441441
H253	H	1.130268	-0.820889	-0.187477
H254	H	1.463601	-0.487555	0.145856
H255	H	1.796935	-0.154222	0.479189
H256	H	1.042530	-0.820992	-0.210981
H257	H	1.375863	-0.487659	0.122352
H258	H	1.709196	-0.154326	0.455686
H259	H	1.225600	-0.271445	-0.930718
H260	H	1.558933	0.061889	-0.597384
H261	H	1.892266	0.395222	-0.264051
H262	H	1.043274	-0.443819	-0.677808
H263	H	1.376607	-0.110486	-0.344475
H264	H	1.709941	0.222847	-0.011141
C265	C	0.675107	-0.457665	-0.483428
C266	C	1.008441	-0.124332	-0.150094
C267	C	1.341774	0.209002	0.183239
H268	H	0.711262	-0.486004	-0.513249
H269	H	1.044596	-0.152671	-0.179915
H270	H	1.377929	0.180663	0.153418
H271	H	0.643132	-0.429343	-0.517703
H272	H	0.976466	-0.096010	-0.184369
H273	H	1.309799	0.237324	0.148964
H274	H	0.643123	-0.489975	-0.453296
H275	H	0.976457	-0.156642	-0.119962
H276	H	1.309790	0.176692	0.213371
C277	C	0.594403	-0.257887	-0.273006
C278	C	0.927736	0.075447	0.060328
C279	C	1.261070	0.408780	0.393661
H280	H	0.558250	-0.229571	-0.243158
H281	H	0.891583	0.103762	0.090175
H282	H	1.224916	0.437096	0.423509
H283	H	0.626411	-0.225564	-0.303089
H284	H	0.959744	0.107769	0.030244
H285	H	1.293077	0.441103	0.363577
H286	H	0.626355	-0.286256	-0.238746
H287	H	0.959688	0.047078	0.094588
H288	H	1.293022	0.380411	0.427921
H289	H	1.231259	-0.903530	-0.281460
H290	H	1.564593	-0.570196	0.051873
H291	H	1.897926	-0.236863	0.385207
C292	C	1.239985	-0.257838	-1.091157
C293	C	1.573318	0.075495	-0.757824
C294	C	1.906651	0.408828	-0.424490
H295	H	1.232798	-0.264622	-1.145849
H296	H	1.566132	0.068712	-0.812516
H297	H	1.899465	0.402045	-0.479182
H298	H	1.292713	-0.268727	-1.077725
H299	H	1.626047	0.064606	-0.744392
H300	H	1.959380	0.397940	-0.411058
H301	H	1.228534	-0.207936	-1.077732
H302	H	1.561867	0.125397	-0.744399
H303	H	1.895200	0.458731	-0.411065
C304	C	0.847254	-0.257873	-0.272980
C305	C	1.180587	0.075460	0.060353
C306	C	1.513920	0.408794	0.393687
H307	H	0.811100	-0.229556	-0.243133
H308	H	1.144433	0.103777	0.090200
H309	H	1.477767	0.437110	0.423534
H310	H	0.879260	-0.225551	-0.303066
H311	H	1.212593	0.107783	0.030267
H312	H	1.545926	0.441116	0.363601
H313	H	0.879207	-0.286240	-0.238719
H314	H	1.212540	0.047094	0.094614
H315	H	1.545873	0.380427	0.427948
H316	H	1.266499	-0.810816	-0.413795
H317	H	1.599832	-0.477483	-0.080462
H318	H	1.933165	-0.144149	0.252872
H319	H	1.225577	-0.271470	-0.826589
H320	H	1.558910	0.061864	-0.493256
H321	H	1.892243	0.395197	-0.159922
C322	C	1.021926	-0.803452	-0.490424
C323	C	1.355259	-0.470119	-0.157091
C324	C	1.688592	-0.136785	0.176243
H325	H	1.048087	-0.774451	-0.528807
H326	H	1.381421	-0.441118	-0.195473
H327	H	1.714754	-0.107785	0.137860
H328	H	0.984148	-0.773817	-0.464259
H329	H	1.317482	-0.440484	-0.130926
H330	H	1.650815	-0.107150	0.202408
H331	H	0.996537	-0.844046	-0.515095
H332	H	1.329870	-0.510713	-0.181762
H333	H	1.663203	-0.177380	0.151571
H334	H	0.582693	-0.444047	-0.469164
H335	H	0.916027	-0.110713	-0.135831
H336	H	1.249360	0.222620	0.197502
H337	H	0.686807	-0.271471	-0.287319
H338	H	1.020140	0.061863	0.046014
H339	H	1.353473	0.395196	0.379348
H340	H	1.043307	-0.443783	-0.826540
H341	H	1.376640	-0.110450	-0.493206
H342	H	1.709973	0.222884	-0.159873
