data_functionalizedCrystal
_audit_creation_method	'MofGen! by Chris Wilmer'
_symmetry_space_group_name_H-M	'P1'
_symmetry_Int_Tables_number	1
_symmetry_cell_setting	triclinic
loop_
_symmetry_equiv_pos_as_xyz
  x,y,z
_cell_length_a	12.759401
_cell_length_b	12.759399
_cell_length_c	12.759393
_cell_angle_alpha	89.973012
_cell_angle_beta	89.977503
_cell_angle_gamma	90.015165
loop_
_atom_site_label
_atom_site_type_symbol
_atom_site_fract_x
_atom_site_fract_y
_atom_site_fract_z
Zn1	Zn	-1.606269	0.418192	0.594089
Zn2	Zn	-1.606161	0.593908	0.418420
Zn3	Zn	-1.430568	0.418246	0.418420
Zn4	Zn	-1.430561	0.593832	0.594053
O5	O	-1.518390	0.506045	0.506246
O6	O	-1.753276	0.441511	0.570802
O7	O	-1.582826	0.570660	0.271399
O8	O	-1.453923	0.271218	0.441738
O9	O	-1.753196	0.570608	0.441739
O10	O	-1.583010	0.271178	0.570802
O11	O	-1.453818	0.441602	0.271399
O12	O	-1.283546	0.441529	0.441702
O13	O	-1.453911	0.570479	0.741079
O14	O	-1.283541	0.570531	0.570739
O15	O	-1.583003	0.441437	0.741106
O16	O	-1.582819	0.740919	0.441703
O17	O	-1.453806	0.740863	0.570740
C18	C	-1.245422	0.506029	0.506217
C19	C	-1.128646	0.506047	0.506230
C20	C	-1.518329	0.779012	0.506240
C21	C	-1.518399	0.895789	0.506273
C22	C	-1.073809	0.573320	0.573312
C23	C	-0.964084	0.573323	0.573330
C24	C	-0.964044	0.438776	0.439175
C25	C	-1.073766	0.438769	0.439163
C26	C	-0.792423	0.506059	0.506268
C27	C	-0.909200	0.506057	0.506260
C28	C	-1.585715	1.060376	0.439202
C29	C	-1.585652	0.950652	0.439162
C30	C	-1.451198	0.950655	0.573421
C31	C	-1.451257	1.060377	0.573454
C32	C	-1.518468	0.505944	0.780279
C33	C	-1.518502	0.505901	0.897056
C34	C	-1.518480	1.232011	0.506289
C35	C	-1.518521	1.115235	0.506346
C36	C	-1.518372	0.506069	0.233278
C37	C	-1.518542	0.505816	0.116502
C38	C	-1.585725	0.438698	0.951933
C39	C	-1.585743	0.438653	1.061658
C40	C	-1.451311	0.573022	1.061617
C41	C	-1.451289	0.573061	0.951895
H42	H	-1.118488	0.628099	0.627925
C43	C	-1.134091	0.364760	0.365363
N44	N	-1.179527	0.309017	0.309781
H45	H	-1.640481	0.383928	1.106334
C46	C	-1.377219	0.890302	0.647244
N47	N	-1.321501	0.844845	0.702854
H48	H	-0.919441	0.628102	0.627957
C49	C	-1.659564	0.890312	0.365291
N50	N	-1.715234	0.844864	0.309644
H51	H	-1.396591	0.627704	1.106280
C52	C	-1.659652	0.364810	0.891615
N53	N	-1.715332	0.309152	0.846186
C54	C	-1.377331	0.646990	0.891526
N55	N	-1.321625	0.702669	0.846056
H56	H	-0.919348	0.384003	0.384569
C57	C	-1.377333	1.120726	0.647321
N58	N	-1.321654	1.166180	0.702954
C59	C	-1.659700	1.120715	0.365372
N60	N	-1.715423	1.166159	0.309758
