data_functionalizedCrystal
_audit_creation_method	'MofGen! by Chris Wilmer'
_symmetry_space_group_name_H-M	'P1'
_symmetry_Int_Tables_number	1
_symmetry_cell_setting	triclinic
loop_
_symmetry_equiv_pos_as_xyz
  x,y,z
_cell_length_a	14.908571
_cell_length_b	17.640280
_cell_length_c	14.908308
_cell_angle_alpha	97.330278
_cell_angle_beta	89.824947
_cell_angle_gamma	74.921313
loop_
_atom_site_label
_atom_site_type_symbol
_atom_site_fract_x
_atom_site_fract_y
_atom_site_fract_z
Zn1	Zn	1.445833	-0.413045	0.498174
Zn2	Zn	1.945833	0.086955	0.998174
Zn3	Zn	1.484886	-0.538235	0.320716
Zn4	Zn	1.984886	-0.038235	0.820716
Zn5	Zn	1.300448	-0.397842	0.342463
Zn6	Zn	1.800448	0.102158	0.842463
Zn7	Zn	1.325685	-0.537295	0.462571
Zn8	Zn	1.825685	-0.037295	0.962571
O9	O	1.389213	-0.471604	0.405981
O10	O	1.889213	0.028396	0.905981
O11	O	1.578484	-0.436407	0.480433
O12	O	2.078484	0.063593	0.980433
O13	O	1.466202	-0.513643	0.199068
O14	O	1.966202	-0.013643	0.699068
O15	O	1.292829	-0.289105	0.387120
O16	O	1.792829	0.210895	0.887120
O17	O	1.607176	-0.528384	0.350055
O18	O	2.107176	-0.028384	0.850055
O19	O	1.399643	-0.300274	0.501520
O20	O	1.899643	0.199726	1.001520
O21	O	1.330696	-0.410497	0.215045
O22	O	1.830696	0.089503	0.715045
O23	O	1.176326	-0.409585	0.352597
O24	O	1.676326	0.090415	0.852597
O25	O	1.335841	-0.526782	0.591827
O26	O	1.835841	-0.026782	1.091827
O27	O	1.194867	-0.512041	0.440840
O28	O	1.694867	-0.012041	0.940840
O29	O	1.424113	-0.435496	0.617984
O30	O	1.924113	0.064504	1.117984
O31	O	1.490673	-0.648865	0.315532
O32	O	1.990673	-0.148865	0.815532
O33	O	1.373708	-0.648174	0.419752
O34	O	1.873708	-0.148174	0.919752
C35	C	1.152545	-0.459062	0.395215
C36	C	1.652545	0.040938	0.895215
C37	C	1.051300	-0.453716	0.390626
C38	C	1.551300	0.046284	0.890626
C39	C	0.880453	-0.550508	0.473704
C40	C	1.380453	-0.050508	0.973704
C41	C	0.785325	-0.545487	0.469395
C42	C	1.285325	-0.045487	0.969395
C43	C	0.765915	-0.438653	0.377705
C44	C	1.265915	0.061347	0.877705
C45	C	0.861043	-0.443673	0.382014
C46	C	1.361043	0.056327	0.882014
C47	C	0.918309	-0.499603	0.430014
C48	C	1.418309	0.000397	0.930014
C49	C	1.013439	-0.504626	0.434317
C50	C	1.513439	-0.004626	0.934317
C51	C	0.994026	-0.397788	0.342633
C52	C	1.494026	0.102212	0.842633
C53	C	0.898899	-0.392768	0.338324
C54	C	1.398899	0.107232	0.838324
C55	C	1.439191	-0.677239	0.361439
C56	C	1.939191	-0.177239	0.861439
C57	C	1.460653	-0.765216	0.342418
C58	C	1.960653	-0.265216	0.842418
C59	C	1.226523	-1.052872	0.550826
C60	C	1.726523	-0.552872	1.050826
C61	C	1.246694	-1.135539	0.532924
C62	C	1.746694	-0.635539	1.032924
C63	C	1.368555	-1.136202	0.424518
C64	C	1.868555	-0.636202	0.924518
C65	C	1.348398	-1.053534	0.442414
C66	C	1.848398	-0.553534	0.942414
C67	C	1.277380	-1.011876	0.505568
C68	C	1.777380	-0.511876	1.005568
C69	C	1.399256	-1.012538	0.397156
C70	C	1.899256	-0.512538	0.897156
C71	C	1.379096	-0.929876	0.415047
C72	C	1.879096	-0.429876	0.915047
C73	C	1.308080	-0.888212	0.478197
C74	C	1.808080	-0.388212	0.978197
C75	C	1.257221	-0.929214	0.523460
C76	C	1.757221	-0.429214	1.023460
C77	C	1.470269	-1.054197	0.333997
C78	C	1.970269	-0.554197	0.833997
C79	C	1.521126	-1.013201	0.288739
C80	C	2.021126	-0.513201	0.788739
C81	C	1.500972	-0.930538	0.306635
C82	C	2.000972	-0.430538	0.806635
C83	C	1.429955	-0.888874	0.369784
C84	C	1.929955	-0.388874	0.869784
C85	C	1.551830	-0.889536	0.261372
C86	C	2.051830	-0.389536	0.761372
C87	C	1.531671	-0.806875	0.279264
C88	C	2.031671	-0.306875	0.779264
C89	C	1.409796	-0.806213	0.387676
C90	C	1.909796	-0.306213	0.887676
C91	C	1.626806	-0.484197	0.416790
C92	C	2.126806	0.015803	0.916790
C93	C	1.728054	-0.489563	0.421396
C94	C	2.228054	0.010437	0.921396
C95	C	1.378436	-0.482730	0.638098
C96	C	1.878436	0.017270	1.138098
C97	C	1.373843	-0.487470	0.737013
C98	C	1.873843	0.012530	1.237013
C99	C	1.339064	-0.265169	0.450717
C100	C	1.839064	0.234831	0.950717
C101	C	1.317694	-0.177199	0.469781
C102	C	1.817694	0.322801	0.969781
C103	C	1.399987	-0.460468	0.174782
C104	C	1.899987	0.039532	0.674782
C105	C	1.404702	-0.455514	0.075924
C106	C	1.904702	0.044486	0.575924
C107	C	1.457124	-0.401304	0.950127
C108	C	1.957124	0.098696	1.450127
C109	C	1.452812	-0.405756	1.043067
C110	C	1.952812	0.094244	1.543067
C111	C	1.360899	-0.500821	1.015834
C112	C	1.860899	-0.000821	1.515834
C113	C	1.365212	-0.496369	0.922895
C114	C	1.865212	0.003631	1.422895
C115	C	1.413328	-0.446610	0.890045
C116	C	1.913328	0.053390	1.390045
C117	C	1.417646	-0.442163	0.797102
C118	C	1.917646	0.057837	1.297102
C119	C	1.325728	-0.537224	0.769872
C120	C	1.825728	-0.037224	1.269872
C121	C	1.321415	-0.541675	0.862812
C122	C	1.821415	-0.041675	1.362812
H123	H	0.719272	-0.393112	0.338632
H124	H	1.219272	0.106888	0.838632
Br125	Br	1.130151	-0.996329	0.636548
Br126	Br	1.630151	-0.496329	1.136548
Br127	Br	1.045409	-0.328708	0.283323
Br128	Br	1.545409	0.171292	0.783323
Br129	Br	0.821172	-0.316862	0.273192
Br130	Br	1.321172	0.183138	0.773192
Br131	Br	1.313424	-0.749669	0.473398
Br132	Br	1.813424	-0.249669	0.973398
H133	H	1.321726	-0.541333	1.042598
H134	H	1.821726	-0.041333	1.542598
Br135	Br	1.160849	-0.872671	0.609182
Br136	Br	1.660849	-0.372671	1.109182
Br137	Br	1.177651	-1.191174	0.594339
Br138	Br	1.677651	-0.691174	1.094339
Br139	Br	1.464934	-1.192746	0.338812
Br140	Br	1.964934	-0.692746	0.838812
H141	H	1.496307	-0.360792	0.923380
H142	H	1.996307	0.139208	1.423380
H143	H	1.486682	-1.121505	0.319435
H144	H	1.986682	-0.621505	0.819435
Br145	Br	1.617505	-1.069744	0.203034
Br146	Br	2.117505	-0.569744	0.703034
Br147	Br	1.266302	-0.598726	0.688324
Br148	Br	1.766302	-0.098726	1.188324
H149	H	1.488473	-0.368861	1.091984
H150	H	1.988473	0.131139	1.591984
Br151	Br	0.958178	-0.626420	0.538829
Br152	Br	1.458178	-0.126420	1.038829
H153	H	1.282239	-0.582186	0.889572
H154	H	1.782239	-0.082186	1.389572
Br155	Br	1.648200	-0.946081	0.175658
Br156	Br	2.148200	-0.446081	0.675658
Br157	Br	0.733950	-0.614571	0.528696
Br158	Br	1.233950	-0.114571	1.028696
H159	H	1.573084	-0.773495	0.242409
H160	H	2.073084	-0.273495	0.742409
H161	H	1.060064	-0.550169	0.473399
H162	H	1.560064	-0.050169	0.973399
H163	H	1.291662	-0.820903	0.492756
H164	H	1.791662	-0.320903	0.992756
Br165	Br	1.482949	-0.374638	0.752519
Br166	Br	1.982949	0.125362	1.252519
