data_functionalizedCrystal
_audit_creation_method	'MofGen! by Chris Wilmer'
_symmetry_space_group_name_H-M	'P1'
_symmetry_Int_Tables_number	1
_symmetry_cell_setting	triclinic
loop_
_symmetry_equiv_pos_as_xyz
  x,y,z
_cell_length_a	17.699097
_cell_length_b	17.699083
_cell_length_c	16.176319
_cell_angle_alpha	89.993857
_cell_angle_beta	90.003623
_cell_angle_gamma	83.285722
loop_
_atom_site_label
_atom_site_type_symbol
_atom_site_fract_x
_atom_site_fract_y
_atom_site_fract_z
O1	O	-1.004056	-0.095761	0.068817
O2	O	-0.783679	-0.108203	0.068804
O3	O	-0.900094	0.008207	0.068803
O4	O	-0.887642	-0.212171	0.068817
O5	O	-0.900110	0.008215	-0.068690
O6	O	-0.783696	-0.108195	-0.068690
O7	O	-1.004073	-0.095753	-0.068676
Cu8	Cu	-0.893886	-0.101974	-0.081237
Cu9	Cu	-0.893866	-0.101983	0.081364
O10	O	-0.887658	-0.212163	-0.068676
C11	C	-0.755491	-0.107752	0.000055
C12	C	-0.671473	-0.106409	0.000050
C13	C	-1.032261	-0.096205	0.000074
C14	C	-1.116279	-0.097547	0.000084
C15	C	-0.899656	0.036408	0.000057
C16	C	-0.898317	0.120426	0.000056
C17	C	-0.888096	-0.240364	0.000073
C18	C	-0.889435	-0.324382	0.000078
C19	C	-0.155746	-0.098184	0.075030
C20	C	-0.234690	-0.099440	0.075026
C21	C	-0.274165	-0.100065	0.000076
C22	C	-0.234692	-0.099426	-0.074876
C23	C	-0.155751	-0.098165	-0.074871
C24	C	-0.553057	-0.104514	-0.074898
C25	C	-0.632004	-0.105778	-0.074897
C26	C	-0.631996	-0.105789	0.075000
C27	C	-0.553054	-0.104528	0.075005
C28	C	-0.513589	-0.103885	0.000054
C29	C	-0.427989	-0.102521	0.000059
C30	C	-0.359763	-0.101434	0.000069
N31	N	-0.893904	-0.101967	-0.195602
C32	C	-0.966650	0.169044	0.000059
C33	C	-0.965388	0.247987	0.000066
C34	C	-0.895792	0.278311	0.000065
C35	C	-0.827454	0.229687	0.000064
C36	C	-0.828717	0.150745	0.000063
C37	C	-0.822359	0.548050	0.000071
C38	C	-0.821101	0.626998	0.000070
C39	C	-0.959030	0.645292	0.000074
C40	C	-0.960293	0.566350	0.000073
C41	C	-0.891955	0.517733	0.000077
C42	C	-0.893325	0.432134	0.000070
C43	C	-0.894422	0.363909	0.000065
N44	N	-0.893853	-0.101984	0.195730
C45	C	-0.945548	-0.050528	0.761112
C46	C	-0.945539	-0.050527	0.674565
C47	C	-0.893889	-0.101970	0.631305
C48	C	-0.842240	-0.153411	0.674597
C49	C	-0.842246	-0.153407	0.761142
C50	C	-0.842214	-0.153426	0.325568
C51	C	-0.842213	-0.153427	0.239017
C52	C	-0.945506	-0.050545	0.238991
C53	C	-0.945512	-0.050542	0.325537
C54	C	-0.893861	-0.101980	0.368821
C55	C	-0.893871	-0.101979	0.462665
C56	C	-0.893883	-0.101975	0.537462
H57	H	-0.266821	-0.099954	0.136055
H58	H	-0.520917	-0.104022	0.136038
H59	H	-0.664142	-0.106287	-0.135935
C60	C	-0.785407	-0.210011	0.373178
C61	C	-0.728774	-0.266779	0.325598
C62	C	-0.671966	-0.323367	0.373214
C63	C	-0.671790	-0.323187	0.468410
C64	C	-0.728425	-0.266416	0.515996
C65	C	-0.785233	-0.209828	0.468380
H66	H	-0.728902	-0.266915	0.255123
H67	H	-0.630041	-0.365392	0.337988
H68	H	-0.629738	-0.365076	0.503658
H69	H	-0.728298	-0.266281	0.586470
H70	H	-0.827158	-0.167803	0.503606
H71	H	-0.800151	-0.195319	0.203796
C72	C	-0.753550	0.097262	0.000057
C73	C	-0.735444	0.040469	0.071455
C74	C	-0.660275	-0.013015	0.071454
C75	C	-0.603212	-0.009705	0.000055
C76	C	-0.621316	0.047091	-0.071348
C77	C	-0.696485	0.100574	-0.071347
H78	H	-0.777687	0.038016	0.124313
H79	H	-0.646873	-0.055058	0.124311
H80	H	-0.547567	-0.049296	0.000054
H81	H	-0.579073	0.049543	-0.124206
H82	H	-0.709887	0.142618	-0.124204
C83	C	-0.112334	-0.097467	-0.157314
C84	C	-0.066782	-0.030899	-0.177928
C85	C	-0.023367	-0.030197	-0.260373
C86	C	-0.025505	-0.096063	-0.322204
C87	C	-0.071059	-0.162635	-0.301592
C88	C	-0.114473	-0.163337	-0.219147
H89	H	-0.065198	0.017863	-0.132155
H90	H	0.010355	0.019084	-0.275631
H91	H	0.006633	-0.095543	-0.383235
H92	H	-0.072642	-0.211397	-0.347364
H93	H	-0.148195	-0.212619	-0.203888
H94	H	-0.664138	-0.106310	0.136029
H95	H	-0.123611	-0.097680	0.136064
C96	C	-0.278103	-0.100128	-0.157329
C97	C	-0.275967	-0.034264	-0.219177
C98	C	-0.319371	-0.034975	-0.301634
C99	C	-0.364912	-0.101550	-0.322243
C100	C	-0.367050	-0.167419	-0.260393
C101	C	-0.323646	-0.166708	-0.177936
H102	H	-0.242254	0.015024	-0.203923
H103	H	-0.317788	0.013786	-0.347419
H104	H	-0.397042	-0.102077	-0.383282
H105	H	-0.400763	-0.216707	-0.275647
H106	H	-0.325229	-0.215469	-0.132150
H107	H	-0.800182	-0.195294	0.639369
H108	H	-1.016965	0.541665	0.000070
C109	C	-0.750898	0.263044	0.000068
C110	C	-0.731067	0.314807	-0.071328
C111	C	-0.654509	0.348163	-0.071324
C112	C	-0.597783	0.329756	0.000074
C113	C	-0.617613	0.277990	0.071475
C114	C	-0.694170	0.244634	0.071472
H115	H	-0.773060	0.328435	-0.124186
H116	H	-0.639830	0.386483	-0.124181
H117	H	-0.541111	0.354448	0.000077
H118	H	-0.575620	0.264362	0.124333
H119	H	-0.708849	0.206314	0.124328
H120	H	-1.023323	0.144360	0.000055
H121	H	-0.520935	-0.103979	-0.135928
C122	C	-1.034205	0.698773	0.000080
C123	C	-1.052312	0.755572	-0.071312
C124	C	-1.127484	0.809051	-0.071309
C125	C	-1.184549	0.805730	0.000086
C126	C	-1.166443	0.748929	0.071484
C127	C	-1.091271	0.695450	0.071481
H128	H	-1.010067	0.758032	-0.124168
H129	H	-1.140887	0.851099	-0.124162
H130	H	-1.240196	0.845318	0.000089
H131	H	-1.208687	0.746469	0.124340
H132	H	-1.077868	0.653402	0.124334
C133	C	-1.040558	0.301464	0.000062
C134	C	-1.058662	0.358260	-0.071333
C135	C	-1.133836	0.411735	-0.071338
C136	C	-1.190906	0.408414	0.000053
C137	C	-1.172803	0.351616	0.071453
C138	C	-1.097629	0.298141	0.071458
H139	H	-1.016414	0.360720	-0.124186
H140	H	-1.147237	0.453781	-0.124194
H141	H	-1.246555	0.448000	0.000049
H142	H	-1.215051	0.349156	0.124306
H143	H	-1.084228	0.256095	0.124314
C144	C	-1.002326	0.006046	0.373123
C145	C	-1.001379	0.092254	0.361214
C146	C	-1.058191	0.148846	0.408800
C147	C	-1.115950	0.119229	0.468295
C148	C	-1.116899	0.033017	0.480207
C149	C	-1.060087	-0.023575	0.432621
H150	H	-0.958620	0.114182	0.317170
H151	H	-1.057488	0.212666	0.399981
H152	H	-1.158005	0.161122	0.503520
H153	H	-1.159657	0.011089	0.524251
H154	H	-1.060790	-0.087395	0.441439
H155	H	-0.764424	0.651685	0.000067
H156	H	-0.800192	-0.195293	0.796384
C157	C	-1.002364	0.006061	0.808694
C158	C	-1.059167	0.062646	0.761075
C159	C	-1.115984	0.119239	0.808654
C160	C	-1.115997	0.119247	0.903851
C161	C	-1.059192	0.062660	0.951474
C162	C	-1.002376	0.006067	0.903896
H163	H	-1.059159	0.062642	0.690600
H164	H	-1.158035	0.161128	0.773399
H165	H	-1.158056	0.161140	0.939071
H166	H	-1.059200	0.062664	1.021949
H167	H	-0.960325	-0.035822	0.939150
H168	H	-0.766714	0.508475	0.000074
C169	C	-1.002319	0.006046	0.191378
C170	C	-1.001383	0.092255	0.203272
C171	C	-1.058196	0.148842	0.155661
C172	C	-1.115945	0.119221	0.096157
C173	C	-1.116883	0.033008	0.084260
C174	C	-1.060070	-0.023580	0.131870
H175	H	-0.958631	0.114186	0.247323
H176	H	-1.057501	0.212663	0.164468
H177	H	-1.158002	0.161110	0.060912
H178	H	-1.159635	0.011076	0.040209
H179	H	-1.060765	-0.087401	0.123063
H180	H	-0.987590	-0.008641	0.639322
