data_functionalizedCrystal
_audit_creation_method	'MofGen! by Chris Wilmer'
_symmetry_space_group_name_H-M	'P1'
_symmetry_Int_Tables_number	1
_symmetry_cell_setting	triclinic
loop_
_symmetry_equiv_pos_as_xyz
  x,y,z
_cell_length_a	6.394989
_cell_length_b	10.908878
_cell_length_c	10.065875
_cell_angle_alpha	83.443480
_cell_angle_beta	80.951547
_cell_angle_gamma	106.708749
loop_
_atom_site_label
_atom_site_type_symbol
_atom_site_fract_x
_atom_site_fract_y
_atom_site_fract_z
O1	O	0.357825	1.716849	-0.113477
O2	O	0.195626	1.345611	-0.113481
O3	O	0.582620	1.536499	-0.113480
O4	O	-0.029169	1.525960	-0.113478
O5	O	0.508582	1.500103	0.113509
O6	O	0.121587	1.309215	0.113508
O7	O	0.283787	1.680453	0.113511
Zn8	Zn	0.190932	1.489055	0.149549
Zn9	Zn	0.288481	1.537008	-0.149518
O10	O	-0.103208	1.489564	0.113510
C11	C	0.143448	1.279816	0.000013
C12	C	0.098306	1.137995	0.000011
C13	C	0.263023	1.086320	0.000010
C14	C	0.216370	0.939740	0.000008
C15	C	0.622700	1.516219	0.000009
C16	C	0.856724	1.509850	0.000008
C17	C	0.335965	1.746248	0.000015
C18	C	0.381110	1.888071	0.000007
N19	N	0.124361	1.456338	0.353654
N20	N	0.355071	1.569736	-0.353624
C21	C	0.265329	1.525617	0.421433
C22	C	0.214083	1.500447	0.578601
H23	H	-0.077250	1.073718	0.000006
H24	H	0.513715	1.647683	0.588056
H25	H	0.423964	1.603559	0.363109
H26	H	0.055450	1.422490	0.636921
O27	O	0.007023	0.862880	0.000065
C28	C	0.007054	0.733643	0.000025
H29	H	0.154486	0.719131	0.042999
H30	H	-0.154704	0.664576	0.065922
H31	H	0.021403	0.712715	-0.108875
O32	O	-0.064667	1.363263	0.423376
C33	C	-0.007989	1.269295	0.506019
H34	H	0.165363	1.313874	0.527272
H35	H	-0.134301	1.234625	0.606565
H36	H	-0.009198	1.183404	0.451051
H37	H	0.556685	0.952344	-0.000003
O38	O	0.472320	1.163166	0.000071
C39	C	0.472313	1.292416	0.000035
H40	H	0.296845	1.293145	0.043008
H41	H	0.591079	1.340348	0.065936
H42	H	0.529011	1.348268	-0.108863
