data_functionalizedCrystal
_audit_creation_method	'MofGen! by Chris Wilmer'
_symmetry_space_group_name_H-M	'P1'
_symmetry_Int_Tables_number	1
_symmetry_cell_setting	triclinic
loop_
_symmetry_equiv_pos_as_xyz
  x,y,z
_cell_length_a	19.077105
_cell_length_b	18.050590
_cell_length_c	19.077174
_cell_angle_alpha	92.271281
_cell_angle_beta	85.483752
_cell_angle_gamma	87.714864
loop_
_atom_site_label
_atom_site_type_symbol
_atom_site_fract_x
_atom_site_fract_y
_atom_site_fract_z
Zn1	Zn	1.093742	-0.360842	-0.441837
Zn2	Zn	1.088938	-0.479834	-0.323947
Zn3	Zn	0.971126	-0.350461	-0.319234
Zn4	Zn	0.975832	-0.479786	-0.437065
O5	O	1.032409	-0.417731	-0.380521
O6	O	1.191755	-0.380991	-0.430168
O7	O	1.069330	-0.458348	-0.224672
O8	O	0.987431	-0.247916	-0.335523
O9	O	1.188226	-0.468415	-0.343554
O10	O	1.077517	-0.255543	-0.425598
O11	O	0.982774	-0.363298	-0.221210
O12	O	0.873099	-0.363251	-0.330896
O13	O	0.995453	-0.468332	-0.536347
O14	O	0.876557	-0.458265	-0.417465
O15	O	1.082081	-0.380944	-0.539853
O16	O	1.073894	-0.583750	-0.338927
O17	O	0.990796	-0.583714	-0.422034
C18	C	0.849249	-0.409627	-0.373152
C19	C	0.770893	-0.406179	-0.370016
C20	C	0.735897	-0.454096	-0.413544
C21	C	0.662274	-0.450847	-0.410601
C22	C	0.623647	-0.399683	-0.364126
C23	C	0.658648	-0.351760	-0.320596
C24	C	0.732271	-0.355006	-0.323543
C25	C	0.403265	-0.384657	-0.350489
C26	C	0.329637	-0.381416	-0.347544
C27	C	0.333268	-0.480502	-0.437550
C28	C	0.406892	-0.483747	-0.440490
C29	C	0.441886	-0.435822	-0.396963
N30	N	0.548392	-0.396361	-0.361115
N31	N	0.517140	-0.439140	-0.399978
C32	C	1.032354	-0.610679	-0.380490
C33	C	1.032396	-0.693227	-0.380504
C34	C	1.077685	-0.892678	-0.335380
C35	C	1.097487	-0.945608	-0.400410
C36	C	1.032437	-0.844361	-0.380533
C37	C	1.012709	-0.938516	-0.315535
C38	C	1.032478	-0.990348	-0.380556
C39	C	1.052272	-0.896207	-0.445599
C40	C	0.967463	-0.889108	-0.360679
C41	C	0.987242	-0.942016	-0.425753
C42	C	1.032415	-0.760261	-0.380519
C43	C	1.032500	-1.074447	-0.380578
C44	C	1.216285	-0.425867	-0.387919
C45	C	1.294641	-0.429334	-0.391072
C46	C	1.039828	-0.425791	-0.564394
C47	C	1.042989	-0.429225	-0.642750
C48	C	1.032485	-0.224030	-0.380567
C49	C	1.032517	-0.141487	-0.380587
C50	C	0.999411	-0.381352	-0.677759
C51	C	1.002378	-0.384586	-0.751383
C52	C	1.048928	-0.435689	-0.789997
C53	C	1.092508	-0.483567	-0.754983
C54	C	1.089536	-0.480337	-0.681360
C55	C	1.062644	-0.450660	-1.010378
C56	C	1.065614	-0.453885	-1.084005
C57	C	0.975483	-0.354904	-1.080400
C58	C	0.972519	-0.351676	-1.006777
C59	C	1.016096	-0.399556	-0.971769
N60	N	1.051964	-0.438994	-0.865252
N61	N	1.013056	-0.396255	-0.896515
C62	C	1.025061	-0.409650	-0.197364
C63	C	1.022036	-0.406012	-0.119014
H64	H	0.298189	-0.339744	-0.309703
N65	N	0.936576	-0.970547	-0.476394
H66	H	0.887642	-0.949122	-0.461825
H67	H	0.951636	-0.955156	-0.525446
N68	N	1.170288	-0.978337	-0.422677
H69	H	1.203433	-0.937021	-0.432332
H70	H	1.187473	-1.009028	-0.383826
H71	H	0.961509	-0.339735	-0.646325
N72	N	0.990570	-0.963294	-0.242716
H73	H	1.029446	-0.995784	-0.225544
H74	H	0.980937	-0.918359	-0.209600
N75	N	1.074481	-0.871561	-0.518447
H76	H	1.118325	-0.842174	-0.516819
H77	H	1.084496	-0.916564	-0.551409
H78	H	0.966889	-0.345605	-0.779883
N79	N	0.922312	-0.296565	-0.965120
H80	H	0.949749	-0.262083	-0.935737
H81	H	0.895160	-0.266773	-0.998505
H82	H	0.912513	-0.864390	-0.343854
N83	N	0.928470	-0.303278	-1.118157
H84	H	0.937409	-0.313082	-1.170655
H85	H	0.877603	-0.312060	-1.103251
H86	H	1.125028	-0.519315	-0.652857
H87	H	1.115966	-0.871017	-0.297236
N88	N	1.115827	-0.509003	-1.125656
H89	H	1.142982	-0.538846	-1.092308
H90	H	1.088350	-0.543436	-1.155043
N91	N	1.109643	-0.502298	-0.972622
H92	H	1.139585	-0.535159	-1.008256
H93	H	1.141046	-0.472173	-0.943395
H94	H	0.431748	-0.345639	-0.315041
H95	H	0.633784	-0.489867	-0.446045
H96	H	1.130406	-0.525180	-0.786428
H97	H	0.767342	-0.495762	-0.451386
N98	N	0.616990	-0.296588	-0.270455
H99	H	0.565040	-0.301809	-0.275185
H100	H	0.627825	-0.306442	-0.220610
H101	H	0.304767	-0.519519	-0.472988
N102	N	0.448552	-0.538935	-0.490613
H103	H	0.415210	-0.568799	-0.517741
H104	H	0.480433	-0.511542	-0.524512
N105	N	0.770020	-0.303320	-0.276600
H106	H	0.734380	-0.270414	-0.246711
H107	H	0.799237	-0.333406	-0.245146
