data_functionalizedCrystal
_audit_creation_method	'MofGen! by Chris Wilmer'
_symmetry_space_group_name_H-M	'P1'
_symmetry_Int_Tables_number	1
_symmetry_cell_setting	triclinic
loop_
_symmetry_equiv_pos_as_xyz
  x,y,z
_cell_length_a	19.805404
_cell_length_b	12.759401
_cell_length_c	19.805399
_cell_angle_alpha	90.016822
_cell_angle_beta	90.029797
_cell_angle_gamma	90.030876
loop_
_atom_site_label
_atom_site_type_symbol
_atom_site_fract_x
_atom_site_fract_y
_atom_site_fract_z
Zn1	Zn	0.269451	-1.606117	-0.382660
Zn2	Zn	0.769451	-1.106117	0.117340
Zn3	Zn	0.382640	-1.605975	-0.269467
Zn4	Zn	0.882640	-1.105975	0.230533
Zn5	Zn	0.269473	-1.430428	-0.269490
Zn6	Zn	0.769473	-0.930428	0.230510
Zn7	Zn	0.382607	-1.430362	-0.382619
Zn8	Zn	0.882607	-0.930362	0.117381
O9	O	0.326043	-1.518221	-0.326059
O10	O	0.826043	-1.018221	0.173941
O11	O	0.284471	-1.753119	-0.367652
O12	O	0.784471	-1.253119	0.132348
O13	O	0.367651	-1.582657	-0.174753
O14	O	0.867651	-1.082657	0.325247
O15	O	0.174754	-1.453820	-0.284528
O16	O	0.674754	-0.953820	0.215472
O17	O	0.367630	-1.753015	-0.284490
O18	O	0.867630	-1.253015	0.215510
O19	O	0.174738	-1.582898	-0.367674
O20	O	0.674738	-1.082898	0.132326
O21	O	0.284508	-1.453683	-0.174770
O22	O	0.784508	-0.953683	0.325230
O23	O	0.284476	-1.283398	-0.284489
O24	O	0.784476	-0.783398	0.215511
O25	O	0.367574	-1.453708	-0.477341
O26	O	0.867574	-0.953708	0.022659
O27	O	0.367595	-1.283350	-0.367605
O28	O	0.867595	-0.783350	0.132395
O29	O	0.284439	-1.582834	-0.477371
O30	O	0.784439	-1.082834	0.022629
O31	O	0.477352	-1.582593	-0.284450
O32	O	0.977352	-1.082593	0.215550
O33	O	0.477328	-1.453571	-0.367583
O34	O	0.977328	-0.953571	0.132417
C35	C	0.326034	-1.245253	-0.326045
C36	C	0.826034	-0.745253	0.173955
C37	C	0.326047	-1.128477	-0.326056
C38	C	0.826047	-0.628477	0.173944
C39	C	0.501899	-1.518088	-0.326025
C40	C	1.001899	-1.018088	0.173975
C41	C	0.577131	-1.518128	-0.326032
C42	C	1.077131	-1.018128	0.173968
C43	C	0.149500	-1.518382	-0.326108
C44	C	0.649500	-1.018382	0.173892
C45	C	0.074268	-1.518451	-0.326129
C46	C	0.574268	-1.018451	0.173871
C47	C	1.038854	-1.585574	-0.369448
C48	C	1.538854	-1.085574	0.130552
C49	C	0.968166	-1.585533	-0.369432
C50	C	1.468166	-1.085533	0.130568
C51	C	0.932892	-1.518362	-0.326101
C52	C	1.432892	-1.018362	0.173899
C53	C	0.968311	-1.451236	-0.282777
C54	C	1.468311	-0.951236	0.217223
C55	C	1.038998	-1.451283	-0.282790
C56	C	1.538998	-0.951283	0.217210
C57	C	0.683238	-1.451043	-0.282724
C58	C	1.183238	-0.951043	0.217276
C59	C	0.612546	-1.450999	-0.282717
C60	C	1.112546	-0.950999	0.217283
C61	C	0.612406	-1.585293	-0.369367
C62	C	1.112406	-1.085293	0.130633
C63	C	0.683093	-1.585340	-0.369380
C64	C	1.183093	-1.085340	0.130620
C65	C	0.718505	-1.518218	-0.326054
C66	C	1.218505	-1.018218	0.173946
C67	C	0.795154	-1.518266	-0.326070
C68	C	1.295154	-1.018266	0.173930
C69	C	0.856245	-1.518308	-0.326087
C70	C	1.356245	-1.018308	0.173913
C71	C	0.326000	-1.518280	-0.502602
C72	C	0.826000	-1.018280	-0.002602
C73	C	0.325982	-1.518305	-0.577834
C74	C	0.825982	-1.018305	-0.077834
C75	C	0.326052	-1.792254	-0.326073
C76	C	0.826052	-1.292254	0.173927
C77	C	0.326055	-1.909031	-0.326079
C78	C	0.826055	-1.409031	0.173921
C79	C	0.369393	-1.073617	-0.369266
C80	C	0.869393	-0.573617	0.130734
C81	C	0.369396	-0.963893	-0.369279
C82	C	0.869396	-0.463893	0.130721
C83	C	0.282705	-0.963898	-0.282866
C84	C	0.782705	-0.463898	0.217134
C85	C	0.282699	-1.073620	-0.282857
C86	C	0.782699	-0.573620	0.217143
C87	C	0.282691	-1.585542	-0.613194
C88	C	0.782691	-1.085542	-0.113194
C89	C	0.282672	-1.585553	-0.683883
C90	C	0.782672	-1.085553	-0.183883
C91	C	0.325947	-1.518331	-0.719209
C92	C	0.825947	-1.018331	-0.219209
C93	C	0.369239	-1.451086	-0.683844
C94	C	0.869239	-0.951086	-0.183844
C95	C	0.369255	-1.451071	-0.613156
C96	C	0.869255	-0.951071	-0.113156
C97	C	0.369176	-1.451145	-0.968917
C98	C	0.869176	-0.951145	-0.468917
C99	C	0.369158	-1.451168	-1.039609
C100	C	0.869158	-0.951168	-0.539609
C101	C	0.282593	-1.585627	-1.039643
C102	C	0.782593	-1.085627	-0.539643
C103	C	0.282609	-1.585612	-0.968956
C104	C	0.782609	-1.085612	-0.468956
C105	C	0.325898	-1.518364	-0.933597
C106	C	0.825898	-1.018364	-0.433597
C107	C	0.325918	-1.518352	-0.856948
C108	C	0.825918	-1.018352	-0.356948
C109	C	0.325931	-1.518348	-0.795856
C110	C	0.825931	-1.018348	-0.295856
C111	C	0.326036	-1.518222	-0.150203
C112	C	0.826036	-1.018222	0.349797
C113	C	0.325864	-1.518401	-0.074971
C114	C	0.825864	-1.018401	0.425029
H115	H	1.067569	-1.640262	-0.404740
H116	H	1.567569	-1.140262	0.095260
O117	O	0.574502	-1.378549	-0.235973
O118	O	1.074502	-0.878549	0.264027
H119	H	0.519399	-1.389787	-0.243251
H120	H	1.019399	-0.889787	0.256749
H121	H	0.939333	-1.640190	-0.404705
H122	H	1.439333	-1.140190	0.095295
H123	H	0.939587	-1.396547	-0.247492
H124	H	1.439587	-0.896547	0.252508
O125	O	0.236020	-1.658051	-0.575092
O126	O	0.736020	-1.158051	-0.075092
H127	H	0.182893	-1.640078	-0.588667
H128	H	0.682893	-1.140078	-0.088667
O129	O	0.416149	-0.904663	-0.415853
O130	O	0.916149	-0.404663	0.084147
H131	H	0.450514	-0.854632	-0.385461
H132	H	0.950514	-0.354632	0.114539
O133	O	0.235946	-1.132805	-0.236251
O134	O	0.735946	-0.632805	0.263749
H135	H	0.266196	-1.182758	-0.201762
H136	H	0.766196	-0.682758	0.298238
O137	O	0.235985	-1.658079	-0.722025
O138	O	0.735985	-1.158079	-0.222025
H139	H	0.205903	-1.704831	-0.685584
H140	H	0.705903	-1.204831	-0.185584
H141	H	0.247413	-0.919220	-0.247695
H142	H	0.747413	-0.419220	0.252305
O143	O	0.235935	-1.658116	-0.930852
O144	O	0.735935	-1.158116	-0.430852
H145	H	0.205825	-1.704868	-0.967317
H146	H	0.705825	-1.204868	-0.467317
O147	O	0.415947	-1.378546	-0.575017
O148	O	0.915947	-0.878546	-0.075017
H149	H	0.408682	-1.389818	-0.519930
H150	H	0.908682	-0.889818	-0.019930
O151	O	0.235880	-1.658134	-1.077780
O152	O	0.735880	-1.158134	-0.577780
H153	H	0.243125	-1.646840	-1.132868
H154	H	0.743125	-1.146840	-0.632868
H155	H	0.404688	-1.118278	-0.404443
H156	H	0.904688	-0.618278	0.095557
O157	O	0.415827	-1.378650	-1.077716
O158	O	0.915827	-0.878650	-0.577716
H159	H	0.445926	-1.331875	-1.041253
H160	H	0.945926	-0.831875	-0.541253
O161	O	1.077194	-1.378893	-0.236059
O162	O	1.577194	-0.878893	0.263941
H163	H	1.132273	-1.390222	-0.243340
H164	H	1.632273	-0.890222	0.256660
O165	O	0.415909	-1.378571	-0.721943
O166	O	0.915909	-0.878571	-0.221943
H167	H	0.450346	-1.425564	-0.754139
H168	H	0.950346	-0.925564	-0.254139
H169	H	0.404435	-1.396403	-0.940136
H170	H	0.904435	-0.896403	-0.440136
H171	H	0.711809	-1.640034	-0.404667
H172	H	1.211809	-1.140034	0.095333
O173	O	0.574213	-1.657707	-0.416091
O174	O	1.074213	-1.157707	0.083909
H175	H	0.519133	-1.646404	-0.408799
H176	H	1.019133	-1.146404	0.091201
O177	O	0.721429	-1.378643	-0.236002
O178	O	1.221429	-0.878643	0.263998
H179	H	0.685023	-1.331920	-0.205877
H180	H	1.185023	-0.831920	0.294123
