data_functionalizedCrystal
_audit_creation_method	'MofGen! by Chris Wilmer'
_symmetry_space_group_name_H-M	'P1'
_symmetry_Int_Tables_number	1
_symmetry_cell_setting	triclinic
loop_
_symmetry_equiv_pos_as_xyz
  x,y,z
_cell_length_a	21.295420
_cell_length_b	21.295416
_cell_length_c	16.625539
_cell_angle_alpha	89.969100
_cell_angle_beta	90.020640
_cell_angle_gamma	89.973887
loop_
_atom_site_label
_atom_site_type_symbol
_atom_site_fract_x
_atom_site_fract_y
_atom_site_fract_z
Zn1	Zn	0.962332	0.250679	0.455896
Zn2	Zn	1.462332	0.750679	0.955896
Zn3	Zn	0.962242	0.355952	0.321057
Zn4	Zn	1.462242	0.855952	0.821057
Zn5	Zn	0.857062	0.250693	0.321077
Zn6	Zn	1.357062	0.750693	0.821077
Zn7	Zn	0.857024	0.355906	0.455847
Zn8	Zn	1.357024	0.855906	0.955847
O9	O	0.909665	0.303308	0.388469
O10	O	1.409665	0.803308	0.888469
O11	O	1.050409	0.264657	0.438022
O12	O	1.550409	0.764657	0.938022
O13	O	0.948267	0.342015	0.208227
O14	O	1.448267	0.842015	0.708227
O15	O	0.871080	0.162602	0.338989
O16	O	1.371080	0.662602	0.838989
O17	O	1.050343	0.342001	0.338957
O18	O	1.550343	0.842001	0.838957
O19	O	0.948421	0.162591	0.438041
O20	O	1.448421	0.662591	0.938041
O21	O	0.870992	0.264681	0.208242
O22	O	1.370992	0.764681	0.708242
O23	O	0.768968	0.264637	0.338942
O24	O	1.268968	0.764637	0.838942
O25	O	0.871016	0.341923	0.568686
O26	O	1.371016	0.841923	1.068686
O27	O	0.768940	0.341936	0.437957
O28	O	1.268940	0.841936	0.937957
O29	O	0.948384	0.264612	0.568722
O30	O	1.448384	0.764612	1.068722
O31	O	0.948231	0.444036	0.338909
O32	O	1.448231	0.944036	0.838909
O33	O	0.870928	0.444002	0.437938
O34	O	1.370928	0.944002	0.937938
C35	C	0.746113	0.303284	0.388447
C36	C	1.246113	0.803284	0.888447
C37	C	0.676145	0.303288	0.388456
C38	C	1.176145	0.803288	0.888456
C39	C	0.176721	0.263130	0.440149
C40	C	0.676721	0.763130	0.940149
C41	C	0.242464	0.263125	0.440149
C42	C	0.742464	0.763125	0.940149
C43	C	0.275306	0.303327	0.388488
C44	C	0.775306	0.803327	0.888488
C45	C	0.242400	0.343548	0.336838
C46	C	0.742400	0.843548	0.836838
C47	C	0.176659	0.343556	0.336846
C48	C	0.676659	0.843556	0.836846
N49	N	0.378499	0.308074	0.317886
N50	N	0.878499	0.808074	0.817886
N51	N	0.440951	0.308063	0.317882
N52	N	0.940951	0.808063	0.817882
C53	C	0.473380	0.303306	0.388464
C54	C	0.973380	0.803306	0.888464
N55	N	0.440999	0.298549	0.459053
N56	N	0.940999	0.798549	0.959053
N57	N	0.378542	0.298557	0.459057
N58	N	0.878542	0.798557	0.959057
C59	C	0.346591	0.303323	0.388475
C60	C	0.846591	0.803323	0.888475
C61	C	0.577564	0.263086	0.440115
C62	C	1.077564	0.763086	0.940115
C63	C	0.643308	0.263085	0.440116
C64	C	1.143308	0.763085	0.940116
C65	C	0.643243	0.343505	0.336799
C66	C	1.143243	0.843505	0.836799
C67	C	0.577500	0.343509	0.336805
C68	C	1.077500	0.843509	0.836805
C69	C	0.544665	0.303296	0.388461
C70	C	1.044665	0.803296	0.888461
C71	C	0.909583	0.466859	0.388434
C72	C	1.409583	0.966859	0.888434
C73	C	0.909605	0.536827	0.388445
C74	C	1.409605	1.036827	0.888445
C75	C	0.949893	0.569691	0.336936
C76	C	1.449893	1.069691	0.836936
C77	C	0.949922	0.635433	0.336957
C78	C	1.449922	1.135433	0.836957
C79	C	0.909654	0.668310	0.388481
C80	C	1.409654	1.168310	0.888481
C81	C	0.869363	0.635439	0.440001
C82	C	1.369363	1.135439	0.940001
C83	C	0.869339	0.569697	0.439983
C84	C	1.369339	1.069697	0.939983
N85	N	0.854587	0.771572	0.394625
N86	N	1.354587	1.271572	0.894625
N87	N	0.854611	0.834023	0.394637
N88	N	1.354611	1.334023	0.894637
C89	C	0.909725	0.866385	0.388538
C90	C	1.409725	1.366385	0.888538
N91	N	0.964814	0.833936	0.382410
N92	N	1.464814	1.333936	0.882410
N93	N	0.964788	0.771478	0.382394
N94	N	1.464788	1.271478	0.882394
C95	C	0.909675	0.739595	0.388506
C96	C	1.409675	1.239595	0.888506
C97	C	0.950048	0.970533	0.337049
C98	C	1.450048	1.470533	0.837049
C99	C	0.950078	1.036277	0.337076
C100	C	1.450078	1.536277	0.837076
C101	C	0.869514	1.036281	0.440115
C102	C	1.369514	1.536281	0.940115
C103	C	0.869489	0.970539	0.440092
C104	C	1.369489	1.470539	0.940092
C105	C	0.909755	0.937669	0.388554
C106	C	1.409755	1.437669	0.888554
C107	C	1.073855	0.303332	0.388493
C108	C	1.573855	0.803332	0.888493
C109	C	1.143823	0.303343	0.388503
C110	C	1.643823	0.803343	0.888503
C111	C	0.909706	0.303261	0.598778
C112	C	1.409706	0.803261	1.098778
C113	C	0.909723	0.303241	0.688400
C114	C	1.409723	0.803241	1.188400
C115	C	0.909765	1.139117	0.388537
C116	C	1.409765	1.639117	0.888537
C117	C	0.909810	1.069149	0.388601
C118	C	1.409810	1.569149	0.888601
C119	C	0.909660	0.303309	0.178979
C120	C	1.409660	0.803309	0.678979
C121	C	0.909765	0.303152	0.089358
C122	C	1.409765	0.803152	0.589358
C123	C	0.909752	0.303170	1.016575
C124	C	1.409752	0.803170	1.516575
C125	C	0.909742	0.303192	0.925267
C126	C	1.409742	0.803192	1.425267
C127	C	0.909738	0.303206	0.852490
C128	C	1.409738	0.803206	1.352490
C129	C	0.909728	0.303227	0.761176
C130	C	1.409728	0.803227	1.261176
H131	H	0.550828	0.230342	0.482177
H132	H	1.050828	0.730342	0.982177
H133	H	0.670092	0.230341	0.482178
H134	H	1.170092	0.730341	0.982178
Br135	Br	1.004548	0.525084	0.267003
Br136	Br	1.504548	1.025084	0.767003
Br137	Br	0.286970	0.398113	0.266733
Br138	Br	0.786970	0.898113	0.766733
Br139	Br	0.287121	0.208546	0.510244
Br140	Br	0.787121	0.708546	1.010244
Br141	Br	1.004766	1.080879	0.267172
Br142	Br	1.504766	1.580879	0.767172
Br143	Br	0.814660	0.525094	0.509896
Br144	Br	1.314660	1.025094	1.009896
H145	H	0.982837	0.943770	0.295086
H146	H	1.482837	1.443770	0.795086
Br147	Br	0.532850	0.398078	0.266698
Br148	Br	1.032850	0.898078	0.766698
Br149	Br	0.687807	0.398073	0.266696
Br150	Br	1.187807	0.898073	0.766696
H151	H	0.982731	0.662196	0.295012
H152	H	1.482731	1.162196	0.795012
H153	H	0.836729	1.063049	0.482070
H154	H	1.336729	1.563049	0.982070
Br155	Br	0.814717	0.680055	0.509932
Br156	Br	1.314717	1.180055	1.009932
Br157	Br	0.132008	0.398133	0.266747
Br158	Br	0.632008	0.898133	0.766747
Br159	Br	0.814808	0.925935	0.510000
Br160	Br	1.314808	1.425935	1.010000
Br161	Br	0.132161	0.208560	0.510260
Br162	Br	0.632161	0.708560	1.010260
