data_functionalizedCrystal
_audit_creation_method	'MofGen! by Chris Wilmer'
_symmetry_space_group_name_H-M	'P1'
_symmetry_Int_Tables_number	1
_symmetry_cell_setting	triclinic
loop_
_symmetry_equiv_pos_as_xyz
  x,y,z
_cell_length_a	17.699077
_cell_length_b	11.026607
_cell_length_c	16.776229
_cell_angle_alpha	89.991871
_cell_angle_beta	90.003019
_cell_angle_gamma	95.933297
loop_
_atom_site_label
_atom_site_type_symbol
_atom_site_fract_x
_atom_site_fract_y
_atom_site_fract_z
O1	O	1.025147	0.153342	0.066275
O2	O	1.525147	0.653342	0.566275
O3	O	0.807511	0.173307	0.066279
O4	O	1.307511	0.673307	0.566279
O5	O	0.898292	-0.013275	0.066274
O6	O	1.398292	0.486725	0.566274
O7	O	0.934367	0.339923	0.066280
O8	O	1.434367	0.839923	0.566280
O9	O	0.898286	-0.013242	-0.066302
O10	O	1.398286	0.486758	0.433698
O11	O	0.807505	0.173339	-0.066298
O12	O	1.307505	0.673339	0.433702
O13	O	1.025141	0.153374	-0.066301
O14	O	1.525141	0.653374	0.433699
Zn15	Zn	0.916322	0.163362	-0.087349
Zn16	Zn	1.416322	0.663362	0.412651
Zn17	Zn	0.916330	0.163319	0.087326
Zn18	Zn	1.416330	0.663319	0.587326
O19	O	0.934360	0.339956	-0.066297
O20	O	1.434360	0.839956	0.433703
C21	C	0.779213	0.172609	-0.000009
C22	C	1.279213	0.672609	0.499991
C23	C	0.694900	0.170466	-0.000008
C24	C	1.194900	0.670466	0.499992
C25	C	0.655291	0.169475	-0.072276
C26	C	1.155291	0.669475	0.427724
C27	C	0.576069	0.167442	-0.072277
C28	C	1.076069	0.667442	0.427723
C29	C	0.536459	0.166410	-0.000008
C30	C	1.036459	0.666410	0.499992
C31	C	0.576074	0.167398	0.072265
C32	C	1.076074	0.667398	0.572265
C33	C	0.655293	0.169422	0.072266
C34	C	1.155293	0.669422	0.572266
C35	C	0.256589	0.159235	0.072267
C36	C	0.756589	0.659235	0.572267
C37	C	0.177363	0.157215	0.072261
C38	C	0.677363	0.657215	0.572261
C39	C	0.177364	0.157255	-0.072275
C40	C	0.677364	0.657255	0.427725
C41	C	0.256584	0.159279	-0.072275
C42	C	0.756584	0.659279	0.427725
C43	C	0.296192	0.160261	-0.000002
C44	C	0.796192	0.660261	0.499998
C45	C	0.382093	0.162462	-0.000002
C46	C	0.882093	0.662462	0.499998
C47	C	0.450559	0.164217	-0.000008
C48	C	0.950559	0.664217	0.499992
C49	C	0.891634	-0.058450	-0.000013
C50	C	1.391634	0.441550	0.499987
C51	C	0.871794	-0.193105	-0.000010
C52	C	1.371794	0.306895	0.499990
C53	C	0.926574	-0.267074	-0.000009
C54	C	1.426574	0.232926	0.499991
C55	C	0.906070	-0.406247	-0.000006
C56	C	1.406070	0.093753	0.499994
C57	C	1.053439	0.154072	-0.000012
C58	C	1.553439	0.654072	0.499988
C59	C	1.137752	0.156215	-0.000008
C60	C	1.637752	0.656215	0.499992
N61	N	0.916322	0.163390	-0.206560
N62	N	1.416322	0.663390	0.293440
C63	C	0.941019	0.385131	-0.000008
C64	C	1.441019	0.885131	0.499992
C65	C	0.960858	0.519786	-0.000006
C66	C	1.460858	1.019786	0.499994
C67	C	0.860423	0.089814	-0.751732
C68	C	1.360423	0.589814	-0.251732
C69	C	0.860423	0.089824	-0.668280
C70	C	1.360423	0.589824	-0.168280
C71	C	0.916332	0.163309	-0.626559
C72	C	1.416332	0.663309	-0.126559
C73	C	0.972250	0.236779	-0.668295
C74	C	1.472250	0.736779	-0.168295
C75	C	0.972252	0.236761	-0.751746
C76	C	1.472252	0.736761	-0.251746
C77	C	0.972240	0.236850	-0.331748
C78	C	1.472240	0.736850	0.168252
C79	C	0.972231	0.236865	-0.248292
C80	C	1.472231	0.736865	0.251708
C81	C	0.860410	0.089913	-0.248282
C82	C	1.360410	0.589913	0.251718
C83	C	0.860413	0.089896	-0.331733
C84	C	1.360413	0.589896	0.168267
C85	C	0.916333	0.163360	-0.373462
C86	C	1.416333	0.663360	0.126538
C87	C	0.916333	0.163346	-0.463950
C88	C	1.416333	0.663346	0.036050
C89	C	0.916329	0.163330	-0.536073
C90	C	1.416329	0.663330	-0.036073
N91	N	0.916335	0.163281	0.206538
N92	N	1.416335	0.663281	0.706538
H93	H	0.145115	0.156374	0.131114
H94	H	0.645115	0.656374	0.631114
H95	H	0.814884	0.030062	-0.365698
H96	H	1.314884	0.530062	0.134302
H97	H	1.022941	-0.440516	0.000053
H98	H	1.522941	0.059484	0.500053
F99	F	0.697440	0.170581	-0.149195
F100	F	1.197440	0.670581	0.350805
H101	H	0.809716	-0.232811	-0.000003
H102	H	1.309716	0.267189	0.499997
F103	F	0.298732	0.160281	0.149187
F104	F	0.798732	0.660281	0.649187
F105	F	0.533913	0.166263	0.149179
F106	F	1.033913	0.666263	0.649179
F107	F	0.135204	0.156205	-0.149196
F108	F	0.635204	0.656205	0.350804
H109	H	0.988652	-0.227367	-0.000015
H110	H	1.488652	0.272633	0.499985
F111	F	0.533918	0.166403	-0.149195
F112	F	1.033918	0.666403	0.350805
H113	H	1.017782	0.296585	-0.785722
H114	H	1.517782	0.796585	-0.285722
F115	F	0.697448	0.170473	0.149183
F116	F	1.197448	0.670473	0.649183
F117	F	0.824924	-0.458133	0.000003
F118	F	1.324924	0.041867	0.500003
F119	F	0.800913	0.011606	-0.796127
F120	F	1.300913	0.511606	-0.296127
H121	H	0.814896	0.029997	-0.634307
H122	H	1.314896	0.529997	-0.134307
H123	H	0.814880	0.030091	-0.214297
H124	H	1.314880	0.530091	0.285703
H125	H	1.017762	0.296708	-0.214325
H126	H	1.517762	0.796708	0.285675
F127	F	1.031751	0.315045	-0.376148
F128	F	1.531751	0.815045	0.123852
H129	H	1.017774	0.296605	-0.634320
H130	H	1.517774	0.796605	-0.134320
H131	H	0.288831	0.160125	-0.131124
H132	H	0.788831	0.660125	0.368876
