data_functionalizedCrystal
_audit_creation_method	'MofGen! by Chris Wilmer'
_symmetry_space_group_name_H-M	'P1'
_symmetry_Int_Tables_number	1
_symmetry_cell_setting	triclinic
loop_
_symmetry_equiv_pos_as_xyz
  x,y,z
_cell_length_a	12.759395
_cell_length_b	12.759394
_cell_length_c	12.759393
_cell_angle_alpha	89.967365
_cell_angle_beta	89.980343
_cell_angle_gamma	90.015598
loop_
_atom_site_label
_atom_site_type_symbol
_atom_site_fract_x
_atom_site_fract_y
_atom_site_fract_z
Zn1	Zn	1.606253	-0.418180	-0.594013
Zn2	Zn	1.606148	-0.593900	-0.418331
Zn3	Zn	1.430556	-0.418238	-0.418348
Zn4	Zn	1.430544	-0.593820	-0.593968
O5	O	1.518375	-0.506034	-0.506165
O6	O	1.753261	-0.441499	-0.570720
O7	O	1.582816	-0.570655	-0.271312
O8	O	1.453912	-0.271209	-0.441677
O9	O	1.753183	-0.570599	-0.441647
O10	O	1.582996	-0.271166	-0.570737
O11	O	1.453809	-0.441597	-0.271325
O12	O	1.283533	-0.441520	-0.441633
O13	O	1.453891	-0.570463	-0.740995
O14	O	1.283524	-0.570519	-0.570661
O15	O	1.582984	-0.441421	-0.741028
O16	O	1.582804	-0.740910	-0.441604
O17	O	1.453789	-0.740851	-0.570644
C18	C	1.245408	-0.506018	-0.506145
C19	C	1.128631	-0.506036	-0.506161
C20	C	0.909277	-0.371844	-0.640816
C21	C	0.964184	-0.304725	-0.708114
C22	C	1.073905	-0.304707	-0.708096
C23	C	1.128723	-0.371817	-0.640775
C24	C	1.073816	-0.438935	-0.573477
C25	C	0.964092	-0.438944	-0.573500
C26	C	1.073724	-0.573154	-0.438863
C27	C	0.964003	-0.573169	-0.438874
C28	C	1.128542	-0.640264	-0.371542
C29	C	1.073635	-0.707379	-0.304237
C30	C	0.963907	-0.707394	-0.304257
C31	C	0.909096	-0.640287	-0.371576
C32	C	1.518312	-0.779002	-0.506140
C33	C	1.518381	-0.895778	-0.506164
C34	C	1.652826	-0.895786	-0.371895
C35	C	1.720076	-0.950651	-0.304773
C36	C	1.720138	-1.060372	-0.304802
C37	C	1.652944	-1.115232	-0.371962
C38	C	1.585695	-1.060367	-0.439084
C39	C	1.585638	-0.950643	-0.439046
C40	C	1.451257	-1.060359	-0.573356
C41	C	1.451188	-0.950638	-0.573324
C42	C	1.384063	-1.115219	-0.640516
C43	C	1.316807	-1.060354	-0.707635
C44	C	1.316747	-0.950626	-0.707602
C45	C	1.383938	-0.895773	-0.640446
C46	C	1.792409	-0.506051	-0.506186
C47	C	1.909185	-0.506059	-0.506196
C48	C	1.518448	-0.505926	-0.780199
C49	C	1.518479	-0.505881	-0.896975
C50	C	1.518467	-0.232001	-0.506214
C51	C	1.518506	-0.115224	-0.506234
C52	C	1.451353	-0.438641	-1.061577
C53	C	1.451327	-0.438671	-0.951852
C54	C	1.585669	-0.573058	-0.951828
C55	C	1.585699	-0.573022	-1.061550
C56	C	1.373789	-0.361057	-1.061590
C57	C	1.373763	-0.361086	-0.951865
C58	C	1.518363	-0.506065	-0.233198
C59	C	1.518536	-0.505815	-0.116422
H60	H	1.217883	-0.640251	-0.371538
H61	H	1.395609	-0.279676	-1.091387
H62	H	1.262108	-1.105029	-0.762316
C63	C	1.659536	-0.646993	-0.891467
C64	C	1.659505	-0.647038	-0.770777
C65	C	1.733370	-0.720979	-0.710419
C66	C	1.807265	-0.794875	-0.770750
C67	C	1.807299	-0.794833	-0.891447
C68	C	1.733434	-0.720892	-0.951806
H69	H	1.604800	-0.592334	-0.726110
H70	H	1.733344	-0.721010	-0.621071
H71	H	1.861945	-0.849611	-0.726070
H72	H	1.862004	-0.849537	-0.936114
H73	H	1.733460	-0.720861	-1.041154
H74	H	1.296496	-0.390190	-1.095610
C75	C	1.133933	-0.781194	-0.230192
C76	C	1.254623	-0.781184	-0.230179
C77	C	1.314926	-0.855000	-0.156132
C78	C	1.254539	-0.928826	-0.082099
C79	C	1.133842	-0.928839	-0.082110
C80	C	1.073539	-0.855023	-0.156157
H81	H	1.299332	-0.726531	-0.284985
H82	H	1.404274	-0.854990	-0.156124
H83	H	1.299178	-0.983469	-0.027285
H84	H	1.089133	-0.983492	-0.027304
H85	H	0.984191	-0.855033	-0.156165
C86	C	1.263829	-0.390548	-0.911598
C87	C	1.168636	-0.322349	-0.940753
C88	C	1.058711	-0.351814	-0.900480
C89	C	1.043980	-0.449478	-0.831054
C90	C	1.139176	-0.517683	-0.801896
C91	C	1.249101	-0.488218	-0.842168
H92	H	1.179538	-0.250047	-0.992150
H93	H	0.988240	-0.301323	-0.922065
H94	H	0.962607	-0.471290	-0.801242
H95	H	1.128274	-0.589985	-0.750499
H96	H	1.319572	-0.538709	-0.820583
H97	H	1.640415	-0.627713	-1.106201
C98	C	0.903879	-0.230900	-0.782155
C99	C	0.828475	-0.276522	-0.864570
C100	C	0.768173	-0.202696	-0.938608
C101	C	0.783274	-0.083249	-0.930230
C102	C	0.858682	-0.037621	-0.847811
C103	C	0.918984	-0.111447	-0.773774
H104	H	0.817293	-0.364949	-0.870775
H105	H	0.712351	-0.236474	-0.999620
H106	H	0.738635	-0.028599	-0.985037
H107	H	0.869864	0.050806	-0.841606
H108	H	0.974806	-0.077669	-0.712762
H109	H	1.118610	-0.250055	-0.762897
C110	C	1.413152	-0.256683	-0.905910
C111	C	1.446933	-0.167189	-0.979577
C112	C	1.486327	-0.062792	-0.933619
C113	C	1.491942	-0.047888	-0.813995
C114	C	1.458161	-0.137384	-0.740321
C115	C	1.418766	-0.241781	-0.786278
H116	H	1.442777	-0.178220	-1.068136
H117	H	1.511335	0.003459	-0.988158
H118	H	1.521104	0.029394	-0.779974
H119	H	1.462316	-0.126353	-0.651761
H120	H	1.393759	-0.308032	-0.731740
H121	H	0.819936	-0.371829	-0.640815
C122	C	1.793989	-0.890305	-0.230902
C123	C	1.793929	-0.769615	-0.230863
C124	C	1.867846	-0.709274	-0.156996
C125	C	1.941823	-0.769623	-0.083169
C126	C	1.941885	-0.890320	-0.083206
C127	C	1.867968	-0.950661	-0.157073
H128	H	1.739165	-0.724935	-0.285516
H129	H	1.867799	-0.619926	-0.156970
H130	H	1.996540	-0.724956	-0.028489
H131	H	1.996650	-0.935000	-0.028553
H132	H	1.868015	-1.040009	-0.157100
C133	C	1.794109	-1.120732	-0.230968
C134	C	1.785579	-1.105762	-0.111520
C135	C	1.859548	-1.166123	-0.037686
C136	C	1.942047	-1.241452	-0.083300
C137	C	1.950581	-1.256425	-0.202754
C138	C	1.876612	-1.196065	-0.276588
H139	H	1.724505	-1.049996	-0.077748
H140	H	1.853231	-1.155038	0.050742
H141	H	1.996804	-1.286135	-0.028644
H142	H	2.011655	-1.312192	-0.236526
H143	H	1.882929	-1.207149	-0.365016
H144	H	1.218064	-0.371806	-0.640776
H145	H	0.919208	-0.762055	-0.249459
H146	H	0.819755	-0.640279	-0.371586
H147	H	1.652769	-0.806445	-0.371852
H148	H	1.653010	-1.204573	-0.371988
H149	H	1.384123	-1.204560	-0.640539
H150	H	1.383889	-0.806432	-0.640407
H151	H	1.261988	-0.905960	-0.762265
