data_functionalizedCrystal
_audit_creation_method	'MofGen! by Chris Wilmer'
_symmetry_space_group_name_H-M	'P1'
_symmetry_Int_Tables_number	1
_symmetry_cell_setting	triclinic
loop_
_symmetry_equiv_pos_as_xyz
  x,y,z
_cell_length_a	12.759401
_cell_length_b	29.839131
_cell_length_c	12.759393
_cell_angle_alpha	89.963159
_cell_angle_beta	89.981287
_cell_angle_gamma	90.042945
loop_
_atom_site_label
_atom_site_type_symbol
_atom_site_fract_x
_atom_site_fract_y
_atom_site_fract_z
Zn1	Zn	1.606048	-0.178813	-0.593974
Zn2	Zn	2.106048	0.321187	-0.093974
Zn3	Zn	1.605864	-0.253950	-0.418275
Zn4	Zn	2.105864	0.246050	0.081725
Zn5	Zn	1.430354	-0.178837	-0.418309
Zn6	Zn	1.930354	0.321163	0.081691
Zn7	Zn	1.430257	-0.253919	-0.593912
Zn8	Zn	1.930257	0.246081	-0.093912
O9	O	1.518131	-0.216380	-0.506117
O10	O	2.018131	0.283620	-0.006117
O11	O	1.753045	-0.188783	-0.570679
O12	O	2.253045	0.311217	-0.070679
O13	O	1.582546	-0.244010	-0.271258
O14	O	2.082546	0.255990	0.228742
O15	O	1.453778	-0.115967	-0.441652
O16	O	1.953778	0.384033	0.058348
O17	O	1.752910	-0.243986	-0.441593
O18	O	2.252910	0.256014	0.058407
O19	O	1.582860	-0.115949	-0.570712
O20	O	2.082860	0.384051	-0.070712
O21	O	1.453599	-0.188824	-0.271283
O22	O	1.953599	0.311176	0.228717
O23	O	1.283320	-0.188794	-0.441592
O24	O	1.783320	0.311206	0.058408
O25	O	1.453613	-0.243933	-0.740941
O26	O	1.953613	0.256067	-0.240941
O27	O	1.283249	-0.243956	-0.570606
O28	O	1.783249	0.256044	-0.070606
O29	O	1.582766	-0.188753	-0.740987
O30	O	2.082766	0.311247	-0.240987
O31	O	1.582452	-0.316813	-0.441533
O32	O	2.082452	0.183187	0.058467
O33	O	1.453434	-0.316790	-0.570573
O34	O	1.953434	0.183210	-0.070573
C35	C	1.245163	-0.216374	-0.506097
C36	C	1.745163	0.283626	-0.006097
C37	C	1.128387	-0.216383	-0.506113
C38	C	1.628387	0.283617	-0.006113
C39	C	1.073515	-0.245150	-0.573185
C40	C	1.573515	0.254850	-0.073185
C41	C	0.963791	-0.245151	-0.573206
C42	C	1.463791	0.254849	-0.073206
C43	C	0.963820	-0.187618	-0.439073
C44	C	1.463820	0.312382	0.060927
C45	C	1.073542	-0.187615	-0.439058
C46	C	1.573542	0.312385	0.060942
C47	C	0.813873	-0.261271	-0.697062
C48	C	1.313873	0.238729	-0.197062
C49	C	0.758998	-0.290045	-0.764125
C50	C	1.258998	0.209955	-0.264125
C51	C	0.794547	-0.333888	-0.780061
C52	C	1.294547	0.166112	-0.280061
C53	C	0.884970	-0.348966	-0.728920
C54	C	1.384970	0.151034	-0.228920
C55	C	0.939839	-0.320195	-0.661849
C56	C	1.439839	0.179805	-0.161849
C57	C	0.904292	-0.276346	-0.645932
C58	C	1.404292	0.223654	-0.145932
C59	C	1.223462	-0.171499	-0.315200
C60	C	1.723462	0.328501	0.184800
C61	C	1.278334	-0.142730	-0.248124
C62	C	1.778334	0.357270	0.251876
C63	C	1.242787	-0.098886	-0.232176
C64	C	1.742787	0.401114	0.267824
C65	C	1.152360	-0.083810	-0.283300
C66	C	1.652360	0.416190	0.216700
C67	C	1.097489	-0.112579	-0.350376
C68	C	1.597489	0.387421	0.149624
C69	C	1.133044	-0.156422	-0.366325
C70	C	1.633044	0.343578	0.133675
C71	C	1.517941	-0.333103	-0.506065
C72	C	2.017941	0.166897	-0.006065
C73	C	1.517956	-0.383037	-0.506078
C74	C	2.017956	0.116963	-0.006078
C75	C	1.585433	-0.692680	-0.439024
C76	C	2.085433	-0.192680	0.060976
C77	C	1.585562	-0.880353	-0.439065
C78	C	2.085562	-0.380353	0.060935
O79	O	1.642783	-0.904617	-0.382014
O80	O	2.142783	-0.404617	0.117986
N81	N	1.518349	-0.903822	-0.506197
N82	N	2.018349	-0.403822	-0.006197
C83	C	1.451103	-0.880370	-0.573327
C84	C	1.951103	-0.380370	-0.073327
O85	O	1.393944	-0.904638	-0.630435
O86	O	1.893944	-0.404638	-0.130435
C87	C	1.450979	-0.692698	-0.573291
C88	C	1.950979	-0.192698	-0.073291
C89	C	1.518190	-0.669231	-0.506148
C90	C	2.018190	-0.169231	-0.006148
C91	C	1.652638	-0.669213	-0.371888
C92	C	2.152638	-0.169213	0.128112
C93	C	1.652601	-0.622297	-0.371874
C94	C	2.152601	-0.122297	0.128126
C95	C	1.585358	-0.598849	-0.438997
C96	C	2.085358	-0.098849	0.061003
C97	C	1.518152	-0.622316	-0.506134
C98	C	2.018152	-0.122316	-0.006134
C99	C	1.383739	-0.669247	-0.640427
C100	C	1.883739	-0.169247	-0.140427
C101	C	1.383716	-0.622326	-0.640413
C102	C	1.883716	-0.122326	-0.140413
C103	C	1.450927	-0.598859	-0.573270
C104	C	1.950927	-0.098859	-0.073270
C105	C	1.450872	-0.551952	-0.573244
C106	C	1.950872	-0.051952	-0.073244
N107	N	1.518086	-0.528482	-0.506113
N108	N	2.018086	-0.028482	-0.006113
C109	C	1.585329	-0.551931	-0.438989
C110	C	2.085329	-0.051931	0.061011
C111	C	1.451171	-0.978901	-0.573340
C112	C	1.951171	-0.478901	-0.073340
C113	C	1.451200	-1.025818	-0.573348
C114	C	1.951200	-0.525818	-0.073348
C115	C	1.585662	-1.025798	-0.439087
C116	C	2.085662	-0.525798	0.060913
C117	C	1.585626	-0.978879	-0.439075
C118	C	2.085626	-0.478879	0.060925
C119	C	1.518385	-0.955431	-0.506209
C120	C	2.018385	-0.455431	-0.006209
C121	C	1.585245	-0.453405	-0.438965
C122	C	2.085245	0.046595	0.061035
C123	C	1.585199	-0.406486	-0.438955
C124	C	2.085199	0.093514	0.061045
C125	C	1.450742	-0.406510	-0.573219
C126	C	1.950742	0.093490	-0.073219
C127	C	1.450784	-0.453426	-0.573226
C128	C	1.950784	0.046574	-0.073226
C129	C	1.518044	-0.476872	-0.506096
C130	C	2.018044	0.023128	-0.006096
O131	O	1.393690	-0.527658	-0.630274
O132	O	1.893690	-0.027658	-0.130274
O133	O	1.642496	-0.527655	-0.381907
O134	O	2.142496	-0.027655	0.118093
C135	C	1.585470	-0.739595	-0.439038
C136	C	2.085470	-0.239595	0.060962
C137	C	1.518264	-0.763062	-0.506175
C138	C	2.018264	-0.263062	-0.006175
C139	C	1.451021	-0.739613	-0.573298
C140	C	1.951021	-0.239613	-0.073298
C141	C	1.518293	-0.809980	-0.506183
C142	C	2.018293	-0.309980	-0.006183
C143	C	1.585536	-0.833428	-0.439060
C144	C	2.085536	-0.333428	0.060940
C145	C	1.652750	-0.809959	-0.371928
C146	C	2.152750	-0.309959	0.128072
C147	C	1.652713	-0.763044	-0.371915
C148	C	2.152713	-0.263044	0.128085
C149	C	1.383807	-0.763083	-0.640430
C150	C	1.883807	-0.263083	-0.140430
C151	C	1.383849	-0.809998	-0.640437
C152	C	1.883849	-0.309998	-0.140437
C153	C	1.451092	-0.833447	-0.573314
C154	C	1.951092	-0.333447	-0.073314
C155	C	1.792164	-0.216386	-0.506139
C156	C	2.292164	0.283614	-0.006139
C157	C	1.908941	-0.216388	-0.506148
C158	C	2.408941	0.283612	-0.006148
C159	C	1.518199	-0.216337	-0.780151
C160	C	2.018199	0.283663	-0.280151
C161	C	1.518228	-0.216318	-0.896928
C162	C	2.018228	0.283682	-0.396928
C163	C	1.518350	-0.099202	-0.506193
C164	C	2.018350	0.400798	-0.006193
C165	C	1.518443	-0.049267	-0.506225
C166	C	2.018443	0.450733	-0.006225
C167	C	1.451000	-0.245037	-0.951768
C168	C	1.951000	0.254963	-0.451768
C169	C	1.451038	-0.245020	-1.061492
C170	C	1.951038	0.254980	-0.561492
C171	C	1.585533	-0.187562	-1.061526
C172	C	2.085533	0.312438	-0.561526
C173	C	1.585500	-0.187582	-0.951804
C174	C	2.085500	0.312418	-0.451804
C175	C	1.413443	-0.297976	-1.211412
C176	C	1.913443	0.202024	-0.711412
C177	C	1.346200	-0.326690	-1.266256
C178	C	1.846200	0.173310	-0.766256
C179	C	1.243661	-0.333591	-1.230639
C180	C	1.743661	0.166409	-0.730639
C181	C	1.208346	-0.311771	-1.140179
C182	C	1.708346	0.188229	-0.640179
C183	C	1.275584	-0.283052	-1.085341
C184	C	1.775584	0.216948	-0.585341
C185	C	1.378137	-0.276160	-1.120957
C186	C	1.878137	0.223840	-0.620957
C187	C	1.623084	-0.134626	-0.801882
C188	C	2.123084	0.365374	-0.301882
C189	C	1.690317	-0.105905	-0.747042
C190	C	2.190317	0.394095	-0.247042
C191	C	1.792857	-0.099000	-0.782657
C192	C	2.292857	0.401000	-0.282657
C193	C	1.828169	-0.120812	-0.873120
C194	C	2.328169	0.379188	-0.373120
C195	C	1.760935	-0.149533	-0.927960
C196	C	2.260935	0.350467	-0.427960
C197	C	1.658396	-0.156439	-0.892337
C198	C	2.158396	0.343561	-0.392337
C199	C	1.518124	-0.216391	-0.233150
C200	C	2.018124	0.283609	0.266850
C201	C	1.518298	-0.216282	-0.116374
C202	C	2.018298	0.283718	0.383626
H203	H	1.287468	-0.075464	-0.177548
H204	H	1.787468	0.424536	0.322452
H205	H	1.707499	-0.829059	-0.317271
H206	H	2.207499	-0.329059	0.182729
H207	H	1.661555	-0.088141	-0.673387
H208	H	2.161555	0.411859	-0.173387
H209	H	1.539588	-0.140248	-0.772872
H210	H	2.039588	0.359752	-0.272872
H211	H	1.640302	-0.164165	-1.106220
H212	H	2.140302	0.335835	-0.606220
H213	H	1.640355	-0.959775	-0.384402
H214	H	2.140355	-0.459775	0.115598
H215	H	1.396461	-1.044921	-0.628013
H216	H	1.896461	-0.544921	-0.128013
H217	H	1.707333	-0.603193	-0.317203
H218	H	2.207333	-0.103193	0.182797
H219	H	0.685376	-0.277764	-0.805765
H220	H	1.185376	0.222236	-0.305765
H221	H	1.496942	-0.292364	-1.240413
H222	H	1.996942	0.207636	-0.740413
H223	H	1.013459	-0.332471	-0.620210
H224	H	1.513459	0.167529	-0.120210
H225	H	1.118167	-0.268573	-0.627787
H226	H	1.618167	0.231427	-0.127787
H227	H	1.351963	-0.155009	-0.206496
H228	H	1.851963	0.344991	0.293504
H229	H	1.123405	-0.048112	-0.270299
H230	H	1.623405	0.451888	0.229701
H231	H	1.329109	-0.829101	-0.695112
H232	H	1.829109	-0.329101	-0.195112
H233	H	1.252420	-0.207199	-0.328189
H234	H	1.752420	0.292801	0.171811
H235	H	1.789693	-0.167292	-1.001623
H236	H	2.289693	0.332708	-0.501623
H237	H	1.639930	-0.387380	-0.384275
H238	H	2.139930	0.112620	0.115725
H239	H	1.329004	-0.688346	-0.695097
H240	H	1.829004	-0.188346	-0.195097
H241	H	0.913900	-0.384669	-0.741892
H242	H	1.413900	0.115331	-0.241892
H243	H	0.784927	-0.225570	-0.684103
H244	H	1.284927	0.274430	-0.184103
H245	H	0.749860	-0.357316	-0.834667
H246	H	1.249860	0.142684	-0.334667
H247	H	1.188911	-0.356971	-1.275301
H248	H	1.688911	0.143029	-0.775301
H249	H	1.640017	-0.472490	-0.384304
H250	H	2.140017	0.027510	0.115696
H251	H	1.396059	-0.472533	-0.627903
H252	H	1.896059	0.027467	-0.127903
H253	H	1.023864	-0.100299	-0.392011
H254	H	1.523864	0.399701	0.107989
H255	H	1.374963	-0.344457	-1.339908
H256	H	1.874963	0.155543	-0.839908
H257	H	1.396412	-0.959813	-0.628010
H258	H	1.896412	-0.459813	-0.128010
H259	H	1.707401	-0.688300	-0.317227
H260	H	2.207401	-0.188300	0.182773
H261	H	1.328961	-0.603237	-0.695086
H262	H	1.828961	-0.103237	-0.195086
H263	H	1.395990	-0.387411	-0.627867
H264	H	1.895990	0.112589	-0.127867
H265	H	0.919152	-0.164197	-0.384478
H266	H	1.419152	0.335803	0.115522
H267	H	1.847593	-0.075607	-0.738004
H268	H	2.347593	0.424393	-0.238004
H269	H	1.640414	-1.044898	-0.384433
H270	H	2.140414	-0.544898	0.115567
H271	H	1.707442	-0.743940	-0.317241
H272	H	2.207442	-0.243940	0.182759
H273	H	1.329051	-0.743994	-0.695091
H274	H	1.829051	-0.243994	-0.195091
H275	H	1.396217	-0.268434	-0.907090
H276	H	1.896217	0.231566	-0.407090
H277	H	1.911663	-0.115187	-0.902123
H278	H	2.411663	0.384813	-0.402123
H279	H	1.246830	-0.265285	-1.011694
H280	H	1.746830	0.234715	-0.511694
H281	H	1.124844	-0.317387	-1.111194
H282	H	1.624844	0.182613	-0.611194
