data_functionalizedCrystal
_audit_creation_method	'MofGen! by Chris Wilmer'
_symmetry_space_group_name_H-M	'P1'
_symmetry_Int_Tables_number	1
_symmetry_cell_setting	triclinic
loop_
_symmetry_equiv_pos_as_xyz
  x,y,z
_cell_length_a	12.827892
_cell_length_b	12.827893
_cell_length_c	12.827885
_cell_angle_alpha	89.978811
_cell_angle_beta	90.029976
_cell_angle_gamma	89.986399
loop_
_atom_site_label
_atom_site_type_symbol
_atom_site_fract_x
_atom_site_fract_y
_atom_site_fract_z
Zn1	Zn	-0.416032	-1.597670	0.590901
Zn2	Zn	0.083968	-1.097670	1.090901
Zn3	Zn	-0.590810	-1.597564	0.416160
Zn4	Zn	-0.090810	-1.097564	0.916160
Zn5	Zn	-0.416078	-1.422911	0.416169
Zn6	Zn	0.083922	-0.922911	0.916169
Zn7	Zn	-0.590727	-1.422896	0.590855
Zn8	Zn	-0.090727	-0.922896	1.090855
O9	O	-0.503412	-1.510260	0.503521
O10	O	-0.003412	-1.010260	1.003521
O11	O	-0.439233	-1.743892	0.567737
O12	O	0.060767	-1.243892	1.067737
O13	O	-0.567685	-1.574358	0.269925
O14	O	-0.067685	-1.074358	0.769925
O15	O	-0.269836	-1.446144	0.439370
O16	O	0.230164	-0.946144	0.939370
O17	O	-0.567641	-1.743814	0.439356
O18	O	-0.067641	-1.243814	0.939356
O19	O	-0.269802	-1.574538	0.567745
O20	O	0.230198	-1.074538	1.067745
O21	O	-0.439310	-1.446041	0.269931
O22	O	0.060690	-0.946041	0.769931
O23	O	-0.439230	-1.276673	0.439325
O24	O	0.060770	-0.776673	0.939325
O25	O	-0.567499	-1.446118	0.737097
O26	O	-0.067499	-0.946118	1.237097
O27	O	-0.567543	-1.276662	0.567666
O28	O	-0.067543	-0.776662	1.067666
O29	O	-0.439152	-1.574524	0.737131
O30	O	0.060848	-1.074524	1.237131
O31	O	-0.737035	-1.574343	0.439311
O32	O	-0.237035	-1.074343	0.939311
O33	O	-0.736974	-1.446016	0.567658
O34	O	-0.236974	-0.946016	1.067658
C35	C	-0.503383	-1.238750	0.503492
C36	C	-0.003383	-0.738750	1.003492
C37	C	-0.503396	-1.122597	0.503504
C38	C	-0.003396	-0.622597	1.003504
C39	C	-0.774922	-1.510195	0.503502
C40	C	-0.274922	-1.010195	1.003502
C41	C	-0.891075	-1.510262	0.503528
C42	C	-0.391075	-1.010262	1.003528
C43	C	-0.439967	-1.070851	0.567129
C44	C	0.060033	-0.570851	1.067129
C45	C	-0.439979	-0.950800	0.567143
C46	C	0.060021	-0.450800	1.067143
C47	C	-0.942759	-1.573768	0.567109
C48	C	-0.442759	-1.073768	1.067109
C49	C	-1.062810	-1.573839	0.567139
C50	C	-0.562810	-1.073839	1.067139
C51	C	-0.230841	-1.510354	0.503563
C52	C	0.269159	-1.010354	1.003563
C53	C	-0.114688	-1.510394	0.503581
C54	C	0.385312	-1.010394	1.003581
C55	C	-0.503311	-1.510331	0.776091
C56	C	-0.003311	-1.010331	1.276091
C57	C	-0.503269	-1.510362	0.892245
C58	C	-0.003269	-1.010362	1.392245
C59	C	-0.503432	-0.782830	0.503542
C60	C	-0.003432	-0.282830	1.003542
C61	C	-0.503419	-0.898983	0.503530
C62	C	-0.003419	-0.398983	1.003530
C63	C	-0.503436	-1.510249	0.232011
C64	C	-0.003436	-1.010249	0.732011
C65	C	-0.503185	-1.510422	0.115859
C66	C	-0.003185	-1.010422	0.615859
C67	C	-0.439746	-1.573907	0.944046
C68	C	0.060254	-1.073907	1.444046
C69	C	-0.439700	-1.573940	1.064097
C70	C	0.060300	-1.073940	1.564097
H71	H	-0.385650	-1.115425	0.621585
H72	H	0.114350	-0.615425	1.121585
H73	H	-0.557707	-1.078022	0.449042
H74	H	-0.057707	-0.578022	0.949042
C75	C	-0.576792	-0.959080	0.429941
C76	C	-0.076792	-0.459080	0.929941
H77	H	-0.616601	-0.910997	0.390039
H78	H	-0.116601	-0.410997	0.890039
H79	H	-0.536726	-1.001648	0.384510
H80	H	-0.036726	-0.501648	0.884510
H81	H	-0.622333	-1.001667	0.469883
H82	H	-0.122333	-0.501667	0.969883
H83	H	-1.070248	-1.456026	0.449140
H84	H	-0.570248	-0.956026	0.949140
C85	C	-0.951347	-1.436878	0.430019
C86	C	-0.451347	-0.936878	0.930019
H87	H	-0.903353	-1.397021	0.390131
H88	H	-0.403353	-0.897021	0.890131
H89	H	-0.993932	-1.476939	0.384574
H90	H	-0.493932	-0.976939	0.884574
H91	H	-0.993929	-1.391383	0.470010
H92	H	-0.493929	-0.891383	0.970010
H93	H	-1.107258	-1.628212	0.621569
H94	H	-0.607258	-1.128212	1.121569
C95	C	-0.576676	-1.436934	1.055698
C96	C	-0.076676	-0.936934	1.555698
H97	H	-0.616508	-1.397097	1.103747
H98	H	-0.116508	-0.897097	1.603747
H99	H	-0.536689	-1.391439	1.013110
H100	H	-0.036689	-0.891439	1.513110
H101	H	-0.622190	-1.476941	1.013128
H102	H	-0.122190	-0.976941	1.513128
H103	H	-0.898134	-1.628081	0.621527
H104	H	-0.398134	-1.128081	1.121527
H105	H	-0.385392	-1.628283	0.899519
H106	H	0.114608	-1.128283	1.399519
C107	C	-0.366233	-1.647442	1.124269
C108	C	0.133767	-1.147442	1.624269
H109	H	-0.375837	-1.637819	1.197062
H110	H	0.124163	-1.137819	1.697062
H111	H	-0.381526	-1.717661	1.106434
H112	H	0.118474	-1.217661	1.606434
H113	H	-0.296003	-1.632179	1.106445
H114	H	0.203997	-1.132179	1.606445
H115	H	-0.557612	-1.455975	0.936772
H116	H	-0.057612	-0.955975	1.436772
H117	H	-0.385678	-0.906300	0.621617
H118	H	0.114322	-0.406300	1.121617
