data_functionalizedCrystal
_audit_creation_method	'MofGen! by Chris Wilmer'
_symmetry_space_group_name_H-M	'P1'
_symmetry_Int_Tables_number	1
_symmetry_cell_setting	triclinic
loop_
_symmetry_equiv_pos_as_xyz
  x,y,z
_cell_length_a	16.625547
_cell_length_b	16.625546
_cell_length_c	16.625527
_cell_angle_alpha	89.912139
_cell_angle_beta	89.935872
_cell_angle_gamma	90.022405
loop_
_atom_site_label
_atom_site_type_symbol
_atom_site_fract_x
_atom_site_fract_y
_atom_site_fract_z
Zn1	Zn	1.232993	-0.320544	-0.455990
Zn2	Zn	1.232804	-0.455522	-0.321152
Zn3	Zn	1.098063	-0.320707	-0.321160
Zn4	Zn	1.098126	-0.455338	-0.455932
O5	O	1.165497	-0.388028	-0.388559
O6	O	1.345801	-0.338458	-0.438124
O7	O	1.214825	-0.437784	-0.208321
O8	O	1.116015	-0.207853	-0.339074
O9	O	1.345662	-0.437626	-0.339059
O10	O	1.215148	-0.207733	-0.438132
O11	O	1.115831	-0.338736	-0.208327
O12	O	0.985239	-0.338558	-0.339017
O13	O	1.116122	-0.437312	-0.568773
O14	O	0.985285	-0.437470	-0.438034
O15	O	1.215209	-0.338279	-0.568815
O16	O	1.214886	-0.568330	-0.339003
O17	O	1.115938	-0.568195	-0.438026
C18	C	0.956006	-0.388012	-0.388521
C19	C	0.866385	-0.388025	-0.388524
C20	C	0.793602	-0.388027	-0.388533
C21	C	0.702294	-0.388031	-0.388554
C22	C	0.629517	-0.388038	-0.388574
C23	C	0.538203	-0.388044	-0.388593
C24	C	1.165420	-0.597519	-0.388525
C25	C	1.165461	-0.687140	-0.388538
C26	C	1.165602	-1.015315	-0.388622
C27	C	1.165560	-0.924007	-0.388600
C28	C	1.165531	-0.851231	-0.388579
C29	C	1.165491	-0.759916	-0.388559
C30	C	1.375805	-0.388044	-0.388597
C31	C	1.465427	-0.388051	-0.388614
C32	C	1.165693	-0.387757	-0.598868
C33	C	1.165777	-0.387641	-0.688490
C34	C	1.165595	-0.177719	-0.388610
C35	C	1.165637	-0.088098	-0.388632
C36	C	1.165347	-0.388240	-0.179067
C37	C	1.165419	-0.388128	-0.089447
C38	C	1.165719	-0.387733	0.238728
C39	C	1.165638	-0.387845	0.147420
C40	C	1.165569	-0.387931	0.074644
C41	C	1.165488	-0.388042	-0.016670
