data_functionalizedCrystal
_audit_creation_method	'MofGen! by Chris Wilmer'
_symmetry_space_group_name_H-M	'P1'
_symmetry_Int_Tables_number	1
_symmetry_cell_setting	triclinic
loop_
_symmetry_equiv_pos_as_xyz
  x,y,z
_cell_length_a	19.121102
_cell_length_b	19.076979
_cell_length_c	19.076806
_cell_angle_alpha	85.231417
_cell_angle_beta	89.778246
_cell_angle_gamma	89.711584
loop_
_atom_site_label
_atom_site_type_symbol
_atom_site_fract_x
_atom_site_fract_y
_atom_site_fract_z
Zn1	Zn	1.044389	-0.430197	-0.307275
Zn2	Zn	1.544389	0.069803	0.192725
Zn3	Zn	1.044236	-0.307551	-0.430015
Zn4	Zn	1.544236	0.192449	0.069985
Zn5	Zn	0.931777	-0.307692	-0.307507
Zn6	Zn	1.431777	0.192308	0.192493
Zn7	Zn	0.922769	-0.420423	-0.420137
Zn8	Zn	1.422769	0.079577	0.079863
O9	O	0.985793	-0.366466	-0.366234
O10	O	1.485793	0.133534	0.133766
O11	O	1.142332	-0.417959	-0.327594
O12	O	1.642332	0.082041	0.172406
O13	O	1.033024	-0.209063	-0.417995
O14	O	1.533024	0.290937	0.082005
O15	O	0.950548	-0.328093	-0.208974
O16	O	1.450548	0.171907	0.291026
O17	O	1.142220	-0.327851	-0.417770
O18	O	1.642220	0.172149	0.082230
O19	O	1.033284	-0.418097	-0.208803
O20	O	1.533284	0.081903	0.291197
O21	O	0.950400	-0.209168	-0.327989
O22	O	1.450400	0.290832	0.172011
O23	O	0.832619	-0.318615	-0.318411
O24	O	1.332619	0.181385	0.181589
O25	O	0.935196	-0.520225	-0.400935
O26	O	1.435196	-0.020225	0.099065
O27	O	0.826001	-0.401438	-0.401160
O28	O	1.326001	0.098562	0.098840
O29	O	1.024550	-0.527407	-0.318016
O30	O	1.524550	-0.027407	0.181984
O31	O	1.024290	-0.318373	-0.527207
O32	O	1.524290	0.181627	-0.027207
O33	O	0.935049	-0.401300	-0.519950
O34	O	1.435049	0.098700	-0.019950
C35	C	0.803909	-0.358982	-0.358739
C36	C	1.303909	0.141018	0.141261
C37	C	0.726097	-0.355796	-0.355549
C38	C	1.226097	0.144204	0.144451
C39	C	0.992715	-0.183578	-0.374040
C40	C	1.492715	0.316422	0.125960
C41	C	0.995802	-0.105350	-0.377208
C42	C	1.495802	0.394650	0.122792
C43	C	0.978886	-0.550072	-0.358348
C44	C	1.478886	-0.050072	0.141652
C45	C	0.975942	-0.628314	-0.354987
C46	C	1.475942	-0.128314	0.145013
C47	C	0.686114	-0.397347	-0.397204
C48	C	1.186114	0.102653	0.102796
C49	C	0.613001	-0.394357	-0.394198
C50	C	1.113001	0.105643	0.105802
C51	C	0.579874	-0.349812	-0.349539
C52	C	1.079874	0.150188	0.150461
C53	C	0.619862	-0.308260	-0.307879
C54	C	1.119862	0.191740	0.192121
C55	C	0.692973	-0.311254	-0.310883
C56	C	1.192973	0.188746	0.189117
C57	C	0.359297	-0.338623	-0.338308
C58	C	0.859297	0.161377	0.161692
C59	C	0.286181	-0.335631	-0.335309
C60	C	0.786181	0.164369	0.164691
C61	C	0.279325	-0.421729	-0.421627
C62	C	0.779325	0.078271	0.078373
C63	C	0.352438	-0.424716	-0.424630
C64	C	0.852438	0.075284	0.075370
C65	C	0.392420	-0.383166	-0.382967
C66	C	0.892420	0.116834	0.117033
C67	C	0.505141	-0.346754	-0.346466
C68	C	1.005141	0.153246	0.153534
C69	C	0.467151	-0.386229	-0.386037
C70	C	0.967151	0.113771	0.113963
C71	C	1.168387	-0.373980	-0.373758
C72	C	1.668387	0.126020	0.126242
C73	C	1.246197	-0.377182	-0.376964
C74	C	1.746197	0.122818	0.123036
C75	C	0.978694	-0.358777	-0.549120
C76	C	1.478694	0.141223	-0.049120
C77	C	0.975720	-0.355514	-0.627361
C78	C	1.475720	0.144486	-0.127361
C79	C	0.953898	-0.068659	-0.332151
C80	C	1.453898	0.431341	0.167849
C81	C	0.956804	0.004844	-0.335127
C82	C	1.456804	0.504844	0.164873
C83	C	1.001612	0.041655	-0.383164
C84	C	1.501612	0.541655	0.116836
C85	C	1.043521	0.004958	-0.428222
C86	C	1.543521	0.504958	0.071778
C87	C	1.040618	-0.068544	-0.425242
C88	C	1.540618	0.431456	0.074758
C89	C	1.014948	0.261488	-0.397065
C90	C	1.514948	0.761488	0.102935
C91	C	1.017847	0.334995	-0.400044
C92	C	1.517847	0.834995	0.099956
C93	C	0.931130	0.334876	-0.306947
C94	C	1.431130	0.834876	0.193053
C95	C	0.928228	0.261373	-0.303974
C96	C	1.428228	0.761373	0.196026
C97	C	0.970139	0.224682	-0.349030
C98	C	1.470139	0.724682	0.150970
N99	N	1.004583	0.116786	-0.386209
N100	N	1.504583	0.616786	0.113791
N101	N	0.967172	0.149552	-0.345981
N102	N	1.467172	0.649552	0.154019
C103	C	0.954341	-0.332133	-1.067789
C104	C	1.454341	0.167867	-0.567789
C105	C	0.957136	-0.335199	-0.994274
C106	C	1.457136	0.164801	-0.494274
C107	C	1.001578	-0.383626	-0.957365
C108	C	1.501578	0.116374	-0.457365
C109	C	1.043222	-0.428995	-0.993975
C110	C	1.543222	0.071005	-0.493975
C111	C	1.040422	-0.425932	-1.067489
C112	C	1.540422	0.074068	-0.567489
C113	C	1.014564	-0.397819	-0.737485
C114	C	1.514564	0.102181	-0.237485
C115	C	1.017362	-0.400878	-0.663966
C116	C	1.517362	0.099122	-0.163966
C117	C	0.931275	-0.307082	-0.664269
C118	C	1.431275	0.192918	-0.164269
C119	C	0.928482	-0.304020	-0.737785
C120	C	1.428482	0.195980	-0.237785
C121	C	0.970123	-0.349392	-0.774389
C122	C	1.470123	0.150608	-0.274389
N123	N	1.004439	-0.386760	-0.882220
N124	N	1.504439	0.113240	-0.382220
N125	N	0.967259	-0.346261	-0.849532
N126	N	1.467259	0.153739	-0.349532
C127	C	0.992938	-0.374201	-0.182634
C128	C	1.492938	0.125799	0.317366
C129	C	0.995983	-0.377497	-0.104394
C130	C	1.495983	0.122503	0.395606
H131	H	0.713081	-0.433617	-0.433573
H132	H	1.213081	0.066383	0.066427
O133	O	1.086487	-0.476008	-0.958209
O134	O	1.586487	0.023992	-0.458209
C135	C	1.205115	-0.516092	-0.939007
C136	C	1.705115	-0.016092	-0.439007
C137	C	1.156194	-0.462818	-0.979569
C138	C	1.656194	0.037182	-0.479569
H139	H	1.261485	-0.505438	-0.956251
H140	H	1.761485	-0.005438	-0.456251
H141	H	1.190146	-0.571746	-0.950520
H142	H	1.690146	-0.071746	-0.450520
H143	H	1.199930	-0.510502	-0.880178
H144	H	1.699930	-0.010502	-0.380178
H145	H	1.161354	-0.468344	-1.038410
H146	H	1.661354	0.031656	-0.538410
H147	H	1.171177	-0.407185	-0.967998
H148	H	1.671177	0.092815	-0.467998
O149	O	0.911108	-0.285070	-1.103529
O150	O	1.411108	0.214930	-0.603529
C151	C	0.826044	-0.192337	-1.096064
C152	C	1.326044	0.307663	-0.596064
C153	C	0.874965	-0.245613	-1.055504
C154	C	1.374965	0.254387	-0.555504
H155	H	0.796820	-0.160412	-1.057255
H156	H	1.296820	0.339588	-0.557255
H157	H	0.786844	-0.221651	-1.127583
H158	H	1.286844	0.278349	-0.627583
H159	H	0.858293	-0.155473	-1.133393
H160	H	1.358293	0.344527	-0.633393
H161	H	0.842773	-0.282491	-1.018138
H162	H	1.342773	0.217509	-0.518138
H163	H	0.914167	-0.216253	-1.024032
H164	H	1.414167	0.283747	-0.524032
O165	O	0.890898	-0.262918	-0.628751
O166	O	1.390898	0.237082	-0.128751
C167	C	0.862321	-0.142694	-0.610121
C168	C	1.362321	0.357306	-0.110121
C169	C	0.908111	-0.192628	-0.650380
C170	C	1.408111	0.307372	-0.150380
H171	H	0.876212	-0.085854	-0.627604
H172	H	1.376212	0.414146	-0.127604
H173	H	0.871956	-0.153138	-0.551233
H174	H	1.371956	0.346862	-0.051233
H175	H	0.804854	-0.152128	-0.621758
H176	H	1.304854	0.347872	-0.121758
H177	H	0.965594	-0.183223	-0.638802
H178	H	1.465594	0.316777	-0.138802
H179	H	0.898417	-0.182173	-0.709257
H180	H	1.398417	0.317827	-0.209257
H181	H	1.054351	0.364963	-0.439149
H182	H	1.554351	0.864963	0.060851
H183	H	1.074742	-0.098417	-0.461931
H184	H	1.574742	0.401583	0.038069
O185	O	0.884706	0.225512	-0.257384
O186	O	1.384706	0.725512	0.242616
C187	C	0.841802	0.112226	-0.211537
C188	C	1.341802	0.612226	0.288463
C189	C	0.891121	0.152751	-0.264333
C190	C	1.391121	0.652751	0.235667
H191	H	0.846983	0.053391	-0.217127
H192	H	1.346983	0.553391	0.282873
H193	H	0.785513	0.129626	-0.222596
H194	H	1.285513	0.629626	0.277404
H195	H	0.856437	0.123663	-0.155759
H196	H	1.356437	0.623663	0.344241
H197	H	0.876550	0.141334	-0.320130
H198	H	1.376550	0.641334	0.179870
H199	H	0.947398	0.135345	-0.253213
H200	H	1.447398	0.635345	0.246787
O201	O	1.080768	-0.470066	-1.103077
O202	O	1.580768	0.029934	-0.603077
C203	C	1.083367	-0.562009	-1.182367
C204	C	1.583367	-0.062009	-0.682367
C205	C	1.037596	-0.512073	-1.142089
C206	C	1.537596	-0.012073	-0.642089
H207	H	1.048482	-0.595973	-1.213930
H208	H	1.548482	-0.095973	-0.713930
H209	H	1.115599	-0.597199	-1.143394
H210	H	1.615599	-0.097199	-0.643394
H211	H	1.119914	-0.529780	-1.219636
H212	H	1.619914	-0.029780	-0.719636
H213	H	1.001008	-0.544245	-1.104820
H214	H	1.501008	-0.044245	-0.604820
H215	H	1.005412	-0.476880	-1.181102
H216	H	1.505412	0.023120	-0.681102
O217	O	0.574267	-0.434735	-0.434740
O218	O	1.074267	0.065265	0.065260
C219	C	0.575182	-0.520460	-0.520661
C220	C	1.075182	-0.020460	-0.020661
C221	C	0.619133	-0.474759	-0.474791
C222	C	1.119133	0.025241	0.025209
H223	H	0.611438	-0.552842	-0.553043
H224	H	1.111438	-0.052842	-0.053043
H225	H	0.540759	-0.485158	-0.557442
H226	H	1.040759	0.014842	-0.057442
H227	H	0.540805	-0.557251	-0.485411
H228	H	1.040805	-0.057251	0.014589
H229	H	0.653551	-0.437962	-0.509986
H230	H	1.153551	0.062038	-0.009986
H231	H	0.653510	-0.510104	-0.438004
H232	H	1.153510	-0.010104	0.061996
H233	H	0.494127	-0.422500	-0.422394
H234	H	0.994127	0.077500	0.077606
O235	O	0.890494	0.370624	-0.263208
O236	O	1.390494	0.870624	0.236792
C237	C	0.856503	0.483807	-0.226563
C238	C	1.356503	0.983807	0.273437
C239	C	0.902573	0.443410	-0.276131
C240	C	1.402573	0.943410	0.223869
H241	H	0.866243	0.542663	-0.237003
H242	H	1.366243	1.042663	0.262997
H243	H	0.870027	0.466359	-0.169600
H244	H	1.370027	0.966359	0.330400
H245	H	0.799089	0.472302	-0.236422
H246	H	1.299089	0.972302	0.263578
H247	H	0.960001	0.454896	-0.266335
H248	H	1.460001	0.954896	0.233665
H249	H	0.888990	0.460864	-0.333077
H250	H	1.388990	0.960864	0.166923
H251	H	0.923228	-0.298261	-0.964470
H252	H	1.423228	0.201739	-0.464470
H253	H	0.917408	-0.098625	-0.293036
H254	H	1.417408	0.401375	0.206964
H255	H	1.049074	0.231623	-0.433755
H256	H	1.549074	0.731623	0.066245
O257	O	0.885203	-0.257052	-0.773591
O258	O	1.385203	0.242948	-0.273591
C259	C	0.766578	-0.216926	-0.792723
C260	C	1.266578	0.283074	-0.292723
C261	C	0.815511	-0.270173	-0.752139
C262	C	1.315511	0.229827	-0.252139
H263	H	0.710223	-0.227507	-0.775383
H264	H	1.210223	0.272493	-0.275383
H265	H	0.771664	-0.222523	-0.851560
H266	H	1.271664	0.277477	-0.351560
H267	H	0.781634	-0.161290	-0.781235
H268	H	1.281634	0.338710	-0.281235
H269	H	0.800487	-0.325832	-0.763568
H270	H	1.300487	0.174168	-0.263568
H271	H	0.810418	-0.264515	-0.693313
H272	H	1.310418	0.235485	-0.193313
H273	H	1.080008	0.034935	-0.467332
H274	H	1.580008	0.534935	0.032668
H275	H	1.053555	-0.440315	-0.633918
H276	H	1.553555	0.059685	-0.133918
H277	H	0.478160	-0.310484	-0.310107
H278	H	0.978160	0.189516	0.189893
O279	O	0.384504	-0.468049	-0.468026
O280	O	0.884504	0.031951	0.031974
C281	C	0.369986	-0.553097	-0.553358
C282	C	0.869986	-0.053097	-0.053358
C283	C	0.333581	-0.504069	-0.504227
C284	C	0.833581	-0.004069	-0.004227
H285	H	0.328831	-0.582221	-0.582651
H286	H	0.828831	-0.082221	-0.082651
H287	H	0.404066	-0.592760	-0.520955
H288	H	0.904066	-0.092760	-0.020955
H289	H	0.404020	-0.520561	-0.592880
H290	H	0.904020	-0.020561	-0.092880
H291	H	0.299512	-0.536547	-0.464696
H292	H	0.799512	-0.036547	0.035304
H293	H	0.299543	-0.464403	-0.536676
H294	H	0.799543	0.035597	-0.036676
H295	H	1.048479	-0.434756	-0.767279
H296	H	1.548479	0.065244	-0.267279
H297	H	0.246764	-0.455558	-0.455545
H298	H	0.746764	0.044442	0.044455
O299	O	0.587719	-0.265069	-0.264394
O300	O	1.087719	0.234931	0.235606
C301	C	0.571303	-0.235188	-0.145148
C302	C	1.071303	0.264812	0.354852
C303	C	0.607734	-0.284164	-0.194314
C304	C	1.107734	0.215836	0.305686
H305	H	0.587484	-0.250598	-0.088480
H306	H	1.087484	0.249402	0.411520
H307	H	0.512174	-0.240186	-0.150094
H308	H	1.012174	0.259814	0.349906
H309	H	0.587320	-0.178483	-0.160486
H310	H	1.087320	0.321517	0.339514
H311	H	0.591774	-0.340889	-0.179009
H312	H	1.091774	0.159111	0.320991
H313	H	0.666856	-0.279105	-0.189361
H314	H	1.166856	0.220895	0.310639
O315	O	0.254069	-0.292271	-0.291963
O316	O	0.754069	0.207729	0.208037
C317	C	0.237442	-0.173121	-0.261837
C318	C	0.737442	0.326879	0.238163
C319	C	0.273872	-0.222140	-0.310959
C320	C	0.773872	0.277860	0.189041
H321	H	0.253426	-0.116408	-0.277186
H322	H	0.753426	0.383592	0.222814
H323	H	0.253558	-0.188499	-0.205142
H324	H	0.753558	0.311501	0.294858
H325	H	0.178324	-0.178166	-0.266846
H326	H	0.678324	0.321834	0.233154
H327	H	0.332995	-0.217120	-0.306012
H328	H	0.832995	0.282880	0.193988
H329	H	0.257699	-0.206748	-0.367633
H330	H	0.757699	0.293252	0.132367
O331	O	0.398201	-0.298221	-0.297945
O332	O	0.898201	0.201779	0.202055
C333	C	0.484632	-0.206943	-0.295792
C334	C	0.984632	0.293057	0.204208
C335	C	0.440626	-0.252667	-0.341588
C336	C	0.940626	0.247333	0.158412
H337	H	0.518933	-0.170091	-0.331060
H338	H	1.018933	0.329909	0.168940
H339	H	0.519122	-0.242227	-0.259061
H340	H	1.019122	0.257773	0.240939
H341	H	0.448376	-0.174625	-0.263346
H342	H	0.948376	0.325375	0.236654
H343	H	0.476830	-0.284992	-0.374077
H344	H	0.976830	0.215008	0.125923
H345	H	0.406129	-0.217344	-0.378274
H346	H	0.906129	0.282656	0.121726
O347	O	0.731787	-0.270782	-0.270502
O348	O	1.231787	0.229218	0.229498
C349	C	0.759940	-0.153460	-0.242179
C350	C	1.259940	0.346540	0.257821
C351	C	0.715955	-0.199208	-0.287970
C352	C	1.215955	0.300792	0.212030
H353	H	0.747145	-0.095584	-0.256275
H354	H	1.247145	0.404416	0.243725
H355	H	0.817895	-0.163192	-0.252003
H356	H	1.317895	0.336808	0.247997
H357	H	0.747308	-0.167746	-0.184316
H358	H	1.247308	0.332254	0.315684
H359	H	0.728526	-0.184949	-0.345848
H360	H	1.228526	0.315051	0.154152
H361	H	0.658013	-0.189470	-0.278086
H362	H	1.158013	0.310530	0.221914
H363	H	0.922680	0.034715	-0.298439
H364	H	1.422680	0.534715	0.201561
