data_functionalizedCrystal
_audit_creation_method	'MofGen! by Chris Wilmer'
_symmetry_space_group_name_H-M	'P1'
_symmetry_Int_Tables_number	1
_symmetry_cell_setting	triclinic
loop_
_symmetry_equiv_pos_as_xyz
  x,y,z
_cell_length_a	12.594509
_cell_length_b	10.686220
_cell_length_c	10.686285
_cell_angle_alpha	90.345431
_cell_angle_beta	94.395035
_cell_angle_gamma	85.649897
loop_
_atom_site_label
_atom_site_type_symbol
_atom_site_fract_x
_atom_site_fract_y
_atom_site_fract_z
Zn1	Zn	-0.452677	-1.956167	0.352055
Zn2	Zn	-0.260115	-1.972165	0.561858
Zn3	Zn	-0.287221	-1.746397	0.368222
Zn4	Zn	-0.450563	-1.762492	0.577877
O5	O	-0.362644	-1.859305	0.465003
O6	O	-0.416673	-2.133827	0.366416
O7	O	-0.114763	-1.942175	0.536235
O8	O	-0.321398	-1.760793	0.190533
O9	O	-0.275199	-2.145580	0.520558
O10	O	-0.442957	-1.914909	0.178655
O11	O	-0.134678	-1.776305	0.393971
O12	O	-0.319348	-1.572994	0.409503
O13	O	-0.599791	-1.788224	0.547859
O14	O	-0.439355	-1.584819	0.563535
O15	O	-0.601344	-1.930516	0.381948
O16	O	-0.273150	-1.957782	0.739528
O17	O	-0.413071	-1.803736	0.751296
C18	C	-0.382065	-1.533392	0.490013
C19	C	-0.390396	-1.393967	0.500742
C20	C	-0.339961	-1.884276	0.790926
C21	C	-0.330286	-1.895073	0.930348
C22	C	-0.640268	-1.859381	0.464887
C23	C	-0.758574	-1.859413	0.464837
C24	C	-0.826985	-1.782043	0.555026
C25	C	-0.888813	-1.898858	0.576884
C26	C	-0.907546	-1.742681	0.442897
C27	C	-0.818836	-1.976293	0.486751
C28	C	-0.837571	-1.820034	0.352716
C29	C	-0.899366	-1.936925	0.374524
C30	C	-0.086102	-1.859295	0.465023
C31	C	0.032194	-1.859479	0.464700
C32	C	-0.343148	-2.186491	0.439897
C33	C	-0.334840	-2.325918	0.429198
C34	C	-0.385437	-1.834271	0.137805
C35	C	-0.395150	-1.823603	-0.001627
H36	H	-0.911643	-1.932201	0.671643
H37	H	-0.280902	-1.374323	0.359738
C38	C	-0.512935	-1.419111	0.658548
C39	C	-0.463215	-1.328628	0.594524
H40	H	-0.557885	-1.378771	0.716447
H41	H	-0.554501	-1.466043	0.600059
H42	H	-0.460133	-1.473872	0.702578
H43	H	-0.516017	-1.273872	0.550486
H44	H	-0.421647	-1.281675	0.653022
H45	H	-0.795220	-1.716678	0.631402
C46	C	-0.655723	-2.108391	0.511793
C47	C	-0.766809	-2.109646	0.511891
H48	H	-0.623604	-2.190714	0.527325
H49	H	-0.637834	-2.080292	0.432465
H50	H	-0.630393	-2.053327	0.575539
H51	H	-0.792140	-2.164703	0.448138
H52	H	-0.784707	-2.137761	0.591229
C53	C	-0.896661	-2.147555	0.294691
C54	C	-0.941980	-2.025394	0.271479
H55	H	-0.922977	-2.202173	0.231082
H56	H	-0.821192	-2.148519	0.294628
H57	H	-0.915095	-2.174828	0.374101
H58	H	-0.923538	-1.998117	0.192073
H59	H	-1.017465	-2.024425	0.271529
C60	C	-0.851740	-1.652618	0.202130
C61	C	-0.806702	-1.774980	0.224842
H62	H	-0.832674	-1.624793	0.123190
H63	H	-0.927263	-1.651579	0.201387
H64	H	-0.825812	-1.598493	0.266402
H65	H	-0.832637	-1.829107	0.160575
H66	H	-0.731164	-1.776028	0.225575
C67	C	-0.581780	-1.759273	0.962415
C68	C	-0.480123	-1.729856	0.933012
H69	H	-0.634238	-1.701391	0.922063
H70	H	-0.593859	-1.841890	0.934446
H71	H	-0.586189	-1.754466	1.050680
H72	H	-0.475712	-1.734672	0.844748
H73	H	-0.468041	-1.647217	0.960974
C74	C	-0.923148	-1.528502	0.512548
C75	C	-0.959745	-1.609379	0.417910
H76	H	-0.955368	-1.446206	0.497123
H77	H	-0.941495	-1.557031	0.591517
H78	H	-0.847760	-1.527404	0.513170
H79	H	-1.035132	-1.610484	0.417294
H80	H	-0.941405	-1.580842	0.338920
H81	H	-0.267339	-1.964516	0.978779
