data_functionalizedCrystal
_audit_creation_method	'MofGen! by Chris Wilmer'
_symmetry_space_group_name_H-M	'P1'
_symmetry_Int_Tables_number	1
_symmetry_cell_setting	triclinic
loop_
_symmetry_equiv_pos_as_xyz
  x,y,z
_cell_length_a	21.295418
_cell_length_b	18.215405
_cell_length_c	18.215399
_cell_angle_alpha	90.030551
_cell_angle_beta	89.961117
_cell_angle_gamma	89.959302
loop_
_atom_site_label
_atom_site_type_symbol
_atom_site_fract_x
_atom_site_fract_y
_atom_site_fract_z
Zn1	Zn	0.962350	0.292681	-0.416477
Zn2	Zn	1.462350	0.792681	0.083523
Zn3	Zn	0.962272	0.415752	-0.293405
Zn4	Zn	1.462272	0.915752	0.206595
Zn5	Zn	0.857082	0.292738	-0.293383
Zn6	Zn	1.357082	0.792738	0.206617
Zn7	Zn	0.857053	0.415744	-0.416389
Zn8	Zn	1.357053	0.915744	0.083611
O9	O	0.909689	0.354229	-0.354913
O10	O	1.409689	0.854229	0.145087
O11	O	1.050429	0.308986	-0.400197
O12	O	1.550429	0.808986	0.099803
O13	O	0.948298	0.399462	-0.190418
O14	O	1.448298	0.899462	0.309582
O15	O	0.871091	0.189746	-0.309740
O16	O	1.371091	0.689746	0.190260
O17	O	1.050372	0.399406	-0.309776
O18	O	1.550372	0.899406	0.190224
O19	O	0.948431	0.189704	-0.400176
O20	O	1.448431	0.689704	0.099824
O21	O	0.871015	0.309084	-0.190402
O22	O	1.371015	0.809084	0.309598
O23	O	0.768989	0.309076	-0.309654
O24	O	1.268989	0.809076	0.190346
O25	O	0.871042	0.399393	-0.519385
O26	O	1.371042	0.899393	-0.019385
O27	O	0.768968	0.399448	-0.400026
O28	O	1.268968	0.899448	0.099974
O29	O	0.948403	0.308979	-0.519449
O30	O	1.448403	0.808979	-0.019449
O31	O	0.948269	0.518736	-0.309691
O32	O	1.448269	1.018736	0.190309
O33	O	0.870966	0.518730	-0.400047
O34	O	1.370966	1.018730	0.099953
C35	C	0.746138	0.354268	-0.354829
C36	C	1.246138	0.854268	0.145171
C37	C	0.676170	0.354302	-0.354810
C38	C	1.176170	0.854302	0.145190
C39	C	0.909623	0.545435	-0.354878
C40	C	1.409623	1.045435	0.145122
C41	C	0.909652	0.627234	-0.354887
C42	C	1.409652	1.127234	0.145113
C43	C	0.909728	0.354178	-0.546866
C44	C	1.409728	0.854178	-0.046866
C45	C	0.909744	0.354157	-0.628665
C46	C	1.409744	0.854157	-0.128665
C47	C	0.643308	0.401421	-0.401796
C48	C	1.143308	0.901421	0.098204
C49	C	0.577566	0.401403	-0.401829
C50	C	1.077566	0.901403	0.098171
C51	C	0.544687	0.354274	-0.354863
C52	C	1.044687	0.854274	0.145137
C53	C	0.577556	0.307145	-0.307873
C54	C	1.077556	0.807145	0.192127
C55	C	0.643298	0.307160	-0.307847
C56	C	1.143298	0.807160	0.192153
N57	N	0.441415	0.348525	-0.290496
N58	N	0.941415	0.848525	0.209504
N59	N	0.378964	0.348516	-0.290523
N60	N	0.878964	0.848516	0.209477
C61	C	0.346612	0.354227	-0.354941
C62	C	0.846612	0.854227	0.145059
N63	N	0.379072	0.359961	-0.419332
N64	N	0.879072	0.859961	0.080668
N65	N	0.441529	0.359974	-0.419304
N66	N	0.941529	0.859974	0.080696
C67	C	0.473402	0.354252	-0.354887
C68	C	0.973402	0.854252	0.145113
C69	C	0.242466	0.401329	-0.401967
C70	C	0.742466	0.901329	0.098033
C71	C	0.176722	0.401305	-0.402001
C72	C	0.676722	0.901305	0.097999
C73	C	0.176714	0.307051	-0.308039
C74	C	0.676714	0.807051	0.191961
C75	C	0.242456	0.307071	-0.308011
C76	C	0.742456	0.807071	0.191989
C77	C	0.275328	0.354213	-0.354974
C78	C	0.775328	0.854213	0.145026
C79	C	1.073880	0.354191	-0.354999
C80	C	1.573880	0.854191	0.145001
C81	C	1.143848	0.354174	-0.355035
C82	C	1.643848	0.854174	0.144965
C83	C	0.909773	0.162276	-0.354965
C84	C	1.409773	0.662276	0.145035
C85	C	0.909809	0.080477	-0.354987
C86	C	1.409809	0.580477	0.145013
C87	C	0.949999	0.815407	-0.307926
C88	C	1.449999	1.315407	0.192074
C89	C	0.950027	0.892265	-0.307944
C90	C	1.450027	1.392265	0.192056
C91	C	0.869461	0.892299	-0.401954
C92	C	1.369461	1.392299	0.098046
C93	C	0.869436	0.815442	-0.401939
C94	C	1.369436	1.315442	0.098061
C95	C	0.909704	0.776998	-0.354921
C96	C	1.409704	1.276998	0.145079
C97	C	0.909757	0.930714	-0.354954
C98	C	1.409757	1.430714	0.145046
C99	C	0.909787	1.014047	-0.354973
C100	C	1.409787	1.514047	0.145027
C101	C	0.909675	0.693659	-0.354902
C102	C	1.409675	1.193659	0.145098
C103	C	0.950041	0.307034	-0.816894
C104	C	1.450041	0.807034	-0.316894
C105	C	0.950048	0.307013	-0.893753
C106	C	1.450048	0.807013	-0.393753
C107	C	0.869492	0.401165	-0.893675
C108	C	1.369492	0.901165	-0.393675
C109	C	0.869482	0.401183	-0.816817
C110	C	1.369482	0.901183	-0.316817
C111	C	0.909760	0.354118	-0.778429
C112	C	1.409760	0.854118	-0.278429
C113	C	0.909777	0.354079	-0.932145
C114	C	1.409777	0.854079	-0.432145
C115	C	0.909785	0.354057	-1.015479
C116	C	1.409785	0.854057	-0.515479
C117	C	0.909751	0.354140	-0.695090
C118	C	1.409751	0.854140	-0.195090
C119	C	0.909687	0.354226	-0.163707
C120	C	1.409687	0.854226	0.336293
C121	C	0.909793	0.354041	-0.081909
C122	C	1.409793	0.854041	0.418091
H123	H	0.670069	0.439807	-0.440038
H124	H	1.170069	0.939807	0.059962
H125	H	0.836675	0.923610	-0.440233
H126	H	1.336675	1.423610	0.059767
Cl127	Cl	0.818779	0.767153	-0.461028
Cl128	Cl	1.318779	1.267153	0.038972
H129	H	0.836701	0.439485	-0.924940
H130	H	1.336701	0.939485	-0.424940
Cl131	Cl	0.283793	0.460587	-0.461009
Cl132	Cl	0.783793	0.960587	0.038991
Cl133	Cl	1.000623	0.767079	-0.248819
Cl134	Cl	1.500623	1.267079	0.251181
H135	H	0.982848	0.268671	-0.925068
H136	H	1.482848	0.768671	-0.425068
H137	H	0.982839	0.923535	-0.269677
H138	H	1.482839	1.423535	0.230323
Cl139	Cl	1.000673	0.247864	-0.768637
Cl140	Cl	1.500673	0.747864	-0.268637
H141	H	0.836676	0.439524	-0.785498
H142	H	1.336676	0.939524	-0.285498
H143	H	0.149967	0.439674	-0.440268
H144	H	0.649967	0.939674	0.059732
H145	H	0.550782	0.268771	-0.269634
H146	H	1.050782	0.768771	0.230366
Cl147	Cl	0.536246	0.460643	-0.460902
Cl148	Cl	1.036246	0.960643	0.039098
H149	H	0.670053	0.268787	-0.269585
H150	H	1.170053	0.768787	0.230415
H151	H	0.149945	0.268674	-0.269801
H152	H	0.649945	0.768674	0.230199
H153	H	0.269212	0.268705	-0.269746
H154	H	0.769212	0.768705	0.230254
