data_functionalizedCrystal
_audit_creation_method	'MofGen! by Chris Wilmer'
_symmetry_space_group_name_H-M	'P1'
_symmetry_Int_Tables_number	1
_symmetry_cell_setting	triclinic
loop_
_symmetry_equiv_pos_as_xyz
  x,y,z
_cell_length_a	13.185408
_cell_length_b	10.489716
_cell_length_c	12.376457
_cell_angle_alpha	101.395919
_cell_angle_beta	82.594262
_cell_angle_gamma	68.251318
loop_
_atom_site_label
_atom_site_type_symbol
_atom_site_fract_x
_atom_site_fract_y
_atom_site_fract_z
O1	O	1.465043	-0.362925	-0.093937
O2	O	1.148552	-0.233984	-0.093950
O3	O	1.314014	-0.486610	-0.093947
O4	O	1.299581	-0.110299	-0.093940
O5	O	1.272663	-0.423525	0.094064
O6	O	1.107201	-0.170899	0.094061
O7	O	1.423692	-0.299840	0.094075
Zn8	Zn	1.258881	-0.225353	0.123919
Zn9	Zn	1.313363	-0.308470	-0.123794
O10	O	1.258230	-0.047214	0.094072
C11	C	1.087350	-0.189370	0.000053
C12	C	0.966594	-0.150436	0.000047
C13	C	0.897802	-0.011803	0.000048
C14	C	0.784341	0.024787	0.000059
C15	C	0.739664	-0.077254	0.000060
C16	C	0.808457	-0.215892	0.000052
C17	C	0.921927	-0.252484	0.000050
C18	C	0.763789	-0.317935	0.000062
C19	C	0.832583	-0.456573	0.000054
C20	C	0.946041	-0.493157	0.000051
C21	C	0.990719	-0.391116	0.000050
C22	C	0.650319	-0.281344	0.000064
C23	C	0.674444	-0.522024	0.000067
C24	C	0.787905	-0.558614	0.000056
C25	C	1.292255	-0.502217	0.000055
C26	C	1.289013	-0.642703	0.000045
C27	C	1.390477	-0.776295	0.000059
C28	C	1.357248	-0.865777	-0.092640
C29	C	1.316455	-0.803536	0.092725
C30	C	1.255843	-0.730360	-0.092731
C31	C	1.215047	-0.668091	0.092717
C32	C	1.181748	-0.757505	-0.000005
C33	C	1.484895	-0.344455	0.000069
C34	C	1.605652	-0.383391	0.000067
C35	C	1.279990	-0.031608	0.000067
C36	C	1.283233	0.108876	0.000070
N37	N	1.221706	-0.168632	0.292976
N38	N	1.350546	-0.365205	-0.292852
C39	C	1.436840	-0.496899	0.647965
C40	C	1.462852	-0.536597	0.529626
C41	C	1.402568	-0.444609	0.470458
C42	C	1.316267	-0.312917	0.529641
C43	C	1.290258	-0.273210	0.647991
C44	C	1.255986	-0.220920	0.470484
C45	C	1.169685	-0.089227	0.529666
C46	C	1.143679	-0.049528	0.648006
C47	C	1.203964	-0.141516	0.707174
C48	C	1.281995	-0.260627	0.352133
C49	C	1.135413	-0.036937	0.352159
C50	C	1.109400	0.002760	0.470498
H51	H	1.083106	-0.420900	0.000044
H52	H	0.594317	-0.168463	0.000073
O53	O	0.717687	0.159495	0.000015
C54	C	0.781441	0.241723	0.000040
H55	H	0.873683	0.168420	-0.035560
H56	H	0.752222	0.318146	-0.054541
H57	H	0.769970	0.305095	0.090238
O58	O	1.347167	-0.842053	0.186190
C59	C	1.457208	-0.853579	0.185820
H60	H	1.477748	-0.786558	0.131550
H61	H	1.464292	-0.813785	0.275972
H62	H	1.518564	-0.969711	0.149641
H63	H	1.417317	-0.950732	-0.171008
O64	O	1.025646	0.130802	0.527867
C65	C	1.050657	0.240987	0.498975
H66	H	1.111461	0.197651	0.413043
H67	H	0.970275	0.330284	0.494941
H68	H	1.090457	0.284126	0.565575
O69	O	1.076925	0.052236	0.294521
C70	C	1.118404	-0.011032	0.177377
H71	H	1.161819	-0.131523	0.161211
H72	H	1.046036	0.016253	0.132409
H73	H	1.180894	0.031012	0.143787
H74	H	1.002048	-0.606041	0.000059
O75	O	1.076420	-0.749375	-0.000262
C76	C	1.044850	-0.712244	-0.098116
H77	H	1.123072	-0.742788	-0.166120
H78	H	0.992964	-0.771349	-0.130467
H79	H	0.992984	-0.592572	-0.076890
H80	H	0.638080	-0.605132	0.000016
O81	O	1.546522	-0.664534	0.471907
C82	C	1.629263	-0.642795	0.403160
H83	H	1.624544	-0.531388	0.438821
H84	H	1.715519	-0.725242	0.401461
H85	H	1.614636	-0.654179	0.313610
O86	O	0.629489	-0.041716	-0.000139
C87	C	0.606377	0.003883	-0.097496
H88	H	0.686944	-0.042158	-0.165550
H89	H	0.542855	-0.034454	-0.130187
H90	H	0.570644	0.125130	-0.075477
O91	O	1.495761	-0.783977	-0.000191
C92	C	1.535632	-0.749946	-0.097096
H93	H	1.461662	-0.683133	-0.128947
H94	H	1.587808	-0.686963	-0.074809
H95	H	1.589664	-0.852220	-0.165890
O96	O	1.225573	-0.692108	-0.186426
C97	C	1.314240	-0.675874	-0.250581
H98	H	1.396496	-0.740266	-0.229556
H99	H	1.318701	-0.715623	-0.344443
H100	H	1.299222	-0.558612	-0.229622
H101	H	0.843932	-0.671495	0.000049
H102	H	0.934188	0.071266	0.000055
O103	O	1.059993	0.078490	0.705550
C104	C	1.103794	0.159971	0.774018
H105	H	1.197419	0.120775	0.738339
H106	H	1.059901	0.276741	0.775372
H107	H	1.089481	0.148288	0.863707
H108	H	1.155014	-0.583125	0.171088
O109	O	1.427921	-0.483002	0.355504
C110	C	1.459611	-0.383059	0.315959
H111	H	1.490110	-0.325911	0.384151
H112	H	1.529816	-0.440408	0.236779
H113	H	1.384537	-0.302043	0.294968
H114	H	1.182782	-0.109198	0.803536
O115	O	1.365687	-0.388693	0.294740
C116	C	1.340637	-0.498799	0.323745
H117	H	1.246398	-0.458625	0.356263
H118	H	1.369762	-0.593091	0.245953
H119	H	1.385493	-0.533717	0.392469
O120	O	1.495527	-0.586393	0.705265
C121	C	1.577247	-0.711167	0.627658
H122	H	1.597431	-0.687740	0.543297
H123	H	1.656432	-0.748868	0.661848
H124	H	1.543959	-0.797785	0.615075
