data_functionalizedCrystal
_audit_creation_method	'MofGen! by Chris Wilmer'
_symmetry_space_group_name_H-M	'P1'
_symmetry_Int_Tables_number	1
_symmetry_cell_setting	triclinic
loop_
_symmetry_equiv_pos_as_xyz
  x,y,z
_cell_length_a	10.654550
_cell_length_b	8.597304
_cell_length_c	9.730223
_cell_angle_alpha	82.295717
_cell_angle_beta	89.999957
_cell_angle_gamma	84.910193
loop_
_atom_site_label
_atom_site_type_symbol
_atom_site_fract_x
_atom_site_fract_y
_atom_site_fract_z
O1	O	1.669010	0.220464	-0.140287
O2	O	1.303643	0.241469	-0.142799
O3	O	1.493517	0.002578	-0.114495
O4	O	1.479136	0.459356	-0.168590
O5	O	1.493504	0.002571	0.114085
O6	O	1.303631	0.241462	0.085782
O7	O	1.668997	0.220458	0.088294
Zn8	Zn	1.486312	0.230959	0.123330
Zn9	Zn	1.486328	0.230968	-0.177835
O10	O	1.479124	0.459349	0.059991
C11	C	1.256831	0.239923	-0.028329
C12	C	1.117363	0.235309	-0.027792
C13	C	1.038624	0.375964	-0.044445
C14	C	0.907580	0.371619	-0.043907
C15	C	0.934026	0.085952	-0.010066
C16	C	1.065068	0.090298	-0.010595
C17	C	1.491966	-0.055914	0.006718
C18	C	1.487348	-0.230191	0.027348
C19	C	1.715810	0.222003	-0.026179
C20	C	1.855278	0.226618	-0.026725
C21	C	1.480675	0.517841	-0.061226
C22	C	1.485292	0.692118	-0.081865
N23	N	1.486310	0.230952	0.328867
N24	N	1.486340	0.230962	-0.383371
C25	C	1.570415	0.125216	0.413321
C26	C	1.570428	0.125217	0.557203
C27	C	1.402226	0.336703	0.532165
C28	C	1.402208	0.336694	0.388286
H29	H	0.843476	0.486155	-0.057465
C30	C	1.151691	-0.064426	0.007723
H31	H	1.237224	-0.041065	0.004959
H32	H	1.135647	-0.123831	-0.064947
H33	H	1.135656	-0.123821	0.094483
H34	H	1.485561	-0.297010	0.136647
C35	C	1.309691	0.453013	0.295381
H36	H	1.259618	0.516005	0.351371
H37	H	1.256716	0.395933	0.246024
H38	H	1.355672	0.518880	0.231442
H39	H	1.487061	-0.241068	-0.191157
H40	H	1.333754	0.422798	0.580559
H41	H	1.638894	0.039113	0.364946
C42	C	1.662941	0.008910	0.650102
H43	H	1.650900	0.024043	0.744304
H44	H	1.746968	0.026931	0.624378
H45	H	1.648010	-0.096014	0.638952
C46	C	1.096146	0.535468	-0.063347
H47	H	1.030479	0.618614	-0.073175
H48	H	1.146709	0.543108	-0.143967
H49	H	1.146720	0.543099	0.015466
H50	H	0.891431	-0.032112	0.003944
