data_functionalizedCrystal
_audit_creation_method	'MofGen! by Chris Wilmer'
_symmetry_space_group_name_H-M	'P1'
_symmetry_Int_Tables_number	1
_symmetry_cell_setting	triclinic
loop_
_symmetry_equiv_pos_as_xyz
  x,y,z
_cell_length_a	15.297327
_cell_length_b	12.759395
_cell_length_c	12.759387
_cell_angle_alpha	89.981185
_cell_angle_beta	99.641137
_cell_angle_gamma	99.708038
loop_
_atom_site_label
_atom_site_type_symbol
_atom_site_fract_x
_atom_site_fract_y
_atom_site_fract_z
Zn1	Zn	-0.359066	1.533801	-0.666311
Zn2	Zn	-0.509955	1.503252	-0.521016
Zn3	Zn	-0.359118	1.358094	-0.490658
Zn4	Zn	-0.509888	1.327660	-0.696642
O5	O	-0.434506	1.430702	-0.593657
O6	O	-0.379088	1.676769	-0.647049
O7	O	-0.489996	1.483948	-0.369978
O8	O	-0.232866	1.406924	-0.488561
O9	O	-0.489945	1.654324	-0.540301
O10	O	-0.232827	1.536015	-0.617612
O11	O	-0.379177	1.377301	-0.347674
O12	O	-0.379111	1.207037	-0.517971
O13	O	-0.489831	1.355054	-0.839630
O14	O	-0.489881	1.184678	-0.669306
O15	O	-0.379022	1.506505	-0.817346
O16	O	-0.636191	1.454438	-0.569712
O17	O	-0.636142	1.325431	-0.698743
C18	C	-0.434495	1.157737	-0.593637
C19	C	-0.434512	1.040957	-0.593657
C20	C	-0.550044	1.017674	-0.751063
C21	C	-0.607816	0.951171	-0.829770
C22	C	-0.607827	0.841447	-0.829785
C23	C	-0.550057	0.798226	-0.751086
C24	C	-0.492285	0.864729	-0.672379
C25	C	-0.492282	0.974454	-0.672371
C26	C	-0.376750	0.888012	-0.514980
C27	C	-0.376743	0.997735	-0.514958
C28	C	-0.318980	0.844791	-0.436281
C29	C	-0.261211	0.911294	-0.357568
C30	C	-0.261203	1.021023	-0.357555
C31	C	-0.318970	1.064239	-0.436251
C32	C	-0.668900	1.383345	-0.640836
C33	C	-0.769175	1.363182	-0.661055
C34	C	-1.051810	1.575245	-0.449510
C35	C	-0.957597	1.594189	-0.430508
C36	C	-0.910487	1.536439	-0.488143
C37	C	-0.957599	1.459742	-0.564783
C38	C	-1.051822	1.440790	-0.583781
C39	C	-0.910498	1.401984	-0.622414
C40	C	-0.957610	1.325287	-0.699054
C41	C	-1.051823	1.306339	-0.718049
C42	C	-1.098934	1.364089	-0.660414
C43	C	-0.816276	1.420936	-0.603417
C44	C	-0.816287	1.286481	-0.737687
C45	C	-0.910500	1.267537	-0.756689
C46	C	-0.199197	1.478272	-0.546316
C47	C	-0.098922	1.498544	-0.526143
C48	C	-0.434413	1.430792	-0.867672
C49	C	-0.434374	1.430830	-0.984440
C50	C	-0.434518	1.704733	-0.593678
C51	C	-0.434523	1.821509	-0.593687
C52	C	-0.318970	1.319790	-0.961233
C53	C	-0.261250	1.264292	-1.004486
C54	C	-0.261217	1.264330	-1.114201
C55	C	-0.318913	1.319869	-1.180667
C56	C	-0.376632	1.375367	-1.137414
C57	C	-0.376657	1.375325	-1.027695
C58	C	-0.492039	1.486400	-1.160622
C59	C	-0.492069	1.486370	-1.050906
C60	C	-0.549735	1.541939	-1.227088
C61	C	-0.607452	1.597444	-1.183834
C62	C	-0.607481	1.597405	-1.074112
C63	C	-0.549789	1.541867	-1.007653
C64	C	-0.434534	1.430686	-0.320695
C65	C	-0.434320	1.430902	-0.203876
H66	H	-0.214175	0.876094	-0.293502
H67	H	-0.777926	1.483383	-0.541016
O68	O	-0.911975	1.668764	-0.356068
C69	C	-0.973755	1.715657	-0.309256
H70	H	-1.040885	1.705767	-0.365827
H71	H	-0.946481	1.803927	-0.292625
H72	H	-0.983855	1.675198	-0.231465
H73	H	-0.549804	1.541834	-0.918315
O74	O	-0.205111	1.085778	-0.281201
C75	C	-0.217504	1.191890	-0.298039
H76	H	-0.247138	1.200930	-0.385021
H77	H	-0.149917	1.247239	-0.277441
H78	H	-0.265475	1.213306	-0.245273
H79	H	-0.318983	1.319763	-0.871894
H80	H	-0.318972	1.153579	-0.436246
H81	H	-1.090180	1.243874	-0.780442
H82	H	-1.090176	1.622250	-0.402585
O83	O	-0.550206	1.124224	-0.751065
C84	C	-0.636633	1.143399	-0.741265
H85	H	-0.688618	1.069673	-0.769588
H86	H	-0.652722	1.213581	-0.791839
H87	H	-0.638448	1.162448	-0.654447
H88	H	-0.654850	0.986374	-0.893846
H89	H	-0.948872	1.205089	-0.819090
H90	H	-0.549709	1.541960	-1.316424
H91	H	-0.654866	0.787300	-0.893880
H92	H	-0.654481	1.642602	-1.038902
O93	O	-0.770494	1.230537	-0.793786
C94	C	-0.715892	1.301300	-0.850668
H95	H	-0.744224	1.378344	-0.862942
H96	H	-0.714794	1.263479	-0.931268
H97	H	-0.644506	1.319297	-0.803793
O98	O	-0.818969	1.554841	-0.469496
C99	C	-0.787578	1.534197	-0.362460
H100	H	-0.841903	1.541244	-0.312912
H101	H	-0.724527	1.594280	-0.331109
H102	H	-0.770920	1.450375	-0.356805
O103	O	-0.550207	0.691613	-0.751231
C104	C	-0.613564	0.642188	-0.837594
H105	H	-0.666285	0.694774	-0.862808
H106	H	-0.647769	0.561859	-0.812718
H107	H	-0.577873	0.629964	-0.907091
O108	O	-0.318991	0.738206	-0.436485
C109	C	-0.295918	0.706241	-0.532574
H110	H	-0.311388	0.766369	-0.596171
H111	H	-0.336643	0.624620	-0.559363
H112	H	-0.221068	0.701885	-0.519890
H113	H	-0.214277	1.219070	-0.950358
O114	O	-1.190455	1.345883	-0.678874
C115	C	-1.221831	1.440247	-0.712297
H116	H	-1.167497	1.511693	-0.683447
H117	H	-1.284878	1.446278	-0.677636
H118	H	-1.238489	1.439076	-0.802831
H119	H	-0.214218	1.219137	-1.149417
H120	H	-0.318889	1.319884	-1.270004
H121	H	-0.654426	1.642655	-1.237959
