data_functionalizedCrystal
_audit_creation_method	'MofGen! by Chris Wilmer'
_symmetry_space_group_name_H-M	'P1'
_symmetry_Int_Tables_number	1
_symmetry_cell_setting	triclinic
loop_
_symmetry_equiv_pos_as_xyz
  x,y,z
_cell_length_a	17.077404
_cell_length_b	21.295416
_cell_length_c	17.077396
_cell_angle_alpha	89.969282
_cell_angle_beta	90.019501
_cell_angle_gamma	89.969444
loop_
_atom_site_label
_atom_site_type_symbol
_atom_site_fract_x
_atom_site_fract_y
_atom_site_fract_z
Zn1	Zn	1.200014	0.250605	0.443831
Zn2	Zn	1.700014	0.750605	0.943831
Zn3	Zn	1.199904	0.355878	0.312559
Zn4	Zn	1.699904	0.855878	0.812559
Zn5	Zn	1.068746	0.250628	0.312578
Zn6	Zn	1.568746	0.750628	0.812578
Zn7	Zn	1.068697	0.355841	0.443783
Zn8	Zn	1.568697	0.855841	0.943783
O9	O	1.134340	0.303238	0.378188
O10	O	1.634340	0.803238	0.878188
O11	O	1.309846	0.264577	0.426429
O12	O	1.809846	0.764577	0.926429
O13	O	1.182480	0.341942	0.202715
O14	O	1.682480	0.841942	0.702715
O15	O	1.086225	0.162535	0.330017
O16	O	1.586225	0.662535	0.830017
O17	O	1.309766	0.341920	0.329985
O18	O	1.809766	0.841920	0.829985
O19	O	1.182668	0.162519	0.426448
O20	O	1.682668	0.662519	0.926448
O21	O	1.086119	0.264614	0.202729
O22	O	1.586119	0.764614	0.702729
O23	O	0.958892	0.264578	0.329971
O24	O	1.458892	0.764578	0.829971
O25	O	1.086142	0.341857	0.553636
O26	O	1.586142	0.841857	1.053636
O27	O	0.958856	0.341878	0.426366
O28	O	1.458856	0.841878	0.926366
O29	O	1.182620	0.264540	0.553671
O30	O	1.682620	0.764540	1.053671
O31	O	1.182433	0.443963	0.329939
O32	O	1.682433	0.943963	0.829939
O33	O	1.086035	0.443935	0.426348
O34	O	1.586035	0.943935	0.926348
C35	C	0.930392	0.303227	0.378166
C36	C	1.430392	0.803227	0.878166
C37	C	0.843142	0.303237	0.378175
C38	C	1.343142	0.803237	0.878175
C39	C	0.802154	0.343548	0.428288
C40	C	1.302154	0.843548	0.928288
C41	C	0.720174	0.343549	0.428301
C42	C	1.220174	0.843549	0.928301
C43	C	0.679183	0.303242	0.378196
C44	C	1.179183	0.803242	0.878196
C45	C	0.720177	0.262927	0.328081
C46	C	1.220177	0.762927	0.828081
C47	C	0.802156	0.262923	0.328073
C48	C	1.302156	0.762923	0.828073
C49	C	0.549307	0.262940	0.328100
C50	C	1.049307	0.762940	0.828100
C51	C	0.467323	0.262944	0.328107
C52	C	0.967323	0.762944	0.828107
C53	C	0.467325	0.343566	0.428328
C54	C	0.967325	0.843566	0.928328
C55	C	0.549304	0.343562	0.428319
C56	C	1.049304	0.843562	0.928319
C57	C	0.590292	0.303247	0.378203
C58	C	1.090292	0.803247	0.878203
C59	C	1.134238	0.466790	0.378153
C60	C	1.634238	0.966790	0.878153
C61	C	1.134266	0.536758	0.378165
C62	C	1.634266	1.036758	0.878165
C63	C	1.184505	0.569618	0.328017
C64	C	1.684505	1.069618	0.828017
C65	C	1.184542	0.635360	0.328039
C66	C	1.684542	1.135360	0.828039
C67	C	1.134326	0.668240	0.378199
C68	C	1.634326	1.168240	0.878199
C69	C	1.084084	0.635372	0.428356
C70	C	1.584084	1.135372	0.928356
C71	C	1.084054	0.569631	0.428339
C72	C	1.584054	1.069631	0.928339
N73	N	1.065658	0.771506	0.384181
N74	N	1.565658	1.271506	0.884181
N75	N	1.065688	0.833958	0.384193
N76	N	1.565688	1.333958	0.884193
C77	C	1.134415	0.866315	0.378254
C78	C	1.634415	1.366315	0.878254
N79	N	1.203111	0.833862	0.372288
N80	N	1.703111	1.333862	0.872288
N81	N	1.203079	0.771405	0.372273
N82	N	1.703079	1.271405	0.872273
C83	C	1.134353	0.739526	0.378223
C84	C	1.634353	1.239526	0.878223
C85	C	1.184698	0.970461	0.328128
C86	C	1.684698	1.470461	0.828128
C87	C	1.184736	1.036204	0.328154
C88	C	1.684736	1.536204	0.828154
C89	C	1.084271	1.036215	0.428467
C90	C	1.584271	1.536215	0.928467
C91	C	1.084240	0.970473	0.428445
C92	C	1.584240	1.470473	0.928445
C93	C	1.134452	0.937599	0.378271
C94	C	1.634452	1.437599	0.878271
C95	C	1.339084	0.303250	0.378210
C96	C	1.839084	0.803250	0.878210
C97	C	1.426334	0.303255	0.378219
C98	C	1.926334	0.803255	0.878219
C99	C	1.134388	0.303192	0.582932
C100	C	1.634388	0.803192	1.082932
C101	C	1.134408	0.303172	0.670182
C102	C	1.634408	0.803172	1.170182
C103	C	1.134465	1.139048	0.378253
C104	C	1.634465	1.639048	0.878253
C105	C	1.134521	1.069080	0.378316
C106	C	1.634521	1.569080	0.878316
C107	C	1.134338	0.303239	0.174240
C108	C	1.634338	0.803239	0.674240
C109	C	1.134470	0.303081	0.086991
C110	C	1.634470	0.803081	0.586991
C111	C	1.184646	0.262910	0.711192
C112	C	1.684646	0.762910	1.211192
C113	C	1.184655	0.262889	0.793172
C114	C	1.684655	0.762889	1.293172
C115	C	1.134430	0.303134	0.834142
C116	C	1.634430	0.803134	1.334142
C117	C	1.084187	0.343397	0.793126
C118	C	1.584187	0.843397	1.293126
C119	C	1.084174	0.343415	0.711147
C120	C	1.584174	0.843415	1.211147
C121	C	1.084218	0.343360	0.963996
C122	C	1.584218	0.843360	1.463996
C123	C	1.084232	0.343343	1.045981
C124	C	1.584232	0.843343	1.545981
C125	C	1.184700	0.262834	1.046021
C126	C	1.684700	0.762834	1.546021
C127	C	1.184687	0.262851	0.964042
C128	C	1.684687	0.762851	1.464042
C129	C	1.134444	0.303116	0.923033
C130	C	1.634444	0.803116	1.423033
H131	H	0.835523	0.376372	0.469086
H132	H	1.335523	0.876372	0.969086
N133	N	1.032911	0.384426	1.087849
N134	N	1.532911	0.884426	1.587849
N135	N	0.982935	0.362236	1.133592
N136	N	1.482935	0.862236	1.633592
H137	H	0.946687	0.391245	1.163169
H138	H	1.446687	0.891245	1.663169
H139	H	1.043388	1.062985	0.469312
H140	H	1.543388	1.562985	0.969312
N141	N	1.235981	0.936874	0.276877
N142	N	1.735981	1.436874	0.776877
N143	N	1.230822	0.944261	0.204441
N144	N	1.730822	1.444261	0.704441
H145	H	1.267040	0.920541	0.168245
H146	H	1.767040	1.420541	0.668245
H147	H	1.225455	0.662120	0.287203
H148	H	1.725455	1.162120	0.787203
H149	H	1.043293	0.376138	0.930609
H150	H	1.543293	0.876138	1.430609
N151	N	0.425457	0.384734	0.479533
N152	N	0.925457	0.884734	0.979533
N153	N	0.434647	0.380634	0.551975
N154	N	0.934647	0.880634	1.051975
H155	H	0.405073	0.409710	0.588136
H156	H	0.905073	0.909710	1.088136
H157	H	0.835528	0.230095	0.287271
H158	H	1.335528	0.730095	0.787271
H159	H	0.686805	0.376375	0.469107
H160	H	1.186805	0.876375	0.969107
N161	N	0.591174	0.384745	0.479486
N162	N	1.091174	0.884745	0.979486
N163	N	0.581982	0.442826	0.474144
N164	N	1.081982	0.942826	0.974144
H165	H	0.611553	0.471913	0.510282
H166	H	1.111553	0.971913	1.010282
N167	N	1.032721	0.536061	0.479552
N168	N	1.532721	1.036061	0.979552
N169	N	0.982698	0.499432	0.451876
N170	N	1.482698	0.999432	0.951876
H171	H	0.946442	0.475721	0.488045
H172	H	1.446442	0.975721	0.988045
H173	H	1.043327	0.943716	0.469276
H174	H	1.543327	1.443716	0.969276
H175	H	1.043257	0.376194	0.677758
H176	H	1.543257	0.876194	1.177758
H177	H	1.043199	0.662147	0.469198
H178	H	1.543199	1.162147	0.969198
H179	H	1.225652	1.062958	0.287320
H180	H	1.725652	1.562958	0.787320
H181	H	0.433950	0.230115	0.287317
H182	H	0.933950	0.730115	0.787317
N183	N	0.591165	0.221748	0.276913
N184	N	1.091165	0.721748	0.776913
N185	N	0.554559	0.185761	0.232182
N186	N	1.054559	0.685761	0.732182
H187	H	0.584121	0.156670	0.196030
H188	H	1.084121	0.656670	0.696030
N189	N	1.032878	0.384509	0.834965
N190	N	1.532878	0.884509	1.334965
N191	N	1.038025	0.442598	0.825789
N192	N	1.538025	0.942598	1.325789
H193	H	1.001784	0.471634	0.855333
H194	H	1.501784	0.971634	1.355333
H195	H	0.686796	0.230106	0.287289
H196	H	1.186796	0.730106	0.787289
H197	H	1.225393	0.542854	0.287165
H198	H	1.725393	1.042854	0.787165
H199	H	1.225548	0.230140	0.677840
H200	H	1.725548	0.730140	1.177840
H201	H	1.225589	0.230084	0.930687
H202	H	1.725589	0.730084	1.430687
N203	N	1.235977	0.221758	0.835050
N204	N	1.735977	0.721758	1.335050
N205	N	1.280821	0.185832	0.798461
N206	N	1.780821	0.685832	1.298461
H207	H	1.317071	0.156782	0.828036
H208	H	1.817071	0.656782	1.328036
H209	H	1.225608	0.230048	1.079415
H210	H	1.725608	0.730048	1.579415
