data_functionalizedCrystal
_audit_creation_method	'MofGen! by Chris Wilmer'
_symmetry_space_group_name_H-M	'P1'
_symmetry_Int_Tables_number	1
_symmetry_cell_setting	triclinic
loop_
_symmetry_equiv_pos_as_xyz
  x,y,z
_cell_length_a	13.032891
_cell_length_b	14.908520
_cell_length_c	13.032268
_cell_angle_alpha	99.985811
_cell_angle_beta	90.886842
_cell_angle_gamma	86.523712
loop_
_atom_site_label
_atom_site_type_symbol
_atom_site_fract_x
_atom_site_fract_y
_atom_site_fract_z
Zn1	Zn	1.453333	-0.608109	-0.815711
Zn2	Zn	1.465117	-0.742272	-0.651425
Zn3	Zn	1.305984	-0.570494	-0.619794
Zn4	Zn	1.271727	-0.737405	-0.801271
O5	O	1.374040	-0.664570	-0.722050
O6	O	1.597496	-0.643685	-0.813199
O7	O	1.463276	-0.705780	-0.502526
O8	O	1.334935	-0.449483	-0.638589
O9	O	1.606154	-0.742254	-0.692498
O10	O	1.443192	-0.477119	-0.782528
O11	O	1.346362	-0.579575	-0.479288
O12	O	1.158840	-0.574856	-0.624587
O13	O	1.276549	-0.733960	-0.947889
O14	O	1.133671	-0.697486	-0.757917
O15	O	1.409974	-0.638966	-0.958498
O16	O	1.430058	-0.867627	-0.678497
O17	O	1.287976	-0.864052	-0.788588
C18	C	1.109281	-0.631562	-0.686253
C19	C	0.996011	-0.617465	-0.670965
C20	C	1.356603	-0.898516	-0.735434
C21	C	1.349232	-0.998613	-0.741207
C22	C	0.816020	-0.657364	-0.714238
C23	C	0.933090	-0.671938	-0.730037
C24	C	1.483451	-1.190396	-0.637541
C25	C	1.476529	-1.284447	-0.642962
C26	C	1.328471	-1.280769	-0.757476
C27	C	1.335393	-1.186718	-0.752054
C28	C	1.412884	-1.141535	-0.692084
C29	C	1.419801	-1.047481	-0.686657
C30	C	1.271749	-1.043805	-0.801176
C31	C	1.264827	-1.137856	-0.806597
C32	C	1.639833	-0.697708	-0.757988
C33	C	1.753098	-0.711829	-0.773302
C34	C	1.338126	-0.690116	-0.991762
C35	C	1.322821	-0.701002	-1.106698
C36	C	1.391570	-0.429717	-0.708641
C37	C	1.399041	-0.329636	-0.702926
C38	C	1.382014	-0.658854	-1.163189
C39	C	1.366198	-0.670105	-1.281980
C40	C	1.409878	-0.639066	-0.453392
C41	C	1.425399	-0.627951	-0.338469
H42	H	0.783218	-0.599941	-0.651978
H43	H	1.260429	-0.745408	-1.146278
H44	H	0.965887	-0.729358	-0.792309
H45	H	0.963215	-0.560037	-0.608701
H46	H	0.785899	-0.769245	-0.835570
H47	H	1.487785	-0.583529	-1.298893
H48	H	1.482896	-1.010693	-0.637824
O49	O	1.567024	-1.141653	-0.572863
H50	H	1.614934	-1.191432	-0.535849
O51	O	1.195613	-0.991108	-0.859995
H52	H	1.200865	-1.018977	-0.944560
O53	O	1.552633	-1.337151	-0.584129
H54	H	1.607672	-1.289927	-0.541513
O55	O	1.283551	-0.728938	-1.334397
H56	H	1.207460	-0.701573	-1.302035
O57	O	1.244886	-1.329505	-0.822141
H58	H	1.251926	-1.403111	-0.816736
O59	O	1.464654	-0.600019	-1.110773
H60	H	1.540745	-0.627374	-1.143146
O61	O	1.181237	-1.186587	-0.871262
H62	H	1.188270	-1.260194	-0.865860
