data_functionalizedCrystal
_audit_creation_method	'MofGen! by Chris Wilmer'
_symmetry_space_group_name_H-M	'P1'
_symmetry_Int_Tables_number	1
_symmetry_cell_setting	triclinic
loop_
_symmetry_equiv_pos_as_xyz
  x,y,z
_cell_length_a	19.288840
_cell_length_b	15.944545
_cell_length_c	18.366186
_cell_angle_alpha	89.991659
_cell_angle_beta	89.983729
_cell_angle_gamma	83.311094
loop_
_atom_site_label
_atom_site_type_symbol
_atom_site_fract_x
_atom_site_fract_y
_atom_site_fract_z
O1	O	0.921638	0.104684	-0.060675
O2	O	0.719412	0.118841	-0.060650
O3	O	0.826049	-0.010535	-0.060654
O4	O	0.815000	0.234059	-0.060670
O5	O	0.826031	-0.010541	0.060445
O6	O	0.719393	0.118834	0.060450
O7	O	0.921619	0.104677	0.060425
Zn8	Zn	0.820504	0.111755	0.079664
Zn9	Zn	0.820527	0.111763	-0.079889
O10	O	0.814982	0.234053	0.060429
C11	C	0.693525	0.118386	-0.000097
C12	C	0.616416	0.117029	-0.000087
C13	C	0.580221	0.116380	-0.066100
C14	C	0.507771	0.115096	-0.066109
C15	C	0.471521	0.114443	-0.000101
C16	C	0.507724	0.115096	0.065921
C17	C	0.580172	0.116389	0.065928
C18	C	0.362051	0.063193	0.050464
C19	C	0.289605	0.061895	0.050454
C20	C	0.248066	0.110460	-0.000120
C21	C	0.278984	0.160311	-0.050696
C22	C	0.351432	0.161604	-0.050689
C23	C	0.392963	0.113042	-0.000101
C24	C	0.133312	0.108420	-0.066147
C25	C	0.060860	0.107141	-0.066153
C26	C	0.060816	0.107133	0.065879
C27	C	0.133265	0.108420	0.065883
C28	C	0.169510	0.109060	-0.000132
C29	C	0.825582	-0.041830	-0.000104
C30	C	0.824209	-0.135071	-0.000102
C31	C	0.754008	-0.405426	-0.000108
C32	C	0.787862	-0.354971	-0.059821
C33	C	0.819313	-0.470696	-0.000122
C34	C	0.787862	-0.355005	0.059574
C35	C	0.821715	-0.305792	-0.000111
C36	C	0.853150	-0.421469	-0.059884
C37	C	0.853140	-0.421506	0.059564
C38	C	0.887043	-0.371084	-0.000163
C39	C	0.817928	-0.565692	-0.000129
C40	C	0.823106	-0.210798	-0.000109
C41	C	0.947506	0.105132	-0.000130
C42	C	1.024615	0.106489	-0.000144
C43	C	0.815449	0.265348	-0.000123
C44	C	0.816822	0.358589	-0.000130
N45	N	0.820492	0.111749	0.188555
N46	N	0.820544	0.111763	-0.188781
C47	C	0.867727	0.054489	0.226654
C48	C	0.867731	0.054485	0.302882
C49	C	0.820508	0.111756	0.341008
C50	C	0.773264	0.169019	0.302900
C51	C	0.773256	0.169016	0.226674
C52	C	0.811410	0.188290	0.461764
C53	C	0.811422	0.188295	0.537989
C54	C	0.820527	0.111766	0.576116
C55	C	0.829635	0.035229	0.538008
C56	C	0.829627	0.035226	0.461782
C57	C	0.820511	0.111765	0.423663
C58	C	0.867770	0.054498	0.696869
C59	C	0.867769	0.054493	0.773098
C60	C	0.773305	0.169034	0.773116
C61	C	0.773302	0.169032	0.696888
C62	C	0.820538	0.111764	0.658769
H63	H	0.245164	0.199860	-0.091875
H64	H	0.162737	0.108943	0.119638
H65	H	0.906230	0.007865	0.665832
C66	C	0.963077	-0.350447	-0.000215
C67	C	1.012203	-0.380667	-0.063433
C68	C	1.088235	-0.360027	-0.063490
C69	C	1.115141	-0.309165	-0.000328
C70	C	1.066014	-0.278941	0.062895
C71	C	0.989982	-0.299582	0.062952
H72	H	0.992286	-0.418321	-0.110194
H73	H	1.124602	-0.382401	-0.110292
H74	H	1.171425	-0.293885	-0.000369
H75	H	1.085931	-0.241287	0.109656
H76	H	0.953615	-0.277208	0.109754
H77	H	0.804011	0.250615	0.569011
H78	H	0.760263	-0.325984	0.110055
C79	C	0.801389	0.272479	0.419829
C80	C	0.801375	0.272479	0.335983
C81	C	0.791351	0.356663	0.294049
C82	C	0.781340	0.440848	0.335961
C83	C	0.781354	0.440851	0.419812
C84	C	0.791378	0.356667	0.461746
H85	H	0.808786	0.210157	0.304953
H86	H	0.791341	0.356661	0.231977
H87	H	0.773920	0.503167	0.304919
H88	H	0.773943	0.503173	0.450842
H89	H	0.791388	0.356669	0.523818
C90	C	0.678033	-0.426282	-0.000175
C91	C	0.651666	-0.478469	-0.062757
C92	C	0.575693	-0.499326	-0.062828
C93	C	0.526088	-0.467997	-0.000316
C94	C	0.552454	-0.415808	0.062271
C95	C	0.628427	-0.394950	0.062342
H96	H	0.688387	-0.501663	-0.109037
H97	H	0.556175	-0.537961	-0.109160
H98	H	0.469849	-0.483438	-0.000369
H99	H	0.515733	-0.392613	0.108551
H100	H	0.647945	-0.356315	0.108674
H101	H	0.906187	0.007857	0.195620
C102	C	0.919697	-0.008500	0.344800
C103	C	0.971672	-0.071464	0.302869
C104	C	1.023639	-0.134448	0.344784
C105	C	1.023629	-0.134468	0.428630
C106	C	0.971651	-0.071502	0.470566
C107	C	0.919685	-0.008518	0.428651
H108	H	0.971681	-0.071452	0.240797
H109	H	1.062116	-0.181060	0.313740
H110	H	1.062098	-0.181093	0.459658
H111	H	0.971642	-0.071514	0.532638
H112	H	0.881208	0.038094	0.459695
H113	H	0.264439	0.021299	0.091633
C114	C	0.839649	-0.048961	0.579936
C115	C	0.849664	-0.133144	0.538022
C116	C	0.859680	-0.217330	0.579953
C117	C	0.859682	-0.217334	0.663799
C118	C	0.849666	-0.133148	0.705718
C119	C	0.839650	-0.048961	0.663787
H120	H	0.849664	-0.133144	0.475950
H121	H	0.867094	-0.279650	0.548922
H122	H	0.867096	-0.279654	0.694840
H123	H	0.849667	-0.133148	0.767790
H124	H	0.832236	0.013359	0.694819
C125	C	0.721318	0.232019	0.344835
C126	C	0.721357	0.232068	0.428681
C127	C	0.669406	0.295067	0.470615
C128	C	0.617416	0.358018	0.428702
C129	C	0.617376	0.357972	0.344852
C130	C	0.669326	0.294973	0.302918
H131	H	0.759845	0.185465	0.459712
H132	H	0.669437	0.295101	0.532687
H133	H	0.578959	0.404654	0.459744
H134	H	0.578888	0.404574	0.313821
H135	H	0.669296	0.294939	0.240846
C136	C	0.890337	-0.460773	0.127766
C137	C	0.967531	-0.449993	0.141639
C138	C	1.004711	-0.489260	0.209853
C139	C	0.964697	-0.539307	0.264195
C140	C	0.887498	-0.550090	0.250323
C141	C	0.850318	-0.510823	0.182109
H142	H	0.997155	-0.412943	0.101411
H143	H	1.061858	-0.481277	0.220122
H144	H	0.992220	-0.568375	0.314691
H145	H	0.857874	-0.587140	0.290552
H146	H	0.793171	-0.518806	0.171841
H147	H	0.760290	-0.325925	-0.110297
C148	C	0.890390	-0.460519	-0.128161
C149	C	0.895952	-0.556544	-0.140799
C150	C	0.933190	-0.595596	-0.209075
C151	C	0.964865	-0.538623	-0.264714
C152	C	0.959304	-0.442592	-0.252077
C153	C	0.922067	-0.403541	-0.183801
H154	H	0.872503	-0.598724	-0.099611
H155	H	0.937306	-0.666684	-0.218429
H156	H	0.992431	-0.567531	-0.315256
H157	H	0.982753	-0.400412	-0.293266
H158	H	0.917950	-0.332452	-0.174447
C159	C	0.173186	0.109134	-0.138760
C160	C	0.133366	0.108434	-0.211377
C161	C	0.173237	0.109149	-0.283990
C162	C	0.252928	0.110563	-0.283986
C163	C	0.292752	0.111262	-0.211366
C164	C	0.252881	0.110548	-0.138753
H165	H	0.074370	0.107388	-0.211382
H166	H	0.143756	0.108631	-0.337748
H167	H	0.282443	0.111092	-0.337738
H168	H	0.351748	0.112309	-0.211361
H169	H	0.282362	0.111066	-0.084995
C170	C	0.021043	0.106431	-0.138774
C171	C	0.038917	0.033683	-0.193224
C172	C	-0.000900	0.032974	-0.265846
C173	C	-0.058591	0.105014	-0.284018
C174	C	-0.076467	0.177768	-0.229567
C175	C	-0.036650	0.178476	-0.156944
H176	H	0.081625	-0.019650	-0.179773
H177	H	0.012333	-0.020884	-0.306155
H178	H	-0.088066	0.104489	-0.337777
H179	H	-0.119176	0.231101	-0.243017
H180	H	-0.049884	0.232334	-0.116636
C181	C	0.919730	-0.008497	0.815012
C182	C	0.971700	-0.071468	0.773081
C183	C	1.023661	-0.134458	0.814996
C184	C	1.023652	-0.134476	0.898842
C185	C	0.971680	-0.071503	0.940778
C186	C	0.919719	-0.008513	0.898862
H187	H	0.971709	-0.071456	0.711009
H188	H	1.062135	-0.181075	0.783953
H189	H	1.062117	-0.181105	0.929871
H190	H	0.971672	-0.071514	1.002850
H191	H	0.881245	0.038104	0.929906
H192	H	0.734792	0.215644	0.195654
C193	C	0.721357	0.232031	0.815047
C194	C	0.721409	0.232091	0.898893
C195	C	0.669457	0.295087	0.940828
C196	C	0.617454	0.358023	0.898918
C197	C	0.617400	0.357966	0.815067
C198	C	0.669352	0.294970	0.773132
H199	H	0.759907	0.185500	0.929921
H200	H	0.669497	0.295130	1.002900
H201	H	0.578996	0.404657	0.929961
H202	H	0.578902	0.404557	0.784039
H203	H	0.669311	0.294928	0.711060
H204	H	0.609727	0.116901	-0.119855
H205	H	0.837041	-0.027093	0.430757
H206	H	0.031301	0.106606	0.119624
H207	H	0.478204	0.114567	0.119665
H208	H	0.734842	0.215661	0.665866
H209	H	0.478295	0.114569	-0.119867
H210	H	0.376602	0.202197	-0.091868
H211	H	0.609642	0.116918	0.119685
C212	C	0.407740	0.009772	0.106102
C213	C	0.373737	-0.045067	0.161727
C214	C	0.419424	-0.098483	0.217366
C215	C	0.499114	-0.097058	0.217380
C216	C	0.533121	-0.042217	0.161752
C217	C	0.487434	0.011198	0.106114
H218	H	0.314742	-0.046123	0.161719
H219	H	0.394250	-0.139080	0.258545
H220	H	0.532934	-0.136600	0.258567
H221	H	0.592116	-0.041161	0.161761
H222	H	0.512608	0.051796	0.064935
