data_functionalizedCrystal
_audit_creation_method	'MofGen! by Chris Wilmer'
_symmetry_space_group_name_H-M	'P1'
_symmetry_Int_Tables_number	1
_symmetry_cell_setting	triclinic
loop_
_symmetry_equiv_pos_as_xyz
  x,y,z
_cell_length_a	14.971486
_cell_length_b	10.489741
_cell_length_c	14.048226
_cell_angle_alpha	89.993872
_cell_angle_beta	89.998499
_cell_angle_gamma	84.076651
loop_
_atom_site_label
_atom_site_type_symbol
_atom_site_fract_x
_atom_site_fract_y
_atom_site_fract_z
O1	O	1.187893	0.166222	-0.079050
O2	O	0.927606	0.186127	-0.079076
O3	O	1.063672	-0.009492	-0.079057
O4	O	1.051827	0.361841	-0.079070
O5	O	1.063656	-0.009503	0.079264
O6	O	0.927590	0.186116	0.079245
O7	O	1.187876	0.166211	0.079271
Zn8	Zn	1.057730	0.176161	0.104395
Zn9	Zn	1.057752	0.176177	-0.104200
O10	O	1.051810	0.361830	0.079252
C11	C	0.894268	0.185232	0.000081
C12	C	0.794956	0.182564	0.000071
C13	C	0.738385	0.297485	0.000069
C14	C	0.645071	0.294971	0.000083
C15	C	0.608330	0.177534	0.000093
C16	C	0.664909	0.062604	0.000098
C17	C	0.758221	0.065120	0.000091
C18	C	0.470416	0.057369	0.000112
C19	C	0.377098	0.054853	0.000117
C20	C	0.357267	0.287220	0.000104
C21	C	0.450579	0.289736	0.000096
C22	C	0.507151	0.174805	0.000100
C23	C	1.062769	-0.057019	0.000103
C24	C	1.060093	-0.198617	0.000101
C25	C	0.973518	-0.265755	0.000085
C26	C	1.014407	-0.358357	0.078150
C27	C	1.014444	-0.358320	-0.077942
C28	C	1.101017	-0.289354	0.078230
C29	C	1.101042	-0.289308	-0.077933
C30	C	1.141994	-0.381882	0.000151
C31	C	1.221215	0.167106	0.000111
C32	C	1.320527	0.169774	0.000115
C33	C	1.052713	0.409357	0.000090
C34	C	1.055390	0.550955	0.000085
N35	N	1.057722	0.176150	0.246755
N36	N	1.057768	0.176178	-0.246561
C37	C	1.117991	0.089566	0.296582
C38	C	1.117997	0.089565	0.396240
C39	C	1.057738	0.176156	0.446069
C40	C	0.997462	0.262744	0.396235
C41	C	0.997452	0.262738	0.296580
C42	C	0.997488	0.262754	0.603950
C43	C	0.997498	0.262762	0.703612
C44	C	1.118033	0.089581	0.703610
C45	C	1.118023	0.089574	0.603954
C46	C	1.057748	0.176165	0.554127
H47	H	0.634987	-0.033015	0.000120
C48	C	0.778791	0.426667	0.000057
H49	H	0.731731	0.494748	0.000066
H50	H	0.814777	0.432485	-0.055155
H51	H	0.814781	0.432473	0.055272
H52	H	0.902336	-0.215280	0.000157
H53	H	0.948402	0.333261	0.563384
C54	C	0.931157	0.357928	0.758423
H55	H	0.895233	0.409462	0.714477
H56	H	0.963619	0.411138	0.797318
H57	H	0.893660	0.311864	0.797279
H58	H	1.167065	0.019059	0.256018
H59	H	0.804281	-0.028461	0.000092
C60	C	0.964954	-0.399586	-0.167101
H61	H	0.905104	-0.359407	-0.167004
H62	H	0.964078	-0.490006	-0.166777
H63	H	0.995138	-0.374774	-0.222530
H64	H	0.516476	-0.036219	0.000116
C65	C	1.150444	-0.248290	0.167492
H66	H	1.151814	-0.157948	0.166971
H67	H	1.210113	-0.289096	0.167728
H68	H	1.119878	-0.272474	0.222852
H69	H	0.977768	-0.388949	0.144141
C70	C	0.582846	0.421384	0.000077
H71	H	0.618092	0.491684	0.000058
H72	H	0.546036	0.425236	0.055291
H73	H	0.546030	0.425231	-0.055136
H74	H	1.213239	-0.432131	0.000202
H75	H	1.167073	0.019061	0.436808
H76	H	0.948393	0.333244	0.436812
C77	C	0.295042	0.413641	0.000103
H78	H	0.234206	0.395328	0.000119
H79	H	0.306256	0.461788	-0.055114
H80	H	0.306264	0.461789	0.055314
H81	H	0.480489	0.385363	0.000079
H82	H	1.167095	0.019072	0.563383
C83	C	0.336684	-0.074323	0.000134
H84	H	0.383739	-0.142411	0.000148
H85	H	0.300694	-0.080134	-0.055074
H86	H	0.300696	-0.080125	0.055354
C87	C	1.150493	-0.247919	-0.167082
H88	H	1.119655	-0.271258	-0.222499
H89	H	1.210005	-0.289281	-0.167639
H90	H	1.152307	-0.157668	-0.166120
H91	H	1.167110	0.019076	0.744184
H92	H	0.948374	0.333242	0.256012
