data_functionalizedCrystal
_audit_creation_method	'MofGen! by Chris Wilmer'
_symmetry_space_group_name_H-M	'P1'
_symmetry_Int_Tables_number	1
_symmetry_cell_setting	triclinic
loop_
_symmetry_equiv_pos_as_xyz
  x,y,z
_cell_length_a	14.971486
_cell_length_b	10.654550
_cell_length_c	13.448316
_cell_angle_alpha	89.994587
_cell_angle_beta	89.998199
_cell_angle_gamma	84.049516
loop_
_atom_site_label
_atom_site_type_symbol
_atom_site_fract_x
_atom_site_fract_y
_atom_site_fract_z
O1	O	1.187838	0.163659	-0.082575
O2	O	0.927544	0.183258	-0.082602
O3	O	1.063676	-0.009345	-0.082584
O4	O	1.051707	0.356262	-0.082593
O5	O	1.063659	-0.009357	0.082800
O6	O	0.927527	0.183246	0.082782
O7	O	1.187821	0.163647	0.082809
Cu8	Cu	1.057672	0.173445	0.097896
Cu9	Cu	1.057693	0.173460	-0.097689
O10	O	1.051689	0.356250	0.082791
C11	C	0.894206	0.182375	0.000087
C12	C	0.794895	0.179749	0.000077
C13	C	0.738285	0.292898	0.000075
C14	C	0.644972	0.290422	0.000090
C15	C	0.608271	0.174797	0.000099
C16	C	0.664888	0.061639	0.000104
C17	C	0.758199	0.064116	0.000096
C18	C	0.470397	0.056485	0.000117
C19	C	0.377080	0.054007	0.000123
C20	C	0.357171	0.282791	0.000112
C21	C	0.450482	0.285268	0.000104
C22	C	0.507092	0.172110	0.000106
C23	C	1.062788	-0.056139	0.000107
C24	C	1.060159	-0.195555	0.000103
C25	C	1.140311	-0.275900	0.000114
C26	C	1.137835	-0.406894	0.000107
C27	C	0.975048	-0.377185	0.000081
C28	C	0.977525	-0.246193	0.000082
C29	C	1.234295	-0.293054	0.000133
C30	C	1.231819	-0.424048	0.000126
C31	C	1.221159	0.164530	0.000118
C32	C	1.320470	0.167156	0.000122
C33	C	1.052577	0.403044	0.000098
C34	C	1.055206	0.542460	0.000096
N35	N	1.057664	0.173435	0.235461
N36	N	1.057708	0.173460	-0.235253
C37	C	1.117962	0.088185	0.287509
C38	C	1.117968	0.088184	0.391612
C39	C	1.057679	0.173440	0.443665
C40	C	0.997375	0.258693	0.391610
C41	C	0.997365	0.258687	0.287509
C42	C	0.997400	0.258702	0.608590
C43	C	0.997410	0.258710	0.712698
C44	C	1.118002	0.088199	0.712694
C45	C	1.117993	0.088193	0.608592
C46	C	1.057689	0.173448	0.556544
H47	H	0.347201	-0.040145	0.000132
H48	H	0.948291	0.328122	0.566216
F49	F	0.818447	-0.056313	0.000101
F50	F	0.933185	0.349418	0.232116
H51	H	1.167067	0.018767	0.433989
F52	F	0.887108	-0.431089	0.000056
H53	H	0.768160	0.387053	0.000067
F54	F	1.282352	-0.255183	-0.090319
F55	F	1.273391	-0.246905	0.093479
F56	F	1.268953	-0.484105	-0.093203
F57	F	1.278092	-0.479140	0.090594
F58	F	1.182136	-0.002551	0.232120
F59	F	1.182163	-0.002537	0.553193
H60	H	0.598884	0.382560	0.000088
H61	H	1.167103	0.018781	0.755077
H62	H	0.948315	0.328132	0.755075
F63	F	0.892216	-0.160687	0.000048
F64	F	0.933205	0.349424	0.447009
H65	H	0.634998	-0.032505	0.000125
F66	F	0.530645	-0.063952	0.000123
F67	F	0.489540	0.408329	0.000084
F68	F	0.296921	0.403223	0.000111
