data_functionalizedCrystal
_audit_creation_method	'MofGen! by Chris Wilmer'
_symmetry_space_group_name_H-M	'P1'
_symmetry_Int_Tables_number	1
_symmetry_cell_setting	triclinic
loop_
_symmetry_equiv_pos_as_xyz
  x,y,z
_cell_length_a	12.759401
_cell_length_b	16.120444
_cell_length_c	12.759393
_cell_angle_alpha	92.863624
_cell_angle_beta	89.980563
_cell_angle_gamma	92.926494
loop_
_atom_site_label
_atom_site_type_symbol
_atom_site_fract_x
_atom_site_fract_y
_atom_site_fract_z
Zn1	Zn	1.584964	-0.331858	-0.615177
Zn2	Zn	1.575912	-0.471296	-0.448392
Zn3	Zn	1.409263	-0.331901	-0.439517
Zn4	Zn	1.400313	-0.471231	-0.624027
O5	O	1.492613	-0.401571	-0.531778
O6	O	1.730784	-0.350363	-0.593064
O7	O	1.553764	-0.452850	-0.300197
O8	O	1.440104	-0.215229	-0.455400
O9	O	1.724133	-0.452808	-0.470528
O10	O	1.569191	-0.215198	-0.584457
O11	O	1.431327	-0.350437	-0.293676
O12	O	1.261055	-0.350374	-0.463981
O13	O	1.424849	-0.452698	-0.769871
O14	O	1.254480	-0.452740	-0.599540
O15	O	1.560512	-0.350301	-0.763370
O16	O	1.545085	-0.587953	-0.479109
O17	O	1.416072	-0.587906	-0.608147
C18	C	1.219647	-0.401556	-0.531759
C19	C	1.102869	-0.401569	-0.531776
C20	C	0.934880	-0.454965	-0.602280
C21	C	1.044604	-0.454954	-0.602263
C22	C	1.051403	-0.348197	-0.461296
C23	C	0.941680	-0.348212	-0.461310
C24	C	0.876621	-0.508348	-0.672778
C25	C	0.928079	-0.561721	-0.743258
C26	C	1.037804	-0.561711	-0.743240
C27	C	1.096070	-0.508326	-0.672743
C28	C	1.478653	-0.618179	-0.545574
C29	C	1.472778	-0.710845	-0.551511
C30	C	1.523351	-0.921790	-0.501206
C31	C	1.462069	-0.880501	-0.562362
C32	C	1.468029	-0.786096	-0.556323
C33	C	1.517393	-1.016204	-0.507243
C34	C	1.766645	-0.401588	-0.531799
C35	C	1.883421	-0.401595	-0.531808
C36	C	1.492692	-0.401487	-0.805806
C37	C	1.492726	-0.401451	-0.922581
C38	C	1.506656	-0.184118	-0.517952
C39	C	1.512640	-0.091452	-0.512060
C40	C	1.563375	-0.348128	-0.974059
C41	C	1.563402	-0.348098	-1.083781
C42	C	1.422127	-0.454722	-1.090538
C43	C	1.422096	-0.454747	-0.980818
C44	C	1.634004	-0.294833	-0.915822
C45	C	1.704660	-0.241506	-0.967300
C46	C	1.704687	-0.241475	-1.077022
C47	C	1.634058	-0.294772	-1.135267
C48	C	1.492599	-0.401595	-0.258812
C49	C	1.492784	-0.401396	-0.142024
H50	H	0.880631	-0.605189	-0.800648
H51	H	1.098853	-0.304733	-0.403902
C52	C	1.385130	-0.928523	-0.639211
C53	C	1.379192	-1.024294	-0.645212
C54	C	1.302250	-1.072319	-0.722052
C55	C	1.231247	-1.024574	-0.792890
C56	C	1.237183	-0.928797	-0.786892
C57	C	1.314125	-0.880772	-0.710052
H58	H	1.431754	-1.059643	-0.592771
H59	H	1.297856	-1.143219	-0.726492
H60	H	1.174291	-1.060125	-0.849772
H61	H	1.184621	-0.893448	-0.839333
H62	H	1.318519	-0.809872	-0.705612
C63	C	0.885068	-0.289495	-0.383803
C64	C	0.949147	-0.230761	-0.306275
C65	C	0.892534	-0.172041	-0.228768
C66	C	0.771844	-0.172056	-0.228789
C67	C	0.707758	-0.230792	-0.306320
C68	C	0.764371	-0.289511	-0.383827
H69	H	1.038496	-0.230749	-0.306256
H70	H	0.939975	-0.128561	-0.171375
H71	H	0.729936	-0.128588	-0.171414
H72	H	0.618409	-0.230804	-0.306339
H73	H	0.716930	-0.332991	-0.441221
H74	H	1.364552	-0.498155	-0.938903
C75	C	1.094410	-0.620420	-0.820761
C76	C	1.030323	-0.679137	-0.898302
C77	C	1.086927	-0.737845	-0.975830
C78	C	1.207617	-0.737837	-0.975818
C79	C	1.271711	-0.679118	-0.898274
C80	C	1.215107	-0.620410	-0.820745
H81	H	0.940974	-0.679145	-0.898314
H82	H	1.039479	-0.781312	-1.033233
H83	H	1.249518	-0.781296	-1.033209
H84	H	1.361059	-0.679110	-0.898262
H85	H	1.262554	-0.576942	-0.763342
H86	H	1.185415	-0.508327	-0.672729
H87	H	1.580289	-0.886242	-0.444316
C88	C	1.344447	-0.513351	-1.154604
C89	C	1.344484	-0.513328	-1.275293
C90	C	1.266806	-0.571961	-1.339357
C91	C	1.189091	-0.630617	-1.282733
C92	C	1.189051	-0.630643	-1.162038
C93	C	1.266729	-0.572010	-1.097973
H94	H	1.402016	-0.469905	-1.317215
H95	H	1.266836	-0.571942	-1.428704
H96	H	1.131589	-0.674021	-1.330158
H97	H	1.131519	-0.674066	-1.120116
H98	H	1.266699	-0.572029	-1.008627
C99	C	1.782346	-0.182880	-0.903237
C100	C	1.782324	-0.182910	-0.782549
C101	C	1.860012	-0.124283	-0.718488
C102	C	1.937721	-0.065624	-0.775116
C103	C	1.937746	-0.065591	-0.895811
C104	C	1.860059	-0.124219	-0.959871
H105	H	1.724796	-0.226335	-0.740624
H106	H	1.859993	-0.124307	-0.629142
H107	H	1.995230	-0.022224	-0.727694
H108	H	1.995274	-0.022166	-0.937736
H109	H	1.860077	-0.124194	-1.049218
H110	H	0.787277	-0.508361	-0.672803
H111	H	1.633993	-0.294853	-0.826481
H112	H	1.762211	-0.198048	-1.118932
H113	H	1.634074	-0.294734	-1.224609
