data_functionalizedCrystal
_audit_creation_method	'MofGen! by Chris Wilmer'
_symmetry_space_group_name_H-M	'P1'
_symmetry_Int_Tables_number	1
_symmetry_cell_setting	triclinic
loop_
_symmetry_equiv_pos_as_xyz
  x,y,z
_cell_length_a	16.109302
_cell_length_b	14.971486
_cell_length_c	14.048226
_cell_angle_alpha	89.996181
_cell_angle_beta	90.006791
_cell_angle_gamma	96.462045
loop_
_atom_site_label
_atom_site_type_symbol
_atom_site_fract_x
_atom_site_fract_y
_atom_site_fract_z
O1	O	1.103275	-0.114973	0.079204
O2	O	0.861231	-0.129280	0.079196
O3	O	0.988741	0.008083	0.079194
O4	O	0.975766	-0.252336	0.079207
O5	O	0.988729	0.008084	-0.079128
O6	O	0.861219	-0.129279	-0.079125
O7	O	1.103263	-0.114972	-0.079118
Zn8	Zn	0.982239	-0.122125	-0.104258
Zn9	Zn	0.982255	-0.122127	0.104337
O10	O	0.975754	-0.252335	-0.079115
C11	C	0.830250	-0.128700	0.000035
C12	C	0.737952	-0.126962	0.000032
C13	C	0.525600	-0.122943	-0.086260
C14	C	0.438877	-0.121301	-0.086257
C15	C	0.438901	-0.121306	0.086354
C16	C	0.525623	-0.122942	0.086350
C17	C	0.568969	-0.123765	0.000040
C18	C	0.395526	-0.120487	0.000047
C19	C	0.301498	-0.118706	0.000051
C20	C	0.663003	-0.125545	0.000035
C21	C	0.988154	0.041407	0.000033
C22	C	0.986416	0.140702	0.000034
C23	C	1.134245	-0.115552	0.000046
C24	C	1.226542	-0.117290	0.000055
C25	C	0.976340	-0.285659	0.000048
C26	C	0.978079	-0.384954	0.000053
N27	N	0.982234	-0.122124	-0.246619
C28	C	1.061324	0.198035	0.000036
C29	C	1.059685	0.291332	0.000045
C30	C	0.983137	0.327294	0.000046
C31	C	0.908223	0.269954	0.000047
C32	C	0.909863	0.176658	0.000045
C33	C	0.904811	0.464411	0.000051
C34	C	0.903171	0.557713	0.000052
C35	C	1.054633	0.579085	0.000051
C36	C	1.056273	0.485790	0.000048
C37	C	0.981358	0.428456	0.000048
C38	C	1.032709	-0.176392	-0.296428
C39	C	1.032720	-0.176388	-0.396086
C40	C	0.982251	-0.122120	-0.445932
C41	C	0.931774	-0.067845	-0.396116
C42	C	0.931768	-0.067845	-0.296460
C43	C	0.931788	-0.067852	-0.603830
C44	C	0.931792	-0.067853	-0.703493
C45	C	1.032739	-0.176395	-0.703456
C46	C	1.032733	-0.176394	-0.603800
C47	C	0.982255	-0.122121	-0.553991
N48	N	0.982267	-0.122121	0.246698
H49	H	1.120683	0.338010	0.000044
O50	O	0.882658	-0.015107	-0.248220
C51	C	0.838128	0.032809	-0.313582
H52	H	0.833313	-0.004219	-0.384618
H53	H	0.772748	0.038383	-0.284801
H54	H	0.872314	0.103006	-0.324181
H55	H	1.118605	0.456513	0.000041
H56	H	0.890686	-0.023655	-0.436709
H57	H	0.560935	-0.123610	0.156630
O58	O	1.135756	0.163254	0.000079
C59	C	1.201520	0.233869	0.000062
H60	H	1.178149	0.297237	0.030034
H61	H	1.254960	0.214387	0.046031
H62	H	1.224628	0.247083	-0.075891
O63	O	1.081631	-0.229154	-0.444579
C64	C	1.030999	-0.290181	-0.502218
H65	H	0.969289	-0.262321	-0.517162
H66	H	1.064434	-0.300151	-0.572289
H67	H	1.018332	-0.357417	-0.463815
H68	H	1.115631	0.625771	0.000055
O69	O	0.396857	-0.120386	-0.170151
C70	C	0.427374	-0.043355	-0.222646
H71	H	0.493456	-0.018736	-0.198105
H72	H	0.428233	-0.060822	-0.301598
H73	H	0.385111	0.011781	-0.210685
O74	O	0.567832	-0.123775	-0.170012
C75	C	0.653678	-0.125373	-0.151515
H76	H	0.662119	-0.153905	-0.077347
H77	H	0.681392	-0.169388	-0.206638
H78	H	0.686939	-0.054121	-0.155604
O79	O	0.396659	-0.120552	0.170105
C80	C	0.310818	-0.118912	0.151606
H81	H	0.295550	-0.146985	0.077436
H82	H	0.272632	-0.161694	0.206726
H83	H	0.294860	-0.046733	0.155699
H84	H	0.840839	0.586990	0.000037
H85	H	0.843807	0.417732	0.000053
H86	H	0.845896	0.299241	0.000054
O87	O	1.081799	-0.228986	-0.555269
C88	C	1.138484	-0.174465	-0.497630
H89	H	1.112553	-0.108083	-0.482722
H90	H	1.147763	-0.210422	-0.427543
H91	H	1.200971	-0.160802	-0.536016
O92	O	0.837019	0.121090	0.000001
C93	C	0.769104	0.172834	0.000027
H94	H	0.790131	0.242472	-0.029950
H95	H	0.716606	0.138403	-0.045935
H96	H	0.745655	0.179467	0.075983
O97	O	1.081682	-0.229246	-0.751795
C98	C	1.058740	-0.320028	-0.727429
H99	H	0.991702	-0.328650	-0.700049
H100	H	1.063628	-0.364032	-0.792964
H101	H	1.102337	-0.340810	-0.669572
H102	H	1.073802	-0.220589	-0.255850
O103	O	0.882749	-0.015048	-0.751765
C104	C	0.838187	0.032842	-0.686430
H105	H	0.872594	0.038048	-0.615385
H106	H	0.832974	0.103182	-0.715233
H107	H	0.772961	-0.003975	-0.675842
H108	H	0.890684	-0.023655	-0.563278
