data_functionalizedCrystal
_audit_creation_method	'MofGen! by Chris Wilmer'
_symmetry_space_group_name_H-M	'P1'
_symmetry_Int_Tables_number	1
_symmetry_cell_setting	triclinic
loop_
_symmetry_equiv_pos_as_xyz
  x,y,z
_cell_length_a	10.654550
_cell_length_b	14.853567
_cell_length_c	9.730223
_cell_angle_alpha	90.002458
_cell_angle_beta	89.996251
_cell_angle_gamma	84.059917
loop_
_atom_site_label
_atom_site_type_symbol
_atom_site_fract_x
_atom_site_fract_y
_atom_site_fract_z
O1	O	1.666519	0.126622	-0.114390
O2	O	1.300915	0.138686	-0.114367
O3	O	1.493482	0.001477	-0.114383
O4	O	1.473951	0.263832	-0.114374
O5	O	1.493480	0.001480	0.114197
O6	O	1.300912	0.138690	0.114213
O7	O	1.666516	0.126625	0.114190
Zn8	Zn	1.483714	0.132658	0.150493
Zn9	Zn	1.483717	0.132654	-0.150671
O10	O	1.473949	0.263835	0.114206
C11	C	1.254125	0.137802	-0.000074
C12	C	1.114709	0.135152	-0.000066
C13	C	1.034384	0.215939	-0.000083
C14	C	0.903389	0.213443	-0.000107
C15	C	0.933057	0.049367	-0.000102
C16	C	1.064050	0.051863	-0.000068
C17	C	1.017254	0.310667	-0.000091
C18	C	0.886260	0.308171	-0.000115
C19	C	1.492596	-0.032115	-0.000097
C20	C	1.489944	-0.132213	-0.000109
C21	C	1.364344	-0.545419	-0.000075
C22	C	1.593119	-0.565475	-0.000090
C23	C	1.595613	-0.471428	-0.000098
C24	C	1.482470	-0.414372	-0.000093
C25	C	1.366834	-0.451363	-0.000079
C26	C	1.711247	-0.434430	-0.000097
C27	C	1.713745	-0.340378	-0.000104
C28	C	1.600601	-0.283320	-0.000109
C29	C	1.484961	-0.320316	-0.000097
C30	C	1.371818	-0.263260	-0.000091
C31	C	1.256176	-0.300254	-0.000089
C32	C	1.253691	-0.394305	-0.000084
C33	C	1.603087	-0.189269	-0.000114
C34	C	1.374308	-0.169204	-0.000096
C35	C	1.713306	0.127510	-0.000106
C36	C	1.852722	0.130160	-0.000123
C37	C	1.474835	0.297427	-0.000083
C38	C	1.477487	0.397525	-0.000080
N39	N	1.483721	0.132661	0.356030
N40	N	1.483720	0.132644	-0.356207
C41	C	1.569012	0.071925	0.427949
C42	C	1.569009	0.071914	0.571832
C43	C	1.398420	0.193382	0.571864
C44	C	1.398418	0.193388	0.427984
C45	C	1.667504	0.001799	0.427931
C46	C	1.667501	0.001788	0.571814
H47	H	1.046200	0.347716	0.095576
C48	C	0.829367	0.356372	-0.129356
C49	C	0.870631	0.321426	-0.273092
C50	C	0.813737	0.369621	-0.402329
C51	C	0.715578	0.452762	-0.387830
C52	C	0.674308	0.487712	-0.244088
C53	C	0.731202	0.439517	-0.114851
H54	H	0.943299	0.259877	-0.283831
H55	H	0.844289	0.343749	-0.508737
H56	H	0.673462	0.488439	-0.483499
H57	H	0.601641	0.549261	-0.233350
H58	H	0.700651	0.465390	-0.008444
C59	C	1.065008	0.351412	-0.133408
C60	C	1.160727	0.294591	-0.225176
C61	C	1.208480	0.335331	-0.358498
C62	C	1.160514	0.432891	-0.400051
C63	C	1.064789	0.489717	-0.308281
C64	C	1.017036	0.448978	-0.174959
H65	H	1.196240	0.222366	-0.194418
H66	H	1.279342	0.293263	-0.426432
H67	H	1.195863	0.463049	-0.498744
H68	H	1.029277	0.561942	-0.339039
H69	H	0.946174	0.491045	-0.107025
C70	C	1.131723	-0.237486	-0.000081
C71	C	1.101990	-0.170068	-0.118771
C72	C	0.977541	-0.107297	-0.118762
C73	C	0.882825	-0.111943	-0.000063
C74	C	0.912555	-0.179363	0.118636
C75	C	1.037004	-0.242135	0.118627
H76	H	1.172107	-0.166627	-0.206647
H77	H	0.955533	-0.057387	-0.206631
H78	H	0.790700	-0.065475	-0.000056
H79	H	0.842438	-0.182805	0.206513
H80	H	1.059012	-0.292045	0.206496
H81	H	0.891794	-0.018444	-0.000125
H82	H	1.758459	0.023756	0.383300
H83	H	0.840290	0.336801	0.098570
C84	C	1.639500	-0.091808	0.375156
C85	C	1.727889	-0.176756	0.413368
C86	C	1.699884	-0.270359	0.360593
C87	C	1.583489	-0.279014	0.269605
C88	C	1.495092	-0.194062	0.231388
C89	C	1.523097	-0.100459	0.284164
H90	H	1.814058	-0.170352	0.480726
H91	H	1.765321	-0.333246	0.388884
H92	H	1.562757	-0.348304	0.230538
H93	H	1.408923	-0.200466	0.164030
H94	H	1.457659	-0.037572	0.255872
H95	H	1.282173	-0.122754	-0.000097
H96	H	1.159541	-0.424435	-0.000080
H97	H	1.270191	-0.575545	-0.000079
C98	C	1.627231	-0.086685	0.632084
C99	C	1.718262	-0.146167	0.725560
C100	C	1.678003	-0.234642	0.785824
C101	C	1.546712	-0.263636	0.752612
C102	C	1.455673	-0.204153	0.659131
C103	C	1.495933	-0.115678	0.598867
H104	H	1.815459	-0.124705	0.750150
H105	H	1.745396	-0.278675	0.855025
H106	H	1.516909	-0.329130	0.797223
H107	H	1.358476	-0.225614	0.634541
H108	H	1.428539	-0.071645	0.529666
H109	H	1.685234	-0.611936	-0.000083
H110	H	1.807907	-0.310265	-0.000108
C111	C	1.797651	0.022661	0.624589
C112	C	1.916708	-0.040087	0.586351
C113	C	2.046848	-0.019211	0.639132
C114	C	2.057932	0.064412	0.730152
C115	C	1.938871	0.127164	0.768395
C116	C	1.808730	0.106289	0.715613
H117	H	1.908506	-0.101994	0.518969
H118	H	2.134985	-0.065666	0.610822
H119	H	2.154269	0.079865	0.769224
H120	H	1.947072	0.189072	0.835777
H121	H	1.720594	0.152743	0.743924
H122	H	1.129447	-0.013921	-0.000035
H123	H	1.803361	-0.480892	-0.000089
H124	H	1.697240	-0.159152	-0.000107
H125	H	1.328968	0.242824	0.630465
H126	H	1.328957	0.242836	0.369429
