data_functionalizedCrystal
_audit_creation_method	'MofGen! by Chris Wilmer'
_symmetry_space_group_name_H-M	'P1'
_symmetry_Int_Tables_number	1
_symmetry_cell_setting	triclinic
loop_
_symmetry_equiv_pos_as_xyz
  x,y,z
_cell_length_a	18.101398
_cell_length_b	19.121063
_cell_length_c	18.101389
_cell_angle_alpha	92.419391
_cell_angle_beta	89.975673
_cell_angle_gamma	92.464489
loop_
_atom_site_label
_atom_site_type_symbol
_atom_site_fract_x
_atom_site_fract_y
_atom_site_fract_z
Zn1	Zn	1.119554	-0.279777	-0.431404
Zn2	Zn	1.369554	-0.029777	-0.181404
Zn3	Zn	1.619554	0.220223	0.068596
Zn4	Zn	1.869554	0.470223	0.318596
Zn5	Zn	1.114175	-0.397213	-0.312837
Zn6	Zn	1.364175	-0.147213	-0.062837
Zn7	Zn	1.614175	0.102787	0.187163
Zn8	Zn	1.864175	0.352787	0.437163
Zn9	Zn	0.995713	-0.279770	-0.307565
Zn10	Zn	1.245713	-0.029770	-0.057565
Zn11	Zn	1.495713	0.220230	0.192435
Zn12	Zn	1.745713	0.470230	0.442435
Zn13	Zn	0.990390	-0.397183	-0.436624
Zn14	Zn	1.240390	-0.147183	-0.186624
Zn15	Zn	1.490390	0.102817	0.063376
Zn16	Zn	1.740390	0.352817	0.313376
O17	O	1.054958	-0.338486	-0.372107
O18	O	1.304958	-0.088486	-0.122107
O19	O	1.554958	0.161514	0.127893
O20	O	1.804958	0.411514	0.377893
O21	O	1.222473	-0.295371	-0.415698
O22	O	1.472473	-0.045371	-0.165698
O23	O	1.722473	0.204629	0.084302
O24	O	1.972473	0.454629	0.334302
O25	O	1.098437	-0.381644	-0.208505
O26	O	1.348437	-0.131644	0.041495
O27	O	1.598437	0.118356	0.291495
O28	O	1.848437	0.368356	0.541495
O29	O	1.016620	-0.181486	-0.319601
O30	O	1.266620	0.068514	-0.069601
O31	O	1.516620	0.318514	0.180399
O32	O	1.766620	0.568514	0.430399
O33	O	1.218521	-0.381651	-0.328587
O34	O	1.468521	-0.131651	-0.078587
O35	O	1.718521	0.118349	0.171413
O36	O	1.968521	0.368349	0.421413
O37	O	1.107605	-0.181491	-0.410586
O38	O	1.357605	0.068509	-0.160586
O39	O	1.607605	0.318509	0.089414
O40	O	1.857605	0.568509	0.339414
O41	O	1.011404	-0.295359	-0.204632
O42	O	1.261404	-0.045359	0.045368
O43	O	1.511404	0.204641	0.295368
O44	O	1.761404	0.454641	0.545368
O45	O	0.891375	-0.295330	-0.324663
O46	O	1.141375	-0.045330	-0.074663
O47	O	1.391375	0.204670	0.175337
O48	O	1.641375	0.454670	0.425337
O49	O	1.007547	-0.381599	-0.539564
O50	O	1.257547	-0.131599	-0.289564
O51	O	1.507547	0.118401	-0.039564
O52	O	1.757547	0.368401	0.210436
O53	O	0.887464	-0.381592	-0.419482
O54	O	1.137464	-0.131592	-0.169482
O55	O	1.387464	0.118408	0.080518
O56	O	1.637464	0.368408	0.330518
O57	O	1.102443	-0.295342	-0.535729
O58	O	1.352443	-0.045342	-0.285729
O59	O	1.602443	0.204658	-0.035729
O60	O	1.852443	0.454658	0.214271
O61	O	1.093276	-0.495494	-0.333648
O62	O	1.343276	-0.245494	-0.083648
O63	O	1.593276	0.004506	0.166352
O64	O	1.843276	0.254506	0.416352
O65	O	1.002331	-0.495472	-0.424594
O66	O	1.252331	-0.245472	-0.174594
O67	O	1.502331	0.004528	0.075406
O68	O	1.752331	0.254528	0.325406
C69	C	0.862549	-0.338457	-0.372067
C70	C	1.112549	-0.088457	-0.122067
C71	C	1.362549	0.161543	0.127933
C72	C	1.612549	0.411543	0.377933
C73	C	0.780234	-0.338462	-0.372069
C74	C	1.030234	-0.088462	-0.122069
C75	C	1.280234	0.161538	0.127931
C76	C	1.530234	0.411538	0.377931
C77	C	0.481141	-0.338506	-0.372133
C78	C	0.731141	-0.088506	-0.122133
C79	C	0.981141	0.161494	0.127867
C80	C	1.231141	0.411494	0.377867
C81	C	0.514915	-0.283961	-0.312742
C82	C	0.764915	-0.033961	-0.062742
C83	C	1.014915	0.216039	0.187258
C84	C	1.264915	0.466039	0.437258
C85	C	0.600526	-0.284107	-0.312506
C86	C	0.850526	-0.034107	-0.062506
C87	C	1.100526	0.215893	0.187494
C88	C	1.350526	0.465893	0.437494
C89	C	0.629525	-0.338484	-0.372101
C90	C	0.879525	-0.088484	-0.122101
C91	C	1.129525	0.161516	0.127899
C92	C	1.379525	0.411516	0.377899
C93	C	0.595084	-0.412466	-0.354099
C94	C	0.845084	-0.162466	-0.104099
C95	C	1.095084	0.087534	0.145901
C96	C	1.345084	0.337534	0.395901
C97	C	0.509452	-0.412163	-0.353690
C98	C	0.759452	-0.162163	-0.103690
C99	C	1.009452	0.087837	0.146310
C100	C	1.259452	0.337837	0.396310
C101	C	0.513600	-0.319712	-0.449688
C102	C	0.763600	-0.069712	-0.199688
C103	C	1.013600	0.180288	0.050312
C104	C	1.263600	0.430288	0.300312
C105	C	0.599325	-0.318065	-0.449186
C106	C	0.849325	-0.068065	-0.199186
C107	C	1.099325	0.181935	0.050814
C108	C	1.349325	0.431935	0.300814
C109	C	0.713385	-0.338476	-0.372084
C110	C	0.963385	-0.088476	-0.122084
C111	C	1.213385	0.161524	0.127916
C112	C	1.463385	0.411524	0.377916
C113	C	0.397281	-0.338519	-0.372148
C114	C	0.647281	-0.088519	-0.122148
C115	C	0.897281	0.161481	0.127852
C116	C	1.147281	0.411481	0.377852
C117	C	1.046662	-0.520967	-0.380276
C118	C	1.296662	-0.270967	-0.130276
C119	C	1.546662	-0.020967	0.119724
C120	C	1.796662	0.229033	0.369724
C121	C	1.043181	-0.599034	-0.383795
C122	C	1.293181	-0.349034	-0.133795
C123	C	1.543181	-0.099034	0.116205
C124	C	1.793181	0.150966	0.366205
C125	C	1.088932	-0.635698	-0.338137
C126	C	1.338932	-0.385698	-0.088137
C127	C	1.588932	-0.135698	0.161863
C128	C	1.838932	0.114302	0.411863
C129	C	1.085662	-0.709049	-0.341451
C130	C	1.335662	-0.459049	-0.091451
C131	C	1.585662	-0.209049	0.158549
C132	C	1.835662	0.040951	0.408549
C133	C	1.036637	-0.745735	-0.390420
C134	C	1.286637	-0.495735	-0.140420
C135	C	1.536637	-0.245735	0.109580
C136	C	1.786637	0.004265	0.359580
C137	C	0.990884	-0.709066	-0.436083
C138	C	1.240884	-0.459066	-0.186083
C139	C	1.490884	-0.209066	0.063917
C140	C	1.740884	0.040934	0.313917
C141	C	0.994158	-0.635716	-0.432772
C142	C	1.244158	-0.385716	-0.182772
C143	C	1.494158	-0.135716	0.067228
C144	C	1.744158	0.114284	0.317228
C145	C	1.024385	-0.967206	-0.402788
C146	C	1.274385	-0.717206	-0.152788
C147	C	1.524385	-0.467206	0.097212
C148	C	1.774385	-0.217206	0.347212
C149	C	1.021113	-1.040562	-0.406094
C150	C	1.271113	-0.790562	-0.156094
C151	C	1.521113	-0.540562	0.093906
C152	C	1.771113	-0.290562	0.343906
C153	C	1.115892	-1.040539	-0.311462
C154	C	1.365892	-0.790539	-0.061462
C155	C	1.615892	-0.540539	0.188538
C156	C	1.865892	-0.290539	0.438538
C157	C	1.119159	-0.967188	-0.308152
C158	C	1.369159	-0.717188	-0.058152
C159	C	1.619159	-0.467188	0.191848
C160	C	1.869159	-0.217188	0.441848
C161	C	1.073408	-0.930525	-0.353818
C162	C	1.323408	-0.680525	-0.103818
C163	C	1.573408	-0.430525	0.146182
C164	C	1.823408	-0.180525	0.396182
C165	C	1.033292	-0.820713	-0.393807
C166	C	1.283292	-0.570713	-0.143807
C167	C	1.533292	-0.320713	0.106193
C168	C	1.783292	-0.070713	0.356193
C169	C	1.076758	-0.855549	-0.350434
C170	C	1.326758	-0.605549	-0.100434
C171	C	1.576758	-0.355549	0.149566
C172	C	1.826758	-0.105549	0.399566
C173	C	1.248119	-0.338515	-0.372148
C174	C	1.498119	-0.088515	-0.122148
C175	C	1.748119	0.161485	0.127852
C176	C	1.998119	0.411485	0.377852
C177	C	1.330432	-0.338528	-0.372165
C178	C	1.580432	-0.088528	-0.122165
C179	C	1.830432	0.161472	0.127835
C180	C	2.080432	0.411472	0.377835
C181	C	1.055002	-0.338468	-0.565269
C182	C	1.305002	-0.088468	-0.315269
C183	C	1.555002	0.161532	-0.065269
C184	C	1.805002	0.411532	0.184731
C185	C	1.055020	-0.338461	-0.647582
C186	C	1.305020	-0.088461	-0.397582
C187	C	1.555020	0.161539	-0.147582
C188	C	1.805020	0.411539	0.102418
C189	C	1.063306	-0.155292	-0.363923
C190	C	1.313306	0.094708	-0.113923
C191	C	1.563306	0.344708	0.136077
C192	C	1.813306	0.594708	0.386077
C193	C	1.066864	-0.077226	-0.360436
C194	C	1.316864	0.172774	-0.110436
C195	C	1.566864	0.422774	0.139564
C196	C	1.816864	0.672774	0.389564
C197	C	1.055069	-0.338329	-0.946668
C198	C	1.305069	-0.088329	-0.696668
C199	C	1.555069	0.161671	-0.446668
C200	C	1.805069	0.411671	-0.196668
C201	C	0.995174	-0.392427	-0.917747
C202	C	1.245174	-0.142427	-0.667747
C203	C	1.495174	0.107573	-0.417747
C204	C	1.745174	0.357573	-0.167747
C205	C	0.995318	-0.392678	-0.832140
C206	C	1.245318	-0.142678	-0.582140
C207	C	1.495318	0.107322	-0.332140
C208	C	1.745318	0.357322	-0.082140
C209	C	1.055044	-0.338394	-0.798288
C210	C	1.305044	-0.088394	-0.548288
C211	C	1.555044	0.161606	-0.298288
C212	C	1.805044	0.411606	-0.048288
C213	C	1.132167	-0.358491	-0.830296
C214	C	1.382167	-0.108491	-0.580296
C215	C	1.632167	0.141509	-0.330296
C216	C	1.882167	0.391509	-0.080296
C217	C	1.131831	-0.358846	-0.915957
C218	C	1.381831	-0.108846	-0.665957
C219	C	1.631831	0.141154	-0.415957
C220	C	1.881831	0.391154	-0.165957
C221	C	1.038526	-0.264013	-0.911754
C222	C	1.288526	-0.014013	-0.661754
C223	C	1.538526	0.235987	-0.411754
C224	C	1.788526	0.485987	-0.161754
C225	C	1.036771	-0.264443	-0.826122
C226	C	1.286771	-0.014443	-0.576122
C227	C	1.536771	0.235557	-0.326122
C228	C	1.786771	0.485557	-0.076122
C229	C	1.055035	-0.338430	-0.714430
C230	C	1.305035	-0.088430	-0.464430
C231	C	1.555035	0.161570	-0.214430
C232	C	1.805035	0.411570	0.035570
C233	C	1.055084	-0.338295	-1.030526
C234	C	1.305084	-0.088295	-0.780526
C235	C	1.555084	0.161705	-0.530526
C236	C	1.805084	0.411705	-0.280526
C237	C	1.054959	-0.338453	-0.179695
C238	C	1.304959	-0.088453	0.070305
C239	C	1.554959	0.161547	0.320305
C240	C	1.804959	0.411547	0.570305
C241	C	1.055093	-0.338263	-0.097373
C242	C	1.305093	-0.088263	0.152627
C243	C	1.555093	0.161737	0.402627
C244	C	1.805093	0.411737	0.652627
H245	H	0.624031	-0.229245	-0.323408
H246	H	0.874031	0.020755	-0.073408
H247	H	1.124031	0.270755	0.176592
H248	H	1.374031	0.520755	0.426592
H249	H	1.005969	-0.447763	-0.814132
H250	H	1.255969	-0.197763	-0.564132
H251	H	1.505969	0.052237	-0.314132
H252	H	1.755969	0.302237	-0.064132
C253	C	1.193927	-0.307943	-0.941694
C254	C	1.443927	-0.057943	-0.691694
C255	C	1.693927	0.192057	-0.441694
C256	C	1.943927	0.442057	-0.191694
H257	H	1.219251	-0.287142	-0.899799
H258	H	1.469251	-0.037142	-0.649799
H259	H	1.719251	0.212858	-0.399799
H260	H	1.969251	0.462858	-0.149799
H261	H	1.173168	-0.272411	-0.969251
H262	H	1.423168	-0.022411	-0.719251
H263	H	1.673168	0.227589	-0.469251
H264	H	1.923168	0.477589	-0.219251
H265	H	1.227685	-0.332882	-0.971899
H266	H	1.477685	-0.082882	-0.721899
H267	H	1.727685	0.167118	-0.471899
H268	H	1.977685	0.417118	-0.221899
H269	H	1.116677	-0.825677	-0.310566
H270	H	1.366677	-0.575677	-0.060566
H271	H	1.616677	-0.325677	0.189434
H272	H	1.866677	-0.075677	0.439434
C273	C	0.490446	-0.209623	-0.327241
C274	C	0.740446	0.040377	-0.077241
C275	C	0.990446	0.290377	0.172759
C276	C	1.240446	0.540377	0.422759
H277	H	0.459411	-0.211183	-0.369643
H278	H	0.709411	0.038817	-0.119643
H279	H	0.959411	0.288817	0.130357
H280	H	1.209411	0.538817	0.380357
H281	H	0.532766	-0.179850	-0.335423
H282	H	0.782766	0.070150	-0.085423
H283	H	1.032766	0.320150	0.164577
H284	H	1.282766	0.570150	0.414577
H285	H	0.464042	-0.191979	-0.285600
H286	H	0.714042	0.058021	-0.035600
H287	H	0.964042	0.308021	0.214400
H288	H	1.214042	0.558021	0.464400
H289	H	0.613574	-0.454195	-0.396148
H290	H	0.863574	-0.204195	-0.146148
H291	H	1.113574	0.045805	0.103852
H292	H	1.363574	0.295805	0.353852
H293	H	0.937700	-0.379979	-0.937774
H294	H	1.187700	-0.129979	-0.687774
H295	H	1.437700	0.120021	-0.437774
H296	H	1.687700	0.370021	-0.187774
C297	C	1.091765	-0.207100	-0.794668
C298	C	1.341765	0.042900	-0.544668
C299	C	1.591765	0.292900	-0.294668
C300	C	1.841765	0.542900	-0.044668
H301	H	1.126750	-0.227601	-0.764016
H302	H	1.376750	0.022399	-0.514016
H303	H	1.626750	0.272399	-0.264016
H304	H	1.876750	0.522399	-0.014016
H305	H	1.065714	-0.173211	-0.766388
H306	H	1.315714	0.076789	-0.516388
H307	H	1.565714	0.326789	-0.266388
H308	H	1.815714	0.576789	-0.016388
H309	H	1.116777	-0.185118	-0.834202
H310	H	1.366777	0.064882	-0.584202
H311	H	1.616777	0.314882	-0.334202
H312	H	1.866777	0.564882	-0.084202
C313	C	0.487680	-0.248104	-0.472669
C314	C	0.737680	0.001896	-0.222669
C315	C	0.987680	0.251896	0.027331
C316	C	1.237680	0.501896	0.277331
H317	H	0.507884	-0.237762	-0.519611
H318	H	0.757884	0.012238	-0.269611
H319	H	1.007884	0.262238	-0.019611
H320	H	1.257884	0.512238	0.230389
H321	H	0.503931	-0.212853	-0.437078
H322	H	0.753931	0.037147	-0.187078
H323	H	1.003931	0.287147	0.062922
H324	H	1.253931	0.537147	0.312922
H325	H	0.435229	-0.249524	-0.475503
H326	H	0.685229	0.000476	-0.225503
H327	H	0.935229	0.250476	0.024497
H328	H	1.185229	0.500476	0.274497
H329	H	0.983441	-0.245705	-0.932518
H330	H	1.233441	0.004295	-0.682518
H331	H	1.483441	0.254295	-0.432518
H332	H	1.733441	0.504295	-0.182518
H333	H	0.956904	-0.605865	-0.469953
H334	H	1.206904	-0.355865	-0.219953
H335	H	1.456904	-0.105865	0.030047
H336	H	1.706904	0.144135	0.280047
H337	H	0.622115	-0.263622	-0.462821
H338	H	0.872115	-0.013622	-0.212821
H339	H	1.122115	0.236378	0.037179
H340	H	1.372115	0.486378	0.287179
H341	H	1.128850	-0.605832	-0.298258
H342	H	1.378850	-0.355832	-0.048258
H343	H	1.628850	-0.105832	0.201742
H344	H	1.878850	0.144168	0.451742
H345	H	0.993375	-0.850591	-0.433677
H346	H	1.243375	-0.600591	-0.183677
H347	H	1.493375	-0.350591	0.066323
H348	H	1.743375	-0.100591	0.316323
C349	C	0.917923	-0.375680	-0.802960
C350	C	1.167923	-0.125680	-0.552960
C351	C	1.417923	0.124320	-0.302960
C352	C	1.667923	0.374320	-0.052960
H353	H	0.886109	-0.368562	-0.843439
H354	H	1.136109	-0.118562	-0.593439
H355	H	1.386109	0.131438	-0.343439
H356	H	1.636109	0.381438	-0.093439
H357	H	0.921366	-0.334397	-0.771850
H358	H	1.171366	-0.084397	-0.521850
H359	H	1.421366	0.165603	-0.271850
H360	H	1.671366	0.415603	-0.021850
H361	H	0.898539	-0.413603	-0.775599
H362	H	1.148539	-0.163603	-0.525599
H363	H	1.398539	0.086397	-0.275599
H364	H	1.648539	0.336397	-0.025599
C365	C	1.166218	-1.080870	-0.261240
C366	C	1.416218	-0.830870	-0.011240
C367	C	1.666218	-0.580870	0.238760
C368	C	1.916218	-0.330870	0.488760
H369	H	1.157253	-1.129809	-0.270228
H370	H	1.407253	-0.879809	-0.020228
H371	H	1.657253	-0.629809	0.229772
H372	H	1.907253	-0.379809	0.479772
H373	H	1.155947	-1.068881	-0.210930
H374	H	1.405947	-0.818881	0.039070
H375	H	1.655947	-0.568881	0.289070
H376	H	1.905947	-0.318881	0.539070
H377	H	1.216510	-1.068807	-0.271592
H378	H	1.466510	-0.818807	-0.021592
H379	H	1.716510	-0.568807	0.228408
H380	H	1.966510	-0.318807	0.478408
C381	C	1.097503	-0.209560	-0.936709
C382	C	1.347503	0.040440	-0.686709
C383	C	1.597503	0.290440	-0.436709
C384	C	1.847503	0.540440	-0.186709
H385	H	1.132045	-0.231968	-0.968250
H386	H	1.382045	0.018032	-0.718250
H387	H	1.632045	0.268032	-0.468250
H388	H	1.882045	0.518032	-0.218250
H389	H	1.122513	-0.188816	-0.894608
H390	H	1.372513	0.061184	-0.644608
H391	H	1.622513	0.311184	-0.394608
H392	H	1.872513	0.561184	-0.144608
H393	H	1.074334	-0.174310	-0.962684
H394	H	1.324334	0.075690	-0.712684
H395	H	1.574334	0.325690	-0.462684
H396	H	1.824334	0.575690	-0.212684
C397	C	0.936956	-0.749419	-0.489946
C398	C	1.186956	-0.499419	-0.239946
C399	C	1.436956	-0.249419	0.010054
C400	C	1.686956	0.000581	0.260054
H401	H	0.941552	-0.798356	-0.485374
H402	H	1.191552	-0.548356	-0.235374
H403	H	1.441552	-0.298356	0.014626
H404	H	1.691552	-0.048356	0.264626
H405	H	0.948300	-0.737368	-0.539173
H406	H	1.198300	-0.487368	-0.289173
H407	H	1.448300	-0.237368	-0.039173
H408	H	1.698300	0.012632	0.210827
H409	H	0.887738	-0.737436	-0.478510
H410	H	1.137738	-0.487436	-0.228510
H411	H	1.387738	-0.237436	0.021490
H412	H	1.637738	0.012564	0.271490
C413	C	0.625990	-0.367831	-0.511806
C414	C	0.875990	-0.117831	-0.261806
C415	C	1.125990	0.132169	-0.011806
C416	C	1.375990	0.382169	0.238194
H417	H	0.656021	-0.401868	-0.491667
H418	H	0.906021	-0.151868	-0.241667
H419	H	1.156021	0.098132	0.008333
H420	H	1.406021	0.348132	0.258333
H421	H	0.653940	-0.341714	-0.546421
H422	H	0.903940	-0.091714	-0.296421
H423	H	1.153940	0.158286	-0.046421
H424	H	1.403940	0.408286	0.203579
H425	H	0.584451	-0.390632	-0.535953
H426	H	0.834451	-0.140632	-0.285953
H427	H	1.084451	0.109368	-0.035953
H428	H	1.334451	0.359368	0.214047
C429	C	1.009396	-0.466387	-0.950154
C430	C	1.259396	-0.216387	-0.700154
C431	C	1.509396	0.033613	-0.450154
C432	C	1.759396	0.283613	-0.200154
H433	H	1.051680	-0.464441	-0.981228
H434	H	1.301680	-0.214441	-0.731228
H435	H	1.551680	0.035559	-0.481228
H436	H	1.801680	0.285559	-0.231228
H437	H	0.967613	-0.483605	-0.978167
H438	H	1.217613	-0.233605	-0.728167
H439	H	1.467613	0.016395	-0.478167
H440	H	1.717613	0.266395	-0.228167
H441	H	1.017683	-0.496741	-0.911056
H442	H	1.267683	-0.246741	-0.661056
H443	H	1.517683	0.003259	-0.411056
H444	H	1.767683	0.253259	-0.161056
C445	C	0.623018	-0.434373	-0.278491
C446	C	0.873018	-0.184373	-0.028491
C447	C	1.123018	0.065627	0.221509
C448	C	1.373018	0.315627	0.471509
H449	H	0.655656	-0.398538	-0.257797
H450	H	0.905656	-0.148538	-0.007797
H451	H	1.155656	0.101462	0.242203
H452	H	1.405656	0.351462	0.492203
H453	H	0.648464	-0.476641	-0.284724
H454	H	0.898464	-0.226641	-0.034724
H455	H	1.148464	0.023359	0.215276
H456	H	1.398464	0.273359	0.465276
H457	H	0.582161	-0.441440	-0.246298
H458	H	0.832161	-0.191440	0.003702
H459	H	1.082161	0.058560	0.253702
H460	H	1.332161	0.308560	0.503702
H461	H	0.491559	-0.359441	-0.493899
H462	H	0.741559	-0.109441	-0.243899
H463	H	0.991559	0.140559	0.006101
H464	H	1.241559	0.390559	0.256101
H465	H	1.122917	-0.738898	-0.304271
H466	H	1.372917	-0.488898	-0.054271
H467	H	1.622917	-0.238898	0.195729
H468	H	1.872917	0.011102	0.445729
C469	C	1.151295	-0.432235	-0.946253
C470	C	1.401295	-0.182235	-0.696253
C471	C	1.651295	0.067765	-0.446253
C472	C	1.901295	0.317765	-0.196253
H473	H	1.159329	-0.461552	-0.906196
H474	H	1.409329	-0.211552	-0.656196
H475	H	1.659329	0.038448	-0.406196
H476	H	1.909329	0.288448	-0.156196
H477	H	1.194884	-0.428672	-0.975335
H478	H	1.444884	-0.178672	-0.725335
H479	H	1.694884	0.071328	-0.475335
H480	H	1.944884	0.321328	-0.225335
H481	H	1.111667	-0.451764	-0.975908
H482	H	1.361667	-0.201764	-0.725908
H483	H	1.611667	0.048236	-0.475908
H484	H	1.861667	0.298236	-0.225908
H485	H	1.159079	-0.937319	-0.268278
H486	H	1.409079	-0.687319	-0.018278
H487	H	1.659079	-0.437319	0.231722
H488	H	1.909079	-0.187319	0.481722
H489	H	0.486843	-0.454179	-0.395241
H490	H	0.736843	-0.204179	-0.145241
H491	H	0.986843	0.045821	0.104759
H492	H	1.236843	0.295821	0.354759
C493	C	0.967189	-1.080916	-0.459968
C494	C	1.217189	-0.830916	-0.209968
C495	C	1.467189	-0.580916	0.040032
C496	C	1.717189	-0.330916	0.290032
H497	H	0.940416	-1.048576	-0.486697
H498	H	1.190416	-0.798576	-0.236697
H499	H	1.440416	-0.548576	0.013303
H500	H	1.690416	-0.298576	0.263303
H501	H	0.933658	-1.109567	-0.432903
H502	H	1.183658	-0.859567	-0.182903
H503	H	1.433658	-0.609567	0.067097
H504	H	1.683658	-0.359567	0.317097
H505	H	0.994235	-1.109493	-0.493551
H506	H	1.244235	-0.859493	-0.243551
H507	H	1.494235	-0.609493	0.006449
H508	H	1.744235	-0.359493	0.256449
H509	H	1.177847	-0.320327	-0.808236
H510	H	1.427847	-0.070327	-0.558236
H511	H	1.677847	0.179673	-0.308236
H512	H	1.927847	0.429673	-0.058236
C513	C	0.974049	-0.926887	-0.453005
C514	C	1.224049	-0.676887	-0.203005
C515	C	1.474049	-0.426887	0.046995
C516	C	1.724049	-0.176887	0.296995
H517	H	0.944376	-0.959243	-0.482634
H518	H	1.194376	-0.709243	-0.232634
H519	H	1.444376	-0.459243	0.017366
H520	H	1.694376	-0.209243	0.267366
H521	H	1.003627	-0.898233	-0.484013
H522	H	1.253627	-0.648233	-0.234013
H523	H	1.503627	-0.398233	0.015987
H524	H	1.753627	-0.148233	0.265987
H525	H	0.943072	-0.898314	-0.423343
H526	H	1.193072	-0.648314	-0.173343
H527	H	1.443072	-0.398314	0.076657
H528	H	1.693072	-0.148314	0.326657
C529	C	1.152068	-0.431103	-0.804601
C530	C	1.402068	-0.181103	-0.554601
C531	C	1.652068	0.068897	-0.304601
C532	C	1.902068	0.318897	-0.054601
H533	H	1.113483	-0.449268	-0.774380
H534	H	1.363483	-0.199268	-0.524380
H535	H	1.613483	0.050732	-0.274380
H536	H	1.863483	0.300732	-0.024380
H537	H	1.196820	-0.426930	-0.777070
H538	H	1.446820	-0.176930	-0.527070
H539	H	1.696820	0.073070	-0.277070
H540	H	1.946820	0.323070	-0.027070
H541	H	1.158162	-0.461914	-0.846509
H542	H	1.408162	-0.211914	-0.596509
H543	H	1.658162	0.038086	-0.346509
H544	H	1.908162	0.288086	-0.096509
H545	H	0.980032	-0.249287	-0.805110
H546	H	1.230032	0.000713	-0.555110
H547	H	1.480032	0.250713	-0.305110
H548	H	1.730032	0.500713	-0.055110
H549	H	0.620422	-0.296530	-0.254971
H550	H	0.870422	-0.046530	-0.004971
H551	H	1.120422	0.203470	0.245029
H552	H	1.370422	0.453470	0.495029
C553	C	0.485057	-0.300541	-0.235464
C554	C	0.735057	-0.050541	0.014536
C555	C	0.985057	0.199459	0.264536
C556	C	1.235057	0.449459	0.514536
H557	H	0.505735	-0.267338	-0.199912
H558	H	0.755735	-0.017338	0.050088
H559	H	1.005735	0.232662	0.300088
H560	H	1.255735	0.482662	0.550088
H561	H	0.498274	-0.346267	-0.223526
H562	H	0.748274	-0.096267	0.026474
H563	H	0.998274	0.153733	0.276474
H564	H	1.248274	0.403733	0.526474
H565	H	0.432736	-0.298234	-0.235276
H566	H	0.682736	-0.048234	0.014724
H567	H	0.932736	0.201766	0.264724
H568	H	1.182736	0.451766	0.514724
C569	C	0.481447	-0.433688	-0.277231
C570	C	0.731447	-0.183688	-0.027231
C571	C	0.981447	0.066312	0.222769
C572	C	1.231447	0.316312	0.472769
H573	H	0.522408	-0.442532	-0.246711
H574	H	0.772408	-0.192532	0.003289
H575	H	1.022408	0.057468	0.253289
H576	H	1.272408	0.307468	0.503289
H577	H	0.450356	-0.474879	-0.282759
H578	H	0.700356	-0.224879	-0.032759
H579	H	0.950356	0.025121	0.217241
H580	H	1.200356	0.275121	0.467241
H581	H	0.454311	-0.396921	-0.255044
H582	H	0.704311	-0.146921	-0.005044
H583	H	0.954311	0.103079	0.244956
H584	H	1.204311	0.353079	0.494956
