data_functionalizedCrystal
_audit_creation_method	'MofGen! by Chris Wilmer'
_symmetry_space_group_name_H-M	'P1'
_symmetry_Int_Tables_number	1
_symmetry_cell_setting	triclinic
loop_
_symmetry_equiv_pos_as_xyz
  x,y,z
_cell_length_a	13.635800
_cell_length_b	27.923497
_cell_length_c	19.453114
_cell_angle_alpha	82.979084
_cell_angle_beta	101.709288
_cell_angle_gamma	81.035752
loop_
_atom_site_label
_atom_site_type_symbol
_atom_site_fract_x
_atom_site_fract_y
_atom_site_fract_z
V1	V	1.992271	-0.067634	0.219465
O2	O	1.997821	0.002730	0.214811
O3	O	1.957218	-0.133606	0.218422
O4	O	1.963862	-0.066821	0.314973
O5	O	1.991131	-0.064517	0.117592
V6	V	2.236036	-0.059190	0.207225
O7	O	2.118504	-0.086155	0.246315
O8	O	2.334902	-0.040669	0.180374
O9	O	2.159486	0.006782	0.208268
O10	O	2.289185	-0.129554	0.211879
O11	O	2.295875	-0.062307	0.309097
O12	O	2.152842	-0.060003	0.111717
V13	V	2.492271	-0.067634	0.219465
O14	O	2.497821	0.002730	0.214811
O15	O	2.457218	-0.133606	0.218422
O16	O	2.463862	-0.066821	0.314973
O17	O	2.491131	-0.064517	0.117592
V18	V	2.736036	-0.059190	0.207225
O19	O	2.618504	-0.086155	0.246315
O20	O	2.834902	-0.040669	0.180374
O21	O	2.659486	0.006782	0.208268
O22	O	2.789185	-0.129554	0.211879
O23	O	2.795875	-0.062307	0.309097
O24	O	2.652842	-0.060003	0.111717
C25	C	1.877215	-0.149682	0.215078
C26	C	1.889170	-0.203617	0.214862
C27	C	1.947359	-0.530988	0.149074
C28	C	1.992328	-0.733693	0.148223
O29	O	1.984551	-0.753887	0.093370
N30	N	2.013979	-0.766115	0.212489
C31	C	2.024395	-0.747859	0.276973
O32	O	2.043852	-0.780087	0.331616
C33	C	1.979433	-0.545154	0.277823
C34	C	1.957772	-0.512734	0.213552
C35	C	1.925700	-0.498568	0.084808
C36	C	1.914453	-0.447895	0.085021
C37	C	1.924866	-0.429641	0.149500
C38	C	1.946525	-0.462061	0.213765
C39	C	1.989856	-0.526899	0.342306
C40	C	1.978616	-0.476219	0.342513
C41	C	1.956954	-0.443799	0.278242
C42	C	1.945690	-0.393134	0.278457
N43	N	1.924039	-0.360711	0.214191
C44	C	1.913627	-0.378965	0.149712
C45	C	2.047997	-0.854281	0.276522
C46	C	2.059236	-0.904957	0.276309
C47	C	2.027170	-0.890788	0.147559
C48	C	2.015924	-0.840111	0.147772
C49	C	2.026346	-0.821859	0.212256
C50	C	1.890008	-0.272548	0.150165
C51	C	1.878758	-0.221870	0.150383
C52	C	1.910830	-0.236044	0.279133
C53	C	1.922074	-0.286717	0.278915
C54	C	1.911665	-0.304967	0.214425
O55	O	1.953464	-0.372906	0.333282
O56	O	1.894192	-0.346729	0.095078
C57	C	1.958606	-0.581661	0.148860
C58	C	1.980265	-0.614081	0.213126
C59	C	1.990677	-0.595827	0.277605
C60	C	1.991504	-0.664757	0.212914
C61	C	1.981091	-0.683010	0.148435
C62	C	1.959441	-0.650588	0.084169
C63	C	1.948194	-0.599915	0.084382
C64	C	2.012328	-0.628249	0.341871
C65	C	2.023573	-0.678922	0.341652
C66	C	2.013160	-0.697176	0.277174
C67	C	1.885689	-0.064491	0.338237
C68	C	1.903032	-0.064263	0.416318
C69	C	2.071160	0.022855	0.211610
C70	C	2.048823	0.076790	0.211831
C71	C	2.062686	-0.062335	0.088449
C72	C	2.034963	-0.062560	0.010368
C73	C	2.377215	-0.149682	0.215078
C74	C	2.389170	-0.203617	0.214862
C75	C	2.385689	-0.064491	0.338237
C76	C	2.403032	-0.064263	0.416318
C77	C	2.001670	-0.066591	0.456591
C78	C	2.017965	-0.066378	0.529956
C79	C	1.935619	-0.063845	0.563048
C80	C	1.836967	-0.061514	0.522764
C81	C	1.820673	-0.061723	0.449399
N82	N	1.901533	-0.089468	0.682013
N83	N	1.917018	-0.089270	0.751708
C84	C	1.984706	-0.063214	0.784092
N85	N	2.036342	-0.037370	0.744151
N86	N	2.020859	-0.037569	0.674451
C87	C	1.953277	-0.063618	0.642599
C88	C	2.101020	-0.065311	0.903916
C89	C	2.117311	-0.065094	0.977282
C90	C	1.936311	-0.060234	0.970090
C91	C	1.920021	-0.060447	0.896724
C92	C	2.002380	-0.062987	0.863642
C93	C	2.571160	0.022855	0.211610
C94	C	2.548823	0.076790	0.211831
C95	C	2.562686	-0.062335	0.088449
C96	C	2.534963	-0.062560	0.010368
C97	C	2.485282	-0.231427	0.218287
C98	C	2.496532	-0.282106	0.218094
C99	C	2.411668	-0.304974	0.214472
C100	C	2.315549	-0.277160	0.211049
C101	C	2.304301	-0.226482	0.211246
C102	C	2.501677	-0.066583	0.456582
C103	C	2.517984	-0.066363	0.529946
C104	C	2.435646	-0.063826	0.563046
C105	C	2.336993	-0.061504	0.522775
C106	C	2.320686	-0.061721	0.449412
C107	C	2.625205	0.104600	0.208408
C108	C	2.604226	0.155279	0.208603
C109	C	2.506867	0.178146	0.212227
C110	C	2.430480	0.150332	0.215649
C111	C	2.451457	0.099655	0.215448
C112	C	2.435071	-0.065092	-0.022713
C113	C	2.409006	-0.065298	-0.096080
C114	C	2.482836	-0.062975	-0.136364
C115	C	2.582736	-0.060442	-0.103278
C116	C	2.608798	-0.060233	-0.029913
H117	H	1.861115	-0.195475	0.098044
H118	H	1.769921	-0.059450	0.549712
H119	H	2.327658	-0.067360	-0.123007
F120	F	2.356478	-0.067564	0.020147
H121	H	2.098291	-0.068276	0.562754
H122	H	1.881531	-0.287400	0.097651
F123	F	2.089324	-0.069293	0.421387
H124	H	1.740348	-0.059823	0.416608
H125	H	2.007494	-0.553288	0.394643
H126	H	2.240357	-0.059832	0.416634
F127	F	2.715122	-0.057544	0.005287
F128	F	2.326864	0.174677	0.219501
H129	H	2.666438	0.177917	0.205818
F130	F	2.484556	0.232082	0.212440
F131	F	2.728831	0.080272	0.204551
F132	F	2.188670	-0.068011	0.868704
F133	F	2.661304	-0.057974	-0.146160
H134	H	2.389255	0.077015	0.218241
H135	H	2.197634	-0.066986	1.010071
H136	H	2.226034	-0.203842	0.208454
H137	H	1.869262	-0.058168	0.997031
H138	H	2.574804	-0.304745	0.220880
H139	H	2.246457	-0.295786	0.208100
F140	F	2.455084	-0.063200	-0.214445
F141	F	1.891407	-0.413396	0.016615
H142	H	1.839702	-0.058556	0.863934
H143	H	1.917222	-0.513424	0.032299
F144	F	2.589323	-0.069284	0.421369
H145	H	2.598320	-0.068256	0.562725
H146	H	1.998285	-0.813717	0.095437
F147	F	2.575617	-0.207100	0.222147
F148	F	2.016089	-0.910223	0.078936
H149	H	2.076857	-0.931349	0.328644
H150	H	2.056483	-0.839426	0.329035
H151	H	2.448939	-0.063650	0.622784
H152	H	2.420841	-0.346239	0.214312
H153	H	2.269958	-0.059439	0.549736
H154	H	1.987115	-0.461362	0.395025
F155	F	1.921901	-0.216608	0.347752
F156	F	1.945164	-0.321223	0.347320
H157	H	1.950958	-0.665459	0.031668
F158	F	2.046603	-0.713421	0.410062
F159	F	2.023412	-0.608830	0.410502
F160	F	1.925141	-0.565416	0.015975
