data_functionalizedCrystal
_audit_creation_method	'MofGen! by Chris Wilmer'
_symmetry_space_group_name_H-M	'P1'
_symmetry_Int_Tables_number	1
_symmetry_cell_setting	triclinic
loop_
_symmetry_equiv_pos_as_xyz
  x,y,z
_cell_length_a	23.532355
_cell_length_b	23.532407
_cell_length_c	9.730223
_cell_angle_alpha	89.990210
_cell_angle_beta	89.996342
_cell_angle_gamma	97.161891
loop_
_atom_site_label
_atom_site_type_symbol
_atom_site_fract_x
_atom_site_fract_y
_atom_site_fract_z
O1	O	-0.755276	0.068991	-0.114191
O2	O	-0.589408	0.079026	-0.114224
O3	O	-0.677343	-0.008924	-0.114168
O4	O	-0.667340	0.156941	-0.114247
O5	O	-0.677342	-0.008922	0.114412
O6	O	-0.589407	0.079028	0.114356
O7	O	-0.755274	0.068994	0.114389
Zn8	Zn	-0.672341	0.074011	0.150664
Zn9	Zn	-0.672342	0.074008	-0.150500
O10	O	-0.667339	0.156943	0.114333
C11	C	-0.568191	0.078776	0.000062
C12	C	-0.504972	0.078022	0.000051
C13	C	-0.231728	0.074723	-0.124533
C14	C	-0.291128	0.075436	-0.124538
O15	O	-0.321855	0.075785	-0.230503
N16	N	-0.320833	0.075798	0.000061
C17	C	-0.291136	0.075440	0.124672
O18	O	-0.321857	0.075813	0.230653
C19	C	-0.231738	0.074722	0.124676
C20	C	-0.202035	0.074366	0.000069
C21	C	-0.202025	0.074366	-0.249130
C22	C	-0.142629	0.073653	-0.249125
C23	C	-0.112936	0.073297	-0.124523
C24	C	-0.142639	0.073654	0.000074
C25	C	-0.202043	0.074360	0.249286
C26	C	-0.142640	0.073642	0.249279
C27	C	-0.112938	0.073286	0.124672
C28	C	-0.053550	0.072585	0.124682
N29	N	-0.023845	0.072223	0.000083
C30	C	-0.053538	0.072579	-0.124519
C31	C	-0.415877	0.076947	0.124656
C32	C	-0.475273	0.077669	0.124654
C33	C	-0.475261	0.077664	-0.124557
C34	C	-0.415863	0.076946	-0.124554
C35	C	-0.386172	0.076585	0.000057
C36	C	0.071198	0.071083	-0.124499
C37	C	0.130599	0.070373	-0.124482
C38	C	0.130582	0.070375	0.124728
C39	C	0.071186	0.071088	0.124712
C40	C	0.041495	0.071440	0.000088
O41	O	-0.022786	0.072234	0.230592
O42	O	-0.022811	0.072199	-0.230482
C43	C	-0.677088	-0.030139	0.000129
C44	C	-0.676322	-0.093356	0.000149
C45	C	-0.621125	-0.359513	0.000053
C46	C	-0.621837	-0.300113	0.000063
O47	O	-0.578050	-0.263360	0.000011
N48	N	-0.674115	-0.277496	0.000090
C49	C	-0.725684	-0.314284	0.000091
O50	O	-0.770216	-0.289592	0.000113
C51	C	-0.724972	-0.373683	0.000071
C52	C	-0.672691	-0.396295	0.000058
C53	C	-0.568849	-0.382127	0.000039
C54	C	-0.568137	-0.441523	0.000030
C55	C	-0.619703	-0.478305	0.000036
C56	C	-0.671980	-0.455691	0.000050
C57	C	-0.776541	-0.410469	0.000063
C58	C	-0.775824	-0.469871	0.000041
C59	C	-0.723543	-0.492484	0.000029
C60	C	-0.722834	-0.551870	0.000048
N61	N	-0.670556	-0.574486	0.000021
C62	C	-0.618991	-0.537704	0.000016
C63	C	-0.727175	-0.189541	0.000132
C64	C	-0.727888	-0.130144	0.000162
C65	C	-0.624041	-0.115977	0.000132
C66	C	-0.623329	-0.175376	0.000111
C67	C	-0.674898	-0.212158	0.000106
C68	C	-0.617501	-0.662440	-0.000000
C69	C	-0.616795	-0.721842	-0.000003
C70	C	-0.720642	-0.736004	0.000021
C71	C	-0.721349	-0.676607	0.000030
C72	C	-0.669774	-0.639826	0.000015
O73	O	-0.766598	-0.588657	0.000095
O74	O	-0.574467	-0.562404	-0.000024
C75	C	0.223509	0.069248	0.000104
C76	C	0.160292	0.070017	0.000120
C77	C	-0.667594	0.178158	0.000033
C78	C	-0.668360	0.241375	0.000003
N79	N	-0.672344	0.074013	0.356201
N80	N	-0.672343	0.074002	-0.356036
C81	C	-0.711291	0.035082	0.428152
C82	C	-0.711290	0.035075	0.572035
C83	C	-0.633391	0.112935	0.572003
C84	C	-0.633391	0.112939	0.428123
C85	C	-0.750245	-0.003845	0.356230
C86	C	-0.789196	-0.042778	0.428181
C87	C	-0.789194	-0.042785	0.572064
C88	C	-0.750242	-0.003858	0.643996
H89	H	0.154781	0.070085	-0.225956
H90	H	-0.601678	0.144628	0.630579
H91	H	-0.770460	-0.111738	0.000194
H92	H	-0.750240	-0.003871	0.761155
H93	H	0.047002	0.071389	0.226177
Cl94	Cl	0.167921	0.069928	0.281362
Cl95	Cl	-0.378529	0.076497	-0.281208
H96	H	-0.118468	0.073353	0.350754
H97	H	-0.499451	0.077968	0.226121
H98	H	-0.391705	0.076660	0.226135
H99	H	-0.226217	0.074648	0.350755
H100	H	-0.820906	-0.074490	0.630645
Cl101	Cl	-0.551065	-0.750266	-0.000016
H102	H	-0.769172	-0.219487	0.000137
H103	H	-0.820907	-0.074475	0.369606
Cl104	Cl	-0.840659	-0.516108	0.000029
H105	H	-0.601675	0.144640	0.369540
Cl106	Cl	-0.552663	-0.616211	-0.000015
H107	H	-0.525565	-0.459928	0.000008
Cl108	Cl	-0.750250	-0.003836	0.175349
Cl109	Cl	-0.512601	0.078112	-0.281201
Cl110	Cl	-0.504014	-0.335895	0.000029
H111	H	-0.580757	-0.193783	0.000107
H112	H	0.047031	0.071371	-0.225980
H113	H	-0.582053	-0.086017	0.000128
Cl114	Cl	-0.842270	-0.382056	0.000045
Cl115	Cl	-0.787074	-0.648179	0.000096
Cl116	Cl	-0.785463	-0.782255	0.000037
Cl117	Cl	-0.239343	0.074813	-0.405795
Cl118	Cl	-0.105298	0.073200	-0.405782
