data_functionalizedCrystal
_audit_creation_method	'MofGen! by Chris Wilmer'
_symmetry_space_group_name_H-M	'P1'
_symmetry_Int_Tables_number	1
_symmetry_cell_setting	triclinic
loop_
_symmetry_equiv_pos_as_xyz
  x,y,z
_cell_length_a	19.121063
_cell_length_b	17.077404
_cell_length_c	19.121278
_cell_angle_alpha	87.576072
_cell_angle_beta	89.864274
_cell_angle_gamma	87.533933
loop_
_atom_site_label
_atom_site_type_symbol
_atom_site_fract_x
_atom_site_fract_y
_atom_site_fract_z
Zn1	Zn	-0.262257	-1.168041	-0.408297
Zn2	Zn	-0.384501	-1.167465	-0.296054
Zn3	Zn	-0.267274	-1.042128	-0.291073
Zn4	Zn	-0.379455	-1.030906	-0.413250
O5	O	-0.323372	-1.102135	-0.352168
O6	O	-0.278485	-1.277811	-0.393419
O7	O	-0.373161	-1.155294	-0.197288
O8	O	-0.168502	-1.063768	-0.302466
O9	O	-0.368297	-1.277387	-0.310955
O10	O	-0.164816	-1.156276	-0.388590
O11	O	-0.287036	-1.063209	-0.193629
O12	O	-0.282143	-0.930793	-0.307269
O13	O	-0.359697	-1.044642	-0.510698
O14	O	-0.364562	-0.922549	-0.397031
O15	O	-0.273593	-1.145395	-0.507059
O16	O	-0.481938	-1.144413	-0.315757
O17	O	-0.478231	-1.044084	-0.401860
C18	C	-0.323350	-0.898189	-0.352147
C19	C	-0.323357	-0.810939	-0.352156
C20	C	-0.276668	-0.770163	-0.395166
C21	C	-0.276671	-0.688182	-0.395168
C22	C	-0.323367	-0.646979	-0.352162
C23	C	-0.370058	-0.687760	-0.309147
C24	C	-0.370051	-0.769740	-0.309142
C25	C	-0.370071	-0.516889	-0.309162
C26	C	-0.370079	-0.434904	-0.309167
C27	C	-0.276692	-0.435331	-0.395187
C28	C	-0.276684	-0.517311	-0.395182
C29	C	-0.323376	-0.558087	-0.352168
C30	C	-0.505522	-1.092989	-0.359902
C31	C	-0.583446	-1.089147	-0.363234
C32	C	-0.621960	-1.139615	-0.320007
C33	C	-0.695177	-1.136006	-0.323145
C34	C	-0.729879	-1.081924	-0.369506
C35	C	-0.691360	-1.031454	-0.412738
C36	C	-0.618144	-1.035067	-0.409603
C37	C	-0.950849	-1.068402	-0.381215
C38	C	-1.024071	-1.064791	-0.384345
C39	C	-1.027882	-1.169345	-0.294752
C40	C	-0.954665	-1.172950	-0.291619
C41	C	-0.916152	-1.122483	-0.334853
C42	C	-0.804719	-1.078232	-0.372713
C43	C	-0.841313	-1.126179	-0.331649
C44	C	-0.140509	-1.111338	-0.344420
C45	C	-0.062584	-1.115260	-0.341118
C46	C	-0.315522	-1.093831	-0.535027
C47	C	-0.312178	-1.090292	-0.612951
C48	C	-0.323391	-0.306878	-0.352184
C49	C	-0.323391	-0.394128	-0.352178
C50	C	-0.291017	-1.067877	-1.053576
C51	C	-0.294157	-1.071205	-0.980358
C52	C	-0.340572	-1.120809	-0.945654
C53	C	-0.383844	-1.167093	-0.984171
C54	C	-0.380700	-1.163768	-1.057387
C55	C	-0.352306	-1.133251	-0.724684
C56	C	-0.355448	-1.136571	-0.651462
C57	C	-0.265760	-1.040684	-0.647655
C58	C	-0.262623	-1.037360	-0.720873
C59	C	-0.305892	-1.083647	-0.759383
C60	C	-0.343784	-1.124211	-0.870814
C61	C	-0.302676	-1.080248	-0.834221
C62	C	-0.331140	-1.110454	-0.170019
C63	C	-0.334287	-1.114155	-0.092087
H64	H	-0.238654	-0.654986	-0.430192
N65	N	-0.840158	-1.022972	-0.420061
N66	N	-0.805767	-0.977904	-0.458649
H67	H	-0.830796	-0.938876	-0.492089
N68	N	-0.228975	-0.393698	-0.439112
N69	N	-0.187281	-0.430496	-0.477501
H70	H	-0.153580	-0.401091	-0.508520
H71	H	-0.586786	-0.993971	-0.444804
N72	N	-0.911510	-1.016864	-0.425382
N73	N	-0.868707	-1.044437	-0.468333
H74	H	-0.840922	-1.008038	-0.499531
H75	H	-0.408091	-0.550087	-0.274133
N76	N	-0.726818	-0.976210	-0.460086
N77	N	-0.768778	-0.925317	-0.437127
H78	H	-0.793821	-0.886298	-0.470565
N79	N	-0.417754	-0.811392	-0.265220
N80	N	-0.461408	-0.853785	-0.291708
H81	H	-0.495099	-0.883201	-0.260685
H82	H	-0.238645	-0.803705	-0.430188
H83	H	-0.238664	-0.550856	-0.430205
H84	H	-1.059247	-1.210434	-0.259555
N85	N	-0.243602	-1.017218	-1.089033
N86	N	-0.240797	-1.014256	-1.154403
H87	H	-0.207307	-0.978480	-1.179445
H88	H	-0.258923	-1.033519	-0.949005
H89	H	-0.408103	-0.401358	-0.274149
H90	H	-0.813057	-1.170215	-0.293904
H91	H	-0.408075	-0.654206	-0.274128
H92	H	-0.593710	-1.183651	-0.282251
N93	N	-0.734507	-1.187575	-0.278995
N94	N	-0.703514	-1.235862	-0.237607
H95	H	-0.731290	-1.272290	-0.206427
H96	H	-0.415934	-1.201454	-1.088742
H97	H	-0.224830	-0.996964	-0.749124
H98	H	-0.230531	-1.003001	-0.616292
N99	N	-0.402867	-1.187231	-0.616004
N100	N	-0.449293	-1.159209	-0.577046
H101	H	-0.482784	-1.194982	-0.552003
N102	N	-0.919231	-1.228196	-0.244255
N103	N	-0.953627	-1.273254	-0.205661
H104	H	-0.928603	-1.312270	-0.172207
N105	N	-0.396518	-1.180523	-0.764004
N106	N	-0.437964	-1.224798	-0.733008
H107	H	-0.469196	-1.258182	-0.760780
N108	N	-0.431248	-1.217763	-0.948712
N109	N	-0.434051	-1.220725	-0.883341
H110	H	-0.467533	-1.256510	-0.858299
H111	H	-1.052322	-1.020760	-0.422110
H112	H	-0.264882	-1.039865	-0.862481
N113	N	-0.391191	-1.174881	-0.835360
N114	N	-0.368287	-1.227999	-0.793464
H115	H	-0.401768	-1.263786	-0.768422
