data_functionalizedCrystal
_audit_creation_method	'MofGen! by Chris Wilmer'
_symmetry_space_group_name_H-M	'P1'
_symmetry_Int_Tables_number	1
_symmetry_cell_setting	triclinic
loop_
_symmetry_equiv_pos_as_xyz
  x,y,z
_cell_length_a	8.559649
_cell_length_b	14.519731
_cell_length_c	7.681481
_cell_angle_alpha	84.245782
_cell_angle_beta	94.913240
_cell_angle_gamma	76.733759
loop_
_atom_site_label
_atom_site_type_symbol
_atom_site_fract_x
_atom_site_fract_y
_atom_site_fract_z
O1	O	2.104959	-0.021482	-0.146399
O2	O	2.604959	0.478518	0.353601
O3	O	1.639896	0.026136	-0.146411
O4	O	2.139896	0.526136	0.353589
O5	O	1.884742	-0.132795	-0.146389
O6	O	2.384742	0.367205	0.353611
O7	O	1.860113	0.137449	-0.146421
O8	O	2.360113	0.637449	0.353579
O9	O	1.914878	-0.152396	0.146472
O10	O	2.414878	0.347604	0.646472
O11	O	1.670033	0.006535	0.146450
O12	O	2.170033	0.506535	0.646450
O13	O	2.135095	-0.041083	0.146461
O14	O	2.635095	0.458917	0.646461
Zn15	Zn	1.907349	-0.020386	0.192953
Zn16	Zn	2.407349	0.479614	0.692953
Zn17	Zn	1.867643	0.005439	-0.192903
Zn18	Zn	2.367643	0.505439	0.307097
O19	O	1.890249	0.117848	0.146439
O20	O	2.390249	0.617848	0.646439
C21	C	1.595445	0.019944	0.000018
C22	C	2.095445	0.519944	0.500018
C23	C	1.418097	0.030685	0.000014
C24	C	1.918097	0.530685	0.500014
C25	C	1.898656	-0.176872	0.000042
C26	C	2.398656	0.323128	0.500042
C27	C	1.895199	-0.279005	0.000043
C28	C	2.395199	0.220995	0.500043
C29	C	1.892389	-0.361947	0.000039
C30	C	2.392389	0.138053	0.500039
C31	C	1.888877	-0.466003	0.000025
C32	C	2.388877	0.033997	0.500025
C33	C	1.886090	-0.548941	0.000014
C34	C	2.386090	-0.048941	0.500014
C35	C	1.882578	-0.653004	0.000003
C36	C	2.382578	-0.153004	0.500003
C37	C	2.179546	-0.034891	0.000028
C38	C	2.679546	0.465109	0.500028
C39	C	2.356893	-0.045632	0.000021
C40	C	2.856893	0.454368	0.500021
C41	C	1.876335	0.161925	0.000005
C42	C	2.376335	0.661925	0.500005
C43	C	1.879791	0.264058	-0.000008
C44	C	2.379791	0.764058	0.499992
N45	N	1.934459	-0.038013	0.456290
N46	N	2.434459	0.461987	0.956290
N47	N	1.840545	0.023057	-0.456240
N48	N	2.340545	0.523057	0.043760
H49	H	1.334809	0.104247	-0.000004
H50	H	1.834809	0.604247	0.499996
H51	H	2.030343	-0.100346	0.531504
H52	H	2.530343	0.399654	1.031504
H53	H	1.744679	0.085392	0.468555
H54	H	2.244679	0.585392	0.968555
C55	C	1.469386	-0.145007	0.000036
C56	C	1.969386	0.354993	0.500036
C57	C	1.477779	-0.224233	0.152118
C58	C	1.977779	0.275767	0.652118
C59	C	1.590283	-0.323609	0.152133
C60	C	2.090283	0.176391	0.652133
C61	C	1.694394	-0.343760	0.000066
C62	C	2.194394	0.156240	0.500066
C63	C	1.686004	-0.264532	-0.152027
C64	C	2.186004	0.235468	0.347973
C65	C	1.573500	-0.165155	-0.152042
C66	C	2.073500	0.334845	0.347958
H67	H	1.400707	-0.209318	0.264697
H68	H	1.900707	0.290682	0.764697
H69	H	1.596493	-0.382259	0.264724
H70	H	2.096493	0.117741	0.764724
H71	H	1.777677	-0.417324	0.000078
H72	H	2.277677	0.082676	0.500078
H73	H	1.763077	-0.279446	-0.264606
H74	H	2.263077	0.220554	0.235394
H75	H	1.567290	-0.106505	-0.264633
H76	H	2.067290	0.393495	0.235367
