data_functionalizedCrystal
_audit_creation_method	'MofGen! by Chris Wilmer'
_symmetry_space_group_name_H-M	'P1'
_symmetry_Int_Tables_number	1
_symmetry_cell_setting	triclinic
loop_
_symmetry_equiv_pos_as_xyz
  x,y,z
_cell_length_a	13.897449
_cell_length_b	19.121063
_cell_length_c	13.897441
_cell_angle_alpha	87.594330
_cell_angle_beta	90.020733
_cell_angle_gamma	92.470221
loop_
_atom_site_label
_atom_site_type_symbol
_atom_site_fract_x
_atom_site_fract_y
_atom_site_fract_z
Zn1	Zn	1.458257	-0.279567	0.561726
Zn2	Zn	1.791591	0.053766	0.895059
Zn3	Zn	2.124924	0.387100	1.228392
Zn4	Zn	1.451242	-0.397031	0.407294
Zn5	Zn	1.784575	-0.063697	0.740628
Zn6	Zn	2.117908	0.269636	1.073961
Zn7	Zn	1.296944	-0.279601	0.400446
Zn8	Zn	1.630278	0.053733	0.733779
Zn9	Zn	1.963611	0.387066	1.067113
Zn10	Zn	1.290021	-0.396984	0.568544
Zn11	Zn	1.623354	-0.063651	0.901878
Zn12	Zn	1.956688	0.269682	1.235211
O13	O	1.374116	-0.338296	0.484503
O14	O	1.707449	-0.004962	0.817836
O15	O	2.040783	0.328371	1.151169
O16	O	1.592308	-0.295154	0.541253
O17	O	1.925641	0.038179	0.874586
O18	O	2.258975	0.371512	1.207919
O19	O	1.430735	-0.381487	0.271406
O20	O	1.764068	-0.048153	0.604740
O21	O	2.097402	0.285180	0.938073
O22	O	1.324176	-0.181312	0.416120
O23	O	1.657510	0.152022	0.749454
O24	O	1.990843	0.485355	1.082787
O25	O	1.587154	-0.381454	0.427793
O26	O	1.920487	-0.048121	0.761126
O27	O	2.253820	0.285213	1.094459
O28	O	1.442692	-0.181287	0.534612
O29	O	1.776026	0.152046	0.867945
O30	O	2.109359	0.485380	1.201279
O31	O	1.317374	-0.295211	0.266375
O32	O	1.650707	0.038122	0.599708
O33	O	1.984040	0.371455	0.933041
O34	O	1.161045	-0.295166	0.422732
O35	O	1.494378	0.038167	0.756065
O36	O	1.827711	0.371500	1.089399
O37	O	1.312377	-0.381375	0.702620
O38	O	1.645710	-0.048042	1.035953
O39	O	1.979043	0.285291	1.369286
O40	O	1.155958	-0.381408	0.546233
O41	O	1.489292	-0.048075	0.879567
O42	O	1.822625	0.285259	1.212900
O43	O	1.435979	-0.295109	0.697610
O44	O	1.769312	0.038224	1.030943
O45	O	2.102646	0.371557	1.364277
O46	O	1.424022	-0.495309	0.434404
O47	O	1.757355	-0.161976	0.767738
O48	O	2.090689	0.171358	1.101071
O49	O	1.305574	-0.495275	0.552874
O50	O	1.638907	-0.161942	0.886207
O51	O	1.972241	0.171392	1.219541
C52	C	1.123502	-0.338286	0.484480
C53	C	1.456836	-0.004953	0.817813
C54	C	1.790169	0.328380	1.151147
C55	C	1.016288	-0.338299	0.484494
C56	C	1.349621	-0.004966	0.817828
C57	C	1.682954	0.328367	1.151161
C58	C	1.363311	-0.520776	0.495143
C59	C	1.696645	-0.187443	0.828476
C60	C	2.029978	0.145891	1.161810
C61	C	1.358777	-0.598842	0.499727
C62	C	1.692111	-0.265508	0.833061
C63	C	2.025444	0.067825	1.166394
C64	C	0.819992	-0.338302	0.484520
C65	C	1.153326	-0.004968	0.817853
C66	C	1.486659	0.328365	1.151186
C67	C	0.929225	-0.338298	0.484503
C68	C	1.262558	-0.004965	0.817836
C69	C	1.595892	0.328369	1.151169
C70	C	1.418365	-0.635512	0.440252
C71	C	1.751698	-0.302178	0.773585
C72	C	2.085031	0.031155	1.106918
C73	C	1.414106	-0.708863	0.444569
C74	C	1.747440	-0.375529	0.777902
C75	C	2.080773	-0.042196	1.111235
C76	C	1.350255	-0.745543	0.508358
C77	C	1.683588	-0.412209	0.841691
C78	C	2.016922	-0.078876	1.175024
C79	C	1.290665	-0.708868	0.567840
C80	C	1.623998	-0.375534	0.901173
C81	C	1.957332	-0.042201	1.234507
C82	C	1.294929	-0.635518	0.563527
C83	C	1.628262	-0.302185	0.896860
C84	C	1.961596	0.031149	1.230194
C85	C	1.334297	-0.967012	0.524468
C86	C	1.667630	-0.633679	0.857801
C87	C	2.000964	-0.300345	1.191135
C88	C	1.330035	-1.040367	0.528775
C89	C	1.663369	-0.707034	0.862108
C90	C	1.996702	-0.373700	1.195441
C91	C	1.453478	-1.040357	0.405504
C92	C	1.786812	-0.707024	0.738837
C93	C	2.120145	-0.373690	1.072170
C94	C	1.457733	-0.967006	0.401192
C95	C	1.791066	-0.633672	0.734526
C96	C	2.124399	-0.300339	1.067859
C97	C	1.398147	-0.930337	0.460678
C98	C	1.731480	-0.597004	0.794012
C99	C	2.064813	-0.263671	1.127345
C100	C	1.345898	-0.820519	0.512770
C101	C	1.679232	-0.487186	0.846103
C102	C	2.012565	-0.153853	1.179437
C103	C	1.402509	-0.855362	0.456270
C104	C	1.735842	-0.522029	0.789604
C105	C	2.069175	-0.188695	1.122937
C106	C	1.625708	-0.338306	0.484526
C107	C	1.959042	-0.004972	0.817859
C108	C	2.292375	0.328361	1.151192
C109	C	1.732922	-0.338310	0.484536
C110	C	2.066255	-0.004976	0.817869
C111	C	2.399589	0.328357	1.151202
C112	C	1.374188	-0.338234	0.736092
C113	C	1.707522	-0.004900	1.069425
C114	C	2.040855	0.328433	1.402759
C115	C	1.374219	-0.338207	0.843305
C116	C	1.707552	-0.004874	1.176638
C117	C	2.040886	0.328460	1.509971
C118	C	1.384989	-0.155103	0.473842
C119	C	1.718323	0.178231	0.807175
C120	C	2.051656	0.511564	1.140508
C121	C	1.389623	-0.077037	0.469299
C122	C	1.722956	0.256296	0.802632
C123	C	2.056289	0.589630	1.135965
C124	C	1.374103	-0.338307	0.233889
C125	C	1.707436	-0.004973	0.567222
C126	C	2.040769	0.328360	0.900556
C127	C	1.374271	-0.338135	0.126665
C128	C	1.707604	-0.004802	0.459999
C129	C	2.040937	0.328531	0.793332
C130	C	1.374248	-0.338160	1.039597
C131	C	1.707581	-0.004826	1.372930
C132	C	2.040915	0.328507	1.706264
C133	C	1.374229	-0.338188	0.930366
C134	C	1.707562	-0.004855	1.263699
C135	C	2.040895	0.328479	1.597033
H136	H	1.470355	-0.605652	0.388304
H137	H	1.803689	-0.272318	0.721637
H138	H	2.137022	0.061015	1.054970
H139	H	1.501991	-1.070220	0.357075
H140	H	1.835325	-0.736887	0.690408
H141	H	2.168658	-0.403554	1.023742
N142	N	1.264796	-1.077825	0.593935
N143	N	1.598129	-0.744492	0.927268
N144	N	1.931463	-0.411159	1.260602
N145	N	1.211595	-1.045078	0.647038
N146	N	1.544929	-0.711745	0.980371
N147	N	1.878262	-0.378412	1.313704
H148	H	1.165518	-1.071533	0.693052
H149	H	1.498852	-0.738199	1.026385
H150	H	1.832185	-0.404866	1.359718
N151	N	1.273427	-0.929557	0.585216
N152	N	1.606760	-0.596223	0.918549
N153	N	1.940094	-0.262890	1.251882
N154	N	1.214356	-0.888678	0.548829
N155	N	1.547690	-0.555345	0.882162
N156	N	1.881023	-0.222011	1.215496
H157	H	1.171367	-0.862220	0.591735
H158	H	1.504701	-0.528886	0.925069
H159	H	1.838034	-0.195553	1.258402
H160	H	1.246408	-0.605662	0.611960
H161	H	1.579741	-0.272329	0.945293
H162	H	1.913075	0.061005	1.278627
H163	H	1.293908	-0.850392	0.564705
H164	H	1.627242	-0.517059	0.898039
H165	H	1.960575	-0.183726	1.231372
H166	H	1.462628	-0.738716	0.396136
H167	H	1.795961	-0.405383	0.729470
H168	H	2.129295	-0.072049	1.062803
H169	H	1.238680	-0.738738	0.619783
H170	H	1.572013	-0.405405	0.953116
H171	H	1.905347	-0.072072	1.286449
N172	N	1.522936	-0.929525	0.336028
N173	N	1.856269	-0.596192	0.669362
N174	N	2.189602	-0.262858	1.002695
N175	N	1.586759	-0.888519	0.367582
N176	N	1.920092	-0.555186	0.700915
N177	N	2.253425	-0.221852	1.034249
H178	H	1.632794	-0.862042	0.321550
H179	H	1.966128	-0.528708	0.654883
H180	H	2.299461	-0.195375	0.988216
N181	N	1.467714	-0.817887	0.391109
N182	N	1.801048	-0.484554	0.724442
N183	N	2.134381	-0.151221	1.057776
N184	N	1.436171	-0.777011	0.327218
N185	N	1.769504	-0.443678	0.660552
N186	N	2.102838	-0.110345	0.993885
H187	H	1.482219	-0.750538	0.281194
H188	H	1.815552	-0.417205	0.614527
H189	H	2.148886	-0.083872	0.947861
