data_functionalizedCrystal
_audit_creation_method	'MofGen! by Chris Wilmer'
_symmetry_space_group_name_H-M	'P1'
_symmetry_Int_Tables_number	1
_symmetry_cell_setting	triclinic
loop_
_symmetry_equiv_pos_as_xyz
  x,y,z
_cell_length_a	6.817900
_cell_length_b	19.453103
_cell_length_c	19.453114
_cell_angle_alpha	96.316406
_cell_angle_beta	101.709288
_cell_angle_gamma	101.709178
loop_
_atom_site_label
_atom_site_type_symbol
_atom_site_fract_x
_atom_site_fract_y
_atom_site_fract_z
V1	V	-3.997997	-0.097914	-0.219328
O2	O	-3.995098	0.003953	-0.214817
O3	O	-3.941017	-0.193423	-0.218151
O4	O	-3.941018	-0.096738	-0.314837
O5	O	-3.995097	-0.093402	-0.117462
V6	V	-4.483849	-0.085690	-0.207105
O7	O	-4.254148	-0.124727	-0.246141
O8	O	-4.677895	-0.058877	-0.180292
O9	O	-4.317623	0.009819	-0.208282
O10	O	-4.604145	-0.187557	-0.211616
O11	O	-4.604146	-0.090202	-0.308971
O12	O	-4.317621	-0.086866	-0.111596
C13	C	-3.784208	-0.216695	-0.214774
C14	C	-3.818849	-0.294777	-0.214449
C15	C	-4.016582	-0.335044	-0.217808
C16	C	-4.049135	-0.408411	-0.217509
C17	C	-3.883937	-0.441507	-0.213837
C18	C	-3.686178	-0.401231	-0.210481
C19	C	-3.653634	-0.327867	-0.210787
N20	N	-3.779057	-0.547627	-0.170551
N21	N	-3.809984	-0.617320	-0.170259
C22	C	-3.981979	-0.662551	-0.212916
N23	N	-4.121905	-0.635454	-0.255867
N24	N	-4.090980	-0.565754	-0.256156
C25	C	-3.919205	-0.521058	-0.213505
C26	C	-4.215023	-0.782371	-0.215953
C27	C	-4.247572	-0.855741	-0.215658
C28	C	-3.884605	-0.848558	-0.208622
C29	C	-3.852066	-0.775191	-0.208924
C30	C	-4.017281	-0.742102	-0.212586
C31	C	-3.784208	-0.093363	-0.338106
C32	C	-3.818848	-0.093034	-0.416187
C33	C	-4.016587	-0.096405	-0.456456
C34	C	-4.049136	-0.096095	-0.529822
C35	C	-3.883941	-0.092429	-0.562918
C36	C	-3.686172	-0.089054	-0.522640
C37	C	-3.653625	-0.089356	-0.449274
N38	N	-3.820865	-0.129523	-0.681832
N39	N	-3.851796	-0.129237	-0.751526
C40	C	-3.981989	-0.091516	-0.783963
N41	N	-4.080118	-0.054100	-0.744075
N42	N	-4.049192	-0.054389	-0.674375
C43	C	-3.919211	-0.092100	-0.642470
C44	C	-4.215033	-0.094550	-0.903783
C45	C	-4.247572	-0.094236	-0.977150
C46	C	-3.884605	-0.087202	-0.969967
C47	C	-3.852068	-0.087509	-0.896601
C48	C	-4.017291	-0.091187	-0.863515
C49	C	-4.137773	0.033088	-0.211656
C50	C	-4.082370	0.111169	-0.211986
C51	C	-4.137773	-0.090243	-0.088323
C52	C	-4.082372	-0.090569	-0.010241
H53	H	-3.492614	-0.295081	-0.208052
H54	H	-4.151127	-0.099397	-0.429521
H55	H	-3.750099	-0.875504	-0.205636
O56	O	-4.439679	-0.894911	-0.219038
C57	C	-4.718842	-0.991681	-0.283895
C58	C	-4.501300	-0.947364	-0.280169
H59	H	-4.768711	-1.034108	-0.333308
H60	H	-4.831452	-0.955470	-0.286607
H61	H	-4.717351	-1.018305	-0.234491
H62	H	-4.502590	-0.920734	-0.329561
H63	H	-4.388782	-0.983608	-0.277423
H64	H	-3.691049	-0.742405	-0.206184
H65	H	-4.349566	-0.097542	-0.876842
H66	H	-4.210166	-0.098844	-0.562615
O67	O	-4.375367	-0.750169	-0.219390
C68	C	-4.517384	-0.661736	-0.162668
C69	C	-4.335685	-0.698156	-0.158678
H70	H	-4.485346	-0.619666	-0.113596
H71	H	-4.664360	-0.703082	-0.164980
H72	H	-4.536905	-0.635463	-0.212416
H73	H	-4.315974	-0.724427	-0.108934
H74	H	-4.188806	-0.656780	-0.156404
O75	O	-4.241080	-0.447597	-0.220673
C76	C	-4.456641	-0.524826	-0.163212
C77	C	-4.239162	-0.480493	-0.159548
H78	H	-4.455172	-0.551422	-0.113793
H79	H	-4.506686	-0.567263	-0.212621
H80	H	-4.569114	-0.488567	-0.165918
H81	H	-4.126539	-0.516695	-0.156816
H82	H	-4.189289	-0.438050	-0.110148
H83	H	-3.551669	-0.086066	-0.549591
O84	O	-3.461674	-0.086206	-0.410110
C85	C	-3.246125	-0.143711	-0.332929
C86	C	-3.463618	-0.147343	-0.377232
H87	H	-3.247614	-0.193140	-0.306348
H88	H	-3.195998	-0.094311	-0.290481
H89	H	-3.133703	-0.141012	-0.369206
H90	H	-3.576189	-0.150069	-0.341012
H91	H	-3.513573	-0.196735	-0.419687
O92	O	-4.439770	-0.097634	-1.016257
C93	C	-4.791780	-0.164703	-1.054542
C94	C	-4.574203	-0.160954	-1.010239
H95	H	-4.900539	-0.215886	-1.049681
H96	H	-4.786818	-0.163898	-1.112680
H97	H	-4.849089	-0.117066	-1.034022
H98	H	-4.516764	-0.208581	-1.030698
H99	H	-4.579292	-0.161725	-0.952108
O100	O	-3.724238	-0.083546	-1.002172
C101	C	-3.518441	-0.017926	-1.071059
C102	C	-3.700139	-0.021993	-1.034630
H103	H	-3.498872	0.031843	-1.097298
H104	H	-3.550266	-0.066983	-1.113134
H105	H	-3.371563	-0.015607	-1.029664
H106	H	-3.847095	-0.024289	-1.075973
H107	H	-3.668136	0.027062	-0.992542
O108	O	-3.660000	-0.084158	-0.857420
C109	C	-3.380857	-0.019366	-0.760611
C110	C	-3.598343	-0.023043	-0.804947
H111	H	-3.330958	0.030034	-0.718167
H112	H	-3.268201	-0.016662	-0.796805
H113	H	-3.382465	-0.068785	-0.734008
H114	H	-3.596934	0.026365	-0.831556
H115	H	-3.710906	-0.025782	-0.768719
O116	O	-4.176953	-0.302836	-0.221465
C117	C	-4.382744	-0.233948	-0.287086
C118	C	-4.201054	-0.270381	-0.283020
H119	H	-4.402315	-0.207711	-0.336857
H120	H	-4.350909	-0.191871	-0.238031
H121	H	-4.529625	-0.275341	-0.289402
H122	H	-4.054095	-0.229041	-0.280727
H123	H	-4.233066	-0.312471	-0.332074
H124	H	-3.551675	-0.428183	-0.207492
