data_functionalizedCrystal
_audit_creation_method	'MofGen! by Chris Wilmer'
_symmetry_space_group_name_H-M	'P1'
_symmetry_Int_Tables_number	1
_symmetry_cell_setting	triclinic
loop_
_symmetry_equiv_pos_as_xyz
  x,y,z
_cell_length_a	19.805407
_cell_length_b	16.625546
_cell_length_c	19.805399
_cell_angle_alpha	89.972133
_cell_angle_beta	89.980427
_cell_angle_gamma	90.022468
loop_
_atom_site_label
_atom_site_type_symbol
_atom_site_fract_x
_atom_site_fract_y
_atom_site_fract_z
Zn1	Zn	1.034754	-0.321020	-0.382718
Zn2	Zn	1.034677	-0.455857	-0.269529
Zn3	Zn	0.921569	-0.321043	-0.269543
Zn4	Zn	0.921540	-0.455815	-0.382676
O5	O	0.978135	-0.388434	-0.326117
O6	O	1.129461	-0.338915	-0.367716
O7	O	1.019652	-0.438001	-0.174815
O8	O	0.936628	-0.208207	-0.284579
O9	O	1.129404	-0.437980	-0.284556
O10	O	1.019784	-0.208191	-0.367729
O11	O	0.936553	-0.338953	-0.174825
O12	O	0.826848	-0.338912	-0.284538
O13	O	0.936579	-0.437907	-0.477398
O14	O	0.826827	-0.437928	-0.367657
O15	O	1.019756	-0.338874	-0.477429
O16	O	1.019625	-0.568684	-0.284515
O17	O	0.936504	-0.568653	-0.367644
C18	C	0.802279	-0.388418	-0.326095
C19	C	0.727047	-0.388431	-0.326102
C20	C	0.691710	-0.440067	-0.369311
C21	C	0.621021	-0.440068	-0.369321
C22	C	0.585671	-0.388437	-0.326117
C23	C	0.621014	-0.336796	-0.282905
C24	C	0.691701	-0.336791	-0.282899
C25	C	0.335941	-0.336814	-0.282927
C26	C	0.265248	-0.336825	-0.282935
C27	C	0.265261	-0.440091	-0.369349
C28	C	0.335948	-0.440086	-0.369343
C29	C	0.371284	-0.388442	-0.326134
C30	C	0.447932	-0.388440	-0.326125
C31	C	0.509024	-0.388443	-0.326122
C32	C	0.978071	-0.597925	-0.326088
C33	C	0.978105	-0.687546	-0.326099
C34	C	0.978224	-1.015721	-0.326169
C35	C	0.978189	-0.924413	-0.326152
C36	C	0.978164	-0.851636	-0.326134
C37	C	0.978130	-0.760322	-0.326117
C38	C	1.154678	-0.388450	-0.326139
C39	C	1.229910	-0.388457	-0.326149
C40	C	0.978173	-0.388383	-0.502660
C41	C	0.978189	-0.388361	-0.577892
C42	C	0.978218	-0.178125	-0.326160
C43	C	0.978253	-0.088504	-0.326178
C44	C	1.021501	-0.336792	-0.613253
C45	C	1.021508	-0.336769	-0.683941
C46	C	0.978206	-0.388319	-0.719267
C47	C	0.934889	-0.439890	-0.683901
C48	C	0.934880	-0.439909	-0.613214
C49	C	0.934928	-0.439815	-0.968974
C50	C	0.934942	-0.439794	-1.039667
C51	C	1.021556	-0.336675	-1.039702
C52	C	1.021546	-0.336694	-0.969015
C53	C	0.978227	-0.388262	-0.933655
C54	C	0.978219	-0.388285	-0.857006
C55	C	0.978217	-0.388300	-0.795914
C56	C	0.978136	-0.388426	-0.150261
C57	C	0.978251	-0.388221	-0.075029
H58	H	0.364726	-0.482132	-0.404522
H59	H	0.899604	-0.481894	-0.584423
C60	C	1.059974	-0.290919	-0.860672
C61	C	1.069133	-0.280016	-0.930184
H62	H	1.089352	-0.255924	-0.836702
H63	H	1.014501	-0.279129	-0.849093
H64	H	1.069870	-0.345096	-0.849080
H65	H	1.059233	-0.225840	-0.941778
H66	H	1.114617	-0.291799	-0.941769
H67	H	1.056826	-0.294683	-1.068501
C68	C	1.054517	-0.200268	-0.591527
C69	C	1.069098	-0.280123	-0.574426
H70	H	1.083899	-0.165282	-0.567555
H71	H	1.060723	-0.192884	-0.638681
H72	H	1.009041	-0.188479	-0.579931
H73	H	1.114573	-0.291914	-0.586026
H74	H	1.062899	-0.287511	-0.527261
H75	H	0.592253	-0.482116	-0.404506
H76	H	0.899678	-0.481774	-1.068427
C77	C	1.030960	-0.228273	-0.763441
C78	C	1.069114	-0.280072	-0.722804
H79	H	1.060351	-0.193263	-0.787427
H80	H	1.005183	-0.258968	-0.794598
H81	H	1.001478	-0.197449	-0.735853
H82	H	1.098593	-0.310901	-0.750392
H83	H	1.094903	-0.249374	-0.691643
H84	H	0.236469	-0.294776	-0.247753
C85	C	0.684614	-0.542137	-0.454737
C86	C	0.730563	-0.496819	-0.416806
H87	H	0.708601	-0.577168	-0.484063
H88	H	0.657025	-0.572935	-0.425204
H89	H	0.657062	-0.507038	-0.480679
H90	H	0.758111	-0.531918	-0.390861
H91	H	0.758163	-0.466018	-0.446343
C92	C	0.849299	-0.541726	-0.976050
C93	C	0.887304	-0.496488	-0.930113
H94	H	0.819896	-0.576714	-0.952054
H95	H	0.823442	-0.506580	-1.003629
H96	H	0.878786	-0.572576	-1.003612
H97	H	0.857817	-0.465634	-0.902553
H98	H	0.913163	-0.531638	-0.902522
C99	C	0.156907	-0.485953	-0.407743
C100	C	0.226417	-0.496852	-0.416854
H101	H	0.132930	-0.520992	-0.437072
H102	H	0.145301	-0.497683	-0.362255
H103	H	0.145350	-0.431792	-0.417734
H104	H	0.237975	-0.551012	-0.406857
H105	H	0.238028	-0.485127	-0.462352
H106	H	0.899630	-0.481861	-0.712669
H107	H	0.364703	-0.294769	-0.247739
H108	H	0.592226	-0.294754	-0.247730
H109	H	0.720472	-0.294740	-0.247717
