data_functionalizedCrystal
_audit_creation_method	'MofGen! by Chris Wilmer'
_symmetry_space_group_name_H-M	'P1'
_symmetry_Int_Tables_number	1
_symmetry_cell_setting	triclinic
loop_
_symmetry_equiv_pos_as_xyz
  x,y,z
_cell_length_a	14.395555
_cell_length_b	20.875650
_cell_length_c	14.395555
_cell_angle_alpha	57.602833
_cell_angle_beta	90.000811
_cell_angle_gamma	62.450725
loop_
_atom_site_label
_atom_site_type_symbol
_atom_site_fract_x
_atom_site_fract_y
_atom_site_fract_z
Zr1	Zr	0.932484	0.701921	-0.158906
O2	O	0.791329	0.835690	-0.314274
O3	O	0.970785	0.568146	-0.106390
O4	O	0.977954	0.701918	-0.307230
O5	O	0.784159	0.701923	0.039434
O6	O	1.130822	0.701923	-0.307234
O7	O	0.784160	0.701918	-0.113433
O8	O	1.117998	0.462629	0.052033
O9	O	0.796983	0.941217	-0.319834
O10	O	1.107209	0.623175	-0.089900
O11	O	0.993125	0.623175	0.024186
O12	O	1.001566	0.780675	-0.212279
O13	O	0.887482	0.780675	-0.098193
Zr14	Zr	1.176289	0.701936	0.084893
Zr15	Zr	1.176290	0.701929	-0.158912
Zr16	Zr	0.932483	0.701929	0.084899
Zr17	Zr	0.941502	0.870224	-0.167773
Zr18	Zr	1.167271	0.533633	0.093760
O19	O	1.137988	0.835712	0.032377
O20	O	1.137990	0.835701	-0.314283
O21	O	0.791327	0.835701	0.032386
O22	O	1.317444	0.568167	0.240261
O23	O	1.317446	0.568156	-0.106398
O24	O	0.970783	0.568156	0.240270
O25	O	1.324614	0.701935	-0.113447
O26	O	1.130819	0.701940	0.233218
O27	O	0.977951	0.701935	0.233222
O28	O	1.324613	0.701940	0.039420
O29	O	0.990777	0.941223	-0.319839
O30	O	1.117997	0.462635	0.245826
O31	O	1.311790	0.462641	0.245821
O32	O	1.311791	0.462635	0.052028
O33	O	0.796982	0.941223	-0.126041
O34	O	0.990776	0.941229	-0.126046
O35	O	1.107208	0.623182	0.138266
O36	O	1.221291	0.623182	0.024180
O37	O	1.115648	0.780682	-0.098199
O38	O	1.001564	0.780682	0.015887
C39	C	1.043107	0.491408	-0.025915
C40	C	1.039278	0.419959	-0.022150
C41	C	1.011714	0.017490	0.005885
C42	C	1.015255	0.084668	0.002277
C43	C	1.076570	0.118259	-0.059088
C44	C	1.134357	0.084661	-0.116837
C45	C	1.130823	0.017480	-0.113221
C46	C	1.093531	0.319179	-0.076283
C47	C	1.097059	0.386368	-0.079898
C48	C	0.977958	0.386369	0.039218
C49	C	0.974423	0.319190	0.042823
C50	C	1.032215	0.285594	-0.014921
N51	N	1.080187	0.186928	-0.062781
N52	N	1.028604	0.216922	-0.011221
C53	C	0.749423	0.701919	-0.036999
C54	C	0.645921	0.701916	-0.036996
C55	C	0.642933	0.616040	0.029728
C56	C	0.552217	0.658972	0.072551
C57	C	0.552208	0.658988	-0.079787
C58	C	0.556568	0.744848	0.005890
C59	C	0.556572	0.744851	-0.146507
C60	C	0.465842	0.787846	-0.103714
C61	C	1.359351	0.701938	-0.037014
C62	C	1.462853	0.701941	-0.037017
C63	C	1.054388	0.701919	-0.341969
C64	C	1.054389	0.701916	-0.445471
C65	C	1.065667	0.912450	-0.048098
C66	C	1.069495	0.983899	-0.051863
C67	C	1.111996	0.616040	-0.439334
C68	C	1.007025	0.658967	-0.534615
C69	C	1.159334	0.658992	-0.534619
C70	C	0.949354	0.744844	-0.539389
C71	C	1.101741	0.744856	-0.539378
C72	C	0.996709	0.787846	-0.634680
C73	C	1.054385	0.701938	0.267957
C74	C	1.054384	0.701941	0.371458
C75	C	1.348071	0.491417	-0.025922
C76	C	1.447744	0.419971	-0.022161
C77	C	1.043105	0.491417	0.279048
C78	C	1.039276	0.419971	0.386314
C79	C	1.348069	0.491427	0.279041
C80	C	1.447742	0.419984	0.386304
C81	C	0.760704	0.912431	-0.353053
C82	C	0.661031	0.983873	-0.460317
C83	C	0.760702	0.912440	-0.048090
C84	C	0.661029	0.983886	-0.051852
C85	C	1.065668	0.912440	-0.353061
C86	C	1.069497	0.983886	-0.460327
C87	C	1.435002	0.386416	-0.079953
C88	C	1.528648	0.319294	-0.076441
C89	C	1.635034	0.285725	-0.015130
C90	C	1.647774	0.319287	0.042663
C91	C	1.554130	0.386412	0.039144
C92	C	1.097028	0.386423	0.496247
C93	C	1.093426	0.319302	0.597043
C94	C	1.032079	0.285725	0.587906
C95	C	0.974320	0.319280	0.477962
C96	C	0.977916	0.386404	0.377167
C97	C	1.554111	0.386434	0.377125
C98	C	1.647774	0.319315	0.477900
C99	C	1.635066	0.285744	0.587854
C100	C	1.528687	0.319300	0.597031
C101	C	1.435026	0.386422	0.496257
C102	C	0.554663	1.017432	-0.451138
C103	C	0.461001	1.084571	-0.551915
C104	C	0.473709	1.118146	-0.661869
C105	C	0.580088	1.084585	-0.671046
C106	C	0.673748	1.017452	-0.570270
C107	C	0.673771	1.017449	0.005929
C108	C	0.580127	1.084589	0.002390
C109	C	0.473741	1.118161	-0.058924
C110	C	0.461001	1.084595	-0.116713
C111	C	0.554644	1.017461	-0.113180
C112	C	1.130855	1.017442	-0.451152
C113	C	1.134475	1.084564	-0.551930
C114	C	1.076729	1.118133	-0.661883
C115	C	1.015369	1.084571	-0.671055
C116	C	1.011756	1.017446	-0.570278
H117	H	1.146991	0.413715	-0.129872
O118	O	1.200652	1.120758	-0.542017
H119	H	1.265804	1.107859	-0.582768
H120	H	1.711275	0.231067	-0.012273
H121	H	1.518252	0.291976	-0.123504
O122	O	1.567838	0.422644	0.258540
H123	H	1.612060	0.366293	0.251614
H124	H	1.734384	0.292000	0.470408
O125	O	1.163203	0.422626	0.506128
H126	H	1.156020	0.474934	0.417578
H127	H	1.079679	1.172791	-0.743933
O128	O	0.915645	0.422499	0.258644
H129	H	0.853738	0.496549	0.207500
H130	H	0.760388	0.990119	0.055866
O131	O	1.567878	0.422589	0.101501
H132	H	1.657589	0.387955	0.144734
O133	O	0.831728	0.792865	-0.540829
H134	H	0.832657	0.792441	-0.463400
H135	H	0.590522	1.111906	0.049454
H136	H	1.177875	-0.009871	-0.160243
O137	O	0.932096	0.884111	-0.745229
H138	H	0.845045	0.919533	-0.747809
O139	O	0.953075	1.120791	-0.789650
H140	H	0.965890	1.173113	-0.858175
H141	H	0.760355	0.990129	-0.577758
O142	O	1.514994	0.283070	0.715632
H143	H	1.557155	0.295945	0.762117
O144	O	0.908189	0.283036	0.468113
H145	H	0.915422	0.230710	0.556678
O146	O	0.372680	1.190565	-0.770554
H147	H	0.319943	1.164798	-0.769129
H148	H	0.544294	0.990098	-0.361616
O149	O	0.743414	0.519849	0.104543
H150	H	0.742360	0.484409	0.195408
O151	O	0.945575	0.981255	-0.580179
H152	H	0.880442	0.994137	-0.539401
H153	H	1.177879	0.990120	-0.361632
O154	O	0.945555	-0.018717	0.072050
H155	H	0.978317	-0.049261	0.165174
O156	O	0.952926	0.120907	0.064552
H157	H	0.909683	0.086273	0.107814
O158	O	0.908285	0.282952	0.108982
H159	H	0.843196	0.295798	0.048181
H160	H	1.140465	0.291990	0.686554
H161	H	0.374391	1.111885	-0.544420
O162	O	0.548417	0.610897	-0.127725
H163	H	0.550826	0.645887	-0.218081
O164	O	0.915686	0.422559	0.101561
H165	H	0.928467	0.474899	0.088768
H166	H	1.734406	0.291945	0.092581
O167	O	0.593789	1.120795	-0.789642
H168	H	0.510784	1.173105	-0.858164
H169	H	1.160624	0.543426	-0.355749
H170	H	0.397500	1.172826	-0.061792
O171	O	1.736090	0.213338	0.696546
H172	H	1.812185	0.195645	0.671679
O173	O	1.028225	0.213310	0.696625
H174	H	1.078709	0.195618	0.774599
O175	O	0.346253	1.120808	-0.182845
H176	H	0.283288	1.173122	-0.175576
O177	O	0.365525	0.884112	-0.178466
H178	H	0.314583	0.895344	-0.124519
O179	O	0.540895	0.981258	-0.175498
H180	H	0.492033	0.950677	-0.139457
O181	O	1.155843	0.282961	-0.138581
H182	H	1.199056	0.317618	-0.181872
O183	O	1.200483	0.120893	-0.183035
H184	H	1.193222	0.173262	-0.175864
H185	H	0.559338	0.781119	0.042178
O186	O	0.548396	0.610900	0.195209
H187	H	0.624317	0.586365	0.256429
O188	O	0.560409	0.792902	-0.269153
H189	H	0.559642	0.757112	-0.304488
H190	H	1.348419	0.413730	0.503747
H191	H	0.966967	0.622671	-0.533633
H192	H	1.141822	0.781121	-0.540315
H193	H	1.248091	0.622687	-0.533607
H194	H	1.348386	0.413748	-0.129893
