data_functionalizedCrystal
_audit_creation_method	'MofGen! by Chris Wilmer'
_symmetry_space_group_name_H-M	'P1'
_symmetry_Int_Tables_number	1
_symmetry_cell_setting	triclinic
loop_
_symmetry_equiv_pos_as_xyz
  x,y,z
_cell_length_a	10.723023
_cell_length_b	14.044209
_cell_length_c	9.798715
_cell_angle_alpha	90.005839
_cell_angle_beta	89.996770
_cell_angle_gamma	91.172250
loop_
_atom_site_label
_atom_site_type_symbol
_atom_site_fract_x
_atom_site_fract_y
_atom_site_fract_z
O1	O	1.670496	-0.133036	-0.113487
O2	O	1.308618	-0.145772	-0.113494
O3	O	1.484127	-0.001384	-0.113471
O4	O	1.494987	-0.277424	-0.113510
O5	O	1.484112	-0.001384	0.113511
O6	O	1.308604	-0.145771	0.113488
O7	O	1.670482	-0.133036	0.113495
Zn8	Zn	1.489541	-0.139404	0.149530
Zn9	Zn	1.489559	-0.139404	-0.149529
O10	O	1.494973	-0.277424	0.113473
C11	C	1.262018	-0.144845	-0.000003
C12	C	1.123187	-0.142073	-0.000005
C13	C	1.061284	-0.140836	0.117578
C14	C	0.917794	-0.137971	0.117578
C15	C	1.479365	0.033962	0.000022
C16	C	1.465181	0.139280	0.000028
C17	C	1.439251	0.332110	0.000016
C18	C	1.539854	0.389089	0.000016
C19	C	1.525426	0.496386	0.000010
C20	C	1.453677	0.224802	0.000023
C21	C	1.717082	-0.133963	0.000002
C22	C	1.855913	-0.136735	-0.000005
N23	N	1.489537	-0.139403	0.353630
C24	C	1.499738	0.687231	-0.000013
C25	C	1.513929	0.581914	0.000004
N26	N	1.489572	-0.139398	-0.353628
C27	C	1.563201	-0.078511	0.421416
C28	C	1.563221	-0.078508	0.578579
H29	H	1.069955	-0.141007	-0.100671
H30	H	0.864558	-0.136913	0.218245
H31	H	1.114516	-0.141894	0.218244
C32	C	0.927820	-0.138170	-0.136013
N33	N	0.981989	-0.139249	-0.238453
H34	H	1.636818	0.357288	-0.000075
H35	H	1.626250	-0.026378	0.363102
C36	C	1.404348	-0.209826	0.432408
N37	N	1.340181	-0.262871	0.491742
C38	C	1.308265	0.375070	0.000034
N39	N	1.209607	0.407439	0.000058
H40	H	1.626294	-0.026379	0.636872
H41	H	1.426506	-0.191536	0.588087
