data_functionalizedCrystal
_audit_creation_method	'MofGen! by Chris Wilmer'
_symmetry_space_group_name_H-M	'P1'
_symmetry_Int_Tables_number	1
_symmetry_cell_setting	triclinic
loop_
_symmetry_equiv_pos_as_xyz
  x,y,z
_cell_length_a	19.188930
_cell_length_b	11.792241
_cell_length_c	10.268362
_cell_angle_alpha	89.994572
_cell_angle_beta	89.981535
_cell_angle_gamma	83.669098
loop_
_atom_site_label
_atom_site_type_symbol
_atom_site_fract_x
_atom_site_fract_y
_atom_site_fract_z
O1	O	0.926947	0.141694	-0.108720
O2	O	1.426947	0.641694	0.391280
O3	O	0.723744	0.160769	-0.108631
O4	O	1.223744	0.660769	0.391369
O5	O	0.830277	-0.014013	-0.108668
O6	O	1.330277	0.485987	0.391332
O7	O	0.820415	0.316476	-0.108682
O8	O	1.320415	0.816476	0.391318
O9	O	0.830268	-0.014020	0.107932
O10	O	1.330268	0.485980	0.607932
O11	O	0.723735	0.160762	0.107970
O12	O	1.223735	0.660762	0.607970
O13	O	0.926938	0.141687	0.107881
O14	O	1.426938	0.641687	0.607881
Cu15	Cu	0.825336	0.151224	0.127703
Cu16	Cu	1.325336	0.651224	0.627703
Cu17	Cu	0.825347	0.151232	-0.128453
Cu18	Cu	1.325347	0.651232	0.371547
O19	O	0.820405	0.316469	0.107919
O20	O	1.320405	0.816469	0.607919
C21	C	0.697725	0.160148	-0.000319
C22	C	1.197725	0.660148	0.499681
C23	C	0.620210	0.158293	-0.000285
C24	C	1.120210	0.658293	0.499715
C25	C	0.829653	-0.056298	-0.000368
C26	C	1.329653	0.443702	0.499632
C27	C	0.827799	-0.182284	-0.000368
C28	C	1.327799	0.317716	0.499632
C29	C	0.824389	-0.412945	-0.000389
C30	C	1.324389	0.087055	0.499611
C31	C	0.826283	-0.284588	-0.000378
C32	C	1.326283	0.215412	0.499622
C33	C	0.575867	0.260849	-0.000309
C34	C	1.075867	0.760849	0.499691
C35	C	0.503033	0.259107	-0.000324
C36	C	1.003033	0.759107	0.499676
C37	C	0.474546	0.154803	-0.000339
C38	C	0.974546	0.654803	0.499661
C39	C	0.518899	0.052234	-0.000307
C40	C	1.018899	0.552234	0.499693
C41	C	0.591731	0.053979	-0.000280
C42	C	1.091731	0.553979	0.499720
N43	N	0.366117	0.075079	-0.074107
N44	N	0.866117	0.575079	0.425893
N45	N	0.296929	0.073428	-0.074136
N46	N	0.796929	0.573428	0.425864
C47	C	0.255107	0.149540	-0.000419
C48	C	0.755107	0.649540	0.499581
N49	N	0.285086	0.227382	0.073312
N50	N	0.785086	0.727382	0.573312
N51	N	0.354280	0.229036	0.073335
N52	N	0.854280	0.729036	0.573335
C53	C	0.395573	0.152900	-0.000368
C54	C	0.895573	0.652900	0.499632
C55	C	0.131789	0.250214	-0.000457
C56	C	0.631789	0.750214	0.499543
C57	C	0.058955	0.248468	-0.000463
C58	C	0.558955	0.748468	0.499537
C59	C	0.074822	0.041591	-0.000460
C60	C	0.574822	0.541591	0.499540
C61	C	0.147655	0.043341	-0.000440
C62	C	0.647655	0.543341	0.499560
C63	C	0.176134	0.147655	-0.000445
C64	C	0.676134	0.647655	0.499555
C65	C	0.952957	0.142309	-0.000434
C66	C	1.452957	0.642309	0.499566
C67	C	1.030472	0.144163	-0.000477
C68	C	1.530472	0.644163	0.499523
C69	C	0.821029	0.358754	-0.000385
C70	C	1.321029	0.858754	0.499615
C71	C	0.822884	0.484740	-0.000393
C72	C	1.322884	0.984740	0.499607
N73	N	0.825333	0.151217	0.307869
N74	N	1.325333	0.651217	0.807869
N75	N	0.825355	0.151230	-0.308618
N76	N	1.325355	0.651230	0.191382
C77	C	0.825343	0.151230	0.573539
C78	C	1.325343	0.651230	1.073539
C79	C	0.825335	0.151226	0.425701
C80	C	1.325335	0.651226	0.925701
H81	H	0.599050	0.345790	-0.000316
H82	H	1.099050	0.845790	0.499684
H83	H	0.051628	-0.043335	-0.000553
H84	H	0.551628	0.456665	0.499447
N85	N	0.457737	0.363881	-0.000342
N86	N	0.957737	0.863881	0.499658
N87	N	0.483174	0.457007	-0.000339
N88	N	0.983174	0.957007	0.499661
H89	H	0.451186	0.531005	-0.000352
H90	H	0.951186	1.031005	0.499648
H91	H	0.627836	-0.029537	-0.000260
H92	H	1.127836	0.470463	0.499740
N93	N	0.013646	0.353222	-0.000481
N94	N	0.513646	0.853222	0.499519
N95	N	-0.051381	0.351651	-0.000488
N96	N	0.448619	0.851651	0.499512
H97	H	-0.083382	0.425635	-0.000495
H98	H	0.416618	0.925635	0.499505
N99	N	0.192954	-0.061420	-0.000405
N100	N	0.692954	0.438580	0.499595
N101	N	0.190106	-0.130873	0.090899
N102	N	0.690106	0.369127	0.590899
H103	H	0.222099	-0.204865	0.090930
H104	H	0.722099	0.295135	0.590930
H105	H	0.154978	0.335153	-0.000442
H106	H	0.654978	0.835153	0.499558
H107	H	0.495700	-0.032691	-0.000338
H108	H	0.995700	0.467309	0.499662
