data_functionalizedCrystal
_audit_creation_method	'MofGen! by Chris Wilmer'
_symmetry_space_group_name_H-M	'P1'
_symmetry_Int_Tables_number	1
_symmetry_cell_setting	triclinic
loop_
_symmetry_equiv_pos_as_xyz
  x,y,z
_cell_length_a	10.654550
_cell_length_b	27.732048
_cell_length_c	9.130313
_cell_angle_alpha	89.990549
_cell_angle_beta	89.999724
_cell_angle_gamma	83.563793
loop_
_atom_site_label
_atom_site_type_symbol
_atom_site_fract_x
_atom_site_fract_y
_atom_site_fract_z
O1	O	1.664986	0.067886	-0.121708
O2	O	1.299235	0.074354	-0.121737
O3	O	1.493470	0.000794	-0.121693
O4	O	1.470751	0.141446	-0.121751
O5	O	1.493457	0.000792	0.121905
O6	O	1.299222	0.074351	0.121862
O7	O	1.664973	0.067884	0.121891
Cu8	Cu	1.482096	0.071117	0.144119
Cu9	Cu	1.482112	0.071120	-0.143965
O10	O	1.470738	0.141444	0.121848
C11	C	1.252451	0.073878	0.000060
C12	C	1.113067	0.072457	0.000050
C13	C	1.031761	0.115768	0.000036
C14	C	0.900796	0.114430	0.000063
C15	C	0.932457	0.026466	0.000110
C16	C	1.063419	0.027805	0.000094
C17	C	1.492986	-0.017217	0.000110
C18	C	1.491550	-0.070881	0.000122
C19	C	1.597290	-0.409038	0.000055
C20	C	1.591962	-0.610730	0.000034
O21	O	1.688653	-0.641384	-0.000022
N22	N	1.476789	-0.630571	0.000027
C23	C	1.362940	-0.599986	0.000015
O24	O	1.264855	-0.621490	-0.000008
C25	C	1.368269	-0.398294	0.000025
C26	C	1.483449	-0.378456	0.000047
C27	C	1.712461	-0.389199	0.000076
C28	C	1.713792	-0.338779	0.000089
C29	C	1.599951	-0.308197	0.000081
C30	C	1.484780	-0.328036	0.000061
C31	C	1.254421	-0.367709	0.000002
C32	C	1.255764	-0.317284	0.000001
C33	C	1.370944	-0.297446	0.000024
C34	C	1.372271	-0.247034	0.000066
N35	N	1.487444	-0.227193	0.000074
C36	C	1.601284	-0.257774	0.000081
C37	C	1.360150	-0.705877	0.000012
C38	C	1.358817	-0.756300	0.000012
C39	C	1.587840	-0.767041	0.000029
C40	C	1.589171	-0.716617	0.000039
C41	C	1.475323	-0.686036	0.000020
C42	C	1.604070	-0.151888	0.000110
C43	C	1.605391	-0.101463	0.000130
C44	C	1.376369	-0.090726	0.000105
C45	C	1.375047	-0.141147	0.000093
C46	C	1.488908	-0.171727	0.000091
O47	O	1.275631	-0.216352	0.000106
O48	O	1.699354	-0.236261	0.000071
C49	C	1.595959	-0.459458	0.000042
C50	C	1.480788	-0.479296	0.000021
C51	C	1.366947	-0.448715	0.000013
C52	C	1.479455	-0.529719	0.000021
C53	C	1.593296	-0.560301	0.000029
C54	C	1.708469	-0.540460	0.000036
C55	C	1.709799	-0.490040	0.000049
C56	C	1.251774	-0.468556	0.000006
C57	C	1.250453	-0.518976	-0.000006
C58	C	1.364293	-0.549558	0.000002
C59	C	1.711757	0.068360	0.000092
C60	C	1.851141	0.069781	0.000092
C61	C	1.471221	0.159455	0.000041
C62	C	1.472657	0.213118	0.000020
N63	N	1.482094	0.071115	0.346742
N64	N	1.482123	0.071118	-0.346587
C65	C	1.568130	0.038557	0.423413
C66	C	1.568142	0.038557	0.576750
C67	C	1.396079	0.103678	0.576731
C68	C	1.396062	0.103675	0.423397
H69	H	1.072179	0.152126	0.000012
H70	H	0.892018	-0.009888	0.000154
H71	H	1.129623	-0.007466	0.000109
N72	N	0.817762	0.158676	0.000060
N73	N	0.862113	0.198538	0.000029
H74	H	0.803471	0.229789	0.000031
N75	N	1.655996	0.005288	0.345136
N76	N	1.733666	0.020876	0.259550
H77	H	1.795722	-0.002627	0.204286
N78	N	1.308211	0.136932	0.655058
N79	N	1.308237	0.136931	0.791962
H80	H	1.246180	0.160418	0.847281
H81	H	1.805169	-0.414094	0.000077
N82	N	1.656006	0.005298	0.655089
N83	N	1.655997	0.005297	0.791993
H84	H	1.718045	-0.018196	0.847323
H85	H	1.265026	-0.772447	0.000019
H86	H	1.267435	-0.680982	-0.000004
N87	N	1.723062	-0.081208	0.000164
N88	N	1.824694	-0.108522	0.000170
H89	H	1.907798	-0.094219	0.000195
N90	N	1.720375	-0.183120	0.000150
N91	N	1.745179	-0.212458	0.102841
H92	H	1.827319	-0.234515	0.102881
H93	H	1.325996	0.130189	0.360967
N94	N	1.831458	-0.318527	0.000106
N95	N	1.933083	-0.345845	0.000107
H96	H	2.016193	-0.331546	0.000114
N97	N	1.132778	-0.539229	-0.000011
N98	N	1.031150	-0.511912	-0.000020
H99	H	0.948043	-0.526213	-0.000033
H100	H	1.163052	-0.292386	-0.000017
N101	N	1.706835	-0.696364	0.000069
N102	N	1.808464	-0.723680	0.000087
H103	H	1.891570	-0.709379	0.000108
N104	N	1.135482	-0.437322	-0.000022
N105	N	1.058664	-0.439351	-0.102710
H106	H	0.976524	-0.417294	-0.102725
N107	N	1.257400	-0.161417	0.000125
N108	N	1.180882	-0.152200	0.102816
H109	H	1.097792	-0.166514	0.102834
N110	N	1.704125	-0.798286	-0.000003
N111	N	1.780937	-0.796249	-0.102697
H112	H	1.863059	-0.818317	-0.102731
N113	N	1.136763	-0.387964	-0.000007
N114	N	1.060224	-0.378737	0.102658
H115	H	0.977121	-0.393040	0.102649
H116	H	1.283683	-0.065817	0.000104
N117	N	1.824744	-0.571711	0.000060
N118	N	1.823521	-0.616729	0.000054
H119	H	1.905634	-0.638802	0.000066
N120	N	1.827455	-0.469780	0.000093
N121	N	1.903967	-0.479019	0.102786
H122	H	1.987068	-0.464714	0.102818
