data_functionalizedCrystal
_audit_creation_method	'MofGen! by Chris Wilmer'
_symmetry_space_group_name_H-M	'P1'
_symmetry_Int_Tables_number	1
_symmetry_cell_setting	triclinic
loop_
_symmetry_equiv_pos_as_xyz
  x,y,z
_cell_length_a	14.560438
_cell_length_b	14.560438
_cell_length_c	14.560438
_cell_angle_alpha	90.000927
_cell_angle_beta	119.998503
_cell_angle_gamma	120.001055
loop_
_atom_site_label
_atom_site_type_symbol
_atom_site_fract_x
_atom_site_fract_y
_atom_site_fract_z
Zr1	Zr	-1.005305	0.884723	-0.120513
O2	O	-1.196908	0.738068	-0.267156
O3	O	-0.813702	0.929684	-0.075562
O4	O	-1.005309	0.929674	-0.267162
O5	O	-1.005299	0.738082	0.075585
O6	O	-1.005311	1.080813	-0.267164
O7	O	-1.005302	0.738078	-0.075556
O8	O	-0.662563	1.080830	0.075574
O9	O	-1.348048	0.738065	-0.267153
O10	O	-0.892514	1.061648	-0.056389
O11	O	-0.892510	0.948858	0.056407
O12	O	-1.118101	0.948847	-0.169177
O13	O	-1.118097	0.836057	-0.056382
Zr14	Zr	-1.005306	1.125777	0.120536
Zr15	Zr	-1.005310	1.125771	-0.120516
Zr16	Zr	-1.005301	0.884729	0.120539
Zr17	Zr	-1.246356	0.884717	-0.120508
Zr18	Zr	-0.764255	1.125783	0.120531
O19	O	-1.196909	1.080816	0.075585
O20	O	-1.196915	1.080808	-0.267160
O21	O	-1.196903	0.738077	0.075589
O22	O	-0.813703	1.272432	0.267180
O23	O	-0.813709	1.272423	-0.075566
O24	O	-0.813697	0.929693	0.267183
O25	O	-1.005312	1.272418	-0.075561
O26	O	-1.005302	1.080826	0.267186
O27	O	-1.005300	0.929688	0.267187
O28	O	-1.005309	1.272422	0.075579
O29	O	-1.348052	0.929666	-0.267155
O30	O	-0.662560	1.080835	0.267178
O31	O	-0.662563	1.272436	0.267176
O32	O	-0.662566	1.272431	0.075572
O33	O	-1.348045	0.738069	-0.075549
O34	O	-1.348048	0.929670	-0.075551
O35	O	-0.892510	1.061654	0.169201
O36	O	-0.892514	1.174444	0.056405
O37	O	-1.118102	1.061642	-0.056384
O38	O	-1.118098	0.948852	0.056412
C39	C	-0.703788	1.005258	0.000005
C40	C	-0.601456	1.005261	0.000003
C41	C	-0.457219	1.064136	-0.058869
C42	C	-0.553376	1.064134	-0.058877
C43	C	-0.553383	0.946377	0.058885
C44	C	-0.457234	0.946373	0.058886
C45	C	-1.005300	0.703736	0.000015
C46	C	-1.005298	0.601405	0.000016
C47	C	-0.306822	1.005247	0.000016
C48	C	-0.409150	1.005260	0.000011
C49	C	-0.887554	0.516046	0.058885
C50	C	-0.887546	0.612202	0.058886
C51	C	-1.123067	0.494443	-0.058869
C52	C	-1.123073	0.398290	-0.058876
C53	C	-1.005311	1.005243	-0.301508
C54	C	-1.005312	1.005240	-0.403841
C55	C	-1.005311	1.306764	0.000009
C56	C	-1.005313	1.409096	0.000008
C57	C	-1.123065	0.946360	-0.510792
C58	C	-1.123059	0.946373	-0.606940
C59	C	-0.887537	1.064148	-0.489174
C60	C	-0.887545	1.064140	-0.393028
C61	C	-1.005301	1.005258	0.301531
C62	C	-1.005299	1.005260	0.403864
C63	C	-0.703794	1.306772	0.000002
C64	C	-0.601463	1.409106	-0.000001
C65	C	-0.703783	1.005266	0.301525
C66	C	-0.601449	1.005271	0.403855
C67	C	-0.703788	1.306780	0.301522
C68	C	-0.601456	1.409116	0.403851
C69	C	-1.306823	0.703721	-0.301498
C70	C	-1.409155	0.601384	-0.403828
C71	C	-1.306818	0.703728	0.000021
C72	C	-1.409148	0.601395	0.000024
C73	C	-1.306828	1.005235	-0.301501
C74	C	-1.409162	1.005230	-0.403832
C75	C	-0.553385	1.398307	-0.058877
C76	C	-0.457243	1.494465	-0.058884
C77	C	-0.457260	1.612216	0.058870
C78	C	-0.553408	1.516060	0.058870
C79	C	-0.553370	1.064150	0.510808
C80	C	-0.457226	1.064142	0.606954
C81	C	-0.457243	0.946374	0.489183
C82	C	-0.553392	0.946376	0.393039
C83	C	-0.553380	1.516069	0.393051
C84	C	-0.457237	1.612221	0.489204
C85	C	-0.457250	1.494454	0.606956
C86	C	-0.553398	1.398304	0.510803
H87	H	-0.418099	0.898423	0.106833
H88	H	-0.418104	1.485662	-0.106829
H89	H	-0.592542	0.898436	0.106821
Br90	Br	-0.392016	0.866451	0.474512
H91	H	-0.791651	1.112093	-0.305937
H92	H	-0.592521	1.311225	-0.106825
Br93	Br	-0.618660	0.866451	0.247877
H94	H	-0.592513	1.112075	-0.106824
Br95	Br	-0.392033	1.757369	0.138766
Br96	Br	-0.618672	1.530714	0.138769
Br97	Br	-0.391999	1.757372	0.474540
Br98	Br	-0.727722	0.757349	0.138789
Br99	Br	-0.727737	0.530712	0.138794
Br100	Br	-0.618588	1.144078	0.525489
H101	H	-1.218943	0.485659	-0.106809
H102	H	-1.218944	0.898429	-0.694021
H103	H	-0.791655	1.112101	-0.480384
H104	H	-0.418108	1.485664	0.694045
H105	H	-0.418086	1.112086	0.694037
Br106	Br	-0.618606	1.530745	0.247905
H107	H	-1.218973	0.311200	-0.106828
Br108	Br	-0.391964	1.144054	-0.138769
H109	H	-0.592546	1.311212	0.519606
H110	H	-1.218959	0.898400	-0.519602
