data_functionalizedCrystal
_audit_creation_method	'MofGen! by Chris Wilmer'
_symmetry_space_group_name_H-M	'P1'
_symmetry_Int_Tables_number	1
_symmetry_cell_setting	triclinic
loop_
_symmetry_equiv_pos_as_xyz
  x,y,z
_cell_length_a	11.026660
_cell_length_b	10.654551
_cell_length_c	9.482900
_cell_angle_alpha	80.571981
_cell_angle_beta	101.363893
_cell_angle_gamma	96.535098
loop_
_atom_site_label
_atom_site_type_symbol
_atom_site_fract_x
_atom_site_fract_y
_atom_site_fract_z
O1	O	1.633371	0.511447	0.120880
O2	O	1.279563	0.451455	0.120883
O3	O	1.464601	0.300477	0.120883
O4	O	1.448333	0.662425	0.120881
O5	O	1.427017	0.331302	-0.120910
O6	O	1.241979	0.482279	-0.120909
O7	O	1.595787	0.542272	-0.120912
Cu8	Cu	1.415451	0.515090	-0.142988
Cu9	Cu	1.459899	0.478636	0.142959
O10	O	1.410749	0.693249	-0.120911
C11	C	1.215467	0.455799	-0.000012
C12	C	1.080476	0.422806	-0.000011
C13	C	0.867917	0.479818	-0.000006
C14	C	1.007437	0.513921	-0.000009
C15	C	1.444615	0.268832	-0.000010
C16	C	1.441042	0.128612	-0.000000
C17	C	1.459852	0.045934	0.131798
C18	C	1.456482	-0.085817	0.131791
C19	C	1.415495	-0.052199	-0.131824
C20	C	1.418857	0.079549	-0.131816
C21	C	1.482037	0.094996	0.263613
C22	C	1.500850	0.012317	0.395422
C23	C	1.497480	-0.119434	0.395416
C24	C	1.475296	-0.168506	0.263600
C25	C	1.659883	0.537927	-0.000013
C26	C	1.794876	0.570919	-0.000005
C27	C	1.430736	0.724894	-0.000015
C28	C	1.434310	0.865113	-0.000015
N29	N	1.384198	0.540731	-0.344108
C30	C	1.450672	0.486191	-0.416308
C31	C	1.424678	0.507536	-0.583725
N32	N	1.491162	0.452988	0.344079
H33	H	0.835631	0.674162	-0.000015
N34	N	1.592039	0.370193	-0.573638
H35	H	1.656175	0.422323	-0.510470
H36	H	1.632733	0.336743	-0.644912
N37	N	1.283310	0.623506	-0.426388
H38	H	1.279039	0.627018	-0.534323
H39	H	1.302444	0.712571	-0.399860
H40	H	1.472536	-0.275789	0.263605
N41	N	1.391596	-0.105119	-0.273988
H42	H	1.307989	-0.081677	-0.331617
H43	H	1.392392	-0.201113	-0.253869
H44	H	0.827157	0.376578	-0.000027
N45	N	1.061399	0.650689	-0.000023
H46	H	1.153417	0.655666	-0.000026
H47	H	1.047315	0.682511	0.089614
H48	H	1.484787	0.202273	0.263633
H49	H	1.039741	0.319544	0.000087
N50	N	1.398587	0.168743	-0.273960
H51	H	1.323835	0.217327	-0.279827
H52	H	1.384092	0.117595	-0.357388
N53	N	1.551521	0.403367	-0.334027
H54	H	1.555782	0.399843	-0.226093
H55	H	1.633873	0.440546	-0.360517
H56	H	1.518899	0.052279	0.502742
N57	N	1.517836	-0.208606	0.537571
H58	H	1.532426	-0.157526	0.621070
H59	H	1.592585	-0.257132	0.543235
H60	H	1.348513	0.570030	-0.645849
