data_functionalizedCrystal
_audit_creation_method	'MofGen! by Chris Wilmer'
_symmetry_space_group_name_H-M	'P1'
_symmetry_Int_Tables_number	1
_symmetry_cell_setting	triclinic
loop_
_symmetry_equiv_pos_as_xyz
  x,y,z
_cell_length_a	14.044202
_cell_length_b	13.930277
_cell_length_c	14.853567
_cell_angle_alpha	90.000757
_cell_angle_beta	91.586184
_cell_angle_gamma	89.995315
loop_
_atom_site_label
_atom_site_type_symbol
_atom_site_fract_x
_atom_site_fract_y
_atom_site_fract_z
O1	O	-1.257997	0.079767	0.217412
O2	O	-0.982017	0.079780	0.209559
O3	O	-1.127379	0.079776	0.082840
O4	O	-1.112635	0.079771	0.344131
O5	O	-1.127359	-0.079886	0.082836
O6	O	-0.981997	-0.079882	0.209555
O7	O	-1.257977	-0.079895	0.217407
Zn8	Zn	-1.119984	-0.105238	0.213480
Zn9	Zn	-1.120011	0.105123	0.213486
O10	O	-1.112615	-0.079891	0.344126
C11	C	-0.946688	-0.000049	0.206122
C12	C	-0.841449	-0.000044	0.195877
N13	N	-1.119973	-0.248804	0.213476
C14	C	-0.591234	-0.000054	0.249801
C15	C	-0.648767	-0.000051	0.177162
C16	C	-0.755985	-0.000047	0.187577
C17	C	-0.484006	-0.000058	0.239387
C18	C	-1.055642	-0.701072	0.269573
C19	C	-1.184405	-0.701045	0.157394
C20	C	-1.184394	-0.600549	0.157391
C21	C	-1.120007	-0.550310	0.213480
C22	C	-1.055631	-0.600567	0.269573
C23	C	-1.248775	-0.550285	0.101305
C24	C	-1.248767	-0.449783	0.101300
C25	C	-1.184375	-0.399542	0.157385
C26	C	-1.119995	-0.449805	0.213480
C27	C	-1.055608	-0.399566	0.269569
C28	C	-0.991223	-0.449827	0.325660
C29	C	-0.991238	-0.550326	0.325659
C30	C	-1.184360	-0.299043	0.157387
C31	C	-1.055597	-0.299061	0.269569
C32	C	-0.293306	-0.000063	0.220842
C33	C	-0.398546	-0.000061	0.231082
C34	C	-1.126701	-0.000052	0.049196
C35	C	-1.124699	-0.000044	-0.051046
N36	N	-1.120029	0.248689	0.213484
C37	C	-1.029889	-0.000057	-0.471095
C38	C	-1.202582	-0.000065	-0.478688
C39	C	-1.204464	-0.000060	-0.384505
C40	C	-1.119057	-0.000055	-0.333613
C41	C	-1.031768	-0.000055	-0.376903
C42	C	-1.291751	-0.000070	-0.341208
C43	C	-1.293637	-0.000065	-0.247019
C44	C	-1.208230	-0.000053	-0.196125
C45	C	-1.120937	-0.000052	-0.239421
C46	C	-1.035530	-0.000046	-0.188528
C47	C	-0.948237	-0.000039	-0.231823
C48	C	-0.946361	-0.000042	-0.326009
C49	C	-1.210106	-0.000049	-0.101939
C50	C	-1.037410	-0.000044	-0.094337
C51	C	-1.113293	-0.000061	0.377770
C52	C	-1.115295	-0.000063	0.478013
H53	H	-0.617500	0.000018	0.107150
H54	H	-1.272116	-0.000078	-0.520130
H55	H	-0.878699	-0.000041	-0.190374
H56	H	-0.875291	-0.000037	-0.361267
H57	H	-0.622500	-0.000052	0.319807
O58	O	-1.253769	-0.244823	0.096878
H59	H	-1.299887	-0.199014	0.138551
H60	H	-1.003161	-0.258162	0.315241
H61	H	-0.938802	-0.408911	0.371333
H62	H	-0.938819	-0.591255	0.371327
O63	O	-0.986204	-0.755271	0.330076
H64	H	-0.997028	-0.833595	0.320660
O65	O	-1.253851	-0.755223	0.096900
H66	H	-1.243041	-0.833550	0.106322
O67	O	-1.318221	-0.604465	0.040813
H68	H	-1.307403	-0.682792	0.050230
H69	H	-1.301192	-0.408866	0.055627
O70	O	-0.945292	-0.000047	-0.039445
H71	H	-0.884282	-0.000051	-0.085375
H72	H	-0.958816	-0.000047	-0.506349
O73	O	-1.304246	-0.000060	-0.055242
H74	H	-1.309241	0.065015	-0.012511
H75	H	-1.361285	-0.000083	-0.382651
O76	O	-1.387783	-0.000051	-0.200324
H77	H	-1.446854	-0.000044	-0.251537
