data_functionalizedCrystal
_audit_creation_method	'MofGen! by Chris Wilmer'
_symmetry_space_group_name_H-M	'P1'
_symmetry_Int_Tables_number	1
_symmetry_cell_setting	triclinic
loop_
_symmetry_equiv_pos_as_xyz
  x,y,z
_cell_length_a	14.853567
_cell_length_b	14.421503
_cell_length_c	14.853567
_cell_angle_alpha	90.005344
_cell_angle_beta	96.365070
_cell_angle_gamma	89.989953
loop_
_atom_site_label
_atom_site_type_symbol
_atom_site_fract_x
_atom_site_fract_y
_atom_site_fract_z
O1	O	1.196350	0.077040	-0.117698
O2	O	1.696350	0.577040	0.382302
O3	O	0.933891	0.077055	-0.131719
O4	O	1.433891	0.577055	0.368281
O5	O	1.072131	0.077050	0.006522
O6	O	1.572131	0.577050	0.506522
O7	O	1.058110	0.077045	-0.255938
O8	O	1.558110	0.577045	0.244062
O9	O	1.072148	-0.077174	0.006513
O10	O	1.572148	0.422826	0.506513
O11	O	0.933908	-0.077169	-0.131728
O12	O	1.433908	0.422831	0.368272
O13	O	1.196367	-0.077184	-0.117707
O14	O	1.696367	0.422816	0.382293
Cu15	Cu	1.065139	-0.091258	-0.124718
Cu16	Cu	1.565139	0.408742	0.375282
Cu17	Cu	1.065119	0.091129	-0.124707
Cu18	Cu	1.565119	0.591129	0.375293
O19	O	1.058127	-0.077179	-0.255947
O20	O	1.558127	0.422821	0.244053
C21	C	0.900311	-0.000055	-0.131088
C22	C	1.400311	0.499945	0.368912
C23	C	0.800227	-0.000049	-0.129184
C24	C	1.300227	0.499951	0.370816
N25	N	1.065160	-0.219539	-0.124725
N26	N	1.565160	0.280461	0.375275
C27	C	0.387693	-0.000068	-0.039019
C28	C	0.887693	0.499932	0.460981
C29	C	0.366412	-0.000070	-0.203251
C30	C	0.866412	0.499930	0.296749
C31	C	0.460446	-0.000067	-0.205042
C32	C	0.960446	0.499933	0.294958
C33	C	0.518108	-0.000063	-0.123819
C34	C	1.018108	0.499937	0.376181
C35	C	0.481736	-0.000062	-0.040806
C36	C	0.981736	0.499938	0.459194
C37	C	0.496825	-0.000059	-0.288053
C38	C	0.996825	0.499941	0.211947
C39	C	0.590864	-0.000055	-0.289846
C40	C	1.090864	0.499945	0.210154
C41	C	0.648528	-0.000058	-0.208623
C42	C	1.148528	0.499942	0.291377
C43	C	0.612150	-0.000058	-0.125607
C44	C	1.112150	0.499942	0.374393
C45	C	0.669812	-0.000054	-0.044384
C46	C	1.169812	0.499946	0.455616
C47	C	0.633437	-0.000060	0.038633
C48	C	1.133437	0.499940	0.538633
C49	C	0.539399	-0.000065	0.040417
C50	C	1.039399	0.499935	0.540417
C51	C	0.742565	-0.000053	-0.210407
C52	C	1.242565	0.499947	0.289593
C53	C	0.763855	-0.000048	-0.046172
C54	C	1.263855	0.499952	0.453828
C55	C	1.129096	-0.469170	-0.060789
C56	C	1.629096	0.030830	0.439211
C57	C	1.047611	-0.530962	-0.043178
C58	C	1.547611	-0.030962	0.456822
C59	C	1.065139	-0.408701	-0.124714
C60	C	1.565139	0.091299	0.375286
C61	C	1.146604	-0.531003	-0.142272
C62	C	1.646604	-0.031003	0.357728
C63	C	1.065127	-0.591422	-0.124701
C64	C	1.565127	-0.091422	0.375299
C65	C	0.983614	-0.469132	-0.107063
C66	C	1.483614	0.030868	0.392937
C67	C	1.082661	-0.469167	-0.206193
C68	C	1.582661	0.030833	0.293807
C69	C	1.001118	-0.530931	-0.188616
C70	C	1.501118	-0.030931	0.311384
C71	C	1.065148	-0.303440	-0.124719
C72	C	1.565148	0.196560	0.375281
C73	C	1.065110	-0.696681	-0.124697
C74	C	1.565110	-0.196681	0.375303
C75	C	1.229947	-0.000072	-0.118337
C76	C	1.729947	0.499928	0.381663
C77	C	1.330031	-0.000072	-0.120241
C78	C	1.830031	0.499928	0.379759
C79	C	1.071504	-0.000059	0.040106
C80	C	1.571504	0.499941	0.540106
C81	C	1.069601	-0.000051	0.140189
C82	C	1.569601	0.499949	0.640189
N83	N	1.065106	0.219410	-0.124693
N84	N	1.565106	0.719410	0.375307
C85	C	1.058754	-0.000068	-0.289531
C86	C	1.558754	0.499932	0.210469
C87	C	1.060657	-0.000070	-0.389615
C88	C	1.560657	0.499930	0.110385
C89	C	0.979435	-0.000064	0.552723
C90	C	1.479435	0.499936	1.052723
C91	C	1.143668	-0.000073	0.574004
C92	C	1.643668	0.499927	1.074004
C93	C	1.145458	-0.000068	0.479971
C94	C	1.645458	0.499932	0.979971
C95	C	1.064235	-0.000062	0.422309
C96	C	1.564235	0.499938	0.922309
C97	C	0.981223	-0.000061	0.458680
C98	C	1.481223	0.499939	0.958680
C99	C	1.228469	-0.000078	0.443591
C100	C	1.728469	0.499922	0.943591
C101	C	1.230262	-0.000073	0.349552
C102	C	1.730262	0.499927	0.849552
C103	C	1.149039	-0.000061	0.291889
C104	C	1.649039	0.499939	0.791889
C105	C	1.066023	-0.000059	0.328266
C106	C	1.566023	0.499941	0.828266
C107	C	0.984800	-0.000053	0.270604
C108	C	1.484800	0.499947	0.770604
C109	C	0.901783	-0.000045	0.306979
C110	C	1.401783	0.499955	0.806979
C111	C	0.899999	-0.000049	0.401017
C112	C	1.399999	0.499951	0.901017
C113	C	1.150823	-0.000057	0.197851
C114	C	1.650823	0.499943	0.697851
C115	C	0.986588	-0.000051	0.176561
C116	C	1.486588	0.499949	0.676561
H117	H	0.810798	-0.000048	0.019971
H118	H	1.310798	0.499952	0.519971
H119	H	1.218414	-0.000070	0.168238
H120	H	1.718414	0.499930	0.668238
Cl121	Cl	0.917518	-0.572538	-0.272079
Cl122	Cl	1.417518	-0.072538	0.227921
H123	H	0.449870	-0.000052	-0.354180
H124	H	0.949870	0.499948	0.145820
Cl125	Cl	1.334624	-0.000068	0.303832
Cl126	Cl	1.834624	0.499932	0.803832
H127	H	0.680397	-0.000051	0.104764
H128	H	1.180397	0.499949	0.604764
H129	H	1.097518	-0.442002	-0.275081
H130	H	1.597518	0.057998	0.224919
Cl131	Cl	0.293923	-0.000062	-0.305354
Cl132	Cl	0.793923	0.499938	0.194646
H133	H	0.509774	-0.000093	0.108005
H134	H	1.009774	0.499907	0.608005
H135	H	0.914699	-0.442069	-0.092128
H136	H	1.414699	0.057931	0.407872
H137	H	1.032780	-0.558107	0.025732
H138	H	1.532780	-0.058107	0.525732
H139	H	0.620472	-0.000049	-0.357443
H140	H	1.120472	0.499951	0.142557
Cl141	Cl	0.341967	-0.000081	0.065340
Cl142	Cl	0.841967	0.499919	0.565340
Cl143	Cl	1.330570	-0.000105	0.516083
Cl144	Cl	1.830570	0.499895	1.016083
H145	H	0.772178	-0.000049	-0.277998
H146	H	1.272178	0.499951	0.222002
Cl147	Cl	1.212512	-0.427297	0.022718
Cl148	Cl	1.712512	0.072703	0.522718
H149	H	0.920445	-0.000042	0.129618
H150	H	1.420445	0.499958	0.629618
H151	H	1.215503	-0.558180	-0.157129
H152	H	1.715503	-0.058180	0.342871
H153	H	0.835652	-0.000047	0.260019
H154	H	1.335652	0.499953	0.760019
Cl155	Cl	0.795645	-0.000036	0.446752
Cl156	Cl	1.295645	0.499964	0.946752
H157	H	0.911844	-0.000053	0.582344
H158	H	1.411844	0.499947	1.082344
H159	H	1.209795	-0.000085	0.620958
H160	H	1.709795	0.499915	1.120958
