data_functionalizedCrystal
_audit_creation_method	'MofGen! by Chris Wilmer'
_symmetry_space_group_name_H-M	'P1'
_symmetry_Int_Tables_number	1
_symmetry_cell_setting	triclinic
loop_
_symmetry_equiv_pos_as_xyz
  x,y,z
_cell_length_a	10.540539
_cell_length_b	10.723024
_cell_length_c	9.198806
_cell_angle_alpha	90.003648
_cell_angle_beta	89.998955
_cell_angle_gamma	95.503320
loop_
_atom_site_label
_atom_site_type_symbol
_atom_site_fract_x
_atom_site_fract_y
_atom_site_fract_z
O1	O	0.178046	-1.657276	-0.120876
O2	O	0.678046	-1.157276	0.379124
O3	O	0.195088	-1.294132	-0.120880
O4	O	0.695088	-0.794132	0.379120
O5	O	0.001856	-1.483989	-0.120876
O6	O	0.501856	-0.983989	0.379124
O7	O	0.371278	-1.467419	-0.120880
O8	O	0.871278	-0.967419	0.379120
O9	O	0.001856	-1.483974	0.120909
O10	O	0.501856	-0.983974	0.620909
O11	O	0.195088	-1.294117	0.120905
O12	O	0.695088	-0.794117	0.620905
O13	O	0.178045	-1.657261	0.120909
O14	O	0.678045	-1.157261	0.620909
Cu15	Cu	0.186567	-1.475688	0.142984
Cu16	Cu	0.686567	-0.975688	0.642984
Cu17	Cu	0.186567	-1.475706	-0.142955
Cu18	Cu	0.686567	-0.975706	0.357045
O19	O	0.371277	-1.467404	0.120905
O20	O	0.871277	-0.967404	0.620905
C21	C	0.193848	-1.247624	0.000012
C22	C	0.693848	-0.747624	0.500012
C23	C	0.190137	-1.109068	0.000010
C24	C	0.690137	-0.609068	0.500010
C25	C	-0.045446	-1.482739	0.000014
C26	C	0.454554	-0.982739	0.500014
C27	C	-0.186392	-1.479021	0.000006
C28	C	0.313608	-0.979021	0.500006
N29	N	0.186565	-1.475684	0.344098
N30	N	0.686565	-0.975684	0.844098
C31	C	-0.369746	-1.336563	-0.000538
C32	C	0.130254	-0.836563	0.499462
C33	C	-0.223130	-1.340332	0.000006
C34	C	0.276870	-0.840332	0.500006
C35	C	-0.248085	-1.545756	0.138078
C36	C	0.251915	-1.045756	0.638078
C37	C	-0.394627	-1.541023	0.138194
C38	C	0.105373	-1.041023	0.638194
C39	C	-0.395146	-1.543861	-0.136760
C40	C	0.104854	-1.043861	0.363240
C41	C	-0.248164	-1.545138	-0.138586
C42	C	0.251836	-1.045138	0.361414
C43	C	0.418580	-1.468654	0.000012
C44	C	0.918580	-0.968654	0.500012
C45	C	0.559526	-1.472372	0.000011
C46	C	1.059526	-0.972372	0.500011
C47	C	0.179286	-1.703769	0.000014
C48	C	0.679286	-1.203769	0.500014
C49	C	0.182997	-1.842325	0.000007
C50	C	0.682997	-1.342325	0.500007
C51	C	0.298260	-1.034139	0.000008
C52	C	0.798260	-0.534139	0.500008
C53	C	0.294427	-0.890934	0.000006
C54	C	0.794427	-0.390934	0.500006
N55	N	0.186558	-1.475719	-0.344069
N56	N	0.686558	-0.975719	0.155931
C57	C	0.105075	-1.555399	0.416297
C58	C	0.605075	-1.055399	0.916297
C59	C	0.105071	-1.555419	0.583709
C60	C	0.605071	-1.055419	1.083709
H61	H	-0.180499	-1.287821	-0.098969
H62	H	0.319501	-0.787821	0.401031
C63	C	0.419475	-0.803963	0.000005
C64	C	0.919475	-0.303963	0.500005
H65	H	0.400494	-0.719123	0.000013
H66	H	0.900494	-0.219123	0.500013
H67	H	0.467540	-0.819554	-0.084309
H68	H	0.967540	-0.319554	0.415691
H69	H	0.467531	-0.819542	0.084334
H70	H	0.967531	-0.319542	0.584334
H71	H	-0.422801	-1.491690	0.241405
H72	H	0.077199	-0.991690	0.741405
H73	H	-0.223995	-1.646253	-0.146922
H74	H	0.276005	-1.146253	0.353078
C75	C	0.280798	-1.383484	0.428007
C76	C	0.780798	-0.883484	0.928007
H77	H	0.331914	-1.333458	0.361001
H78	H	0.831914	-0.833458	0.861001
H79	H	0.333871	-1.429035	0.487389
H80	H	0.833871	-0.929035	0.987389
H81	H	0.234732	-1.331050	0.487380
H82	H	0.734732	-0.831050	0.987380
H83	H	0.090430	-0.906704	-0.000001
H84	H	0.590430	-0.406704	0.499999
H85	H	-0.398318	-1.281784	-0.099552
H86	H	0.101682	-0.781784	0.400448
H87	H	-0.442423	-1.644035	-0.137688
H88	H	0.057577	-1.144035	0.362312
C89	C	-0.459504	-1.675758	0.146686
C90	C	0.040496	-1.175758	0.646686
H91	H	-0.396265	-1.733141	0.150062
H92	H	0.103735	-1.233141	0.650062
H93	H	-0.511688	-1.692514	0.063433
H94	H	-0.011688	-1.192514	0.563433
H95	H	-0.510565	-1.684744	0.231834
H96	H	-0.010565	-1.184744	0.731834
H97	H	0.094732	-1.067199	-0.000026
H98	H	0.594732	-0.567199	0.499974
H99	H	0.035306	-1.623629	0.354172
H100	H	0.535306	-1.123629	0.854172
H101	H	0.393665	-1.076009	0.000015
H102	H	0.893665	-0.576009	0.500015
C103	C	0.010815	-1.647620	0.667568
C104	C	0.510815	-1.147620	1.167568
H105	H	-0.040303	-1.697625	0.600539
H106	H	0.459697	-1.197625	1.100539
H107	H	-0.042254	-1.602064	0.726959
H108	H	0.457746	-1.102064	1.226959
H109	H	0.056859	-1.700076	0.726929
H110	H	0.556859	-1.200076	1.226929
H111	H	-0.205461	-1.499386	0.240826
H112	H	0.294539	-0.999386	0.740826
H113	H	-0.399926	-1.281995	0.097920
H114	H	0.100074	-0.781995	0.597920
H115	H	-0.181347	-1.287441	0.099145
H116	H	0.318653	-0.787441	0.599145
H117	H	-0.225783	-1.647605	0.143213
H118	H	0.274217	-1.147605	0.643213
H119	H	-0.426675	-1.498980	-0.241410
H120	H	0.073325	-0.998980	0.258590
C121	C	-0.192827	-1.479274	-0.276578
C122	C	0.307173	-0.979274	0.223422
H123	H	-0.132324	-1.411767	-0.249857
H124	H	0.367676	-0.911767	0.250143
H125	H	-0.259652	-1.448034	-0.330793
H126	H	0.240348	-0.948034	0.169207
H127	H	-0.152335	-1.537391	-0.334206
H128	H	0.347665	-1.037391	0.165794
H129	H	0.256334	-1.407472	0.593853
H130	H	0.756334	-0.907472	1.093853
