data_functionalizedCrystal
_audit_creation_method	'MofGen! by Chris Wilmer'
_symmetry_space_group_name_H-M	'P1'
_symmetry_Int_Tables_number	1
_symmetry_cell_setting	triclinic
loop_
_symmetry_equiv_pos_as_xyz
  x,y,z
_cell_length_a	21.395362
_cell_length_b	16.959454
_cell_length_c	21.395356
_cell_angle_alpha	89.977834
_cell_angle_beta	89.957023
_cell_angle_gamma	90.035955
loop_
_atom_site_label
_atom_site_type_symbol
_atom_site_fract_x
_atom_site_fract_y
_atom_site_fract_z
Zn1	Zn	0.957900	-0.314366	-0.354610
Zn2	Zn	1.457900	0.185634	0.145390
Zn3	Zn	0.957824	-0.446548	-0.249842
Zn4	Zn	1.457824	0.053452	0.250158
Zn5	Zn	0.853117	-0.314424	-0.249811
Zn6	Zn	1.353117	0.185576	0.250189
Zn7	Zn	0.853103	-0.446544	-0.354547
Zn8	Zn	1.353103	0.053456	0.145453
O9	O	0.905486	-0.380471	-0.302202
O10	O	1.405486	0.119529	0.197798
O11	O	1.045568	-0.331878	-0.340751
O12	O	1.545568	0.168122	0.159249
O13	O	0.943907	-0.429048	-0.162160
O14	O	1.443907	0.070952	0.337840
O15	O	0.867054	-0.203806	-0.263726
O16	O	1.367054	0.296194	0.236274
O17	O	1.045512	-0.428992	-0.263779
O18	O	1.545512	0.071008	0.236221
O19	O	0.944038	-0.203763	-0.340721
O20	O	1.444038	0.296237	0.159279
O21	O	0.866980	-0.331977	-0.162137
O22	O	1.366980	0.168023	0.337863
O23	O	0.765437	-0.331973	-0.263665
O24	O	1.265437	0.168027	0.236335
O25	O	0.867031	-0.428984	-0.442233
O26	O	1.367031	0.071016	0.057767
O27	O	0.765427	-0.429040	-0.340614
O28	O	1.265427	0.070960	0.159386
O29	O	0.944025	-0.331874	-0.442279
O30	O	1.444025	0.168126	0.057721
O31	O	0.943895	-0.557159	-0.263718
O32	O	1.443895	-0.057159	0.236282
O33	O	0.866957	-0.557155	-0.340645
O34	O	1.366957	-0.057155	0.159355
C35	C	0.742698	-0.380513	-0.302130
C36	C	1.242698	0.119487	0.197870
C37	C	0.673057	-0.380549	-0.302114
C38	C	1.173057	0.119451	0.197886
C39	C	0.640355	-0.431159	-0.342121
C40	C	1.140355	0.068841	0.157879
C41	C	0.574920	-0.431140	-0.342149
C42	C	1.074920	0.068860	0.157851
C43	C	0.542189	-0.380519	-0.302158
C44	C	1.042189	0.119481	0.197842
C45	C	0.574898	-0.329899	-0.262148
C46	C	1.074898	0.170101	0.237852
C47	C	0.640332	-0.329914	-0.262126
C48	C	1.140332	0.170086	0.237874
C49	C	0.438464	-0.374163	-0.245752
C50	C	0.938464	0.125837	0.254248
C51	C	0.373031	-0.374153	-0.245774
C52	C	0.873031	0.125847	0.254226
C53	C	0.340368	-0.380467	-0.302227
C54	C	0.840368	0.119533	0.197773
C55	C	0.373146	-0.386808	-0.358661
C56	C	0.873146	0.113192	0.141339
C57	C	0.438580	-0.386823	-0.358639
C58	C	0.938580	0.113177	0.141361
C59	C	0.471236	-0.380496	-0.302178
C60	C	0.971236	0.119504	0.197822
C61	C	0.236714	-0.431059	-0.342268
C62	C	0.736714	0.068941	0.157732
C63	C	0.171277	-0.431034	-0.342297
C64	C	0.671277	0.068966	0.157703
C65	C	0.171257	-0.329797	-0.262291
C66	C	0.671257	0.170203	0.237709
C67	C	0.236692	-0.329818	-0.262267
C68	C	0.736692	0.170182	0.237733
C69	C	0.269417	-0.380453	-0.302255
C70	C	0.769417	0.119547	0.197745
C71	C	0.905433	-0.585837	-0.302192
C72	C	1.405433	-0.085837	0.197808
C73	C	0.905468	-0.673694	-0.302208
C74	C	1.405468	-0.173694	0.197792
C75	C	0.865483	-1.045197	-0.342254
C76	C	1.365483	-0.545197	0.157746
C77	C	0.945664	-1.045141	-0.262215
C78	C	1.445664	-0.545141	0.237785
C79	C	0.945642	-0.962595	-0.262209
C80	C	1.445642	-0.462595	0.237791
C81	C	0.905539	-0.921346	-0.302226
C82	C	1.405539	-0.421346	0.197774
C83	C	0.865458	-0.962644	-0.342248
C84	C	1.365458	-0.462644	0.157752
C85	C	0.985717	-0.921292	-0.222184
C86	C	1.485717	-0.421292	0.277816
C87	C	0.985696	-0.838741	-0.222176
C88	C	1.485696	-0.338741	0.277824
C89	C	0.945596	-0.797491	-0.262196
C90	C	1.445596	-0.297491	0.237804
C91	C	0.905515	-0.838793	-0.302220
C92	C	1.405515	-0.338793	0.197780
C93	C	0.865412	-0.797544	-0.342236
C94	C	1.365412	-0.297544	0.157764
C95	C	0.825333	-0.838845	-0.382264
C96	C	1.325333	-0.338845	0.117736
C97	C	0.825358	-0.921394	-0.382268
C98	C	1.325358	-0.421394	0.117732
C99	C	0.945571	-0.714942	-0.262192
C100	C	1.445571	-0.214942	0.237808
C101	C	0.865387	-0.714991	-0.342230
C102	C	1.365387	-0.214991	0.157770
C103	C	1.068909	-0.380429	-0.302276
C104	C	1.568909	0.119571	0.197724
C105	C	1.138550	-0.380412	-0.302307
C106	C	1.638550	0.119588	0.197693
C107	C	0.905535	-0.380422	-0.465626
C108	C	1.405535	0.119578	0.034374
C109	C	0.905556	-0.380401	-0.535267
C110	C	1.405556	0.119599	-0.035267
C111	C	0.905556	-0.174302	-0.302227
C112	C	1.405556	0.325698	0.197773
C113	C	0.905585	-0.086446	-0.302237
C114	C	1.405585	0.413554	0.197763
C115	C	0.865511	-0.329850	-0.567958
C116	C	1.365511	0.170150	-0.067958
C117	C	0.865508	-0.329836	-0.633394
C118	C	1.365508	0.170164	-0.133394
C119	C	0.905563	-0.380363	-0.666135
C120	C	1.405563	0.119637	-0.166135
C121	C	0.945611	-0.430924	-0.633436
C122	C	1.445611	0.069076	-0.133436
C123	C	0.945608	-0.430942	-0.568002
C124	C	1.445608	0.069058	-0.068002
C125	C	0.962016	-0.386558	-0.769841
C126	C	1.462016	0.113442	-0.269841
C127	C	0.962020	-0.386533	-0.835274
C128	C	1.462020	0.113467	-0.335274
C129	C	0.905573	-0.380310	-0.867956
C130	C	1.405573	0.119690	-0.367956
C131	C	0.849120	-0.374094	-0.835197
C132	C	1.349120	0.125906	-0.335197
C133	C	0.849117	-0.374113	-0.769763
C134	C	1.349117	0.125887	-0.269763
C135	C	0.905571	-0.380349	-0.737088
C136	C	1.405571	0.119651	-0.237088
C137	C	0.865522	-0.329741	-0.971600
C138	C	1.365522	0.170259	-0.471600
C139	C	0.865519	-0.329732	-1.037037
C140	C	1.365519	0.170268	-0.537037
C141	C	0.945627	-0.430815	-1.037078
C142	C	1.445627	0.069185	-0.537078
C143	C	0.945625	-0.430829	-0.971643
C144	C	1.445625	0.069171	-0.471643
C145	C	0.905573	-0.380287	-0.938908
C146	C	1.405573	0.119713	-0.438908
C147	C	0.905473	-0.380462	-0.139415
C148	C	1.405473	0.119538	0.360585
C149	C	0.905573	-0.380261	-0.069774
C150	C	1.405573	0.119739	0.430226
H151	H	0.144652	-0.472245	-0.374880
H152	H	0.644652	0.027755	0.125120
H153	H	0.666995	-0.472389	-0.374683
H154	H	1.166995	0.027611	0.125317
H155	H	0.832733	-0.681411	-0.374819
H156	H	1.332733	-0.181411	0.125181
H157	H	0.832853	-1.078828	-0.374845
H158	H	1.332853	-0.578828	0.125155
H159	H	0.803156	-0.369021	-0.861805
H160	H	1.303156	0.130979	-0.361805
H161	H	0.978221	-0.472106	-0.541385
H162	H	1.478221	0.027894	-0.041385
H163	H	1.018362	-0.954882	-0.189600
H164	H	1.518362	-0.454882	0.310400
H165	H	0.978242	-0.471954	-1.063736
H166	H	1.478242	0.028046	-0.563736
H167	H	0.832909	-0.288587	-0.944946
H168	H	1.332909	0.211413	-0.444946
H169	H	0.548289	-0.472352	-0.374730
H170	H	1.048289	0.027648	0.125270
H171	H	0.263359	-0.472285	-0.374832
H172	H	0.763359	0.027715	0.125168
H173	H	0.263318	-0.288610	-0.229686
H174	H	0.763318	0.211390	0.270314
H175	H	1.018331	-0.805119	-0.189584
H176	H	1.518331	-0.305119	0.310416
H177	H	0.792727	-0.955028	-0.414855
H178	H	1.292727	-0.455028	0.085145
H179	H	0.465265	-0.391984	-0.404590
H180	H	0.965265	0.108016	0.095410
H181	H	0.978200	-0.681319	-0.229599
H182	H	1.478200	-0.181319	0.270401
H183	H	0.978236	-0.471991	-0.945025
H184	H	1.478236	0.028009	-0.445025
H185	H	0.346553	-0.391949	-0.404632
H186	H	0.846553	0.108051	0.095368
H187	H	0.792678	-0.805251	-0.414843
H188	H	1.292678	-0.305251	0.085157
H189	H	0.832895	-0.288698	-0.541310
H190	H	1.332895	0.211302	-0.041310
H191	H	0.832904	-0.288570	-1.063653
H192	H	1.332904	0.211430	-0.563653
H193	H	0.144608	-0.288577	-0.229733
H194	H	0.644608	0.211423	0.270267
H195	H	0.978310	-1.078731	-0.229632
H196	H	1.478310	-0.578731	0.270368
H197	H	0.832900	-0.288667	-0.660016
H198	H	1.332900	0.211333	-0.160016
H199	H	1.007988	-0.391591	-0.861942
H200	H	1.507988	0.108409	-0.361942
H201	H	1.007986	-0.391619	-0.743237
H202	H	1.507986	0.108381	-0.243237
H203	H	0.803150	-0.369053	-0.743093
H204	H	1.303150	0.130947	-0.243093
H205	H	0.978224	-0.472064	-0.660099
H206	H	1.478224	0.027936	-0.160099
H207	H	0.346348	-0.368995	-0.199822
H208	H	0.846348	0.131005	0.300178
H209	H	0.548244	-0.288682	-0.229588
H210	H	1.048244	0.211318	0.270412
H211	H	0.666958	-0.288699	-0.229547
H212	H	1.166958	0.211301	0.270453
H213	H	0.465053	-0.369017	-0.199778
H214	H	0.965053	0.130983	0.300222
