data_functionalizedCrystal
_audit_creation_method	'MofGen! by Chris Wilmer'
_symmetry_space_group_name_H-M	'P1'
_symmetry_Int_Tables_number	1
_symmetry_cell_setting	triclinic
loop_
_symmetry_equiv_pos_as_xyz
  x,y,z
_cell_length_a	19.077105
_cell_length_b	16.625546
_cell_length_c	19.076919
_cell_angle_alpha	87.730083
_cell_angle_beta	89.923776
_cell_angle_gamma	87.718759
loop_
_atom_site_label
_atom_site_type_symbol
_atom_site_fract_x
_atom_site_fract_y
_atom_site_fract_z
Zn1	Zn	1.058283	-0.390077	0.440407
Zn2	Zn	1.558283	0.109923	0.940407
Zn3	Zn	1.062927	-0.519720	0.322896
Zn4	Zn	1.562927	-0.019720	0.822896
Zn5	Zn	0.945500	-0.379275	0.318200
Zn6	Zn	1.445500	0.120725	0.818200
Zn7	Zn	0.940748	-0.519234	0.435649
Zn8	Zn	1.440748	-0.019234	0.935649
O9	O	1.001864	-0.452076	0.379288
O10	O	1.501864	0.047924	0.879288
O11	O	1.157231	-0.411998	0.428775
O12	O	1.657231	0.088002	0.928775
O13	O	1.051282	-0.496773	0.223942
O14	O	1.551282	0.003227	0.723942
O15	O	0.960506	-0.267879	0.334437
O16	O	1.460506	0.232121	0.834437
O17	O	1.160642	-0.507246	0.342441
O18	O	1.660642	-0.007246	0.842441
O19	O	1.043367	-0.275815	0.424222
O20	O	1.543367	0.224185	0.924222
O21	O	0.965009	-0.393589	0.220492
O22	O	1.465009	0.106411	0.720492
O23	O	0.846538	-0.393117	0.329824
O24	O	1.346538	0.106883	0.829824
O25	O	0.952407	-0.506418	0.534611
O26	O	1.452407	-0.006418	1.034611
O27	O	0.843047	-0.495944	0.416113
O28	O	1.343047	0.004056	0.916113
O29	O	1.038759	-0.411527	0.538107
O30	O	1.538759	0.088473	1.038107
O31	O	1.046674	-0.632485	0.337827
O32	O	1.546674	-0.132485	0.837827
O33	O	0.956910	-0.632127	0.420666
O34	O	1.456910	-0.132127	0.920666
C35	C	0.819296	-0.443306	0.371943
C36	C	1.319296	0.056694	0.871943
C37	C	0.741192	-0.439575	0.368817
C38	C	1.241192	0.060425	0.868817
C39	C	0.702702	-0.491432	0.412204
C40	C	1.202702	0.008568	0.912204
C41	C	0.629314	-0.487916	0.409270
C42	C	1.129314	0.012084	0.909270
C43	C	0.594418	-0.432544	0.362946
C44	C	1.094418	0.067456	0.862946
C45	C	0.632913	-0.380681	0.319557
C46	C	1.132913	0.119319	0.819557
C47	C	0.706299	-0.384194	0.322495
C48	C	1.206299	0.115806	0.822495
C49	C	0.375130	-0.416284	0.349354
C50	C	0.875130	0.083716	0.849354
C51	C	0.301739	-0.412776	0.346418
C52	C	0.801739	0.087224	0.846418
C53	C	0.298145	-0.520010	0.436133
C54	C	0.798145	-0.020010	0.936133
C55	C	0.371533	-0.523522	0.439063
C56	C	0.871533	-0.023522	0.939063
C57	C	0.410021	-0.471655	0.395677
C58	C	0.910021	0.028345	0.895677
N59	N	0.519405	-0.428950	0.359945
N60	N	1.019405	0.071050	0.859945
N61	N	0.485034	-0.475247	0.398682
N62	N	0.985034	0.024753	0.898682
C63	C	1.001799	-0.661563	0.379256
C64	C	1.501799	-0.161563	0.879256
C65	C	1.001834	-0.751186	0.379268
C66	C	1.501834	-0.251186	0.879268
C67	C	1.001954	-1.079371	0.379346
C68	C	1.501954	-0.579371	0.879346
C69	C	1.001918	-0.988060	0.379327
C70	C	1.501918	-0.488060	0.879327
C71	C	1.001894	-0.915281	0.379307
C72	C	1.501894	-0.415281	0.879307
C73	C	1.001859	-0.823965	0.379288
C74	C	1.501859	-0.323965	0.879288
C75	C	1.185146	-0.460881	0.386662
C76	C	1.685146	0.039119	0.886662
C77	C	1.263249	-0.464634	0.389805
C78	C	1.763249	0.035366	0.889805
C79	C	0.994535	-0.460123	0.562568
C80	C	1.494535	0.039877	1.062568
C81	C	0.991412	-0.463552	0.640671
C82	C	1.491412	0.036448	1.140671
C83	C	1.001948	-0.241774	0.379336
C84	C	1.501948	0.258226	0.879336
C85	C	1.001984	-0.152155	0.379357
C86	C	1.501984	0.347845	0.879357
C87	C	1.009205	-0.444005	0.196723
C88	C	1.509205	0.055995	0.696723
C89	C	1.012465	-0.440356	0.118626
C90	C	1.512465	0.059644	0.618626
C91	C	1.034901	-0.415760	0.679185
C92	C	1.534901	0.084240	1.179185
C93	C	1.031958	-0.418978	0.752571
C94	C	1.531958	0.081022	1.252571
C95	C	0.985529	-0.469993	0.787441
C96	C	1.485529	0.030007	1.287441
C97	C	0.942035	-0.517786	0.748922
C98	C	1.442035	-0.017786	1.248922
C99	C	0.944975	-0.514563	0.675537
C100	C	1.444975	-0.014563	1.175537
C101	C	0.971911	-0.484926	1.006722
C102	C	1.471911	0.015074	1.506722
C103	C	0.968976	-0.488147	1.080112
C104	C	1.468976	0.011853	1.580112
C105	C	1.058898	-0.389338	1.083755
C106	C	1.558898	0.110662	1.583755
C107	C	1.061837	-0.386123	1.010369
C108	C	1.561837	0.113877	1.510369
C109	C	1.018341	-0.433913	0.971856
C110	C	1.518341	0.066087	1.471856
N111	N	0.982521	-0.473286	0.862453
N112	N	1.482521	0.026714	1.362453
N113	N	1.021346	-0.430616	0.896846
N114	N	1.521346	0.069384	1.396846
H115	H	0.604495	-0.335593	0.281842
H116	H	1.104495	0.164407	0.781842
H117	H	1.072711	-0.374221	0.650799
H118	H	1.572711	0.125779	1.150799
H119	H	0.597979	-0.530145	0.444600
H120	H	1.097979	-0.030145	0.944600
C121	C	1.079812	-0.366430	0.794937
C122	C	1.579812	0.133570	1.294937
H123	H	1.071412	-0.375653	0.843636
H124	H	1.571412	0.124347	1.343636
H125	H	1.127497	-0.379989	0.784803
H126	H	1.627497	0.120011	1.284803
H127	H	1.070045	-0.311226	0.782515
H128	H	1.570045	0.188774	1.282515
H129	H	0.737637	-0.341962	0.287168
H130	H	1.237637	0.158038	0.787168
C131	C	1.106735	-0.336767	1.126120
C132	C	1.606735	0.163233	1.626120
H133	H	1.098332	-0.345986	1.174820
H134	H	1.598332	0.154014	1.674820
H135	H	1.154425	-0.350304	1.115994
H136	H	1.654425	0.149696	1.615994
H137	H	1.096947	-0.281569	1.113691
H138	H	1.596947	0.218431	1.613691
H139	H	0.904228	-0.559320	0.777319
H140	H	1.404228	-0.059320	1.277319
C141	C	1.112910	-0.330007	0.972017
C142	C	1.612910	0.169993	1.472017
H143	H	1.138387	-0.302001	1.005465
H144	H	1.638387	0.197999	1.505465
H145	H	1.144659	-0.361067	0.944617
H146	H	1.644659	0.138933	1.444617
H147	H	1.087189	-0.292324	0.942314
H148	H	1.587189	0.207676	1.442314
C149	C	0.263352	-0.351872	0.295454
C150	C	0.763352	0.148128	0.795454
H151	H	0.214134	-0.357220	0.299912
H152	H	0.714134	0.142780	0.799912
H153	H	0.274973	-0.298743	0.306299
H154	H	0.774973	0.201257	0.806299
H155	H	0.277259	-0.362100	0.248704
H156	H	0.777259	0.137900	0.748704
H157	H	0.406459	-0.374056	0.314021
H158	H	0.906459	0.125944	0.814021
C159	C	0.917899	-0.544263	1.118468
C160	C	1.417899	-0.044263	1.618468
H161	H	0.892411	-0.572259	1.085021
H162	H	1.392411	-0.072259	1.585021
H163	H	0.943618	-0.581944	1.148169
H164	H	1.443618	-0.081944	1.648169
H165	H	0.886150	-0.513199	1.145870
H166	H	1.386150	-0.013199	1.645870
C167	C	0.924052	-0.537476	0.964366
C168	C	1.424052	-0.037476	1.464366
H169	H	0.895981	-0.568318	0.995646
H170	H	1.395981	-0.068318	1.495646
H171	H	0.894599	-0.503888	0.934523
H172	H	1.394599	-0.003888	1.434523
H173	H	0.952050	-0.572651	0.936804
H174	H	1.452050	-0.072651	1.436804
H175	H	0.909554	-0.553472	0.644180
H176	H	1.409554	-0.053472	1.144180
H177	H	0.399940	-0.568613	0.476784
H178	H	0.899940	-0.068613	0.976784
C179	C	0.741081	-0.552340	0.463162
C180	C	1.241081	-0.052340	0.963162
H181	H	0.707644	-0.582715	0.488586
H182	H	1.207644	-0.082715	0.988586
H183	H	0.770771	-0.587613	0.437376
H184	H	1.270771	-0.087613	0.937376
H185	H	0.768496	-0.524262	0.494976
H186	H	1.268496	-0.024262	0.994976
H187	H	0.266800	-0.562235	0.471456
H188	H	0.766800	-0.062235	0.971456
