data_functionalizedCrystal
_audit_creation_method	'MofGen! by Chris Wilmer'
_symmetry_space_group_name_H-M	'P1'
_symmetry_Int_Tables_number	1
_symmetry_cell_setting	triclinic
loop_
_symmetry_equiv_pos_as_xyz
  x,y,z
_cell_length_a	18.050590
_cell_length_b	18.050590
_cell_length_c	18.050583
_cell_angle_alpha	90.040797
_cell_angle_beta	89.999666
_cell_angle_gamma	89.988341
loop_
_atom_site_label
_atom_site_type_symbol
_atom_site_fract_x
_atom_site_fract_y
_atom_site_fract_z
Zn1	Zn	1.135330	0.295821	-0.419578
Zn2	Zn	1.385330	0.545821	-0.169578
Zn3	Zn	1.635330	0.795821	0.080422
Zn4	Zn	1.885330	1.045821	0.330422
Zn5	Zn	1.135251	0.420034	-0.295378
Zn6	Zn	1.385251	0.670034	-0.045378
Zn7	Zn	1.635251	0.920034	0.204622
Zn8	Zn	1.885251	1.170034	0.454622
Zn9	Zn	1.011147	0.295839	-0.295436
Zn10	Zn	1.261147	0.545839	-0.045436
Zn11	Zn	1.511147	0.795839	0.204564
Zn12	Zn	1.761147	1.045839	0.454564
Zn13	Zn	1.011110	0.419950	-0.419561
Zn14	Zn	1.261110	0.669950	-0.169561
Zn15	Zn	1.511110	0.919950	0.080439
Zn16	Zn	1.761110	1.169950	0.330439
O17	O	1.073209	0.357911	-0.357489
O18	O	1.323209	0.607911	-0.107489
O19	O	1.573209	0.857911	0.142511
O20	O	1.823209	1.107911	0.392511
O21	O	1.239244	0.312326	-0.403086
O22	O	1.489244	0.562326	-0.153086
O23	O	1.739244	0.812326	0.096914
O24	O	1.989244	1.062326	0.346914
O25	O	1.118771	0.403602	-0.191462
O26	O	1.368771	0.653602	0.058538
O27	O	1.618771	0.903602	0.308538
O28	O	1.868771	1.153602	0.558538
O29	O	1.027669	0.191912	-0.311936
O30	O	1.277669	0.441912	-0.061936
O31	O	1.527669	0.691912	0.188064
O32	O	1.777669	0.941912	0.438064
O33	O	1.239186	0.403585	-0.311837
O34	O	1.489186	0.653585	-0.061837
O35	O	1.739186	0.903585	0.188163
O36	O	1.989186	1.153585	0.438163
O37	O	1.118906	0.191899	-0.403142
O38	O	1.368906	0.441899	-0.153142
O39	O	1.618906	0.691899	0.096858
O40	O	1.868906	0.941899	0.346858
O41	O	1.027592	0.312356	-0.191504
O42	O	1.277592	0.562356	0.058496
O43	O	1.527592	0.812356	0.308496
O44	O	1.777592	1.062356	0.558496
O45	O	0.907217	0.312275	-0.311919
O46	O	1.157217	0.562275	-0.061919
O47	O	1.407217	0.812275	0.188081
O48	O	1.657217	1.062275	0.438081
O49	O	1.027605	0.403442	-0.523488
O50	O	1.277605	0.653442	-0.273488
O51	O	1.527605	0.903442	-0.023488
O52	O	1.777605	1.153442	0.226512
O53	O	0.907190	0.403459	-0.403113
O54	O	1.157190	0.653459	-0.153113
O55	O	1.407190	0.903459	0.096887
O56	O	1.657190	1.153459	0.346887
O57	O	1.118870	0.312245	-0.523501
O58	O	1.368870	0.562245	-0.273501
O59	O	1.618870	0.812245	-0.023501
O60	O	1.868870	1.062245	0.226499
O61	O	1.118734	0.523948	-0.311820
O62	O	1.368734	0.773948	-0.061820
O63	O	1.618734	1.023948	0.188180
O64	O	1.868734	1.273948	0.438180
O65	O	1.027529	0.523886	-0.403056
O66	O	1.277529	0.773886	-0.153056
O67	O	1.527529	1.023886	0.096944
O68	O	1.777529	1.273886	0.346944
C69	C	0.880257	0.357860	-0.357521
C70	C	1.130257	0.607860	-0.107521
C71	C	1.380257	0.857860	0.142479
C72	C	1.630257	1.107860	0.392479
C73	C	0.797711	0.357857	-0.357552
C74	C	1.047711	0.607857	-0.107552
C75	C	1.297711	0.857857	0.142448
C76	C	1.547711	1.107857	0.392448
C77	C	0.598267	0.407584	-0.407025
C78	C	0.848267	0.657584	-0.157025
C79	C	1.098267	0.907584	0.092975
C80	C	1.348267	1.157584	0.342975
C81	C	0.548868	0.339865	-0.425306
C82	C	0.798868	0.589865	-0.175306
C83	C	1.048868	0.839865	0.074694
C84	C	1.298868	1.089865	0.324694
C85	C	0.646581	0.357898	-0.357516
C86	C	0.896581	0.607898	-0.107516
C87	C	1.146581	0.857898	0.142484
C88	C	1.396581	1.107898	0.392484
C89	C	0.548899	0.425656	-0.339234
C90	C	0.798899	0.675656	-0.089234
C91	C	1.048899	0.925656	0.160766
C92	C	1.298899	1.175656	0.410766
C93	C	0.500596	0.357944	-0.357482
C94	C	0.750596	0.607944	-0.107482
C95	C	1.000596	0.857944	0.142518
C96	C	1.250596	1.107944	0.392518
C97	C	0.598269	0.290143	-0.375831
C98	C	0.848269	0.540143	-0.125831
C99	C	1.098269	0.790143	0.124169
C100	C	1.348269	1.040143	0.374169
C101	C	0.598304	0.375979	-0.289728
C102	C	0.848304	0.625979	-0.039728
C103	C	1.098304	0.875979	0.210272
C104	C	1.348304	1.125979	0.460272
C105	C	0.548927	0.308213	-0.307983
C106	C	0.798927	0.558213	-0.057983
C107	C	1.048927	0.808213	0.192017
C108	C	1.298927	1.058213	0.442017
C109	C	0.730679	0.357872	-0.357537
C110	C	0.980679	0.607872	-0.107537
C111	C	1.230679	0.857872	0.142463
C112	C	1.480679	1.107872	0.392463
C113	C	0.416499	0.357962	-0.357461
C114	C	0.666499	0.607962	-0.107461
C115	C	0.916499	0.857962	0.142539
C116	C	1.166499	1.107962	0.392539
C117	C	1.073139	0.550863	-0.357446
C118	C	1.323139	0.800863	-0.107446
C119	C	1.573139	1.050863	0.142554
C120	C	1.823139	1.300863	0.392554
C121	C	1.073177	0.633409	-0.357453
C122	C	1.323177	0.883409	-0.107453
C123	C	1.573177	1.133409	0.142547
C124	C	1.823177	1.383409	0.392547
C125	C	1.122864	0.832866	-0.307895
C126	C	1.372864	1.082866	-0.057895
C127	C	1.622864	1.332866	0.192105
C128	C	1.872864	1.582866	0.442105
C129	C	1.140998	0.882192	-0.375667
C130	C	1.390998	1.132192	-0.125667
C131	C	1.640998	1.382192	0.124333
C132	C	1.890998	1.632192	0.374333
C133	C	1.073209	0.784539	-0.357473
C134	C	1.323209	1.034539	-0.107473
C135	C	1.573209	1.284539	0.142527
C136	C	1.823209	1.534539	0.392527
C137	C	1.055141	0.882295	-0.289722
C138	C	1.305141	1.132295	-0.039722
C139	C	1.555141	1.382295	0.210278
C140	C	1.805141	1.632295	0.460278
C141	C	1.073241	0.930524	-0.357486
C142	C	1.323241	1.180524	-0.107486
C143	C	1.573241	1.430524	0.142514
C144	C	1.823241	1.680524	0.392514
C145	C	1.091377	0.832778	-0.425280
C146	C	1.341377	1.082778	-0.175280
C147	C	1.591377	1.332778	0.074720
C148	C	1.841377	1.582778	0.324720
C149	C	1.005489	0.832877	-0.339289
C150	C	1.255489	1.082877	-0.089289
C151	C	1.505489	1.332877	0.160711
C152	C	1.755489	1.582877	0.410711
C153	C	1.023596	0.882180	-0.407108
C154	C	1.273596	1.132180	-0.157108
C155	C	1.523596	1.382180	0.092892
C156	C	1.773596	1.632180	0.342892
C157	C	1.073192	0.700441	-0.357464
C158	C	1.323192	0.950441	-0.107464
C159	C	1.573192	1.200441	0.142536
C160	C	1.823192	1.450441	0.392536
C161	C	1.073257	1.014621	-0.357502
C162	C	1.323257	1.264621	-0.107502
C163	C	1.573257	1.514621	0.142498
C164	C	1.823257	1.764621	0.392498
C165	C	1.266915	0.357963	-0.357457
C166	C	1.516915	0.607963	-0.107457
C167	C	1.766915	0.857963	0.142543
C168	C	2.016915	1.107963	0.392543
C169	C	1.349461	0.357984	-0.357443
C170	C	1.599461	0.607984	-0.107443
C171	C	1.849461	0.857984	0.142557
C172	C	2.099461	1.107984	0.392557
C173	C	1.073242	0.357832	-0.551194
C174	C	1.323242	0.607832	-0.301194
C175	C	1.573242	0.857832	-0.051194
C176	C	1.823242	1.107832	0.198806
C177	C	1.073256	0.357798	-0.633740
C178	C	1.323256	0.607798	-0.383740
C179	C	1.573256	0.857798	-0.133740
C180	C	1.823256	1.107798	0.116260
C181	C	1.073283	1.164205	-0.357531
C182	C	1.323283	1.414205	-0.107531
C183	C	1.573283	1.664205	0.142469
C184	C	1.823283	1.914205	0.392469
C185	C	1.073270	1.081660	-0.357507
C186	C	1.323270	1.331660	-0.107507
C187	C	1.573270	1.581660	0.142493
C188	C	1.823270	1.831660	0.392493
C189	C	1.122935	0.308181	-0.833198
C190	C	1.372935	0.558181	-0.583198
C191	C	1.622935	0.808181	-0.333198
C192	C	1.872935	1.058181	-0.083198
C193	C	1.055200	0.289992	-0.882613
C194	C	1.305200	0.539992	-0.632613
C195	C	1.555200	0.789992	-0.382613
C196	C	1.805200	1.039992	-0.132613
C197	C	1.073286	0.357785	-0.784870
C198	C	1.323286	0.607785	-0.534870
C199	C	1.573286	0.857785	-0.284870
C200	C	1.823286	1.107785	-0.034870
C201	C	1.141049	0.375927	-0.882537
C202	C	1.391049	0.625927	-0.632537
C203	C	1.641049	0.875927	-0.382537
C204	C	1.891049	1.125927	-0.132537
C205	C	1.073321	0.357772	-0.930856
C206	C	1.323321	0.607772	-0.680856
C207	C	1.573321	0.857772	-0.430856
C208	C	1.823321	1.107772	-0.180856
C209	C	1.005515	0.339561	-0.833198
C210	C	1.255515	0.589561	-0.583198
C211	C	1.505515	0.839561	-0.333198
C212	C	1.755515	1.089561	-0.083198
C213	C	1.091409	0.425528	-0.833119
C214	C	1.341409	0.675528	-0.583119
C215	C	1.591409	0.925528	-0.333119
C216	C	1.841409	1.175528	-0.083119
C217	C	1.023627	0.407365	-0.882511
C218	C	1.273627	0.657365	-0.632511
C219	C	1.523627	0.907365	-0.382511
C220	C	1.773627	1.157365	-0.132511
C221	C	1.073267	0.357791	-0.700772
C222	C	1.323267	0.607791	-0.450772
C223	C	1.573267	0.857791	-0.200772
C224	C	1.823267	1.107791	0.049228
C225	C	1.073332	0.357766	-1.014952
C226	C	1.323332	0.607766	-0.764952
C227	C	1.573332	0.857766	-0.514952
C228	C	1.823332	1.107766	-0.264952
C229	C	1.073219	0.357936	-0.164536
C230	C	1.323219	0.607936	0.085464
C231	C	1.573219	0.857936	0.335464
C232	C	1.823219	1.107936	0.585464
C233	C	1.073349	0.357761	-0.081991
C234	C	1.323349	0.607761	0.168009
C235	C	1.573349	0.857761	0.418009
C236	C	1.823349	1.107761	0.668009
H237	H	0.527153	0.324587	-0.482617
H238	H	0.777153	0.574587	-0.232617
H239	H	1.027153	0.824587	0.017383
H240	H	1.277153	1.074587	0.267383
C241	C	0.627441	0.212734	-0.396796
C242	C	0.877441	0.462734	-0.146796
C243	C	1.127441	0.712734	0.103204
C244	C	1.377441	0.962734	0.353204
N245	N	0.649415	0.154433	-0.412590
N246	N	0.899415	0.404433	-0.162590
N247	N	1.149415	0.654433	0.087410
N248	N	1.399415	0.904433	0.337410
C249	C	0.966884	0.911249	-0.463820
C250	C	1.216884	1.161249	-0.213820
C251	C	1.466884	1.411249	0.036180
C252	C	1.716884	1.661249	0.286180
N253	N	0.924170	0.933144	-0.506537
N254	N	1.174170	1.183144	-0.256537
N255	N	1.424170	1.433144	-0.006537
N256	N	1.674170	1.683144	0.243463
C257	C	0.627536	0.464253	-0.463649
C258	C	0.877536	0.714253	-0.213649
C259	C	1.127536	0.964253	0.036351
C260	C	1.377536	1.214253	0.286351
N261	N	0.649581	0.506933	-0.506299
N262	N	0.899581	0.756933	-0.256299
N263	N	1.149581	1.006933	-0.006299
N264	N	1.399581	1.256933	0.243701
H265	H	1.198340	0.391276	-0.904214
H266	H	1.448340	0.641276	-0.654214
H267	H	1.698340	0.891276	-0.404214
H268	H	1.948340	1.141276	-0.154214
H269	H	0.981606	0.449308	-0.904027
H270	H	1.231606	0.699308	-0.654027
H271	H	1.481606	0.949308	-0.404027
H272	H	1.731606	1.199308	-0.154027
H273	H	1.106747	0.482806	-0.811364
H274	H	1.356747	0.732806	-0.561364
H275	H	1.606747	0.982806	-0.311364
H276	H	1.856747	1.232806	-0.061364
H277	H	1.198281	0.903856	-0.391057
H278	H	1.448281	1.153856	-0.141057
H279	H	1.698281	1.403856	0.108943
H280	H	1.948281	1.653856	0.358943
C281	C	0.519836	0.251410	-0.251404
C282	C	0.769836	0.501410	-0.001404
C283	C	1.019836	0.751410	0.248596
C284	C	1.269836	1.001410	0.498596
N285	N	0.497922	0.208624	-0.208793
N286	N	0.747922	0.458624	0.041207
N287	N	0.997922	0.708624	0.291207
N288	N	1.247922	0.958624	0.541207
H289	H	1.039882	0.232698	-0.904353
H290	H	1.289882	0.482698	-0.654353
H291	H	1.539882	0.732698	-0.404353
H292	H	1.789882	0.982698	-0.154353
H293	H	1.106615	0.811120	-0.482631
H294	H	1.356615	1.061120	-0.232631
H295	H	1.606615	1.311120	0.017369
H296	H	1.856615	1.561120	0.267369
H297	H	0.620035	0.391278	-0.232433
H298	H	0.870035	0.641278	0.017567
H299	H	1.120035	0.891278	0.267567
H300	H	1.370035	1.141278	0.517567
C301	C	0.928095	0.318728	-0.804044
C302	C	1.178095	0.568728	-0.554044
C303	C	1.428095	0.818728	-0.304044
C304	C	1.678095	1.068728	-0.054044
N305	N	0.869784	0.303034	-0.782082
N306	N	1.119784	0.553034	-0.532082
N307	N	1.369784	0.803034	-0.282082
N308	N	1.619784	1.053034	-0.032082
H309	H	1.164853	0.266206	-0.811542
H310	H	1.414853	0.516206	-0.561542
H311	H	1.664853	0.766206	-0.311542
H312	H	1.914853	1.016206	-0.061542
C313	C	1.179618	0.803602	-0.251323
C314	C	1.429618	1.053602	-0.001323
C315	C	1.679618	1.303602	0.248677
C316	C	1.929618	1.553602	0.498677
N317	N	1.222366	0.781557	-0.208718
N318	N	1.472366	1.031557	0.041282
N319	N	1.722366	1.281557	0.291282
N320	N	1.972366	1.531557	0.541282
C321	C	0.519611	0.503044	-0.318356
C322	C	0.769611	0.753044	-0.068356
C323	C	1.019611	1.003044	0.181644
C324	C	1.269611	1.253044	0.431644
N325	N	0.497557	0.561336	-0.302635
N326	N	0.747557	0.811336	-0.052635
N327	N	0.997557	1.061336	0.197365
N328	N	1.247557	1.311336	0.447365
H329	H	0.948222	0.811197	-0.323879
H330	H	1.198222	1.061197	-0.073879
H331	H	1.448222	1.311197	0.176121
H332	H	1.698222	1.561197	0.426121
C333	C	1.034474	0.911674	-0.212309
C334	C	1.284474	1.161674	0.037691
C335	C	1.534474	1.411674	0.287691
C336	C	1.784474	1.661674	0.537691
N337	N	1.018913	0.933798	-0.154001
N338	N	1.268913	1.183798	0.095999
N339	N	1.518913	1.433798	0.345999
N340	N	1.768913	1.683798	0.595999
