data_functionalizedCrystal
_audit_creation_method	'MofGen! by Chris Wilmer'
_symmetry_space_group_name_H-M	'P1'
_symmetry_Int_Tables_number	1
_symmetry_cell_setting	triclinic
loop_
_symmetry_equiv_pos_as_xyz
  x,y,z
_cell_length_a	14.519709
_cell_length_b	15.995350
_cell_length_c	13.596369
_cell_angle_alpha	89.996243
_cell_angle_beta	89.999709
_cell_angle_gamma	96.413740
loop_
_atom_site_label
_atom_site_type_symbol
_atom_site_fract_x
_atom_site_fract_y
_atom_site_fract_z
O1	O	-1.223669	0.109760	-0.081658
O2	O	-0.723669	0.609760	0.418342
O3	O	-0.955169	0.122685	-0.081688
O4	O	-0.455169	0.622685	0.418312
O5	O	-1.096759	-0.005654	-0.081671
O6	O	-0.596759	0.494346	0.418329
O7	O	-1.082079	0.238099	-0.081675
O8	O	-0.582079	0.738099	0.418325
O9	O	-1.096744	-0.005661	0.081912
O10	O	-0.596744	0.494339	0.581912
O11	O	-0.955155	0.122679	0.081895
O12	O	-0.455155	0.622679	0.581895
O13	O	-1.223655	0.109753	0.081925
O14	O	-0.723655	0.609753	0.581925
Zn15	Zn	-1.089403	0.116215	0.107882
Zn16	Zn	-0.589403	0.616215	0.607882
Zn17	Zn	-1.089421	0.116224	-0.107645
Zn18	Zn	-0.589421	0.616224	0.392355
O19	O	-1.082065	0.238093	0.081908
O20	O	-0.582065	0.738093	0.581908
C21	C	-0.920803	0.122080	0.000100
C22	C	-0.420803	0.622080	0.500100
C23	C	-0.818425	0.120275	0.000088
C24	C	-0.318425	0.620275	0.500088
C25	C	-1.096145	-0.036853	0.000118
C26	C	-0.596145	0.463147	0.500118
C27	C	-1.094325	-0.129806	0.000112
C28	C	-0.594325	0.370194	0.500112
C29	C	-1.258021	0.110359	0.000135
C30	C	-0.758021	0.610359	0.500135
C31	C	-1.360399	0.112164	0.000140
C32	C	-0.860399	0.612164	0.500140
C33	C	-0.443541	0.113629	0.000133
C34	C	0.056459	0.613629	0.500133
C35	C	-0.547846	0.115475	0.000120
C36	C	-0.047846	0.615475	0.500120
C37	C	-0.630980	0.116952	0.000110
C38	C	-0.130980	0.616952	0.500110
C39	C	-0.735291	0.118797	0.000099
C40	C	-0.235291	0.618797	0.500099
C41	C	-1.087791	-0.467563	0.000115
C42	C	-0.587791	0.032437	0.500115
C43	C	-0.986954	-0.420280	-0.000263
C44	C	-0.486954	0.079720	0.499737
C45	C	-0.988773	-0.323587	0.000106
C46	C	-0.488773	0.176413	0.500106
C47	C	-1.091032	-0.299998	0.000113
C48	C	-0.591032	0.200002	0.500113
C49	C	-1.140761	-0.341005	0.093531
C50	C	-0.640761	0.158995	0.593531
C51	C	-1.138228	-0.437644	0.093609
C52	C	-0.638228	0.062356	0.593609
C53	C	-1.140327	-0.437992	-0.092415
C54	C	-0.640327	0.062008	0.407585
C55	C	-1.140303	-0.341046	-0.093650
C56	C	-0.640303	0.158954	0.406350
C57	C	-1.092869	-0.205298	0.000115
C58	C	-0.592869	0.294702	0.500115
C59	C	-1.085957	-0.562264	0.000119
C60	C	-0.585957	-0.062264	0.500119
C61	C	-1.082679	0.269292	0.000116
C62	C	-0.582679	0.769292	0.500116
C63	C	-1.084498	0.362245	0.000116
C64	C	-0.584498	0.862245	0.500116
N65	N	-1.089397	0.116208	0.254974
N66	N	-0.589397	0.616208	0.754974
N67	N	-1.089434	0.116224	-0.254737
N68	N	-0.589434	0.616224	0.245263
C69	C	-1.089420	0.116225	0.656265
C70	C	-0.589420	0.616225	1.156265
C71	C	-1.089411	0.116223	0.544614
C72	C	-0.589411	0.616223	1.044614
C73	C	-1.089409	0.116217	0.455623
C74	C	-0.589409	0.616217	0.955623
C75	C	-1.089399	0.116214	0.343965
C76	C	-0.589399	0.616214	0.843965
H77	H	-0.949683	-0.295221	-0.066860
H78	H	-0.449683	0.204779	0.433140
C79	C	-0.935599	-0.286018	0.090711
C80	C	-0.435599	0.213982	0.590711
H81	H	-0.936522	-0.226725	0.091241
H82	H	-0.436522	0.273275	0.591241
H83	H	-0.964191	-0.309458	0.148823
H84	H	-0.464191	0.190542	0.648823
H85	H	-0.873267	-0.298682	0.087958
H86	H	-0.373267	0.201318	0.587958
H87	H	-1.101954	-0.456003	0.163434
H88	H	-0.601954	0.043997	0.663434
C89	C	-1.094081	-0.302753	0.187439
C90	C	-0.594081	0.197247	0.687439
H91	H	-1.044294	-0.261803	0.169916
H92	H	-0.544294	0.238197	0.669916
H93	H	-1.138120	-0.276950	0.225240
H94	H	-0.638120	0.223050	0.725240
H95	H	-1.071008	-0.345914	0.225088
H96	H	-0.571008	0.154086	0.725088
C97	C	-1.238234	-0.481064	0.099360
C98	C	-0.738234	0.018936	0.599360
H99	H	-1.280227	-0.439617	0.101647
H100	H	-0.780227	0.060383	0.601647
H101	H	-1.250961	-0.515560	0.043035
H102	H	-0.750961	-0.015560	0.543035
H103	H	-1.245212	-0.514789	0.156969
H104	H	-0.745212	-0.014789	0.656969
H105	H	-0.946656	-0.438870	-0.067255
H106	H	-0.446656	0.061130	0.432745
C107	C	-0.932740	-0.446823	0.089725
C108	C	-0.432740	0.053177	0.589725
H109	H	-0.971292	-0.486592	0.127526
H110	H	-0.471292	0.013408	0.627526
H111	H	-0.879654	-0.471446	0.068244
H112	H	-0.379654	0.028554	0.568244
H113	H	-0.913842	-0.398799	0.128934
H114	H	-0.413842	0.101201	0.628934
H115	H	-1.215888	-0.326767	0.097010
H116	H	-0.715888	0.173233	0.597010
C117	C	-1.095796	-0.465794	-0.188067
C118	C	-0.595796	0.034206	0.311933
H119	H	-1.044742	-0.495699	-0.172462
H120	H	-0.544742	0.004301	0.327538
H121	H	-1.140294	-0.501200	-0.224539
H122	H	-0.640294	-0.001200	0.275461
H123	H	-1.074857	-0.417625	-0.226201
H124	H	-0.574857	0.082375	0.273799
H125	H	-1.103945	-0.313849	-0.162758
H126	H	-0.603945	0.186151	0.337242
H127	H	-1.214674	-0.469641	-0.093038
H128	H	-0.714674	0.030359	0.406962
C129	C	-1.241045	-0.320150	-0.101264
C130	C	-0.741045	0.179850	0.398736
H131	H	-1.254438	-0.285971	-0.047114
H132	H	-0.754438	0.214029	0.452886
H133	H	-1.248862	-0.290791	-0.160884
H134	H	-0.748862	0.209209	0.339116
H135	H	-1.281995	-0.370806	-0.100467
H136	H	-0.781995	0.129194	0.399533
