data_functionalizedCrystal
_audit_creation_method	'MofGen! by Chris Wilmer'
_symmetry_space_group_name_H-M	'P1'
_symmetry_Int_Tables_number	1
_symmetry_cell_setting	triclinic
loop_
_symmetry_equiv_pos_as_xyz
  x,y,z
_cell_length_a	9.065218
_cell_length_b	17.766277
_cell_length_c	19.288865
_cell_angle_alpha	90.012963
_cell_angle_beta	95.923934
_cell_angle_gamma	90.000931
loop_
_atom_site_label
_atom_site_type_symbol
_atom_site_fract_x
_atom_site_fract_y
_atom_site_fract_z
O1	O	-1.956821	0.062606	0.101845
O2	O	-1.527244	0.062608	0.110198
O3	O	-1.754445	0.062592	0.004987
O4	O	-1.729620	0.062622	0.207055
O5	O	-1.754451	-0.062596	0.004977
O6	O	-1.527249	-0.062580	0.110187
O7	O	-1.956827	-0.062582	0.101834
Cu8	Cu	-1.742039	-0.074012	0.106010
Cu9	Cu	-1.742032	0.074038	0.106022
O10	O	-1.729625	-0.062566	0.207045
C11	C	-1.472288	0.000014	0.109390
C12	C	-1.308529	0.000014	0.106989
N13	N	-1.742054	-0.178142	0.106000
C14	C	-2.011782	0.000014	0.102642
C15	C	-2.175541	0.000019	0.105043
C16	C	-1.753649	-0.000004	-0.020901
C17	C	-1.751251	-0.000011	-0.098023
N18	N	-1.742028	0.178168	0.106026
C19	C	-1.842812	0.217548	0.059532
C20	C	-1.842825	0.296350	0.059531
C21	C	-1.742028	0.335769	0.106017
C22	C	-1.641237	0.296379	0.152519
C23	C	-1.641237	0.217579	0.152524
C24	C	-1.607613	0.460615	0.114119
C25	C	-1.607612	0.539414	0.114109
C26	C	-1.742029	0.578815	0.106007
C27	C	-1.876454	0.539408	0.097900
C28	C	-1.876454	0.460607	0.097904
C29	C	-1.742018	0.421215	0.106018
C30	C	-1.842835	0.703641	0.059510
C31	C	-1.842849	0.782444	0.059513
C32	C	-1.641249	0.782472	0.152498
C33	C	-1.641247	0.703670	0.152498
C34	C	-1.742039	0.664260	0.106000
C35	C	-1.884563	-0.000015	-0.141684
C36	C	-1.882310	-0.000003	-0.214149
C37	C	-1.746738	-0.000002	-0.242949
C38	C	-1.613409	0.000006	-0.199278
C39	C	-1.615666	0.000002	-0.126815
C40	C	-1.640165	-0.043852	-0.352067
C41	C	-1.637914	-0.043853	-0.424529
C42	C	-1.739773	0.000015	-0.466448
C43	C	-1.843908	0.043873	-0.435898
C44	C	-1.846164	0.043868	-0.363435
C45	C	-1.744276	0.000003	-0.321522
C46	C	-1.870651	0.000025	-0.588685
C47	C	-1.868392	0.000041	-0.661150
C48	C	-1.599488	0.000043	-0.646278
C49	C	-1.601750	0.000034	-0.573814
C50	C	-1.737335	0.000021	-0.545022
C51	C	-1.730421	0.000032	0.232933
C52	C	-1.732819	0.000043	0.310055
H53	H	-1.924885	0.185462	0.021673
H54	H	-1.498147	0.428541	0.120720
H55	H	-1.489102	0.000048	-0.669726
H56	H	-1.981053	0.000017	-0.565241
H57	H	-1.493193	0.000033	-0.538264
H58	H	-1.924927	0.814508	0.021655
H59	H	-1.990872	-0.000004	-0.249704
Br60	Br	-2.058891	0.592870	0.086895
H61	H	-1.553115	-0.079560	-0.449397
H62	H	-1.924910	0.671551	0.021650
H63	H	-1.559170	0.328478	0.190370
H64	H	-1.557215	-0.079579	-0.317942
Br65	Br	-1.504451	0.164130	0.215628
Br66	Br	-1.982157	0.103411	-0.492779
Br67	Br	-1.429417	0.000018	-0.238362
H68	H	-1.559174	0.671605	0.190355
H69	H	-1.924898	0.328419	0.021669
H70	H	-1.559185	0.814566	0.190350
H71	H	-1.976955	0.000042	-0.696699
H72	H	-1.507104	0.000005	-0.091265
Br73	Br	-1.425185	0.592888	0.125178
Br74	Br	-1.987475	0.103391	-0.321975
Br75	Br	-2.058878	0.407128	0.086908
H76	H	-1.994967	-0.000023	-0.118247
