data_functionalizedCrystal
_audit_creation_method	'MofGen! by Chris Wilmer'
_symmetry_space_group_name_H-M	'P1'
_symmetry_Int_Tables_number	1
_symmetry_cell_setting	triclinic
loop_
_symmetry_equiv_pos_as_xyz
  x,y,z
_cell_length_a	16.109301
_cell_length_b	15.186229
_cell_length_c	16.109301
_cell_angle_alpha	90.005167
_cell_angle_beta	83.461481
_cell_angle_gamma	90.000638
loop_
_atom_site_label
_atom_site_type_symbol
_atom_site_fract_x
_atom_site_fract_y
_atom_site_fract_z
O1	O	-1.103131	-0.073176	-0.106866
O2	O	-0.769797	0.260158	0.226467
O3	O	-0.436464	0.593491	0.559801
O4	O	-0.861069	-0.073190	-0.120165
O5	O	-0.527735	0.260143	0.213168
O6	O	-0.194402	0.593477	0.546501
O7	O	-0.988749	-0.073174	0.007515
O8	O	-0.655416	0.260160	0.340849
O9	O	-0.322083	0.593493	0.674182
O10	O	-0.975450	-0.073192	-0.234547
O11	O	-0.642117	0.260141	0.098787
O12	O	-0.308783	0.593474	0.432120
O13	O	-0.988741	0.073284	0.007517
O14	O	-0.655407	0.406617	0.340850
O15	O	-0.322074	0.739950	0.674184
O16	O	-0.861060	0.073267	-0.120164
O17	O	-0.527727	0.406601	0.213170
O18	O	-0.194393	0.739934	0.546503
O19	O	-1.103122	0.073282	-0.106864
O20	O	-0.769789	0.406615	0.226469
O21	O	-0.436455	0.739948	0.559802
Zn22	Zn	-0.982090	0.096528	-0.113514
Zn23	Zn	-0.648756	0.429861	0.219820
Zn24	Zn	-0.315423	0.763194	0.553153
Zn25	Zn	-0.982101	-0.096436	-0.113516
Zn26	Zn	-0.648768	0.236897	0.219817
Zn27	Zn	-0.315434	0.570231	0.553151
O28	O	-0.975441	0.073265	-0.234545
O29	O	-0.642108	0.406598	0.098788
O30	O	-0.308775	0.739932	0.432122
C31	C	-0.830090	0.000037	-0.119626
C32	C	-0.496756	0.333370	0.213708
C33	C	-0.163423	0.666704	0.547041
C34	C	-0.737794	0.000032	-0.118011
C35	C	-0.404461	0.333365	0.215323
C36	C	-0.071128	0.666698	0.548656
C37	C	-0.988206	0.000056	0.038491
C38	C	-0.654873	0.333389	0.371824
C39	C	-0.321540	0.666722	0.705158
C40	C	-0.986591	0.000057	0.130786
C41	C	-0.653258	0.333390	0.464120
C42	C	-0.319925	0.666723	0.797453
N43	N	-0.982088	0.228220	-0.113511
N44	N	-0.648755	0.561554	0.219822
N45	N	-0.315422	0.894887	0.553155
C46	C	-1.134101	0.000053	-0.107404
C47	C	-0.800768	0.333386	0.225929
C48	C	-0.467435	0.666719	0.559263
C49	C	-1.226397	0.000052	-0.109019
C50	C	-0.893063	0.333385	0.224314
C51	C	-0.559730	0.666719	0.557648
C52	C	-0.515522	0.000036	-0.190018
C53	C	-0.182188	0.333370	0.143315
C54	C	0.151145	0.666703	0.476648
C55	C	-0.428801	0.000042	-0.188494
C56	C	-0.095468	0.333375	0.144839
C57	C	0.237865	0.666709	0.478172
C58	C	-0.448676	0.000050	-0.037006
C59	C	-0.115342	0.333383	0.296328
C60	C	0.217991	0.666717	0.629661
C61	C	-0.535394	0.000051	-0.038530
C62	C	-0.202061	0.333384	0.294803
C63	C	0.131272	0.666717	0.628136
C64	C	-0.568815	0.000039	-0.115039
C65	C	-0.235482	0.333373	0.218294
C66	C	0.097852	0.666706	0.551627
C67	C	-0.395376	0.000045	-0.111990
C68	C	-0.062042	0.333378	0.221343
C69	C	0.271291	0.666711	0.554676
C70	C	-0.301350	0.000051	-0.110337
C71	C	0.031984	0.333384	0.222996
C72	C	0.365317	0.666717	0.556329
C73	C	-0.662847	0.000035	-0.116693
C74	C	-0.329514	0.333368	0.216641
C75	C	0.003820	0.666701	0.549974
N76	N	-0.982109	-0.228129	-0.113512
N77	N	-0.648776	0.105205	0.219822
N78	N	-0.315442	0.438538	0.553155
C79	C	-1.038644	0.453950	-0.056994
C80	C	-0.705311	0.787284	0.276340
C81	C	-0.371978	1.120617	0.609673
C82	C	-1.038647	0.546140	-0.056992
C83	C	-0.705314	0.879473	0.276342
C84	C	-0.371980	1.212807	0.609675
C85	C	-0.925547	0.546135	-0.170032
C86	C	-0.592214	0.879468	0.163301
C87	C	-0.258880	1.212801	0.496634
C88	C	-0.925541	0.453947	-0.170030
C89	C	-0.592208	0.787280	0.163304
C90	C	-0.258874	1.120613	0.496637
C91	C	-0.982094	0.407857	-0.113511
C92	C	-0.648761	0.741190	0.219822
C93	C	-0.315428	1.074524	0.553155
C94	C	-0.982103	0.592235	-0.113512
C95	C	-0.648770	0.925568	0.219821
C96	C	-0.315436	1.258901	0.553155
C97	C	-0.982105	0.692191	-0.113510
C98	C	-0.648772	1.025524	0.219823
C99	C	-0.315439	1.358857	0.553157
C100	C	-0.982091	0.307894	-0.113512
C101	C	-0.648758	0.641228	0.219822
C102	C	-0.315424	0.974561	0.553155
C103	C	-0.975984	0.000034	-0.265521
C104	C	-0.642651	0.333367	0.067813
C105	C	-0.309318	0.666701	0.401146
C106	C	-0.977600	0.000027	-0.357816
C107	C	-0.644266	0.333360	-0.024483
C108	C	-0.310933	0.666694	0.308851
C109	C	-1.058599	0.000047	0.353059
C110	C	-0.725266	0.333380	0.686392
C111	C	-0.391932	0.666714	1.019725
C112	C	-1.057075	0.000040	0.439779
C113	C	-0.723742	0.333373	0.773112
C114	C	-0.390408	0.666706	1.106446
C115	C	-0.905586	0.000034	0.419905
C116	C	-0.572253	0.333367	0.753238
C117	C	-0.238919	0.666701	1.086571
C118	C	-0.907111	0.000035	0.333186
C119	C	-0.573778	0.333369	0.666519
C120	C	-0.240444	0.666702	0.999853
C121	C	-0.983620	0.000046	0.299766
C122	C	-0.650287	0.333379	0.633099
C123	C	-0.316953	0.666713	0.966432
C124	C	-0.980571	0.000038	0.473205
C125	C	-0.647238	0.333371	0.806538
C126	C	-0.313904	0.666704	1.139871
C127	C	-0.978918	0.000030	0.567231
C128	C	-0.645585	0.333363	0.900564
C129	C	-0.312251	0.666696	1.233897
C130	C	-0.985273	0.000052	0.205734
C131	C	-0.651940	0.333386	0.539067
C132	C	-0.318607	0.666719	0.872400
H133	H	-0.542730	0.000034	-0.252317
H134	H	-0.209396	0.333367	0.081017
H135	H	0.123937	0.666700	0.414350
H136	H	-0.879487	0.416415	-0.216053
H137	H	-0.546154	0.749748	0.117280
H138	H	-0.212820	1.083081	0.450613
Br139	Br	-0.607728	0.000066	0.063234
Br140	Br	-0.274394	0.333399	0.396568
Br141	Br	0.058939	0.666733	0.729901
Br142	Br	-1.158837	0.000036	0.512103
Br143	Br	-0.825503	0.333369	0.845437
Br144	Br	-0.492170	0.666702	1.178770
H145	H	-1.084692	0.416426	-0.010972
H146	H	-0.751359	0.749760	0.322362
H147	H	-0.418026	1.083093	0.655695
Br148	Br	-1.162431	0.000062	0.307705
Br149	Br	-0.829098	0.333396	0.641038
Br150	Br	-0.495765	0.666729	0.974371
Br151	Br	-0.801758	0.000017	0.465267
Br152	Br	-0.468424	0.333350	0.798600
Br153	Br	-0.135091	0.666683	1.131934
H154	H	-1.084694	0.583667	-0.010969
H155	H	-0.751361	0.917000	0.322364
H156	H	-0.418027	1.250334	0.655698
H157	H	-0.385413	0.000041	-0.249550
H158	H	-0.052080	0.333375	0.083783
H159	H	0.281254	0.666708	0.417117
Br160	Br	-0.403314	0.000062	0.066823
Br161	Br	-0.069980	0.333396	0.400156
Br162	Br	0.263353	0.666729	0.733490
Br163	Br	-0.848800	0.608688	-0.246735
Br164	Br	-0.515467	0.942021	0.086599
Br165	Br	-0.182134	1.275354	0.419932
H166	H	-0.846050	0.000032	0.289792
H167	H	-0.512717	0.333365	0.623126
H168	H	-0.179384	0.666698	0.956459
