data_functionalizedCrystal
_audit_creation_method	'MofGen! by Chris Wilmer'
_symmetry_space_group_name_H-M	'P1'
_symmetry_Int_Tables_number	1
_symmetry_cell_setting	triclinic
loop_
_symmetry_equiv_pos_as_xyz
  x,y,z
_cell_length_a	15.297475
_cell_length_b	18.215405
_cell_length_c	18.215399
_cell_angle_alpha	89.969030
_cell_angle_beta	80.315913
_cell_angle_gamma	80.326851
loop_
_atom_site_label
_atom_site_type_symbol
_atom_site_fract_x
_atom_site_fract_y
_atom_site_fract_z
Zn1	Zn	1.379199	-0.487993	-0.610455
Zn2	Zn	1.379088	-0.611049	-0.487368
Zn3	Zn	1.228334	-0.466686	-0.466143
Zn4	Zn	1.228291	-0.589685	-0.589143
O5	O	1.303728	-0.538853	-0.538277
O6	O	1.505430	-0.522174	-0.611930
O7	O	1.359062	-0.591923	-0.381564
O8	O	1.248411	-0.366537	-0.485323
O9	O	1.505349	-0.612583	-0.521498
O10	O	1.359251	-0.382191	-0.591349
O11	O	1.248304	-0.485860	-0.365971
O12	O	1.102082	-0.465144	-0.464658
O13	O	1.248338	-0.576172	-0.694958
O14	O	1.102050	-0.555511	-0.555025
O15	O	1.359209	-0.501458	-0.710617
O16	O	1.359020	-0.711190	-0.500832
O17	O	1.248230	-0.695494	-0.575606
C18	C	1.303633	-0.730046	-0.538229
C19	C	1.303674	-0.811851	-0.538244
C20	C	1.069332	-0.505698	-0.505226
C21	C	0.969056	-0.491532	-0.491104
C22	C	1.361498	-1.008212	-0.499415
C23	C	1.361538	-1.085077	-0.499439
C24	C	1.246073	-1.068758	-0.577209
C25	C	1.246038	-0.991896	-0.577189
C26	C	1.303749	-0.961625	-0.538288
C27	C	1.303825	-1.115352	-0.538331
C28	C	1.303868	-1.198691	-0.538357
C29	C	1.303707	-0.878280	-0.538263
C30	C	0.686430	-0.640106	-0.639212
C31	C	0.780644	-0.653422	-0.652479
C32	C	0.827752	-0.612950	-0.612136
C33	C	0.780636	-0.559162	-0.558525
C34	C	0.686413	-0.545849	-0.545253
C35	C	0.827735	-0.518693	-0.518177
C36	C	0.780619	-0.464904	-0.464566
C37	C	0.686405	-0.451594	-0.451297
C38	C	0.639298	-0.492065	-0.491639
C39	C	0.921958	-0.532005	-0.531449
C40	C	0.921941	-0.437748	-0.437490
C41	C	0.827727	-0.424433	-0.424223
C42	C	1.539039	-0.572138	-0.571458
C43	C	1.639315	-0.586322	-0.585598
C44	C	1.303781	-0.538809	-0.730238
C45	C	1.303803	-0.538790	-0.812040
C46	C	1.303848	-0.346917	-0.538346
C47	C	1.303899	-0.265126	-0.538375
C48	C	1.361567	-0.499828	-1.085257
C49	C	1.361557	-0.499846	-1.008397
C50	C	1.246113	-0.577655	-0.992082
C51	C	1.246129	-0.577641	-1.068942
C52	C	1.303855	-0.538722	-1.115527
C53	C	1.303828	-0.538755	-0.961807
C54	C	1.303816	-0.538776	-0.878472
C55	C	1.303868	-0.538703	-1.198868
C56	C	1.303727	-0.538852	-0.347071
C57	C	1.303879	-0.538688	-0.265294
H58	H	1.408491	-0.983568	-0.467740
C59	C	1.425063	-1.136320	-0.456671
N60	N	1.472912	-1.174916	-0.424457
C61	C	0.535656	-0.477410	-0.477060
N62	N	0.457592	-0.466370	-0.466084
H63	H	0.960310	-0.575800	-0.575100
C64	C	0.973755	-0.393224	-0.393112
N65	N	1.012788	-0.359693	-0.359689
H66	H	1.199086	-1.093415	-0.608880
C67	C	1.182525	-0.940649	-0.619973
N68	N	1.134697	-0.902051	-0.652204
C69	C	0.634581	-0.392426	-0.392321
N70	N	0.595548	-0.347858	-0.347902
H71	H	1.408553	-0.468175	-0.983755
C72	C	0.634606	-0.684621	-0.683580
N73	N	0.595570	-0.718152	-0.717000
C74	C	1.182609	-0.620454	-0.940831
N75	N	1.134773	-0.652688	-0.902228
H76	H	1.199131	-0.609317	-1.093588
H77	H	0.904465	-0.623795	-0.622941
C78	C	0.832464	-0.712589	-0.711448
N79	N	0.871496	-0.757157	-0.755867
C80	C	1.425075	-0.457024	-1.136499
N81	N	1.472914	-0.424785	-1.175093
H82	H	0.789352	-0.380638	-0.380572
