data_functionalizedCrystal
_audit_creation_method	'MofGen! by Chris Wilmer'
_symmetry_space_group_name_H-M	'P1'
_symmetry_Int_Tables_number	1
_symmetry_cell_setting	triclinic
loop_
_symmetry_equiv_pos_as_xyz
  x,y,z
_cell_length_a	16.120490
_cell_length_b	13.031981
_cell_length_c	16.120256
_cell_angle_alpha	94.686373
_cell_angle_beta	89.870193
_cell_angle_gamma	93.935019
loop_
_atom_site_label
_atom_site_type_symbol
_atom_site_fract_x
_atom_site_fract_y
_atom_site_fract_z
Zn1	Zn	1.197361	-0.522910	0.478982
Zn2	Zn	1.530694	-0.189576	0.812315
Zn3	Zn	1.864027	0.143757	1.145648
Zn4	Zn	1.188577	-0.687181	0.322471
Zn5	Zn	1.521910	-0.353848	0.655804
Zn6	Zn	1.855244	-0.020515	0.989137
Zn7	Zn	1.067022	-0.505458	0.334756
Zn8	Zn	1.400355	-0.172124	0.668090
Zn9	Zn	1.733689	0.161209	1.001423
Zn10	Zn	1.042624	-0.686226	0.454545
Zn11	Zn	1.375957	-0.352893	0.787879
Zn12	Zn	1.709291	-0.019559	1.121212
O13	O	1.123896	-0.600444	0.397688
O14	O	1.457229	-0.267110	0.731022
O15	O	1.790563	0.066223	1.064355
O16	O	1.311825	-0.552404	0.463305
O17	O	1.645158	-0.219071	0.796638
O18	O	1.978491	0.114262	1.129972
O19	O	1.178987	-0.656171	0.208468
O20	O	1.512321	-0.322838	0.541801
O21	O	1.845654	0.010496	0.875134
O22	O	1.098198	-0.363372	0.369256
O23	O	1.431532	-0.030039	0.702590
O24	O	1.764865	0.303294	1.035923
O25	O	1.305371	-0.673094	0.348317
O26	O	1.638705	-0.339760	0.681650
O27	O	1.972038	-0.006427	1.014984
O28	O	1.193957	-0.376194	0.475218
O29	O	1.527291	-0.042861	0.808551
O30	O	1.860624	0.290472	1.141885
O31	O	1.089681	-0.522660	0.217494
O32	O	1.423015	-0.189326	0.550827
O33	O	1.756348	0.144007	0.884161
O34	O	0.948157	-0.521733	0.345562
O35	O	1.281490	-0.188400	0.678895
O36	O	1.614823	0.144933	1.012228
O37	O	1.056616	-0.671466	0.573419
O38	O	1.389949	-0.338133	0.906753
O39	O	1.723282	-0.004799	1.240086
O40	O	0.930232	-0.654543	0.433570
O41	O	1.263565	-0.321210	0.766903
O42	O	1.596898	0.012123	1.100237
O43	O	1.170300	-0.551478	0.591373
O44	O	1.503633	-0.218145	0.924706
O45	O	1.836967	0.115189	1.258039
O46	O	1.155330	-0.831455	0.324622
O47	O	1.488663	-0.498122	0.657956
O48	O	1.821996	-0.164788	0.991289
O49	O	1.048099	-0.830753	0.421657
O50	O	1.381432	-0.497420	0.754991
O51	O	1.714765	-0.164086	1.088324
C52	C	1.098135	-0.868548	0.369174
C53	C	1.431468	-0.535215	0.702507
C54	C	1.764801	-0.201881	1.035841
C55	C	1.087188	-0.983251	0.357006
C56	C	1.420521	-0.649918	0.690340
C57	C	1.753855	-0.316584	1.023673
C58	C	0.909213	-0.586142	0.388248
C59	C	1.242546	-0.252808	0.721581
C60	C	1.575879	0.080525	1.054914
C61	C	0.817367	-0.580049	0.384226
C62	C	1.150700	-0.246716	0.717559
C63	C	1.484033	0.086617	1.050893
C64	C	1.129652	-1.040651	0.404057
C65	C	1.462985	-0.707317	0.737391
C66	C	1.796319	-0.373984	1.070724
C67	C	1.118339	-1.159202	0.391483
C68	C	1.451673	-0.825869	0.724816
C69	C	1.785006	-0.492535	1.058149
C70	C	0.599425	-0.632038	0.418552
C71	C	0.932758	-0.298705	0.751886
C72	C	1.266092	0.034629	1.085219
C73	C	0.649206	-0.568935	0.376881
C74	C	0.982540	-0.235602	0.710214
C75	C	1.315873	0.097731	1.043548
C76	C	0.742779	-0.575121	0.380969
C77	C	1.076113	-0.241788	0.714302
C78	C	1.409446	0.091546	1.047636
C79	C	0.505843	-0.625854	0.414465
C80	C	0.839177	-0.292521	0.747799
C81	C	1.172510	0.040813	1.081132
C82	C	1.339417	-0.614802	0.407166
C83	C	1.672751	-0.281469	0.740500
C84	C	2.006084	0.051864	1.073833
C85	C	1.431260	-0.620921	0.411205
C86	C	1.764593	-0.287588	0.744539
C87	C	2.097927	0.045746	1.077872
C88	C	1.111716	-0.613312	0.613217
C89	C	1.445049	-0.279979	0.946550
C90	C	1.778383	0.053355	1.279883
C91	C	1.106526	-0.618796	0.705062
C92	C	1.439859	-0.285463	1.038395
C93	C	1.773192	0.047871	1.371728
C94	C	1.149779	-0.331295	0.426333
C95	C	1.483113	0.002038	0.759667
C96	C	1.816446	0.335372	1.093000
C97	C	1.160809	-0.216600	0.438540
C98	C	1.494142	0.116734	0.771873
C99	C	1.827476	0.450067	1.105207
C100	C	1.136083	-0.587554	0.183009
C101	C	1.469417	-0.254221	0.516342
C102	C	1.802750	0.079113	0.849675
C103	C	1.141462	-0.581790	0.091202
C104	C	1.474795	-0.248457	0.424535
C105	C	1.808128	0.084877	0.757869
C106	C	1.150964	-0.571820	0.923036
C107	C	1.484297	-0.238486	1.256369
C108	C	1.817631	0.094847	1.589702
C109	C	1.097026	-0.628763	0.873223
C110	C	1.430359	-0.295430	1.206557
C111	C	1.763692	0.037903	1.539890
C112	C	1.102313	-0.623216	0.779650
C113	C	1.435646	-0.289882	1.112983
C114	C	1.768980	0.043451	1.446316
C115	C	1.145678	-0.577366	1.016618
C116	C	1.479011	-0.244033	1.349951
C117	C	1.812345	0.089301	1.683285
H118	H	1.174379	-1.002028	0.453652
H119	H	1.507713	-0.668695	0.786986
H120	H	1.841046	-0.335361	1.120319
Br121	Br	1.043772	-1.223564	0.308826
Br122	Br	1.377105	-0.890231	0.642160
Br123	Br	1.710439	-0.556897	0.975493
H124	H	1.046873	-0.681674	0.900854
H125	H	1.380206	-0.348341	1.234187
H126	H	1.713539	-0.015008	1.567520
H127	H	1.205539	-1.177980	0.488138
H128	H	1.538873	-0.844647	0.821471
H129	H	1.872206	-0.511313	1.154805
Br130	Br	1.234533	-0.483608	0.876987
Br131	Br	1.567867	-0.150275	1.210321
Br132	Br	1.901200	0.183059	1.543654
H133	H	1.042454	-1.021876	0.307419
H134	H	1.375787	-0.688543	0.640752
H135	H	1.709120	-0.355209	0.974085
Br136	Br	0.603116	-0.471151	0.312298
Br137	Br	0.936449	-0.137817	0.645631
Br138	Br	1.269782	0.195516	0.978964
H139	H	0.627080	-0.690704	0.457295
H140	H	0.960413	-0.357370	0.790628
H141	H	1.293746	-0.024037	1.123961
