data_functionalizedCrystal
_audit_creation_method	'MofGen! by Chris Wilmer'
_symmetry_space_group_name_H-M	'P1'
_symmetry_Int_Tables_number	1
_symmetry_cell_setting	triclinic
loop_
_symmetry_equiv_pos_as_xyz
  x,y,z
_cell_length_a	10.654549
_cell_length_b	17.019294
_cell_length_c	9.730223
_cell_angle_alpha	86.116633
_cell_angle_beta	89.997731
_cell_angle_gamma	83.938312
loop_
_atom_site_label
_atom_site_type_symbol
_atom_site_fract_x
_atom_site_fract_y
_atom_site_fract_z
O1	O	1.666104	0.110793	-0.127368
O2	O	1.300460	0.121349	-0.128627
O3	O	1.493483	0.001294	-0.114407
O4	O	1.473082	0.230848	-0.141588
O5	O	1.493470	0.001291	0.114173
O6	O	1.300448	0.121346	0.099954
O7	O	1.666092	0.110790	0.101212
Zn8	Zn	1.483268	0.116067	0.136875
Zn9	Zn	1.483284	0.116072	-0.164289
O10	O	1.473070	0.230845	0.086993
C11	C	1.253668	0.120572	-0.014246
C12	C	1.114262	0.118254	-0.013975
C13	C	0.902674	0.186756	-0.022081
C14	C	1.033660	0.188940	-0.022348
C15	C	1.063870	0.045378	-0.005349
C16	C	0.932886	0.043194	-0.005092
C17	C	1.492703	-0.028101	0.003361
C18	C	1.490383	-0.115684	0.013722
C19	C	1.489302	-0.156825	-0.106008
C20	C	1.487114	-0.239118	-0.096268
C21	C	1.486015	-0.280269	0.033203
C22	C	1.487092	-0.239123	0.152943
C23	C	1.489271	-0.156831	0.143201
C24	C	1.479426	-0.528738	0.068849
C25	C	1.477250	-0.611037	0.078582
C26	C	1.477270	-0.611025	-0.170630
C27	C	1.479457	-0.528732	-0.180360
C28	C	1.480527	-0.487592	-0.060621
C29	C	1.483782	-0.364386	0.043162
C30	C	1.482751	-0.403476	-0.070581
C31	C	1.712884	0.111566	-0.013171
C32	C	1.852291	0.113885	-0.013451
C33	C	1.473850	0.260240	-0.030778
C34	C	1.476170	0.347823	-0.041149
N35	N	1.483266	0.116064	0.342412
N36	N	1.483296	0.116069	-0.369826
C37	C	1.568765	0.062926	0.420632
C38	C	1.568778	0.062926	0.564514
C39	C	1.397788	0.169209	0.551944
C40	C	1.397771	0.169204	0.408065
H41	H	0.837056	0.244317	-0.028888
Br42	Br	1.485580	-0.294969	0.328657
H43	H	1.638397	0.019656	0.628198
Br44	Br	1.102032	0.287840	-0.034071
H45	H	0.891865	-0.016149	0.001931
H46	H	1.638379	0.019655	0.367181
H47	H	1.129506	-0.012176	0.001460
Br48	Br	1.281765	0.241327	0.641049
Br49	Br	1.281719	0.241319	0.301898
H50	H	1.490203	-0.123325	-0.211438
H51	H	1.490133	-0.123334	0.240699
Br52	Br	1.485645	-0.294948	-0.258768
Br53	Br	1.480957	-0.472889	-0.356078
Br54	Br	1.475819	-0.666862	-0.333124
H55	H	1.476349	-0.644540	0.184019
H56	H	1.480323	-0.495254	0.166350
H57	H	1.483637	-0.369966	-0.175997
H58	H	1.482891	-0.397902	0.148579
