data_functionalizedCrystal
_audit_creation_method	'MofGen! by Chris Wilmer'
_symmetry_space_group_name_H-M	'P1'
_symmetry_Int_Tables_number	1
_symmetry_cell_setting	triclinic
loop_
_symmetry_equiv_pos_as_xyz
  x,y,z
_cell_length_a	17.019383
_cell_length_b	17.038272
_cell_length_c	13.448316
_cell_angle_alpha	89.993314
_cell_angle_beta	86.117264
_cell_angle_gamma	87.246883
loop_
_atom_site_label
_atom_site_type_symbol
_atom_site_fract_x
_atom_site_fract_y
_atom_site_fract_z
O1	O	1.053359	0.099663	-0.172804
O2	O	1.386693	0.432996	0.160529
O3	O	1.720026	0.766329	0.493863
O4	O	0.824548	0.112351	-0.153232
O5	O	1.157881	0.445684	0.180101
O6	O	1.491215	0.779017	0.513434
O7	O	0.937594	-0.007808	-0.162894
O8	O	1.270927	0.325526	0.170439
O9	O	1.604261	0.658859	0.503773
O10	O	0.940314	0.219821	-0.163142
O11	O	1.273647	0.553154	0.170191
O12	O	1.606980	0.886488	0.503524
O13	O	0.937578	-0.007815	0.002491
O14	O	1.270912	0.325518	0.335825
O15	O	1.604245	0.658852	0.669158
O16	O	0.824532	0.112343	0.012153
O17	O	1.157866	0.445677	0.345486
O18	O	1.491199	0.779010	0.678820
O19	O	1.053344	0.099655	-0.007419
O20	O	1.386677	0.432989	0.325914
O21	O	1.720010	0.766322	0.659248
Cu22	Cu	0.938937	0.105999	0.017468
Cu23	Cu	1.272270	0.439332	0.350801
Cu24	Cu	1.605603	0.772665	0.684135
Cu25	Cu	0.938955	0.106007	-0.178119
Cu26	Cu	1.272289	0.439341	0.155214
Cu27	Cu	1.605622	0.772674	0.488548
O28	O	0.940298	0.219814	0.002243
O29	O	1.273631	0.553147	0.335576
O30	O	1.606965	0.886480	0.668910
C31	C	0.795119	0.111864	-0.068023
C32	C	1.128452	0.445197	0.265310
C33	C	1.461786	0.778530	0.598644
C34	C	0.707452	0.110414	-0.060524
C35	C	1.040786	0.443748	0.272809
C36	C	1.374119	0.777081	0.606143
C37	C	0.666268	0.109739	-0.147145
C38	C	0.999601	0.443073	0.186188
C39	C	1.332934	0.776406	0.519522
C40	C	0.583895	0.108390	-0.140084
C41	C	0.917228	0.441723	0.193249
C42	C	1.250562	0.775057	0.526582
C43	C	0.542708	0.107710	-0.046402
C44	C	0.876042	0.441043	0.286932
C45	C	1.209375	0.774377	0.620265
C46	C	0.583899	0.108388	0.040226
C47	C	0.917232	0.441721	0.373559
C48	C	1.250565	0.775054	0.706893
C49	C	0.666270	0.109742	0.033164
C50	C	0.999603	0.443076	0.366498
C51	C	1.332936	0.776409	0.699831
C52	C	0.294001	0.103624	-0.020570
C53	C	0.627334	0.436957	0.312763
C54	C	0.960667	0.770291	0.646097
C55	C	0.211624	0.102267	-0.013515
C56	C	0.544957	0.435600	0.319819
C57	C	0.878291	0.768933	0.653152
C58	C	0.211626	0.102271	-0.193826
C59	C	0.544959	0.435604	0.139508
C60	C	0.878293	0.768937	0.472841
C61	C	0.293999	0.103621	-0.200879
C62	C	0.627332	0.436954	0.132454
C63	C	0.960665	0.770288	0.465787
C64	C	0.335182	0.104302	-0.114252
C65	C	0.668515	0.437636	0.219082
C66	C	1.001848	0.770969	0.552415
C67	C	0.458510	0.106328	-0.039182
C68	C	0.791844	0.439662	0.294151
C69	C	1.125177	0.772995	0.627484
C70	C	0.419378	0.105690	-0.121472
C71	C	0.752711	0.439023	0.211861
C72	C	1.086045	0.772356	0.545195
C73	C	0.935112	-0.036938	-0.079990
C74	C	1.268446	0.296396	0.253343
C75	C	1.601779	0.629729	0.586677
C76	C	0.927732	-0.123725	-0.079359
C77	C	1.261065	0.209609	0.253974
C78	C	1.594399	0.542942	0.587308
C79	C	0.995492	-0.173893	-0.085154
C80	C	1.328825	0.159440	0.248180
C81	C	1.662158	0.492774	0.581513
C82	C	0.988552	-0.255438	-0.084570
C83	C	1.321886	0.077895	0.248764
C84	C	1.655219	0.411229	0.582097
C85	C	0.913853	-0.286813	-0.078183
C86	C	1.247186	0.046520	0.255150
C87	C	1.580519	0.379854	0.588483
C88	C	0.846088	-0.236638	-0.072391
C89	C	1.179421	0.096695	0.260942
C90	C	1.512755	0.430029	0.594276
C91	C	0.853028	-0.155095	-0.072982
C92	C	1.186361	0.178239	0.260351
C93	C	1.519695	0.511572	0.593684
C94	C	0.889335	-0.532551	-0.076100
C95	C	1.222668	-0.199218	0.257233
C96	C	1.556002	0.134116	0.590567
C97	C	0.882400	-0.614101	-0.075506
C98	C	1.215733	-0.280768	0.257827
C99	C	1.549067	0.052566	0.591161
C100	C	1.024865	-0.632895	-0.087687
C101	C	1.358199	-0.299562	0.245647
C102	C	1.691532	0.033771	0.578980
C103	C	1.031799	-0.551350	-0.088271
C104	C	1.365132	-0.218016	0.245062
C105	C	1.698465	0.115317	0.578395
C106	C	0.964034	-0.501182	-0.082484
C107	C	1.297367	-0.167849	0.250849
C108	C	1.630701	0.165485	0.584183
C109	C	0.906758	-0.370165	-0.077583
C110	C	1.240091	-0.036831	0.255750
C111	C	1.573425	0.296502	0.589084
C112	C	0.971129	-0.417832	-0.083092
C113	C	1.304463	-0.084498	0.250242
C114	C	1.637796	0.248835	0.583575
C115	C	1.082773	0.100142	-0.092630
C116	C	1.416106	0.433476	0.240703
C117	C	1.749439	0.766809	0.574036
C118	C	1.170439	0.101592	-0.100136
C119	C	1.503773	0.434925	0.233198
C120	C	1.837106	0.768258	0.566531
C121	C	0.942780	0.248944	-0.080663
C122	C	1.276113	0.582277	0.252670
C123	C	1.609446	0.915610	0.586003
C124	C	0.950160	0.335731	-0.081301
C125	C	1.283493	0.669064	0.252032
C126	C	1.616826	1.002397	0.585366
N127	N	0.938929	0.105992	0.155033
N128	N	1.272263	0.439325	0.488366
N129	N	1.605596	0.772659	0.821700
N130	N	0.938968	0.106008	-0.315685
N131	N	1.272302	0.439341	0.017649
N132	N	1.605635	0.772674	0.350982
C133	C	0.989004	0.052808	0.202794
C134	C	1.322337	0.386141	0.536127
C135	C	1.655671	0.719474	0.869460
C136	C	0.989009	0.052807	0.306896
C137	C	1.322342	0.386140	0.640230
C138	C	1.655676	0.719474	0.973563
C139	C	0.938943	0.105995	0.363236
C140	C	1.272276	0.439328	0.696570
C141	C	1.605609	0.772662	1.029903
C142	C	0.888862	0.159182	0.315469
C143	C	1.222196	0.492515	0.648802
C144	C	1.555529	0.825849	0.982136
C145	C	0.888854	0.159178	0.211368
C146	C	1.222187	0.492511	0.544702
C147	C	1.555521	0.825845	0.878035
C148	C	0.888884	0.159187	0.532447
C149	C	1.222218	0.492520	0.865780
C150	C	1.555551	0.825854	1.199114
C151	C	0.888894	0.159192	0.636555
C152	C	1.222227	0.492525	0.969888
C153	C	1.555560	0.825859	1.303222
C154	C	0.989040	0.052816	0.627975
C155	C	1.322373	0.386149	0.961308
C156	C	1.655706	0.719483	1.294642
C157	C	0.989031	0.052812	0.523875
C158	C	1.322365	0.386146	0.857208
C159	C	1.655698	0.719479	1.190541
C160	C	0.938952	0.106000	0.476114
C161	C	1.272285	0.439334	0.809448
C162	C	1.605618	0.772667	1.142781
H163	H	0.550358	0.107839	0.116504
H164	H	0.883691	0.441172	0.449838
H165	H	1.217024	0.774505	0.783171
Br166	Br	1.116826	-0.700983	-0.095540
Br167	Br	1.450160	-0.367650	0.237793
Br168	Br	1.783493	-0.034317	0.571127
H169	H	0.550366	0.107840	-0.210621
H170	H	0.883699	0.441174	0.122713
H171	H	1.217033	0.774507	0.456046
H172	H	0.848077	0.202485	0.172483
H173	H	1.181410	0.535818	0.505816
H174	H	1.514744	0.869152	0.839150
Br175	Br	0.820914	0.231369	0.467633
Br176	Br	1.154247	0.564702	0.800967
Br177	Br	1.487581	0.898035	1.134300
Br178	Br	0.781015	-0.656680	-0.066828
Br179	Br	1.114349	-0.323347	0.266505
Br180	Br	1.447682	0.009986	0.599839
H181	H	0.452915	0.106248	-0.197748
H182	H	0.786248	0.439581	0.135585
H183	H	1.119582	0.772914	0.468919
H184	H	0.845937	-0.395719	-0.072381
H185	H	1.179270	-0.062386	0.260952
H186	H	1.512604	0.270947	0.594285
H187	H	1.056320	-0.148354	-0.090348
H188	H	1.389653	0.184979	0.242985
H189	H	1.722987	0.518312	0.576319
H190	H	1.029816	0.009509	0.666868
H191	H	1.363149	0.342842	1.000201
H192	H	1.696482	0.676175	1.333534
Br193	Br	1.133181	-0.508775	-0.096971
Br194	Br	1.466514	-0.175442	0.236363
Br195	Br	1.799847	0.157891	0.569696
Br196	Br	0.402608	0.105407	0.087956
Br197	Br	0.735941	0.438740	0.421289
Br198	Br	1.069274	0.772074	0.754622
Br199	Br	1.056962	-0.019375	0.126342
Br200	Br	1.390295	0.313959	0.459675
Br201	Br	1.723628	0.647292	0.793009
Br202	Br	0.797368	-0.464476	-0.068252
Br203	Br	1.130701	-0.131143	0.265081
Br204	Br	1.464034	0.202190	0.598415
Br205	Br	1.056965	-0.019375	0.371718
Br206	Br	1.390299	0.313958	0.705051
Br207	Br	1.723632	0.647292	1.038385
Br208	Br	0.722156	0.110654	-0.274292
Br209	Br	1.055490	0.443987	0.059041
Br210	Br	1.388823	0.777320	0.392374
Br211	Br	0.820907	0.231362	0.391927
Br212	Br	1.154240	0.564695	0.725260
Br213	Br	1.487574	0.898029	1.058594
H214	H	0.848124	0.202502	0.682422
H215	H	1.181457	0.535836	1.015756
H216	H	1.514790	0.869169	1.349089
H217	H	0.327522	0.104174	0.049969
H218	H	0.660855	0.437507	0.383302
H219	H	0.994189	0.770840	0.716635
H220	H	0.785266	-0.262190	-0.067198
H221	H	1.118599	0.071144	0.266136
H222	H	1.451932	0.404477	0.599469
H223	H	1.043730	-0.296283	-0.089286
H224	H	1.377063	0.037051	0.244047
H225	H	1.710397	0.370384	0.577380
H226	H	0.327528	0.104169	-0.277166
H227	H	0.660861	0.437502	0.056168
H228	H	0.994194	0.770836	0.389501
H229	H	0.178086	0.101718	-0.264353
H230	H	0.511419	0.435051	0.068981
H231	H	0.844753	0.768384	0.402314
H232	H	0.178091	0.101735	0.062777
H233	H	0.511424	0.435069	0.396110
H234	H	0.844758	0.768402	0.729444
Br235	Br	0.722164	0.110666	0.150726
Br236	Br	1.055497	0.443999	0.484059
Br237	Br	1.388831	0.777332	0.817393
Br238	Br	0.761065	-0.087007	-0.065125
Br239	Br	1.094398	0.246326	0.268208
Br240	Br	1.427731	0.579660	0.601541
H241	H	1.031950	-0.392283	-0.088313
H242	H	1.365283	-0.058949	0.245020
H243	H	1.698616	0.274384	0.578353
H244	H	1.029803	0.009507	0.478002
H245	H	1.363136	0.342840	0.811335
H246	H	1.696470	0.676173	1.144669
