data_functionalizedCrystal
_audit_creation_method	'MofGen! by Chris Wilmer'
_symmetry_space_group_name_H-M	'P1'
_symmetry_Int_Tables_number	1
_symmetry_cell_setting	triclinic
loop_
_symmetry_equiv_pos_as_xyz
  x,y,z
_cell_length_a	14.971496
_cell_length_b	16.109296
_cell_length_c	13.448316
_cell_angle_alpha	89.996950
_cell_angle_beta	90.004565
_cell_angle_gamma	96.461293
loop_
_atom_site_label
_atom_site_type_symbol
_atom_site_fract_x
_atom_site_fract_y
_atom_site_fract_z
O1	O	0.114947	-1.103282	0.082647
O2	O	0.129259	-0.861238	0.082660
O3	O	-0.008106	-0.988744	0.082644
O4	O	0.252312	-0.975777	0.082662
O5	O	-0.008107	-0.988731	-0.082740
O6	O	0.129258	-0.861225	-0.082724
O7	O	0.114945	-1.103270	-0.082737
Cu8	Cu	0.122102	-0.982246	-0.097831
Cu9	Cu	0.122103	-0.982262	0.097754
O10	O	0.252311	-0.975764	-0.082721
C11	C	0.128680	-0.830256	-0.000031
C12	C	0.126944	-0.737958	-0.000026
C13	C	0.202779	-0.429056	-0.000040
C14	C	0.204418	-0.515779	-0.000034
C15	C	0.041441	-0.535444	-0.000032
C16	C	0.039803	-0.448723	-0.000032
C17	C	0.120475	-0.395531	-0.000041
C18	C	0.123752	-0.568975	-0.000035
C19	C	0.125529	-0.663003	-0.000028
C20	C	0.118698	-0.301496	-0.000046
C21	C	-0.041430	-0.988156	-0.000048
C22	C	-0.140724	-0.986414	-0.000048
C23	C	-0.568417	-0.978921	0.090129
C24	C	-0.475120	-0.980563	0.090124
C25	C	-0.428478	-0.981371	-0.000030
C26	C	-0.475139	-0.980546	-0.090186
C27	C	-0.568435	-0.978911	-0.090181
C28	C	-0.280681	-0.983953	-0.090191
C29	C	-0.187379	-0.985586	-0.090197
C30	C	-0.187366	-0.985605	0.090114
C31	C	-0.280662	-0.983969	0.090119
C32	C	-0.327316	-0.983143	-0.000037
C33	C	0.285635	-0.976352	-0.000027
C34	C	0.384929	-0.978094	-0.000020
C35	C	0.115530	-0.134251	-0.000046
C36	C	0.117282	-0.226547	-0.000049
N37	N	0.122100	-0.982242	-0.235396
C38	C	0.176367	-1.032718	-0.287430
C39	C	0.176363	-1.032729	-0.391534
C40	C	0.122096	-0.982258	-0.443600
C41	C	0.067823	-0.931779	-0.391558
C42	C	0.067823	-0.931774	-0.287457
C43	C	0.067829	-0.931792	-0.608538
C44	C	0.067831	-0.931796	-0.712647
C45	C	0.176369	-1.032747	-0.712615
C46	C	0.176369	-1.032742	-0.608514
C47	C	0.122097	-0.982262	-0.556479
N48	N	0.122098	-0.982273	0.235318
H49	H	-0.606385	-0.978256	0.163543
H50	H	0.220551	-1.073833	-0.433896
O51	O	-0.142209	-0.986380	-0.177861
C52	C	-0.203386	-0.985270	-0.257434
H53	H	-0.273595	-1.010438	-0.231022
H54	H	-0.203928	-0.918437	-0.285115
C55	C	-0.088406	-1.009428	-0.375079
C56	C	-0.174637	-1.040346	-0.342642
H57	H	-0.070671	-1.043398	-0.427642
H58	H	-0.047188	-1.010173	-0.321470
H59	H	-0.088869	-0.953735	-0.398140
H60	H	-0.174170	-1.096034	-0.319570
H61	H	-0.215854	-1.039612	-0.396250
O62	O	-0.613819	-0.978250	-0.177725
C63	C	-0.677951	-1.049242	-0.183114
H64	H	-0.656924	-1.100030	-0.131963
H65	H	-0.746361	-1.031739	-0.158885
C66	C	-0.709826	-1.019449	-0.353651
C67	C	-0.683996	-1.081830	-0.290833
H68	H	-0.713559	-1.039549	-0.420097
H69	H	-0.666622	-0.971618	-0.350020
H70	H	-0.766832	-1.004869	-0.333448
H71	H	-0.626987	-1.096402	-0.311028
H72	H	-0.727191	-1.129665	-0.294470
H73	H	0.220562	-1.073836	-0.566124
H74	H	0.271438	-0.543070	-0.000033
H75	H	0.220564	-1.073846	-0.754987
O76	O	-0.036836	-0.587234	-0.000077
C77	C	-0.017744	-0.670966	-0.000056
H78	H	0.052510	-0.674359	-0.031365
H79	H	-0.021138	-0.696048	0.079286
C80	C	-0.173491	-0.719801	-0.026463
C81	C	-0.087207	-0.723968	-0.064925
H82	H	-0.216340	-0.752496	-0.066473
H83	H	-0.186355	-0.663389	-0.026473
H84	H	-0.176306	-0.740701	0.039655
H85	H	-0.084389	-0.703059	-0.131036
H86	H	-0.074344	-0.780378	-0.064927
O87	O	0.015027	-0.882751	-0.763069
C88	C	-0.032862	-0.838188	-0.694817
H89	H	-0.038068	-0.872595	-0.620605
H90	H	0.003957	-0.772962	-0.683750
C91	C	-0.121483	-0.788881	-0.826607
C92	C	-0.127884	-0.831144	-0.735461
H93	H	-0.180095	-0.784532	-0.851679
H94	H	-0.089217	-0.818901	-0.872590
H95	H	-0.090796	-0.734531	-0.817372
H96	H	-0.158559	-0.885496	-0.744699
H97	H	-0.160157	-0.801132	-0.689479
H98	H	0.023634	-0.890689	-0.433959
O99	O	0.281222	-0.377504	0.000005
C100	C	0.354216	-0.425696	-0.000016
H101	H	0.331494	-0.490397	0.031292
H102	H	0.379445	-0.431892	-0.079357
C103	C	0.458474	-0.303098	0.026395
C104	C	0.430568	-0.382564	0.064856
H105	H	0.505574	-0.276492	0.066406
H106	H	0.409297	-0.270630	0.026405
H107	H	0.479492	-0.308273	-0.039722
H108	H	0.409541	-0.377388	0.130967
H109	H	0.479743	-0.415031	0.064858
H110	H	0.023634	-0.890687	-0.566175
H111	H	-0.318664	-0.983281	-0.163606
H112	H	-0.027223	-0.421427	-0.000028
O113	O	-0.429933	-0.981323	0.177784
C114	C	-0.491108	-0.980274	0.257357
H115	H	-0.553903	-0.952803	0.230930
H116	H	-0.510433	-1.046750	0.285076
C117	C	-0.369875	-0.960178	0.374991
C118	C	-0.446998	-0.926431	0.342535
H119	H	-0.342666	-0.926969	0.427535
H120	H	-0.328660	-0.960888	0.321382
H121	H	-0.385990	-1.015574	0.398083
H122	H	-0.430880	-0.871041	0.319433
H123	H	-0.488210	-0.925711	0.396142
H124	H	-0.318634	-0.983307	0.163531
H125	H	-0.149374	-0.986271	0.163522
H126	H	-0.437157	-0.981209	-0.163592
H127	H	0.220563	-1.073813	-0.245045
H128	H	0.023633	-0.890671	-0.245092
