data_functionalizedCrystal
_audit_creation_method	'MofGen! by Chris Wilmer'
_symmetry_space_group_name_H-M	'P1'
_symmetry_Int_Tables_number	1
_symmetry_cell_setting	triclinic
loop_
_symmetry_equiv_pos_as_xyz
  x,y,z
_cell_length_a	10.654541
_cell_length_b	10.654556
_cell_length_c	9.730223
_cell_angle_alpha	89.998368
_cell_angle_beta	89.995824
_cell_angle_gamma	84.485733
loop_
_atom_site_label
_atom_site_type_symbol
_atom_site_fract_x
_atom_site_fract_y
_atom_site_fract_z
O1	O	0.176437	1.667833	-0.114237
O2	O	0.193235	1.302355	-0.114251
O3	O	0.002097	1.493499	-0.114236
O4	O	0.367575	1.476689	-0.114253
O5	O	0.002091	1.493486	0.114344
O6	O	0.193229	1.302343	0.114329
O7	O	0.176432	1.667820	0.114343
Zn8	Zn	0.184830	1.485080	0.150628
Zn9	Zn	0.184837	1.485096	-0.150536
O10	O	0.367570	1.476677	0.114327
C11	C	0.191997	1.255551	0.000037
C12	C	0.188302	1.116108	0.000032
C13	C	0.183102	0.919570	-0.124556
C14	C	0.186566	1.050592	-0.124565
C15	C	0.186560	1.050597	0.124645
C16	C	0.183087	0.919578	0.124653
C17	C	-0.044704	1.492259	0.000053
C18	C	-0.184148	1.488568	0.000051
C19	C	-0.212113	1.717132	0.000077
C20	C	-0.291605	1.829675	0.000093
C21	C	-0.422623	1.826199	0.000089
C22	C	-0.474151	1.710169	0.000064
C23	C	-0.394659	1.597626	0.000048
C24	C	-0.263640	1.601114	0.000057
C25	C	-0.366694	1.369065	0.000012
C26	C	-0.235676	1.372537	0.000027
C27	C	-0.418222	1.253034	-0.000012
C28	C	-0.338730	1.140488	-0.000018
C29	C	-0.207704	1.143969	-0.000012
C30	C	-0.156184	1.259995	0.000011
C31	C	0.414371	1.477917	0.000035
C32	C	0.553814	1.481607	0.000028
C33	C	0.177669	1.714624	0.000051
C34	C	0.181365	1.854067	0.000048
N35	N	0.184824	1.485078	0.356164
N36	N	0.184832	1.485108	-0.356073
C37	C	0.100224	1.569745	0.428097
C38	C	0.100225	1.569758	0.571980
C39	C	0.269436	1.400431	0.571984
C40	C	0.269429	1.400414	0.428104
H41	H	0.187966	1.103952	0.226094
C42	C	0.007170	1.662897	0.651100
H43	H	-0.043208	1.713319	0.587644
H44	H	-0.045536	1.617282	0.707244
H45	H	0.052851	1.715572	0.707211
H46	H	-0.142988	1.052322	-0.000031
C47	C	0.362467	1.307278	0.651116
H48	H	0.412832	1.256832	0.587665
H49	H	0.415189	1.352874	0.707249
H50	H	0.316758	1.254628	0.707238
C51	C	-0.067997	1.720953	0.000099
H52	H	-0.028035	1.637310	0.000097
H53	H	-0.043505	1.763965	-0.079597
H54	H	-0.043539	1.763930	0.079835
H55	H	0.181671	0.866245	0.226126
C56	C	0.362496	1.307278	0.348972
H57	H	0.412897	1.256870	0.412422
H58	H	0.316825	1.254607	0.292860
H59	H	0.415199	1.352909	0.292830
C60	C	0.188486	1.122639	-0.261630
H61	H	0.186972	1.064853	-0.335833
H62	H	0.116733	1.182689	-0.266817
H63	H	0.262959	1.164806	-0.266811
H64	H	0.181698	0.866235	-0.226018
C65	C	-0.234922	1.957299	0.000126
H66	H	-0.145508	1.943256	0.000139
H67	H	-0.262131	2.003702	-0.079576
H68	H	-0.262147	2.003667	0.079856
H69	H	-0.487346	1.917842	0.000091
H70	H	-0.580834	1.707349	0.000044
C71	C	-0.395412	1.012873	-0.000044
H72	H	-0.484826	1.026922	-0.000043
H73	H	-0.368185	0.966491	-0.079755
H74	H	-0.368212	0.966480	0.079677
H75	H	-0.524905	1.250212	-0.000024
C76	C	-0.012068	1.263822	0.000017
H77	H	0.027898	1.180180	0.000011
H78	H	0.012411	1.306833	-0.079684
H79	H	0.012398	1.306801	0.079748
C80	C	0.007153	1.662860	0.348967
H81	H	-0.043239	1.713277	0.412420
H82	H	0.052811	1.715523	0.292820
H83	H	-0.045557	1.617214	0.292860
