data_functionalizedCrystal
_audit_creation_method	'MofGen! by Chris Wilmer'
_symmetry_space_group_name_H-M	'P1'
_symmetry_Int_Tables_number	1
_symmetry_cell_setting	triclinic
loop_
_symmetry_equiv_pos_as_xyz
  x,y,z
_cell_length_a	16.109301
_cell_length_b	9.065218
_cell_length_c	8.140239
_cell_angle_alpha	89.998314
_cell_angle_beta	89.999998
_cell_angle_gamma	84.238683
loop_
_atom_site_label
_atom_site_type_symbol
_atom_site_fract_x
_atom_site_fract_y
_atom_site_fract_z
O1	O	1.104587	0.189628	-0.136503
O2	O	1.604587	0.689628	0.363497
O3	O	0.862706	0.213227	-0.136528
O4	O	1.362706	0.713227	0.363472
O5	O	0.988646	-0.013336	-0.136512
O6	O	1.488646	0.486664	0.363488
O7	O	0.978647	0.416191	-0.136519
O8	O	1.478647	0.916191	0.363481
O9	O	0.988639	-0.013338	0.136716
O10	O	1.488639	0.486662	0.636716
O11	O	0.862699	0.213225	0.136699
O12	O	1.362699	0.713225	0.636699
O13	O	1.104580	0.189626	0.136724
O14	O	1.604580	0.689626	0.636724
Zn15	Zn	0.983638	0.201425	0.180092
Zn16	Zn	1.483638	0.701425	0.680092
Zn17	Zn	0.983648	0.201428	-0.179896
Zn18	Zn	1.483648	0.701428	0.320104
O19	O	0.978640	0.416188	0.136708
O20	O	1.478640	0.916188	0.636708
C21	C	0.987682	-0.068300	0.000099
C22	C	1.487682	0.431700	0.500099
C23	C	0.984808	-0.232074	0.000091
C24	C	1.484808	0.267926	0.500091
C25	C	0.831720	0.212270	0.000082
C26	C	1.331720	0.712270	0.500082
C27	C	0.739403	0.209404	0.000072
C28	C	1.239403	0.709404	0.500072
C29	C	0.518112	0.337178	0.000089
C30	C	1.018112	0.837178	0.500089
C31	C	0.431371	0.334474	0.000100
C32	C	0.931371	0.834474	0.500100
C33	C	0.449180	0.065664	0.000098
C34	C	0.949180	0.565664	0.500098
C35	C	0.535920	0.068370	0.000099
C36	C	1.035920	0.568370	0.500099
C37	C	0.570383	0.204131	0.000086
C38	C	1.070383	0.704131	0.500086
C39	C	0.396903	0.198721	0.000096
C40	C	0.896903	0.698721	0.500096
C41	C	0.302854	0.195788	0.000107
C42	C	0.802854	0.695788	0.500107
C43	C	0.664438	0.207065	0.000078
C44	C	1.164438	0.707065	0.500078
C45	C	1.135565	0.190583	0.000110
C46	C	1.635565	0.690583	0.500110
C47	C	1.227883	0.193449	0.000109
C48	C	1.727883	0.693449	0.500109
C49	C	0.979604	0.471153	0.000093
C50	C	1.479604	0.971153	0.500093
C51	C	0.982478	0.634926	0.000091
C52	C	1.482478	1.134926	0.500091
N53	N	0.983638	0.201421	0.425775
N54	N	1.483638	0.701421	0.925775
N55	N	0.983654	0.201419	-0.425579
N56	N	1.483654	0.701419	0.074421
H57	H	0.388815	0.442814	0.000105
H58	H	0.888815	0.942814	0.500105
H59	H	0.421109	-0.044868	0.000118
H60	H	0.921109	0.455132	0.500118
H61	H	0.578481	-0.039979	0.000101
H62	H	1.078481	0.460021	0.500101
H63	H	0.546169	0.447723	0.000091
H64	H	1.046169	0.947723	0.500091
