data_functionalizedCrystal
_audit_creation_method	'MofGen! by Chris Wilmer'
_symmetry_space_group_name_H-M	'P1'
_symmetry_Int_Tables_number	1
_symmetry_cell_setting	triclinic
loop_
_symmetry_equiv_pos_as_xyz
  x,y,z
_cell_length_a	14.044220
_cell_length_b	26.809956
_cell_length_c	14.044220
_cell_angle_alpha	89.996150
_cell_angle_beta	93.188878
_cell_angle_gamma	90.004656
loop_
_atom_site_label
_atom_site_type_symbol
_atom_site_fract_x
_atom_site_fract_y
_atom_site_fract_z
O1	O	1.277174	0.041429	0.230155
O2	O	1.777174	0.541429	0.730155
O3	O	1.000503	0.041441	0.221849
O4	O	1.500503	0.541441	0.721849
O5	O	1.134686	0.041430	0.087666
O6	O	1.634686	0.541430	0.587666
O7	O	1.142991	0.041440	0.364338
O8	O	1.642991	0.541440	0.864338
O9	O	1.134660	-0.041529	0.087686
O10	O	1.634660	0.458471	0.587686
O11	O	1.000477	-0.041518	0.221869
O12	O	1.500477	0.458482	0.721869
O13	O	1.277149	-0.041531	0.230175
O14	O	1.777149	0.458469	0.730175
Zn15	Zn	1.138809	-0.054696	0.226025
Zn16	Zn	1.638809	0.445304	0.726025
Zn17	Zn	1.138843	0.054606	0.225999
Zn18	Zn	1.638843	0.554606	0.725999
O19	O	1.142966	-0.041520	0.364358
O20	O	1.642966	0.458480	0.864358
C21	C	0.964868	-0.000037	0.218223
C22	C	1.464868	0.499963	0.718223
C23	C	0.858725	-0.000032	0.207379
C24	C	1.358725	0.499968	0.707379
N25	N	1.138792	-0.129292	0.226043
N26	N	1.638792	0.370708	0.726043
C27	C	0.664388	-0.000043	0.187553
C28	C	1.164388	0.499957	0.687553
C29	C	0.613258	-0.000042	0.264467
C30	C	1.113258	0.499958	0.764467
C31	C	0.505122	-0.000048	0.253435
C32	C	1.005122	0.499952	0.753435
C33	C	0.772534	-0.000037	0.198583
C34	C	1.272534	0.499963	0.698583
C35	C	1.198252	-0.473923	0.166598
C36	C	1.698252	0.026077	0.666598
C37	C	1.198273	-0.682801	0.166585
C38	C	1.698273	-0.182801	0.666585
O39	O	1.248790	-0.709809	0.116045
O40	O	1.748790	-0.209809	0.616045
N41	N	1.138846	-0.708919	0.225978
N42	N	1.638846	-0.208919	0.725978
C43	C	1.079405	-0.682815	0.285374
C44	C	1.579405	-0.182815	0.785374
O45	O	1.028852	-0.709823	0.335884
O46	O	1.528852	-0.209823	0.835884
C47	C	1.079379	-0.473938	0.285381
C48	C	1.579379	0.026062	0.785381
C49	C	1.138817	-0.447822	0.225991
C50	C	1.638817	0.052178	0.725991
C51	C	1.257684	-0.447807	0.107212
C52	C	1.757684	0.052193	0.607212
C53	C	1.257682	-0.395591	0.107220
C54	C	1.757682	0.104409	0.607220
C55	C	1.198248	-0.369490	0.166613
C56	C	1.698248	0.130510	0.666613
C57	C	1.138815	-0.395606	0.225999
C58	C	1.638815	0.104394	0.725999
C59	C	1.019933	-0.447835	0.344771
C60	C	1.519933	0.052165	0.844771
C61	C	1.019931	-0.395613	0.344766
C62	C	1.519931	0.104387	0.844766
C63	C	1.079369	-0.369497	0.285376
C64	C	1.579369	0.130503	0.785376
C65	C	1.079378	-0.317289	0.285399
C66	C	1.579378	0.182711	0.785399
N67	N	1.138805	-0.291171	0.226006
N68	N	1.638805	0.208829	0.726006
C69	C	1.198240	-0.317271	0.166613
C70	C	1.698240	0.182729	0.666613
C71	C	1.079424	-0.792478	0.285367
C72	C	1.579424	-0.292478	0.785367
C73	C	1.079431	-0.844697	0.285367
C74	C	1.579431	-0.344697	0.785367
C75	C	1.198299	-0.844679	0.166577
C76	C	1.698299	-0.344679	0.666577
C77	C	1.198296	-0.792459	0.166583
C78	C	1.698296	-0.292459	0.666583
C79	C	1.138851	-0.766360	0.225974
C80	C	1.638851	-0.266360	0.725974
C81	C	1.198232	-0.207613	0.166634
C82	C	1.698232	0.292387	0.666634
C83	C	1.198227	-0.155392	0.166650
C84	C	1.698227	0.344608	0.666650
C85	C	1.079356	-0.155415	0.285436
C86	C	1.579356	0.344585	0.785436
C87	C	1.079364	-0.207631	0.285424
C88	C	1.579364	0.292369	0.785424
C89	C	1.138805	-0.233729	0.226016
C90	C	1.638805	0.266271	0.726016
O91	O	1.028881	-0.290249	0.335905
O92	O	1.528881	0.209751	0.835905
O93	O	1.248770	-0.290254	0.116096
O94	O	1.748770	0.209746	0.616096
C95	C	1.198254	-0.526139	0.166590
C96	C	1.698254	-0.026139	0.666590
C97	C	1.138822	-0.552255	0.225976
C98	C	1.638822	-0.052255	0.725976
C99	C	1.079387	-0.526155	0.285369
C100	C	1.579387	-0.026155	0.785369
C101	C	1.138829	-0.604474	0.225976
C102	C	1.638829	-0.104474	0.725976
C103	C	1.198264	-0.630574	0.166582
C104	C	1.698264	-0.130574	0.666582
C105	C	1.257691	-0.604456	0.107190
C106	C	1.757691	-0.104456	0.607190
C107	C	1.257689	-0.552240	0.107197
C108	C	1.757689	-0.052240	0.607197
C109	C	1.019960	-0.552273	0.344762
C110	C	1.519960	-0.052273	0.844762
C111	C	1.019967	-0.604489	0.344750
C112	C	1.519967	-0.104489	0.844750
C113	C	1.079402	-0.630590	0.285357
C114	C	1.579402	-0.130590	0.785357
C115	C	1.312783	-0.000052	0.233800
C116	C	1.812783	0.499948	0.733800
C117	C	1.418926	-0.000053	0.244645
C118	C	1.918926	0.499947	0.744645
C119	C	1.131037	-0.000050	0.052054
C120	C	1.631037	0.499950	0.552054
C121	C	1.120193	-0.000050	-0.054088
C122	C	1.620193	0.499950	0.445912
N123	N	1.138866	0.129202	0.225974
N124	N	1.638866	0.629202	0.725974
C125	C	1.100366	-0.000042	-0.248426
C126	C	1.600366	0.499958	0.251574
C127	C	1.177281	-0.000044	-0.299556
C128	C	1.677281	0.499956	0.200444
C129	C	1.166249	-0.000039	-0.407692
C130	C	1.666249	0.499961	0.092308
C131	C	1.111397	-0.000046	-0.140280
C132	C	1.611397	0.499954	0.359720
C133	C	1.146614	-0.000039	0.399969
C134	C	1.646614	0.499961	0.899969
C135	C	1.157459	-0.000036	0.506112
C136	C	1.657459	0.499964	1.006112
H137	H	0.650697	-0.000037	0.338600
H138	H	1.150697	0.499963	0.838600
H139	H	0.626951	-0.000048	0.113425
H140	H	1.126951	0.499952	0.613425
H141	H	0.971533	-0.469091	0.393131
H142	H	1.471533	0.030909	0.893131
H143	H	1.251414	-0.000013	-0.262117
H144	H	1.751414	0.499987	0.237883
H145	H	1.026239	-0.000037	-0.285863
H146	H	1.526239	0.499963	0.214137
C147	C	1.014104	-0.763775	0.350786
C148	C	1.514104	-0.263775	0.850786
N149	N	0.964935	-0.742159	0.400090
N150	N	1.464935	-0.242159	0.900090
C151	C	0.954575	-0.633211	0.410088
C152	C	1.454575	-0.133211	0.910088
N153	N	0.905315	-0.654842	0.459291
N154	N	1.405315	-0.154842	0.959291
H155	H	1.246632	-0.134131	0.118288
H156	H	1.746632	0.365869	0.618288
H157	H	1.246632	-0.228856	0.118257
H158	H	1.746632	0.271144	0.618257
H159	H	1.306079	-0.374330	0.058857
H160	H	1.806079	0.125670	0.558857
H161	H	1.246694	-0.865939	0.118218
H162	H	1.746694	-0.365939	0.618218
C163	C	1.263675	-0.763737	0.101243
C164	C	1.763675	-0.263737	0.601243
N165	N	1.312918	-0.742106	0.052024
N166	N	1.812918	-0.242106	0.552024
C167	C	1.014052	-0.873419	0.350708
C168	C	1.514052	-0.373419	0.850708
N169	N	0.964801	-0.895050	0.399919
N170	N	1.464801	-0.395050	0.899919
C171	C	1.323065	-0.476509	0.041861
C172	C	1.823065	0.023491	0.541861
N173	N	1.372317	-0.498125	-0.007364
N174	N	1.872317	0.001875	0.492636
C175	C	0.954546	-0.366906	0.410114
C176	C	1.454546	0.133094	0.910114
N177	N	0.905304	-0.345286	0.459339
N178	N	1.405304	0.154714	0.959339
H179	H	1.030974	-0.228895	0.333795
H180	H	1.530974	0.271105	0.833795
H181	H	1.030968	-0.134156	0.333796
H182	H	1.530968	0.365844	0.833796
C183	C	1.323067	-0.633177	0.041854
C184	C	1.823067	-0.133177	0.541854
N185	N	1.372301	-0.654812	-0.007358
N186	N	1.872301	-0.154812	0.492642
H187	H	1.306089	-0.530980	0.058836
H188	H	1.806089	-0.030980	0.558836
C189	C	0.954646	-0.523570	0.410176
C190	C	1.454646	-0.023570	0.910176
N191	N	0.905477	-0.501952	0.459480
N192	N	1.405477	-0.001952	0.959480
