data_functionalizedCrystal
_audit_creation_method	'MofGen! by Chris Wilmer'
_symmetry_space_group_name_H-M	'P1'
_symmetry_Int_Tables_number	1
_symmetry_cell_setting	triclinic
loop_
_symmetry_equiv_pos_as_xyz
  x,y,z
_cell_length_a	23.532407
_cell_length_b	23.532407
_cell_length_c	9.798715
_cell_angle_alpha	89.988376
_cell_angle_beta	89.999003
_cell_angle_gamma	82.848747
loop_
_atom_site_label
_atom_site_type_symbol
_atom_site_fract_x
_atom_site_fract_y
_atom_site_fract_z
O1	O	0.755259	0.069134	-0.113430
O2	O	1.005259	0.319134	0.136570
O3	O	1.255259	0.569134	0.386570
O4	O	1.505259	0.819134	0.636570
O5	O	0.589396	0.079137	-0.113455
O6	O	0.839396	0.329137	0.136545
O7	O	1.089396	0.579137	0.386545
O8	O	1.339396	0.829137	0.636545
O9	O	0.677329	-0.008796	-0.113403
O10	O	0.927329	0.241204	0.136597
O11	O	1.177329	0.491204	0.386597
O12	O	1.427329	0.741204	0.636597
O13	O	0.667326	0.157067	-0.113481
O14	O	0.917326	0.407067	0.136519
O15	O	1.167326	0.657067	0.386519
O16	O	1.417326	0.907067	0.636519
O17	O	0.677322	-0.008796	0.113579
O18	O	0.927322	0.241204	0.363579
O19	O	1.177322	0.491204	0.613579
O20	O	1.427322	0.741204	0.863579
O21	O	0.589389	0.079137	0.113527
O22	O	0.839389	0.329137	0.363527
O23	O	1.089389	0.579137	0.613527
O24	O	1.339389	0.829137	0.863527
O25	O	0.755252	0.069134	0.113552
O26	O	1.005252	0.319134	0.363552
O27	O	1.255252	0.569134	0.613552
O28	O	1.505252	0.819134	0.863552
Zn29	Zn	0.672320	0.074135	0.149578
Zn30	Zn	0.922320	0.324135	0.399578
Zn31	Zn	1.172320	0.574135	0.649578
Zn32	Zn	1.422320	0.824135	0.899578
Zn33	Zn	0.672328	0.074136	-0.149481
Zn34	Zn	0.922328	0.324136	0.100519
Zn35	Zn	1.172328	0.574136	0.350519
Zn36	Zn	1.422328	0.824136	0.600519
O37	O	0.667319	0.157067	0.113501
O38	O	0.917319	0.407067	0.363501
O39	O	1.167319	0.657067	0.613501
O40	O	1.417319	0.907067	0.863501
C41	C	0.568176	0.078882	0.000034
C42	C	0.818176	0.328882	0.250034
C43	C	1.068176	0.578882	0.500034
C44	C	1.318176	0.828882	0.750034
C45	C	0.504959	0.078116	0.000026
C46	C	0.754959	0.328116	0.250026
C47	C	1.004959	0.578116	0.500026
C48	C	1.254959	0.828116	0.750026
C49	C	0.238792	0.022921	0.000089
C50	C	0.488792	0.272921	0.250089
C51	C	0.738792	0.522921	0.500089
C52	C	0.988792	0.772921	0.750089
C53	C	0.298192	0.023632	0.000088
C54	C	0.548192	0.273632	0.250088
C55	C	0.798192	0.523632	0.500088
C56	C	1.048192	0.773632	0.750088
O57	O	0.334937	-0.020153	0.000156
O58	O	0.584937	0.229847	0.250156
O59	O	0.834937	0.479847	0.500156
O60	O	1.084937	0.729847	0.750156
N61	N	0.320818	0.075909	0.000054
N62	N	0.570818	0.325909	0.250054
N63	N	0.820818	0.575909	0.500054
N64	N	1.070818	0.825909	0.750054
C65	C	0.284041	0.127477	0.000035
C66	C	0.534041	0.377477	0.250035
C67	C	0.784041	0.627477	0.500035
C68	C	1.034041	0.877477	0.750035
O69	O	0.308740	0.172007	0.000007
O70	O	0.558740	0.422007	0.250007
O71	O	0.808740	0.672007	0.500007
O72	O	1.058740	0.922007	0.750007
C73	C	0.224642	0.126765	0.000046
C74	C	0.474642	0.376765	0.250046
C75	C	0.724642	0.626765	0.500046
C76	C	0.974642	0.876765	0.750046
C77	C	0.202019	0.074485	0.000066
C78	C	0.452019	0.324485	0.250066
C79	C	0.702019	0.574485	0.500066
C80	C	0.952019	0.824485	0.750066
C81	C	0.216168	-0.029354	0.000111
C82	C	0.466168	0.220646	0.250111
C83	C	0.716168	0.470646	0.500111
C84	C	0.966168	0.720646	0.750111
C85	C	0.156772	-0.030066	0.000109
C86	C	0.406772	0.219934	0.250109
C87	C	0.656772	0.469934	0.500109
C88	C	0.906772	0.719934	0.750109
C89	C	0.119999	0.021499	0.000085
C90	C	0.369999	0.271499	0.250085
C91	C	0.619999	0.521499	0.500085
C92	C	0.869999	0.771499	0.750085
C93	C	0.142623	0.073774	0.000064
C94	C	0.392623	0.323774	0.250064
C95	C	0.642623	0.573774	0.500064
C96	C	0.892623	0.823774	0.750064
C97	C	0.187865	0.178333	0.000036
C98	C	0.437865	0.428333	0.250036
C99	C	0.687865	0.678333	0.500036
C100	C	0.937865	0.928333	0.750036
C101	C	0.128463	0.177616	0.000047
C102	C	0.378463	0.427616	0.250047
C103	C	0.628463	0.677616	0.500047
C104	C	0.878463	0.927616	0.750047
C105	C	0.105840	0.125336	0.000068
C106	C	0.355840	0.375336	0.250068
C107	C	0.605840	0.625336	0.500068
C108	C	0.855840	0.875336	0.750068
C109	C	0.046454	0.124627	0.000038
C110	C	0.296454	0.374627	0.250038
C111	C	0.546454	0.624627	0.500038
C112	C	0.796454	0.874627	0.750038
N113	N	0.023828	0.072351	0.000072
N114	N	0.273828	0.322351	0.250072
N115	N	0.523828	0.572351	0.500072
N116	N	0.773828	0.822351	0.750072
C117	C	0.060600	0.020787	0.000096
C118	C	0.310600	0.270787	0.250096
C119	C	0.560600	0.520787	0.500096
C120	C	0.810600	0.770787	0.750096
C121	C	0.408783	0.128968	0.000015
C122	C	0.658783	0.378968	0.250015
C123	C	0.908783	0.628968	0.500015
C124	C	1.158783	0.878968	0.750015
C125	C	0.468181	0.129681	-0.000005
C126	C	0.718181	0.379681	0.249995
C127	C	0.968181	0.629681	0.499995
C128	C	1.218181	0.879681	0.749995
C129	C	0.482328	0.025836	0.000051
C130	C	0.732328	0.275836	0.250051
C131	C	0.982328	0.525836	0.500051
C132	C	1.232328	0.775836	0.750051
C133	C	0.422929	0.025124	0.000061
C134	C	0.672929	0.275124	0.250061
C135	C	0.922929	0.525124	0.500061
C136	C	1.172929	0.775124	0.750061
C137	C	0.386157	0.076692	0.000049
C138	C	0.636157	0.326692	0.250049
C139	C	0.886157	0.576692	0.500049
C140	C	1.136157	0.826692	0.750049
C141	C	-0.064136	0.019297	0.000091
C142	C	0.185864	0.269297	0.250091
C143	C	0.435864	0.519297	0.500091
C144	C	0.685864	0.769297	0.750091
C145	C	-0.123538	0.018590	0.000083
C146	C	0.126462	0.268590	0.250083
C147	C	0.376462	0.518590	0.500083
C148	C	0.626462	0.768590	0.750083
C149	C	-0.137680	0.122435	0.000035
C150	C	0.112320	0.372435	0.250035
C151	C	0.362320	0.622435	0.500035
C152	C	0.612320	0.872435	0.750035
C153	C	-0.078284	0.123142	0.000035
C154	C	0.171716	0.373142	0.250035
C155	C	0.421716	0.623142	0.500035
C156	C	0.671716	0.873142	0.750035
C157	C	-0.041512	0.071568	0.000068
C158	C	0.208488	0.321568	0.250068
C159	C	0.458488	0.571568	0.500068
C160	C	0.708488	0.821568	0.750068
O161	O	0.009675	0.168390	-0.000024
O162	O	0.259675	0.418390	0.249976
O163	O	0.509675	0.668390	0.499976
O164	O	0.759675	0.918390	0.749976
O165	O	0.035892	-0.023737	0.000141
O166	O	0.285892	0.226263	0.250141
O167	O	0.535892	0.476263	0.500141
O168	O	0.785892	0.726263	0.750141
C169	C	0.677071	-0.030012	0.000095
C170	C	0.927071	0.219988	0.250095
C171	C	1.177071	0.469988	0.500095
C172	C	1.427071	0.719988	0.750095
C173	C	0.676305	-0.093229	0.000115
C174	C	0.926305	0.156771	0.250115
C175	C	1.176305	0.406771	0.500115
C176	C	1.426305	0.656771	0.750115
C177	C	0.621110	-0.359397	0.000022
C178	C	0.871110	-0.109397	0.250022
C179	C	1.121110	0.140603	0.500022
C180	C	1.371110	0.390603	0.750022
C181	C	0.621821	-0.299997	0.000032
C182	C	0.871821	-0.049997	0.250032
C183	C	1.121821	0.200003	0.500032
C184	C	1.371821	0.450003	0.750032
O185	O	0.578035	-0.263252	-0.000017
O186	O	0.828035	-0.013252	0.249983
O187	O	1.078035	0.236748	0.499983
O188	O	1.328035	0.486748	0.749983
N189	N	0.674097	-0.277370	0.000056
N190	N	0.924097	-0.027370	0.250056
N191	N	1.174097	0.222630	0.500056
N192	N	1.424097	0.472630	0.750056
C193	C	0.725666	-0.314148	0.000055
C194	C	0.975666	-0.064148	0.250055
C195	C	1.225666	0.185852	0.500055
C196	C	1.475666	0.435852	0.750055
O197	O	0.770196	-0.289448	0.000075
O198	O	1.020196	-0.039448	0.250075
O199	O	1.270196	0.210552	0.500075
O200	O	1.520196	0.460552	0.750075
C201	C	0.724953	-0.373547	0.000035
C202	C	0.974953	-0.123547	0.250035
C203	C	1.224953	0.126453	0.500035
C204	C	1.474953	0.376453	0.750035
C205	C	0.672674	-0.396170	0.000025
C206	C	0.922674	-0.146170	0.250025
C207	C	1.172674	0.103830	0.500025
C208	C	1.422674	0.353830	0.750025
C209	C	0.568834	-0.382020	0.000010
C210	C	0.818834	-0.132020	0.250010
C211	C	1.068834	0.117980	0.500010
C212	C	1.318834	0.367980	0.750010
C213	C	0.568123	-0.441416	0.000002
C214	C	0.818123	-0.191416	0.250002
C215	C	1.068123	0.058584	0.500002
C216	C	1.318123	0.308584	0.750002
C217	C	0.619687	-0.478189	0.000006
C218	C	0.869687	-0.228189	0.250006
C219	C	1.119687	0.021811	0.500006
C220	C	1.369687	0.271811	0.750006
C221	C	0.671963	-0.455566	0.000017
C222	C	0.921963	-0.205566	0.250017
C223	C	1.171963	0.044434	0.500017
C224	C	1.421963	0.294434	0.750017
C225	C	0.776521	-0.410323	0.000024
C226	C	1.026521	-0.160323	0.250024
C227	C	1.276521	0.089677	0.500024
C228	C	1.526521	0.339677	0.750024
C229	C	0.775805	-0.469726	0.000003
C230	C	1.025805	-0.219726	0.250003
C231	C	1.275805	0.030274	0.500003
C232	C	1.525805	0.280274	0.750003
C233	C	0.723525	-0.492348	-0.000007
C234	C	0.973525	-0.242348	0.249993
C235	C	1.223525	0.007652	0.499993
C236	C	1.473525	0.257652	0.749993
C237	C	0.722816	-0.551735	0.000012
C238	C	0.972816	-0.301735	0.250012
C239	C	1.222816	-0.051735	0.500012
C240	C	1.472816	0.198265	0.750012
N241	N	0.670539	-0.574361	-0.000011
N242	N	0.920539	-0.324361	0.249989
N243	N	1.170539	-0.074361	0.499989
N244	N	1.420539	0.175639	0.749989
C245	C	0.618975	-0.537588	-0.000015
C246	C	0.868975	-0.287588	0.249985
C247	C	1.118975	-0.037588	0.499985
C248	C	1.368975	0.212412	0.749985
C249	C	0.727157	-0.189405	0.000096
C250	C	0.977157	0.060595	0.250096
C251	C	1.227157	0.310595	0.500096
C252	C	1.477157	0.560595	0.750096
C253	C	0.727870	-0.130007	0.000126
C254	C	0.977870	0.119993	0.250126
C255	C	1.227870	0.369993	0.500126
C256	C	1.477870	0.619993	0.750126
C257	C	0.624025	-0.115860	0.000100
C258	C	0.874025	0.134140	0.250100
C259	C	1.124025	0.384140	0.500100
C260	C	1.374025	0.634140	0.750100
C261	C	0.623313	-0.175259	0.000080
C262	C	0.873313	0.074741	0.250080
C263	C	1.123313	0.324741	0.500080
C264	C	1.373313	0.574741	0.750080
C265	C	0.674881	-0.212031	0.000072
C266	C	0.924881	0.037969	0.250072
C267	C	1.174881	0.287969	0.500072
C268	C	1.424881	0.537969	0.750072
C269	C	0.617485	-0.662325	-0.000030
C270	C	0.867485	-0.412325	0.249970
C271	C	1.117485	-0.162325	0.499970
C272	C	1.367485	0.087675	0.749970
C273	C	0.616779	-0.721727	-0.000033
C274	C	0.866779	-0.471727	0.249967
C275	C	1.116779	-0.221727	0.499967
C276	C	1.366779	0.028273	0.749967
C277	C	0.720623	-0.735869	-0.000015
C278	C	0.970623	-0.485869	0.249985
C279	C	1.220623	-0.235869	0.499985
C280	C	1.470623	0.014131	0.749985
C281	C	0.721330	-0.676472	-0.000005
C282	C	0.971330	-0.426472	0.249995
C283	C	1.221330	-0.176472	0.499995
C284	C	1.471330	0.073528	0.749995
C285	C	0.669757	-0.639701	-0.000018
C286	C	0.919757	-0.389701	0.249982
C287	C	1.169757	-0.139701	0.499982
C288	C	1.419757	0.110299	0.749982
O289	O	0.766579	-0.588514	0.000056
O290	O	1.016579	-0.338514	0.250056
O291	O	1.266579	-0.088514	0.500056
O292	O	1.516579	0.161486	0.750056
O293	O	0.574452	-0.562296	-0.000052
O294	O	0.824452	-0.312296	0.249948
O295	O	1.074452	-0.062296	0.499948
O296	O	1.324452	0.187704	0.749948
C297	C	0.776472	0.069389	0.000061
C298	C	1.026472	0.319389	0.250061
C299	C	1.276472	0.569389	0.500061
C300	C	1.526472	0.819389	0.750061
C301	C	0.839689	0.070155	0.000060
C302	C	1.089689	0.320155	0.250060
C303	C	1.339689	0.570155	0.500060
C304	C	1.589689	0.820155	0.750060
C305	C	0.667577	0.178283	-0.000000
C306	C	0.917577	0.428283	0.250000
C307	C	1.167577	0.678283	0.500000
C308	C	1.417577	0.928283	0.750000
C309	C	0.668343	0.241500	-0.000030
C310	C	0.918343	0.491500	0.249970
C311	C	1.168343	0.741500	0.499970
C312	C	1.418343	0.991500	0.749970
N313	N	0.672318	0.074135	0.353678
N314	N	0.922318	0.324135	0.603678
N315	N	1.172318	0.574135	0.853678
N316	N	1.422318	0.824135	1.103678
N317	N	0.672335	0.074132	-0.353580
N318	N	0.922335	0.324132	-0.103580
N319	N	1.172335	0.574132	0.146420
N320	N	1.422335	0.824132	0.396420
C321	C	0.709241	0.037054	0.421476
C322	C	0.959241	0.287054	0.671476
C323	C	1.209241	0.537054	0.921476
C324	C	1.459241	0.787054	1.171476
C325	C	0.709250	0.037052	0.578639
C326	C	0.959250	0.287052	0.828639
C327	C	1.209250	0.537052	1.078639
C328	C	1.459250	0.787052	1.328639
H329	H	0.378846	0.170964	-0.000004
H330	H	0.628846	0.420964	0.249996
H331	H	0.878846	0.670964	0.499996
H332	H	1.128846	0.920964	0.749996
H333	H	0.817798	-0.499664	-0.000011
H334	H	1.067798	-0.249664	0.249989
H335	H	1.317798	0.000336	0.499989
H336	H	1.567798	0.250336	0.749989
F337	F	0.631016	0.115633	0.570224
F338	F	0.881016	0.365633	0.820224
F339	F	1.131016	0.615633	1.070224
F340	F	1.381016	0.865633	1.320224
F341	F	0.783513	-0.105937	0.000156
F342	F	1.033513	0.144063	0.250156
F343	F	1.283513	0.394063	0.500156
F344	F	1.533513	0.644063	0.750156
H345	H	0.486595	0.172252	-0.000040
H346	H	0.736595	0.422252	0.249960
H347	H	0.986595	0.672252	0.499960
H348	H	1.236595	0.922252	0.749960
F349	F	0.631005	0.115627	0.429882
F350	F	0.881005	0.365627	0.679882
F351	F	1.131005	0.615627	0.929882
F352	F	1.381005	0.865627	1.179882
F353	F	0.398858	-0.030518	0.000087
F354	F	0.648858	0.219482	0.250087
F355	F	0.898858	0.469482	0.500087
F356	F	1.148858	0.719482	0.750087
F357	F	0.561133	-0.745800	-0.000040
F358	F	0.811133	-0.495800	0.249960
F359	F	1.061133	-0.245800	0.499960
F360	F	1.311133	0.004200	0.749960
H361	H	-0.141954	-0.023984	0.000096
H362	H	0.108046	0.226016	0.250096
H363	H	0.358046	0.476016	0.500096
H364	H	0.608046	0.726016	0.750096
F365	F	0.132703	-0.085709	0.000119
F366	F	0.382703	0.164291	0.250119
F367	F	0.632703	0.414291	0.500119
F368	F	0.882703	0.664291	0.750119
F369	F	-0.025010	-0.035594	0.000125
F370	F	0.224990	0.214406	0.250125
F371	F	0.474990	0.464406	0.500125
F372	F	0.724990	0.714406	0.750125
H373	H	0.246104	-0.071347	0.000134
H374	H	0.496104	0.178653	0.250134
H375	H	0.746104	0.428653	0.500134
H376	H	0.996104	0.678653	0.750134
F377	F	0.211929	0.233977	0.000014
F378	F	0.461929	0.483977	0.250014
F379	F	0.711929	0.733977	0.500014
F380	F	0.961929	0.983977	0.750014
F381	F	0.521475	-0.029043	0.000075
F382	F	0.771475	0.220957	0.250075
F383	F	1.021475	0.470957	0.500075
F384	F	1.271475	0.720957	0.750075
H385	H	0.740864	0.005307	0.636943
H386	H	0.990864	0.255307	0.886943
H387	H	1.240864	0.505307	1.136943
H388	H	1.490864	0.755307	1.386943
F389	F	-0.176827	0.177310	0.000002
F390	F	0.073173	0.427310	0.250002
F391	F	0.323173	0.677310	0.500002
F392	F	0.573173	0.927310	0.750002
F393	F	0.089330	0.232503	0.000040
F394	F	0.339330	0.482503	0.250040
F395	F	0.589330	0.732503	0.500040
F396	F	0.839330	0.982503	0.750040
H397	H	0.740844	0.005306	0.363172
H398	H	0.990844	0.255306	0.613172
H399	H	1.240844	0.505306	0.863172
H400	H	1.490844	0.755306	1.113172
H401	H	-0.059863	0.165712	0.000017
H402	H	0.190137	0.415712	0.250017
H403	H	0.440137	0.665712	0.500017
H404	H	0.690137	0.915712	0.750017
H405	H	0.582038	-0.085909	0.000099
H406	H	0.832038	0.164091	0.250099
H407	H	1.082038	0.414091	0.500099
H408	H	1.332038	0.664091	0.750099
F409	F	0.512479	-0.465485	-0.000020
F410	F	0.762479	-0.215485	0.249980
F411	F	1.012479	0.034515	0.499980
F412	F	1.262479	0.284515	0.749980
F413	F	0.562595	-0.623198	-0.000043
F414	F	0.812595	-0.373198	0.249957
F415	F	1.062595	-0.123198	0.499957
F416	F	1.312595	0.126802	0.749957
H417	H	0.526842	-0.352085	0.000003
H418	H	0.776842	-0.102085	0.250003
H419	H	1.026842	0.147915	0.500003
H420	H	1.276842	0.397915	0.750003
F421	F	0.567670	-0.199330	0.000068
F422	F	0.817670	0.050670	0.250068
F423	F	1.067670	0.300670	0.500068
F424	F	1.317670	0.550670	0.750068
H425	H	0.769152	-0.219343	0.000098
H426	H	1.019152	0.030657	0.250098
H427	H	1.269152	0.280657	0.500098
H428	H	1.519152	0.530657	0.750098
H429	H	0.819093	-0.391915	0.000031
H430	H	1.069093	-0.141915	0.250031
H431	H	1.319093	0.108085	0.500031
H432	H	1.569093	0.358085	0.750031
F433	F	0.776972	-0.652395	0.000049
F434	F	1.026972	-0.402395	0.250049
F435	F	1.276972	-0.152395	0.500049
F436	F	1.526972	0.097605	0.750049
F437	F	0.775499	-0.775015	-0.000001
F438	F	1.025499	-0.525015	0.249999
F439	F	1.275499	-0.275015	0.499999
F440	F	1.525499	-0.025015	0.749999
