data_functionalizedCrystal
_audit_creation_method	'MofGen! by Chris Wilmer'
_symmetry_space_group_name_H-M	'P1'
_symmetry_Int_Tables_number	1
_symmetry_cell_setting	triclinic
loop_
_symmetry_equiv_pos_as_xyz
  x,y,z
_cell_length_a	19.902436
_cell_length_b	18.760493
_cell_length_c	18.760492
_cell_angle_alpha	89.996630
_cell_angle_beta	59.993066
_cell_angle_gamma	60.002478
loop_
_atom_site_label
_atom_site_type_symbol
_atom_site_fract_x
_atom_site_fract_y
_atom_site_fract_z
Zr1	Zr	0.735486	0.686703	-0.093623
O2	O	0.875666	0.572896	-0.207453
O3	O	0.595306	0.721589	-0.058718
O4	O	0.735486	0.721600	-0.207439
O5	O	0.735486	0.572879	0.058572
O6	O	0.735487	0.838902	-0.207440
O7	O	0.735486	0.572885	-0.058731
O8	O	0.484730	0.838883	0.058596
O9	O	0.986243	0.572898	-0.207464
O10	O	0.652964	0.824011	-0.043844
O11	O	0.652964	0.736465	0.043699
O12	O	0.818008	0.736478	-0.131402
O13	O	0.818008	0.648932	-0.043859
Zr14	Zr	0.735486	0.873778	0.093461
Zr15	Zr	0.735486	0.873787	-0.093624
Zr16	Zr	0.735486	0.686693	0.093462
Zr17	Zr	0.911843	0.686707	-0.093641
Zr18	Zr	0.559130	0.873774	0.093479
O19	O	0.875666	0.838892	0.058556
O20	O	0.875667	0.838905	-0.207454
O21	O	0.875666	0.572882	0.058557
O22	O	0.595306	0.987585	0.207291
O23	O	0.595307	0.987599	-0.058719
O24	O	0.595306	0.721575	0.207292
O25	O	0.735487	0.987602	-0.058734
O26	O	0.735486	0.838881	0.207277
O27	O	0.735486	0.721578	0.207278
O28	O	0.735486	0.987596	0.058569
O29	O	0.986243	0.721605	-0.207465
O30	O	0.484730	0.838875	0.207303
O31	O	0.484730	0.987582	0.207302
O32	O	0.484730	0.987590	0.058595
O33	O	0.986243	0.572890	-0.058757
O34	O	0.986243	0.721598	-0.058758
O35	O	0.652964	0.824002	0.131240
O36	O	0.652964	0.911549	0.043697
O37	O	0.818008	0.824015	-0.043861
O38	O	0.818008	0.736469	0.043682
C39	C	0.514891	0.780235	-0.000058
C40	C	0.440023	0.780234	-0.000051
C41	C	0.735486	0.780228	0.233933
C42	C	0.735486	0.780224	0.313355
C43	C	0.735487	1.014254	-0.000083
C44	C	0.735487	1.093676	-0.000083
C45	C	0.168013	0.780242	-0.000092
C46	C	0.196251	0.725284	0.055399
C47	C	0.274370	0.724986	0.055171
C48	C	0.302960	0.780238	-0.000070
C49	C	0.338523	0.739969	-0.095202
C50	C	0.260686	0.739555	-0.094910
C51	C	0.133498	0.875498	0.038787
C52	C	0.210550	0.875359	0.040723
C53	C	0.379228	0.780236	-0.000064
C54	C	0.091749	0.780241	-0.000105
C55	C	0.956082	0.780245	-0.000104
C56	C	1.030950	0.780247	-0.000111
C57	C	0.735486	0.546226	-0.000079
C58	C	0.735486	0.466804	-0.000079
C59	C	0.821641	1.383799	-0.045785
C60	C	0.649332	1.475181	0.045627
C61	C	0.649331	1.400560	0.045626
C62	C	0.735486	1.317555	-0.000081
C63	C	0.821642	1.309170	-0.045786
C64	C	0.563176	1.408939	0.091337
C65	C	0.563171	1.334315	0.091339
C66	C	0.649327	1.251308	0.045627
C67	C	0.735487	1.242926	-0.000081
C68	C	0.821642	1.159920	-0.045788
C69	C	0.907803	1.151536	-0.091501
C70	C	0.907798	1.226162	-0.091498
C71	C	0.649332	1.176682	0.045623
C72	C	0.821643	1.085291	-0.045788
C73	C	0.735487	0.780252	-0.234095
C74	C	0.735487	0.780256	-0.313517
C75	C	0.649332	0.825947	0.694877
C76	C	0.821640	0.734561	0.603460
C77	C	0.821642	0.734552	0.528838
C78	C	0.735487	0.780243	0.537233
C79	C	0.649330	0.825942	0.620249
C80	C	0.907797	0.688861	0.445817
C81	C	0.907802	0.688851	0.371188
C82	C	0.821646	0.734537	0.379582
C83	C	0.735486	0.780238	0.462605
C84	C	0.649331	0.825928	0.471000
C85	C	0.563170	0.871624	0.554022
C86	C	0.563174	0.871628	0.628643
C87	C	0.821641	0.734533	0.304961
C88	C	0.649329	0.825923	0.396372
C89	C	0.514891	1.014249	-0.000060
C90	C	0.440023	1.093670	-0.000053
C91	C	0.514891	0.780223	0.233956
C92	C	0.440022	0.780217	0.313386
C93	C	0.514891	1.014237	0.233954
C94	C	0.440023	1.093653	0.313384
C95	C	0.956082	0.546243	-0.234116
C96	C	1.030950	0.466827	-0.313546
C97	C	0.956081	0.546231	-0.000102
C98	C	1.030949	0.466811	-0.000109
C99	C	0.956082	0.780257	-0.234118
C100	C	1.030950	0.780263	-0.313548
C101	C	0.404864	1.085273	-0.045753
C102	C	0.334528	1.159890	-0.045764
C103	C	0.299346	1.242903	-0.000069
C104	C	0.334512	1.251298	0.045633
C105	C	0.404852	1.176682	0.045638
C106	C	0.404864	0.825908	0.396390
C107	C	0.334527	0.825899	0.471030
C108	C	0.299345	0.780204	0.462664
C109	C	0.334511	0.734508	0.379651
C110	C	0.404851	0.734512	0.305013
C111	C	0.404864	1.176654	0.304988
C112	C	0.334527	1.251282	0.379614
C113	C	0.299346	1.242906	0.462633
C114	C	0.334512	1.159897	0.471027
C115	C	0.404852	1.085271	0.396403
C116	C	1.066117	0.383826	-0.305150
C117	C	1.136475	0.309199	-0.379776
C118	C	1.171661	0.317574	-0.462795
C119	C	1.136491	0.400584	-0.471189
C120	C	1.066138	0.475209	-0.396565
C121	C	1.066115	0.475208	0.045583
C122	C	1.136472	0.400591	0.045573
C123	C	1.171655	0.317578	-0.000124
C124	C	1.136486	0.309183	-0.045822
C125	C	1.066136	0.383799	-0.045817
C126	C	1.066109	0.825967	-0.305153
C127	C	1.136446	0.825989	-0.379779
C128	C	1.171628	0.780302	-0.462798
C129	C	1.136462	0.734597	-0.471191
C130	C	1.066121	0.734580	-0.396566
H131	H	0.247724	0.751997	0.125222
C132	C	0.443554	1.185885	0.213676
H133	H	0.412540	1.246010	0.219377
H134	H	0.432022	1.158681	0.182664
H135	H	0.509972	1.158673	0.182662
C136	C	0.554570	1.185896	0.095902
H137	H	0.566909	1.129565	0.089360
H138	H	0.519164	1.216907	0.073347
H139	H	0.519179	1.216892	0.156029
C140	C	1.027450	0.566506	-0.405810
H141	H	1.058478	0.560797	-0.465943
H142	H	1.038966	0.597534	-0.378603
H143	H	0.961035	0.597504	-0.378603
H144	H	0.579170	0.863126	0.403218
C145	C	0.295795	0.684259	0.370459
H146	H	0.248859	0.690816	0.426803
H147	H	0.346280	0.624139	0.339449
H148	H	0.268336	0.706842	0.339466
C149	C	1.175127	0.876255	-0.370532
H150	H	1.144109	0.903446	-0.310399
H151	H	1.163595	0.919511	-0.397728
H152	H	1.241545	0.836809	-0.397751
C153	C	1.175142	0.217900	-0.370527
H154	H	1.144095	0.223607	-0.310395
H155	H	1.241553	0.186886	-0.397730
H156	H	1.163611	0.186888	-0.397739
H157	H	1.228939	0.256828	-0.000121
H158	H	1.165144	0.241584	-0.083028
C159	C	1.175223	0.684283	-0.562513
H160	H	1.144226	0.657044	-0.556833
H161	H	1.241634	0.641062	-0.593475
H162	H	1.163724	0.723693	-0.593566
C163	C	1.027425	0.566512	0.095855
H164	H	1.058459	0.560813	0.123056
H165	H	0.961012	0.597519	0.139109
H166	H	1.038957	0.597526	0.056407
C167	C	1.175136	0.409841	0.095853
H168	H	1.144089	0.469968	0.123080
H169	H	1.241547	0.382647	0.056413
H170	H	1.163602	0.382626	0.139100
H171	H	0.433470	1.183531	0.082857
C172	C	0.295849	1.342580	0.370365
H173	H	0.326867	1.336874	0.310233
H174	H	0.307382	1.373598	0.397561
H175	H	0.229431	1.373588	0.397584
H176	H	0.433500	0.863119	0.403219
H177	H	1.037506	0.376950	-0.083023
C178	C	0.443513	0.684256	0.213712
H179	H	0.412475	0.657051	0.219427
H180	H	0.509927	0.641013	0.182682
H181	H	0.431967	0.723706	0.182706
H182	H	0.977940	0.651669	0.438990
C183	C	0.468412	1.500237	0.141622
H184	H	0.417100	1.494543	0.168856
H185	H	0.464821	1.531257	0.102186
H186	H	0.464844	1.531235	0.184864
C187	C	1.027466	0.684288	-0.405806
H188	H	0.980533	0.690816	-0.349477
H189	H	1.077983	0.624177	-0.436824
H190	H	1.000020	0.706855	-0.436812
H191	H	0.242070	1.303678	0.523390
C192	C	1.027419	0.876230	-0.213842
H193	H	1.058433	0.903457	-0.219543
H194	H	1.038950	0.836791	-0.182828
H195	H	0.961000	0.919471	-0.182828
H196	H	0.405528	0.670545	-0.126540
H197	H	1.228904	0.780323	-0.523556
H198	H	0.891784	0.697367	0.596632
H199	H	0.131745	0.752152	0.125627
C200	C	1.027436	0.374596	-0.213838
H201	H	1.058475	0.314471	-0.219539
H202	H	0.961023	0.401796	-0.182813
H203	H	1.038973	0.401811	-0.182836
C204	C	0.041610	0.920931	0.131988
H205	H	0.023435	0.882225	0.148062
H206	H	-0.007572	0.971887	0.133907
H207	H	0.052289	0.936689	0.171500
C208	C	0.443508	0.993975	0.405648
H209	H	0.412469	0.999683	0.465781
H210	H	0.509923	0.962950	0.378434
H211	H	0.431960	0.962973	0.378448
H212	H	0.977959	0.651642	0.303595
H213	H	0.222211	0.655435	0.028671
H214	H	0.338829	0.654723	0.028215
H215	H	0.290228	0.669461	-0.126033
C216	C	0.108014	0.931079	-0.015544
H217	H	0.118333	0.896449	-0.061691
H218	H	0.146866	0.951769	-0.039196
H219	H	0.043108	0.979301	0.020738
H220	H	0.891792	0.697332	0.237368
H221	H	0.244738	0.777000	-0.138501
H222	H	0.359417	0.778076	-0.138337
H223	H	0.226156	0.919756	0.004509
C224	C	0.171711	0.916008	0.135400
H225	H	0.115810	0.973542	0.159721
H226	H	0.218236	0.917979	0.135934
H227	H	0.157114	0.881584	0.168960
C228	C	0.916413	0.993988	-0.096065
H229	H	0.904077	0.950743	-0.089523
H230	H	0.951815	0.987442	-0.073507
H231	H	0.951808	0.987446	-0.156193
H232	H	0.977946	1.219345	-0.128715
C233	C	1.002568	1.060229	-0.141775
H234	H	0.990222	1.016990	-0.135227
H235	H	1.037972	1.053678	-0.119218
H236	H	1.037964	1.053681	-0.201904
H237	H	0.305856	1.153090	0.538631
H238	H	0.891791	1.376977	-0.083007
H239	H	0.493013	1.341151	0.128561
C240	C	0.468405	0.921880	0.563248
H241	H	0.480751	0.915327	0.506912
H242	H	0.432999	0.981998	0.594255
H243	H	0.433009	0.899303	0.594256
C244	C	0.554570	1.566480	0.095899
H245	H	0.566909	1.609723	0.089349
H246	H	0.519165	1.573025	0.156021
H247	H	0.519177	1.573026	0.073325
C248	C	0.468409	0.921907	0.719962
H249	H	0.480751	0.915378	0.763201
H250	H	0.432993	0.899352	0.726536
H251	H	0.433024	0.982026	0.726493
H252	H	1.165147	0.407393	-0.538792
C253	C	0.554562	0.876211	0.786193
H254	H	0.566897	0.869677	0.829437
H255	H	0.519161	0.853645	0.792747
H256	H	0.519167	0.936332	0.792736
C257	C	0.443557	0.993969	-0.096027
H258	H	0.412543	0.999667	-0.123250
H259	H	0.432026	0.962950	-0.056589
H260	H	0.509975	0.962966	-0.139277
H261	H	0.305904	1.153037	-0.082979
C262	C	0.295794	1.342612	0.095910
H263	H	0.326804	1.336935	0.123132
H264	H	0.229380	1.373602	0.139148
H265	H	0.307323	1.373630	0.056466
H266	H	0.242070	1.303653	-0.000079
H267	H	0.305903	0.863114	0.538616
H268	H	0.242070	0.780208	0.523446
H269	H	1.228946	0.256802	-0.523552
