data_functionalizedCrystal
_audit_creation_method	'MofGen! by Chris Wilmer'
_symmetry_space_group_name_H-M	'P1'
_symmetry_Int_Tables_number	1
_symmetry_cell_setting	triclinic
loop_
_symmetry_equiv_pos_as_xyz
  x,y,z
_cell_length_a	18.050591
_cell_length_b	10.686285
_cell_length_c	10.686551
_cell_angle_alpha	80.915481
_cell_angle_beta	94.403376
_cell_angle_gamma	94.372862
loop_
_atom_site_label
_atom_site_type_symbol
_atom_site_fract_x
_atom_site_fract_y
_atom_site_fract_z
Zn1	Zn	1.186466	0.450288	0.679255
Zn2	Zn	1.686466	0.950288	1.179255
Zn3	Zn	1.186405	0.678868	0.450753
Zn4	Zn	1.686405	1.178868	0.950753
Zn5	Zn	1.053419	0.466628	0.466989
Zn6	Zn	1.553419	0.966628	0.966989
Zn7	Zn	1.071121	0.662473	0.662932
Zn8	Zn	1.571121	1.162473	1.162932
O9	O	1.124353	0.564564	0.564982
O10	O	1.624353	1.064564	1.064982
O11	O	1.290385	0.480633	0.648980
O12	O	1.790385	0.980633	1.148980
O13	O	1.161331	0.664413	0.275275
O14	O	1.661331	1.164413	0.775275
O15	O	1.063685	0.286837	0.508773
O16	O	1.563685	0.786837	1.008773
O17	O	1.290341	0.648569	0.481100
O18	O	1.790341	1.148569	0.981100
O19	O	1.161433	0.274832	0.664724
O20	O	1.661433	0.774832	1.164724
O21	O	1.063627	0.508481	0.287203
O22	O	1.563627	1.008481	0.787203
O23	O	0.951840	0.492584	0.492945
O24	O	1.451840	0.992584	0.992945
O25	O	1.093855	0.620627	0.842729
O26	O	1.593855	1.120627	1.342729
O27	O	0.964846	0.636471	0.636904
O28	O	1.464846	1.136471	1.136904
O29	O	1.178598	0.464735	0.854722
O30	O	1.678598	0.964735	1.354722
O31	O	1.178496	0.854316	0.465273
O32	O	1.678496	1.354316	0.965273
O33	O	1.093797	0.842271	0.621160
O34	O	1.593797	1.342271	1.121160
C35	C	0.931396	0.564522	0.564916
C36	C	1.431396	1.064522	1.064916
C37	C	0.848850	0.564533	0.564915
C38	C	1.348850	1.064533	1.064915
C39	C	1.138082	0.894347	0.539711
C40	C	1.638082	1.394347	1.039711
C41	C	1.144026	1.035427	0.528942
C42	C	1.644026	1.535427	1.028942
C43	C	1.138208	0.539029	0.896071
C44	C	1.638208	1.039029	1.396071
C45	C	1.144113	0.528148	1.037162
C46	C	1.644113	1.028148	1.537162
C47	C	0.642310	0.486174	0.486833
C48	C	1.142310	0.986174	0.986833
C49	C	0.596437	0.604347	0.446740
C50	C	1.096437	1.104347	0.946740
C51	C	0.697724	0.564567	0.564969
C52	C	1.197724	1.064567	1.064969
C53	C	0.596516	0.446434	0.605056
C54	C	1.096516	0.946434	1.105056
C55	C	0.551742	0.564590	0.565020
C56	C	1.051742	1.064590	1.065020
C57	C	0.652939	0.682805	0.524811
C58	C	1.152939	1.182805	1.024811
C59	C	0.653021	0.524810	0.683187
C60	C	1.153021	1.024810	1.183187
C61	C	0.607176	0.643060	0.643132
C62	C	1.107176	1.143060	1.143132
C63	C	0.781820	0.564552	0.564937
C64	C	1.281820	1.064552	1.064937
C65	C	0.467649	0.564617	0.565052
C66	C	0.967649	1.064617	1.065052
C67	C	1.318063	0.564607	0.565050
C68	C	1.818063	1.064607	1.065050
C69	C	1.400611	0.564625	0.565079
C70	C	1.900611	1.064625	1.065079
C71	C	1.110591	0.233491	0.590380
C72	C	1.610591	0.733491	1.090380
C73	C	1.104727	0.092407	0.601203
C74	C	1.604727	0.592407	1.101203
C75	C	1.110590	0.589908	0.235188
C76	C	1.610590	1.089908	0.735188
C77	C	1.104815	0.600432	0.094126
C78	C	1.604815	1.100432	0.594126
H79	H	0.657969	0.419963	0.420672
H80	H	1.157969	0.919963	0.920672
H81	H	1.182280	0.457939	1.096337
H82	H	1.682280	0.957939	1.596337
H83	H	0.677514	0.782756	0.490817
H84	H	1.177514	1.282756	0.990817
Cl85	Cl	0.691234	0.472819	0.837471
Cl86	Cl	1.191234	0.972819	1.337471
Cl87	Cl	0.558246	0.656291	0.292422
Cl88	Cl	1.058246	1.156291	0.792422
Cl89	Cl	0.583213	0.745550	0.745176
Cl90	Cl	1.083213	1.245550	1.245176
H91	H	1.182214	1.094581	0.458823
H92	H	1.682214	1.594581	0.958823
Cl93	Cl	0.558424	0.292180	0.657367
Cl94	Cl	1.058424	0.792180	1.157367
Cl95	Cl	1.045760	1.001093	0.709446
Cl96	Cl	1.545760	1.501093	1.209446
H97	H	1.066656	0.670645	1.034957
H98	H	1.566656	1.170645	1.534957
