data_functionalizedCrystal
_audit_creation_method	'MofGen! by Chris Wilmer'
_symmetry_space_group_name_H-M	'P1'
_symmetry_Int_Tables_number	1
_symmetry_cell_setting	triclinic
loop_
_symmetry_equiv_pos_as_xyz
  x,y,z
_cell_length_a	18.760490
_cell_length_b	14.560438
_cell_length_c	14.560438
_cell_angle_alpha	59.999883
_cell_angle_beta	90.018061
_cell_angle_gamma	60.022118
loop_
_atom_site_label
_atom_site_type_symbol
_atom_site_fract_x
_atom_site_fract_y
_atom_site_fract_z
Zr1	Zr	0.686504	1.005677	-0.120425
O2	O	0.572705	1.197226	-0.267091
O3	O	0.721395	0.814088	-0.075464
O4	O	0.721388	1.005698	-0.267068
O5	O	0.572712	1.005613	0.075655
O6	O	0.838666	1.005761	-0.267051
O7	O	0.572712	1.005616	-0.075486
O8	O	0.838679	0.663005	0.075695
O9	O	0.572699	1.348369	-0.267091
O10	O	0.823793	0.892953	-0.056276
O11	O	0.736270	0.892904	0.056506
O12	O	0.736261	1.118501	-0.169084
O13	O	0.648738	1.118452	-0.056302
Zr14	Zr	0.873550	1.005773	0.120655
Zr15	Zr	0.873550	1.005777	-0.120397
Zr16	Zr	0.686505	1.005673	0.120627
Zr17	Zr	0.686496	1.246733	-0.120425
Zr18	Zr	0.873559	0.764717	0.120656
O19	O	0.838660	1.197362	0.075694
O20	O	0.838660	1.197368	-0.267051
O21	O	0.572705	1.197220	0.075654
O22	O	0.987350	0.814224	0.267321
O23	O	0.987350	0.814230	-0.075424
O24	O	0.721395	0.814082	0.267281
O25	O	0.987343	1.005837	-0.075424
O26	O	0.838667	1.005752	0.267299
O27	O	0.721388	1.005689	0.267281
O28	O	0.987343	1.005834	0.075717
O29	O	0.721376	1.348448	-0.267069
O30	O	0.838679	0.663001	0.267299
O31	O	0.987355	0.663081	0.267321
O32	O	0.987355	0.663084	0.075717
O33	O	0.572699	1.348366	-0.075487
O34	O	0.721376	1.348445	-0.075464
O35	O	0.823793	0.892949	0.169314
O36	O	0.911317	0.892998	0.056532
O37	O	0.823785	1.118546	-0.056276
O38	O	0.736262	1.118497	0.056506
C39	C	0.780038	0.704201	0.000116
C40	C	0.780042	0.601866	0.000116
C41	C	0.844633	0.374406	0.083393
C42	C	0.844649	0.470548	0.083392
C43	C	0.715418	0.637044	-0.083171
C44	C	0.715406	0.540902	-0.083173
C45	C	0.909239	0.243087	0.166681
C46	C	0.973864	0.207903	0.249967
C47	C	0.973880	0.304045	0.249966
C48	C	0.909272	0.435371	0.166679
C49	C	0.546062	1.005600	0.000080
C50	C	0.466656	1.005558	0.000068
C51	C	0.130668	1.005859	-0.083116
C52	C	0.130784	1.005856	0.083421
C53	C	0.205431	1.005792	0.083403
C54	C	0.242700	1.005759	0.000125
C55	C	0.205323	1.005791	-0.083135
C56	C	0.242818	1.005747	0.166668
C57	C	0.317470	1.005681	0.166653
C58	C	0.354737	1.005657	0.083370
C59	C	0.317355	1.005691	0.000106
C60	C	0.354624	1.005658	-0.083173
C61	C	0.317240	1.005701	-0.166442
C62	C	0.242590	1.005768	-0.166419
C63	C	0.429387	1.005590	0.083347
C64	C	0.429279	1.005590	-0.083191
C65	C	1.013993	1.005850	0.000150
C66	C	1.093399	1.005892	0.000162
C67	C	0.780027	1.005730	-0.301404
C68	C	0.780027	1.005732	-0.403737
C69	C	0.780017	1.307249	0.000115
C70	C	0.780013	1.409583	0.000115
C71	C	0.734333	1.123463	-0.510698
C72	C	0.734335	1.123457	-0.606847
C73	C	0.825728	0.887977	-0.489060
C74	C	0.825729	0.887985	-0.392914
C75	C	0.688630	1.241210	-0.521522
C76	C	0.642932	1.358951	-0.628487
C77	C	0.642934	1.358945	-0.724636
C78	C	0.688635	1.241198	-0.713819
C79	C	0.780028	1.005720	0.301635
C80	C	0.780028	1.005718	0.403968
C81	C	1.014004	0.704326	0.000150
C82	C	1.093413	0.602034	0.000162
C83	C	0.780038	0.704196	0.301635
C84	C	0.780042	0.601860	0.403968
C85	C	1.014004	0.704321	0.301670
C86	C	1.093413	0.602027	0.404015
C87	C	0.546051	1.307129	-0.301440
C88	C	0.466641	1.409423	-0.403785
C89	C	0.546051	1.307124	0.000080
C90	C	0.466641	1.409416	0.000068
C91	C	0.780016	1.307254	-0.301405
C92	C	0.780013	1.409590	-0.403738
C93	C	1.085018	0.553973	-0.058727
C94	C	1.159625	0.457872	-0.058738
C95	C	1.242625	0.409827	0.000147
C96	C	1.251018	0.457897	0.059038
C97	C	1.176413	0.554003	0.059042
C98	C	1.176399	0.554014	0.393206
C99	C	1.251020	0.457911	0.489361
C100	C	1.242653	0.409817	0.596323
C101	C	1.159659	0.457839	0.607130
C102	C	1.085040	0.553947	0.510976
C103	C	0.383655	1.457448	-0.392976
C104	C	0.309035	1.553580	-0.489131
C105	C	0.317401	1.601680	-0.596093
C106	C	0.400396	1.553651	-0.606899
C107	C	0.475015	1.457527	-0.510746
C108	C	0.475036	1.457487	0.058947
C109	C	0.400430	1.553615	0.058932
C110	C	0.317429	1.601663	0.000043
C111	C	0.309036	1.553588	-0.058843
C112	C	0.383642	1.457469	-0.058834
C113	C	0.825732	0.553800	0.510929
C114	C	0.825728	0.457650	0.607078
C115	C	0.734344	0.457622	0.489291
C116	C	0.734343	0.553778	0.393145
C117	C	0.871430	0.601882	0.521752
C118	C	0.917124	0.553822	0.628718
C119	C	0.917121	0.457671	0.724867
C120	C	0.871423	0.409581	0.714050
H121	H	0.909295	0.513649	0.166679
N122	N	0.236972	1.705321	0.000060
H123	H	0.201064	1.671838	0.033572
H124	H	0.201117	1.785069	-0.079705
H125	H	0.241447	1.592724	-0.106788
N126	N	0.871418	0.305870	0.817747
H127	H	0.809539	0.339306	0.817776
H128	H	0.907334	0.282756	0.887097
H129	H	0.376794	1.418332	-0.106777
H130	H	1.017442	0.593090	-0.106691
N131	N	0.685063	0.405753	0.477623
H132	H	0.692000	0.337543	0.554763
H133	H	0.709055	0.365950	0.435105
N134	N	0.871449	0.705566	0.418050
H135	H	0.907335	0.728730	0.441133
H136	H	0.809551	0.785265	0.371793
N137	N	0.685071	0.605614	0.277773
H138	H	0.656129	0.560554	0.285505
H139	H	0.727029	0.588899	0.235330
N140	N	1.340531	0.406098	0.477701
H141	H	1.373532	0.422852	0.514955
H142	H	1.334434	0.451158	0.395330
H143	H	0.542584	1.418426	-0.519560
H144	H	0.376826	1.418290	-0.305891
H145	H	1.318608	0.418765	0.106980
H146	H	0.954323	0.592991	0.637516
N147	N	0.090342	1.005905	-0.172917
H148	H	0.134341	0.925829	-0.169284
H149	H	0.072266	1.086014	-0.249322
N150	N	0.645738	0.778678	-0.172997
H151	H	0.655551	0.834244	-0.160357
H152	H	0.586448	0.798217	-0.169328
H153	H	0.688643	1.241202	-0.792115
H154	H	0.100441	1.005874	0.151229
N155	N	0.469715	1.005530	0.173153
H156	H	0.434781	1.005552	0.225916
H157	H	0.469651	1.085570	0.136733
N158	N	0.202629	1.005786	0.256487
H159	H	0.246683	0.925703	0.332932
H160	H	0.149656	1.005892	0.243767
H161	H	0.347903	1.005648	0.234455
H162	H	0.688621	1.241228	-0.443239
H163	H	0.241464	1.592669	-0.480310
N164	N	1.150552	0.406043	-0.122260
H165	H	1.117598	0.366129	-0.091366
H166	H	1.210431	0.337926	-0.113324
N167	N	0.645714	0.578833	-0.172996
H168	H	0.604784	0.676610	-0.225753
H169	H	0.611824	0.542558	-0.136588
N170	N	0.409504	1.605456	0.122440
H171	H	0.380601	1.701955	0.068430
H172	H	0.473425	1.560322	0.159738
N173	N	1.323139	0.306158	0.700027
H174	H	1.376977	0.283044	0.676939
H175	H	1.323106	0.226431	0.746265
H176	H	0.862934	0.792113	-0.480263
H177	H	1.183228	0.593158	0.306121
N178	N	0.202258	1.005843	-0.256239
H179	H	0.149311	1.005895	-0.243590
H180	H	0.246310	0.925774	-0.252579
N181	N	1.323089	0.306172	0.000136
H182	H	1.305168	0.283021	-0.046107
H183	H	1.358972	0.226463	0.079911
H184	H	1.152859	0.418666	0.694231
N185	N	0.995532	0.605721	0.522633
H186	H	0.988539	0.645606	0.565111
H187	H	0.988619	0.532281	0.565083
N188	N	0.909220	0.139394	0.166684
H189	H	0.959952	0.050866	0.232080
H190	H	0.914889	0.149038	0.093910
H191	H	1.026505	0.275391	0.317775
N192	N	1.043553	0.066270	0.339784
H193	H	1.033739	0.010700	0.327151
H194	H	1.040705	0.046712	0.416189
N195	N	0.469470	1.005568	-0.173021
H196	H	0.434457	1.005607	-0.225764
H197	H	0.531478	0.925469	-0.136614
H198	H	0.347596	1.005666	-0.234244
H199	H	0.256635	1.679950	-0.674378
H200	H	1.183260	0.593122	0.107003
N201	N	0.564554	1.405686	0.122451
H202	H	0.597555	1.309184	0.181715
H203	H	0.558467	1.450833	0.159667
N204	N	0.409414	1.605535	-0.722268
H205	H	0.349546	1.673710	-0.781532
H206	H	0.442398	1.532125	-0.731180
H207	H	0.605729	1.454817	-0.637286
N208	N	0.966394	0.405841	0.840235
H209	H	0.995342	0.450895	0.832496
H210	H	1.012324	0.309341	0.882698
H211	H	0.605731	1.454815	-0.811728
H212	H	0.862936	0.792118	-0.305820
