data_functionalizedCrystal
_audit_creation_method	'MofGen! by Chris Wilmer'
_symmetry_space_group_name_H-M	'P1'
_symmetry_Int_Tables_number	1
_symmetry_cell_setting	triclinic
loop_
_symmetry_equiv_pos_as_xyz
  x,y,z
_cell_length_a	20.875621
_cell_length_b	12.970454
_cell_length_c	12.970454
_cell_angle_alpha	60.000265
_cell_angle_beta	87.028566
_cell_angle_gamma	58.315264
loop_
_atom_site_label
_atom_site_type_symbol
_atom_site_fract_x
_atom_site_fract_y
_atom_site_fract_z
Zr1	Zr	0.617939	1.128516	-0.186850
O2	O	0.515517	1.343605	-0.342927
O3	O	0.649336	0.913427	-0.139006
O4	O	0.649336	1.128517	-0.354095
O5	O	0.515518	1.128514	0.041829
O6	O	0.754896	1.128518	-0.362902
O7	O	0.515517	1.128515	-0.127838
O8	O	0.754896	0.743761	0.021853
O9	O	0.515517	1.513271	-0.342926
O10	O	0.741505	1.001897	-0.125172
O11	O	0.662728	1.001896	0.008022
O12	O	0.662728	1.255136	-0.245218
O13	O	0.583950	1.255135	-0.112024
Zr14	Zr	0.786295	1.128516	0.069702
Zr15	Zr	0.786294	1.128517	-0.200897
Zr16	Zr	0.617940	1.128515	0.083750
Zr17	Zr	0.617939	1.399114	-0.186848
Zr18	Zr	0.786294	0.857918	0.069700
O19	O	0.754897	1.343605	0.021858
O20	O	0.754896	1.343607	-0.362900
O21	O	0.515518	1.343603	0.041831
O22	O	0.888716	0.913427	0.225779
O23	O	0.888715	0.913429	-0.158979
O24	O	0.649337	0.913425	0.245753
O25	O	0.888716	1.128518	-0.158977
O26	O	0.754897	1.128515	0.236947
O27	O	0.649338	1.128514	0.245754
O28	O	0.888716	1.128517	0.010690
O29	O	0.649337	1.513272	-0.354091
O30	O	0.754896	0.743760	0.236943
O31	O	0.888716	0.743761	0.225778
O32	O	0.888715	0.743762	0.010687
O33	O	0.515518	1.513270	-0.127835
O34	O	0.649338	1.513271	-0.139001
O35	O	0.741506	1.001895	0.128070
O36	O	0.820283	1.001897	-0.005124
O37	O	0.741506	1.255136	-0.125170
O38	O	0.662728	1.255135	0.008024
C39	C	0.702116	0.790040	-0.058577
C40	C	0.702116	0.675164	-0.058578
C41	C	0.491530	1.128515	-0.041003
C42	C	0.420059	1.128514	-0.035039
C43	C	0.386481	1.128518	-0.125712
C44	C	0.319329	1.128511	-0.120102
C45	C	0.285753	1.128509	-0.023825
C46	C	0.319337	1.128500	0.066856
C47	C	0.386491	1.128497	0.061251
C48	C	0.084912	1.128506	0.002967
C49	C	0.017752	1.128513	0.008564
C50	C	0.017750	1.128521	-0.178394
C51	C	0.084903	1.128528	-0.183995
C52	C	0.118483	1.128511	-0.093311
N53	N	0.217111	1.128505	-0.018091
N54	N	0.187127	1.128504	-0.099040
C55	C	0.912703	1.128517	-0.076145
C56	C	0.984174	1.128518	-0.082108
C57	C	0.702116	1.128518	-0.397053
C58	C	0.702115	1.128518	-0.511930
C59	C	0.702117	1.466992	-0.058571
C60	C	0.702118	1.581868	-0.058570
C61	C	0.702118	1.128514	0.279905
C62	C	0.702118	1.128514	0.394782
C63	C	0.912702	0.790041	-0.076148
C64	C	0.984173	0.675166	-0.082112
C65	C	0.702117	0.790038	0.279902
C66	C	0.702117	0.675162	0.394778
C67	C	0.912703	0.790039	0.262331
C68	C	0.984174	0.675163	0.371244
C69	C	0.491530	1.466993	-0.379479
C70	C	0.420059	1.581868	-0.488392
C71	C	0.491531	1.466991	-0.041000
C72	C	0.420060	1.581866	-0.035036
C73	C	0.702117	1.466994	-0.397050
C74	C	0.702116	1.581870	-0.511926
C75	C	0.976615	0.621219	-0.147588
C76	C	1.043763	0.513296	-0.153217
C77	C	1.118468	0.459315	-0.093362
C78	C	1.126025	0.513272	-0.027884
C79	C	1.058877	0.621200	-0.022263
C80	C	1.058866	0.621217	0.352864
C81	C	1.126027	0.513294	0.455188
C82	C	1.118495	0.459312	0.575890
C83	C	1.043795	0.513269	0.594269
C84	C	0.976636	0.621197	0.491946
C85	C	0.345367	1.635828	-0.470012
C86	C	0.278206	1.743784	-0.572335
C87	C	0.285738	1.797772	-0.693038
C88	C	0.360438	1.743808	-0.711416
C89	C	0.427597	1.635861	-0.609094
C90	C	0.427618	1.635824	0.030429
C91	C	0.360470	1.743777	0.036028
C92	C	0.285765	1.797762	-0.023831
C93	C	0.278209	1.743799	-0.089304
C94	C	0.345356	1.635856	-0.094910
H95	H	0.413812	1.128529	-0.204115
H96	H	0.339219	1.591877	-0.371738
H97	H	1.037595	0.469378	-0.206536
H98	H	1.173138	0.371432	-0.097947
Br99	Br	0.176817	1.817077	-0.170531
H100	H	1.186859	0.469305	0.020847
Br101	Br	0.176839	1.816995	-0.547365
H102	H	0.231046	1.885669	-0.776345
Br103	Br	0.875271	0.694391	0.516913
H104	H	0.366562	1.787779	-0.809705
H105	H	0.488413	1.591928	-0.624074
H106	H	-0.009583	1.128513	0.086969
H107	H	0.488441	1.591878	0.079183
H108	H	1.186845	0.469373	0.440201
H109	H	1.065042	0.665110	0.031062
Br110	Br	0.194644	1.944258	-0.016211
Br111	Br	0.335084	1.562634	-0.183756
Br112	Br	1.069110	0.694463	0.189064
Br113	Br	0.432065	1.128477	0.184318
H114	H	0.291991	1.128513	-0.193934
H115	H	0.112240	1.128529	-0.262392
Br116	Br	1.209649	0.312836	0.714746
H117	H	1.037674	0.469301	0.692558
H118	H	0.366638	1.787694	0.089348
H119	H	-0.009597	1.128532	-0.252224
H120	H	0.112247	1.128497	0.076804
H121	H	0.915793	0.665170	-0.196346
Br122	Br	0.273776	1.128482	0.197529
