data_functionalizedCrystal
_audit_creation_method	'MofGen! by Chris Wilmer'
_symmetry_space_group_name_H-M	'P1'
_symmetry_Int_Tables_number	1
_symmetry_cell_setting	triclinic
loop_
_symmetry_equiv_pos_as_xyz
  x,y,z
_cell_length_a	14.908571
_cell_length_b	14.908520
_cell_length_c	11.169409
_cell_angle_alpha	93.260433
_cell_angle_beta	86.682976
_cell_angle_gamma	90.205961
loop_
_atom_site_label
_atom_site_type_symbol
_atom_site_fract_x
_atom_site_fract_y
_atom_site_fract_z
Zn1	Zn	1.354013	-0.437325	-0.815924
Zn2	Zn	1.854013	0.062675	-0.315924
Zn3	Zn	1.345218	-0.587709	-0.626091
Zn4	Zn	1.845218	-0.087709	-0.126091
Zn5	Zn	1.203635	-0.428688	-0.603061
Zn6	Zn	1.703635	0.071312	-0.103061
Zn7	Zn	1.194940	-0.578950	-0.814536
Zn8	Zn	1.694940	-0.078950	-0.314536
O9	O	1.274452	-0.508168	-0.714903
O10	O	1.774452	-0.008168	-0.214903
O11	O	1.478671	-0.464555	-0.800961
O12	O	1.978671	0.035445	-0.300961
O13	O	1.326395	-0.566666	-0.455087
O14	O	1.826395	-0.066666	0.044913
O15	O	1.230902	-0.304013	-0.622240
O16	O	1.730902	0.195987	-0.122240
O17	O	1.472210	-0.575041	-0.661491
O18	O	1.972210	-0.075041	-0.161491
O19	O	1.341384	-0.310359	-0.778629
O20	O	1.841384	0.189641	-0.278629
O21	O	1.222374	-0.449834	-0.438167
O22	O	1.722374	0.050166	0.061833
O23	O	1.076656	-0.441340	-0.620895
O24	O	1.576656	0.058660	-0.120895
O25	O	1.216083	-0.560112	-0.982670
O26	O	1.716083	-0.060112	-0.482670
O27	O	1.070268	-0.551737	-0.776265
O28	O	1.570268	-0.051737	-0.276265
O29	O	1.332953	-0.456061	-0.983689
O30	O	1.832953	0.043939	-0.483689
O31	O	1.317964	-0.712368	-0.660146
O32	O	1.817964	-0.212368	-0.160146
O33	O	1.207556	-0.705933	-0.798596
O34	O	1.707556	-0.205933	-0.298596
C35	C	1.040837	-0.494651	-0.695931
C36	C	1.540837	0.005349	-0.195931
C37	C	0.940895	-0.488891	-0.687845
C38	C	1.440895	0.011109	-0.187845
C39	C	1.260887	-0.741776	-0.731748
C40	C	1.760887	-0.241776	-0.231748
C41	C	1.255166	-0.841719	-0.739001
C42	C	1.755166	-0.341719	-0.239001
C43	C	0.746478	-0.593199	-0.834244
C44	C	1.246478	-0.093199	-0.334244
C45	C	0.652573	-0.587789	-0.826651
C46	C	1.152573	-0.087789	-0.326651
C47	C	0.659178	-0.472657	-0.665072
C48	C	1.159178	0.027343	-0.165072
C49	C	0.753083	-0.478067	-0.672665
C50	C	1.253083	0.021933	-0.172665
C51	C	0.796730	-0.538341	-0.757253
C52	C	1.296730	-0.038341	-0.257253
C53	C	0.890636	-0.543755	-0.764839
C54	C	1.390636	-0.043755	-0.264839
C55	C	0.897239	-0.428618	-0.603267
C56	C	1.397239	0.071382	-0.103267
C57	C	0.803334	-0.423208	-0.595674
C58	C	1.303334	0.076792	-0.095674
C59	C	1.359502	-1.036169	-0.608596
C60	C	1.859502	-0.536169	-0.108596
C61	C	1.354130	-1.130075	-0.615407
C62	C	1.854130	-0.630075	-0.115407
C63	C	1.239054	-1.123437	-0.759441
C64	C	1.739054	-0.623437	-0.259441
C65	C	1.244427	-1.029532	-0.752630
C66	C	1.744427	-0.529532	-0.252630
C67	C	1.304652	-0.985901	-0.677203
C68	C	1.804652	-0.485901	-0.177203
C69	C	1.310019	-0.891993	-0.670386
C70	C	1.810019	-0.391993	-0.170386
C71	C	1.194948	-0.885358	-0.814426
C72	C	1.694948	-0.385358	-0.314426
C73	C	1.189576	-0.979264	-0.821237
C74	C	1.689576	-0.479264	-0.321237
C75	C	1.508978	-0.521738	-0.733950
C76	C	2.008978	-0.021738	-0.233950
C77	C	1.608919	-0.527521	-0.742066
C78	C	2.108919	-0.027521	-0.242066
C79	C	1.274529	-0.508073	-1.027944
C80	C	1.774529	-0.008073	-0.527944
C81	C	1.274563	-0.508032	-1.161344
C82	C	1.774563	-0.008032	-0.661344
C83	C	1.288094	-0.273650	-0.698020
C84	C	1.788094	0.226350	-0.198020
C85	C	1.293907	-0.173712	-0.690826
C86	C	1.793907	0.326288	-0.190826
C87	C	1.274429	-0.508201	-0.403079
C88	C	1.774429	-0.008201	0.096921
C89	C	1.274585	-0.507999	-0.269676
C90	C	1.774585	-0.007999	0.230324
H91	H	0.926172	-0.592835	-0.833713
H92	H	1.426172	-0.092835	-0.333713
F93	F	1.125487	-1.025709	-0.901511
F94	F	1.625487	-0.525709	-0.401511
H95	H	0.782016	-0.642282	-0.903112
H96	H	1.282016	-0.142282	-0.403112
F97	F	0.612711	-0.408502	-0.575070
F98	F	1.112711	0.091498	-0.075070
H99	H	1.359055	-0.856470	-0.608967
H100	H	1.859055	-0.356470	-0.108967
H101	H	0.611662	-0.632459	-0.889347
H102	H	1.111662	-0.132459	-0.389347
H103	H	1.408534	-1.000644	-0.547172
H104	H	1.908534	-0.500644	-0.047172
F105	F	0.756873	-0.359060	-0.505659
F106	F	1.256873	0.140940	-0.005659
F107	F	1.412512	-1.183571	-0.542388
F108	F	1.912512	-0.683571	-0.042388
H109	H	0.938164	-0.383950	-0.540572
H110	H	1.438164	0.116050	-0.040572
H111	H	1.190028	-1.158978	-0.820858
H112	H	1.690028	-0.658978	-0.320858
F113	F	1.136558	-0.831852	-0.887434
F114	F	1.636558	-0.331852	-0.387434
