data_functionalizedCrystal
_audit_creation_method	'MofGen! by Chris Wilmer'
_symmetry_space_group_name_H-M	'P1'
_symmetry_Int_Tables_number	1
_symmetry_cell_setting	triclinic
loop_
_symmetry_equiv_pos_as_xyz
  x,y,z
_cell_length_a	13.897449
_cell_length_b	18.050590
_cell_length_c	13.897441
_cell_angle_alpha	90.022679
_cell_angle_beta	89.979267
_cell_angle_gamma	89.990680
loop_
_atom_site_label
_atom_site_type_symbol
_atom_site_fract_x
_atom_site_fract_y
_atom_site_fract_z
Zn1	Zn	1.474767	0.295610	-0.545434
Zn2	Zn	1.808101	0.628944	-0.212101
Zn3	Zn	2.141434	0.962277	0.121232
Zn4	Zn	1.474688	0.419815	-0.384158
Zn5	Zn	1.808022	0.753148	-0.050825
Zn6	Zn	2.141355	1.086481	0.282509
Zn7	Zn	1.313456	0.295646	-0.384153
Zn8	Zn	1.646790	0.628979	-0.050819
Zn9	Zn	1.980123	0.962312	0.282514
Zn10	Zn	1.313465	0.419766	-0.545411
Zn11	Zn	1.646799	0.753099	-0.212077
Zn12	Zn	1.980132	1.086432	0.121256
O13	O	1.394094	0.357709	-0.464789
O14	O	1.727428	0.691042	-0.131456
O15	O	2.060761	1.024376	0.201878
O16	O	1.609738	0.312092	-0.524053
O17	O	1.943072	0.645425	-0.190719
O18	O	2.276405	0.978759	0.142614
O19	O	1.453264	0.403379	-0.249176
O20	O	1.786597	0.736712	0.084158
O21	O	2.119931	1.070045	0.417491
O22	O	1.334884	0.191716	-0.405555
O23	O	1.668217	0.525050	-0.072221
O24	O	2.001551	0.858383	0.261112
O25	O	1.609681	0.403344	-0.405564
O26	O	1.943014	0.736678	-0.072230
O27	O	2.276347	1.070011	0.261103
O28	O	1.453398	0.191690	-0.524048
O29	O	1.786732	0.525024	-0.190714
O30	O	2.120065	0.858357	0.142619
O31	O	1.334808	0.312152	-0.249172
O32	O	1.668141	0.645486	0.084162
O33	O	2.001474	0.978819	0.417495
O34	O	1.178476	0.312105	-0.405532
O35	O	1.511809	0.645438	-0.072198
O36	O	1.845143	0.978772	0.261135
O37	O	1.334899	0.403261	-0.680395
O38	O	1.668232	0.736594	-0.347062
O39	O	2.001566	1.069928	-0.013729
O40	O	1.178483	0.403295	-0.524007
O41	O	1.511816	0.736629	-0.190674
O42	O	1.845149	1.069962	0.142659
O43	O	1.453407	0.312045	-0.680413
O44	O	1.786740	0.645378	-0.347080
O45	O	2.120074	0.978711	-0.013746
O46	O	1.453273	0.523733	-0.405541
O47	O	1.786606	0.857066	-0.072207
O48	O	2.119939	1.190399	0.261126
O49	O	1.334823	0.523697	-0.524012
O50	O	1.668156	0.857030	-0.190679
O51	O	2.001489	1.190363	0.142654
C52	C	1.143480	0.357699	-0.464767
C53	C	1.476813	0.691033	-0.131434
C54	C	1.810147	1.024366	0.201900
C55	C	1.036266	0.357713	-0.464780
C56	C	1.369599	0.691046	-0.131447
C57	C	1.702933	1.024380	0.201886
C58	C	0.839971	0.357715	-0.464806
C59	C	1.173304	0.691049	-0.131472
C60	C	1.506638	1.024382	0.201861
C61	C	0.949204	0.357712	-0.464789
C62	C	1.282537	0.691045	-0.131456
C63	C	1.615870	1.024378	0.201878
C64	C	1.394149	0.164004	-0.464803
C65	C	1.727482	0.497337	-0.131470
C66	C	2.060816	0.830670	0.201863
C67	C	1.394172	0.081458	-0.464809
C68	C	1.727506	0.414791	-0.131476
C69	C	2.060839	0.748124	0.201857
C70	C	1.458617	-0.118007	-0.529266
C71	C	1.791950	0.215326	-0.195933
C72	C	2.125283	0.548660	0.137401
C73	C	1.482186	-0.167376	-0.441268
C74	C	1.815519	0.165957	-0.107935
C75	C	2.148852	0.499290	0.225398
C76	C	1.394163	-0.069673	-0.464814
C77	C	1.727496	0.263661	-0.131481
C78	C	2.060829	0.596994	0.201852
C79	C	1.370629	-0.167385	-0.552815
C80	C	1.703963	0.165948	-0.219481
C81	C	2.037296	0.499282	0.113852
C82	C	1.394155	-0.215658	-0.464827
C83	C	1.727488	0.117676	-0.131494
C84	C	2.060822	0.451009	0.201840
C85	C	1.417777	-0.117955	-0.376770
C86	C	1.751110	0.215379	-0.043437
C87	C	2.084444	0.548712	0.289896
C88	C	1.306180	-0.117959	-0.488376
C89	C	1.639513	0.215374	-0.155043
C90	C	1.972846	0.548708	0.178291
C91	C	1.329715	-0.167306	-0.400318
C92	C	1.663048	0.166027	-0.066984
C93	C	1.996382	0.499361	0.266349
C94	C	1.394169	0.014426	-0.464808
C95	C	1.727503	0.347759	-0.131475
C96	C	2.060836	0.681092	0.201858
C97	C	1.394148	-0.299754	-0.464823
C98	C	1.727481	0.033579	-0.131490
C99	C	2.060815	0.366912	0.201843
C100	C	1.645687	0.357720	-0.464812
C101	C	1.979021	0.691053	-0.131478
C102	C	2.312354	1.024386	0.201855
C103	C	1.752901	0.357724	-0.464821
C104	C	2.086235	0.691057	-0.131488
C105	C	2.419568	1.024391	0.201846
C106	C	1.394066	0.550661	-0.464796
C107	C	1.727400	0.883995	-0.131462
C108	C	2.060733	1.217328	0.201871
C109	C	1.394142	0.633207	-0.464831
C110	C	1.727476	0.966540	-0.131497
C111	C	2.060809	1.299874	0.201836
C112	C	1.394163	0.357643	-0.716382
C113	C	1.727496	0.690977	-0.383049
C114	C	2.060829	1.024310	-0.049715
C115	C	1.394192	0.357615	-0.823596
C116	C	1.727525	0.690949	-0.490263
C117	C	2.060859	1.024282	-0.156929
C118	C	1.394218	0.357565	-1.019891
C119	C	1.727551	0.690899	-0.686558
C120	C	2.060885	1.024232	-0.353225
C121	C	1.394201	0.357595	-0.910659
C122	C	1.727534	0.690929	-0.577325
C123	C	2.060867	1.024262	-0.243992
C124	C	1.394082	0.357721	-0.214175
C125	C	1.727415	0.691054	0.119159
C126	C	2.060748	1.024388	0.452492
C127	C	1.394239	0.357540	-0.106961
C128	C	1.727573	0.690873	0.226372
C129	C	2.060906	1.024206	0.559706
H130	H	1.513168	-0.096361	-0.583698
H131	H	1.846502	0.236973	-0.250364
H132	H	2.179835	0.570306	0.082969
H133	H	1.556588	-0.189082	-0.421338
H134	H	1.889921	0.144251	-0.088005
H135	H	2.223254	0.477584	0.245328
Br136	Br	1.451074	-0.081924	-0.252698
Br137	Br	1.784408	0.251409	0.080636
Br138	Br	2.117741	0.584743	0.413969
Br139	Br	1.238870	-0.203174	-0.309380
Br140	Br	1.572203	0.130159	0.023953
Br141	Br	1.905536	0.463492	0.357286
H142	H	1.231798	-0.096238	-0.508331
H143	H	1.565132	0.237095	-0.174998
H144	H	1.898465	0.570429	0.158336
Br145	Br	1.337459	-0.203579	-0.676842
Br146	Br	1.670793	0.129755	-0.343509
Br147	Br	2.004126	0.463088	-0.010176
