data_functionalizedCrystal
_audit_creation_method	'MofGen! by Chris Wilmer'
_symmetry_space_group_name_H-M	'P1'
_symmetry_Int_Tables_number	1
_symmetry_cell_setting	triclinic
loop_
_symmetry_equiv_pos_as_xyz
  x,y,z
_cell_length_a	10.489741
_cell_length_b	11.026607
_cell_length_c	10.066323
_cell_angle_alpha	79.283172
_cell_angle_beta	98.854140
_cell_angle_gamma	96.562595
loop_
_atom_site_label
_atom_site_type_symbol
_atom_site_fract_x
_atom_site_fract_y
_atom_site_fract_z
O1	O	-1.717159	-0.189208	0.113398
O2	O	-1.217159	0.310792	0.613398
O3	O	-1.349502	-0.205314	0.113418
O4	O	-0.849502	0.294686	0.613418
O5	O	-1.502860	-0.020341	0.113405
O6	O	-1.002860	0.479659	0.613405
O7	O	-1.563801	-0.374181	0.113411
O8	O	-1.063801	0.125819	0.613411
O9	O	-1.532129	0.015003	-0.113572
O10	O	-1.032129	0.515003	0.386428
O11	O	-1.378771	-0.169970	-0.113558
O12	O	-0.878771	0.330030	0.386442
O13	O	-1.746427	-0.153863	-0.113579
O14	O	-1.246427	0.346137	0.386421
Zn15	Zn	-1.567246	-0.156305	-0.149606
Zn16	Zn	-1.067246	0.343695	0.350394
Zn17	Zn	-1.528683	-0.202873	0.149445
Zn18	Zn	-1.028683	0.297127	0.649445
O19	O	-1.593070	-0.338836	-0.113565
O20	O	-1.093070	0.161164	0.386435
C21	C	-1.316337	-0.186426	-0.000067
C22	C	-0.816337	0.313574	0.499933
C23	C	-1.173906	-0.182789	-0.000059
C24	C	-0.673906	0.317211	0.499941
C25	C	-1.506252	0.042640	-0.000081
C26	C	-1.006252	0.542640	0.499919
C27	C	-1.472736	0.177646	-0.000074
C28	C	-0.972736	0.677646	0.499926
C29	C	-1.779592	-0.172752	-0.000090
C30	C	-1.279592	0.327248	0.499910
C31	C	-1.922022	-0.176391	-0.000089
C32	C	-1.422022	0.323609	0.499911
C33	C	-1.079879	-0.065095	-0.000074
C34	C	-0.579879	0.434905	0.499926
C35	C	-0.985551	-0.138117	0.111835
C36	C	-0.485551	0.361883	0.611835
C37	C	-1.014448	-0.103299	-0.111946
C38	C	-0.514448	0.396701	0.388054
C39	C	-1.081442	-0.255874	0.111943
C40	C	-0.581442	0.244126	0.611943
C41	C	-1.110358	-0.221023	-0.111939
C42	C	-0.610358	0.278977	0.388061
C43	C	-1.016073	-0.294136	-0.000002
C44	C	-0.516073	0.205864	0.499998
C45	C	-1.589678	-0.401818	-0.000076
C46	C	-1.089678	0.098182	0.499924
C47	C	-1.623192	-0.536825	-0.000074
C48	C	-1.123192	-0.036825	0.499926
N49	N	-1.593574	-0.124523	-0.353700
N50	N	-1.093574	0.375477	0.146300
C51	C	-1.565276	0.250643	-0.000078
C52	C	-1.065276	0.750643	0.499922
C53	C	-1.530638	0.390179	-0.000071
C54	C	-1.030638	0.890179	0.499929
C55	C	-1.558111	-0.167352	-0.578658
C56	C	-1.058111	0.332648	-0.078658
C57	C	-1.537818	-0.191825	-0.421499
C58	C	-1.037818	0.308175	0.078501
N59	N	-1.502364	-0.234645	0.353540
N60	N	-1.002364	0.265355	0.853540
H61	H	-1.108269	0.031634	0.000064
H62	H	-0.608269	0.531634	0.500064
H63	H	-1.656334	-0.048792	-0.411994
H64	H	-1.156334	0.451208	0.088006
H65	H	-1.475070	-0.267565	-0.363205
H66	H	-0.975070	0.232435	0.136795
Br67	Br	-1.355832	0.458171	-0.000041
Br68	Br	-0.855832	0.958171	0.499959
Br69	Br	-0.895272	-0.079682	0.269533
Br70	Br	-0.395272	0.420318	0.769533
Br71	Br	-1.397785	-0.360881	-0.549303
Br72	Br	-0.897785	0.139119	-0.049303
Br73	Br	-1.797996	0.395182	-0.000072
Br74	Br	-1.297996	0.895182	0.499928
Br75	Br	-1.740071	0.182641	-0.000073
Br76	Br	-1.240071	0.682641	0.499927
Br77	Br	-1.130700	-0.363395	0.269813
Br78	Br	-0.630700	0.136605	0.769813
H79	H	-1.164550	-0.256047	-0.206554
H80	H	-0.664550	0.243953	0.293446
H81	H	-1.367865	0.218451	-0.000060
H82	H	-0.867865	0.718451	0.499940
H83	H	-0.987946	-0.390998	0.000061
H84	H	-0.487946	0.109002	0.500061
Br85	Br	-1.662716	-0.041135	-0.675811
Br86	Br	-1.162716	0.458865	-0.175811
Br87	Br	-0.964885	0.004288	-0.269638
Br88	Br	-0.464885	0.504288	0.230362
