data_functionalizedCrystal
_audit_creation_method	'MofGen! by Chris Wilmer'
_symmetry_space_group_name_H-M	'P1'
_symmetry_Int_Tables_number	1
_symmetry_cell_setting	triclinic
loop_
_symmetry_equiv_pos_as_xyz
  x,y,z
_cell_length_a	8.497374
_cell_length_b	8.497374
_cell_length_c	18.050591
_cell_angle_alpha	90.009569
_cell_angle_beta	90.002899
_cell_angle_gamma	90.005237
loop_
_atom_site_label
_atom_site_type_symbol
_atom_site_fract_x
_atom_site_fract_y
_atom_site_fract_z
Zn1	Zn	0.628498	0.892436	1.135349
Zn2	Zn	0.892243	0.628702	1.135343
Zn3	Zn	0.628453	0.628628	1.011193
Zn4	Zn	0.892211	0.892397	1.011175
O5	O	0.760351	0.760541	1.073265
O6	O	0.663516	0.857499	1.239273
O7	O	0.857246	0.407930	1.118880
O8	O	0.407696	0.663608	1.027673
O9	O	0.857289	0.663735	1.239269
O10	O	0.407729	0.857427	1.118890
O11	O	0.663440	0.407875	1.027667
O12	O	0.663409	0.663570	0.907266
O13	O	0.857234	1.113165	1.027642
O14	O	0.857191	0.857360	0.907253
O15	O	0.663485	1.113194	1.118872
O16	O	1.113001	0.663697	1.118862
O17	O	1.112978	0.857433	1.027637
C18	C	0.760292	0.760454	0.880313
C19	C	0.760305	0.760454	0.797767
C20	C	1.170231	0.760564	1.073256
C21	C	1.348875	0.760538	1.073276
C22	C	0.760353	1.172021	1.073260
C23	C	0.760370	1.350665	1.073261
C24	C	0.654804	0.655313	0.598302
C25	C	0.798685	0.616532	0.548918
C26	C	0.760353	0.760525	0.646637
C27	C	0.616522	0.799302	0.548939
C28	C	0.760387	0.760591	0.500652
C29	C	0.904309	0.721669	0.598340
C30	C	0.722050	0.904506	0.598366
C31	C	0.866030	0.865779	0.549004
C32	C	0.760332	0.760483	0.730735
C33	C	0.760424	0.760633	0.416555
C34	C	0.760411	0.760629	1.266971
C35	C	0.760437	0.760667	1.349517
H36	H	0.565641	0.566242	0.619948
H37	H	1.025996	0.688764	0.619949
F38	F	0.982846	0.982114	0.520887
F39	F	0.679618	1.063578	0.626776
F40	F	0.841065	0.457420	0.520528
H41	H	0.494888	0.832018	0.527201
