data_functionalizedCrystal
_audit_creation_method	'MofGen! by Chris Wilmer'
_symmetry_space_group_name_H-M	'P1'
_symmetry_Int_Tables_number	1
_symmetry_cell_setting	triclinic
loop_
_symmetry_equiv_pos_as_xyz
  x,y,z
_cell_length_a	12.827893
_cell_length_b	18.101395
_cell_length_c	12.827885
_cell_angle_alpha	89.967435
_cell_angle_beta	89.980728
_cell_angle_gamma	90.031075
loop_
_atom_site_label
_atom_site_type_symbol
_atom_site_fract_x
_atom_site_fract_y
_atom_site_fract_z
Zn1	Zn	1.597556	-0.294793	-0.590830
Zn2	Zn	1.597402	-0.418653	-0.416082
Zn3	Zn	1.422797	-0.294829	-0.416103
Zn4	Zn	1.422734	-0.418597	-0.590782
O5	O	1.510122	-0.356718	-0.503449
O6	O	1.743771	-0.311231	-0.567660
O7	O	1.574202	-0.402266	-0.269849
O8	O	1.446070	-0.191192	-0.439310
O9	O	1.743658	-0.402230	-0.439274
O10	O	1.574464	-0.191165	-0.567681
O11	O	1.445920	-0.311293	-0.269865
O12	O	1.276553	-0.311239	-0.439264
O13	O	1.445963	-0.402136	-0.737025
O14	O	1.276507	-0.402171	-0.567600
O15	O	1.574403	-0.311177	-0.737060
O16	O	1.574141	-0.522278	-0.439228
O17	O	1.445814	-0.522237	-0.567579
C18	C	1.238612	-0.356704	-0.503430
C19	C	1.122459	-0.356715	-0.503446
C20	C	1.070679	-0.401782	-0.566852
C21	C	0.950629	-0.401795	-0.566871
C22	C	1.509982	-0.549129	-0.503419
C23	C	1.510018	-0.631443	-0.503440
C24	C	1.510247	-0.930534	-0.503497
C25	C	1.429695	-0.899214	-0.584452
C26	C	1.429312	-0.813596	-0.584199
C27	C	1.510134	-0.782151	-0.503470
C28	C	1.480314	-0.813310	-0.393335
C29	C	1.479795	-0.898955	-0.393820
C30	C	1.620796	-0.898875	-0.531706
C31	C	1.620146	-0.813224	-0.534121
C32	C	1.510071	-0.698292	-0.503448
C33	C	1.510307	-1.014393	-0.503511
C34	C	1.782692	-0.356733	-0.503470
C35	C	1.898845	-0.356739	-0.503479
C36	C	1.510193	-0.356646	-0.776020
C37	C	1.510224	-0.356616	-0.892173
C38	C	1.510291	-0.163556	-0.503503
C39	C	1.510363	-0.081242	-0.503526
C40	C	1.573708	-0.401613	-0.943950
C41	C	1.573741	-0.401583	-1.064000
C42	C	1.510111	-0.356736	-0.231940
C43	C	1.510284	-0.356558	-0.115787
H44	H	1.077913	-0.318140	-0.449179
H45	H	0.906099	-0.440380	-0.621152
H46	H	1.680811	-0.919129	-0.472743
C47	C	0.958985	-0.304611	-0.430135
C48	C	1.034101	-0.246546	-0.475617
C49	C	1.094250	-0.194418	-0.402273
C50	C	1.079283	-0.200354	-0.283449
C51	C	1.004164	-0.258421	-0.237962
C52	C	0.944015	-0.310549	-0.311305
H53	H	1.045183	-0.242150	-0.563583
H54	H	1.149858	-0.151433	-0.435947
H55	H	1.123808	-0.161765	-0.229156
H56	H	0.993081	-0.262817	-0.149995
H57	H	0.888407	-0.353534	-0.277631
H58	H	1.447969	-0.792526	-0.665863
C59	C	1.557072	-0.785796	-0.309620
C60	C	1.569488	-0.702390	-0.289531
C61	C	1.646248	-0.674875	-0.205818
C62	C	1.710592	-0.730766	-0.142194
C63	C	1.698179	-0.814177	-0.162281
C64	C	1.621419	-0.841692	-0.245994
H65	H	1.521854	-0.661011	-0.336631
H66	H	1.655436	-0.613128	-0.190949
H67	H	1.767414	-0.710398	-0.080225
H68	H	1.745812	-0.855556	-0.115181
H69	H	1.612230	-0.903439	-0.260864
C70	C	1.436826	-0.304538	-0.952344
C71	C	1.354843	-0.336652	-1.027391
C72	C	1.281442	-0.284573	-1.087558
C73	C	1.290025	-0.200378	-1.072679
C74	C	1.372012	-0.168260	-0.997628
C75	C	1.445413	-0.220339	-0.937460
H76	H	1.348486	-0.398982	-1.038409
H77	H	1.220750	-0.308350	-1.143116
H78	H	1.235690	-0.161826	-1.117218
H79	H	1.378369	-0.105930	-0.986610
H80	H	1.506105	-0.196562	-0.881903
H81	H	1.448166	-0.919756	-0.666380
H82	H	1.628091	-0.440108	-1.108527
C83	C	1.319667	-0.928375	-0.559538
C84	C	1.302717	-0.980453	-0.466084
C85	C	1.192691	-1.009618	-0.441169
C86	C	1.099615	-0.986705	-0.509707
C87	C	1.116563	-0.934625	-0.603167
C88	C	1.226588	-0.905460	-0.628082
H89	H	1.371619	-0.997416	-0.415342
H90	H	1.180146	-1.048171	-0.371983
H91	H	1.018168	-1.008295	-0.491263
H92	H	1.047660	-0.917661	-0.653908
H93	H	1.239133	-0.866906	-0.697267
H94	H	1.642633	-0.792856	-0.615174
C95	C	1.318617	-0.785999	-0.558952
C96	C	1.230294	-0.841891	-0.538951
C97	C	1.119594	-0.814295	-0.513701
C98	C	1.097219	-0.730807	-0.508451
C99	C	1.185545	-0.674909	-0.528452
C100	C	1.296244	-0.702505	-0.553703
H101	H	1.246855	-0.903699	-0.542837
H102	H	1.054210	-0.855674	-0.498895
H103	H	1.015273	-0.710378	-0.489759
H104	H	1.168984	-0.613101	-0.524567
H105	H	1.361629	-0.661126	-0.568509
H106	H	1.455926	-0.318034	-1.071267
H107	H	1.535921	-0.919676	-0.331445
C108	C	1.372295	-0.784433	-0.360471
C109	C	1.353451	-0.700768	-0.349787
C110	C	1.245429	-0.671894	-0.316930
C111	C	1.156253	-0.726684	-0.294757
C112	C	1.175095	-0.810355	-0.305440
C113	C	1.283116	-0.839229	-0.338297
H114	H	1.419467	-0.660205	-0.366202
H115	H	1.231482	-0.609956	-0.309022
H116	H	1.076289	-0.705310	-0.270434
H117	H	1.109078	-0.850918	-0.289026
H118	H	1.297063	-0.901167	-0.346206
C119	C	1.657527	-0.927973	-0.638352
C120	C	1.587600	-0.980862	-0.701189
C121	C	1.624317	-1.009961	-0.807839
C122	C	1.730962	-0.986170	-0.851651
C123	C	1.800896	-0.933277	-0.788813
C124	C	1.764179	-0.904179	-0.682163
H125	H	1.508649	-0.998476	-0.668758
H126	H	1.572547	-1.049115	-0.854355
H127	H	1.758143	-1.007710	-0.930599
H128	H	1.879847	-0.915663	-0.821244
H129	H	1.815949	-0.865024	-0.635647
H130	H	1.398984	-0.918999	-0.369923
C131	C	1.130848	-0.453893	-0.640175
C132	C	1.205858	-0.511940	-0.594671
C133	C	1.266025	-0.564053	-0.667997
C134	C	1.251183	-0.558119	-0.786826
C135	C	1.176169	-0.500070	-0.832336
C136	C	1.116002	-0.447957	-0.759010
H137	H	1.216849	-0.516335	-0.506702
H138	H	1.321555	-0.607025	-0.634307
H139	H	1.295722	-0.596696	-0.841106
H140	H	1.165179	-0.495675	-0.920306
H141	H	1.060473	-0.404985	-0.792700
H142	H	1.683338	-0.791815	-0.479455
H143	H	1.628039	-0.440157	-0.899401
