data_functionalizedCrystal
_audit_creation_method	'MofGen! by Chris Wilmer'
_symmetry_space_group_name_H-M	'P1'
_symmetry_Int_Tables_number	1
_symmetry_cell_setting	triclinic
loop_
_symmetry_equiv_pos_as_xyz
  x,y,z
_cell_length_a	19.121725
_cell_length_b	16.120566
_cell_length_c	16.120297
_cell_angle_alpha	89.874982
_cell_angle_beta	95.429393
_cell_angle_gamma	95.185145
loop_
_atom_site_label
_atom_site_type_symbol
_atom_site_fract_x
_atom_site_fract_y
_atom_site_fract_z
Zn1	Zn	-0.357336	-1.264532	-0.553588
Zn2	Zn	-0.024003	-0.931199	-0.220254
Zn3	Zn	0.309331	-0.597865	0.113079
Zn4	Zn	-0.469621	-1.276854	-0.420487
Zn5	Zn	-0.136287	-0.943521	-0.087153
Zn6	Zn	0.197046	-0.610188	0.246180
Zn7	Zn	-0.345418	-1.131952	-0.406866
Zn8	Zn	-0.012085	-0.798619	-0.073533
Zn9	Zn	0.321249	-0.465286	0.259800
Zn10	Zn	-0.468972	-1.130780	-0.552414
Zn11	Zn	-0.135639	-0.797447	-0.219080
Zn12	Zn	0.197695	-0.464113	0.114253
O13	O	-0.410337	-1.201030	-0.483339
O14	O	-0.077003	-0.867696	-0.150005
O15	O	0.256330	-0.534363	0.183328
O16	O	-0.377490	-1.382784	-0.542123
O17	O	-0.044157	-1.049451	-0.208790
O18	O	0.289177	-0.716117	0.124544
O19	O	-0.448429	-1.263280	-0.302065
O20	O	-0.115095	-0.929947	0.031269
O21	O	0.218238	-0.596614	0.364602
O22	O	-0.248299	-1.144873	-0.421120
O23	O	0.085034	-0.811540	-0.087787
O24	O	0.418367	-0.478206	0.245546
O25	O	-0.459985	-1.391837	-0.444334
O26	O	-0.126652	-1.058504	-0.111001
O27	O	0.206682	-0.725171	0.222332
O28	O	-0.257056	-1.242279	-0.528916
O29	O	0.076278	-0.908945	-0.195583
O30	O	0.409611	-0.575612	0.137751
O31	O	-0.357177	-1.156822	-0.292058
O32	O	-0.023844	-0.823488	0.041276
O33	O	0.309489	-0.490155	0.374609
O34	O	-0.356548	-1.015179	-0.419982
O35	O	-0.023215	-0.681846	-0.086649
O36	O	0.310118	-0.348513	0.246685
O37	O	-0.458880	-1.142875	-0.669185
O38	O	-0.125546	-0.809542	-0.335851
O39	O	0.207787	-0.476208	-0.002518
O40	O	-0.447323	-1.014318	-0.526915
O41	O	-0.113990	-0.680985	-0.193582
O42	O	0.219343	-0.347651	0.139752
O43	O	-0.376861	-1.241142	-0.670047
O44	O	-0.043528	-0.907809	-0.336714
O45	O	0.289806	-0.574475	-0.003381
O46	O	-0.568234	-1.262144	-0.443196
O47	O	-0.234901	-0.928810	-0.109863
O48	O	0.098433	-0.595477	0.223471
O49	O	-0.567758	-1.154824	-0.540122
O50	O	-0.234424	-0.821490	-0.206789
O51	O	0.098909	-0.488157	0.126544
C52	C	-0.400573	-0.984511	-0.471844
C53	C	-0.067239	-0.651178	-0.138510
C54	C	0.266094	-0.317844	0.194823
C55	C	-0.396413	-0.891883	-0.466947
C56	C	-0.063080	-0.558550	-0.133613
C57	C	0.270253	-0.225217	0.199720
C58	C	-0.593589	-1.209715	-0.493029
C59	C	-0.260256	-0.876382	-0.159696
C60	C	0.073077	-0.543049	0.173638
C61	C	-0.671990	-1.213506	-0.497207
C62	C	-0.338657	-0.880173	-0.163873
C63	C	-0.005323	-0.546839	0.169460
C64	C	-0.388803	-0.722290	-0.458012
C65	C	-0.055470	-0.388957	-0.124679
C66	C	0.277863	-0.055624	0.208654
C67	C	-0.431931	-0.680612	-0.508675
C68	C	-0.098598	-0.347279	-0.175341
C69	C	0.234736	-0.013946	0.157992
C70	C	-0.427697	-0.586245	-0.503704
C71	C	-0.094363	-0.252912	-0.170370
C72	C	0.238970	0.080422	0.162963
C73	C	-0.393037	-0.816666	-0.462982
C74	C	-0.059703	-0.483333	-0.129649
C75	C	0.273630	-0.150000	0.203684
C76	C	-0.704327	-1.164623	-0.443014
C77	C	-0.370994	-0.831290	-0.109681
C78	C	-0.037661	-0.497956	0.223653
C79	C	-0.777994	-1.168193	-0.446943
C80	C	-0.444661	-0.834860	-0.113610
C81	C	-0.111327	-0.501526	0.219723
C82	C	-0.819322	-1.220642	-0.505070
C83	C	-0.485988	-0.887309	-0.171737
C84	C	-0.152655	-0.553975	0.161597
C85	C	-0.786979	-1.269530	-0.559265
C86	C	-0.453646	-0.936197	-0.225932
C87	C	-0.120313	-0.602864	0.107402
C88	C	-0.713314	-1.265964	-0.555331
C89	C	-0.379981	-0.932631	-0.221998
C90	C	-0.046648	-0.599298	0.111336
C91	C	-1.041967	-1.233948	-0.519754
C92	C	-0.708634	-0.900615	-0.186420
C93	C	-0.375301	-0.567281	0.146913
C94	C	-1.115637	-1.237508	-0.523685
C95	C	-0.782304	-0.904175	-0.190352
C96	C	-0.448971	-0.570842	0.142982
C97	C	-1.106647	-1.136172	-0.411362
C98	C	-0.773313	-0.802839	-0.078028
C99	C	-0.439980	-0.469505	0.255305
C100	C	-1.032981	-1.132607	-0.407436
C101	C	-0.699647	-0.799273	-0.074103
C102	C	-0.366314	-0.465940	0.259230
C103	C	-1.000645	-1.181498	-0.461629
C104	C	-0.667312	-0.848165	-0.128295
C105	C	-0.333978	-0.514832	0.205038
C106	C	-0.894621	-1.224290	-0.509089
C107	C	-0.561287	-0.890957	-0.175756
C108	C	-0.227954	-0.557624	0.157577
C109	C	-0.925347	-1.177854	-0.457604
C110	C	-0.592014	-0.844520	-0.124271
C111	C	-0.258681	-0.511187	0.209062
C112	C	-0.226370	-1.192332	-0.473630
C113	C	0.106963	-0.858999	-0.140296
C114	C	0.440296	-0.525665	0.193037
C115	C	-0.147975	-1.188626	-0.469492
C116	C	0.185359	-0.855292	-0.136159
C117	C	0.518692	-0.521959	0.197174
C118	C	-0.419127	-1.190503	-0.700698
C119	C	-0.085794	-0.857170	-0.367365
C120	C	0.247539	-0.523836	-0.034032
C121	C	-0.422874	-1.186017	-0.793324
C122	C	-0.089540	-0.852684	-0.459991
C123	C	0.243793	-0.519351	-0.126658
C124	C	-0.420141	-0.418395	-0.494865
C125	C	-0.086808	-0.085061	-0.161532
C126	C	0.246526	0.248272	0.171801
C127	C	-0.424323	-0.511024	-0.499743
C128	C	-0.090990	-0.177691	-0.166410
C129	C	0.242344	0.155642	0.166924
C130	C	-0.429696	-1.177796	-0.962910
C131	C	-0.096363	-0.844463	-0.629577
C132	C	0.236971	-0.511129	-0.296244
C133	C	-0.390774	-1.224418	-1.004616
C134	C	-0.057440	-0.891084	-0.671283
C135	C	0.275893	-0.557751	-0.337949
C136	C	-0.394570	-1.219843	-1.098980
C137	C	-0.061236	-0.886510	-0.765646
C138	C	0.272097	-0.553176	-0.432313
C139	C	-0.425901	-1.182369	-0.868538
C140	C	-0.092567	-0.849036	-0.535205
C141	C	0.240766	-0.515703	-0.201872
C142	C	-0.401531	-1.211561	-0.266824
C143	C	-0.068198	-0.878228	0.066509
C144	C	0.265135	-0.544894	0.399843
C145	C	-0.397594	-1.216199	-0.174197
C146	C	-0.064261	-0.882865	0.159136
C147	C	0.269073	-0.549532	0.492470
H148	H	-0.472032	-0.715803	-0.555782
H149	H	-0.138699	-0.382470	-0.222449
H150	H	0.194634	-0.049136	0.110884
O151	O	-0.335689	-0.675680	-0.395615
O152	O	-0.002355	-0.342347	-0.062282
O153	O	0.330978	-0.009014	0.271052
H154	H	-0.304743	-0.720766	-0.359268
H155	H	0.028590	-0.387433	-0.025934
H156	H	0.361923	-0.054099	0.307399
O157	O	-0.659753	-1.108059	-0.380315
O158	O	-0.326420	-0.774725	-0.046981
O159	O	0.006914	-0.441392	0.286352
H160	H	-0.694619	-1.074676	-0.343285
H161	H	-0.361285	-0.741342	-0.009951
H162	H	-0.027952	-0.408009	0.323382
O163	O	-0.477609	-1.120377	-1.009484
O164	O	-0.144275	-0.787044	-0.676151
O165	O	0.189058	-0.453711	-0.342817
H166	H	-0.532953	-1.138075	-0.996527
H167	H	-0.199620	-0.804742	-0.663194
H168	H	0.133713	-0.471408	-0.329861
O169	O	-0.342867	-1.281852	-0.958043
O170	O	-0.009534	-0.948518	-0.624710
O171	O	0.323800	-0.615185	-0.291377
H172	H	-0.287519	-1.264159	-0.970989
H173	H	0.045814	-0.930826	-0.637655
H174	H	0.379148	-0.597492	-0.304322
O175	O	-0.812875	-1.115467	-0.388496
O176	O	-0.479542	-0.782133	-0.055163
O177	O	-0.146208	-0.448800	0.278170
H178	H	-0.771762	-1.078388	-0.347425
H179	H	-0.438428	-0.745055	-0.014091
H180	H	-0.105095	-0.411721	0.319242
O181	O	-0.988405	-1.076052	-0.344729
O182	O	-0.655072	-0.742719	-0.011396
O183	O	-0.321739	-0.409385	0.321937
H184	H	-1.023268	-1.042669	-0.307696
H185	H	-0.689935	-0.709335	0.025637
H186	H	-0.356601	-0.376002	0.358970
H187	H	-1.132983	-1.096368	-0.367241
H188	H	-0.799649	-0.763035	-0.033908
H189	H	-0.466316	-0.429701	0.299426
H190	H	-1.015645	-1.273756	-0.563880
H191	H	-0.682312	-0.940422	-0.230547
H192	H	-0.348979	-0.607089	0.102786
O193	O	-1.160217	-1.294087	-0.586375
O194	O	-0.826884	-0.960754	-0.253042
O195	O	-0.493550	-0.627421	0.080292
H196	H	-1.125357	-1.327493	-0.623392
H197	H	-0.792024	-0.994160	-0.290059
H198	H	-0.458690	-0.660827	0.043275
H199	H	-0.686986	-1.305771	-0.599459
H200	H	-0.353653	-0.972438	-0.266126
H201	H	-0.020320	-0.639104	0.067207
O202	O	-0.831554	-1.326092	-0.621966
O203	O	-0.498221	-0.992759	-0.288632
O204	O	-0.164888	-0.659426	0.044701
H205	H	-0.865511	-1.371945	-0.588751
H206	H	-0.532178	-1.038612	-0.255418
H207	H	-0.198845	-0.705278	0.077915
O208	O	-0.880779	-1.121286	-0.394908
O209	O	-0.547446	-0.787953	-0.061575
O210	O	-0.214113	-0.454619	0.271759
H211	H	-0.846835	-1.075429	-0.428132
H212	H	-0.513501	-0.742095	-0.094799
H213	H	-0.180168	-0.408762	0.238535
O214	O	-0.939201	-1.280844	-0.571794
O215	O	-0.605867	-0.947510	-0.238460
O216	O	-0.272534	-0.614177	0.094873
H217	H	-0.973155	-1.326697	-0.538577
H218	H	-0.639822	-0.993363	-0.205244
H219	H	-0.306489	-0.660030	0.128090
