data_functionalizedCrystal
_audit_creation_method	'MofGen! by Chris Wilmer'
_symmetry_space_group_name_H-M	'P1'
_symmetry_Int_Tables_number	1
_symmetry_cell_setting	triclinic
loop_
_symmetry_equiv_pos_as_xyz
  x,y,z
_cell_length_a	6.817900
_cell_length_b	11.102183
_cell_length_c	14.125465
_cell_angle_alpha	94.634773
_cell_angle_beta	100.398878
_cell_angle_gamma	108.603876
loop_
_atom_site_label
_atom_site_type_symbol
_atom_site_fract_x
_atom_site_fract_y
_atom_site_fract_z
V1	V	-4.017257	-0.174747	-0.299975
O2	O	-3.978095	0.009521	-0.294266
O3	O	-3.994669	-0.347574	-0.297921
O4	O	-3.952927	-0.171566	-0.430805
O5	O	-4.020125	-0.167706	-0.160463
V6	V	-4.499605	-0.152765	-0.283288
O7	O	-4.281094	-0.222967	-0.336578
O8	O	-4.685965	-0.104545	-0.246685
O9	O	-4.298987	0.020063	-0.285341
O10	O	-4.656164	-0.337032	-0.288997
O11	O	-4.614133	-0.159806	-0.422800
O12	O	-4.340728	-0.155945	-0.152458
C13	C	-3.846464	-0.389721	-0.293189
C14	C	-3.909176	-0.531006	-0.292382
C15	C	-3.793217	-0.165204	-0.462693
C16	C	-3.822075	-0.163746	-0.569648
C17	C	-3.844194	-0.495370	-0.116162
C18	C	-3.841162	-0.543927	-0.027677
C19	C	-3.900091	-0.676678	-0.026924
C20	C	-3.962065	-0.760877	-0.114666
C21	C	-3.965098	-0.712320	-0.203152
C22	C	-3.906157	-0.579564	-0.203895
C23	C	-4.030093	-0.747956	-0.379370
C24	C	-3.971149	-0.615205	-0.380124
C25	C	-4.092066	-0.832154	-0.467112
C26	C	-4.095085	-0.783597	-0.555599
C27	C	-4.036148	-0.650837	-0.556348
C28	C	-3.974182	-0.566648	-0.468610
C29	C	-3.874968	-0.161074	-0.765471
C30	C	-4.061262	-0.166435	-0.817792
C31	C	-4.090694	-0.164948	-0.926755
C32	C	-3.845528	-0.162561	-0.656498
C33	C	-4.110534	0.062203	-0.290071
C34	C	-4.027060	0.203487	-0.290884
C35	C	-4.163781	-0.162312	-0.120564
C36	C	-4.114161	-0.163763	-0.013609
H37	H	-3.796148	-0.387274	-0.116765
C38	C	-4.039445	-0.597427	-0.653681
H39	H	-3.995471	-0.506306	-0.641566
H40	H	-3.945701	-0.622392	-0.686684
H41	H	-4.179214	-0.630622	-0.692834
C42	C	-3.772983	-0.451309	0.068832
H43	H	-3.738298	-0.365291	0.055716
H44	H	-3.886032	-0.469866	0.102097
H45	H	-3.652521	-0.461621	0.108219
C46	C	-3.896756	-0.730095	0.070406
H47	H	-3.851399	-0.660942	0.122555
H48	H	-4.035144	-0.785271	0.071294
H49	H	-3.801624	-0.777011	0.077423
C50	C	-4.026923	-0.906901	-0.113843
H51	H	-4.064279	-0.950091	-0.178769
H52	H	-3.911521	-0.926241	-0.078063
H53	H	-4.145027	-0.934462	-0.084204
H54	H	-4.198654	-0.172154	-0.780754
H55	H	-3.737594	-0.155370	-0.802509
H56	H	-4.140061	-0.940246	-0.466493
H57	H	-4.145558	-0.852161	-0.627032
H58	H	-3.926159	-0.458551	-0.469210
