data_functionalizedCrystal
_audit_creation_method	'MofGen! by Chris Wilmer'
_symmetry_space_group_name_H-M	'P1'
_symmetry_Int_Tables_number	1
_symmetry_cell_setting	triclinic
loop_
_symmetry_equiv_pos_as_xyz
  x,y,z
_cell_length_a	13.032831
_cell_length_b	16.120484
_cell_length_c	13.033429
_cell_angle_alpha	94.699356
_cell_angle_beta	90.908563
_cell_angle_gamma	86.078521
loop_
_atom_site_label
_atom_site_type_symbol
_atom_site_fract_x
_atom_site_fract_y
_atom_site_fract_z
Zn1	Zn	1.470316	-0.399691	0.802657
Zn2	Zn	1.970316	0.100309	1.302657
Zn3	Zn	1.480945	-0.556769	0.639226
Zn4	Zn	1.980945	-0.056769	1.139226
Zn5	Zn	1.319846	-0.404080	0.609126
Zn6	Zn	1.819846	0.095920	1.109126
Zn7	Zn	1.289645	-0.522271	0.787480
Zn8	Zn	1.789645	-0.022271	1.287480
O9	O	1.390188	-0.470703	0.709622
O10	O	1.890188	0.029297	1.209622
O11	O	1.614758	-0.433128	0.799926
O12	O	2.114758	0.066872	1.299926
O13	O	1.476663	-0.552790	0.492195
O14	O	1.976663	-0.052790	0.992195
O15	O	1.347997	-0.288297	0.628554
O16	O	1.847997	0.211703	1.128554
O17	O	1.622567	-0.548533	0.679854
O18	O	2.122567	-0.048533	1.179854
O19	O	1.458547	-0.285072	0.770740
O20	O	1.958547	0.214928	1.270740
O21	O	1.358304	-0.440610	0.470081
O22	O	1.858304	0.059390	0.970081
O23	O	1.172808	-0.407158	0.613837
O24	O	1.672808	0.092842	1.113837
O25	O	1.296523	-0.489736	0.932532
O26	O	1.796523	0.010264	1.432532
O27	O	1.150619	-0.493992	0.744873
O28	O	1.650619	0.006008	1.244873
O29	O	1.429262	-0.399676	0.943682
O30	O	1.929262	0.100324	1.443682
O31	O	1.447377	-0.667394	0.665137
O32	O	1.947377	-0.167394	1.165137
O33	O	1.306830	-0.642048	0.774059
O34	O	1.806830	-0.142048	1.274059
C35	C	1.124626	-0.447308	0.674442
C36	C	1.624626	0.052692	1.174442
C37	C	1.011014	-0.437317	0.659417
C38	C	1.511014	0.062683	1.159417
C39	C	0.949416	-0.475917	0.717464
C40	C	1.449416	0.024083	1.217464
C41	C	0.831991	-0.465592	0.701936
C42	C	1.331991	0.034408	1.201936
C43	C	1.375005	-0.684592	0.721243
C44	C	1.875005	-0.184592	1.221243
C45	C	1.368599	-0.776099	0.726261
C46	C	1.868599	-0.276099	1.226261
C47	C	1.356907	-0.943642	0.735445
C48	C	1.856907	-0.443642	1.235445
C49	C	1.423650	-0.996937	0.683841
C50	C	1.923650	-0.496937	1.183841
C51	C	1.417145	-1.090164	0.688951
C52	C	1.917145	-0.590164	1.188951
C53	C	1.363411	-0.850406	0.730336
C54	C	1.863411	-0.350406	1.230336
C55	C	1.656786	-0.494189	0.744941
C56	C	2.156786	0.005811	1.244941
C57	C	1.770395	-0.504198	0.759991
C58	C	2.270395	-0.004198	1.259991
C59	C	1.358338	-0.440368	0.976232
C60	C	1.858338	0.059632	1.476232
C61	C	1.344765	-0.427441	1.089846
C62	C	1.844765	0.072559	1.589846
C63	C	1.405456	-0.255979	0.697982
C64	C	1.905456	0.244021	1.197982
C65	C	1.411962	-0.164476	0.693022
C66	C	1.911962	0.335524	1.193022
C67	C	1.421977	-0.500865	0.444054
C68	C	1.921977	-0.000865	0.944054
C69	C	1.435764	-0.513578	0.330455
C70	C	1.935764	-0.013578	0.830455
C71	C	1.383254	-0.463835	1.268862
C72	C	1.883254	0.036165	1.768862
C73	C	1.397283	-0.477191	1.151437
C74	C	1.897283	0.022809	1.651437
H75	H	0.983613	-0.516605	0.778659
H76	H	1.483613	-0.016605	1.278659
N77	N	1.275337	-0.361595	1.132713
N78	N	1.775337	0.138405	1.632713
N79	N	1.288923	-0.287568	1.117642
N80	N	1.788923	0.212432	1.617642
H81	H	1.239890	-0.241064	1.147915
H82	H	1.739890	0.258936	1.647915
H83	H	0.797799	-0.424894	0.640745
H84	H	1.297799	0.075106	1.140745
H85	H	0.976816	-0.396622	0.598230
H86	H	1.476816	0.103378	1.098230
H87	H	1.294884	-0.968030	0.783457
H88	H	1.794884	-0.468030	1.283457
H89	H	0.804585	-0.544887	0.821193
H90	H	1.304585	-0.044887	1.321193
H91	H	1.491109	-0.566049	1.296254
H92	H	1.991109	-0.066049	1.796254
H93	H	1.485677	-0.972548	0.635824
H94	H	1.985677	-0.472548	1.135824
N95	N	1.313842	-0.397993	1.311759
N96	N	1.813842	0.102007	1.811759
N97	N	1.346469	-0.341971	1.373282
N98	N	1.846469	0.158029	1.873282
H99	H	1.297446	-0.295467	1.403576
H100	H	1.797446	0.204533	1.903576
H101	H	1.452632	-0.529666	1.117240
H102	H	1.952632	-0.029666	1.617240
