data_functionalizedCrystal
_audit_creation_method	'MofGen! by Chris Wilmer'
_symmetry_space_group_name_H-M	'P1'
_symmetry_Int_Tables_number	1
_symmetry_cell_setting	triclinic
loop_
_symmetry_equiv_pos_as_xyz
  x,y,z
_cell_length_a	11.169417
_cell_length_b	25.639239
_cell_length_c	11.169409
_cell_angle_alpha	90.039281
_cell_angle_beta	90.019824
_cell_angle_gamma	90.039565
loop_
_atom_site_label
_atom_site_type_symbol
_atom_site_fract_x
_atom_site_fract_y
_atom_site_fract_z
Zn1	Zn	1.834726	-0.208096	0.678485
Zn2	Zn	2.168059	0.125237	1.011818
Zn3	Zn	2.501393	0.458570	1.345151
Zn4	Zn	1.834516	-0.295546	0.477777
Zn5	Zn	2.167849	0.037787	0.811111
Zn6	Zn	2.501183	0.371120	1.144444
Zn7	Zn	1.634012	-0.208128	0.477819
Zn8	Zn	1.967345	0.125205	0.811152
Zn9	Zn	2.300678	0.458539	1.144486
Zn10	Zn	1.633920	-0.295504	0.678422
Zn11	Zn	1.967253	0.037830	1.011756
Zn12	Zn	2.300587	0.371163	1.345089
O13	O	1.734293	-0.251819	0.578126
O14	O	2.067627	0.081515	0.911459
O15	O	2.400960	0.414848	1.244793
O16	O	2.002648	-0.219701	0.651869
O17	O	2.335981	0.113632	0.985203
O18	O	2.669314	0.446966	1.318536
O19	O	1.807869	-0.283981	0.309833
O20	O	2.141203	0.049352	0.643166
O21	O	2.474536	0.382685	0.976500
O22	O	1.660763	-0.134959	0.504482
O23	O	1.994097	0.198375	0.837815
O24	O	2.327430	0.531708	1.171148
O25	O	2.002494	-0.283950	0.504410
O26	O	2.335827	0.049383	0.837744
O27	O	2.669160	0.382716	1.171077
O28	O	1.808227	-0.134935	0.651910
O29	O	2.141560	0.198398	0.985243
O30	O	2.474894	0.531731	1.318576
O31	O	1.660560	-0.219755	0.309864
O32	O	1.993893	0.113578	0.643197
O33	O	2.327226	0.446911	0.976530
O34	O	1.466050	-0.219714	0.504421
O35	O	1.799383	0.113619	0.837754
O36	O	2.132717	0.446952	1.171088
O37	O	1.660607	-0.283878	0.846380
O38	O	1.993940	0.049455	1.179714
O39	O	2.327274	0.382789	1.513047
O40	O	1.465983	-0.283909	0.651803
O41	O	1.799316	0.049425	0.985136
O42	O	2.132649	0.382758	1.318470
O43	O	1.808138	-0.219660	0.846426
O44	O	2.141471	0.113673	1.179760
O45	O	2.474805	0.447007	1.513093
O46	O	1.807780	-0.368706	0.504350
O47	O	2.141114	-0.035373	0.837683
O48	O	2.474447	0.297961	1.171016
O49	O	1.660403	-0.368675	0.651763
O50	O	1.993737	-0.035341	0.985096
O51	O	2.327070	0.297992	1.318429
C52	C	1.422469	-0.251811	0.578110
C53	C	1.755802	0.081523	0.911444
C54	C	2.089135	0.414856	1.244777
C55	C	1.289069	-0.251820	0.578132
C56	C	1.622402	0.081513	0.911466
C57	C	1.955735	0.414847	1.244799
C58	C	1.734092	-0.387661	0.578071
C59	C	2.067425	-0.054328	0.911404
C60	C	2.400758	0.279005	1.244738
C61	C	1.734115	-0.445775	0.578088
C62	C	2.067448	-0.112442	0.911421
C63	C	2.400782	0.220891	1.244754
C64	C	1.811233	-0.806142	0.501499
C65	C	2.144566	-0.472809	0.834832
C66	C	2.477900	-0.139475	1.168165
C67	C	1.811279	-0.860746	0.501515
C68	C	2.144613	-0.527413	0.834848
C69	C	2.477946	-0.194080	1.168181
O70	O	1.876638	-0.888986	0.436336
O71	O	2.209972	-0.555653	0.769669
O72	O	2.543305	-0.222319	1.103003
N73	N	1.734504	-0.888058	0.578205
N74	N	2.067838	-0.554724	0.911539
N75	N	2.401171	-0.221391	1.244872
C76	C	1.657686	-0.860762	0.654894
C77	C	1.991020	-0.527429	0.988227
C78	C	2.324353	-0.194095	1.321560
O79	O	1.592388	-0.889006	0.720127
O80	O	1.925722	-0.555673	1.053460
O81	O	2.259055	-0.222340	1.386794
C82	C	1.657647	-0.806159	0.654883
C83	C	1.990980	-0.472825	0.988216
C84	C	2.324314	-0.139492	1.321549
C85	C	1.734418	-0.778850	0.578178
C86	C	2.067752	-0.445517	0.911512
C87	C	2.401085	-0.112183	1.244845
C88	C	1.887999	-0.778833	0.424802
C89	C	2.221332	-0.445500	0.758135
C90	C	2.554666	-0.112167	1.091468
C91	C	1.887951	-0.724233	0.424784
C92	C	2.221284	-0.390899	0.758118
C93	C	2.554617	-0.057566	1.091451
C94	C	1.811136	-0.696941	0.501464
C95	C	2.144469	-0.363608	0.834797
C96	C	2.477803	-0.030274	1.168131
C97	C	1.734370	-0.724249	0.578161
C98	C	2.067703	-0.390916	0.911494
C99	C	2.401037	-0.057583	1.244828
C100	C	1.580836	-0.778864	0.731576
C101	C	1.914169	-0.445530	1.064909
C102	C	2.247503	-0.112197	1.398243
C103	C	1.580804	-0.724257	0.731559
C104	C	1.914137	-0.390923	1.064892
C105	C	2.247470	-0.057590	1.398226
C106	C	1.657575	-0.696948	0.654855
C107	C	1.990908	-0.363615	0.988188
C108	C	2.324242	-0.030282	1.321522
C109	C	1.657507	-0.642357	0.654823
C110	C	1.990840	-0.309024	0.988157
C111	C	2.324174	0.024310	1.321490
N112	N	1.734282	-0.615046	0.578133
N113	N	2.067615	-0.281712	0.911466
N114	N	2.400949	0.051621	1.244800
C115	C	1.811097	-0.642338	0.501453
C116	C	2.144430	-0.309004	0.834787
C117	C	2.477763	0.024329	1.168120
C118	C	1.657777	-0.975432	0.654912
C119	C	1.991110	-0.642099	0.988245
C120	C	2.324444	-0.308766	1.321579
C121	C	1.657809	-1.030035	0.654918
C122	C	1.991143	-0.696701	0.988251
C123	C	2.324476	-0.363368	1.321584
C124	C	1.811404	-1.030015	0.501540
C125	C	2.144738	-0.696682	0.834874
C126	C	2.478071	-0.363349	1.168207
C127	C	1.811365	-0.975412	0.501529
C128	C	2.144698	-0.642079	0.834863
C129	C	2.478032	-0.308745	1.168196
C130	C	1.734552	-0.948121	0.578221
C131	C	2.067885	-0.614788	0.911555
C132	C	2.401219	-0.281454	1.244888
C133	C	1.810988	-0.527673	0.501422
C134	C	2.144322	-0.194339	0.834755
C135	C	2.477655	0.138994	1.168089
C136	C	1.810930	-0.473067	0.501408
C137	C	2.144263	-0.139734	0.834741
C138	C	2.477596	0.193600	1.168075
C139	C	1.657340	-0.473091	0.654789
C140	C	1.990673	-0.139758	0.988123
C141	C	2.324006	0.193575	1.321456
C142	C	1.657393	-0.527692	0.654799
C143	C	1.990727	-0.194359	0.988133
C144	C	2.324060	0.138975	1.321466
C145	C	1.734228	-0.554981	0.578112
C146	C	2.067561	-0.221648	0.911445
C147	C	2.400894	0.111685	1.244778
O148	O	1.592185	-0.614082	0.719973
O149	O	1.925518	-0.280749	1.053306
O150	O	2.258851	0.052584	1.386639
O151	O	1.876395	-0.614086	0.436242
O152	O	2.209728	-0.280753	0.769575
O153	O	2.543061	0.052580	1.102908
C154	C	2.047336	-0.251827	0.578142
C155	C	2.380669	0.081506	0.911475
C156	C	2.714002	0.414840	1.244809
C157	C	2.180736	-0.251830	0.578149
C158	C	2.514069	0.081503	0.911482
C159	C	2.847402	0.414836	1.244816
C160	C	1.734386	-0.251761	0.891168
C161	C	2.067719	0.081573	1.224502
C162	C	2.401052	0.414906	1.557835
C163	C	1.734425	-0.251736	1.024569
C164	C	2.067758	0.081598	1.357902
C165	C	2.401092	0.414931	1.691235
C166	C	1.734529	-0.115446	0.578207
C167	C	2.067862	0.217888	0.911541
C168	C	2.401195	0.551221	1.244874
C169	C	1.734629	-0.057331	0.578242
C170	C	2.067962	0.276002	0.911575
C171	C	2.401296	0.609335	1.244909
C172	C	1.734271	-0.251839	0.266301
C173	C	2.067604	0.081495	0.599634
C174	C	2.400937	0.414828	0.932968
C175	C	1.734464	-0.251716	0.132902
C176	C	2.067797	0.081617	0.466235
C177	C	2.401131	0.414951	0.799568
H178	H	1.873446	-0.450834	0.438942
H179	H	2.206779	-0.117501	0.772275
H180	H	2.540113	0.215832	1.105609
H181	H	1.594794	-0.450862	0.717218
H182	H	1.928128	-0.117528	1.050551
H183	H	2.261461	0.215805	1.383884
H184	H	1.595283	-1.052265	0.717367
H185	H	1.928616	-0.718932	1.050700
H186	H	2.261950	-0.385598	1.384033
F187	F	1.892763	-0.556708	0.419802
F188	F	2.226097	-0.223375	0.753135
F189	F	2.559430	0.109959	1.086469
H190	H	1.518254	-0.702039	0.794015
H191	H	1.851588	-0.368706	1.127348
H192	H	2.184921	-0.035372	1.460682
H193	H	1.873955	-1.052246	0.439107
H194	H	2.207289	-0.718913	0.772441
H195	H	2.540622	-0.385580	1.105774
F196	F	1.576008	-0.946392	0.736536
F197	F	1.909342	-0.613059	1.069869
F198	F	2.242675	-0.279725	1.403202
F199	F	1.969676	-0.695176	0.343158
F200	F	2.303009	-0.361842	0.676492
F201	F	2.636343	-0.028509	1.009825
H202	H	1.518314	-0.801089	0.794031
H203	H	1.851648	-0.467756	1.127365
H204	H	2.184981	-0.134422	1.460698
F205	F	1.969765	-0.807871	0.343183
F206	F	2.303098	-0.474538	0.676517
F207	F	2.636432	-0.141205	1.009850
H208	H	1.873879	-0.953181	0.439071
H209	H	2.207213	-0.619847	0.772404
H210	H	2.540546	-0.286514	1.105738
F211	F	1.575663	-0.556757	0.736414
F212	F	1.908997	-0.223423	1.069747
F213	F	2.242330	0.109910	1.403080
