data_functionalizedCrystal
_audit_creation_method	'MofGen! by Chris Wilmer'
_symmetry_space_group_name_H-M	'P1'
_symmetry_Int_Tables_number	1
_symmetry_cell_setting	triclinic
loop_
_symmetry_equiv_pos_as_xyz
  x,y,z
_cell_length_a	17.699077
_cell_length_b	17.699083
_cell_length_c	16.776229
_cell_angle_alpha	89.999799
_cell_angle_beta	89.993415
_cell_angle_gamma	83.281795
loop_
_atom_site_label
_atom_site_type_symbol
_atom_site_fract_x
_atom_site_fract_y
_atom_site_fract_z
O1	O	1.004081	0.095691	-0.066266
O2	O	1.504081	0.595691	0.433734
O3	O	0.783702	0.108149	-0.066269
O4	O	1.283702	0.608149	0.433731
O5	O	0.900118	-0.008269	-0.066275
O6	O	1.400118	0.491731	0.433725
O7	O	0.887666	0.212109	-0.066260
O8	O	1.387666	0.712109	0.433740
O9	O	0.900103	-0.008276	0.066301
O10	O	1.400103	0.491724	0.566301
O11	O	0.783687	0.108142	0.066308
O12	O	1.283687	0.608142	0.566308
O13	O	1.004066	0.095684	0.066310
O14	O	1.504066	0.595684	0.566310
Zn15	Zn	0.893874	0.101912	0.087358
Zn16	Zn	1.393874	0.601912	0.587358
Zn17	Zn	0.893894	0.101921	-0.087317
Zn18	Zn	1.393894	0.601921	0.412683
O19	O	0.887650	0.212102	0.066317
O20	O	1.387650	0.712102	0.566317
C21	C	0.755498	0.107700	0.000019
C22	C	1.255498	0.607700	0.500019
C23	C	0.671479	0.106363	0.000018
C24	C	1.171479	0.606363	0.500018
C25	C	0.899664	-0.036470	0.000009
C26	C	1.399664	0.463530	0.500009
C27	C	0.898326	-0.120488	-0.000002
C28	C	1.398326	0.379512	0.499998
C29	C	0.632003	0.105729	0.072286
C30	C	1.132003	0.605729	0.572286
C31	C	0.553061	0.104461	0.072287
C32	C	1.053061	0.604461	0.572287
C33	C	0.513595	0.103832	0.000018
C34	C	1.013595	0.603832	0.500018
C35	C	0.553076	0.104463	-0.072256
C36	C	1.053076	0.604463	0.427744
C37	C	0.632018	0.105726	-0.072256
C38	C	1.132018	0.605726	0.427744
C39	C	0.234713	0.099370	-0.072258
C40	C	0.734713	0.599370	0.427742
C41	C	0.155766	0.098110	-0.072252
C42	C	0.655766	0.598110	0.427748
C43	C	0.155756	0.098105	0.072285
C44	C	0.655756	0.598105	0.572285
C45	C	0.234698	0.099367	0.072285
C46	C	0.734698	0.599367	0.572285
C47	C	0.274173	0.099995	0.000011
C48	C	0.774173	0.599995	0.500011
C49	C	0.359771	0.101369	0.000011
C50	C	0.859771	0.601369	0.500011
C51	C	0.427997	0.102464	0.000017
C52	C	0.927997	0.602464	0.500017
C53	C	1.032271	0.096133	0.000021
C54	C	1.532271	0.596133	0.500021
C55	C	1.116289	0.097470	0.000017
C56	C	1.616289	0.597470	0.500017
N57	N	0.893866	0.101905	0.206570
N58	N	1.393866	0.601905	0.706570
C59	C	0.888104	0.240303	0.000030
C60	C	1.388104	0.740303	0.500030
C61	C	0.889443	0.324321	0.000036
C62	C	1.389443	0.824321	0.500036
C63	C	0.821109	0.372943	0.000036
C64	C	1.321109	0.872943	0.500036
C65	C	0.822371	0.451887	0.000026
C66	C	1.322371	0.951887	0.500026
C67	C	0.891968	0.482206	0.000023
C68	C	1.391968	0.982206	0.500023
C69	C	0.960307	0.433577	0.000022
C70	C	1.460307	0.933577	0.500022
C71	C	0.959044	0.354636	0.000025
C72	C	1.459044	0.854636	0.500025
C73	C	0.965402	0.751940	0.000006
C74	C	1.465402	1.251940	0.500006
C75	C	0.966660	0.830888	0.000005
C76	C	1.466660	1.330888	0.500005
C77	C	0.828730	0.849191	0.000007
C78	C	1.328730	1.349191	0.500007
C79	C	0.827467	0.770250	0.000010
C80	C	1.327467	1.270250	0.500010
C81	C	0.895805	0.721628	0.000005
C82	C	1.395805	1.221628	0.500005
C83	C	0.894436	0.636029	0.000013
C84	C	1.394436	1.136029	0.500013
C85	C	0.893338	0.567804	0.000020
C86	C	1.393338	1.067804	0.500020
N87	N	0.893909	0.101922	-0.206528
N88	N	1.393909	0.601922	0.293472
C89	C	0.945430	0.050376	0.248284
C90	C	1.445430	0.550376	0.748284
C91	C	0.945434	0.050376	0.331736
C92	C	1.445434	0.550376	0.831736
C93	C	0.893877	0.101908	0.373473
C94	C	1.393877	0.601908	0.873473
C95	C	0.842307	0.153439	0.331753
C96	C	1.342307	0.653439	0.831753
C97	C	0.842300	0.153435	0.248302
C98	C	1.342300	0.653435	0.748302
C99	C	0.842334	0.153454	0.668300
C100	C	1.342334	0.653454	1.168300
C101	C	0.842347	0.153455	0.751756
C102	C	1.342347	0.653455	1.251756
C103	C	0.945469	0.050394	0.751734
C104	C	1.445469	0.550394	1.251734
C105	C	0.945462	0.050390	0.668283
C106	C	1.445462	0.550390	1.168283
C107	C	0.893889	0.101919	0.626570
C108	C	1.393889	0.601919	1.126570
C109	C	0.893885	0.101918	0.536082
C110	C	1.393885	0.601918	1.036082
C111	C	0.893885	0.101913	0.463959
C112	C	1.393885	0.601913	0.963959
H113	H	0.664130	0.106247	0.131135
H114	H	1.164130	0.606247	0.631135
H115	H	0.520925	0.103932	0.131135
H116	H	1.020925	0.603932	0.631135
H117	H	0.800344	0.195411	0.634344
H118	H	1.300344	0.695411	1.134344
H119	H	0.987460	0.008434	0.785705
H120	H	1.487460	0.508434	1.285705
H121	H	0.770794	0.745568	0.000017
H122	H	1.270794	1.245568	0.500017
O123	O	1.041728	0.863594	-0.000014
O124	O	1.541728	1.363594	0.499986
H125	H	1.089036	0.816523	-0.000028
H126	H	1.589036	1.316523	0.499972
O127	O	1.039112	0.699512	0.000009
O128	O	1.539112	1.199512	0.500009
H129	H	1.041853	0.663111	-0.054030
H130	H	1.541853	1.163111	0.445970
O131	O	1.001023	-0.005219	0.203266
O132	O	1.501023	0.494781	0.703266
H133	H	1.037751	0.026580	0.165232
H134	H	1.537751	0.526580	0.665232
H135	H	0.266826	0.099883	0.131133
H136	H	0.766826	0.599883	0.631133
O137	O	0.786702	0.209029	0.376762
O138	O	1.286702	0.709029	0.876762
H139	H	0.749984	0.177223	0.414802
H140	H	1.249984	0.677223	0.914802
O141	O	1.035375	0.466273	0.000018
O142	O	1.535375	0.966273	0.500018
H143	H	1.024775	0.529335	0.000024
H144	H	1.524775	1.029335	0.500024
H145	H	0.123635	0.097597	-0.131105
H146	H	0.623635	0.597597	0.368895
H147	H	0.266845	0.099879	-0.131107
H148	H	0.766845	0.599879	0.368893
H149	H	1.014688	0.315047	0.000023
H150	H	1.514688	0.815047	0.500023
O151	O	0.113135	0.097776	0.150241
O152	O	0.613135	0.597776	0.650241
H153	H	0.051595	0.096914	0.138104
H154	H	0.551595	0.596914	0.638104
O155	O	0.786748	0.209050	0.796777
O156	O	1.286748	0.709050	1.296777
H157	H	0.750885	0.244881	0.753753
H158	H	1.250885	0.744881	1.253753
H159	H	0.800310	0.195394	0.214339
H160	H	1.300310	0.695394	0.714339
H161	H	0.987422	0.008417	0.365699
H162	H	1.487422	0.508417	0.865699
H163	H	0.987447	0.008431	0.634304
H164	H	1.487447	0.508431	1.134304
O165	O	0.748665	0.504325	0.000040
O166	O	1.248665	1.004325	0.500040
H167	H	0.715348	0.493555	-0.053986
H168	H	1.215348	0.993555	0.446014
H169	H	0.520938	0.103946	-0.131098
H170	H	1.020938	0.603946	0.368902
H171	H	0.664158	0.106244	-0.131104
H172	H	1.164158	0.606244	0.368896
H173	H	0.764435	0.348264	0.000047
H174	H	1.264435	0.848264	0.500047
H175	H	0.773085	0.888789	0.000009
H176	H	1.273085	1.388789	0.500009
