data_functionalizedCrystal
_audit_creation_method	'MofGen! by Chris Wilmer'
_symmetry_space_group_name_H-M	'P1'
_symmetry_Int_Tables_number	1
_symmetry_cell_setting	triclinic
loop_
_symmetry_equiv_pos_as_xyz
  x,y,z
_cell_length_a	8.559649
_cell_length_b	27.732048
_cell_length_c	7.088929
_cell_angle_alpha	83.823277
_cell_angle_beta	95.325015
_cell_angle_gamma	76.210660
loop_
_atom_site_label
_atom_site_type_symbol
_atom_site_fract_x
_atom_site_fract_y
_atom_site_fract_z
O1	O	2.103996	-0.010831	-0.158953
O2	O	1.638173	0.014155	-0.158972
O3	O	1.885556	-0.069240	-0.158925
O4	O	1.856614	0.072564	-0.158999
O5	O	1.918617	-0.080408	0.159056
O6	O	1.671234	0.002988	0.159009
O7	O	2.137057	-0.021999	0.159029
Cu8	Cu	1.907164	-0.010525	0.188053
Cu9	Cu	1.868066	0.002682	-0.187997
O10	O	1.889674	0.061397	0.158982
C11	C	1.595127	0.010465	0.000017
C12	C	1.417607	0.016101	0.000011
C13	C	1.901480	-0.092810	0.000071
C14	C	1.899652	-0.146402	0.000086
C15	C	2.034313	-0.489909	-0.000006
C16	C	2.027524	-0.691331	-0.000033
O17	O	2.150662	-0.726877	-0.000112
N18	N	1.880839	-0.705340	-0.000038
C19	C	1.735839	-0.668990	-0.000048
O20	O	1.610917	-0.685527	-0.000072
C21	C	1.742628	-0.467569	-0.000034
C22	C	1.889325	-0.453563	-0.000011
C23	C	2.180997	-0.475902	0.000015
C24	C	2.182694	-0.425550	0.000032
C25	C	2.037706	-0.389204	0.000028
C26	C	1.891021	-0.403211	0.000006
C27	C	1.597629	-0.431219	-0.000058
C28	C	1.599338	-0.380861	-0.000060
C29	C	1.746035	-0.366856	-0.000036
C30	C	1.747730	-0.316513	0.000019
N31	N	1.894415	-0.302503	0.000023
C32	C	2.039403	-0.338849	0.000028
C33	C	1.732286	-0.774740	-0.000051
C34	C	1.730588	-0.825096	-0.000051
C35	C	2.022274	-0.847433	-0.000040
C36	C	2.023971	-0.797077	-0.000026
C37	C	1.878971	-0.760731	-0.000047
C38	C	2.042956	-0.233105	0.000066
C39	C	2.044640	-0.182747	0.000091
C40	C	1.752955	-0.160414	0.000070
C41	C	1.751270	-0.210768	0.000055
C42	C	1.896283	-0.247112	0.000046
O43	O	1.624656	-0.280940	0.000076
O44	O	2.164303	-0.322300	0.000009
C45	C	2.032616	-0.540261	-0.000023
C46	C	1.885931	-0.554268	-0.000045
C47	C	1.740943	-0.517922	-0.000049
C48	C	1.884234	-0.604623	-0.000045
C49	C	2.029222	-0.640968	-0.000041
C50	C	2.175907	-0.626959	-0.000036
C51	C	2.177604	-0.576607	-0.000019
C52	C	1.594258	-0.531932	-0.000054
C53	C	1.592574	-0.582285	-0.000069
C54	C	1.737562	-0.618630	-0.000064
C55	C	2.180103	-0.018308	0.000036
C56	C	2.357622	-0.023944	0.000029
C57	C	1.873750	0.084967	-0.000018
C58	C	1.875576	0.138559	-0.000046
N59	N	1.934676	-0.019815	0.452546
N60	N	1.840568	0.011967	-0.452490
H61	H	2.161038	-0.262692	0.000051
H62	H	2.299070	-0.505491	0.000012
O63	O	1.588013	-0.838661	-0.000393
C64	C	1.482578	-0.813759	-0.165061
H65	H	1.556419	-0.802409	-0.280157
H66	H	1.409548	-0.839860	-0.220350
H67	H	1.396510	-0.778871	-0.127833
O68	O	2.051255	-0.059067	0.549879
C69	C	2.204386	-0.055429	0.501031
H70	H	2.198692	-0.014813	0.445863
H71	H	2.298384	-0.068586	0.632745
H72	H	2.239911	-0.079947	0.384989
H73	H	1.473108	-0.593682	-0.000071
O74	O	1.317077	0.062192	-0.000102
C75	C	1.408495	0.098290	-0.000065
H76	H	1.527077	0.083544	-0.060249
H77	H	1.336495	0.134369	-0.092404
H78	H	1.435835	0.106147	0.152481
O79	O	1.458596	-0.069959	0.000138
C80	C	1.619303	-0.065531	0.000087
H81	H	1.630862	-0.029868	0.060269
H82	H	1.705271	-0.099366	0.092421
H83	H	1.651729	-0.063781	-0.152463
O84	O	2.187281	-0.169226	0.000021
C85	C	2.314885	-0.212108	0.000062
H86	H	2.264652	-0.242610	-0.060150
H87	H	2.407778	-0.202127	-0.092250
H88	H	2.375410	-0.226265	0.152613
H89	H	2.302149	-0.414152	0.000044
H90	H	2.140329	-0.877034	-0.000035
O91	O	1.591556	-0.739400	0.000196
C92	C	1.600907	-0.715401	0.164905
H93	H	1.733491	-0.719480	0.219811
H94	H	1.536507	-0.673963	0.127866
H95	H	1.540287	-0.733354	0.280223
O96	O	2.166341	-0.783403	-0.000275
C97	C	2.158950	-0.749167	-0.164990
H98	H	2.026875	-0.729992	-0.219901
H99	H	2.225730	-0.719789	-0.127956
H100	H	2.218269	-0.770035	-0.280302
H101	H	1.478171	-0.442612	-0.000089
O102	O	1.458351	-0.345591	-0.000331
C103	C	1.352117	-0.345302	-0.165055
H104	H	1.386656	-0.383109	-0.219964
H105	H	1.222489	-0.338112	-0.128034
H106	H	1.361300	-0.314454	-0.280364
H107	H	1.631824	-0.222173	0.000089
O108	O	1.611990	-0.125139	-0.000200
C109	C	1.505759	-0.124847	-0.164930
H110	H	1.540274	-0.162656	-0.219824
H111	H	1.376126	-0.117645	-0.127923
H112	H	1.514973	-0.094005	-0.280245
H113	H	2.297060	-0.565209	-0.000000
H114	H	2.293963	-0.656561	-0.000024
H115	H	1.476188	-0.502342	-0.000062
H116	H	1.743036	0.044902	0.465846
