data_functionalizedCrystal
_audit_creation_method	'MofGen! by Chris Wilmer'
_symmetry_space_group_name_H-M	'P1'
_symmetry_Int_Tables_number	1
_symmetry_cell_setting	triclinic
loop_
_symmetry_equiv_pos_as_xyz
  x,y,z
_cell_length_a	25.639242
_cell_length_b	18.050589
_cell_length_c	18.050591
_cell_angle_alpha	89.999396
_cell_angle_beta	89.988976
_cell_angle_gamma	90.023749
loop_
_atom_site_label
_atom_site_type_symbol
_atom_site_fract_x
_atom_site_fract_y
_atom_site_fract_z
Zn1	Zn	-0.799206	0.295924	0.420108
Zn2	Zn	-0.799162	0.420069	0.295928
Zn3	Zn	-0.711799	0.295888	0.295914
Zn4	Zn	-0.711743	0.420067	0.420057
O5	O	-0.755477	0.357987	0.358002
O6	O	-0.872365	0.312408	0.403663
O7	O	-0.787578	0.403582	0.192001
O8	O	-0.723435	0.191968	0.312404
O9	O	-0.872333	0.403617	0.312428
O10	O	-0.787653	0.191995	0.403649
O11	O	-0.723393	0.312347	0.191991
O12	O	-0.638626	0.312345	0.312354
O13	O	-0.723340	0.403614	0.523989
O14	O	-0.638585	0.403579	0.403562
O15	O	-0.787598	0.312406	0.524026
O16	O	-0.787524	0.523994	0.312378
O17	O	-0.723298	0.523992	0.403576
C18	C	-0.619635	0.357958	0.357951
C19	C	-0.561521	0.357963	0.357947
C20	C	-0.755414	0.550939	0.357989
C21	C	-0.755435	0.633485	0.358009
C22	C	-0.891850	0.358017	0.358053
C23	C	-0.949964	0.358030	0.358074
C24	C	-0.201145	0.405572	0.405449
C25	C	-0.146541	0.405577	0.405460
O26	O	-0.118293	0.446019	0.445805
N27	N	-0.119238	0.358008	0.358050
C28	C	-0.146543	0.310426	0.310630
O29	O	-0.118306	0.269965	0.270306
C30	C	-0.201146	0.310418	0.310623
C31	C	-0.228446	0.357995	0.358031
C32	C	-0.228445	0.453145	0.452853
C33	C	-0.283046	0.453141	0.452840
C34	C	-0.310346	0.405565	0.405423
C35	C	-0.283046	0.357992	0.358018
C36	C	-0.228450	0.262833	0.263208
C37	C	-0.283057	0.262829	0.263205
C38	C	-0.310356	0.310406	0.310613
C39	C	-0.364948	0.310411	0.310588
N40	N	-0.392250	0.357980	0.357998
C41	C	-0.364950	0.405557	0.405415
C42	C	-0.031872	0.310445	0.310651
C43	C	0.022730	0.310456	0.310654
C44	C	0.022728	0.405606	0.405485
C45	C	-0.031875	0.405598	0.405477
C46	C	-0.059175	0.358014	0.358061
C47	C	-0.479615	0.405546	0.405384
C48	C	-0.534220	0.405540	0.405365
C49	C	-0.534213	0.310388	0.310537
C50	C	-0.479613	0.310396	0.310553
C51	C	-0.452315	0.357977	0.357983
O52	O	-0.393230	0.269987	0.270266
O53	O	-0.393193	0.446004	0.445740
C54	C	-0.755468	0.358014	0.551707
C55	C	-0.755464	0.358025	0.634253
C56	C	-0.755555	0.164282	0.358030
C57	C	-0.755588	0.081736	0.358043
C58	C	-0.720543	0.832962	0.407585
C59	C	-0.707812	0.882374	0.339815
C60	C	-0.755486	0.784616	0.358019
C61	C	-0.768243	0.882285	0.425796
C62	C	-0.755535	0.930601	0.358034
C63	C	-0.742731	0.832940	0.290213
C64	C	-0.803183	0.832848	0.376240
C65	C	-0.790471	0.882237	0.308423
C66	C	-0.755457	0.700517	0.358011
C67	C	-0.755564	1.014697	0.358034
C68	C	-0.720516	0.407617	0.833683
C69	C	-0.768209	0.425791	0.883086
C70	C	-0.755466	0.358015	0.785383
C71	C	-0.707776	0.339866	0.883062
C72	C	-0.755464	0.358006	0.931369
C73	C	-0.803185	0.376224	0.833699
C74	C	-0.742719	0.290267	0.833671
C75	C	-0.790445	0.308415	0.883051
C76	C	-0.755466	0.358022	0.701285
C77	C	-0.755469	0.358000	1.015465
C78	C	-0.755478	0.357984	1.165050
C79	C	-0.755467	0.357994	1.082504
H80	H	-0.457395	0.444290	0.444008
H81	H	-0.690997	0.449600	0.812008
H82	H	-0.667499	0.904145	0.324417
H83	H	-0.690949	0.811325	0.449442
O84	O	-0.659650	0.321679	0.908969
C85	C	-0.640271	0.380011	0.953035
H86	H	-0.660494	0.433897	0.936962
H87	H	-0.596466	0.385796	0.943856
H88	H	-0.648183	0.367509	1.013918
H89	H	-0.779013	0.903960	0.483109
H90	H	-0.820042	0.903737	0.266465
O91	O	-0.560658	0.451781	0.451491
C92	C	-0.524848	0.493783	0.493333
H93	H	-0.485934	0.463369	0.495962
H94	H	-0.540634	0.501803	0.551830
H95	H	-0.519018	0.550141	0.466043
H96	H	-0.731914	0.811355	0.232884
O97	O	-0.851316	0.394721	0.808036
C98	C	-0.864746	0.465939	0.833812
H99	H	-0.841422	0.479038	0.885955
H100	H	-0.908199	0.467667	0.847101
H101	H	-0.855480	0.508698	0.789223
O102	O	-0.851240	0.806747	0.394599
C103	C	-0.850648	0.728647	0.393681
H104	H	-0.817606	0.708558	0.356504
H105	H	-0.889443	0.707236	0.371451
H106	H	-0.844416	0.706995	0.452345
H107	H	-0.778993	0.483081	0.904792
H108	H	-0.206223	0.491888	0.491471
O109	O	-0.825814	0.258452	0.908720
C110	C	-0.876007	0.277848	0.883416
H111	H	-0.876976	0.339464	0.869630
H112	H	-0.905900	0.265388	0.928491
H113	H	-0.885731	0.244377	0.831668
H114	H	-0.206232	0.224092	0.224601
O115	O	-0.309480	0.499377	0.498968
C116	C	-0.273665	0.541376	0.540805
H117	H	-0.234752	0.510960	0.543425
H118	H	-0.289446	0.549393	0.599306
H119	H	-0.267838	0.597735	0.513517
O120	O	-0.058369	0.451730	0.451640
C121	C	-0.045029	0.435637	0.525683
H122	H	-0.030034	0.376316	0.529533
H123	H	-0.080941	0.442093	0.562364
H124	H	-0.013326	0.475488	0.545028
O125	O	0.049335	0.451749	0.451529
C126	C	0.103382	0.441559	0.441354
H127	H	0.110825	0.384206	0.417124
H128	H	0.124126	0.446684	0.496975
H129	H	0.118898	0.485545	0.401735
O130	O	0.049184	0.264281	0.264487
C131	C	0.035863	0.280408	0.190443
H132	H	-0.003772	0.308961	0.188862
H133	H	0.033977	0.226757	0.157230
H134	H	0.066611	0.318543	0.165365
O135	O	-0.058447	0.264330	0.264541
C136	C	-0.090000	0.306527	0.216484
H137	H	-0.098179	0.362848	0.242583
H138	H	-0.128400	0.276252	0.206568
H139	H	-0.068939	0.314604	0.161442
O140	O	-0.309552	0.216687	0.217033
C141	C	-0.296175	0.232782	0.142993
H142	H	-0.281149	0.292106	0.139147
H143	H	-0.332076	0.226320	0.106303
H144	H	-0.264485	0.192936	0.123657
O145	O	-0.453171	0.264115	0.264474
C146	C	-0.488980	0.222140	0.222603
H147	H	-0.527912	0.219622	0.253015
H148	H	-0.473220	0.163613	0.214784
H149	H	-0.494763	0.249241	0.166152
O150	O	-0.560798	0.264277	0.264443
C151	C	-0.592354	0.306477	0.216389
H152	H	-0.600518	0.362805	0.242481
H153	H	-0.630760	0.276212	0.206493
H154	H	-0.571301	0.314536	0.161338
O155	O	-0.729870	0.221978	0.807624
C156	C	-0.730511	0.222792	0.729523
H157	H	-0.756630	0.269755	0.709400
H158	H	-0.746222	0.167702	0.708157
H159	H	-0.689199	0.231577	0.707858
