data_functionalizedCrystal
_audit_creation_method	'MofGen! by Chris Wilmer'
_symmetry_space_group_name_H-M	'P1'
_symmetry_Int_Tables_number	1
_symmetry_cell_setting	triclinic
loop_
_symmetry_equiv_pos_as_xyz
  x,y,z
_cell_length_a	16.120530
_cell_length_b	17.077402
_cell_length_c	17.077396
_cell_angle_alpha	89.970216
_cell_angle_beta	87.083390
_cell_angle_gamma	87.118337
loop_
_atom_site_label
_atom_site_type_symbol
_atom_site_fract_x
_atom_site_fract_y
_atom_site_fract_z
Zn1	Zn	-1.274550	0.373441	0.504614
Zn2	Zn	-1.274451	0.504712	0.373340
Zn3	Zn	-1.135133	0.366803	0.366714
Zn4	Zn	-1.135099	0.498002	0.497919
O5	O	-1.204808	0.435740	0.435647
O6	O	-1.391202	0.396441	0.492775
O7	O	-1.255943	0.486447	0.262613
O8	O	-1.153682	0.257840	0.385035
O9	O	-1.391130	0.492884	0.396329
O10	O	-1.256111	0.262717	0.486350
O11	O	-1.153587	0.385127	0.257744
O12	O	-1.018463	0.378621	0.378543
O13	O	-1.153624	0.481449	0.608655
O14	O	-1.018438	0.475013	0.474939
O15	O	-1.256078	0.389935	0.613574
O16	O	-1.255910	0.613666	0.389837
O17	O	-1.153529	0.608737	0.481364
C18	C	-0.988200	0.425369	0.425296
C19	C	-0.895534	0.420951	0.420886
C20	C	-1.204728	0.639684	0.435611
C21	C	-1.204769	0.726935	0.435626
C22	C	-1.422262	0.446151	0.446038
C23	C	-1.514928	0.450588	0.450467
C24	C	-0.725872	0.412868	0.412842
C25	C	-0.684584	0.458669	0.458508
C26	C	-0.590179	0.454172	0.454033
C27	C	-0.820286	0.417364	0.417317
C28	C	-1.204859	0.435684	0.640393
C29	C	-1.204880	0.435661	0.727644
C30	C	-1.204912	0.231000	0.435700
C31	C	-1.204956	0.143753	0.435723
C32	C	-1.258134	0.770469	0.388025
C33	C	-1.258175	0.852451	0.388047
C34	C	-1.204846	0.890898	0.435667
C35	C	-1.151479	0.847359	0.483274
C36	C	-1.151443	0.765379	0.483255
C37	C	-1.151557	1.018233	0.483307
C38	C	-1.151591	1.100219	0.483325
C39	C	-1.258288	1.105305	0.388098
C40	C	-1.258252	1.023325	0.388080
C41	C	-1.204884	0.979791	0.435686
C42	C	-1.204806	0.435740	0.231699
C43	C	-1.204946	0.435551	0.144456
C44	C	-1.258230	0.388005	0.771197
C45	C	-1.258240	0.387979	0.853178
C46	C	-1.204904	0.435614	0.891605
C47	C	-1.151548	0.483272	0.848046
C48	C	-1.151534	0.483292	0.766066
C49	C	-1.151582	0.483226	1.018918
C50	C	-1.151596	0.483206	1.100903
C51	C	-1.258287	0.387913	1.106030
C52	C	-1.258273	0.387934	1.024050
C53	C	-1.204919	0.435593	0.980497
H54	H	-0.720138	0.501259	0.500966
H55	H	-1.301665	0.349218	0.739916
H56	H	-1.108163	0.521993	1.132188
H57	H	-1.108118	0.522054	0.879340
O58	O	-1.093989	0.534693	0.719092
H59	H	-1.102932	0.526698	0.655630
O60	O	-1.093997	0.971275	0.534653
H61	H	-1.051594	0.931952	0.497449
H62	H	-1.301684	0.349175	0.888636
H63	H	-1.301556	0.739170	0.349243
H64	H	-0.690321	0.370281	0.370388
O65	O	-1.315832	0.336508	1.153004
H66	H	-1.352926	0.303397	1.112511
O67	O	-1.315727	0.899408	0.336700
H68	H	-1.352794	0.858900	0.303576
O69	O	-1.094084	1.141693	0.534694
H70	H	-1.056978	1.097651	0.567805
O71	O	-1.315771	0.981851	0.336723
H72	H	-1.352895	1.025894	0.303629
O73	O	-1.315860	1.152253	0.336757
H74	H	-1.306937	1.215718	0.344777
O75	O	-1.093952	0.888829	0.534626
H76	H	-1.131252	0.927915	0.576377
H77	H	-1.107990	0.729934	0.522019
H78	H	-1.108122	0.522022	0.983458
O79	O	-1.315802	0.336562	0.982599
H80	H	-1.352901	0.303414	1.026655
