data_functionalizedCrystal
_audit_creation_method	'MofGen! by Chris Wilmer'
_symmetry_space_group_name_H-M	'P1'
_symmetry_Int_Tables_number	1
_symmetry_cell_setting	triclinic
loop_
_symmetry_equiv_pos_as_xyz
  x,y,z
_cell_length_a	19.188930
_cell_length_b	16.109301
_cell_length_c	14.586319
_cell_angle_alpha	90.005214
_cell_angle_beta	90.017382
_cell_angle_gamma	83.303130
loop_
_atom_site_label
_atom_site_type_symbol
_atom_site_fract_x
_atom_site_fract_y
_atom_site_fract_z
O1	O	-0.926386	-0.103796	-0.076538
O2	O	-0.723108	-0.117769	-0.076476
O3	O	-0.830331	0.010267	-0.076499
O4	O	-0.819163	-0.231832	-0.076514
O5	O	-0.830324	0.010268	0.075982
O6	O	-0.723100	-0.117767	0.076005
O7	O	-0.926379	-0.103795	0.075943
Cu8	Cu	-0.824739	-0.110781	0.089897
Cu9	Cu	-0.824748	-0.110783	-0.090429
O10	O	-0.819155	-0.231830	0.075966
C11	C	-0.697092	-0.117316	-0.000227
C12	C	-0.619584	-0.115958	-0.000203
C13	C	-0.952395	-0.104248	-0.000308
C14	C	-1.029903	-0.105606	-0.000338
C15	C	-0.574836	-0.191085	-0.000222
C16	C	-0.502009	-0.189809	-0.000232
C17	C	-0.473934	-0.113401	-0.000241
C18	C	-0.518692	-0.038264	-0.000217
C19	C	-0.591517	-0.039542	-0.000198
N20	N	-0.365820	-0.054998	-0.052170
N21	N	-0.296638	-0.053788	-0.052191
C22	C	-0.254516	-0.109545	-0.000297
N23	N	-0.284188	-0.166569	0.051606
N24	N	-0.353375	-0.167781	0.051622
C25	C	-0.394968	-0.112007	-0.000262
C26	C	-0.130800	-0.183294	-0.000326
C27	C	-0.057973	-0.182015	-0.000330
C28	C	-0.074657	-0.030468	-0.000324
C29	C	-0.147483	-0.031749	-0.000311
C30	C	-0.175550	-0.108165	-0.000316
C31	C	-0.829875	0.041241	-0.000258
C32	C	-0.828519	0.133532	-0.000256
C33	C	-0.819612	-0.262805	-0.000277
C34	C	-0.820968	-0.355096	-0.000284
N35	N	-0.824738	-0.110779	0.216728
C36	C	-0.888990	0.356005	-0.000290
C37	C	-0.887710	0.442721	-0.000297
C38	C	-0.760493	0.422425	-0.000254
C39	C	-0.761773	0.335710	-0.000253
C40	C	-0.826024	0.302503	-0.000267
C41	C	-0.823463	0.475933	-0.000274
C42	C	-0.822075	0.569955	-0.000282
C43	C	-0.827412	0.208475	-0.000261
N44	N	-0.824754	-0.110778	-0.217261
C45	C	-0.872232	-0.054103	0.451724
C46	C	-0.872234	-0.054101	0.547706
C47	C	-0.777255	-0.167457	0.547736
C48	C	-0.777250	-0.167454	0.451757
C49	C	-0.824743	-0.110778	0.403753
C50	C	-0.824750	-0.110779	0.595714
C51	C	-0.824751	-0.110777	0.699781
C52	C	-0.824740	-0.110779	0.299679
H53	H	-0.597683	-0.253308	-0.000228
Br54	Br	-0.936685	0.022815	0.386580
Br55	Br	-0.973167	0.515328	-0.000333
H56	H	-0.153654	-0.245516	-0.000316
H57	H	-0.183919	0.029428	-0.000300
Br58	Br	-0.676313	0.263094	-0.000235
Br59	Br	-0.936683	0.022822	0.612808
H60	H	-0.738589	-0.213602	0.586830
H61	H	-0.738575	-0.213606	0.412696
H62	H	-0.465568	-0.250988	-0.000245
H63	H	-0.495829	0.023948	-0.000237
H64	H	-0.627952	0.021638	-0.000183
Br65	Br	-0.036564	0.073231	-0.000322
H66	H	-0.708182	0.449473	-0.000242
Br67	Br	0.002760	-0.283983	-0.000348
H68	H	-0.941306	0.328970	-0.000302
