data_functionalizedCrystal
_audit_creation_method	'MofGen! by Chris Wilmer'
_symmetry_space_group_name_H-M	'P1'
_symmetry_Int_Tables_number	1
_symmetry_cell_setting	triclinic
loop_
_symmetry_equiv_pos_as_xyz
  x,y,z
_cell_length_a	29.839135
_cell_length_b	29.839131
_cell_length_c	19.805399
_cell_angle_alpha	89.969027
_cell_angle_beta	89.980825
_cell_angle_gamma	90.043950
loop_
_atom_site_label
_atom_site_type_symbol
_atom_site_fract_x
_atom_site_fract_y
_atom_site_fract_z
Zn1	Zn	0.686736	-0.178827	-0.382752
Zn2	Zn	0.686663	-0.253957	-0.269559
Zn3	Zn	0.611614	-0.178845	-0.269572
Zn4	Zn	0.611567	-0.253934	-0.382702
O5	O	0.649145	-0.216391	-0.326146
O6	O	0.749593	-0.188795	-0.367752
O7	O	0.676697	-0.244010	-0.174844
O8	O	0.621629	-0.115975	-0.284611
O9	O	0.749540	-0.243993	-0.284590
O10	O	0.676821	-0.115962	-0.367764
O11	O	0.621559	-0.188825	-0.174853
O12	O	0.548741	-0.188803	-0.284563
O13	O	0.621549	-0.243954	-0.477425
O14	O	0.548706	-0.243971	-0.367679
O15	O	0.676775	-0.188774	-0.477462
O16	O	0.676651	-0.316821	-0.284542
O17	O	0.621478	-0.316804	-0.367667
C18	C	0.532422	-0.216387	-0.326117
C19	C	0.482488	-0.216397	-0.326121
C20	C	0.172869	-0.187693	-0.369512
C21	C	-0.014804	-0.187696	-0.369532
O22	O	-0.039047	-0.163281	-0.406392
N23	N	-0.038297	-0.216391	-0.326171
C24	C	-0.014869	-0.245085	-0.282799
O25	O	-0.039158	-0.269489	-0.245914
C26	C	0.172803	-0.245080	-0.282777
C27	C	0.196294	-0.216386	-0.326145
C28	C	0.196360	-0.159001	-0.412876
C29	C	0.243276	-0.159003	-0.412874
C30	C	0.266700	-0.187695	-0.369507
C31	C	0.243209	-0.216387	-0.326143
C32	C	0.196230	-0.273771	-0.239403
C33	C	0.243151	-0.273767	-0.239400
C34	C	0.266642	-0.245073	-0.282768
C35	C	0.313549	-0.245081	-0.282773
N36	N	0.337043	-0.216386	-0.326134
C37	C	0.313618	-0.187693	-0.369501
C38	C	-0.113400	-0.245087	-0.282815
C39	C	-0.160318	-0.245089	-0.282821
C40	C	-0.160249	-0.187699	-0.369553
C41	C	-0.113330	-0.187700	-0.369549
C42	C	-0.089907	-0.216392	-0.326176
C43	C	0.412144	-0.187698	-0.369492
C44	C	0.459064	-0.187704	-0.369488
C45	C	0.458990	-0.245092	-0.282754
C46	C	0.412075	-0.245089	-0.282761
C47	C	0.388653	-0.216388	-0.326132
O48	O	0.337822	-0.269480	-0.245927
O49	O	0.337915	-0.163286	-0.406370
C50	C	0.125954	-0.187692	-0.369515
C51	C	0.102463	-0.216383	-0.326151
C52	C	0.125887	-0.245076	-0.282784
C53	C	0.055545	-0.216386	-0.326157
C54	C	0.032121	-0.187693	-0.369524
C55	C	0.055614	-0.158998	-0.412884
C56	C	0.102530	-0.158999	-0.412882
C57	C	0.102394	-0.273772	-0.239423
C58	C	0.055478	-0.273768	-0.239430
C59	C	0.032054	-0.245075	-0.282797
C60	C	0.649064	-0.333113	-0.326113
C61	C	0.649070	-0.383048	-0.326121
C62	C	0.677926	-0.692687	-0.282926
C63	C	0.677981	-0.880360	-0.282952
O64	O	0.702451	-0.904621	-0.246201
N65	N	0.649238	-0.903833	-0.326197
C66	C	0.620481	-0.880384	-0.369442
O67	O	0.596038	-0.904655	-0.406229
C68	C	0.620428	-0.692712	-0.369418
C69	C	0.649170	-0.669242	-0.326166
C70	C	0.706666	-0.669217	-0.239678
C71	C	0.706650	-0.622301	-0.239669
C72	C	0.677894	-0.598856	-0.282909
C73	C	0.649154	-0.622326	-0.326157
C74	C	0.591674	-0.669265	-0.412666
C75	C	0.591664	-0.622344	-0.412657
C76	C	0.620406	-0.598873	-0.369405
C77	C	0.620383	-0.551966	-0.369388
N78	N	0.649126	-0.528493	-0.326143
C79	C	0.677882	-0.551938	-0.282904
C80	C	0.620510	-0.978915	-0.369450
C81	C	0.620523	-1.025833	-0.369455
C82	C	0.678024	-1.025805	-0.282967
C83	C	0.678009	-0.978887	-0.282958
C84	C	0.649253	-0.955442	-0.326205
C85	C	0.677846	-0.453412	-0.282888
C86	C	0.677826	-0.406493	-0.282881
C87	C	0.620327	-0.406524	-0.369372
C88	C	0.620345	-0.453440	-0.369377
C89	C	0.649108	-0.476883	-0.326132
O90	O	0.595929	-0.527676	-0.406126
O91	O	0.702328	-0.527659	-0.246132
C92	C	0.677942	-0.739602	-0.282935
C93	C	0.649202	-0.763073	-0.326183
C94	C	0.620446	-0.739628	-0.369423
C95	C	0.649214	-0.809991	-0.326188
C96	C	0.677970	-0.833436	-0.282949
C97	C	0.706713	-0.809963	-0.239704
C98	C	0.706698	-0.763048	-0.239695
C99	C	0.591703	-0.763100	-0.412668
C100	C	0.591721	-0.810016	-0.412672
C101	C	0.620476	-0.833461	-0.369433
C102	C	0.766323	-0.216394	-0.326176
C103	C	0.816258	-0.216396	-0.326188
C104	C	0.649165	-0.216360	-0.502689
C105	C	0.649173	-0.216346	-0.577921
C106	C	0.649239	-0.099212	-0.326195
C107	C	0.649279	-0.049278	-0.326215
C108	C	0.620471	-0.187609	-0.613269
C109	C	0.620477	-0.187600	-0.683958
C110	C	0.649188	-0.216327	-0.719297
C111	C	0.677892	-0.245067	-0.683943
C112	C	0.677883	-0.245078	-0.613256
C113	C	0.677927	-0.245025	-0.969017
C114	C	0.677935	-0.245011	-1.039709
C115	C	0.620521	-0.187548	-1.039718
C116	C	0.620512	-0.187558	-0.969031
C117	C	0.649214	-0.216300	-0.933684
C118	C	0.649207	-0.216310	-0.857036
C119	C	0.649198	-0.216315	-0.795944
C120	C	0.649151	-0.216389	-0.150290
C121	C	0.649230	-0.216276	-0.075059
H122	H	-0.094207	-0.164334	-0.404862
N123	N	0.707246	-0.274371	-0.932898
N124	N	0.691420	-0.303004	-0.893429
H125	H	0.712129	-0.323727	-0.867914
H126	H	0.036356	-0.297139	-0.204116
H127	H	0.392948	-0.268458	-0.247455
N128	N	-0.184188	-0.158394	-0.413850
N129	N	-0.226078	-0.158403	-0.413843
H130	H	-0.242988	-0.137706	-0.445123
N131	N	0.562311	-0.693224	-0.456852
N132	N	0.536644	-0.672276	-0.495455
H133	H	0.515905	-0.689197	-0.526666
N134	N	0.707213	-0.274412	-0.720049
N135	N	0.707218	-0.274399	-0.783162
H136	H	0.727927	-0.295124	-0.808662
N137	N	0.031675	-0.129694	-0.457183
N138	N	-0.010216	-0.129702	-0.457174
H139	H	-0.027126	-0.109007	-0.488457
N140	N	-0.184303	-0.274409	-0.238528
N141	N	-0.163378	-0.300024	-0.199813
H142	H	-0.180316	-0.320732	-0.168527
N143	N	0.562295	-0.598389	-0.456833
N144	N	0.578076	-0.572173	-0.499982
H145	H	0.557335	-0.555255	-0.531180
H146	H	0.478071	-0.268454	-0.247447
H147	H	0.597150	-0.164146	-1.068507
H148	H	0.701268	-0.472494	-0.247676
H149	H	0.701259	-0.268475	-0.584476
N150	N	0.590977	-0.477419	-0.413540
N151	N	0.549522	-0.472229	-0.408985
H152	H	0.528783	-0.489162	-0.440178
N153	N	0.483052	-0.158391	-0.413797
N154	N	0.462128	-0.132775	-0.452512
H155	H	0.479067	-0.112073	-0.483805
N156	N	0.388230	-0.158383	-0.413804
N157	N	0.409218	-0.132773	-0.452521
H158	H	0.392329	-0.112072	-0.483821
H159	H	0.701316	-0.268406	-1.068480
H160	H	0.596913	-0.387428	-0.404575
N161	N	0.267261	-0.129690	-0.457179
N162	N	0.246333	-0.104076	-0.495893
H163	H	0.263269	-0.083372	-0.527187
N164	N	0.591185	-0.158209	-0.932945
N165	N	0.565559	-0.132553	-0.964515
H166	H	0.544844	-0.111825	-0.939030
N167	N	0.591153	-1.049797	-0.413630
N168	N	0.565482	-1.028853	-0.452231
H169	H	0.544740	-1.045776	-0.483433
H170	H	0.121652	-0.135633	-0.448196
H171	H	0.730102	-0.743941	-0.204475
N172	N	0.126324	-0.303078	-0.195124
N173	N	0.152506	-0.287240	-0.152031
H174	H	0.169405	-0.307941	-0.120743
H175	H	0.701231	-0.387385	-0.247657
H176	H	0.597093	-0.959830	-0.404667
H177	H	0.177293	-0.135633	-0.448191
H178	H	0.730126	-0.829060	-0.204495
N179	N	0.736013	-0.598338	-0.195484
N180	N	0.761684	-0.619284	-0.156885
H181	H	0.782425	-0.602363	-0.125678
H182	H	0.730085	-0.688301	-0.204467
H183	H	-0.094333	-0.268453	-0.247493
N184	N	0.707369	-0.954921	-0.238772
N185	N	0.733038	-0.975866	-0.200167
H186	H	0.753776	-0.958943	-0.168958
H187	H	0.701438	-1.044902	-0.247759
H188	H	0.568312	-0.829121	-0.447893
H189	H	0.177111	-0.297136	-0.204087
N190	N	0.562326	-0.739163	-0.456845
N191	N	0.536668	-0.760131	-0.495451
H192	H	0.515917	-0.743227	-0.526653
H193	H	0.262220	-0.297131	-0.204078
H194	H	0.597093	-0.164214	-0.584501
N195	N	0.591152	-0.158246	-0.720054
N196	N	0.565520	-0.132599	-0.688494
H197	H	0.544808	-0.111866	-0.713987
