data_functionalizedCrystal
_audit_creation_method	'MofGen! by Chris Wilmer'
_symmetry_space_group_name_H-M	'P1'
_symmetry_Int_Tables_number	1
_symmetry_cell_setting	triclinic
loop_
_symmetry_equiv_pos_as_xyz
  x,y,z
_cell_length_a	6.394989
_cell_length_b	8.559649
_cell_length_c	7.681481
_cell_angle_alpha	85.086760
_cell_angle_beta	95.906187
_cell_angle_gamma	78.138188
loop_
_atom_site_label
_atom_site_type_symbol
_atom_site_fract_x
_atom_site_fract_y
_atom_site_fract_z
O1	O	0.048509	-2.104046	-0.146402
O2	O	-0.059017	-1.641007	-0.146408
O3	O	0.299864	-1.879099	-0.146406
O4	O	-0.310373	-1.865954	-0.146404
O5	O	0.344125	-1.908402	0.146452
O6	O	-0.014756	-1.670310	0.146450
O7	O	0.092770	-2.133349	0.146456
Zn8	Zn	0.046035	-1.906482	0.192951
Zn9	Zn	-0.012282	-1.867874	-0.192902
O10	O	-0.266111	-1.895257	0.146454
C11	C	-0.045035	-1.596293	0.000021
C12	C	-0.069291	-1.419401	0.000018
C13	C	0.078787	-2.178063	0.000024
C14	C	0.103041	-2.354954	0.000015
N15	N	0.085837	-1.932843	0.456285
C16	C	0.399398	-1.891151	0.000016
C17	C	0.634359	-1.883208	0.000015
N18	N	-0.052066	-1.841525	-0.456237
H19	H	-0.235400	-1.339239	0.000009
H20	H	0.226592	-2.026079	0.531491
O21	O	-0.219908	-1.730108	0.454258
C22	C	-0.204770	-1.576175	0.499169
H23	H	-0.104437	-1.587976	0.633070
H24	H	-0.124666	-1.514420	0.395455
C25	C	-0.555207	-1.461013	0.342990
C26	C	-0.431991	-1.475506	0.507456
H27	H	-0.695366	-1.398911	0.348095
H28	H	-0.565404	-1.564719	0.312726
H29	H	-0.488429	-1.409555	0.256579
H30	H	-0.498756	-1.526980	0.593859
H31	H	-0.421811	-1.371805	0.537735
O32	O	0.301057	-1.450802	0.000092
C33	C	0.282005	-1.612002	0.000048
H34	H	0.127814	-1.627058	0.055494
H35	H	0.276292	-1.645828	-0.140451
C36	C	0.666577	-1.703563	0.046795
C37	C	0.477206	-1.722058	0.114908
H38	H	0.786989	-1.771454	0.117638
H39	H	0.679415	-1.594960	0.046818
H40	H	0.661786	-1.731750	-0.070287
H41	H	0.481987	-1.693853	0.231978
H42	H	0.464373	-1.830660	0.114907
