data_functionalizedCrystal
_audit_creation_method	'MofGen! by Chris Wilmer'
_symmetry_space_group_name_H-M	'P1'
_symmetry_Int_Tables_number	1
_symmetry_cell_setting	triclinic
loop_
_symmetry_equiv_pos_as_xyz
  x,y,z
_cell_length_a	8.597187
_cell_length_b	9.016244
_cell_length_c	8.559649
_cell_angle_alpha	90.000963
_cell_angle_beta	77.625088
_cell_angle_gamma	97.709163
loop_
_atom_site_label
_atom_site_type_symbol
_atom_site_fract_x
_atom_site_fract_y
_atom_site_fract_z
O1	O	2.053808	0.385786	0.238039
O2	O	1.594662	0.327115	0.256299
O3	O	1.864686	0.361618	0.015199
O4	O	1.783784	0.351283	0.479139
O5	O	1.864650	0.114933	0.015205
O6	O	1.594626	0.080429	0.256305
O7	O	2.053773	0.139101	0.238044
Cu8	Cu	1.824196	0.087241	0.247175
Cu9	Cu	1.824238	0.378975	0.247169
O10	O	1.783748	0.104598	0.479144
C11	C	1.536407	0.196330	0.254341
C12	C	1.362882	0.174157	0.248478
N13	N	1.824178	-0.117948	0.247178
C14	C	1.679397	-0.371480	0.375713
C15	C	1.679618	-0.199561	0.376199
C16	C	1.983255	-0.159958	0.286081
C17	C	1.982437	-0.332008	0.286992
C18	C	1.811564	-0.354104	0.079328
C19	C	1.807661	-0.182649	0.080390
C20	C	2.112027	0.269889	0.240003
C21	C	2.285552	0.292072	0.245866
C22	C	1.870799	0.239062	-0.044232
C23	C	1.889049	0.241402	-0.221327
N24	N	1.824270	0.584165	0.247153
C25	C	1.777635	0.227157	0.538576
C26	C	1.759385	0.224827	0.715671
H27	H	1.296332	0.056250	0.246245
H28	H	1.352105	0.409986	0.248118
C29	C	1.518989	-0.163148	0.344405
N30	N	1.397993	-0.135731	0.320468
C31	C	1.954600	-0.390757	-0.049961
N32	N	2.062335	-0.418374	-0.147330
H33	H	1.907859	-0.126870	-0.019956
C34	C	1.590548	0.203261	-0.174168
N35	N	1.463377	0.187020	-0.091184
C36	C	1.518200	-0.448033	0.344391
N37	N	1.396783	-0.505713	0.320805
H38	H	1.685218	-0.413929	0.499497
C39	C	1.687756	-0.142926	0.544378
N40	N	1.693894	-0.100269	0.671055
C41	C	2.057895	0.262970	-0.331496
N42	N	2.185068	0.279216	-0.414477
H43	H	2.092542	-0.359521	0.197184
C44	C	2.131240	-0.085787	0.163100
N45	N	2.242701	-0.029918	0.070470
C46	C	2.001669	-0.383711	0.452457
N47	N	2.016142	-0.422648	0.577093
H48	H	1.998365	-0.114949	0.407175
H49	H	1.699182	-0.411913	0.042552
H50	H	1.690745	-0.156847	0.050927
