data_functionalizedCrystal
_audit_creation_method	'MofGen! by Chris Wilmer'
_symmetry_space_group_name_H-M	'P1'
_symmetry_Int_Tables_number	1
_symmetry_cell_setting	triclinic
loop_
_symmetry_equiv_pos_as_xyz
  x,y,z
_cell_length_a	10.685909
_cell_length_b	10.686285
_cell_length_c	10.685986
_cell_angle_alpha	81.587410
_cell_angle_beta	98.364955
_cell_angle_gamma	81.628236
loop_
_atom_site_label
_atom_site_type_symbol
_atom_site_fract_x
_atom_site_fract_y
_atom_site_fract_z
Zn1	Zn	-1.936355	0.610877	0.517925
Zn2	Zn	-1.971750	0.842398	0.286480
Zn3	Zn	-1.740362	0.610966	0.321992
Zn4	Zn	-1.740386	0.806808	0.517928
O5	O	-1.847213	0.717762	0.411081
O6	O	-2.119901	0.656446	0.472360
O7	O	-1.955859	0.826629	0.112330
O8	O	-1.751537	0.432101	0.362844
O9	O	-2.145906	0.826543	0.302318
O10	O	-1.895533	0.432035	0.506795
O11	O	-1.785859	0.656597	0.138421
O12	O	-1.561514	0.622087	0.362847
O13	O	-1.751578	0.765886	0.696788
O14	O	-1.561532	0.765972	0.506800
O15	O	-1.895556	0.621936	0.696786
O16	O	-1.955883	1.016530	0.302321
O17	O	-1.785900	0.990383	0.472365
C18	C	-1.515149	0.690178	0.438678
C19	C	-1.373090	0.678406	0.450512
C20	C	-1.874767	1.049831	0.383515
C21	C	-1.886669	1.191898	0.371755
C22	C	-1.819622	0.689931	0.744460
C23	C	-1.807864	0.678071	0.886527
C24	C	-1.180574	0.745444	0.383370
C25	C	-1.322632	0.757213	0.371540
C26	C	-1.819584	0.384397	0.438780
C27	C	-1.807810	0.242336	0.450584
C28	C	-1.874763	0.745399	0.079001
C29	C	-1.886739	0.756919	-0.063055
H30	H	-1.307604	0.601932	0.527183
H31	H	-1.963270	0.833491	0.871418
O32	O	-1.706511	0.576621	0.973301
H33	H	-1.712873	0.582916	1.075010
O34	O	-1.706323	1.155584	0.551915
H35	H	-1.712599	1.053870	0.545575
H36	H	-1.388111	0.833692	0.294884
O37	O	-1.988184	1.278657	0.270442
H38	H	-1.981930	1.380372	0.276798
