data_functionalizedCrystal
_audit_creation_method	'MofGen! by Chris Wilmer'
_symmetry_space_group_name_H-M	'P1'
_symmetry_Int_Tables_number	1
_symmetry_cell_setting	triclinic
loop_
_symmetry_equiv_pos_as_xyz
  x,y,z
_cell_length_a	12.759401
_cell_length_b	21.295417
_cell_length_c	12.759393
_cell_angle_alpha	89.961880
_cell_angle_beta	89.981287
_cell_angle_gamma	90.032032
loop_
_atom_site_label
_atom_site_type_symbol
_atom_site_fract_x
_atom_site_fract_y
_atom_site_fract_z
Zn1	Zn	1.606128	-0.250553	-0.593965
Zn2	Zn	2.106128	0.249447	-0.093965
Zn3	Zn	1.605977	-0.355835	-0.418261
Zn4	Zn	2.105977	0.144165	0.081739
Zn5	Zn	1.430433	-0.250587	-0.418300
Zn6	Zn	1.930433	0.249413	0.081700
Zn7	Zn	1.430370	-0.355791	-0.593899
Zn8	Zn	1.930370	0.144209	-0.093899
O9	O	1.518227	-0.303191	-0.506106
O10	O	2.018227	0.196809	-0.006106
O11	O	1.753129	-0.264523	-0.570669
O12	O	2.253129	0.235477	-0.070669
O13	O	1.582655	-0.341906	-0.271245
O14	O	2.082655	0.158094	0.228755
O15	O	1.453829	-0.162493	-0.441646
O16	O	1.953829	0.337507	0.058354
O17	O	1.753018	-0.341874	-0.441580
O18	O	2.253018	0.158126	0.058420
O19	O	1.582911	-0.162468	-0.570706
O20	O	2.082911	0.337532	-0.070706
O21	O	1.453683	-0.264580	-0.271274
O22	O	1.953683	0.235420	0.228726
O23	O	1.283404	-0.264538	-0.441582
O24	O	1.783404	0.235462	0.058418
O25	O	1.453721	-0.341799	-0.740929
O26	O	1.953721	0.158201	-0.240929
O27	O	1.283357	-0.341831	-0.570594
O28	O	1.783357	0.158169	-0.070594
O29	O	1.582850	-0.264481	-0.740977
O30	O	2.082850	0.235519	-0.240977
O31	O	1.582593	-0.443919	-0.441516
O32	O	2.082593	0.056081	0.058484
O33	O	1.453575	-0.443886	-0.570556
O34	O	1.953575	0.056114	-0.070556
C35	C	1.245260	-0.303184	-0.506085
C36	C	1.745260	0.196816	-0.006085
C37	C	1.128483	-0.303196	-0.506101
C38	C	1.628483	0.196804	-0.006101
C39	C	1.518089	-0.466743	-0.506048
C40	C	2.018089	0.033257	-0.006048
C41	C	1.518127	-0.536711	-0.506058
C42	C	2.018127	-0.036711	-0.006058
C43	C	1.073624	-0.343503	-0.573172
C44	C	1.573624	0.156497	-0.073172
C45	C	0.963900	-0.343506	-0.573193
C46	C	1.463900	0.156494	-0.073193
C47	C	0.963903	-0.262891	-0.439063
C48	C	1.463903	0.237109	0.060937
C49	C	1.073626	-0.262886	-0.439048
C50	C	1.573626	0.237114	0.060952
C51	C	0.813989	-0.366093	-0.697048
C52	C	1.313989	0.133907	-0.197048
C53	C	0.759127	-0.406411	-0.764110
C54	C	1.259127	0.093589	-0.264110
C55	C	0.794696	-0.467844	-0.780044
C56	C	1.294696	0.032156	-0.280044
C57	C	0.885125	-0.488971	-0.728901
C58	C	1.385125	0.011029	-0.228901
C59	C	0.939982	-0.448657	-0.661832
C60	C	1.439982	0.051343	-0.161832
C61	C	0.904415	-0.387215	-0.645918
C62	C	1.404415	0.112785	-0.145918
C63	C	1.223539	-0.240305	-0.315192
C64	C	1.723539	0.259695	0.184808
C65	C	1.278397	-0.199993	-0.248116
C66	C	1.778397	0.300007	0.251884
C67	C	1.242831	-0.138559	-0.232171
C68	C	1.742831	0.361441	0.267829
C69	C	1.152398	-0.117434	-0.283295
C70	C	1.652398	0.382566	0.216705
C71	C	1.097539	-0.157746	-0.350371
C72	C	1.597539	0.342254	0.149629
C73	C	1.133113	-0.219179	-0.366317
C74	C	1.633113	0.280821	0.133683
C75	C	1.585366	-0.569574	-0.438936
C76	C	2.085366	-0.069574	0.061064
C77	C	1.585415	-0.635316	-0.438960
C78	C	2.085415	-0.135316	0.061040
C79	C	1.518206	-0.668194	-0.506094
C80	C	2.018206	-0.168194	-0.006094
C81	C	1.450962	-0.635323	-0.573230
C82	C	1.950962	-0.135323	-0.073230
C83	C	1.450922	-0.569582	-0.573212
C84	C	1.950922	-0.069582	-0.073212
N85	N	1.426299	-0.771460	-0.514097
N86	N	1.926299	-0.271460	-0.014097
N87	N	1.426340	-0.833912	-0.514108
N88	N	1.926340	-0.333912	-0.014108
C89	C	1.518324	-0.866268	-0.506155
C90	C	2.018324	-0.366268	-0.006155
N91	N	1.610268	-0.833814	-0.498169
N92	N	2.110268	-0.333814	0.001831
N93	N	1.610226	-0.771357	-0.498153
N94	N	2.110226	-0.271357	0.001847
C95	C	1.518243	-0.739479	-0.506122
C96	C	2.018243	-0.239479	-0.006122
C97	C	1.585622	-0.970416	-0.439054
C98	C	2.085622	-0.470416	0.060946
C99	C	1.585673	-1.036160	-0.439085
C100	C	2.085673	-0.536160	0.060915
C101	C	1.451211	-1.036166	-0.573350
C102	C	1.951211	-0.536166	-0.073350
C103	C	1.451170	-0.970423	-0.573325
C104	C	1.951170	-0.470423	-0.073325
C105	C	1.518374	-0.937553	-0.506171
C106	C	2.018374	-0.437553	-0.006171
C107	C	1.792260	-0.303200	-0.506128
C108	C	2.292260	0.196800	-0.006128
C109	C	1.909037	-0.303203	-0.506137
C110	C	2.409037	0.196797	-0.006137
C111	C	1.518295	-0.303131	-0.780140
C112	C	2.018295	0.196869	-0.280140
C113	C	1.518324	-0.303105	-0.896916
C114	C	2.018324	0.196895	-0.396916
C115	C	1.518394	-0.139001	-0.506188
C116	C	2.018394	0.360999	-0.006188
C117	C	1.518465	-0.069033	-0.506222
C118	C	2.018465	0.430967	-0.006222
C119	C	1.451110	-0.343346	-0.951755
C120	C	1.951110	0.156654	-0.451755
C121	C	1.451147	-0.343322	-1.061479
C122	C	1.951147	0.156678	-0.561479
C123	C	1.585617	-0.262812	-1.061517
C124	C	2.085617	0.237188	-0.561517
C125	C	1.585584	-0.262839	-0.951794
C126	C	2.085584	0.237161	-0.451794
C127	C	1.413576	-0.417523	-1.211397
C128	C	1.913576	0.082477	-0.711397
C129	C	1.346345	-0.457758	-1.266239
C130	C	1.846345	0.042242	-0.766239
C131	C	1.243810	-0.467428	-1.230621
C132	C	1.743810	0.032572	-0.730621
C133	C	1.208485	-0.436853	-1.140163
C134	C	1.708485	0.063147	-0.640163
C135	C	1.275710	-0.396613	-1.085327
C136	C	1.775710	0.103387	-0.585327
C137	C	1.378260	-0.386956	-1.120943
C138	C	1.878260	0.113044	-0.620943
C139	C	1.623144	-0.188638	-0.801875
C140	C	2.123144	0.311362	-0.301875
C141	C	1.690365	-0.148394	-0.747036
C142	C	2.190365	0.351606	-0.247036
C143	C	1.792901	-0.138718	-0.782652
C144	C	2.292901	0.361282	-0.282652
C145	C	1.828223	-0.169282	-0.873113
C146	C	2.328223	0.330718	-0.373113
C147	C	1.761002	-0.209526	-0.927952
C148	C	2.261002	0.290474	-0.427952
C149	C	1.658466	-0.219202	-0.892329
C150	C	2.158466	0.280798	-0.392329
C151	C	1.518220	-0.303206	-0.233139
C152	C	2.018220	0.196794	0.266861
C153	C	1.518395	-0.303055	-0.116363
C154	C	2.018395	0.196945	0.383637
H155	H	1.118286	-0.376325	-0.627773
H156	H	1.618286	0.123675	-0.127773
C157	C	0.903550	-0.218556	-0.365303
C158	C	1.403550	0.281444	0.134697
N159	N	0.858092	-0.185163	-0.309744
N160	N	1.358092	0.314837	0.190256
C161	C	1.659381	-0.671472	-0.365111
C162	C	2.159381	-0.171472	0.134889
N163	N	1.715090	-0.698703	-0.309486
N164	N	2.215090	-0.198703	0.190514
H165	H	1.396242	-0.662096	-0.627893
H166	H	1.896242	-0.162096	-0.127893
H167	H	1.911714	-0.161400	-0.902117
H168	H	2.411714	0.338600	-0.402117
C169	C	1.799862	-0.243150	-1.027459
C170	C	2.299862	0.256850	-0.527459
N171	N	1.829131	-0.268477	-1.102406
N172	N	2.329131	0.231523	-0.602406
C173	C	1.262672	-0.307886	-0.332729
C174	C	1.762672	0.192114	0.167271
N175	N	1.292147	-0.358788	-0.345933
N176	N	1.792147	0.141212	0.154067
H177	H	0.914071	-0.538998	-0.741872
H178	H	1.414071	-0.038998	-0.241872
C179	C	1.659282	-0.533420	-0.365054
C180	C	2.159282	-0.033420	0.134946
N181	N	1.714951	-0.506188	-0.309400
N182	N	2.214951	-0.006188	0.190600
H183	H	1.396413	-0.943665	-0.627977
H184	H	1.896413	-0.443665	-0.127977
H185	H	1.396493	-1.062934	-0.628017
H186	H	1.896493	-0.562934	-0.128017
C187	C	1.376964	-0.533432	-0.647068
C188	C	1.876964	-0.033432	-0.147068
N189	N	1.321261	-0.506203	-0.702702
N190	N	1.821261	-0.006203	-0.202702
H191	H	1.396336	-0.376129	-0.907076
H192	H	1.896336	0.123871	-0.407076
C193	C	1.510346	-0.199280	-0.762688
C194	C	2.010346	0.300720	-0.262688
N195	N	1.425386	-0.207292	-0.733173
N196	N	1.925386	0.292708	-0.233173
H197	H	1.640348	-0.943652	-0.384377
H198	H	2.140348	-0.443652	0.115623
C199	C	1.039452	-0.471892	-0.605582
C200	C	1.539452	0.028108	-0.105582
N201	N	1.114379	-0.489394	-0.563220
N202	N	1.614379	0.010606	-0.063220
C203	C	0.734344	-0.512191	-0.853816
C204	C	1.234344	-0.012191	-0.353816
N205	N	0.688886	-0.545590	-0.909386
N206	N	1.188886	-0.045590	-0.409386
C207	C	0.659662	-0.383167	-0.820371
C208	C	1.159662	0.116833	-0.320371
N209	N	0.584744	-0.365662	-0.862746
N210	N	1.084744	0.134338	-0.362746
C211	C	1.866842	-0.094446	-0.722325
C212	C	2.366842	0.405554	-0.222325
N213	N	1.922536	-0.061103	-0.676889
N214	N	2.422536	0.438897	-0.176889
H215	H	1.246948	-0.371717	-1.011680
H216	H	1.746948	0.128283	-0.511680
H217	H	1.497072	-0.409661	-1.240398
H218	H	1.997072	0.090339	-0.740398
C219	C	1.659645	-1.072309	-0.365241
C220	C	2.159645	-0.572309	0.134759
N221	N	1.715360	-1.099537	-0.309617
N222	N	2.215360	-0.599537	0.190383
H223	H	1.124986	-0.444723	-1.111178
H224	H	1.624986	0.055277	-0.611178
H225	H	1.023909	-0.140539	-0.392006
H226	H	1.523909	0.359461	0.107994
C227	C	1.169871	-0.511706	-1.290929
C228	C	1.669871	-0.011706	-0.790929
N229	N	1.114190	-0.545066	-1.336348
N230	N	1.614190	-0.045066	-0.836348
H231	H	1.123426	-0.067414	-0.270296
H232	H	1.623426	0.432586	0.229704
C233	C	1.385210	-0.491395	-1.365734
C234	C	1.885210	0.008605	-0.865734
N235	N	1.414479	-0.516730	-1.440673
N236	N	1.914479	-0.016730	-0.940673
H237	H	1.287502	-0.105740	-0.177544
H238	H	1.787502	0.394260	0.322456
H239	H	1.661594	-0.123503	-0.673383
H240	H	2.161594	0.376497	-0.173383
C241	C	1.377887	-0.223231	-0.191891
C242	C	1.877887	0.276769	0.308109
N243	N	1.452827	-0.240731	-0.149551
N244	N	1.952827	0.259269	0.350449
H245	H	0.785027	-0.316068	-0.684091
H246	H	1.285027	0.183932	-0.184091
C247	C	1.659583	-0.218513	-1.121893
C248	C	2.159583	0.281487	-0.621893
N249	N	1.715291	-0.185143	-1.167367
N250	N	2.215291	0.314857	-0.667367
