data_functionalizedCrystal
_audit_creation_method	'MofGen! by Chris Wilmer'
_symmetry_space_group_name_H-M	'P1'
_symmetry_Int_Tables_number	1
_symmetry_cell_setting	triclinic
loop_
_symmetry_equiv_pos_as_xyz
  x,y,z
_cell_length_a	19.805407
_cell_length_b	19.121063
_cell_length_c	19.805399
_cell_angle_alpha	87.588895
_cell_angle_beta	90.019573
_cell_angle_gamma	92.469032
loop_
_atom_site_label
_atom_site_type_symbol
_atom_site_fract_x
_atom_site_fract_y
_atom_site_fract_z
Zn1	Zn	1.023234	-0.279631	0.394203
Zn2	Zn	1.356567	0.053703	0.727536
Zn3	Zn	1.689900	0.387036	1.060869
Zn4	Zn	1.018317	-0.397083	0.285838
Zn5	Zn	1.351651	-0.063750	0.619171
Zn6	Zn	1.684984	0.269584	0.952504
Zn7	Zn	0.910048	-0.279650	0.281028
Zn8	Zn	1.243381	0.053683	0.614362
Zn9	Zn	1.576714	0.387017	0.947695
Zn10	Zn	0.905182	-0.397046	0.398983
Zn11	Zn	1.238516	-0.063712	0.732316
Zn12	Zn	1.571849	0.269621	1.065650
O13	O	0.964195	-0.338352	0.340013
O14	O	1.297529	-0.005019	0.673346
O15	O	1.630862	0.328314	1.006680
O16	O	1.117298	-0.295218	0.379840
O17	O	1.450631	0.038115	0.713174
O18	O	1.783964	0.371448	1.046507
O19	O	1.003934	-0.381529	0.190484
O20	O	1.337267	-0.048196	0.523818
O21	O	1.670601	0.285138	0.857151
O22	O	0.929156	-0.181363	0.292028
O23	O	1.262489	0.151971	0.625361
O24	O	1.595822	0.485304	0.958694
O25	O	1.113686	-0.381510	0.300225
O26	O	1.447019	-0.048177	0.633558
O27	O	1.780353	0.285156	0.966892
O28	O	1.012313	-0.181348	0.375177
O29	O	1.345646	0.151985	0.708510
O30	O	1.678980	0.485318	1.041843
O31	O	0.924388	-0.295251	0.186951
O32	O	1.257722	0.038082	0.520284
O33	O	1.591055	0.371415	0.853617
O34	O	0.814686	-0.295215	0.296663
O35	O	1.148019	0.038118	0.629996
O36	O	1.481353	0.371451	0.963330
O37	O	0.920863	-0.381447	0.493065
O38	O	1.254197	-0.048113	0.826398
O39	O	1.587530	0.285220	1.159731
O40	O	0.811111	-0.381465	0.383324
O41	O	1.144445	-0.048132	0.716657
O42	O	1.477778	0.285201	1.049990
O43	O	1.007595	-0.295182	0.489553
O44	O	1.340929	0.038151	0.822886
O45	O	1.674262	0.371484	1.156219
O46	O	0.999216	-0.495363	0.304860
O47	O	1.332550	-0.162029	0.638193
O48	O	1.665883	0.171304	0.971527
O49	O	0.916096	-0.495335	0.387987
O50	O	1.249430	-0.162002	0.721321
O51	O	1.582763	0.171331	1.054654
C52	C	0.788340	-0.338339	0.339991
C53	C	1.121673	-0.005006	0.673324
C54	C	1.455006	0.328328	1.006657
C55	C	0.713107	-0.338350	0.339998
C56	C	1.046441	-0.005017	0.673331
C57	C	1.379774	0.328317	1.006664
C58	C	0.956613	-0.520833	0.347479
C59	C	1.289947	-0.187500	0.680813
C60	C	1.623280	0.145833	1.014146
C61	C	0.953431	-0.598899	0.350696
C62	C	1.286765	-0.265566	0.684029
C63	C	1.620098	0.067767	1.017363
C64	C	0.675917	-0.383328	0.385055
C65	C	1.009250	-0.049995	0.718388
C66	C	1.342584	0.283339	1.051721
C67	C	0.605228	-0.383329	0.385064
C68	C	0.938562	-0.049996	0.718398
C69	C	1.271895	0.283337	1.051731
C70	C	0.571732	-0.338356	0.340013
C71	C	0.905065	-0.005022	0.673346
C72	C	1.238398	0.328311	1.006680
C73	C	0.608927	-0.293373	0.294954
C74	C	0.942261	0.039961	0.628287
C75	C	1.275594	0.373294	0.961621
C76	C	0.679614	-0.293368	0.294948
C77	C	1.012948	0.039965	0.628281
C78	C	1.346281	0.373298	0.961615
C79	C	0.323853	-0.293388	0.294977
C80	C	0.657187	0.039945	0.628310
C81	C	0.990520	0.373279	0.961644
C82	C	0.253161	-0.293397	0.294985
C83	C	0.586494	0.039936	0.628318
C84	C	0.919827	0.373269	0.961652
C85	C	0.249467	-0.383349	0.385093
C86	C	0.582800	-0.050016	0.718426
C87	C	0.916134	0.283318	1.051760
C88	C	0.320154	-0.383345	0.385087
C89	C	0.653488	-0.050012	0.718421
C90	C	0.986821	0.283322	1.051754
C91	C	0.357344	-0.338360	0.340031
C92	C	0.690677	-0.005026	0.673364
C93	C	1.024011	0.328307	1.006698
C94	C	0.433992	-0.338358	0.340022
C95	C	0.767326	-0.005025	0.673355
C96	C	1.100659	0.328309	1.006689
C97	C	0.495084	-0.338360	0.340018
C98	C	0.828418	-0.005027	0.673352
C99	C	1.161751	0.328306	1.006685
C100	C	0.995246	-0.635566	0.308963
C101	C	1.328580	-0.302233	0.642296
C102	C	1.661913	0.031101	0.975630
C103	C	0.992258	-0.708917	0.311992
C104	C	1.325591	-0.375584	0.645326
C105	C	1.658925	-0.042251	0.978659
C106	C	0.947451	-0.745601	0.356752
C107	C	1.280784	-0.412267	0.690085
C108	C	1.614117	-0.078934	1.023418
C109	C	0.905634	-0.708929	0.398489
C110	C	1.238968	-0.375596	0.731822
C111	C	1.572301	-0.042262	1.065156
C112	C	0.908626	-0.635579	0.395463
C113	C	1.241960	-0.302246	0.728796
C114	C	1.575293	0.031088	1.062129
C115	C	0.936252	-0.967071	0.368056
C116	C	1.269586	-0.633738	0.701389
C117	C	1.602919	-0.300404	1.034722
C118	C	0.933262	-1.040426	0.371078
C119	C	1.266595	-0.707093	0.704411
C120	C	1.599929	-0.373759	1.037744
C121	C	1.019887	-1.040409	0.284581
C122	C	1.353220	-0.707076	0.617915
C123	C	1.686554	-0.373743	0.951248
C124	C	1.022872	-0.967058	0.281556
C125	C	1.356206	-0.633725	0.614890
C126	C	1.689539	-0.300391	0.948223
C127	C	0.981058	-0.930393	0.323296
C128	C	1.314392	-0.597059	0.656629
C129	C	1.647725	-0.263726	0.989963
C130	C	0.944394	-0.820578	0.359848
C131	C	1.277727	-0.487244	0.693181
C132	C	1.611060	-0.153911	1.026514
C133	C	0.984119	-0.855417	0.320203
C134	C	1.317453	-0.522084	0.653536
C135	C	1.650786	-0.188750	0.986870
C136	C	1.140737	-0.338366	0.340036
C137	C	1.474071	-0.005033	0.673369
C138	C	1.807404	0.328300	1.006703
C139	C	1.215969	-0.338372	0.340046
C140	C	1.549302	-0.005039	0.673379
C141	C	1.882636	0.328294	1.006712
C142	C	0.964235	-0.338308	0.516554
C143	C	1.297568	-0.004975	0.849887
C144	C	1.630902	0.328359	1.183221
C145	C	0.964252	-0.338289	0.591785
C146	C	1.297585	-0.004956	0.925119
C147	C	1.630919	0.328377	1.258452
C148	C	0.971825	-0.155159	0.332532
C149	C	1.305159	0.178174	0.665866
C150	C	1.638492	0.511508	0.999199
C151	C	0.975077	-0.077093	0.329345
C152	C	1.308410	0.256241	0.662678
C153	C	1.641744	0.589574	0.996011
C154	C	0.964197	-0.338346	0.164157
C155	C	1.297530	-0.005012	0.497490
C156	C	1.630863	0.328321	0.830823
C157	C	0.964319	-0.338167	0.088918
C158	C	1.297652	-0.004833	0.422251
C159	C	1.630986	0.328500	0.755584
C160	C	1.009414	-0.293369	0.625302
C161	C	1.342748	0.039964	0.958635
C162	C	1.676081	0.373297	1.291968
C163	C	1.009422	-0.293349	0.695989
C164	C	1.342755	0.039985	1.029323
C165	C	1.676089	0.373318	1.362656
C166	C	0.964270	-0.338253	0.733159
C167	C	1.297604	-0.004919	1.066493
C168	C	1.630937	0.328414	1.399826
C169	C	0.919103	-0.383175	0.699638
C170	C	1.252436	-0.049841	1.032971
C171	C	1.585770	0.283492	1.366305
C172	C	0.919093	-0.383191	0.628952
C173	C	1.252426	-0.049858	0.962285
C174	C	1.585759	0.283476	1.295618
C175	C	0.919144	-0.383109	0.984709
C176	C	1.252477	-0.049776	1.318042
C177	C	1.585811	0.283557	1.651375
C178	C	0.919159	-0.383091	1.055400
C179	C	1.252493	-0.049758	1.388734
C180	C	1.585826	0.283576	1.722067
C181	C	1.009474	-0.293267	1.051747
C182	C	1.342807	0.040066	1.385080
C183	C	1.676140	0.373400	1.718413
C184	C	1.009463	-0.293283	0.981060
C185	C	1.342796	0.040050	1.314393
C186	C	1.676130	0.373383	1.647727
C187	C	0.964294	-0.338202	0.947545
C188	C	1.297627	-0.004869	1.280878
C189	C	1.630960	0.328464	1.614211
C190	C	0.964285	-0.338223	0.870897
C191	C	1.297618	-0.004890	1.204231
C192	C	1.630952	0.328444	1.537564
C193	C	0.964282	-0.338236	0.809806
C194	C	1.297615	-0.004903	1.143139
C195	C	1.630949	0.328431	1.476473
H196	H	0.703185	-0.419953	0.421739
H197	H	1.036518	-0.086620	0.755072
H198	H	1.369851	0.246713	1.088405
F199	F	0.719195	-0.245495	0.246994
F200	F	1.052529	0.087838	0.580327
F201	F	1.385862	0.421172	0.913660
F202	F	0.871071	-0.430916	0.949048
F203	F	1.204404	-0.097583	1.282382
F204	F	1.537737	0.235750	1.615715
H205	H	0.907910	-0.850454	0.396289
H206	H	1.241243	-0.517120	0.729623
H207	H	1.574577	-0.183787	1.062956
F208	F	0.217513	-0.245527	0.247033
F209	F	0.550846	0.087807	0.580367
F210	F	0.884179	0.421140	0.913700
F211	F	1.057475	-0.245579	0.585749
F212	F	1.390809	0.087754	0.919082
F213	F	1.724142	0.421088	1.252415
H214	H	0.581649	-0.256751	0.258275
H215	H	0.914982	0.076582	0.591609
H216	H	1.248315	0.409916	0.924942
H217	H	1.046199	-0.256772	0.723275
H218	H	1.379533	0.076561	1.056609
H219	H	1.712866	0.409895	1.389942
H220	H	0.882337	-0.419734	0.729907
H221	H	1.215671	-0.086400	1.063241
H222	H	1.549004	0.246933	1.396574
H223	H	0.874577	-0.605726	0.429447
H224	H	1.207910	-0.272392	0.762780
H225	H	1.541244	0.060941	1.096113
H226	H	0.902204	-0.937224	0.402041
H227	H	1.235538	-0.603890	0.735374
H228	H	1.568871	-0.270557	1.068707
H229	H	0.896783	-1.070292	0.407538
H230	H	1.230116	-0.736958	0.740871
H231	H	1.563449	-0.403625	1.074204
H232	H	1.026308	-0.738768	0.278008
H233	H	1.359641	-0.405435	0.611342
H234	H	1.692974	-0.072101	0.944675
F235	F	0.871023	-0.430999	0.593281
F236	F	1.204356	-0.097666	0.926615
F237	F	1.537690	0.235667	1.259948
F238	F	1.057522	-0.245493	0.941505
F239	F	1.390855	0.087840	1.274838
F240	F	1.724189	0.421173	1.608171
F241	F	0.565651	-0.431201	0.433021
F242	F	0.898984	-0.097868	0.766354
F243	F	1.232317	0.235466	1.099687
F244	F	0.363424	-0.245509	0.247025
F245	F	0.696758	0.087824	0.580359
F246	F	1.030091	0.421158	0.913692
H247	H	1.046250	-0.256689	1.079043
H248	H	1.379584	0.076644	1.412376
H249	H	1.712917	0.409977	1.745710
H250	H	1.059358	-0.937192	0.245110
H251	H	1.392691	-0.603858	0.578443
H252	H	1.726025	-0.270525	0.911776
F253	F	1.042933	-0.596531	0.261320
F254	F	1.376266	-0.263198	0.594653
F255	F	1.709599	0.070136	0.927986
F256	F	1.064388	-1.079436	0.240165
F257	F	1.397722	-0.746103	0.573498
F258	F	1.731055	-0.412770	0.906832
F259	F	0.871100	-0.430886	1.094958
F260	F	1.204433	-0.097552	1.428291
F261	F	1.537766	0.235781	1.761625
H262	H	0.347424	-0.419970	0.421771
H263	H	0.680757	-0.086636	0.755104
H264	H	1.014090	0.246697	1.088437
H265	H	0.219179	-0.419976	0.421783
H266	H	0.552512	-0.086642	0.755116
H267	H	0.885846	0.246691	1.088449
H268	H	0.869154	-0.738803	0.434936
H269	H	1.202487	-0.405469	0.768269
H270	H	1.535821	-0.072136	1.101602
F271	F	1.031808	-0.816374	0.272571
F272	F	1.365141	-0.483041	0.605905
F273	F	1.698474	-0.149708	0.939238
