data_functionalizedCrystal
_audit_creation_method	'MofGen! by Chris Wilmer'
_symmetry_space_group_name_H-M	'P1'
_symmetry_Int_Tables_number	1
_symmetry_cell_setting	triclinic
loop_
_symmetry_equiv_pos_as_xyz
  x,y,z
_cell_length_a	19.805407
_cell_length_b	16.625545
_cell_length_c	19.805399
_cell_angle_alpha	90.025578
_cell_angle_beta	90.019573
_cell_angle_gamma	90.025558
loop_
_atom_site_label
_atom_site_type_symbol
_atom_site_fract_x
_atom_site_fract_y
_atom_site_fract_z
Zn1	Zn	1.034740	-0.321020	0.382729
Zn2	Zn	1.534740	0.178980	0.882729
Zn3	Zn	1.034656	-0.455857	0.269545
Zn4	Zn	1.534656	0.044143	0.769545
Zn5	Zn	0.921554	-0.321043	0.269554
Zn6	Zn	1.421554	0.178957	0.769554
Zn7	Zn	0.921520	-0.455815	0.382692
Zn8	Zn	1.421520	0.044185	0.882692
O9	O	0.978117	-0.388434	0.326130
O10	O	1.478117	0.111566	0.826130
O11	O	1.129445	-0.338915	0.367727
O12	O	1.629445	0.161085	0.867727
O13	O	1.019633	-0.438001	0.174829
O14	O	1.519633	0.061999	0.674829
O15	O	0.936618	-0.208207	0.284586
O16	O	1.436618	0.291793	0.784586
O17	O	1.129384	-0.437980	0.284571
O18	O	1.629384	0.062020	0.784571
O19	O	1.019775	-0.208191	0.367736
O20	O	1.519775	0.291809	0.867736
O21	O	0.936537	-0.338953	0.174836
O22	O	1.436537	0.161047	0.674836
O23	O	0.826833	-0.338912	0.284550
O24	O	1.326833	0.161088	0.784550
O25	O	0.936559	-0.437907	0.477413
O26	O	1.436559	0.062093	0.977413
O27	O	0.826808	-0.437928	0.367672
O28	O	1.326808	0.062072	0.867672
O29	O	1.019741	-0.338874	0.477441
O30	O	1.519741	0.161126	0.977441
O31	O	1.019599	-0.568684	0.284535
O32	O	1.519599	-0.068684	0.784535
O33	O	0.936478	-0.568653	0.367663
O34	O	1.436478	-0.068653	0.867663
C35	C	0.802261	-0.388418	0.326108
C36	C	1.302261	0.111582	0.826108
C37	C	0.727029	-0.388431	0.326115
C38	C	1.227029	0.111569	0.826115
C39	C	0.691690	-0.440067	0.369326
C40	C	1.191690	0.059933	0.869326
C41	C	0.621001	-0.440068	0.369336
C42	C	1.121001	0.059932	0.869336
C43	C	0.585654	-0.388437	0.326130
C44	C	1.085654	0.111563	0.826130
C45	C	0.620999	-0.336796	0.282916
C46	C	1.120999	0.163204	0.782916
C47	C	0.691686	-0.336791	0.282911
C48	C	1.191686	0.163209	0.782911
C49	C	0.335925	-0.336814	0.282939
C50	C	0.835925	0.163186	0.782939
C51	C	0.265233	-0.336825	0.282946
C52	C	0.765233	0.163175	0.782946
C53	C	0.265241	-0.440091	0.369364
C54	C	0.765241	0.059909	0.869364
C55	C	0.335928	-0.440086	0.369358
C56	C	0.835928	0.059914	0.869358
C57	C	0.371266	-0.388442	0.326147
C58	C	0.871266	0.111558	0.826147
C59	C	0.447915	-0.388440	0.326138
C60	C	0.947915	0.111560	0.826138
C61	C	0.509007	-0.388443	0.326135
C62	C	1.009007	0.111557	0.826135
C63	C	0.978044	-0.597925	0.326108
C64	C	1.478044	-0.097925	0.826108
C65	C	0.978074	-0.687546	0.326122
C66	C	1.478074	-0.187546	0.826122
C67	C	0.978101	-0.760328	0.326135
C68	C	1.478101	-0.260328	0.826135
C69	C	0.978140	-0.851637	0.326150
C70	C	1.478140	-0.351637	0.826150
C71	C	0.978175	-0.924413	0.326159
C72	C	1.478175	-0.424413	0.826159
C73	C	0.978214	-1.015727	0.326173
C74	C	1.478214	-0.515727	0.826173
C75	C	1.154660	-0.388450	0.326152
C76	C	1.654660	0.111550	0.826152
C77	C	1.229892	-0.388457	0.326162
C78	C	1.729892	0.111543	0.826162
C79	C	0.978155	-0.388383	0.502673
C80	C	1.478155	0.111617	1.002673
C81	C	0.978172	-0.388361	0.577905
C82	C	1.478172	0.111639	1.077905
C83	C	0.978210	-0.178125	0.326166
C84	C	1.478210	0.321875	0.826166
C85	C	0.978249	-0.088504	0.326181
C86	C	1.478249	0.411496	0.826181
C87	C	0.978119	-0.388426	0.150274
C88	C	1.478119	0.111574	0.650274
C89	C	0.978234	-0.388221	0.075042
C90	C	1.478234	0.111779	0.575042
C91	C	1.021486	-0.336792	0.613264
C92	C	1.521486	0.163208	1.113264
C93	C	1.021493	-0.336769	0.683953
C94	C	1.521493	0.163231	1.183953
C95	C	0.978188	-0.388319	0.719280
C96	C	1.478188	0.111681	1.219280
C97	C	0.934870	-0.439890	0.683916
C98	C	1.434870	0.060110	1.183916
C99	C	0.934860	-0.439909	0.613228
C100	C	1.434860	0.060091	1.113228
C101	C	0.934908	-0.439815	0.968989
C102	C	1.434908	0.060185	1.468989
C103	C	0.934922	-0.439794	1.039681
C104	C	1.434922	0.060206	1.539681
C105	C	1.021541	-0.336675	1.039713
C106	C	1.521541	0.163325	1.539713
C107	C	1.021531	-0.336694	0.969026
C108	C	1.521531	0.163306	1.469026
C109	C	0.978210	-0.388262	0.933668
C110	C	1.478210	0.111738	1.433668
C111	C	0.978202	-0.388285	0.857019
C112	C	1.478202	0.111715	1.357019
C113	C	0.978199	-0.388300	0.795927
C114	C	1.478199	0.111700	1.295927
H115	H	0.592213	-0.294754	0.247740
H116	H	1.092213	0.205246	0.747740
C117	C	1.107102	-0.234852	0.620403
C118	C	1.607102	0.265148	1.120403
C119	C	1.069086	-0.280124	0.574436
C120	C	1.569086	0.219876	1.074436
H121	H	1.136485	-0.199862	0.596432
H122	H	1.636485	0.300138	1.096432
H123	H	1.132981	-0.269977	0.647970
H124	H	1.632981	0.230023	1.147970
H125	H	1.077621	-0.204004	0.647976
H126	H	1.577621	0.295996	1.147976
H127	H	1.098568	-0.310977	0.546866
H128	H	1.598568	0.189023	1.046866
H129	H	1.043206	-0.244995	0.546857
H130	H	1.543206	0.255005	1.046857
H131	H	0.720458	-0.294740	0.247727
H132	H	1.220458	0.205260	0.747727
C133	C	1.136176	-0.297404	1.061510
C134	C	1.636176	0.202596	1.561510
C135	C	1.069156	-0.279983	1.078583
C136	C	1.569156	0.220017	1.578583
H137	H	1.165570	-0.262410	1.085509
H138	H	1.665570	0.237590	1.585509
H139	H	1.142363	-0.290038	1.014362
H140	H	1.642363	0.209962	1.514362
H141	H	1.146048	-0.351579	1.073093
H142	H	1.646048	0.148421	1.573093
H143	H	1.059281	-0.225810	1.066995
H144	H	1.559281	0.274190	1.566995
H145	H	1.062965	-0.287343	1.125742
H146	H	1.562965	0.212657	1.625742
H147	H	0.899582	-0.481894	0.584440
H148	H	1.399582	0.018106	1.084440
C149	C	0.896425	-0.485655	0.792258
C150	C	1.396425	0.014345	1.292258
C151	C	0.887268	-0.496556	0.722746
C152	C	1.387268	0.003444	1.222746
H153	H	0.867041	-0.520644	0.816228
H154	H	1.367041	-0.020644	1.316228
H155	H	0.886544	-0.431482	0.803848
H156	H	1.386544	0.068518	1.303848
H157	H	0.941901	-0.497459	0.803842
H158	H	1.441901	0.002541	1.303842
H159	H	0.841793	-0.484746	0.711162
H160	H	1.341793	0.015254	1.211162
H161	H	0.897144	-0.550741	0.711152
H162	H	1.397144	-0.050741	1.211152
C163	C	1.030950	-0.228273	0.763448
C164	C	1.530950	0.271727	1.263448
C165	C	1.069102	-0.280072	0.722813
C166	C	1.569102	0.219928	1.222813
H167	H	1.060342	-0.193263	0.787433
H168	H	1.560342	0.306737	1.287433
H169	H	1.005171	-0.258968	0.794606
H170	H	1.505171	0.241032	1.294606
H171	H	1.001469	-0.197449	0.735860
H172	H	1.501469	0.302551	1.235860
H173	H	1.098579	-0.310901	0.750403
H174	H	1.598579	0.189099	1.250403
H175	H	1.094891	-0.249374	0.691652
H176	H	1.594891	0.250626	1.191652
C177	C	1.054547	-0.200168	0.947302
C178	C	1.554547	0.299832	1.447302
C179	C	1.069129	-0.280020	0.930199
C180	C	1.569129	0.219980	1.430199
H181	H	1.083929	-0.165177	0.923330
H182	H	1.583929	0.334823	1.423330
H183	H	1.060753	-0.192787	0.994456
H184	H	1.560753	0.307213	1.494456
H185	H	1.009071	-0.188381	0.935707
H186	H	1.509071	0.311619	1.435707
H187	H	1.114604	-0.291809	0.941799
H188	H	1.614604	0.208191	1.441799
H189	H	1.062929	-0.287405	0.883034
H190	H	1.562929	0.212595	1.383034
H191	H	0.899656	-0.481774	1.068443
H192	H	1.399656	0.018226	1.568443
C193	C	0.901852	-0.576346	0.947207
C194	C	1.401852	-0.076346	1.447207
C195	C	0.887283	-0.496496	0.930136
C196	C	1.387283	0.003504	1.430136
H197	H	0.872447	-0.611336	0.923218
H198	H	1.372447	-0.111336	1.423218
H199	H	0.895670	-0.583702	0.994358
H200	H	1.395670	-0.083702	1.494358
H201	H	0.947318	-0.588156	0.935613
H202	H	1.447318	-0.088156	1.435613
H203	H	0.841818	-0.484684	0.941735
H204	H	1.341818	0.015316	1.441735
H205	H	0.893458	-0.489136	0.882975
H206	H	1.393458	0.010864	1.382975
C207	C	0.684590	-0.542137	0.454755
C208	C	1.184590	-0.042137	0.954755
C209	C	0.730540	-0.496819	0.416823
C210	C	1.230540	0.003181	0.916823
H211	H	0.708574	-0.577168	0.484082
H212	H	1.208574	-0.077168	0.984082
H213	H	0.656999	-0.572936	0.425223
H214	H	1.156999	-0.072936	0.925223
H215	H	0.657039	-0.507038	0.480696
H216	H	1.157039	-0.007038	0.980696
H217	H	0.758087	-0.531918	0.390878
H218	H	1.258087	-0.031918	0.890878
H219	H	0.758142	-0.466018	0.446359
H220	H	1.258142	0.033982	0.946359
H221	H	0.364704	-0.482132	0.404538
H222	H	0.864704	0.017868	0.904538
H223	H	0.592231	-0.482116	0.404522
H224	H	1.092231	0.017884	0.904522
H225	H	0.236460	-0.482139	0.404550
H226	H	0.736460	0.017861	0.904550
C227	C	0.272322	-0.234726	0.197530
C228	C	0.772322	0.265274	0.697530
C229	C	0.226378	-0.280061	0.235456
C230	C	0.726378	0.219939	0.735456
H231	H	0.248332	-0.199683	0.168217
H232	H	0.748332	0.300317	0.668217
H233	H	0.299870	-0.269807	0.171582
H234	H	0.799870	0.230193	0.671582
H235	H	0.299916	-0.203932	0.227073
H236	H	0.799916	0.296068	0.727073
H237	H	0.198787	-0.310860	0.205913
H238	H	0.698787	0.189140	0.705913
H239	H	0.198818	-0.244976	0.261406
H240	H	0.698818	0.255024	0.761406
H241	H	0.364689	-0.294769	0.247749
H242	H	0.864689	0.205231	0.747749
