data_functionalizedCrystal
_audit_creation_method	'MofGen! by Chris Wilmer'
_symmetry_space_group_name_H-M	'P1'
_symmetry_Int_Tables_number	1
_symmetry_cell_setting	triclinic
loop_
_symmetry_equiv_pos_as_xyz
  x,y,z
_cell_length_a	19.188930
_cell_length_b	14.971486
_cell_length_c	17.666332
_cell_angle_alpha	90.007460
_cell_angle_beta	90.010342
_cell_angle_gamma	83.379455
loop_
_atom_site_label
_atom_site_type_symbol
_atom_site_fract_x
_atom_site_fract_y
_atom_site_fract_z
O1	O	0.090986	1.186470	0.062926
O2	O	0.590986	1.686470	0.562926
O3	O	0.101882	0.926013	0.062935
O4	O	0.601882	1.426013	0.562935
O5	O	-0.005197	1.063758	0.062915
O6	O	0.494803	1.563758	0.562915
O7	O	0.198066	1.048725	0.062945
O8	O	0.698066	1.548725	0.562945
O9	O	-0.005200	1.063733	-0.062981
O10	O	0.494800	1.563733	0.437019
O11	O	0.101879	0.925988	-0.062962
O12	O	0.601879	1.425988	0.437038
O13	O	0.090983	1.186446	-0.062971
O14	O	0.590983	1.686446	0.437029
Cu15	Cu	0.096431	1.056215	-0.074462
Cu16	Cu	0.596431	1.556215	0.425538
Cu17	Cu	0.096435	1.056244	0.074426
Cu18	Cu	0.596435	1.556244	0.574426
O19	O	0.198063	1.048701	-0.062951
O20	O	0.698063	1.548701	0.437049
C21	C	-0.031211	1.063259	-0.000035
C22	C	0.468789	1.563259	0.499965
C23	C	-0.108721	1.061797	-0.000042
C24	C	0.391279	1.561797	0.499958
C25	C	0.101393	0.892678	-0.000012
C26	C	0.601393	1.392678	0.499988
C27	C	0.099933	0.793389	-0.000009
C28	C	0.599933	1.293389	0.499991
C29	C	0.091472	1.219780	-0.000022
C30	C	0.591472	1.719780	0.499978
C31	C	0.092932	1.319070	-0.000020
C32	C	0.592932	1.819070	0.499980
C33	C	-0.153384	1.142622	-0.000048
C34	C	0.346616	1.642622	0.499952
C35	C	-0.226213	1.141249	-0.000036
C36	C	0.273787	1.641249	0.499964
C37	C	-0.254374	1.059047	-0.000033
C38	C	0.245626	1.559047	0.499967
C39	C	-0.209700	0.978212	-0.000022
C40	C	0.290300	1.478212	0.499978
C41	C	-0.136873	0.979587	-0.000026
C42	C	0.363127	1.479587	0.499974
N43	N	-0.362582	0.996205	-0.042875
N44	N	0.137418	1.496205	0.457125
N45	N	-0.431765	0.994904	-0.042873
N46	N	0.068235	1.494904	0.457127
C47	C	-0.473796	1.054899	-0.000017
C48	C	0.026204	1.554899	0.499983
N49	N	-0.444032	1.116257	0.042826
N50	N	0.055968	1.616257	0.542826
N51	N	-0.374843	1.117560	0.042820
N52	N	0.125157	1.617560	0.542820
C53	C	-0.333341	1.057547	-0.000027
C54	C	0.166659	1.557547	0.499973
C55	C	-0.597429	1.134240	-0.000009
C56	C	-0.097429	1.634240	0.499991
C57	C	-0.670258	1.132864	0.000008
C58	C	-0.170258	1.632864	0.500008
C59	C	-0.653744	0.969825	0.000014
C60	C	-0.153744	1.469825	0.500014
C61	C	-0.580916	0.971203	0.000005
C62	C	-0.080916	1.471203	0.500005
C63	C	-0.552763	1.053413	-0.000010
C64	C	-0.052763	1.553413	0.499990
C65	C	0.224077	1.049200	0.000001
C66	C	0.724077	1.549200	0.500001
C67	C	0.301586	1.050661	0.000012
C68	C	0.801586	1.550661	0.500012
N69	N	0.096428	1.056201	-0.179181
N70	N	0.596428	1.556201	0.320819
C71	C	0.030026	1.376627	-0.000027
C72	C	0.530026	1.876627	0.499973
C73	C	0.031402	1.469919	-0.000029
C74	C	0.531402	1.969919	0.499971
C75	C	0.095685	1.505652	-0.000020
C76	C	0.595685	2.005652	0.499980
C77	C	0.158597	1.448087	-0.000015
C78	C	0.658597	1.948087	0.499985
C79	C	0.157220	1.354797	-0.000018
C80	C	0.657220	1.854797	0.499982
C81	C	0.161462	1.642535	-0.000007
C82	C	0.661462	2.142535	0.499993
C83	C	0.162839	1.735831	-0.000003
C84	C	0.662839	2.235831	0.499997
C85	C	0.035645	1.757657	-0.000018
C86	C	0.535645	2.257657	0.499982
C87	C	0.034268	1.664367	-0.000021
C88	C	0.534268	2.164367	0.499979
C89	C	0.097179	1.606808	-0.000015
C90	C	0.597179	2.106808	0.499985
C91	C	0.138847	1.110274	-0.218780
C92	C	0.638847	1.610274	0.281220
C93	C	0.138845	1.110289	-0.298028
C94	C	0.638845	1.610289	0.201972
C95	C	0.096432	1.056213	-0.337673
C96	C	0.596432	1.556213	0.162327
C97	C	0.054004	1.002137	-0.298065
C98	C	0.554004	1.502137	0.201935
C99	C	0.054002	1.002131	-0.218819
C100	C	0.554002	1.502131	0.281181
N101	N	0.094460	0.977878	-0.462111
N102	N	0.594460	1.477878	0.037889
N103	N	0.094466	0.977886	-0.537391
N104	N	0.594466	1.477886	-0.037391
C105	C	0.096434	1.056230	-0.576437
C106	C	0.596434	1.556230	-0.076437
N107	N	0.098411	1.134566	-0.537359
N108	N	0.598411	1.634566	-0.037359
N109	N	0.098408	1.134557	-0.462072
N110	N	0.598408	1.634557	0.037928
C111	C	0.096429	1.056214	-0.423602
C112	C	0.596429	1.556214	0.076398
C113	C	0.138854	1.110323	-0.701966
C114	C	0.638854	1.610323	-0.201966
C115	C	0.138847	1.110339	-0.781215
C116	C	0.638847	1.610339	-0.281215
C117	C	0.054009	1.002179	-0.781250
C118	C	0.554009	1.502179	-0.281250
C119	C	0.054012	1.002171	-0.702003
C120	C	0.554012	1.502171	-0.202003
C121	C	0.096438	1.056242	-0.662365
C122	C	0.596438	1.556242	-0.162365
N123	N	0.096432	1.056264	0.179145
N124	N	0.596432	1.556264	0.679145
H125	H	-0.130467	1.209564	-0.000058
H126	H	0.369533	1.709564	0.499942
H127	H	-0.018077	1.635277	-0.000024
H128	H	0.481923	2.135277	0.499976
H129	H	0.019475	0.958151	-0.813529
H130	H	0.519475	1.458151	-0.313529
H131	H	-0.574506	1.201180	-0.000018
H132	H	-0.074506	1.701180	0.499982
H133	H	-0.676672	0.902894	0.000021
H134	H	-0.176672	1.402894	0.500021
H135	H	0.173390	1.154322	-0.330275
H136	H	0.673390	1.654322	0.169725
H137	H	0.173391	1.154306	-0.186512
H138	H	0.673391	1.654306	0.313488
H139	H	-0.544550	0.905387	0.000006
H140	H	-0.044550	1.405387	0.500006
H141	H	-0.022321	1.347542	-0.000030
H142	H	0.477679	1.847542	0.499970
H143	H	-0.019822	1.516780	-0.000038
H144	H	0.480178	2.016780	0.499962
H145	H	0.210937	1.477188	-0.000012
H146	H	0.710937	1.977188	0.499988
H147	H	0.208444	1.307933	-0.000015
H148	H	0.708444	1.807933	0.499985
H149	H	-0.015580	1.804526	-0.000021
H150	H	0.484420	2.304526	0.499979
H151	H	0.215184	1.764921	-0.000009
H152	H	0.715184	2.264921	0.499991
H153	H	0.212691	1.595672	-0.000008
H154	H	0.712691	2.095672	0.499992
H155	H	0.173399	1.154351	-0.669691
H156	H	0.673399	1.654351	-0.169691
H157	H	0.019458	0.958097	-0.186578
H158	H	0.519458	1.458097	0.313422
H159	H	0.173388	1.154378	-0.813455
H160	H	0.673388	1.654378	-0.313455
H161	H	-0.262585	1.207068	-0.000038
H162	H	0.237415	1.707068	0.499962
H163	H	-0.100507	0.913768	-0.000021
H164	H	0.399493	1.413768	0.499979
H165	H	0.019470	0.958109	-0.330350
H166	H	0.519470	1.458109	0.169650
H167	H	0.019473	0.958135	-0.669761
H168	H	0.519473	1.458135	-0.169761
H169	H	-0.232634	0.911283	-0.000017
H170	H	0.267366	1.411283	0.499983
H171	H	-0.706623	1.198683	0.000006
H172	H	-0.206623	1.698683	0.500006
