data_functionalizedCrystal
_audit_creation_method	'MofGen! by Chris Wilmer'
_symmetry_space_group_name_H-M	'P1'
_symmetry_Int_Tables_number	1
_symmetry_cell_setting	triclinic
loop_
_symmetry_equiv_pos_as_xyz
  x,y,z
_cell_length_a	8.497374
_cell_length_b	12.827892
_cell_length_c	12.827893
_cell_angle_alpha	90.015362
_cell_angle_beta	89.998425
_cell_angle_gamma	89.992687
loop_
_atom_site_label
_atom_site_type_symbol
_atom_site_fract_x
_atom_site_fract_y
_atom_site_fract_z
Zn1	Zn	0.891962	0.416215	-1.597487
Zn2	Zn	0.628170	0.590924	-1.597435
Zn3	Zn	0.628190	0.416197	-1.422782
Zn4	Zn	0.891902	0.590915	-1.422714
O5	O	0.760056	0.503563	-1.510105
O6	O	0.856986	0.439402	-1.743716
O7	O	0.407411	0.567742	-1.574274
O8	O	0.663214	0.269964	-1.446008
O9	O	0.663179	0.567760	-1.743678
O10	O	0.857006	0.269977	-1.574363
O11	O	0.407425	0.439372	-1.445958
O12	O	0.663156	0.439363	-1.276537
O13	O	1.112673	0.567744	-1.445891
O14	O	0.856904	0.567727	-1.276487
O15	O	1.112717	0.439393	-1.574296
O16	O	0.663121	0.737159	-1.574207
O17	O	0.856884	0.737152	-1.445840
C18	C	0.760028	0.775073	-1.510039
C19	C	0.760069	0.891226	-1.510107
C20	C	0.760026	0.503543	-1.238595
C21	C	0.760051	0.503559	-1.122442
C22	C	0.760087	0.503584	-1.782675
C23	C	0.760101	0.503593	-1.898828
C24	C	1.171537	0.503564	-1.510097
C25	C	1.350181	0.503575	-1.510099
C26	C	0.760119	0.230993	-1.510199
C27	C	0.760145	0.114839	-1.510239
C28	C	0.664296	0.942979	-1.573702
C29	C	0.664336	1.063030	-1.573774
C30	C	0.855776	0.567177	-1.070659
C31	C	0.855803	0.567195	-0.950609
H32	H	0.582336	1.107536	-1.628217
O33	O	0.858157	0.944339	-1.445324
C34	C	1.015445	0.917666	-1.468014
H35	H	1.023553	0.887518	-1.551448
H36	H	1.056670	0.854432	-1.411868
C37	C	1.110659	1.051703	-1.353466
C38	C	1.120619	1.014683	-1.455944
H39	H	1.175538	1.111545	-1.346017
H40	H	1.004692	1.069670	-1.338176
H41	H	1.145011	0.998999	-1.306689
H42	H	1.086250	1.067381	-1.502718
H43	H	1.226584	0.996726	-1.471242
H44	H	0.937714	0.621625	-1.115204
O45	O	0.953529	0.632078	-0.897331
C46	C	0.931781	0.617665	-0.789329
H47	H	0.880302	0.536954	-0.774529
H48	H	0.847577	0.679540	-0.758337
C49	C	1.154539	0.726496	-0.751386
C50	C	1.091324	0.627361	-0.733208
H51	H	1.252949	0.732482	-0.716767
H52	H	1.169188	0.736210	-0.824149
H53	H	1.084353	0.778048	-0.725560
H54	H	1.161499	0.575813	-0.759046
H55	H	1.076690	0.617639	-0.660448
H56	H	0.678137	0.449128	-0.943352
O57	O	0.662072	0.438646	-1.069431
C58	C	0.504742	0.461317	-1.095991
H59	H	0.501255	0.501407	-1.175258
H60	H	0.451565	0.515052	-1.034571
C61	C	0.413711	0.310102	-1.003538
C62	C	0.409427	0.359333	-1.100899
H63	H	0.354913	0.247195	-1.006561
H64	H	0.519707	0.294830	-0.985640
H65	H	0.369400	0.354891	-0.952365
H66	H	0.453755	0.314549	-1.152068
H67	H	0.303436	0.374595	-1.118806
H68	H	0.582276	0.898413	-1.628101
H69	H	0.842139	1.070340	-1.455785
