data_functionalizedCrystal
_audit_creation_method	'MofGen! by Chris Wilmer'
_symmetry_space_group_name_H-M	'P1'
_symmetry_Int_Tables_number	1
_symmetry_cell_setting	triclinic
loop_
_symmetry_equiv_pos_as_xyz
  x,y,z
_cell_length_a	12.759401
_cell_length_b	12.759393
_cell_length_c	12.759399
_cell_angle_alpha	89.969094
_cell_angle_beta	89.980611
_cell_angle_gamma	90.017606
loop_
_atom_site_label
_atom_site_type_symbol
_atom_site_fract_x
_atom_site_fract_y
_atom_site_fract_z
Zn1	Zn	1.606263	0.593924	0.418096
Zn2	Zn	1.606153	0.418243	0.593811
Zn3	Zn	1.430562	0.418269	0.418160
Zn4	Zn	1.430553	0.593890	0.593746
O5	O	1.518383	0.506081	0.505953
O6	O	1.753270	0.570622	0.441405
O7	O	1.582818	0.271225	0.570565
O8	O	1.453919	0.441595	0.271130
O9	O	1.753189	0.441550	0.570503
O10	O	1.583006	0.570648	0.271083
O11	O	1.453812	0.271245	0.441515
O12	O	1.283540	0.441563	0.441452
O13	O	1.453903	0.740916	0.570392
O14	O	1.283533	0.570591	0.570454
O15	O	1.582997	0.740940	0.441342
O16	O	1.582809	0.441517	0.740824
O17	O	1.453796	0.570565	0.740776
C18	C	1.245415	0.506076	0.505954
C19	C	1.128639	0.506099	0.505979
C20	C	1.518461	0.780115	0.505852
C21	C	1.518495	0.896892	0.505809
C22	C	1.518318	0.506058	0.778921
C23	C	1.518387	0.506082	0.895697
C24	C	1.792416	0.506087	0.505954
C25	C	1.909193	0.506089	0.505954
C26	C	1.964098	0.573289	0.438744
C27	C	2.073822	0.573297	0.438759
C28	C	2.073725	0.438896	0.573196
C29	C	1.964003	0.438894	0.573186
C30	C	1.518365	0.233114	0.505978
C31	C	1.518535	0.116338	0.505725
C32	C	1.585719	0.951768	0.438603
C33	C	1.585737	1.061492	0.438557
C34	C	1.451303	1.061454	0.572935
C35	C	1.451281	0.951732	0.572974
C36	C	1.518476	0.506128	0.231920
C37	C	1.518516	0.506148	0.115143
C38	C	1.585641	0.438964	0.950549
C39	C	1.585708	0.438999	1.060273
C40	C	1.451259	0.573274	1.060284
C41	C	1.451198	0.573244	0.950562
H42	H	1.919475	0.628004	0.383999
H43	H	1.640474	0.384346	1.104929
H44	H	1.396583	1.106118	0.627620
H45	H	1.640446	0.907121	0.383910
H46	H	2.118522	0.628019	0.384031
H47	H	2.118366	0.384187	0.627932
H48	H	1.919298	0.384171	0.627922
H49	H	1.640476	1.106168	0.383829
H50	H	1.396532	0.907050	0.627701
H51	H	1.396432	0.627905	0.905898
H52	H	1.640352	0.384279	0.905881
H53	H	1.396555	0.627953	1.104968
