data_functionalizedCrystal
_audit_creation_method	'MofGen! by Chris Wilmer'
_symmetry_space_group_name_H-M	'P1'
_symmetry_Int_Tables_number	1
_symmetry_cell_setting	triclinic
loop_
_symmetry_equiv_pos_as_xyz
  x,y,z
_cell_length_a	16.625548
_cell_length_b	19.120786
_cell_length_c	16.625539
_cell_angle_alpha	87.528626
_cell_angle_beta	89.979432
_cell_angle_gamma	92.466188
loop_
_atom_site_label
_atom_site_type_symbol
_atom_site_fract_x
_atom_site_fract_y
_atom_site_fract_z
Zn1	Zn	1.218970	-0.279609	-0.442197
Zn2	Zn	1.718970	0.220391	0.057803
Zn3	Zn	1.213114	-0.397074	-0.301603
Zn4	Zn	1.713114	0.102926	0.198397
Zn5	Zn	1.084131	-0.279636	-0.307376
Zn6	Zn	1.584131	0.220364	0.192624
Zn7	Zn	1.078345	-0.397034	-0.436395
Zn8	Zn	1.578345	0.102966	0.063605
O9	O	1.148640	-0.338338	-0.371893
O10	O	1.648640	0.161662	0.128107
O11	O	1.331025	-0.295197	-0.423559
O12	O	1.831025	0.204803	0.076441
O13	O	1.195974	-0.381524	-0.189535
O14	O	1.695974	0.118476	0.310465
O15	O	1.106890	-0.181342	-0.330104
O16	O	1.606890	0.318658	0.169896
O17	O	1.326723	-0.381498	-0.320265
O18	O	1.826723	0.118502	0.179735
O19	O	1.205956	-0.181323	-0.429156
O20	O	1.705956	0.318677	0.070844
O21	O	1.101211	-0.295243	-0.193776
O22	O	1.601211	0.204757	0.306224
O23	O	0.970531	-0.295204	-0.324478
O24	O	1.470531	0.204796	0.175522
O25	O	1.097028	-0.381429	-0.549998
O26	O	1.597028	0.118571	-0.049998
O27	O	0.966280	-0.381455	-0.419268
O28	O	1.466280	0.118545	0.080732
O29	O	1.200345	-0.295158	-0.554261
O30	O	1.700345	0.204842	-0.054261
O31	O	1.190364	-0.495359	-0.314640
O32	O	1.690364	0.004641	0.185360
O33	O	1.091350	-0.495329	-0.413671
O34	O	1.591350	0.004671	0.086329
C35	C	0.939149	-0.338328	-0.371871
C36	C	1.439149	0.161672	0.128129
C37	C	0.849528	-0.338341	-0.371879
C38	C	1.349528	0.161659	0.128121
C39	C	1.139615	-0.520830	-0.362917
C40	C	1.639615	-0.020830	0.137083
C41	C	1.135828	-0.598901	-0.359104
C42	C	1.635828	-0.098901	0.140896
C43	C	0.521352	-0.338345	-0.371914
C44	C	1.021352	0.161655	0.128086
C45	C	0.612660	-0.338342	-0.371902
C46	C	1.112660	0.161658	0.128098
C47	C	0.685437	-0.338344	-0.371896
C48	C	1.185437	0.161656	0.128104
C49	C	0.776751	-0.338340	-0.371885
C50	C	1.276751	0.161660	0.128115
C51	C	1.185589	-0.635508	-0.408925
C52	C	1.685589	-0.135508	0.091075
C53	C	1.182027	-0.708863	-0.405344
C54	C	1.682027	-0.208863	0.094656
C55	C	1.128709	-0.745611	-0.351936
C56	C	1.628709	-0.245611	0.148064
C57	C	1.078942	-0.708998	-0.302113
C58	C	1.578942	-0.208998	0.197887
C59	C	1.082500	-0.635644	-0.305699
C60	C	1.582500	-0.135644	0.194301
C61	C	1.115383	-0.967097	-0.338531
C62	C	1.615383	-0.467097	0.161469
C63	C	1.111831	-1.040456	-0.334947
C64	C	1.611831	-0.540456	0.165053
C65	C	1.214915	-1.040316	-0.438180
C66	C	1.714915	-0.540316	0.061820
C67	C	1.218472	-0.966960	-0.441758
C68	C	1.718472	-0.466960	0.058242
C69	C	1.168703	-0.930355	-0.391937
C70	C	1.668703	-0.430355	0.108063
C71	C	1.125069	-0.820592	-0.348273
C72	C	1.625069	-0.320592	0.151727
C73	C	1.172339	-0.855375	-0.395605
C74	C	1.672339	-0.355375	0.104395
C75	C	1.358948	-0.338349	-0.371915
C76	C	1.858948	0.161651	0.128085
C77	C	1.448569	-0.338353	-0.371925
C78	C	1.948569	0.161647	0.128075
C79	C	1.148695	-0.338286	-0.582204
C80	C	1.648695	0.161714	-0.082204
C81	C	1.148718	-0.338264	-0.671826
C82	C	1.648718	0.161736	-0.171826
C83	C	1.157722	-0.155134	-0.380921
C84	C	1.657722	0.344866	0.119079
C85	C	1.161592	-0.077063	-0.384769
C86	C	1.661592	0.422937	0.115231
C87	C	1.148759	-0.338185	-1.000006
C88	C	1.648759	0.161815	-0.500006
C89	C	1.148745	-0.338209	-0.908696
C90	C	1.648745	0.161791	-0.408696
C91	C	1.148739	-0.338225	-0.835919
C92	C	1.648739	0.161775	-0.335919
C93	C	1.148724	-0.338248	-0.744604
C94	C	1.648724	0.161752	-0.244604
C95	C	1.148634	-0.338340	-0.162402
C96	C	1.648634	0.161660	0.337598
C97	C	1.148776	-0.338164	-0.072790
C98	C	1.648776	0.161836	0.427210
H99	H	1.229010	-0.605593	-0.452412
H100	H	1.729010	-0.105593	0.047588
H101	H	1.222554	-0.738666	-0.445908
H102	H	1.722554	-0.238666	0.054092
H103	H	1.041979	-0.605839	-0.265130
H104	H	1.541979	-0.105839	0.234870
Cl105	Cl	1.277475	-1.086339	-0.500811
Cl106	Cl	1.777475	-0.586339	-0.000811
Cl107	Cl	1.052809	-0.921088	-0.275906
Cl108	Cl	1.552809	-0.421088	0.224094
Cl109	Cl	1.285503	-0.920769	-0.508903
Cl110	Cl	1.785503	-0.420769	-0.008903
H111	H	1.215749	-0.825453	-0.439093
H112	H	1.715749	-0.325453	0.060907
H113	H	1.068408	-1.070374	-0.291455
H114	H	1.568408	-0.570374	0.208545
H115	H	1.035526	-0.738924	-0.258630
H116	H	1.535526	-0.238924	0.241370
Cl117	Cl	1.058037	-0.866794	-0.281138
Cl118	Cl	1.558037	-0.366794	0.218862
