data_functionalizedCrystal
_audit_creation_method	'MofGen! by Chris Wilmer'
_symmetry_space_group_name_H-M	'P1'
_symmetry_Int_Tables_number	1
_symmetry_cell_setting	triclinic
loop_
_symmetry_equiv_pos_as_xyz
  x,y,z
_cell_length_a	15.711784
_cell_length_b	18.266242
_cell_length_c	15.538191
_cell_angle_alpha	90.004634
_cell_angle_beta	96.569552
_cell_angle_gamma	89.990753
loop_
_atom_site_label
_atom_site_type_symbol
_atom_site_fract_x
_atom_site_fract_y
_atom_site_fract_z
O1	O	1.000655	-0.060883	-0.466250
O2	O	0.769301	-0.060881	-0.401519
O3	O	0.930013	-0.060886	-0.312274
O4	O	0.839943	-0.060878	-0.555495
O5	O	0.929994	0.060876	-0.312260
O6	O	0.769282	0.060881	-0.401505
O7	O	1.000636	0.060879	-0.466236
Zn8	Zn	0.884956	0.080212	-0.433869
Zn9	Zn	0.884981	-0.080214	-0.433887
O10	O	0.839924	0.060884	-0.555481
C11	C	0.740405	-0.000000	-0.390938
C12	C	0.654335	0.000000	-0.359420
N13	N	0.884944	0.189699	-0.433858
C14	C	0.566616	-0.000003	-0.240766
C15	C	0.647487	-0.000003	-0.270391
C16	C	0.580307	-0.000001	-0.418861
C17	C	0.499428	-0.000005	-0.389249
C18	C	0.492590	-0.000005	-0.300200
C19	C	0.425403	-0.000007	-0.448683
C20	C	0.344532	-0.000007	-0.419073
C21	C	0.337685	-0.000005	-0.330028
C22	C	0.411719	-0.000005	-0.270590
C23	C	0.432243	-0.000002	-0.537731
C24	C	0.358218	-0.000004	-0.597165
C25	C	0.277344	-0.000009	-0.567555
C26	C	0.270498	-0.000006	-0.478511
C27	C	0.203311	-0.000008	-0.626993
C28	C	0.122439	-0.000008	-0.597383
C29	C	0.189627	-0.000006	-0.448901
C30	C	0.956116	0.228006	-0.394374
C31	C	0.956122	0.304651	-0.394372
C32	C	0.884959	0.342986	-0.433871
C33	C	0.813776	0.304670	-0.473355
C34	C	0.813769	0.228027	-0.473348
N35	N	0.851428	0.463321	-0.505669
N36	N	0.851441	0.536129	-0.505674
C37	C	0.884975	0.573909	-0.433891
N38	N	0.918513	0.536130	-0.362104
N39	N	0.918504	0.463315	-0.362101
C40	C	0.884958	0.426093	-0.433881
C41	C	0.956157	0.695323	-0.394401
C42	C	0.956158	0.771969	-0.394396
C43	C	0.813813	0.771987	-0.473387
C44	C	0.813811	0.695342	-0.473384
C45	C	0.884987	0.657014	-0.433893
C46	C	1.029532	-0.000003	-0.476817
C47	C	1.115601	-0.000008	-0.508335
C48	C	0.939427	-0.000007	-0.280419
C49	C	0.967497	-0.000015	-0.185518
N50	N	0.884993	0.810299	-0.433893
C51	C	0.830510	0.000004	-0.587336
C52	C	0.802439	0.000006	-0.682237
C53	C	0.688628	0.000003	0.198370
C54	C	0.715024	0.000004	0.287540
C55	C	0.863494	0.000003	0.258820
C56	C	0.837111	-0.000002	0.169646
C57	C	0.749677	-0.000001	0.139429
C58	C	0.898159	-0.000006	0.110705
C59	C	0.871778	-0.000007	0.021538
C60	C	0.784348	-0.000004	-0.008686
C61	C	0.723295	-0.000002	0.050263
C62	C	0.985593	-0.000002	0.140924
C63	C	1.046642	-0.000006	0.081982
C64	C	1.020260	-0.000012	-0.007186
C65	C	0.932830	-0.000009	-0.037411
C66	C	1.081313	-0.000014	-0.066135
C67	C	1.054931	-0.000015	-0.155301
C68	C	0.906449	-0.000010	-0.126577
H69	H	0.184060	-0.000014	-0.376389
H70	H	0.617431	-0.000002	0.173766
H71	H	0.271833	0.000002	-0.305921
C72	C	0.735478	0.185884	-0.516788
C73	C	0.657211	0.228043	-0.560269
C74	C	0.578921	0.185899	-0.603711
C75	C	0.578898	0.101594	-0.603673
C76	C	0.657169	0.059429	-0.560191
C77	C	0.735459	0.101574	-0.516749
H78	H	0.657225	0.290455	-0.560298
H79	H	0.520980	0.217112	-0.635899
H80	H	0.520943	0.070396	-0.635832
H81	H	0.657155	-0.002982	-0.560162
H82	H	0.793400	0.070361	-0.484561
C83	C	1.177487	-0.000010	-0.032890
C84	C	1.235123	-0.063237	-0.056996
C85	C	1.331298	-0.063232	-0.023753
C86	C	1.369839	0.000001	0.033594
C87	C	1.312202	0.063234	0.057703
C88	C	1.216027	0.063228	0.024460
H89	H	1.206593	-0.110051	-0.099451
H90	H	1.373964	-0.110041	-0.041600
H91	H	1.441034	0.000006	0.058202
H92	H	1.340732	0.110047	0.100157
H93	H	1.173361	0.110037	0.042307
C94	C	1.034443	0.653158	-0.350952
C95	C	1.112727	0.695302	-0.307508
C96	C	1.191014	0.653141	-0.264058
C97	C	1.191017	0.568837	-0.264053
C98	C	1.112730	0.526688	-0.307500
C99	C	1.034443	0.568849	-0.350949
H100	H	1.112728	0.757714	-0.307510
H101	H	1.248967	0.684343	-0.231896
H102	H	1.248969	0.537626	-0.231889
H103	H	1.112729	0.464276	-0.307498
H104	H	0.976490	0.537647	-0.383111
C105	C	0.559081	-0.000004	-0.142812
C106	C	0.597898	0.063223	-0.085626
C107	C	0.590359	0.063223	0.012323
C108	C	0.544004	-0.000003	0.053086
C109	C	0.505185	-0.063235	-0.004100
C110	C	0.512723	-0.063236	-0.102049
H111	H	0.632215	0.110031	-0.115801
H112	H	0.619096	0.110032	0.054655
H113	H	0.538424	-0.000003	0.125593
H114	H	0.470867	-0.110043	0.026075
H115	H	0.483986	-0.110044	-0.144382
H116	H	0.665304	0.000018	0.335530
H117	H	1.104643	-0.000018	-0.203294
C118	C	0.735526	0.653197	-0.516827
C119	C	0.657258	0.695357	-0.560307
C120	C	0.578968	0.653212	-0.603749
C121	C	0.578946	0.568907	-0.603711
C122	C	0.657216	0.526743	-0.560230
C123	C	0.735506	0.568888	-0.516787
H124	H	0.657272	0.757769	-0.560336
H125	H	0.521027	0.684426	-0.635937
H126	H	0.520991	0.537709	-0.635870
H127	H	0.657202	0.464331	-0.560200
H128	H	0.793447	0.537674	-0.484599
H129	H	0.707761	-0.000004	-0.221985
C130	C	1.142816	-0.000008	0.115224
C131	C	1.200442	-0.063241	0.091112
C132	C	1.296618	-0.063246	0.124351
C133	C	1.335170	-0.000019	0.181701
C134	C	1.277543	0.063219	0.205817
C135	C	1.181367	0.063224	0.172578
H136	H	1.171905	-0.110050	0.048655
H137	H	1.339277	-0.110058	0.106499
H138	H	1.406365	-0.000022	0.206307
H139	H	1.306081	0.110027	0.248274
H140	H	1.138708	0.110036	0.190430
H141	H	0.406152	-0.000013	-0.198078
C142	C	1.034401	0.185844	-0.350927
C143	C	1.112691	0.227984	-0.307488
C144	C	1.190975	0.185818	-0.264039
C145	C	1.190968	0.101514	-0.264028
C146	C	1.112675	0.059369	-0.307469
C147	C	1.034392	0.101535	-0.350918
H148	H	1.112699	0.290395	-0.307494
H149	H	1.248932	0.217017	-0.231881
H150	H	1.248918	0.070300	-0.231864
H151	H	1.112667	-0.003042	-0.307463
H152	H	0.976434	0.070336	-0.383076
H153	H	0.585887	0.000002	-0.491364
H154	H	0.498096	0.000001	-0.561836
H155	H	0.363798	-0.000001	-0.669669
H156	H	0.208892	-0.000001	-0.699497
H157	H	1.007070	-0.000007	0.213529
H158	H	0.762869	-0.000001	-0.081292
H159	H	0.062164	-0.000007	-0.645781
H160	H	0.755833	0.335886	-0.505513
H161	H	1.014080	0.335846	-0.362219
H162	H	1.014113	0.803159	-0.362238
H163	H	0.755869	0.803198	-0.505543
H164	H	0.835251	-0.000015	-0.151181
H165	H	0.652098	-0.000007	0.025659
H166	H	0.934683	0.000005	0.283436
