data_functionalizedCrystal
_audit_creation_method	'MofGen! by Chris Wilmer'
_symmetry_space_group_name_H-M	'P1'
_symmetry_Int_Tables_number	1
_symmetry_cell_setting	triclinic
loop_
_symmetry_equiv_pos_as_xyz
  x,y,z
_cell_length_a	23.532407
_cell_length_b	15.538191
_cell_length_c	14.185197
_cell_angle_alpha	71.745882
_cell_angle_beta	104.846177
_cell_angle_gamma	114.939614
loop_
_atom_site_label
_atom_site_type_symbol
_atom_site_fract_x
_atom_site_fract_y
_atom_site_fract_z
O1	O	0.724364	-0.095558	-0.083467
O2	O	0.555131	-0.112139	-0.083455
O3	O	0.672689	0.033591	-0.083468
O4	O	0.606805	-0.241288	-0.083454
O5	O	0.687881	-0.004414	0.083376
O6	O	0.570323	-0.150143	0.083389
O7	O	0.739555	-0.133563	0.083377
Cu8	Cu	0.656326	-0.145323	0.098617
Cu9	Cu	0.638360	-0.100378	-0.098695
O10	O	0.621997	-0.279292	0.083390
C11	C	0.541597	-0.130719	-0.000032
C12	C	0.478638	-0.129451	-0.000028
C13	C	0.753089	-0.114982	-0.000049
C14	C	0.816047	-0.116249	-0.000059
C15	C	0.687178	0.049750	-0.000050
C16	C	0.707710	0.154518	-0.000062
C17	C	1.231067	-0.037978	-0.000029
C18	C	1.290228	-0.039159	-0.000024
O19	O	1.341728	0.033398	0.000008
N20	N	1.295241	-0.125793	-0.000023
C21	C	1.241090	-0.211256	-0.000015
O22	O	1.250787	-0.285054	-0.000013
C23	C	1.181931	-0.210076	-0.000013
C24	C	1.176922	-0.123434	-0.000024
C25	C	1.226055	0.048657	-0.000039
C26	C	1.166898	0.049837	-0.000046
C27	C	1.112753	-0.035618	-0.000041
C28	C	1.117764	-0.122254	-0.000031
C29	C	1.127782	-0.295540	0.000002
C30	C	1.068621	-0.294353	0.000005
C31	C	1.063612	-0.207710	-0.000007
C32	C	1.004462	-0.206529	-0.000033
N33	N	0.999448	-0.119894	-0.000035
C34	C	1.053594	-0.034439	-0.000039
C35	C	1.365330	-0.213727	-0.000019
C36	C	1.424487	-0.214905	-0.000029
C37	C	1.473621	-0.042808	-0.000036
C38	C	1.414462	-0.041629	-0.000033
C39	C	1.360316	-0.127092	-0.000021
C40	C	0.929358	-0.031967	-0.000053
C41	C	0.870193	-0.030793	-0.000064
C42	C	0.821065	-0.202891	-0.000051
C43	C	0.880224	-0.204064	-0.000046
C44	C	0.934371	-0.118595	-0.000044
O45	O	0.952936	-0.279048	-0.000061
O46	O	1.043887	0.039344	-0.000028
C47	C	0.607508	-0.295450	-0.000031
C48	C	0.586975	-0.400217	-0.000026
N49	N	0.668966	-0.176934	0.237396
C50	C	0.503723	0.440392	-0.000026
C51	C	0.523032	0.538838	-0.000025
C52	C	0.631635	0.562299	-0.000033
C53	C	0.612336	0.463854	-0.000039
C54	C	0.548379	0.402907	-0.000034
C55	C	0.656991	0.426369	-0.000047
C56	C	0.637694	0.327931	-0.000048
C57	C	0.573740	0.266978	-0.000040
C58	C	0.529081	0.304469	-0.000034
C59	C	0.720949	0.487316	-0.000045
C60	C	0.765604	0.449831	-0.000053
C61	C	0.746306	0.351394	-0.000061
C62	C	0.682352	0.290440	-0.000053
C63	C	0.790965	0.313902	-0.000066
C64	C	0.771667	0.215465	-0.000066
C65	C	0.663054	0.192002	-0.000053
N66	N	0.625726	-0.068760	-0.237474
C67	C	0.588618	0.024086	0.604996
C68	C	0.598187	0.000148	0.710023
C69	C	0.643710	-0.113753	0.710013
C70	C	0.634148	-0.089820	0.604983
C71	C	0.606601	-0.020901	0.552483
C72	C	0.652130	-0.134808	0.552470
C73	C	0.642566	-0.110881	0.447450
C74	C	0.615019	-0.041967	0.394942
C75	C	0.597036	0.003026	0.447462
C76	C	0.679673	-0.203732	0.604972
C77	C	0.697656	-0.248719	0.552459
C78	C	0.688096	-0.224788	0.447437
C79	C	0.660548	-0.155873	0.394929
C80	C	0.706078	-0.269780	0.394916
C81	C	0.696513	-0.245853	0.289896
C82	C	0.650984	-0.131947	0.289909
H83	H	0.866120	0.039765	-0.000076
H84	H	0.666137	-0.169870	0.752773
N85	N	1.013321	-0.381665	0.000026
N86	N	1.017810	-0.459011	0.000040
H87	H	0.978755	-0.520676	0.000054
H88	H	1.131848	-0.366092	0.000007
H89	H	1.321244	-0.283324	-0.000016
H90	H	0.687459	-0.223212	0.690487
H91	H	0.610974	0.142377	-0.000057
N92	N	0.725789	-0.319118	0.606106
N93	N	0.734324	-0.340476	0.699874
H94	H	0.754196	-0.390194	0.737762
H95	H	0.884302	-0.274615	-0.000038
H96	H	0.776969	-0.272465	-0.000053
N97	N	0.817279	0.177177	-0.000100
N98	N	0.812221	0.140891	-0.070434
H99	H	0.844436	0.113850	-0.070457
H100	H	0.558029	0.186823	-0.000034
N101	N	0.463745	0.242225	-0.000056
N102	N	0.423875	0.275705	-0.000067
H103	H	0.377733	0.231747	-0.000087
H104	H	0.451642	0.390766	-0.000029
H105	H	0.486664	0.569349	-0.000003
H106	H	0.683710	0.611934	-0.000033
H107	H	1.162827	0.120389	-0.000051
H108	H	0.607228	-0.022491	0.309428
N109	N	0.560513	0.094526	0.551342
N110	N	0.586619	0.179873	0.563064
H111	H	0.566779	0.229627	0.525165
N112	N	0.734205	-0.340185	0.448566
N113	N	0.742735	-0.361547	0.542333
H114	H	0.762600	-0.411272	0.580224
H115	H	1.270139	0.118248	-0.000039
N116	N	0.856295	0.376157	-0.000043
N117	N	0.885579	0.417669	0.070295
H118	H	0.931720	0.461635	0.070314
H119	H	0.736658	0.567472	-0.000053
N120	N	0.830930	0.512102	-0.000050
N121	N	0.848154	0.599989	-0.000045
H122	H	0.894292	0.643968	-0.000045
H123	H	0.583539	0.036785	0.752775
N124	N	0.714899	-0.291796	0.236264
N125	N	0.739505	-0.353313	0.283150
H126	H	0.752495	-0.385757	0.245273
N127	N	0.984659	0.055343	-0.000077
N128	N	1.016748	0.089910	-0.070411
H129	H	1.055803	0.151575	-0.070436
H130	H	0.628556	-0.075821	0.247160
H131	H	1.410389	0.028923	-0.000042
H132	H	1.517718	0.026774	-0.000039
N133	N	0.568930	0.073470	0.393841
N134	N	0.552898	0.113662	0.440736
H135	H	0.533058	0.163422	0.402866
H136	H	1.428557	-0.285455	-0.000034
