data_functionalizedCrystal
_audit_creation_method	'MofGen! by Chris Wilmer'
_symmetry_space_group_name_H-M	'P1'
_symmetry_Int_Tables_number	1
_symmetry_cell_setting	triclinic
loop_
_symmetry_equiv_pos_as_xyz
  x,y,z
_cell_length_a	17.699083
_cell_length_b	16.176319
_cell_length_c	17.699092
_cell_angle_alpha	90.001763
_cell_angle_beta	83.284691
_cell_angle_gamma	90.004302
loop_
_atom_site_label
_atom_site_type_symbol
_atom_site_fract_x
_atom_site_fract_y
_atom_site_fract_z
O1	O	1.004080	0.068711	0.095709
O2	O	0.783702	0.068719	0.108162
O3	O	0.900114	0.068713	-0.008253
O4	O	0.887668	0.068717	0.212124
O5	O	0.900101	-0.068780	-0.008254
O6	O	0.783689	-0.068774	0.108161
O7	O	1.004067	-0.068782	0.095709
Cu8	Cu	0.893877	-0.081332	0.101935
Cu9	Cu	0.893893	0.081269	0.101935
O10	O	0.887655	-0.068776	0.212124
C11	C	0.755499	-0.000026	0.107715
C12	C	0.671480	-0.000023	0.106377
N13	N	0.893871	-0.195697	0.101934
C14	C	0.899661	-0.000032	-0.036450
C15	C	0.898319	-0.000028	-0.120468
C16	C	1.032271	-0.000035	0.096155
C17	C	1.116289	-0.000033	0.097494
C18	C	1.164908	-0.000031	0.029161
C19	C	1.243851	-0.000034	0.030423
C20	C	1.274174	-0.000032	0.100019
C21	C	1.225549	-0.000036	0.168358
C22	C	1.146607	-0.000039	0.167094
C23	C	1.543912	-0.000024	0.173453
C24	C	1.622860	-0.000019	0.174711
C25	C	1.641156	-0.000019	0.036781
C26	C	1.562214	-0.000022	0.035518
C27	C	1.513596	-0.000030	0.103856
C28	C	1.427997	-0.000029	0.102487
C29	C	1.359772	-0.000028	0.101389
C30	C	0.939687	-0.238959	0.147783
C31	C	0.939695	-0.325506	0.147780
C32	C	0.893882	-0.368790	0.101932
C33	C	0.848064	-0.325522	0.056078
C34	C	0.848061	-0.238977	0.056078
C35	C	0.848078	-0.674551	0.056079
C36	C	0.848084	-0.761102	0.056085
C37	C	0.939713	-0.761080	0.147782
C38	C	0.939709	-0.674534	0.147781
C39	C	0.893894	-0.631274	0.101924
C40	C	0.893887	-0.537430	0.101927
C41	C	0.893885	-0.462633	0.101933
N42	N	0.893905	0.195635	0.101930
C43	C	0.897699	0.074920	-0.159935
C44	C	0.896434	0.074921	-0.238878
C45	C	0.895795	-0.000027	-0.278353
C46	C	0.896414	-0.074981	-0.238880
C47	C	0.897673	-0.074982	-0.159938
C48	C	0.891333	-0.074982	-0.557245
C49	C	0.890076	-0.074977	-0.636193
C50	C	0.890094	0.074920	-0.636186
C51	C	0.891353	0.074920	-0.557243
C52	C	0.891968	-0.000034	-0.517777
C53	C	0.893338	-0.000034	-0.432178
C54	C	0.894430	-0.000028	-0.363952
C55	C	0.888109	-0.000029	0.240321
C56	C	0.889450	-0.000027	0.324339
H57	H	1.140226	-0.000027	-0.027513
H58	H	1.107021	-0.000044	0.222738
C59	C	0.797687	-0.808713	0.005643
N60	N	0.759730	-0.844573	-0.032348
H61	H	0.810752	-0.203755	0.018743
H62	H	1.283434	-0.000036	-0.025221
C63	C	1.656212	-0.000026	0.251275
N64	N	1.681334	-0.000033	0.308941
H65	H	0.810767	-0.360771	0.018744
C66	C	0.895820	0.157371	-0.282298
N67	N	0.895383	0.219475	-0.315004
H68	H	1.537530	-0.000019	-0.021154
H69	H	0.977005	-0.360726	0.185113
H70	H	1.504336	-0.000027	0.229098
H71	H	1.680751	-0.000015	-0.018863
H72	H	1.250244	-0.000040	0.225024
C73	C	0.898358	-0.157431	-0.116525
N74	N	0.898872	-0.219534	-0.083827
H75	H	0.976988	-0.203723	0.185122
H76	H	0.977012	-0.639297	0.185118
H77	H	0.977019	-0.796312	0.185118
H78	H	0.810773	-0.639339	0.018740
C79	C	0.898401	0.157371	-0.116520
N80	N	0.898927	0.219475	-0.083822
H81	H	0.891877	0.135951	-0.525107
C82	C	0.889408	0.157372	-0.679605
N83	N	0.888893	0.219473	-0.712307
C84	C	0.889366	-0.157430	-0.679613
N85	N	0.888830	-0.219530	-0.712317
H86	H	0.895889	-0.136006	-0.271026
H87	H	0.891849	-0.136014	-0.525123
