data_functionalizedCrystal
_audit_creation_method	'MofGen! by Chris Wilmer'
_symmetry_space_group_name_H-M	'P1'
_symmetry_Int_Tables_number	1
_symmetry_cell_setting	triclinic
loop_
_symmetry_equiv_pos_as_xyz
  x,y,z
_cell_length_a	19.288859
_cell_length_b	19.288865
_cell_length_c	14.048226
_cell_angle_alpha	89.988335
_cell_angle_beta	89.992667
_cell_angle_gamma	83.134986
loop_
_atom_site_label
_atom_site_type_symbol
_atom_site_fract_x
_atom_site_fract_y
_atom_site_fract_z
O1	O	0.921353	0.086629	-0.079190
O2	O	1.421353	0.586629	0.420810
O3	O	0.719092	0.098322	-0.079189
O4	O	1.219092	0.598322	0.420811
O5	O	0.826067	-0.008655	-0.079171
O6	O	1.326067	0.491345	0.420829
O7	O	0.814378	0.193606	-0.079209
O8	O	1.314378	0.693606	0.420791
O9	O	0.826054	-0.008661	0.079150
O10	O	1.326054	0.491339	0.579150
O11	O	0.719079	0.098316	0.079132
O12	O	1.219079	0.598316	0.579132
O13	O	0.921340	0.086622	0.079131
O14	O	1.421340	0.586622	0.579131
Zn15	Zn	0.820207	0.092468	0.104268
Zn16	Zn	1.320207	0.592468	0.604268
Zn17	Zn	0.820224	0.092476	-0.104327
Zn18	Zn	1.320224	0.592476	0.395673
O19	O	0.814365	0.193600	0.079113
O20	O	1.314365	0.693600	0.579113
C21	C	0.693209	0.097943	-0.000028
C22	C	1.193209	0.597943	0.499972
C23	C	0.616105	0.096816	-0.000027
C24	C	1.116105	0.596816	0.499973
C25	C	0.052064	0.151959	-0.000039
C26	C	0.552064	0.651959	0.499961
C27	C	0.124511	0.153025	-0.000044
C28	C	0.624511	0.653025	0.499956
C29	C	0.169217	0.090255	-0.000031
C30	C	0.669217	0.590255	0.499969
C31	C	0.141472	0.026416	-0.000036
C32	C	0.641472	0.526416	0.499964
C33	C	0.069027	0.025353	-0.000041
C34	C	0.569027	0.525353	0.499959
C35	C	0.290483	0.043440	0.055449
C36	C	0.790483	0.543440	0.555449
C37	C	0.362927	0.044506	0.055459
C38	C	0.862927	0.544506	0.555459
C39	C	0.392663	0.093533	-0.000022
C40	C	0.892663	0.593533	0.499978
C41	C	0.349946	0.141505	-0.055500
C42	C	0.849946	0.641505	0.444500
C43	C	0.277500	0.140442	-0.055504
C44	C	0.777500	0.640442	0.444496
C45	C	0.247773	0.091401	-0.000027
C46	C	0.747773	0.591401	0.499973
C47	C	0.498955	0.158523	-0.000028
C48	C	0.998955	0.658523	0.499972
C49	C	0.571403	0.159586	-0.000039
C50	C	1.071403	0.659586	0.499961
C51	C	0.588364	0.032976	-0.000022
C52	C	1.088364	0.532976	0.499978
C53	C	0.515917	0.031915	-0.000020
C54	C	1.015917	0.531915	0.499980
C55	C	0.471216	0.094691	-0.000019
C56	C	0.971216	0.594691	0.499981
C57	C	0.825684	-0.034535	-0.000007
C58	C	1.325684	0.465465	0.499993
C59	C	0.824555	-0.111638	0.000001
C60	C	1.324555	0.388362	0.500001
C61	C	0.887323	-0.156336	0.000005
C62	C	1.387323	0.343664	0.500005
C63	C	0.886262	-0.228783	-0.000010
C64	C	1.386262	0.271217	0.499990
C65	C	0.822430	-0.256529	-0.000010
C66	C	1.322430	0.243471	0.499990
C67	C	0.759654	-0.211822	-0.000020
C68	C	1.259654	0.288178	0.499980
C69	C	0.760716	-0.139376	-0.000014
C70	C	1.260716	0.360624	0.499986
C71	C	0.772246	-0.364818	0.055447
C72	C	1.272246	0.135182	0.555447
C73	C	0.771186	-0.437262	0.055447
C74	C	1.271186	0.062738	0.555447
C75	C	0.819150	-0.479975	-0.000031
C76	C	1.319150	0.020025	0.499969
C77	C	0.868186	-0.450235	-0.055498
C78	C	1.368186	0.049765	0.444502
C79	C	0.869249	-0.377790	-0.055492
C80	C	1.369249	0.122210	0.444508
C81	C	0.821271	-0.335083	-0.000017
C82	C	1.321271	0.164917	0.499983
C83	C	0.880773	-0.603228	-0.000045
C84	C	1.380773	-0.103228	0.499955
C85	C	0.879709	-0.675676	-0.000066
C86	C	1.379709	-0.175676	0.499934
C87	C	0.753099	-0.658713	-0.000066
C88	C	1.253099	-0.158713	0.499934
C89	C	0.754164	-0.586267	-0.000055
C90	C	1.254164	-0.086267	0.499945
C91	C	0.818003	-0.558529	-0.000040
C92	C	1.318003	-0.058529	0.499960
C93	C	0.947223	0.087001	-0.000032
C94	C	1.447223	0.587001	0.499968
C95	C	1.024327	0.088128	-0.000039
C96	C	1.524327	0.588128	0.499961
C97	C	0.814747	0.219479	-0.000053
C98	C	1.314747	0.719479	0.499947
C99	C	0.815876	0.296583	-0.000068
C100	C	1.315876	0.796583	0.499932
N101	N	0.820201	0.092462	0.246629
N102	N	1.320201	0.592462	0.746629
N103	N	0.820236	0.092477	-0.246687
N104	N	1.320236	0.592477	0.253313
C105	C	0.867584	0.045112	0.296455
C106	C	1.367584	0.545112	0.796455
C107	C	0.867589	0.045112	0.396113
C108	C	1.367589	0.545112	0.896113
C109	C	0.820213	0.092465	0.445943
C110	C	1.320213	0.592465	0.945943
C111	C	0.772825	0.139817	0.396109
C112	C	1.272825	0.639817	0.896109
C113	C	0.772817	0.139814	0.296454
C114	C	1.272817	0.639814	0.796454
C115	C	0.772845	0.139822	0.603824
C116	C	1.272845	0.639822	1.103824
C117	C	0.772853	0.139827	0.703486
C118	C	1.272853	0.639827	1.203486
C119	C	0.867616	0.045120	0.703483
C120	C	1.367616	0.545120	1.203483
C121	C	0.867609	0.045117	0.603827
C122	C	1.367609	0.545117	1.103827
C123	C	0.820221	0.092470	0.554001
C124	C	1.320221	0.592470	1.054001
H125	H	0.046445	-0.026628	-0.000041
H126	H	0.546445	0.473372	0.499959
H127	H	0.734274	0.178386	0.744053
H128	H	1.234274	0.678386	1.244053
H129	H	0.147099	0.205005	-0.000035
H130	H	0.647099	0.705005	0.499965
H131	H	0.906166	0.006554	0.255891
H132	H	1.406166	0.506554	0.755891
F133	F	0.408383	-0.006545	0.114510
F134	F	0.908383	0.493455	0.614510
H135	H	0.731255	-0.461469	0.100606
H136	H	1.231255	0.038531	0.600606
H137	H	0.906189	0.006561	0.563256
H138	H	1.406189	0.506561	1.063256
H139	H	0.906201	0.006563	0.744057
H140	H	1.406201	0.506563	1.244057
F141	F	0.687357	-0.538694	-0.000056
F142	F	1.187357	-0.038694	0.499944
F143	F	0.600922	0.227527	-0.000048
F144	F	1.100922	0.727527	0.499952
F145	F	0.721193	-0.319366	0.114500
F146	F	1.221193	0.180634	0.614500
F147	F	0.486395	-0.036024	-0.000023
F148	F	0.986395	0.463976	0.499977
H149	H	0.707681	-0.234417	-0.000022
H150	H	1.207681	0.265583	0.499978
F151	F	0.258847	-0.008772	0.114458
F152	F	0.758847	0.491228	0.614458
H153	H	0.734232	0.178370	0.255886
H154	H	1.234232	0.678370	0.755886
H155	H	0.906171	0.006555	0.436681
H156	H	1.406171	0.506555	0.936681
H157	H	0.734254	0.178380	0.563258
H158	H	1.234254	0.678380	1.063258
F159	F	0.722400	0.190212	0.449143
F160	F	1.222400	0.690212	0.949143
H161	H	0.907243	-0.485011	-0.100674
H162	H	1.407243	0.014989	0.399326
H163	H	0.015673	0.203077	-0.000042
H164	H	0.515673	0.703077	0.499958
F165	F	0.381586	0.193692	-0.114542
F166	F	0.881586	0.693692	0.385458
H167	H	0.937377	-0.265183	-0.000010
H168	H	1.437377	0.234817	0.499990
F169	F	0.635939	-0.033829	-0.000020
F170	F	1.135939	0.466171	0.499980
F171	F	0.189053	-0.040387	-0.000025
F172	F	0.689053	0.459613	0.499975
H173	H	0.939306	-0.133757	0.000015
H174	H	1.439306	0.366243	0.500015
H175	H	0.909174	-0.353579	-0.100657
H176	H	1.409174	0.146421	0.399343
F177	F	0.948714	-0.573705	-0.000024
F178	F	1.448714	-0.073705	0.499976
H179	H	0.462558	0.209639	-0.000029
H180	H	0.962558	0.709639	0.499971
F181	F	0.232040	0.191493	-0.114550
F182	F	0.732040	0.691493	0.385450
F183	F	0.946520	-0.723248	-0.000067
F184	F	1.446520	-0.223248	0.499933
H185	H	0.701125	-0.681303	-0.000071
H186	H	1.201125	-0.181303	0.499929
F187	F	0.693907	-0.091803	-0.000020
F188	F	1.193907	0.408197	0.499980
