data_functionalizedCrystal
_audit_creation_method	'MofGen! by Chris Wilmer'
_symmetry_space_group_name_H-M	'P1'
_symmetry_Int_Tables_number	1
_symmetry_cell_setting	triclinic
loop_
_symmetry_equiv_pos_as_xyz
  x,y,z
_cell_length_a	18.215407
_cell_length_b	19.077114
_cell_length_c	18.215399
_cell_angle_alpha	87.729790
_cell_angle_beta	89.980167
_cell_angle_gamma	87.671157
loop_
_atom_site_label
_atom_site_type_symbol
_atom_site_fract_x
_atom_site_fract_y
_atom_site_fract_z
Zn1	Zn	1.113281	0.280200	-0.427879
Zn2	Zn	1.613281	0.780200	0.072121
Zn3	Zn	1.108237	0.397902	-0.309754
Zn4	Zn	1.608237	0.897902	0.190246
Zn5	Zn	0.990213	0.280223	-0.304827
Zn6	Zn	1.490213	0.780223	0.195173
Zn7	Zn	0.985228	0.397863	-0.432777
Zn8	Zn	1.485228	0.897863	0.067223
O9	O	1.049240	0.339047	-0.368810
O10	O	1.549240	0.839047	0.131190
O11	O	1.215596	0.295821	-0.412222
O12	O	1.715596	0.795821	0.087778
O13	O	1.092555	0.382318	-0.206117
O14	O	1.592555	0.882318	0.293883
O15	O	1.010735	0.181729	-0.317039
O16	O	1.510735	0.681729	0.182961
O17	O	1.211890	0.382295	-0.325436
O18	O	1.711890	0.882295	0.174564
O19	O	1.101153	0.181712	-0.407444
O20	O	1.601153	0.681712	0.092556
O21	O	1.005844	0.295860	-0.202498
O22	O	1.505844	0.795860	0.297502
O23	O	0.886567	0.295822	-0.321788
O24	O	1.386567	0.795822	0.178212
O25	O	1.002240	0.382229	-0.535111
O26	O	1.502240	0.882229	-0.035111
O27	O	0.882905	0.382251	-0.415793
O28	O	1.382905	0.882251	0.084207
O29	O	1.096320	0.295783	-0.531512
O30	O	1.596320	0.795783	-0.031512
O31	O	1.087722	0.496388	-0.330185
O32	O	1.587722	0.996388	0.169815
O33	O	0.997348	0.496359	-0.420570
O34	O	1.497348	0.996359	0.079430
C35	C	0.858034	0.339035	-0.368788
C36	C	1.358034	0.839035	0.131212
C37	C	0.776234	0.339047	-0.368797
C38	C	1.276234	0.839047	0.131203
C39	C	0.586150	0.384121	-0.417689
C40	C	1.086150	0.884121	0.082311
C41	C	0.509291	0.384124	-0.417698
C42	C	1.009291	0.884124	0.082302
C43	C	0.513081	0.293986	-0.319947
C44	C	1.013081	0.793986	0.180053
C45	C	0.589938	0.293980	-0.319942
C46	C	1.089938	0.793980	0.180058
C47	C	0.626471	0.339052	-0.368812
C48	C	1.126471	0.839052	0.131188
C49	C	0.472754	0.339060	-0.368826
C50	C	0.972754	0.839060	0.131174
C51	C	0.389421	0.339062	-0.368836
C52	C	0.889421	0.839062	0.131164
C53	C	0.709810	0.339050	-0.368803
C54	C	1.209810	0.839050	0.131197
C55	C	1.041467	0.521911	-0.376460
C56	C	1.541467	1.021911	0.123540
C57	C	1.038209	0.600141	-0.379757
C58	C	1.538209	1.100141	0.120243
C59	C	1.083768	0.636886	-0.334287
C60	C	1.583768	1.136886	0.165713
C61	C	1.080708	0.710391	-0.337393
C62	C	1.580708	1.210391	0.162607
C63	C	1.032085	0.747151	-0.385965
C64	C	1.532085	1.247151	0.114035
C65	C	0.986525	0.710401	-0.431441
C66	C	1.486525	1.210401	0.068559
C67	C	0.989589	0.636897	-0.428338
C68	C	1.489589	1.136897	0.071662
C69	C	1.017875	0.966985	-0.400290
C70	C	1.517875	1.466985	0.099710
C71	C	1.014813	1.040495	-0.403387
C72	C	1.514813	1.540495	0.096613
C73	C	1.108998	1.040479	-0.309340
C74	C	1.608998	1.540479	0.190660
C75	C	1.112054	0.966974	-0.306239
C76	C	1.612054	1.466974	0.193761
C77	C	1.066497	0.930231	-0.351717
C78	C	1.566497	1.430231	0.148283
N79	N	1.028955	0.822285	-0.389139
N80	N	1.528955	1.322285	0.110861
N81	N	1.069631	0.855098	-0.348546
N82	N	1.569631	1.355098	0.151454
C83	C	1.241192	0.339060	-0.368832
C84	C	1.741192	0.839060	0.131168
C85	C	1.322991	0.339065	-0.368841
C86	C	1.822991	0.839065	0.131159
C87	C	1.049287	0.338999	-0.560761
C88	C	1.549287	0.838999	-0.060761
C89	C	1.049306	0.338978	-0.642559
C90	C	1.549306	0.838978	-0.142559
C91	C	1.057057	1.155469	-0.361155
C92	C	1.557057	1.655469	0.138845
C93	C	1.060372	1.077239	-0.357917
C94	C	1.560372	1.577239	0.142083
C95	C	1.098313	0.293923	-0.828878
C96	C	1.598313	0.793923	-0.328878
C97	C	1.098322	0.293903	-0.905736
C98	C	1.598322	0.793903	-0.405736
C99	C	1.000357	0.383924	-0.909472
C100	C	1.500357	0.883924	-0.409472
C101	C	1.000344	0.383940	-0.832616
C102	C	1.500344	0.883940	-0.332616
C103	C	1.049326	0.338941	-0.792321
C104	C	1.549326	0.838941	-0.292321
C105	C	1.049349	0.338904	-0.946035
C106	C	1.549349	0.838904	-0.446035
C107	C	1.049359	0.338882	-1.029368
C108	C	1.549359	0.838882	-0.529368
C109	C	1.049315	0.338962	-0.708982
C110	C	1.549315	0.838962	-0.208982
C111	C	1.049237	0.339045	-0.177603
C112	C	1.549237	0.839045	0.322397
C113	C	1.049368	0.338867	-0.095797
C114	C	1.549368	0.838867	0.404203
H115	H	0.476465	0.420822	-0.457500
H116	H	0.976465	0.920822	0.042500
O117	O	0.477475	0.250273	-0.272502
O118	O	0.977475	0.750273	0.227498
C119	C	0.360753	0.210298	-0.229222
C120	C	0.860753	0.710298	0.270778
C121	C	0.400980	0.259851	-0.282980
C122	C	0.900980	0.759851	0.217020
H123	H	0.298901	0.218014	-0.237685
H124	H	0.798901	0.718014	0.262315
H125	H	0.375263	0.222582	-0.170355
H126	H	0.875263	0.722582	0.329645
H127	H	0.378325	0.153569	-0.239862
H128	H	0.878325	0.653569	0.260138
H129	H	0.383431	0.316597	-0.272407
H130	H	0.883431	0.816597	0.227593
H131	H	0.386470	0.247506	-0.341829
H132	H	0.886470	0.747506	0.158171
H133	H	1.138211	0.257244	-0.935498
H134	H	1.638211	0.757244	-0.435498
O135	O	1.130960	0.601257	-0.287003
O136	O	1.630960	1.101257	0.212997
C137	C	1.167662	0.578793	-0.160901
C138	C	1.667662	1.078793	0.339099
C139	C	1.114178	0.619196	-0.214370
C140	C	1.614178	1.119196	0.285630
H141	H	1.154104	0.593270	-0.102166
H142	H	1.654104	1.093270	0.397834
H143	H	1.226408	0.593203	-0.174428
H144	H	1.726408	1.093203	0.325572
H145	H	1.162039	0.519949	-0.166530
H146	H	1.662039	1.019949	0.333470
H147	H	1.119736	0.678049	-0.208770
H148	H	1.619736	1.178049	0.291230
H149	H	1.055454	0.604727	-0.200829
H150	H	1.555454	1.104727	0.299171
O151	O	0.628998	0.250176	-0.272388
O152	O	1.128998	0.750176	0.227612
C153	C	0.624654	0.160742	-0.175463
C154	C	1.124654	0.660742	0.324537
C155	C	0.580329	0.210325	-0.229260
C156	C	1.080329	0.710325	0.270740
H157	H	0.585324	0.128498	-0.140591
H158	H	1.085324	0.628498	0.359409
H159	H	0.659233	0.192973	-0.138227
H160	H	1.159233	0.692973	0.361773
H161	H	0.662230	0.124010	-0.207788
H162	H	1.162230	0.624010	0.292212
H163	H	0.542713	0.247067	-0.196995
H164	H	1.042713	0.747067	0.303005
H165	H	0.545798	0.178049	-0.266497
H166	H	1.045798	0.678049	0.233503
O167	O	1.125117	0.745954	-0.293254
O168	O	1.625117	1.245954	0.206746
C169	C	1.249445	0.768227	-0.258674
C170	C	1.749445	1.268227	0.241326
C171	C	1.199201	0.727932	-0.308693
C172	C	1.699201	1.227932	0.191307
H173	H	1.309352	0.753682	-0.271149
H174	H	1.809352	1.253682	0.228851
H175	H	1.237234	0.753788	-0.198702
H176	H	1.737234	1.253788	0.301298
H177	H	1.238939	0.827088	-0.269176
H178	H	1.738939	1.327088	0.230824
H179	H	1.209678	0.669062	-0.298256
H180	H	1.709678	1.169062	0.201744
H181	H	1.211422	0.742428	-0.368649
H182	H	1.711422	1.242428	0.131351
H183	H	0.960479	0.420562	-0.942290
H184	H	1.460479	0.920562	-0.442290
H185	H	0.960449	0.420598	-0.802850
H186	H	1.460449	0.920598	-0.302850
H187	H	1.151647	0.937045	-0.266687
H188	H	1.651647	1.437045	0.233313
H189	H	0.615892	0.420820	-0.457484
H190	H	1.115892	0.920820	0.042516
H191	H	1.146089	1.070403	-0.272315
H192	H	1.646089	1.570403	0.227685
H193	H	0.980779	0.937075	-0.437318
H194	H	1.480779	1.437075	0.062682
O195	O	0.967564	1.076096	-0.450644
O196	O	1.467564	1.576096	0.049356
C197	C	0.874448	1.068359	-0.543578
C198	C	1.374448	1.568359	-0.043578
C199	C	0.927932	1.027953	-0.490111
C200	C	1.427932	1.527953	0.009889
H201	H	0.842380	1.029453	-0.575491
H202	H	1.342380	1.529453	-0.075491
H203	H	0.906754	1.102701	-0.583582
H204	H	1.406754	1.602701	-0.083582
H205	H	0.834578	1.102843	-0.511201
H206	H	1.334578	1.602843	-0.011201
H207	H	0.967813	0.993431	-0.522427
H208	H	1.467813	1.493431	-0.022427
H209	H	0.895579	0.993656	-0.450107
H210	H	1.395579	1.493656	0.049893
H211	H	0.946938	0.740337	-0.470993
H212	H	1.446938	1.240337	0.029007
O213	O	1.145812	0.250107	-0.789765
O214	O	1.645812	0.750107	-0.289765
C215	C	1.186652	0.130390	-0.761304
C216	C	1.686652	0.630390	-0.261304
C217	C	1.132806	0.179936	-0.805625
C218	C	1.632806	0.679936	-0.305625
H219	H	1.176166	0.073647	-0.774122
H220	H	1.676166	0.573647	-0.274122
H221	H	1.178233	0.138070	-0.700080
H222	H	1.678233	0.638070	-0.200080
H223	H	1.245464	0.142782	-0.776937
H224	H	1.745464	0.642782	-0.276937
H225	H	1.073973	0.167575	-0.790055
H226	H	1.573973	0.667575	-0.290055
H227	H	1.141289	0.172246	-0.866838
H228	H	1.641289	0.672246	-0.366838
H229	H	0.952491	0.606981	-0.465366
H230	H	1.452491	1.106981	0.034634
