data_functionalizedCrystal
_audit_creation_method	'MofGen! by Chris Wilmer'
_symmetry_space_group_name_H-M	'P1'
_symmetry_Int_Tables_number	1
_symmetry_cell_setting	triclinic
loop_
_symmetry_equiv_pos_as_xyz
  x,y,z
_cell_length_a	16.959454
_cell_length_b	12.759401
_cell_length_c	12.759393
_cell_angle_alpha	90.020566
_cell_angle_beta	89.970360
_cell_angle_gamma	89.981716
loop_
_atom_site_label
_atom_site_type_symbol
_atom_site_fract_x
_atom_site_fract_y
_atom_site_fract_z
Zn1	Zn	-0.314681	-1.606227	-0.594016
Zn2	Zn	-0.446880	-1.606102	-0.418339
Zn3	Zn	-0.314715	-1.430526	-0.418352
Zn4	Zn	-0.446817	-1.430501	-0.593977
O5	O	-0.380774	-1.518339	-0.506171
O6	O	-0.332229	-1.753231	-0.570723
O7	O	-0.429389	-1.582769	-0.271319
O8	O	-0.204100	-1.453896	-0.441676
O9	O	-0.429356	-1.753139	-0.441653
O10	O	-0.204075	-1.582983	-0.570736
O11	O	-0.332288	-1.453774	-0.271329
O12	O	-0.332227	-1.283502	-0.441639
O13	O	-0.429248	-1.453854	-0.741003
O14	O	-0.429282	-1.283483	-0.570669
O15	O	-0.332169	-1.582959	-0.741032
O16	O	-0.557483	-1.582745	-0.441615
O17	O	-0.557437	-1.453732	-0.570656
C18	C	-0.380752	-1.245372	-0.506152
C19	C	-0.380762	-1.128595	-0.506169
C20	C	-0.330278	-1.073782	-0.573478
C21	C	-0.330283	-0.964058	-0.573483
C22	C	-0.431262	-0.963970	-0.438867
C23	C	-0.431253	-1.073692	-0.438857
C24	C	-0.586140	-1.518251	-0.506153
C25	C	-0.673996	-1.518309	-0.506181
C26	C	-1.045478	-1.451259	-0.573355
C27	C	-1.045466	-1.585711	-0.439094
C28	C	-0.962920	-1.585674	-0.439084
C29	C	-0.921649	-1.518428	-0.506210
C30	C	-0.962924	-1.451218	-0.573345
C31	C	-0.921639	-1.652875	-0.371942
C32	C	-0.839088	-1.652841	-0.371929
C33	C	-0.797816	-1.585599	-0.439061
C34	C	-0.839096	-1.518387	-0.506200
C35	C	-0.797825	-1.451141	-0.573326
C36	C	-0.839104	-1.383934	-0.640471
C37	C	-0.921652	-1.383977	-0.640477
C38	C	-0.715267	-1.585556	-0.439055
C39	C	-0.715271	-1.451100	-0.573316
C40	C	-0.174605	-1.518456	-0.506212
C41	C	-0.086749	-1.518506	-0.506229
C42	C	-0.380698	-1.518418	-0.780204
C43	C	-0.380665	-1.518451	-0.896981
C44	C	-0.380788	-0.792372	-0.506187
C45	C	-0.380776	-0.909149	-0.506184
C46	C	-0.330108	-1.585681	-0.951860
C47	C	-0.330074	-1.585699	-1.061584
C48	C	-0.431162	-1.451254	-1.061541
C49	C	-0.431191	-1.451231	-0.951819
C50	C	-0.380792	-1.518321	-0.233204
C51	C	-0.380602	-1.518491	-0.116427
H52	H	-0.289173	-0.919433	-0.628291
F53	F	-0.484997	-0.905529	-0.367236
F54	F	-0.484935	-1.379722	-1.119913
H55	H	-0.472363	-1.118322	-0.384040
F56	F	-0.485001	-1.379667	-0.893410
H57	H	-0.289163	-1.118480	-0.628284
F58	F	-0.276332	-1.657219	-0.893501
H59	H	-0.681662	-1.640270	-0.384381
H60	H	-0.288903	-1.640443	-1.106261
F61	F	-0.795164	-1.724374	-0.300475
F62	F	-0.671354	-1.379530	-0.644768
H63	H	-1.079091	-1.396544	-0.628026
F64	F	-1.089391	-1.657275	-0.367657
H65	H	-0.955248	-1.707616	-0.317284
H66	H	-0.805491	-1.329176	-0.695121
H67	H	-0.955268	-1.329259	-0.695142
