data_functionalizedCrystal
_audit_creation_method	'MofGen! by Chris Wilmer'
_symmetry_space_group_name_H-M	'P1'
_symmetry_Int_Tables_number	1
_symmetry_cell_setting	triclinic
loop_
_symmetry_equiv_pos_as_xyz
  x,y,z
_cell_length_a	15.995350
_cell_length_b	19.288857
_cell_length_c	17.766277
_cell_angle_alpha	89.991474
_cell_angle_beta	89.994287
_cell_angle_gamma	83.312742
loop_
_atom_site_label
_atom_site_type_symbol
_atom_site_fract_x
_atom_site_fract_y
_atom_site_fract_z
O1	O	1.110651	0.089532	-0.062534
O2	O	1.610651	0.589532	0.437466
O3	O	0.866833	0.100588	-0.062550
O4	O	1.366833	0.600588	0.437450
O5	O	0.995790	-0.006052	-0.062533
O6	O	1.495790	0.493948	0.437467
O7	O	0.981693	0.196172	-0.062552
O8	O	1.481693	0.696172	0.437448
O9	O	0.995768	-0.006058	0.062656
O10	O	1.495768	0.493942	0.562656
O11	O	0.866811	0.100582	0.062638
O12	O	1.366811	0.600582	0.562638
O13	O	1.110628	0.089527	0.062654
O14	O	1.610628	0.589527	0.562654
Cu15	Cu	0.988717	0.095054	0.074077
Cu16	Cu	1.488717	0.595054	0.574077
Cu17	Cu	0.988744	0.095060	-0.073973
Cu18	Cu	1.488744	0.595060	0.426027
O19	O	0.981671	0.196167	0.062637
O20	O	1.481671	0.696167	0.562637
C21	C	0.835629	0.100128	0.000042
C22	C	1.335629	0.600128	0.500042
C23	C	0.742684	0.098758	0.000037
C24	C	1.242684	0.598758	0.500037
C25	C	0.995327	-0.031933	0.000062
C26	C	1.495327	0.468067	0.500062
C27	C	0.993968	-0.109040	0.000064
C28	C	1.493968	0.390960	0.500064
C29	C	0.993347	-0.145250	-0.068176
C30	C	1.493347	0.354750	0.431824
C31	C	0.992058	-0.217699	-0.068182
C32	C	1.492058	0.282301	0.431818
C33	C	0.991409	-0.253938	0.000057
C34	C	1.491409	0.246062	0.500057
C35	C	0.992026	-0.217719	0.068306
C36	C	1.492026	0.282281	0.568306
C37	C	0.993305	-0.145271	0.068310
C38	C	1.493305	0.354729	0.568310
C39	C	1.038414	-0.374050	0.052335
C40	C	1.538414	0.125950	0.552335
C41	C	1.037139	-0.446498	0.052328
C42	C	1.537139	0.053502	0.552328
C43	C	0.987457	-0.477394	0.000048
C44	C	1.487457	0.022606	0.500048
C45	C	0.939061	-0.435835	-0.052238
C46	C	1.439061	0.064165	0.447762
C47	C	0.940341	-0.363386	-0.052234
C48	C	1.440341	0.136614	0.447766
C49	C	0.990020	-0.332497	0.000060
C50	C	1.490020	0.167503	0.500060
C51	C	0.985438	-0.592161	-0.068203
C52	C	1.485438	-0.092161	0.431797
C53	C	0.984144	-0.664611	-0.068206
C54	C	1.484144	-0.164611	0.431794
C55	C	0.984120	-0.664631	0.068284
C56	C	1.484120	-0.164631	0.568284
C57	C	0.985405	-0.592182	0.068285
C58	C	1.485405	-0.092182	0.568285
C59	C	0.986068	-0.555951	0.000039
C60	C	1.486068	-0.055951	0.500039
C61	C	0.404955	0.093837	0.000053
C62	C	0.904955	0.593837	0.500053
C63	C	0.452678	0.017889	0.000339
C64	C	0.952678	0.517889	0.500339
C65	C	0.549363	0.019260	0.000052
C66	C	1.049363	0.519260	0.500052
C67	C	0.572506	0.096278	0.000045
C68	C	1.072506	0.596278	0.500045
C69	C	0.531290	0.133741	-0.071444
C70	C	1.031290	0.633741	0.428556
C71	C	0.434661	0.131833	-0.071499
C72	C	0.934661	0.631833	0.428501
C73	C	0.434290	0.133396	0.070864
C74	C	0.934290	0.633396	0.570864
C75	C	0.531236	0.133378	0.071804
C76	C	1.031236	0.633378	0.571804
C77	C	0.667198	0.097661	0.000038
C78	C	1.167198	0.597661	0.500038
C79	C	0.310262	0.092455	0.000054
C80	C	0.810262	0.592455	0.500054
C81	C	1.141832	0.089986	0.000060
C82	C	1.641832	0.589986	0.500060
C83	C	1.234777	0.091357	0.000061
C84	C	1.734777	0.591357	0.500061
C85	C	0.982135	0.222047	0.000040
C86	C	1.482135	0.722047	0.500040
C87	C	0.983493	0.299155	0.000033
C88	C	1.483493	0.799155	0.500033
N89	N	0.988705	0.095049	0.178207
N90	N	1.488705	0.595049	0.678207
N91	N	0.988763	0.095060	-0.178103
N92	N	1.488763	0.595060	0.321897
C93	C	1.045825	0.047852	0.217602
C94	C	1.545825	0.547852	0.717602
C95	C	1.045830	0.047849	0.296404
C96	C	1.545830	0.547849	0.796404
C97	C	0.988722	0.095055	0.335808
C98	C	1.488722	0.595055	0.835808
C99	C	0.931591	0.142255	0.296404
C100	C	1.431591	0.642255	0.796404
C101	C	0.931582	0.142253	0.217604
C102	C	1.431582	0.642253	0.717604
C103	C	0.977511	0.158313	0.460640
C104	C	1.477511	0.658313	0.960640
C105	C	0.977525	0.158317	0.539438
C106	C	1.477525	0.658317	1.039438
C107	C	0.988745	0.095063	0.578854
C108	C	1.488745	0.595063	1.078854
C109	C	0.999967	0.031802	0.539462
C110	C	1.499967	0.531802	1.039462
C111	C	0.999958	0.031800	0.460661
C112	C	1.499958	0.531800	0.960661
C113	C	0.988725	0.095063	0.421254
C114	C	1.488725	0.595063	0.921254
C115	C	1.045874	0.047858	0.703695
C116	C	1.545874	0.547858	1.203695
C117	C	1.045873	0.047854	0.782498
C118	C	1.545873	0.547854	1.282498
C119	C	0.931637	0.142267	0.782497
C120	C	1.431637	0.642267	1.282497
C121	C	0.931634	0.142265	0.703695
C122	C	1.431634	0.642265	1.203695
C123	C	0.988757	0.095062	0.664299
C124	C	1.488757	0.595062	1.164299
H125	H	0.993884	-0.115755	-0.123747
H126	H	1.493884	0.384245	0.376253
Cl127	Cl	1.117630	-0.011492	0.168076
Cl128	Cl	1.617630	0.488508	0.668076
Cl129	Cl	0.986186	-0.546659	0.154078
Cl130	Cl	1.486186	-0.046659	0.654078
Cl131	Cl	0.406566	0.089659	-0.153997
Cl132	Cl	0.906566	0.589659	0.346003
H133	H	0.885125	0.180700	0.671618
H134	H	1.385125	0.680700	1.171618
H135	H	0.402201	0.187592	-0.074748
H136	H	0.902201	0.687592	0.425252
Cl137	Cl	0.963484	0.237843	0.411097
Cl138	Cl	1.463484	0.737843	0.911097
Cl139	Cl	1.097983	-0.498737	0.118056
Cl140	Cl	1.597983	0.001263	0.618056
H141	H	0.968393	0.209827	0.571506
H142	H	1.468393	0.709827	1.071506
H143	H	0.546386	0.189541	0.076117
H144	H	1.046386	0.689541	0.576117
H145	H	1.078870	-0.348901	0.094914
H146	H	1.578870	0.151099	0.594914
H147	H	1.009102	-0.019705	0.571552
H148	H	1.509102	0.480295	1.071552
Cl149	Cl	0.552790	0.221094	-0.075575
Cl150	Cl	1.052790	0.721094	0.424425
H151	H	0.885092	0.180690	0.328491
H152	H	1.385092	0.680690	0.828491
Cl153	Cl	0.422616	-0.028767	-0.078365
Cl154	Cl	0.922616	0.471233	0.421635
H155	H	0.885067	0.180687	0.185528
H156	H	1.385067	0.680687	0.685528
Cl157	Cl	0.384925	0.219848	0.071604
Cl158	Cl	0.884925	0.719848	0.571604
H159	H	0.991494	-0.247230	0.123867
H160	H	1.491494	0.252770	0.623867
H161	H	0.991547	-0.247186	-0.123753
H162	H	1.491547	0.252814	0.376247
Cl163	Cl	1.014056	-0.047724	0.411142
Cl164	Cl	1.514056	0.452276	0.911142
H165	H	0.983584	-0.694136	0.123845
H166	H	1.483584	-0.194136	0.623845
H167	H	0.985972	-0.562660	-0.123773
H168	H	1.485972	-0.062660	0.376227
Cl169	Cl	0.879499	-0.311142	-0.117959
Cl170	Cl	1.379499	0.188858	0.382041
Cl171	Cl	0.424240	-0.028986	0.079493
Cl172	Cl	0.924240	0.471014	0.579493
H173	H	1.092385	0.009417	0.814574
H174	H	1.592385	0.509417	1.314574
Cl175	Cl	0.592535	-0.026305	-0.079335
Cl176	Cl	1.092535	0.473695	0.420665
Cl177	Cl	1.117680	-0.011486	0.654167
Cl178	Cl	1.617680	0.488514	1.154167
H179	H	0.559772	0.107725	-0.124643
H180	H	1.059772	0.607725	0.375357
Cl181	Cl	0.994086	-0.099748	0.154105
Cl182	Cl	1.494086	0.400252	0.654105
H183	H	0.898605	-0.460988	-0.094810
H184	H	1.398605	0.039012	0.405190
Cl185	Cl	0.593418	-0.026207	0.079171
Cl186	Cl	1.093418	0.473793	0.579171
H187	H	0.413840	0.108564	0.125051
H188	H	0.913840	0.608564	0.625051
H189	H	0.558647	0.106030	0.124691
H190	H	1.058647	0.606030	0.624691
Cl191	Cl	0.859839	0.201607	0.832028
Cl192	Cl	1.359839	0.701607	1.332028
Cl193	Cl	0.983357	-0.710132	-0.154002
Cl194	Cl	1.483357	-0.210132	0.345998
H195	H	1.092346	0.009414	0.328485
H196	H	1.592346	0.509414	0.828485
