data_functionalizedCrystal
_audit_creation_method	'MofGen! by Chris Wilmer'
_symmetry_space_group_name_H-M	'P1'
_symmetry_Int_Tables_number	1
_symmetry_cell_setting	triclinic
loop_
_symmetry_equiv_pos_as_xyz
  x,y,z
_cell_length_a	15.297327
_cell_length_b	19.805407
_cell_length_c	19.805399
_cell_angle_alpha	89.984884
_cell_angle_beta	99.647572
_cell_angle_gamma	99.704146
loop_
_atom_site_label
_atom_site_type_symbol
_atom_site_fract_x
_atom_site_fract_y
_atom_site_fract_z
Zn1	Zn	-0.359237	0.988071	-0.429312
Zn2	Zn	0.140763	1.488071	0.070688
Zn3	Zn	-0.510108	0.968401	-0.335705
Zn4	Zn	-0.010108	1.468401	0.164295
Zn5	Zn	-0.359258	0.874889	-0.316143
Zn6	Zn	0.140742	1.374889	0.183857
Zn7	Zn	-0.510049	0.855267	-0.448847
Zn8	Zn	-0.010049	1.355267	0.051153
O9	O	-0.434663	0.921657	-0.382502
O10	O	0.065337	1.421657	0.117498
O11	O	-0.379266	1.080177	-0.416906
O12	O	0.120734	1.580177	0.083094
O13	O	-0.490131	0.955976	-0.238397
O14	O	0.009869	1.455976	0.261603
O15	O	-0.233009	0.906346	-0.314792
O16	O	0.266991	1.406346	0.185208
O17	O	-0.490110	1.065725	-0.348133
O18	O	0.009890	1.565725	0.151867
O19	O	-0.232993	0.989501	-0.397937
O20	O	0.267007	1.489501	0.102063
O21	O	-0.379303	0.887273	-0.224025
O22	O	0.120697	1.387273	0.275975
O23	O	-0.379246	0.777571	-0.333735
O24	O	0.120754	1.277571	0.166265
O25	O	-0.490010	0.872904	-0.540968
O26	O	0.009990	1.372904	-0.040968
O27	O	-0.490031	0.763155	-0.431233
O28	O	0.009969	1.263155	0.068767
O29	O	-0.379209	0.970475	-0.526616
O30	O	0.120791	1.470475	-0.026616
O31	O	-0.636347	0.936950	-0.367076
O32	O	-0.136347	1.436950	0.132924
O33	O	-0.636303	0.853831	-0.450201
O34	O	-0.136303	1.353831	0.049799
C35	C	-0.434635	0.745805	-0.382482
C36	C	0.065365	1.245805	0.117518
C37	C	-0.434645	0.670571	-0.382492
C38	C	0.065355	1.170571	0.117508
C39	C	-0.377030	0.642740	-0.418381
C40	C	0.122970	1.142740	0.081619
C41	C	-0.377035	0.572051	-0.418384
C42	C	0.122965	1.072051	0.081616
C43	C	-0.434659	0.529194	-0.382502
C44	C	0.065341	1.029194	0.117498
C45	C	-0.492276	0.557030	-0.346608
C46	C	0.007724	1.057030	0.153392
C47	C	-0.492266	0.627719	-0.346601
C48	C	0.007734	1.127719	0.153399
C49	C	-0.492317	0.271952	-0.346634
C50	C	0.007683	0.771952	0.153366
C51	C	-0.492324	0.201259	-0.346646
C52	C	0.007676	0.701259	0.153354
C53	C	-0.377085	0.216284	-0.418417
C54	C	0.122915	0.716284	0.081583
C55	C	-0.377075	0.286972	-0.418410
C56	C	0.122925	0.786972	0.081590
C57	C	-0.434689	0.314803	-0.382514
C58	C	0.065311	0.814803	0.117486
C59	C	-0.434682	0.391452	-0.382510
C60	C	0.065318	0.891452	0.117490
C61	C	-0.434671	0.452545	-0.382510
C62	C	0.065329	0.952545	0.117490
C63	C	-0.669059	0.891145	-0.412896
C64	C	-0.169059	1.391145	0.087104
C65	C	-0.769335	0.878154	-0.425921
C66	C	-0.269335	1.378154	0.074079
C67	C	-1.051960	1.014787	-0.289638
C68	C	-0.551960	1.514787	0.210362
C69	C	-0.957746	1.026992	-0.277397
C70	C	-0.457746	1.526992	0.222603
C71	C	-0.910639	0.989784	-0.314527
C72	C	-0.410639	1.489784	0.185473
C73	C	-0.957755	0.940367	-0.363900
C74	C	-0.457755	1.440367	0.136100
C75	C	-1.051978	0.928157	-0.376139
C76	C	-0.551978	1.428157	0.123861
C77	C	-0.910656	0.903154	-0.401028
C78	C	-0.410656	1.403154	0.098972
C79	C	-0.957772	0.853737	-0.450401
C80	C	-0.457772	1.353737	0.049599
C81	C	-1.051986	0.841530	-0.462638
C82	C	-0.551986	1.341530	0.037362
C83	C	-1.099094	0.878738	-0.425508
C84	C	-0.599094	1.378738	0.074492
C85	C	-0.816433	0.915365	-0.388789
C86	C	-0.316433	1.415365	0.111211
C87	C	-0.816451	0.828735	-0.475290
C88	C	-0.316451	1.328735	0.024710
C89	C	-0.910665	0.816529	-0.487531
C90	C	-0.410665	1.316529	0.012469
C91	C	-0.199352	0.952307	-0.352004
C92	C	0.300648	1.452307	0.147996
C93	C	-0.099076	0.965368	-0.339007
C94	C	0.400924	1.465368	0.160993
C95	C	-0.434601	0.921695	-0.559036
C96	C	0.065399	1.421695	-0.059036
C97	C	-0.434574	0.921711	-0.634265
C98	C	0.065426	1.421711	-0.134265
C99	C	-0.434692	1.098196	-0.382522
C100	C	0.065308	1.598196	0.117478
C101	C	-0.434704	1.173426	-0.382531
C102	C	0.065296	1.673426	0.117469
C103	C	-0.376860	0.885950	-0.662124
C104	C	0.123140	1.385950	-0.162124
C105	C	-0.376842	0.885962	-0.732810
C106	C	0.123158	1.385962	-0.232810
C107	C	-0.434535	0.921739	-0.775635
C108	C	0.065465	1.421739	-0.275635
C109	C	-0.492255	0.957500	-0.747772
C110	C	0.007745	1.457500	-0.247772
C111	C	-0.492276	0.957484	-0.677088
C112	C	0.007724	1.457484	-0.177088
C113	C	-0.492171	0.957565	-1.032834
C114	C	0.007829	1.457565	-0.532834
C115	C	-0.492143	0.957580	-1.103523
C116	C	0.007857	1.457580	-0.603523
C117	C	-0.376737	0.886042	-1.088557
C118	C	0.123263	1.386042	-0.588557
C119	C	-0.376758	0.886026	-1.017873
C120	C	0.123242	1.386026	-0.517873
C121	C	-0.434481	0.921785	-0.990016
C122	C	0.065519	1.421785	-0.490016
C123	C	-0.434501	0.921771	-0.913370
C124	C	0.065499	1.421771	-0.413370
C125	C	-0.434511	0.921757	-0.852280
C126	C	0.065489	1.421757	-0.352280
C127	C	-0.434660	0.921667	-0.206645
C128	C	0.065340	1.421667	0.293355
C129	C	-0.434433	0.921815	-0.131384
C130	C	0.065567	1.421815	0.368616
H131	H	-0.330170	0.193616	-0.447643
H132	H	0.169830	0.693616	0.052357
C133	C	-0.555708	0.154118	-0.307168
C134	C	-0.055708	0.654118	0.192832
H135	H	-0.590013	0.180817	-0.285782
H136	H	-0.090013	0.680817	0.214218
H137	H	-0.595067	0.121432	-0.338114
H138	H	-0.095067	0.621432	0.161886
H139	H	-0.521138	0.131030	-0.273241
H140	H	-0.021138	0.631030	0.226759
C141	C	-0.764612	0.969715	-0.334481
C142	C	-0.264612	1.469715	0.165519
H143	H	-0.701752	0.971655	-0.332502
H144	H	-0.201752	1.471655	0.167498
H145	H	-0.779997	1.013194	-0.346419
H146	H	-0.279997	1.513194	0.153581
H147	H	-0.780108	0.957818	-0.291008
H148	H	-0.280108	1.457818	0.208992
C149	C	-0.905925	1.081350	-0.223096
C150	C	-0.405925	1.581350	0.276904
H151	H	-0.947472	1.101766	-0.202740
H152	H	-0.447472	1.601766	0.297260
H153	H	-0.869221	1.060234	-0.188814
H154	H	-0.369221	1.560234	0.311186
H155	H	-0.869120	1.115596	-0.244238
H156	H	-0.369120	1.615596	0.255762
C157	C	-1.103778	1.055711	-0.248804
C158	C	-0.603778	1.555711	0.251196
H159	H	-1.166638	1.041363	-0.263168
H160	H	-0.666638	1.541363	0.236832
H161	H	-1.088389	1.047831	-0.201318
H162	H	-0.588389	1.547831	0.298682
H163	H	-1.088285	1.103192	-0.256744
H164	H	-0.588285	1.603192	0.243256
C165	C	-0.555692	0.302557	-0.307153
C166	C	-0.055692	0.802557	0.192847
H167	H	-0.590016	0.266906	-0.285791
H168	H	-0.090016	0.766906	0.214209
H169	H	-0.521127	0.334616	-0.273219
H170	H	-0.021127	0.834616	0.226781
H171	H	-0.595046	0.325022	-0.338098
H172	H	-0.095046	0.825022	0.161902
H173	H	-0.833925	0.999724	-0.304556
H174	H	-0.333925	1.499724	0.195444
H175	H	-1.090345	0.801283	-0.502833
H176	H	-0.590345	1.301283	-0.002833
H177	H	-0.330121	0.549394	-0.447610
H178	H	0.169879	1.049394	0.052390
H179	H	-1.175810	0.868804	-0.435474
H180	H	-0.675810	1.368804	0.064526
C181	C	-0.962498	0.762170	-0.541834
C182	C	-0.462498	1.262170	-0.041834
H183	H	-1.025356	0.760226	-0.543799
H184	H	-0.525356	1.260226	-0.043799
H185	H	-0.947011	0.774051	-0.585309
H186	H	-0.447011	1.274051	-0.085309
H187	H	-0.947115	0.718689	-0.529885
H188	H	-0.447115	1.218689	-0.029885
H189	H	-0.778097	0.798435	-0.505523
H190	H	-0.278097	1.298435	-0.005523
C191	C	-0.555714	0.996855	-0.794877
C192	C	-0.055714	1.496855	-0.294877
H193	H	-0.547429	0.991750	-0.840964
H194	H	-0.047429	1.491750	-0.340964
H195	H	-0.616333	0.979054	-0.791149
H196	H	-0.116333	1.479054	-0.291149
H197	H	-0.542514	1.044051	-0.781584
H198	H	-0.042514	1.544051	-0.281584
C199	C	-0.313299	0.846673	-0.970766
C200	C	0.186701	1.346673	-0.470766
H201	H	-0.321573	0.851789	-0.924678
H202	H	0.178427	1.351789	-0.424678
H203	H	-0.326491	0.799480	-0.984056
H204	H	0.173509	1.299480	-0.484056
H205	H	-0.252677	0.864480	-0.974495
H206	H	0.247323	1.364480	-0.474495
H207	H	-0.539191	0.522131	-0.317389
H208	H	-0.039191	1.022131	0.182611
C209	C	-0.313405	0.846589	-0.615024
C210	C	0.186595	1.346589	-0.115024
H211	H	-0.279039	0.825286	-0.641743
H212	H	0.220961	1.325286	-0.141743
H213	H	-0.274106	0.877587	-0.582355
H214	H	0.225894	1.377587	-0.082355
H215	H	-0.347932	0.812594	-0.591925
H216	H	0.152068	1.312594	-0.091925
H217	H	-0.329849	0.856839	-0.755490
H218	H	0.170151	1.356839	-0.255490
C219	C	-0.555762	0.996821	-0.646442
C220	C	-0.055762	1.496821	-0.146442
H221	H	-0.590114	1.018135	-0.682069
H222	H	-0.090114	1.518135	-0.182069
H223	H	-0.595073	0.965802	-0.623960
H224	H	-0.095073	1.465802	-0.123960
H225	H	-0.521262	1.030804	-0.614398
H226	H	-0.021262	1.530804	-0.114398
H227	H	-0.539181	0.650378	-0.317376
H228	H	-0.039181	1.150378	0.182624
H229	H	-0.329738	0.856924	-1.111247
H230	H	0.170262	1.356924	-0.611247
H231	H	-0.539126	0.986715	-1.138390
H232	H	-0.039126	1.486715	-0.638390
C233	C	-0.555659	0.996899	-1.002196
C234	C	-0.055659	1.496899	-0.502196
H235	H	-0.547421	0.991762	-0.953967
H236	H	-0.047421	1.491762	-0.453967
H237	H	-0.542462	1.044098	-1.012074
H238	H	-0.042462	1.544098	-0.512074
H239	H	-0.616270	0.979094	-1.021639
H240	H	-0.116270	1.479094	-0.521639
C241	C	-0.313642	0.689876	-0.457852
C242	C	0.186358	1.189876	0.042148
H243	H	-0.279324	0.663174	-0.479221
H244	H	0.220676	1.163174	0.020779
H245	H	-0.348197	0.712967	-0.491780
H246	H	0.151803	1.212967	0.008220
H247	H	-0.274282	0.722561	-0.426898
H248	H	0.225718	1.222561	0.073102
H249	H	-0.330154	0.321863	-0.447632
H250	H	0.169846	0.821863	0.052368
