data_functionalizedCrystal
_audit_creation_method	'MofGen! by Chris Wilmer'
_symmetry_space_group_name_H-M	'P1'
_symmetry_Int_Tables_number	1
_symmetry_cell_setting	triclinic
loop_
_symmetry_equiv_pos_as_xyz
  x,y,z
_cell_length_a	17.038272
_cell_length_b	10.540539
_cell_length_c	9.016244
_cell_angle_alpha	90.000067
_cell_angle_beta	90.001827
_cell_angle_gamma	87.818524
loop_
_atom_site_label
_atom_site_type_symbol
_atom_site_fract_x
_atom_site_fract_y
_atom_site_fract_z
O1	O	-1.038955	-0.275808	-0.123143
O2	O	-0.811299	-0.271428	-0.123187
O3	O	-0.930321	-0.089396	-0.123162
O4	O	-0.919933	-0.457840	-0.123168
O5	O	-0.930303	-0.089398	0.123519
O6	O	-0.811282	-0.271431	0.123494
O7	O	-1.038937	-0.275810	0.123538
Cu8	Cu	-0.925108	-0.273621	0.146040
Cu9	Cu	-0.925129	-0.273618	-0.145689
O10	O	-0.919916	-0.457842	0.123513
C11	C	-0.782139	-0.267446	0.000148
C12	C	-0.695278	-0.255562	0.000131
C13	C	-0.929533	-0.042021	0.000175
C14	C	-0.927202	0.099144	0.000167
C15	C	-1.068097	-0.279792	0.000200
C16	C	-1.154958	-0.291676	0.000207
C17	C	-0.645791	-0.364672	0.000130
C18	C	-0.564176	-0.353498	0.000151
C19	C	-0.532050	-0.233213	0.000162
C20	C	-0.581544	-0.124094	0.000167
C21	C	-0.663157	-0.135270	0.000156
C22	C	-0.286065	-0.193733	0.000202
C23	C	-0.204446	-0.182566	0.000207
C24	C	-0.187084	-0.411971	0.000195
C25	C	-0.268699	-0.423136	0.000176
C26	C	-0.318186	-0.314017	0.000188
C27	C	-0.448627	-0.221788	0.000178
C28	C	-0.401607	-0.325443	0.000183
C29	C	-0.920703	-0.505217	0.000172
C30	C	-0.923034	-0.646382	0.000171
N31	N	-0.925099	-0.273623	0.351226
C32	C	-0.837895	0.290901	-0.000404
C33	C	-0.840258	0.144063	0.000152
C34	C	-0.969034	0.156897	0.141042
C35	C	-0.966067	0.303719	0.141160
C36	C	-0.967855	0.304075	-0.139362
C37	C	-0.968656	0.157018	-0.141224
N38	N	-0.925144	-0.273606	-0.350875
C39	C	-0.861235	-0.370633	0.586245
C40	C	-0.861376	-0.371032	0.414354
C41	C	-1.006891	-0.311386	0.413580
C42	C	-1.006543	-0.312082	0.585524
C43	C	-0.907983	-0.138588	0.585767
C44	C	-0.906106	-0.139277	0.413813
H45	H	-0.671941	-0.462621	0.000121
F46	F	-0.875769	-0.501765	0.360567
H47	H	-1.030655	0.345443	-0.140297
F48	F	-1.052490	0.119897	0.147909
F49	F	-0.134411	-0.528094	0.000184
H50	H	-0.949570	-0.063011	0.370846
H51	H	-0.555381	-0.026155	0.000196
F52	F	-0.968887	-0.044075	0.638915
F53	F	-1.047794	0.358797	0.149544
F54	F	-0.925636	0.344350	0.278784
H55	H	-1.022235	-0.409055	0.370504
F56	F	-1.070562	-0.223720	0.639894
H57	H	-1.032046	0.126884	-0.149718
H58	H	-0.800271	-0.347094	0.627627
F59	F	-0.170258	-0.054536	0.000244
F60	F	-0.715825	-0.019139	0.000162
H61	H	-0.845935	-0.110824	0.373060
F62	F	-0.414429	-0.093775	0.000184
H63	H	-0.939723	0.338254	-0.246135
F64	F	-0.511511	-0.469629	0.000144
F65	F	-0.931035	0.104763	0.278056
H66	H	-0.938048	0.119017	-0.245439
F67	F	-0.302883	-0.551160	0.000157
H68	H	-0.800602	-0.347232	0.372198
F69	F	-1.070572	-0.221957	0.360135
H70	H	-0.872122	-0.470072	0.629439
H71	H	-0.326348	-0.104880	0.000213
F72	F	-0.797234	0.092389	-0.131843
H73	H	-0.849600	-0.104462	0.629204
H74	H	-1.021551	-0.410820	0.625615
H75	H	-0.427768	-0.423379	0.000182
H76	H	-0.803557	0.322706	-0.101428
H77	H	-0.803683	0.324298	0.100042
F78	F	-0.796911	0.093519	0.132347
