data_functionalizedCrystal
_audit_creation_method	'MofGen! by Chris Wilmer'
_symmetry_space_group_name_H-M	'P1'
_symmetry_Int_Tables_number	1
_symmetry_cell_setting	triclinic
loop_
_symmetry_equiv_pos_as_xyz
  x,y,z
_cell_length_a	16.793024
_cell_length_b	16.793047
_cell_length_c	33.586455
_cell_angle_alpha	113.253857
_cell_angle_beta	66.219990
_cell_angle_gamma	112.758327
loop_
_atom_site_label
_atom_site_type_symbol
_atom_site_fract_x
_atom_site_fract_y
_atom_site_fract_z
O1	O	0.005016	-0.570216	-0.583573
O2	O	-0.034529	-0.474528	-0.453458
O3	O	0.114723	-0.474535	-0.528082
O4	O	-0.144235	-0.570209	-0.508949
O5	O	0.108729	-0.346329	-0.530229
O6	O	-0.040523	-0.346322	-0.455605
O7	O	-0.000977	-0.442010	-0.585721
Zn8	Zn	-0.021701	-0.373810	-0.521004
Zn9	Zn	-0.013805	-0.542728	-0.518175
O10	O	-0.150229	-0.442003	-0.511097
C11	C	0.005100	-0.790970	-0.238461
C12	C	0.009223	-0.693065	-0.217557
C13	C	0.003804	-0.645758	-0.241627
C14	C	-0.075059	-0.538459	-0.266316
C15	C	0.049838	-0.422849	-0.250165
C16	C	-0.040584	-0.395375	-0.435637
C17	C	-0.044693	-0.353446	-0.386631
C18	C	-0.039275	-0.401741	-0.363054
C19	C	-0.040566	-0.125547	-0.300731
C20	C	-0.044689	-0.223451	-0.321635
C21	C	-0.039266	-0.270752	-0.297563
C22	C	0.039597	-0.378051	-0.272874
C23	C	-0.085304	-0.493667	-0.289026
C24	C	0.005118	-0.521142	-0.103554
C25	C	0.009231	-0.563064	-0.152559
C26	C	0.003809	-0.514775	-0.176138
C27	C	0.010758	-0.652581	-0.172822
C28	C	0.001010	-0.556371	-0.220792
C29	C	-0.008251	-0.506059	-0.245823
C30	C	-0.046224	-0.263935	-0.366370
C31	C	-0.036476	-0.360146	-0.318399
C32	C	-0.027211	-0.410451	-0.293367
C33	C	0.815184	-0.521162	-0.508596
C34	C	0.415541	-0.125553	-0.528781
C35	C	0.375032	-0.223457	-0.531493
C36	C	0.423813	-0.270761	-0.529101
C37	C	0.149318	-0.395376	-0.530584
C38	C	0.246774	-0.353455	-0.532364
C39	C	0.294574	-0.401748	-0.529976
C40	C	0.548961	-0.790984	-0.510398
C41	C	0.286104	-0.263940	-0.532530
C42	C	0.383336	-0.360149	-0.528302
C43	C	0.432207	-0.407971	-0.525810
C44	C	0.392316	-0.497392	-0.524993
C45	C	0.303554	-0.538991	-0.526667
C46	C	0.254683	-0.491169	-0.529159
C47	C	0.263666	-0.628421	-0.525851
C48	C	0.312537	-0.676243	-0.523359
C49	C	0.401299	-0.634644	-0.521685
C50	C	0.441190	-0.545223	-0.522502
C51	C	0.529952	-0.503624	-0.520828
C52	C	0.578823	-0.551446	-0.518336
C53	C	0.538939	-0.640864	-0.517520
C54	C	0.450177	-0.682463	-0.519194
C55	C	0.587810	-0.688687	-0.515028
C56	C	0.676572	-0.647088	-0.513354
C57	C	0.716463	-0.557666	-0.514172
C58	C	0.667586	-0.509847	-0.516662
C59	C	0.569840	-0.414195	-0.521644
C60	C	0.658602	-0.372596	-0.519970
C61	C	0.707476	-0.420426	-0.517480
C62	C	0.698493	-0.283174	-0.520788
C63	C	0.649622	-0.235352	-0.523280
C64	C	0.560860	-0.276951	-0.524954
C65	C	0.520969	-0.366372	-0.524136
C66	C	0.511989	-0.229129	-0.527446
C67	C	-0.040530	-0.395407	-0.935652
C68	C	0.005063	-0.791004	-0.738448
C69	C	0.009186	-0.693099	-0.717543
C70	C	0.003779	-0.645796	-0.741620
C71	C	0.005077	-0.521171	-0.603544
C72	C	0.009198	-0.563096	-0.652550
C73	C	0.003786	-0.514804	-0.676131
C74	C	-0.040516	-0.125574	-0.800747
C75	C	0.010719	-0.652613	-0.672809
C76	C	0.000994	-0.556406	-0.720789
C77	C	-0.004621	-0.508585	-0.744908
C78	C	-0.007444	-0.419162	-0.724369
C79	C	-0.004651	-0.377560	-0.679711
C80	C	0.000964	-0.425381	-0.655592
C81	C	-0.007471	-0.288129	-0.659174
C82	C	-0.013086	-0.240308	-0.683293
C83	C	-0.015878	-0.281910	-0.727951
C84	C	-0.013056	-0.371333	-0.748490
C85	C	-0.015848	-0.412935	-0.793148
C86	C	-0.021463	-0.365114	-0.817267
C87	C	-0.024282	-0.275694	-0.796731
C88	C	-0.021490	-0.234092	-0.752073
C89	C	-0.029897	-0.227873	-0.820850
C90	C	-0.032690	-0.269476	-0.865508
C91	C	-0.029867	-0.358899	-0.886047
C92	C	-0.024255	-0.406717	-0.861925
C93	C	-0.013028	-0.502367	-0.813685
C94	C	-0.015821	-0.543969	-0.858343
C95	C	-0.021433	-0.496140	-0.882464
C96	C	-0.012998	-0.633392	-0.878882
C97	C	-0.007383	-0.681213	-0.854763
C98	C	-0.004591	-0.639611	-0.810105
C99	C	-0.007414	-0.550188	-0.789566
C100	C	0.001024	-0.687432	-0.785986
O101	O	-0.000965	0.173549	-0.277957
O102	O	-0.040516	-0.085616	-0.325254
O103	O	0.108737	0.059592	-0.327284
O104	O	-0.150219	0.028341	-0.275927
O105	O	0.114753	0.055151	-0.263265
O106	O	-0.034500	-0.090057	-0.261234
O107	O	0.005051	0.169108	-0.213937
Zn108	Zn	-0.013769	0.038820	-0.227421
Zn109	Zn	-0.021696	0.044672	-0.311770
O110	O	-0.144202	0.023900	-0.211907
O111	O	-0.034458	-0.474571	0.046517
O112	O	0.005076	-0.570190	-0.083599
O113	O	-0.144170	-0.570237	-0.008972
O114	O	0.114787	-0.474523	-0.028110
O115	O	-0.150200	-0.442024	-0.011093
O116	O	-0.000954	-0.441976	-0.085720
O117	O	-0.040488	-0.346357	0.044396
Zn118	Zn	-0.021679	-0.373810	-0.020999
Zn119	Zn	-0.013734	-0.542737	-0.018204
O120	O	0.108757	-0.346309	-0.030231
C121	C	-0.850734	0.086244	-0.289716
C122	C	-0.753280	0.087165	-0.312001
C123	C	-0.705462	0.081107	-0.288506
C124	C	-0.599592	0.000085	-0.264184
C125	C	-0.481080	0.121287	-0.283645
C126	C	-0.450996	0.035117	-0.097351
C127	C	-0.410501	0.028587	-0.146852
C128	C	-0.459292	0.034683	-0.169840
C129	C	-0.184802	0.024283	-0.235878
C130	C	-0.282257	0.023363	-0.213592
C131	C	-0.330068	0.029423	-0.237088
C132	C	-0.435938	0.110445	-0.261411
C133	C	-0.554456	-0.010759	-0.241948
C134	C	-0.584541	0.075410	-0.428242
C135	C	-0.625029	0.081943	-0.378743
C136	C	-0.576244	0.075844	-0.355753
C137	C	-0.713963	0.086424	-0.357292
C138	C	-0.616708	0.075351	-0.310510
C139	C	-0.565963	0.065400	-0.286043
C140	C	-0.321573	0.024104	-0.168302
C141	C	-0.418828	0.035176	-0.215083
C142	C	-0.469568	0.045131	-0.239552
O143	O	0.585213	0.169090	-0.504004
O144	O	0.494056	-0.090076	-0.525516
O145	O	0.488081	0.055124	-0.449918
O146	O	0.591189	0.023889	-0.579602
O147	O	0.359978	0.059584	-0.452885
O148	O	0.365953	-0.085616	-0.528483
O149	O	0.457110	0.173550	-0.506971
Zn150	Zn	0.391193	0.044675	-0.518198
Zn151	Zn	0.559974	0.038798	-0.514289
O152	O	0.463086	0.028349	-0.582569
C153	C	0.815354	-0.521094	-0.008709
C154	C	0.717898	-0.563028	-0.006927
C155	C	0.670072	-0.514739	-0.009298
C156	C	0.564182	-0.463204	-0.048354
C157	C	0.445681	-0.498945	0.013847
C158	C	0.415547	-0.125494	-0.028771
C159	C	0.375059	-0.223405	-0.031498
C160	C	0.423859	-0.270708	-0.029121
C161	C	0.149365	-0.395355	-0.030599
C162	C	0.246820	-0.353421	-0.032381
C163	C	0.294640	-0.401713	-0.030008
C164	C	0.400530	-0.453248	0.009048
C165	C	0.519038	-0.417504	-0.053155
C166	C	0.549171	-0.790955	-0.010537
C167	C	0.589653	-0.693047	-0.007809
C168	C	0.540859	-0.645741	-0.010187
C169	C	0.678588	-0.652551	-0.006775
C170	C	0.581317	-0.556344	-0.010973
C171	C	0.530562	-0.506029	-0.015250
C172	C	0.286131	-0.263897	-0.032533
C173	C	0.383402	-0.360104	-0.028335
C174	C	0.434150	-0.410423	-0.024057
O175	O	-0.620614	0.089309	0.052274
O176	O	-0.529507	0.043784	-0.078544
O177	O	-0.523494	0.194833	-0.006033
O178	O	-0.626628	-0.061740	-0.020236
O179	O	-0.395386	0.185419	-0.005549
O180	O	-0.401400	0.034370	-0.078059
O181	O	-0.492507	0.079895	0.052758
Zn182	Zn	-0.426614	0.055638	-0.012574
Zn183	Zn	-0.595401	0.068041	-0.013212
O184	O	-0.498521	-0.071154	-0.019752
C185	C	-0.437537	0.048335	0.402491
C186	C	-0.397043	0.041789	0.352989
C187	C	-0.445822	0.047883	0.329994
C188	C	-0.496646	0.126653	0.277022
C189	C	-0.465894	-0.000633	0.218811
C190	C	-0.837226	0.099430	0.210091
C191	C	-0.739773	0.100339	0.187806
C192	C	-0.691967	0.094287	0.211308
C193	C	-0.571027	0.088563	0.071568
C194	C	-0.611521	0.095108	0.121070
C195	C	-0.562739	0.089011	0.144061
C196	C	-0.511915	0.010241	0.197033
C197	C	-0.542670	0.137531	0.255247
C198	C	-0.171338	0.037467	0.263967
C199	C	-0.268788	0.036555	0.286249
C200	C	-0.316597	0.042611	0.262750
C201	C	-0.308112	0.037305	0.331542
C202	C	-0.405351	0.048369	0.284750
C203	C	-0.456092	0.058317	0.260279
C204	C	-0.700452	0.099593	0.142516
C205	C	-0.603213	0.088528	0.189308
C206	C	-0.552469	0.078578	0.213776
O207	O	-0.040608	-1.085661	-0.825229
O208	O	-0.001018	-0.826491	-0.777938
O209	O	-0.150287	-0.971682	-0.775894
O210	O	0.108661	-0.940470	-0.827272
O211	O	-0.144253	-0.976123	-0.711878
O212	O	0.005016	-0.830932	-0.713922
O213	O	-0.034575	-1.090102	-0.761213
Zn214	Zn	-0.013821	-0.961222	-0.727403
Zn215	Zn	-0.021771	-0.955371	-0.811747
O216	O	0.114695	-0.944911	-0.763256
O217	O	-0.036862	-0.230384	-0.253947
C218	C	-0.113095	-0.156247	-0.177817
C219	C	-0.115936	-0.201960	-0.227192
H220	H	-0.177010	-0.133236	-0.156173
H221	H	-0.108751	-0.206109	-0.164063
H222	H	-0.051377	-0.095492	-0.176669
H223	H	-0.177648	-0.262709	-0.228380
H224	H	-0.120232	-0.152039	-0.240925
H225	H	0.191099	-0.662437	-0.527221
O226	O	-0.428119	-0.070596	0.200039
C227	C	-0.341443	-0.146752	0.207524
C228	C	-0.384197	-0.067495	0.228837
H229	H	-0.305906	-0.144261	0.230792
H230	H	-0.396479	-0.212976	0.202821
H231	H	-0.290236	-0.141660	0.173157
H232	H	-0.435396	-0.072501	0.263214
H233	H	-0.329111	-0.001304	0.233505
H234	H	0.496488	-0.236853	-0.027824
H235	H	-0.586315	-0.066836	-0.224702
O236	O	-0.015881	-0.153089	-0.663322
C237	C	-0.024517	-0.020789	-0.671632
C238	C	-0.021377	-0.119565	-0.694299
H239	H	-0.028943	0.006351	-0.696670
H240	H	-0.086244	-0.016661	-0.640430
H241	H	0.039381	0.021089	-0.661022
H242	H	-0.085231	-0.161502	-0.704938
H243	H	0.040390	-0.123623	-0.725481
O244	O	0.237846	-0.216325	-0.533700
C245	C	0.106274	-0.159747	-0.496749
C246	C	0.160855	-0.213669	-0.495366
H247	H	0.044006	-0.157598	-0.465765
H248	H	0.150120	-0.088210	-0.496642
H249	H	0.084259	-0.193570	-0.528887
H250	H	0.182880	-0.179924	-0.463233
H251	H	0.116976	-0.285205	-0.495498
O252	O	0.726642	-0.700197	-0.005461
C253	C	0.737571	-0.783979	0.035268
C254	C	0.683050	-0.730072	0.033823
H255	H	0.702359	-0.808133	0.067031
H256	H	0.742314	-0.844552	0.003903
H257	H	0.808451	-0.739099	0.035953
H258	H	0.612144	-0.774879	0.033153
H259	H	0.678382	-0.669491	0.065186
O260	O	0.688378	-0.148110	-0.524061
C261	C	0.670046	-0.015845	-0.527563
C262	C	0.626037	-0.114631	-0.526671
H263	H	0.619670	0.011246	-0.529683
H264	H	0.690643	0.026119	-0.495323
H265	H	0.732441	-0.011789	-0.558380
H266	H	0.563613	-0.118773	-0.495875
H267	H	0.605505	-0.156551	-0.558931
H268	H	0.003251	-0.391359	-0.619081
H269	H	-0.503619	0.071273	-0.373665
O270	O	-0.259993	0.033634	0.354759
C271	C	-0.199409	0.107027	0.418257
C272	C	-0.253942	0.111284	0.392014
H273	H	-0.194483	0.169808	0.448377
H274	H	-0.234712	0.044639	0.430963
H275	H	-0.128600	0.103504	0.394833
H276	H	-0.324758	0.114840	0.415410
H277	H	-0.218568	0.173662	0.379301
H278	H	0.468233	-0.679598	-0.011487
H279	H	-0.490116	0.084434	0.126151
O280	O	0.097545	-0.296181	-0.276264
C281	C	0.227250	-0.179698	-0.257468
C282	C	0.161702	-0.272437	-0.253606
H283	H	0.279125	-0.160464	-0.239145
H284	H	0.263437	-0.182778	-0.294754
H285	H	0.187666	-0.127161	-0.241337
H286	H	0.201217	-0.325024	-0.269713
H287	H	0.125513	-0.269282	-0.216313
O288	O	0.014007	-0.700215	-0.649086
C289	C	0.096388	-0.784302	-0.644267
C290	C	0.092793	-0.730395	-0.671172
H291	H	0.160071	-0.808734	-0.662117
H292	H	0.097401	-0.739431	-0.608554
H293	H	0.034307	-0.844708	-0.642226
H294	H	0.154861	-0.669986	-0.673248
H295	H	0.091735	-0.775327	-0.706870
H296	H	-0.531920	0.039247	-0.151930
O297	O	-0.277309	0.043081	0.218612
C298	C	-0.231305	0.124160	0.164173
C299	C	-0.275802	0.123756	0.214177
H300	H	-0.230089	0.189371	0.160569
H301	H	-0.159196	0.119003	0.152578
H302	H	-0.271749	0.064364	0.142347
H303	H	-0.235430	0.183544	0.236038
H304	H	-0.347917	0.128869	0.225736
O305	O	-0.744826	0.080623	-0.244372
C306	C	-0.866536	0.006079	-0.190887
C307	C	-0.822036	0.006505	-0.240887
H308	H	-0.928978	-0.053827	-0.188052
H309	H	-0.816455	0.000637	-0.177772
H310	H	-0.887150	0.071163	-0.169814
H311	H	-0.801421	-0.058564	-0.261996
H312	H	-0.872144	0.011996	-0.253966
O313	O	-0.443192	0.188274	-0.304156
C314	C	-0.456177	0.322471	-0.308414
C315	C	-0.499173	0.246675	-0.285140
H316	H	-0.501428	0.369698	-0.293056
H317	H	-0.386899	0.361834	-0.303174
H318	H	-0.448400	0.291953	-0.346270
H319	H	-0.507012	0.277119	-0.247278
H320	H	-0.568424	0.207322	-0.290417
O321	O	-0.273451	0.020427	-0.145088
C322	C	-0.212871	0.093807	-0.081589
C323	C	-0.267404	0.098072	-0.107829
H324	H	-0.207948	0.156583	-0.051466
H325	H	-0.248172	0.031414	-0.068887
H326	H	-0.142060	0.090289	-0.105012
H327	H	-0.338221	0.101623	-0.084434
H328	H	-0.232032	0.160455	-0.120538
H329	H	0.107243	-0.392097	-0.234140
H330	H	0.182115	-0.525189	-0.530531
O331	O	0.556892	-0.377435	-0.087132
C332	C	0.543985	-0.368602	-0.154082
C333	C	0.500999	-0.414041	-0.115623
H334	H	0.498824	-0.398194	-0.177133
H335	H	0.551703	-0.293104	-0.138957
H336	H	0.613297	-0.380912	-0.174645
H337	H	0.431667	-0.401801	-0.095046
H338	H	0.493350	-0.489525	-0.130777
O339	O	-0.036588	-0.488963	-0.383247
C340	C	0.047267	-0.596536	-0.407015
C341	C	0.044330	-0.497733	-0.384127
H342	H	0.112692	-0.603656	-0.407743
H343	H	-0.012938	-0.641349	-0.387091
H344	H	0.044244	-0.617739	-0.443189
H345	H	0.047380	-0.476446	-0.347954
H346	H	0.104528	-0.452978	-0.404086
O347	O	-0.748488	0.103507	0.119332
C348	C	-0.759392	0.185219	0.077559
C349	C	-0.704892	0.180886	0.103795
H350	H	-0.724177	0.247784	0.064998
H351	H	-0.764112	0.122606	0.047340
H352	H	-0.830281	0.188501	0.100946
H353	H	-0.633978	0.177633	0.080445
H354	H	-0.700247	0.243497	0.134018
H355	H	-0.005182	-0.254109	-0.622664
O356	O	-0.580363	0.207552	0.274016
C357	C	-0.585725	0.341493	0.265848
C358	C	-0.542979	0.262230	0.244538
H359	H	-0.555504	0.385732	0.242029
H360	H	-0.661890	0.314467	0.271644
H361	H	-0.571380	0.382994	0.299667
H362	H	-0.557254	0.220697	0.210708
H363	H	-0.466826	0.289314	0.238776
H364	H	-0.669612	-0.046576	-0.265443
O365	O	-0.050588	-0.224762	-0.885623
C366	C	-0.004290	-0.091449	-0.909271
C367	C	0.016095	-0.141998	-0.886492
H368	H	0.049600	-0.024517	-0.909972
H369	H	-0.004149	-0.133938	-0.945445
H370	H	-0.073461	-0.078449	-0.889230
H371	H	0.085267	-0.155007	-0.906496
H372	H	0.015894	-0.099484	-0.850315
H373	H	0.710767	-0.684484	-0.506030
H374	H	-0.518447	0.052455	0.347905
H375	H	-0.754334	0.089615	-0.376700
O376	O	0.317062	-0.447908	0.038071
C377	C	0.227964	-0.399785	0.115622
C378	C	0.322550	-0.405745	0.082801
H379	H	0.232366	-0.365715	0.151794
H380	H	0.201346	-0.358823	0.106147
H381	H	0.180140	-0.470472	0.113220
H382	H	0.370442	-0.335095	0.085185
H383	H	0.349094	-0.446755	0.092286
O384	O	0.255244	-0.488930	-0.029260
C385	C	0.133627	-0.592609	0.009690
C386	C	0.178134	-0.493804	0.008890
H387	H	0.071286	-0.596580	0.040537
H388	H	0.112886	-0.634243	-0.022535
H389	H	0.183808	-0.620149	0.011676
H390	H	0.128001	-0.466183	0.006921
H391	H	0.198894	-0.452233	0.041115
O392	O	-0.015740	-0.674113	-0.922434
C393	C	-0.015038	-0.809651	-0.984825
C394	C	-0.011947	-0.763651	-0.935497
H395	H	-0.011953	-0.882044	-0.995405
H396	H	-0.080496	-0.809444	-0.987511
H397	H	0.045118	-0.771489	-1.008088
H398	H	-0.072057	-0.801776	-0.912204
H399	H	0.053550	-0.763847	-0.932848
H400	H	0.702991	-0.441593	-0.009870
O401	O	-0.488814	0.185455	0.317864
C402	C	-0.524718	0.317781	0.376554
C403	C	-0.533668	0.251244	0.330304
H404	H	-0.560959	0.370999	0.386621
H405	H	-0.556344	0.279852	0.403295
H406	H	-0.450159	0.351786	0.373971
H407	H	-0.608204	0.217220	0.332843
H408	H	-0.501985	0.289220	0.303581
H409	H	-0.518563	-0.039000	0.162804
O410	O	0.407803	-0.538958	0.047846
C411	C	0.420808	-0.547857	0.114756
C412	C	0.463791	-0.502453	0.076285
H413	H	0.466064	-0.518374	0.137754
H414	H	0.351528	-0.535509	0.135381
H415	H	0.413036	-0.623357	0.099594
H416	H	0.471625	-0.426941	0.091409
H417	H	0.533042	-0.514873	0.055666
O418	O	-0.731176	0.093847	0.255453
C419	C	-0.777253	0.012712	0.309876
C420	C	-0.732814	0.013102	0.259869
H421	H	-0.778609	-0.052572	0.313461
H422	H	-0.736795	0.072430	0.331726
H423	H	-0.849320	0.017969	0.321457
H424	H	-0.660750	0.007816	0.248246
H425	H	-0.773339	-0.046607	0.238049
H426	H	0.245737	-0.223998	-0.033572
O427	O	-0.132972	-0.620359	-0.262946
C428	C	-0.262774	-0.736779	-0.281668
C429	C	-0.197237	-0.644033	-0.285528
H430	H	-0.314760	-0.755940	-0.299914
H431	H	-0.223283	-0.789401	-0.297832
H432	H	-0.298833	-0.733626	-0.244367
H433	H	-0.161161	-0.647098	-0.322817
H434	H	-0.236777	-0.591449	-0.269336
H435	H	0.417564	-0.755580	-0.518528
H436	H	0.001660	-0.441639	-0.159184
O437	O	-0.049524	-0.216405	-0.390125
C438	C	-0.131927	-0.204545	-0.431045
C439	C	-0.128318	-0.258447	-0.404142
H440	H	-0.195616	-0.238525	-0.442393
H441	H	-0.132936	-0.133089	-0.408598
H442	H	-0.069853	-0.202148	-0.462092
H443	H	-0.190379	-0.260916	-0.373094
H444	H	-0.127263	-0.329875	-0.426621
O445	O	-0.153708	-0.530240	-0.308192
C446	C	-0.227835	-0.512901	-0.351367
C447	C	-0.150318	-0.471390	-0.329691
H448	H	-0.225131	-0.465331	-0.368745
H449	H	-0.220447	-0.580205	-0.377466
H450	H	-0.295360	-0.523877	-0.323904
H451	H	-0.082756	-0.460355	-0.357121
H452	H	-0.157786	-0.404117	-0.303582
H453	H	-0.023809	-0.160979	-0.735279
H454	H	0.013390	-0.692483	-0.152899
O455	O	-0.004788	-0.768489	-0.874748
C456	C	-0.076121	-0.922463	-0.872616
C457	C	-0.079184	-0.823667	-0.849943
H458	H	-0.136253	-0.967101	-0.852565
H459	H	-0.079150	-0.944142	-0.908820
H460	H	-0.010644	-0.929276	-0.873232
H461	H	-0.144650	-0.816779	-0.849293
H462	H	-0.076106	-0.802033	-0.813751
H463	H	0.001650	-0.679613	-0.278166
O464	O	-0.290821	0.029578	-0.281271
C465	C	-0.220791	-0.050593	-0.357318
C466	C	-0.265234	-0.050882	-0.307297
H467	H	-0.200074	-0.115629	-0.378372
H468	H	-0.270919	-0.045271	-0.370446
H469	H	-0.158416	0.009378	-0.360159
H470	H	-0.327602	-0.110846	-0.304417
H471	H	-0.215046	-0.056158	-0.294191
O472	O	-0.352442	0.166107	-0.259836
C473	C	-0.259346	0.275066	-0.212575
C474	C	-0.353952	0.212061	-0.214289
H475	H	-0.260539	0.312252	-0.175754
H476	H	-0.208257	0.233729	-0.228849
H477	H	-0.239216	0.325911	-0.231859
H478	H	-0.374166	0.161205	-0.195001
H479	H	-0.404984	0.253457	-0.198030
H480	H	0.780052	-0.386407	-0.516111
O481	O	0.273508	-0.763471	-0.522589
C482	C	0.140183	-0.888881	-0.523681
C483	C	0.184280	-0.790098	-0.524568
H484	H	0.068030	-0.910434	-0.525271
H485	H	0.180744	-0.933608	-0.554070
H486	H	0.139117	-0.895714	-0.491009
H487	H	0.185355	-0.783179	-0.557220
H488	H	0.143705	-0.745419	-0.494156
O489	O	0.647726	-0.468341	-0.077346
C490	C	0.767106	-0.427305	-0.141957
C491	C	0.672497	-0.421405	-0.109149
H492	H	0.787154	-0.389379	-0.167683
H493	H	0.818238	-0.396049	-0.122000
H494	H	0.765938	-0.500922	-0.160493
H495	H	0.673576	-0.347813	-0.090605
H496	H	0.621405	-0.452716	-0.129130
H497	H	0.771070	-0.249160	-0.519423
H498	H	0.003321	-0.760550	-0.802778
H499	H	0.544602	-0.156012	-0.528109
H500	H	-0.023718	-0.530163	-0.918978
