data_functionalizedCrystal
_audit_creation_method	'MofGen! by Chris Wilmer'
_symmetry_space_group_name_H-M	'P1'
_symmetry_Int_Tables_number	1
_symmetry_cell_setting	triclinic
loop_
_symmetry_equiv_pos_as_xyz
  x,y,z
_cell_length_a	10.654541
_cell_length_b	15.455313
_cell_length_c	16.974813
_cell_angle_alpha	89.012317
_cell_angle_beta	83.938554
_cell_angle_gamma	87.294234
loop_
_atom_site_label
_atom_site_type_symbol
_atom_site_fract_x
_atom_site_fract_y
_atom_site_fract_z
O1	O	1.672200	-0.079632	0.107262
O2	O	1.306613	-0.080380	0.117809
O3	O	1.498984	-0.071953	-0.002129
O4	O	1.479828	-0.088059	0.227200
O5	O	1.487983	0.071830	0.004701
O6	O	1.295612	0.063403	0.124639
O7	O	1.661199	0.064150	0.114092
Cu8	Cu	1.477401	0.076905	0.119989
Cu9	Cu	1.490411	-0.093134	0.111912
O10	O	1.468828	0.055723	0.234030
C11	C	1.254323	-0.008435	0.120450
C12	C	1.114903	-0.008275	0.118134
N13	N	1.468260	0.196501	0.125670
N14	N	1.499562	-0.212730	0.106225
C15	C	1.085463	-0.018359	0.261553
C16	C	1.005246	-0.023327	0.332170
C17	C	0.874251	-0.023175	0.329990
C18	C	0.823471	-0.018051	0.257183
C19	C	0.903688	-0.013082	0.186565
C20	C	1.034685	-0.013238	0.188754
C21	C	0.933126	-0.002993	0.043149
C22	C	1.064123	-0.003151	0.045328
C23	C	0.882346	0.002131	-0.029658
C24	C	0.962564	0.007094	-0.100278
C25	C	1.093567	0.006940	-0.098094
C26	C	1.144340	0.001817	-0.025290
C27	C	1.713489	-0.007796	0.111451
C28	C	1.852909	-0.007961	0.113767
C29	C	1.492551	0.001999	-0.028079
C30	C	1.489756	0.008138	-0.115577
C31	C	1.550014	0.245474	0.074735
C32	C	1.543113	0.335980	0.079038
C33	C	1.454462	0.377510	0.134281
C34	C	1.372699	0.328531	0.185218
C35	C	1.379595	0.238028	0.180911
C36	C	1.424695	0.647787	0.152854
C37	C	1.417807	0.738297	0.157160
C38	C	1.588221	0.745740	0.050978
C39	C	1.595114	0.655234	0.046679
C40	C	1.513347	0.606262	0.097613
N41	N	1.447408	0.470021	0.138683
N42	N	1.520395	0.513753	0.093207
C43	C	1.494442	-0.067353	-0.160402
C44	C	1.491807	-0.061581	-0.242615
C45	C	1.484496	0.019682	-0.280002
C46	C	1.479805	0.095178	-0.235170
C47	C	1.482431	0.089406	-0.152958
C48	C	1.475992	0.045349	-0.525479
C49	C	1.473370	0.051116	-0.607697
C50	C	1.485370	-0.105644	-0.615136
C51	C	1.488003	-0.111409	-0.532923
C52	C	1.483306	-0.035913	-0.488098
N53	N	1.481807	0.025583	-0.364036
N54	N	1.485986	-0.041815	-0.404064
C55	C	1.475261	-0.018230	0.259980
C56	C	1.478057	-0.024375	0.347478
H57	H	1.192127	-0.018502	0.263335
Br58	Br	1.670342	0.189121	-0.000236
H59	H	1.489192	-0.167109	-0.651641
H60	H	1.654791	0.785620	0.009509
Br61	Br	1.504379	-0.177643	-0.109672
H62	H	1.345613	0.772106	0.202148
Br63	Br	0.765378	-0.029906	0.425829
H64	H	0.921208	0.011264	-0.159551
H65	H	1.478597	0.150879	-0.116461
H66	H	1.158874	0.010989	-0.155600
Br67	Br	1.654062	0.402446	0.009909
Br68	Br	1.322120	0.001601	-0.022321
Br69	Br	1.715431	0.598869	-0.028291
Br70	Br	1.469591	0.147809	-0.464653
H71	H	1.046606	-0.027497	0.391448
Br72	Br	1.313731	0.581331	0.221979
H73	H	1.495629	-0.123054	-0.279109
Br74	Br	1.252375	0.384891	0.260187
H75	H	1.467410	0.117293	-0.638134
H76	H	0.775681	0.002260	-0.031428
Br77	Br	0.645688	-0.017825	0.254226
Br78	Br	1.268629	0.171564	0.250035
Br79	Br	1.497935	-0.221699	-0.482190
H80	H	1.473844	0.161344	-0.265616
