data_functionalizedCrystal
_audit_creation_method	'MofGen! by Chris Wilmer'
_symmetry_space_group_name_H-M	'P1'
_symmetry_Int_Tables_number	1
_symmetry_cell_setting	triclinic
loop_
_symmetry_equiv_pos_as_xyz
  x,y,z
_cell_length_a	10.654541
_cell_length_b	15.995350
_cell_length_c	9.730217
_cell_angle_alpha	89.998981
_cell_angle_beta	89.999932
_cell_angle_gamma	83.988152
loop_
_atom_site_label
_atom_site_type_symbol
_atom_site_fract_x
_atom_site_fract_y
_atom_site_fract_z
O1	O	1.666302	0.117591	-0.114240
O2	O	2.166302	0.617591	0.385760
O3	O	1.300677	0.128798	-0.114252
O4	O	1.800677	0.628798	0.385748
O5	O	1.493484	0.001365	-0.114244
O6	O	1.993484	0.501365	0.385756
O7	O	1.473495	0.245024	-0.114248
O8	O	1.973495	0.745024	0.385752
O9	O	1.493478	0.001364	0.114336
O10	O	1.993478	0.501364	0.614336
O11	O	1.300671	0.128797	0.114328
O12	O	1.800671	0.628797	0.614328
O13	O	1.666296	0.117590	0.114340
O14	O	2.166296	0.617590	0.614340
Zn15	Zn	1.483483	0.123193	0.150626
Zn16	Zn	1.983483	0.623193	0.650626
Zn17	Zn	1.483491	0.123195	-0.150538
Zn18	Zn	1.983491	0.623195	0.349462
O19	O	1.473489	0.245023	0.114332
O20	O	1.973489	0.745023	0.614332
C21	C	1.253887	0.127975	0.000037
C22	C	1.753887	0.627975	0.500037
C23	C	1.114475	0.125514	0.000032
C24	C	1.614475	0.625514	0.500032
C25	C	1.492655	-0.029835	0.000043
C26	C	1.992655	0.470165	0.500043
C27	C	1.490177	-0.122800	0.000035
C28	C	1.990177	0.377200	0.500035
C29	C	1.084514	0.277895	0.000013
C30	C	1.584514	0.777895	0.500013
C31	C	1.004039	0.352926	-0.000002
C32	C	1.504039	0.852926	0.499998
C33	C	0.873052	0.350609	-0.000003
C34	C	1.373052	0.850609	0.499997
C35	C	0.822537	0.273253	0.000015
C36	C	1.322537	0.773253	0.500015
C37	C	0.903011	0.198222	0.000030
C38	C	1.403011	0.698222	0.500030
C39	C	1.034000	0.200547	0.000027
C40	C	1.534000	0.700547	0.500027
C41	C	0.932972	0.045843	0.000059
C42	C	1.432972	0.545843	0.500059
C43	C	1.063961	0.048158	0.000050
C44	C	1.563961	0.548158	0.500050
C45	C	0.882458	-0.031513	0.000077
C46	C	1.382458	0.468487	0.500077
C47	C	0.962933	-0.106546	0.000082
C48	C	1.462933	0.393454	0.500082
C49	C	1.093928	-0.104226	0.000082
C50	C	1.593928	0.395774	0.500082
C51	C	1.144435	-0.026873	0.000065
C52	C	1.644435	0.473127	0.500065
C53	C	1.481280	-0.460599	0.000039
C54	C	1.981280	0.039401	0.500039
C55	C	1.343966	-0.413961	-0.000477
C56	C	1.843966	0.086039	0.499523
C57	C	1.346444	-0.317257	0.000038
C58	C	1.846444	0.182743	0.500038
C59	C	1.485693	-0.293013	0.000037
C60	C	1.985693	0.206987	0.500037
C61	C	1.553418	-0.333698	0.130567
C62	C	2.053418	0.166302	0.630567
C63	C	1.549969	-0.430354	0.130676
C64	C	2.049969	0.069646	0.630676
C65	C	1.552812	-0.430694	-0.129262
C66	C	2.052812	0.069306	0.370738
C67	C	1.552779	-0.333749	-0.130988
C68	C	2.052779	0.166251	0.369012
C69	C	1.488195	-0.198301	0.000039
C70	C	1.988195	0.301699	0.500039
C71	C	1.478783	-0.555311	0.000046
C72	C	1.978783	-0.055311	0.500046
C73	C	1.713087	0.118413	0.000048
C74	C	2.213087	0.618413	0.500048
C75	C	1.852498	0.120874	0.000044
C76	C	2.352498	0.620874	0.500044
C77	C	1.474318	0.276223	0.000042
C78	C	1.974318	0.776223	0.500042
C79	C	1.476796	0.369188	0.000041
C80	C	1.976796	0.869188	0.500041
N81	N	1.483487	0.123192	0.356163
N82	N	1.983487	0.623192	0.856163
N83	N	1.483497	0.123190	-0.356075
N84	N	1.983497	0.623190	0.143925
C85	C	1.654287	0.010383	0.356160
C86	C	2.154287	0.510383	0.856160
C87	C	1.739695	-0.046019	0.428098
C88	C	2.239695	0.453981	0.928098
C89	C	1.739708	-0.046019	0.571978
C90	C	2.239708	0.453981	1.071978
C91	C	1.654301	0.010387	0.643922
C92	C	2.154301	0.510387	1.143922
C93	C	1.568892	0.066788	0.571984
C94	C	2.068892	0.566788	1.071984
C95	C	1.568891	0.066785	0.428101
C96	C	2.068891	0.566785	0.928101
C97	C	1.398088	0.179592	0.571987
C98	C	1.898088	0.679592	1.071987
C99	C	1.398079	0.179598	0.428107
C100	C	1.898079	0.679598	0.928107
C101	C	1.312681	0.235998	0.643932
C102	C	1.812681	0.735998	1.143932
C103	C	1.227276	0.292405	0.571993
C104	C	1.727276	0.792405	1.071993
C105	C	1.227268	0.292404	0.428105
C106	C	1.727268	0.792404	0.928105
C107	C	1.312671	0.236000	0.356169
C108	C	1.812671	0.736000	0.856169
H109	H	1.191169	0.279789	-0.000016
H110	H	1.691169	0.779789	0.499984
F111	F	1.057810	0.435250	-0.000021
F112	F	1.557810	0.935250	0.499979
H113	H	0.807528	0.411706	-0.000006
H114	H	1.307528	0.911706	0.499994
H115	H	1.809231	-0.091946	0.369508
H116	H	2.309231	0.408054	0.869508
H117	H	1.507920	-0.451494	-0.228196
H118	H	2.007920	0.048506	0.271804
H119	H	1.157738	0.338323	0.630580
H120	H	1.657738	0.838323	1.130580
H121	H	1.654295	0.010385	0.239005
H122	H	2.154295	0.510385	0.739005
H123	H	1.654306	0.010376	0.761077
H124	H	2.154306	0.510376	1.261077
H125	H	1.503264	-0.306787	-0.227550
H126	H	2.003264	0.193213	0.272450
H127	H	1.289324	-0.433873	0.092604
H128	H	1.789324	0.066127	0.592604
F129	F	1.312675	0.235996	0.203039
F130	F	1.812675	0.735996	0.703039
H131	H	1.655721	-0.318979	0.135420
H132	H	2.155721	0.181021	0.635420
H133	H	1.292845	-0.289704	0.093763
H134	H	1.792845	0.210296	0.593763
H135	H	1.809251	-0.091949	0.630550
H136	H	2.309251	0.408051	1.130550
F137	F	1.283842	-0.024397	0.000057
F138	F	1.783842	0.475603	0.500057
H139	H	0.715878	0.271373	0.000030
H140	H	1.215878	0.771373	0.500030
F141	F	1.276860	-0.280508	-0.122263
F142	F	1.776860	0.219492	0.377737
H143	H	1.654326	-0.317798	-0.138870
H144	H	2.154326	0.182202	0.361130
F145	F	0.743048	-0.033977	0.000083
F146	F	1.243048	0.466023	0.500083
F147	F	1.491931	-0.296962	0.257534
F148	F	1.991931	0.203038	0.757534
H149	H	1.500579	-0.448942	0.228250
H150	H	2.000579	0.051058	0.728250
F151	F	1.136356	0.352432	0.351554
F152	F	1.636356	0.852432	0.851554
H153	H	1.654053	-0.461868	-0.130141
H154	H	2.154053	0.038132	0.369859
F155	F	1.312688	0.235993	0.797062
F156	F	1.812688	0.735993	1.297062
H157	H	0.921792	-0.169523	0.000095
H158	H	1.421792	0.330477	0.500095
F159	F	1.272229	-0.438597	-0.122828
F160	F	1.772229	0.061403	0.377172
F161	F	1.179566	-0.184086	0.000108
F162	F	1.679566	0.315914	0.500108
H163	H	1.650782	-0.462017	0.136597
H164	H	2.150782	0.037983	0.636597
