data_functionalizedCrystal
_audit_creation_method	'MofGen! by Chris Wilmer'
_symmetry_space_group_name_H-M	'P1'
_symmetry_Int_Tables_number	1
_symmetry_cell_setting	triclinic
loop_
_symmetry_equiv_pos_as_xyz
  x,y,z
_cell_length_a	10.489741
_cell_length_b	10.489741
_cell_length_c	9.565339
_cell_angle_alpha	89.999484
_cell_angle_beta	89.999100
_cell_angle_gamma	95.460826
loop_
_atom_site_label
_atom_site_type_symbol
_atom_site_fract_x
_atom_site_fract_y
_atom_site_fract_z
O1	O	1.694053	-0.179959	-0.116173
O2	O	1.322857	-0.196852	-0.116194
O3	O	1.516901	-0.002807	-0.116175
O4	O	1.500009	-0.374003	-0.116192
O5	O	1.516886	-0.002819	0.116345
O6	O	1.322842	-0.196864	0.116326
O7	O	1.694038	-0.179971	0.116347
Zn8	Zn	1.508437	-0.188419	0.153254
Zn9	Zn	1.508458	-0.188403	-0.153101
O10	O	1.499993	-0.374015	0.116328
C11	C	1.275318	-0.195582	0.000063
C12	C	1.133688	-0.191765	0.000055
C13	C	1.065548	-0.068300	0.000074
C14	C	0.973429	-0.126617	-0.114571
C15	C	0.973448	-0.126659	0.114676
C16	C	1.043435	-0.250133	-0.114684
C17	C	1.043463	-0.250157	0.114665
C18	C	0.951371	-0.308564	-0.000007
C19	C	1.515618	0.044718	0.000084
C20	C	1.511801	0.186348	0.000082
C21	C	1.741577	-0.181241	0.000087
C22	C	1.883206	-0.185058	0.000086
C23	C	1.501277	-0.421541	0.000066
C24	C	1.505094	-0.563170	0.000059
N25	N	1.508433	-0.188429	0.362334
C26	C	1.388336	0.254488	0.000064
C27	C	1.446652	0.346604	0.114712
C28	C	1.446696	0.346591	-0.114534
C29	C	1.570168	0.276599	0.114824
C30	C	1.570195	0.276576	-0.114525
C31	C	1.628600	0.368665	0.000150
N32	N	1.508472	-0.188383	-0.362180
C33	C	1.418666	-0.278138	0.453528
C34	C	1.534163	-0.303949	0.546712
C35	C	1.392986	-0.162629	0.546704
C36	C	1.623988	-0.214298	0.453466
C37	C	1.482735	-0.072928	0.453451
C38	C	1.598314	-0.098690	0.546593
H39	H	1.286824	0.204837	0.000174
O40	O	1.384124	0.383520	0.230234
C41	C	1.186833	0.366685	0.360895
C42	C	1.257493	0.324807	0.230000
H43	H	1.084448	0.319214	0.360764
H44	H	1.185241	0.475202	0.360309
H45	H	1.238543	0.336574	0.458577
H46	H	1.205839	0.354831	0.132249
H47	H	1.259097	0.216293	0.230709
O48	O	1.124645	0.052858	0.000127
C49	C	1.154644	0.255646	0.119780
C50	C	1.087610	0.118486	0.119888
H51	H	1.124747	0.308737	0.216611
H52	H	1.126041	0.308137	0.021985
H53	H	1.262857	0.251570	0.120702
H54	H	0.979386	0.122445	0.119016
H55	H	1.116317	0.066049	0.217674
H56	H	1.674328	-0.022802	0.587199
O57	O	1.632287	0.239570	-0.230295
C58	C	1.637461	0.232946	-0.482028
C59	C	1.567014	0.274903	-0.351023
H60	H	1.584732	0.261519	-0.579670
H61	H	1.640545	0.124611	-0.480449
H62	H	1.739327	0.281729	-0.482943
H63	H	1.465118	0.226211	-0.350023
H64	H	1.564034	0.383249	-0.352652
O65	O	1.276391	-0.136759	0.595394
C66	C	1.049996	-0.202196	0.603386
C67	C	1.181958	-0.231614	0.548135
H68	H	0.973615	-0.278883	0.565224
H69	H	1.027235	-0.104525	0.563381
H70	H	1.051465	-0.201443	0.722556
H71	H	1.180587	-0.232436	0.428969
H72	H	1.204668	-0.329265	0.588247
O73	O	1.749881	0.427457	0.000043
C74	C	1.952632	0.456946	-0.119743
C75	C	1.815322	0.390279	-0.119787
H76	H	2.005572	0.426934	-0.216630
H77	H	2.005083	0.428147	-0.022004
H78	H	1.948860	0.565199	-0.120604
H79	H	1.818976	0.282015	-0.118976
H80	H	1.762925	0.419183	-0.217519
H81	H	1.721659	-0.236217	0.412683
H82	H	1.622356	0.245762	0.211859
H83	H	1.394447	0.377560	-0.211470
O84	O	0.892542	-0.429830	0.000105
C85	C	0.862954	-0.632572	0.119896
C86	C	0.929688	-0.495290	0.119934
H87	H	0.892940	-0.685528	0.216782
H88	H	0.891722	-0.685043	0.022156
H89	H	0.754708	-0.628745	0.120760
H90	H	1.037945	-0.498999	0.119119
H91	H	0.900815	-0.442873	0.217666
H92	H	0.942421	-0.074372	-0.211491
H93	H	1.342823	-0.354073	0.412665
H94	H	1.555926	-0.401606	0.587676
H95	H	1.074503	-0.302360	0.211590
O96	O	1.080345	-0.312518	-0.230306
C97	C	1.183777	-0.490801	-0.320588
C98	C	1.142071	-0.420265	-0.189533
H99	H	1.233667	-0.577942	-0.287670
H100	H	1.252551	-0.423557	-0.384912
H101	H	1.095894	-0.523167	-0.386217
H102	H	1.229876	-0.387891	-0.123796
H103	H	1.073253	-0.487554	-0.125314
O104	O	0.936268	-0.064316	0.230207
C105	C	0.760099	0.007989	0.360345
C106	C	0.802026	-0.062626	0.229443
H107	H	0.651560	0.009355	0.359786
H108	H	0.807368	0.110455	0.360200
H109	H	0.790338	-0.043649	0.458022
H110	H	0.771797	-0.011095	0.131697
H111	H	0.754769	-0.165094	0.229711
H112	H	1.460936	0.024699	0.412454
