data_functionalizedCrystal
_audit_creation_method	'MofGen! by Chris Wilmer'
_symmetry_space_group_name_H-M	'P1'
_symmetry_Int_Tables_number	1
_symmetry_cell_setting	triclinic
loop_
_symmetry_equiv_pos_as_xyz
  x,y,z
_cell_length_a	10.654550
_cell_length_b	16.974813
_cell_length_c	9.730223
_cell_angle_alpha	86.344839
_cell_angle_beta	89.996302
_cell_angle_gamma	83.938728
loop_
_atom_site_label
_atom_site_type_symbol
_atom_site_fract_x
_atom_site_fract_y
_atom_site_fract_z
O1	O	1.666105	0.111051	-0.126752
O2	O	1.300462	0.121632	-0.127906
O3	O	1.493478	0.001294	-0.114527
O4	O	1.473090	0.231388	-0.140130
O5	O	1.493475	0.001299	0.114052
O6	O	1.300460	0.121636	0.100673
O7	O	1.666103	0.111056	0.101828
Zn8	Zn	1.483281	0.116347	0.137542
Zn9	Zn	1.483284	0.116341	-0.163621
O10	O	1.473088	0.231393	0.088449
C11	C	1.253675	0.120857	-0.013527
C12	C	1.114268	0.118533	-0.013260
C13	C	1.492701	-0.028166	0.003038
C14	C	1.490376	-0.115955	0.012798
C15	C	1.033680	0.189386	-0.021164
C16	C	0.902693	0.187197	-0.020944
C17	C	0.932896	0.043296	-0.004922
C18	C	1.063880	0.045486	-0.005132
C19	C	1.016241	0.272465	-0.030421
C20	C	0.885254	0.270277	-0.030201
C21	C	1.489287	-0.157197	-0.107214
C22	C	1.487094	-0.239684	-0.098039
C23	C	1.485999	-0.280928	0.031150
C24	C	1.487083	-0.239680	0.151171
C25	C	1.489267	-0.157194	0.141995
C26	C	1.479458	-0.527624	0.071956
C27	C	1.477278	-0.610116	0.081123
C28	C	1.477287	-0.610113	-0.168088
C29	C	1.479478	-0.527626	-0.177253
C30	C	1.480556	-0.486385	-0.057232
N31	N	1.483761	-0.365243	0.040532
N32	N	1.482785	-0.402071	-0.066615
C33	C	1.712890	0.111830	-0.012554
C34	C	1.852297	0.114155	-0.012830
C35	C	1.473864	0.260853	-0.029119
C36	C	1.476190	0.348643	-0.038889
N37	N	1.483288	0.116351	0.343078
C38	C	1.568777	0.063084	0.420926
C39	C	1.568774	0.063075	0.564810
C40	C	1.397789	0.169607	0.552985
C41	C	1.397787	0.169611	0.409104
C42	C	1.667498	0.001581	0.427755
C43	C	1.667494	0.001572	0.571639
N44	N	1.483287	0.116338	0.630843
H45	H	1.129492	-0.012209	0.001324
H46	H	1.045065	0.304960	0.061629
H47	H	0.843035	0.301578	-0.129351
H48	H	1.637875	-0.055858	0.622647
H49	H	1.647001	-0.059193	0.395465
H50	H	0.891854	-0.016176	0.001675
H51	H	1.328165	0.212978	0.345721
H52	H	1.486213	-0.273259	-0.195766
C53	C	1.226861	0.185751	0.713013
C54	C	1.303815	0.228151	0.625570
H55	H	1.168851	0.221896	0.757827
H56	H	1.181755	0.152583	0.660568
H57	H	1.277789	0.154028	0.779963
H58	H	1.252888	0.259870	0.558613
H59	H	1.348924	0.261332	0.678019
C60	C	1.006889	0.386025	-0.191801
C61	C	1.063832	0.308180	-0.167609
H62	H	1.036278	0.408072	-0.276493
H63	H	0.917893	0.385720	-0.196328
H64	H	1.027899	0.417080	-0.118996
H65	H	1.042815	0.277123	-0.240409
H66	H	1.152848	0.308481	-0.163093
H67	H	1.490186	-0.123622	-0.212413
H68	H	1.480361	-0.494057	0.169686
C69	C	0.915805	0.328671	0.184026
C70	C	0.823057	0.304175	0.099238
H71	H	0.877402	0.349600	0.263930
H72	H	0.975240	0.284586	0.210360
H73	H	0.957659	0.368450	0.135294
H74	H	0.781208	0.264391	0.147968
H75	H	0.763600	0.348265	0.072906
C76	C	1.479248	-0.535911	-0.422667
C77	C	1.480672	-0.482292	-0.319262
H78	H	1.479981	-0.507922	-0.510336
H79	H	1.551589	-0.573709	-0.413287
H80	H	1.405195	-0.562458	-0.414516
H81	H	1.554730	-0.455750	-0.327406
H82	H	1.408324	-0.444481	-0.328646
H83	H	1.476407	-0.643700	-0.265802
H84	H	1.758382	0.020838	0.380980
H85	H	1.763795	0.015120	0.609176
H86	H	1.486184	-0.273267	0.256360
C87	C	1.477462	-0.601835	0.326549
C88	C	1.476062	-0.655453	0.223139
H89	H	1.476706	-0.629826	0.414216
H90	H	1.551505	-0.575290	0.318422
H91	H	1.405111	-0.564035	0.317151
H92	H	1.548419	-0.693250	0.232530
H93	H	1.402012	-0.682011	0.231269
H94	H	1.490136	-0.123615	0.239722
