data_functionalizedCrystal
_audit_creation_method	'MofGen! by Chris Wilmer'
_symmetry_space_group_name_H-M	'P1'
_symmetry_Int_Tables_number	1
_symmetry_cell_setting	triclinic
loop_
_symmetry_equiv_pos_as_xyz
  x,y,z
_cell_length_a	18.050591
_cell_length_b	19.120786
_cell_length_c	18.050582
_cell_angle_alpha	92.465003
_cell_angle_beta	90.020922
_cell_angle_gamma	92.460873
loop_
_atom_site_label
_atom_site_type_symbol
_atom_site_fract_x
_atom_site_fract_y
_atom_site_fract_z
Zn1	Zn	1.122689	-0.279748	0.407398
Zn2	Zn	1.117309	-0.397198	0.277904
Zn3	Zn	0.998508	-0.279751	0.283209
Zn4	Zn	0.993167	-0.397160	0.402042
O5	O	1.057918	-0.338464	0.342638
O6	O	1.225899	-0.295342	0.390242
O7	O	1.101533	-0.381635	0.174683
O8	O	1.019469	-0.181461	0.304145
O9	O	1.221946	-0.381632	0.295104
O10	O	1.110704	-0.181458	0.395386
O11	O	1.014251	-0.295347	0.178580
O12	O	0.893876	-0.295311	0.298951
O13	O	1.010365	-0.381569	0.506677
O14	O	0.889951	-0.381571	0.386256
O15	O	1.105524	-0.295306	0.510613
O16	O	1.096354	-0.495482	0.289909
O17	O	1.005147	-0.495455	0.381112
C18	C	0.864967	-0.338438	0.342598
C19	C	0.782421	-0.338444	0.342598
C20	C	0.585086	-0.291481	0.295238
C21	C	0.532780	-0.355544	0.274069
C22	C	0.631290	-0.338465	0.342631
C23	C	0.536513	-0.274424	0.363797
C24	C	0.485304	-0.338480	0.342661
C25	C	0.580070	-0.402562	0.321425
C26	C	0.583809	-0.321399	0.411186
C27	C	0.531524	-0.385506	0.390041
C28	C	0.715389	-0.338455	0.342612
C29	C	0.401207	-0.338497	0.342680
C30	C	1.049607	-0.520954	0.334370
C31	C	1.046119	-0.599024	0.330858
C32	C	1.091947	-0.635640	0.376751
C33	C	1.088667	-0.708995	0.373452
C34	C	1.039563	-0.745733	0.324256
C35	C	0.993730	-0.709112	0.278361
C36	C	0.997007	-0.635758	0.281664
C37	C	1.027291	-0.967217	0.311907
C38	C	1.024019	-1.040576	0.308606
C39	C	1.118955	-1.040454	0.403698
C40	C	1.122231	-0.967099	0.406994
C41	C	1.076395	-0.930484	0.361102
C42	C	1.036210	-0.820713	0.320881
C43	C	1.079744	-0.855505	0.364481
C44	C	1.251623	-0.338491	0.342679
C45	C	1.334168	-0.338502	0.342696
C46	C	1.057949	-0.338433	0.536345
C47	C	1.057962	-0.338420	0.618892
C48	C	1.066282	-0.155262	0.350955
C49	C	1.069846	-0.077191	0.354499
C50	C	1.057933	-0.338444	0.149687
C51	C	1.058073	-0.338260	0.067150
C52	C	1.006255	-0.385265	0.816205
C53	C	1.073236	-0.402439	0.864828
C54	C	1.058001	-0.338366	0.770025
C55	C	0.991057	-0.321173	0.868484
C56	C	1.058032	-0.338316	0.916012
C57	C	1.125016	-0.355573	0.817559
C58	C	1.042793	-0.274278	0.821212
C59	C	1.109822	-0.291427	0.869814
C60	C	1.057981	-0.338397	0.685925
C61	C	1.058059	-0.338285	1.000110
H62	H	0.606217	-0.306933	0.469133
C63	C	0.502534	-0.375057	0.195764
C64	C	0.418299	-0.379263	0.181579
C65	C	0.388060	-0.398770	0.103271
C66	C	0.442057	-0.414070	0.039150
C67	C	0.526297	-0.409865	0.053334
C68	C	0.556536	-0.390358	0.131641
H69	H	0.378323	-0.367937	0.229047
H70	H	0.325699	-0.401883	0.092772
H71	H	0.419672	-0.428510	-0.018818
H72	H	0.566273	-0.421191	0.005866
H73	H	0.618896	-0.387245	0.142141
C74	C	1.139084	-0.749268	0.423933
C75	C	1.223966	-0.739119	0.418406
C76	C	1.274386	-0.779390	0.468891
C77	C	1.239925	-0.829810	0.524903
C78	C	1.155038	-0.839961	0.530433
C79	C	1.104618	-0.799690	0.479948
H80	H	1.249480	-0.701794	0.376941
H81	H	1.337224	-0.771875	0.464798
H82	H	1.277249	-0.859621	0.562275
H83	H	1.129524	-0.877287	0.571898
H84	H	1.041779	-0.807205	0.484041
H85	H	0.934431	-0.306652	0.890828
C86	C	0.500023	-0.439250	0.444200
C87	C	0.447484	-0.500067	0.415605
C88	C	0.415983	-0.553812	0.469760
C89	C	0.437021	-0.546741	0.552510
C90	C	0.489564	-0.485922	0.581109
C91	C	0.521065	-0.432176	0.526954
H92	H	0.431907	-0.505303	0.354345
H93	H	0.377087	-0.598835	0.448588
H94	H	0.413703	-0.586527	0.592598
H95	H	0.505140	-0.480685	0.642369
H96	H	0.559960	-0.387153	0.548125
H97	H	0.962532	-0.424978	0.792735
H98	H	0.996232	-0.850634	0.280823
H99	H	1.119722	-0.825591	0.404539
H100	H	0.599207	-0.456743	0.303471
H101	H	1.086118	-0.456616	0.884082
H102	H	1.131936	-0.605733	0.416808
C103	C	1.169364	-1.080732	0.454184
C104	C	1.225440	-1.131136	0.419799
C105	C	1.275848	-1.171414	0.470290
C106	C	1.270180	-1.161288	0.555165
C107	C	1.214102	-1.110881	0.589553
C108	C	1.163693	-1.070603	0.539063
H109	H	1.229638	-1.138634	0.356966
H110	H	1.317361	-1.208728	0.444833
H111	H	1.307495	-1.191104	0.592541
H112	H	1.209904	-1.103383	0.652386
H113	H	1.122180	-1.033289	0.564520
H114	H	0.608531	-0.251791	0.255112
C115	C	1.201536	-0.375272	0.787501
C116	C	1.215650	-0.378965	0.703321
C117	C	1.292169	-0.398663	0.673262
C118	C	1.354573	-0.414667	0.727383
C119	C	1.340460	-0.410975	0.811569
C120	C	1.263942	-0.391277	0.841628
H121	H	1.169454	-0.367117	0.663252
H122	H	1.302615	-0.401396	0.610942
H123	H	1.411216	-0.429249	0.705132
H124	H	1.386657	-0.422823	0.851638
H125	H	1.253496	-0.388544	0.903948
C126	C	0.510535	-0.201253	0.387971
C127	C	0.532888	-0.137448	0.342424
C128	C	0.506913	-0.064276	0.366591
C129	C	0.458585	-0.054909	0.436304
C130	C	0.436230	-0.118717	0.481856
C131	C	0.462205	-0.191888	0.457689
H132	H	0.568665	-0.144380	0.290814
H133	H	0.523462	-0.017042	0.332870
H134	H	0.439357	-0.000743	0.454194
H135	H	0.400453	-0.111785	0.533466
H136	H	0.445657	-0.239123	0.491410
C137	C	1.169019	-0.237825	0.901354
C138	C	1.251242	-0.245762	0.881335
C139	C	1.310441	-0.192167	0.912882
C140	C	1.287418	-0.130636	0.964448
C141	C	1.205191	-0.122697	0.984470
C142	C	1.145992	-0.176291	0.952923
H143	H	1.268289	-0.291313	0.843160
H144	H	1.371311	-0.198045	0.898060
H145	H	1.331240	-0.090962	0.987801
H146	H	1.188144	-0.077145	1.022644
H147	H	1.085122	-0.170414	0.967744
C148	C	0.970005	-1.080993	0.254486
C149	C	0.976569	-1.070945	0.170519
C150	C	0.922563	-1.111365	0.116400
C151	C	0.861992	-1.161833	0.146248
C152	C	0.855426	-1.171883	0.230219
C153	C	0.909432	-1.131463	0.284338
H154	H	1.021409	-1.033583	0.148420
H155	H	0.927424	-1.103924	0.054239
H156	H	0.822014	-1.191754	0.106185
H157	H	0.810586	-1.209244	0.252318
H158	H	0.904571	-1.138903	0.346500
C159	C	1.025364	-0.201111	0.795169
C160	C	0.951088	-0.168863	0.816063
C161	C	0.933649	-0.095697	0.790018
C162	C	0.990487	-0.054778	0.743078
C163	C	1.064769	-0.087026	0.722180
C164	C	1.082207	-0.160192	0.748226
H165	H	0.909008	-0.199154	0.850814
H166	H	0.878661	-0.071825	0.805488
H167	H	0.977578	-0.000616	0.723797
H168	H	1.106848	-0.056735	0.687430
H169	H	1.137196	-0.184063	0.732756
H170	H	1.162215	-0.937188	0.447053
H171	H	0.953745	-0.739029	0.238308
H172	H	0.989971	-0.937411	0.274539
C173	C	0.946598	-0.595477	0.231180
C174	C	0.892585	-0.635884	0.177063
C175	C	0.842172	-0.595604	0.126579
C176	C	0.845771	-0.514918	0.130213
C177	C	0.899786	-0.474507	0.184332
C178	C	0.950199	-0.514787	0.234815
H179	H	0.889919	-0.695617	0.174371
H180	H	0.802186	-0.625520	0.086517
H181	H	0.808452	-0.485101	0.092842
H182	H	0.902452	-0.414774	0.187024
H183	H	0.990185	-0.484871	0.274878
