data_functionalizedCrystal
_audit_creation_method	'MofGen! by Chris Wilmer'
_symmetry_space_group_name_H-M	'P1'
_symmetry_Int_Tables_number	1
_symmetry_cell_setting	triclinic
loop_
_symmetry_equiv_pos_as_xyz
  x,y,z
_cell_length_a	19.288864
_cell_length_b	10.654551
_cell_length_c	18.366186
_cell_angle_alpha	89.996635
_cell_angle_beta	89.977106
_cell_angle_gamma	83.810805
loop_
_atom_site_label
_atom_site_type_symbol
_atom_site_fract_x
_atom_site_fract_y
_atom_site_fract_z
O1	O	0.922379	0.156656	-0.060779
O2	O	0.720257	0.177789	-0.060729
O3	O	0.825965	-0.015616	-0.060755
O4	O	0.816671	0.350061	-0.060752
O5	O	0.825946	-0.015625	0.060344
O6	O	0.720238	0.177780	0.060371
O7	O	0.922361	0.156647	0.060320
Zn8	Zn	0.821297	0.167212	0.079573
Zn9	Zn	0.821321	0.167224	-0.079981
O10	O	0.816653	0.350052	0.060347
C11	C	0.694367	0.177104	-0.000173
C12	C	0.617250	0.175063	-0.000153
C13	C	0.825273	-0.062404	-0.000207
C14	C	0.823231	-0.201803	-0.000211
C15	C	0.573297	0.288544	-0.000164
C16	C	0.500837	0.286627	-0.000172
C17	C	0.472334	0.171221	-0.000184
C18	C	0.516296	0.057725	-0.000170
C19	C	0.588754	0.059646	-0.000154
C20	C	0.363484	0.080503	-0.042636
C21	C	0.291027	0.078587	-0.042656
C22	C	0.248849	0.165292	-0.000228
C23	C	0.279136	0.253934	0.042210
C24	C	0.351594	0.255855	0.042225
C25	C	0.393766	0.169126	-0.000200
C26	C	0.126327	0.276702	-0.000247
C27	C	0.053866	0.274779	-0.000250
C28	C	0.069327	0.045875	-0.000255
C29	C	0.141786	0.047800	-0.000244
C30	C	0.170281	0.163217	-0.000243
C31	C	0.822283	-0.267290	-0.066221
C32	C	0.820358	-0.398269	-0.066217
C33	C	0.820333	-0.398264	0.065812
C34	C	0.822252	-0.267287	0.065807
C35	C	0.822301	-0.267294	-0.142447
C36	C	0.820376	-0.398273	-0.142444
C37	C	0.948251	0.157332	-0.000237
C38	C	1.025368	0.159373	-0.000261
C39	C	0.817344	0.396840	-0.000203
C40	C	0.819386	0.536240	-0.000203
N41	N	0.821285	0.167203	0.188464
N42	N	0.821337	0.167224	-0.188872
C43	C	0.868109	0.081605	0.226552
C44	C	0.868113	0.081599	0.302780
C45	C	0.821301	0.167213	0.340917
C46	C	0.774469	0.252817	0.302819
C47	C	0.774461	0.252812	0.226592
C48	C	0.812752	0.281634	0.461679
C49	C	0.812765	0.281641	0.537904
C50	C	0.821321	0.167229	0.576024
C51	C	0.829879	0.052804	0.537910
C52	C	0.829871	0.052799	0.461683
C53	C	0.821304	0.167228	0.423571
C54	C	0.868151	0.081618	0.696768
C55	C	0.868151	0.081610	0.772997
C56	C	0.774510	0.252839	0.773034
C57	C	0.774507	0.252836	0.696806
C58	C	0.821331	0.167226	0.658678
H59	H	0.596493	0.382526	-0.000165
H60	H	0.149529	0.370681	-0.000235
C61	C	0.723017	0.347013	0.814975
H62	H	0.729730	0.334762	0.865828
H63	H	0.676598	0.333590	0.802507
H64	H	0.730966	0.430794	0.802474
C65	C	0.890744	-0.228800	-0.174391
H66	H	0.889745	-0.139476	-0.173291
H67	H	0.895720	-0.257532	-0.223267
H68	H	0.928999	-0.265630	-0.146299
H69	H	0.736331	0.322517	0.195580
H70	H	0.493084	-0.036239	-0.000190
H71	H	0.774307	-0.219983	-0.171706
C72	C	0.919622	-0.012554	0.344690
H73	H	0.912916	-0.000292	0.395548
H74	H	0.966037	0.000877	0.332172
H75	H	0.911678	-0.096342	0.332211
H76	H	0.769723	-0.426754	-0.166090
H77	H	0.018080	0.367193	-0.000254
C78	C	0.885222	-0.462203	-0.181990
H79	H	0.913201	-0.399615	-0.198249
H80	H	0.871026	-0.508303	-0.222623
H81	H	0.911451	-0.518119	-0.149485
C82	C	0.823290	-0.195254	0.138417
H83	H	0.822439	-0.253017	0.177734
H84	H	0.783608	-0.134352	0.141167
H85	H	0.864476	-0.153970	0.141154
H86	H	0.805801	0.374812	0.568931
C87	C	0.232754	0.349316	0.088885
H88	H	0.261169	0.402384	0.114156
H89	H	0.207403	0.305149	0.122995
H90	H	0.201079	0.399278	0.058290
H91	H	0.465044	0.379040	-0.000179
H92	H	0.906234	0.011894	0.195510
C93	C	0.819261	-0.470301	0.138426
H94	H	0.817985	-0.557687	0.128976
H95	H	0.779140	-0.439026	0.165559
H96	H	0.860008	-0.458645	0.165539
C97	C	0.839274	-0.073053	0.419758
H98	H	0.844466	-0.141195	0.453371
H99	H	0.879642	-0.075708	0.389918
H100	H	0.799500	-0.079908	0.390126
H101	H	0.836846	-0.040361	0.568945
H102	H	0.906276	0.011905	0.665722
C103	C	0.723009	0.347008	0.654907
H104	H	0.695133	0.398005	0.688535
H105	H	0.693878	0.301969	0.625187
H106	H	0.748247	0.399171	0.625157
H107	H	0.736353	0.322523	0.333873
C108	C	0.803336	0.407492	0.419751
H109	H	0.804548	0.391103	0.368895
H110	H	0.839893	0.456539	0.432219
H111	H	0.759742	0.452469	0.432266
H112	H	0.376251	0.328027	0.076782
H113	H	0.906278	0.011900	0.804009
H114	H	0.397820	0.009895	-0.077190
C115	C	0.037985	-0.081073	-0.000265
H116	H	0.074543	-0.148385	-0.000254
H117	H	0.010062	-0.086581	-0.042499
H118	H	0.010020	-0.086579	0.041967
C119	C	0.190139	-0.077027	-0.000243
H120	H	0.237374	-0.059355	-0.000228
H121	H	0.181464	-0.124363	-0.042476
H122	H	0.181417	-0.124369	0.041989
C123	C	0.257713	-0.018904	-0.089338
H124	H	0.208519	-0.007620	-0.083280
H125	H	0.275187	-0.101676	-0.074419
H126	H	0.268874	-0.007543	-0.139123
C127	C	0.637105	-0.065188	-0.000151
H128	H	0.609754	-0.134198	-0.000164
H129	H	0.665673	-0.069203	0.042081
H130	H	0.665710	-0.069187	-0.042384
