data_functionalizedCrystal
_audit_creation_method	'MofGen! by Chris Wilmer'
_symmetry_space_group_name_H-M	'P1'
_symmetry_Int_Tables_number	1
_symmetry_cell_setting	triclinic
loop_
_symmetry_equiv_pos_as_xyz
  x,y,z
_cell_length_a	19.121102
_cell_length_b	18.050589
_cell_length_c	18.050583
_cell_angle_alpha	90.031910
_cell_angle_beta	87.544925
_cell_angle_gamma	92.417299
loop_
_atom_site_label
_atom_site_type_symbol
_atom_site_fract_x
_atom_site_fract_y
_atom_site_fract_z
Zn1	Zn	1.073680	0.344109	-0.468311
Zn2	Zn	1.323680	0.594109	-0.218311
Zn3	Zn	1.573680	0.844109	0.031689
Zn4	Zn	1.823680	1.094109	0.281689
Zn5	Zn	1.073594	0.468318	-0.344126
Zn6	Zn	1.323594	0.718318	-0.094126
Zn7	Zn	1.573594	0.968318	0.155874
Zn8	Zn	1.823594	1.218318	0.405874
Zn9	Zn	0.956237	0.338845	-0.338843
Zn10	Zn	1.206237	0.588845	-0.088843
Zn11	Zn	1.456237	0.838845	0.161157
Zn12	Zn	1.706237	1.088845	0.411157
Zn13	Zn	0.956191	0.462954	-0.462985
Zn14	Zn	1.206191	0.712954	-0.212985
Zn15	Zn	1.456191	0.962954	0.037015
Zn16	Zn	1.706191	1.212954	0.287015
O17	O	1.014926	0.403557	-0.403566
O18	O	1.264926	0.653557	-0.153566
O19	O	1.514926	0.903557	0.096434
O20	O	1.764926	1.153557	0.346434
O21	O	1.171953	0.365034	-0.456277
O22	O	1.421953	0.615034	-0.206277
O23	O	1.671953	0.865034	0.043723
O24	O	1.921953	1.115034	0.293723
O25	O	1.058009	0.451185	-0.239500
O26	O	1.308009	0.701185	0.010500
O27	O	1.558009	0.951185	0.260500
O28	O	1.808009	1.201185	0.510500
O29	O	0.971872	0.235621	-0.356035
O30	O	1.221872	0.485621	-0.106035
O31	O	1.471872	0.735621	0.143965
O32	O	1.721872	0.985621	0.393965
O33	O	1.171889	0.456289	-0.365039
O34	O	1.421889	0.706289	-0.115039
O35	O	1.671889	0.956289	0.134961
O36	O	1.921889	1.206289	0.384961
O37	O	1.058157	0.239489	-0.451154
O38	O	1.308157	0.489489	-0.201154
O39	O	1.558157	0.739489	0.048846
O40	O	1.808157	0.989489	0.298846
O41	O	0.971788	0.356062	-0.235619
O42	O	1.221788	0.606062	0.014381
O43	O	1.471788	0.856062	0.264381
O44	O	1.721788	1.106062	0.514381
O45	O	0.857947	0.350860	-0.350871
O46	O	1.107947	0.600860	-0.100871
O47	O	1.357947	0.850860	0.149129
O48	O	1.607947	1.100860	0.399129
O49	O	0.971792	0.447147	-0.567617
O50	O	1.221792	0.697147	-0.317617
O51	O	1.471792	0.947147	-0.067617
O52	O	1.721792	1.197147	0.182383
O53	O	0.857913	0.442043	-0.442077
O54	O	1.107913	0.692043	-0.192077
O55	O	1.357913	0.942043	0.057923
O56	O	1.607913	1.192043	0.307923
O57	O	1.058112	0.359832	-0.571529
O58	O	1.308112	0.609832	-0.321529
O59	O	1.558112	0.859832	-0.071529
O60	O	1.808112	1.109832	0.178471
O61	O	1.057964	0.571529	-0.359875
O62	O	1.307964	0.821529	-0.109875
O63	O	1.557964	1.071529	0.140125
O64	O	1.807964	1.321529	0.390125
O65	O	0.971708	0.567588	-0.447200
O66	O	1.221708	0.817588	-0.197200
O67	O	1.471708	1.067588	0.052800
O68	O	1.721708	1.317588	0.302800
C69	C	0.832446	0.395299	-0.395324
C70	C	1.082446	0.645299	-0.145324
C71	C	1.332446	0.895299	0.104676
C72	C	1.582446	1.145299	0.354676
C73	C	0.754381	0.391784	-0.391815
C74	C	1.004381	0.641784	-0.141815
C75	C	1.254381	0.891784	0.108185
C76	C	1.504381	1.141784	0.358185
C77	C	1.014841	0.596505	-0.403550
C78	C	1.264841	0.846505	-0.153550
C79	C	1.514841	1.096505	0.096450
C80	C	1.764841	1.346505	0.346450
C81	C	1.014869	0.679052	-0.403571
C82	C	1.264869	0.929052	-0.153571
C83	C	1.514869	1.179052	0.096429
C84	C	1.764869	1.429052	0.346429
C85	C	1.014957	0.403479	-0.597273
C86	C	1.264957	0.653479	-0.347273
C87	C	1.514957	0.903479	-0.097273
C88	C	1.764957	1.153479	0.152727
C89	C	1.014970	0.403446	-0.679820
C90	C	1.264970	0.653446	-0.429820
C91	C	1.514970	0.903446	-0.179820
C92	C	1.764970	1.153446	0.070180
C93	C	0.717706	0.437679	-0.437578
C94	C	0.967706	0.687679	-0.187578
C95	C	1.217706	0.937679	0.062422
C96	C	1.467706	1.187679	0.312422
C97	C	0.644355	0.434366	-0.434285
C98	C	0.894355	0.684366	-0.184285
C99	C	1.144355	0.934366	0.065715
C100	C	1.394355	1.184366	0.315715
C101	C	0.607680	0.385163	-0.385224
C102	C	0.857680	0.635163	-0.135224
C103	C	1.107680	0.885163	0.114776
C104	C	1.357680	1.135163	0.364776
C105	C	0.644360	0.339264	-0.339459
C106	C	0.894360	0.589264	-0.089459
C107	C	1.144360	0.839264	0.160541
C108	C	1.394360	1.089264	0.410541
C109	C	0.717710	0.342573	-0.342757
C110	C	0.967710	0.592573	-0.092757
C111	C	1.217710	0.842573	0.157243
C112	C	1.467710	1.092573	0.407243
C113	C	0.386212	0.372790	-0.372900
C114	C	0.636212	0.622790	-0.122900
C115	C	0.886212	0.872790	0.127100
C116	C	1.136212	1.122790	0.377100
C117	C	0.312858	0.369486	-0.369604
C118	C	0.562858	0.619486	-0.119604
C119	C	0.812858	0.869486	0.130396
C120	C	1.062858	1.119486	0.380396
C121	C	0.312857	0.464588	-0.464432
C122	C	0.562857	0.714588	-0.214432
C123	C	0.812857	0.964588	0.035568
C124	C	1.062857	1.214588	0.285568
C125	C	0.386208	0.467895	-0.467722
C126	C	0.636208	0.717895	-0.217722
C127	C	0.886208	0.967895	0.032278
C128	C	1.136208	1.217895	0.282278
C129	C	0.422882	0.421993	-0.421959
C130	C	0.672882	0.671993	-0.171959
C131	C	0.922882	0.921993	0.078041
C132	C	1.172882	1.171993	0.328041
C133	C	0.532704	0.381778	-0.381855
C134	C	0.782704	0.631778	-0.131855
C135	C	1.032704	0.881778	0.118145
C136	C	1.282704	1.131778	0.368145
C137	C	0.497857	0.425375	-0.425332
C138	C	0.747857	0.675375	-0.175332
C139	C	0.997857	0.925375	0.074668
C140	C	1.247857	1.175375	0.324668
C141	C	1.198117	0.411847	-0.411841
C142	C	1.448117	0.661847	-0.161841
C143	C	1.698117	0.911847	0.088159
C144	C	1.948117	1.161847	0.338159
C145	C	1.276183	0.415380	-0.415368
C146	C	1.526183	0.665380	-0.165368
C147	C	1.776183	0.915380	0.084632
C148	C	2.026183	1.165380	0.334632
C149	C	1.015030	0.209856	-0.403599
C150	C	1.265030	0.459856	-0.153599
C151	C	1.515030	0.709856	0.096401
C152	C	1.765030	0.959856	0.346401
C153	C	1.015074	0.127312	-0.403614
C154	C	1.265074	0.377312	-0.153614
C155	C	1.515074	0.627312	0.096386
C156	C	1.765074	0.877312	0.346386
C157	C	0.968009	0.876389	-0.451043
C158	C	1.218009	1.126389	-0.201043
C159	C	1.468009	1.376389	0.048957
C160	C	1.718009	1.626389	0.298957
C161	C	0.950892	0.925066	-0.382504
C162	C	1.200892	1.175066	-0.132504
C163	C	1.450892	1.425066	0.117496
C164	C	1.700892	1.675066	0.367496
C165	C	1.014938	0.830185	-0.403584
C166	C	1.264938	1.080185	-0.153584
C167	C	1.514938	1.330185	0.096416
C168	C	1.764938	1.580185	0.346416
C169	C	1.032089	0.928592	-0.472131
C170	C	1.282089	1.178592	-0.222131
C171	C	1.532089	1.428592	0.027869
C172	C	1.782089	1.678592	0.277869
C173	C	1.015003	0.976173	-0.403602
C174	C	1.265003	1.226173	-0.153602
C175	C	1.515003	1.476173	0.096398
C176	C	1.765003	1.726173	0.346398
C177	C	0.997787	0.877774	-0.335008
C178	C	1.247787	1.127774	-0.085008
C179	C	1.497787	1.377774	0.164992
C180	C	1.747787	1.627774	0.414992
C181	C	1.079014	0.881297	-0.424682
C182	C	1.329014	1.131297	-0.174682
C183	C	1.579014	1.381297	0.075318
C184	C	1.829014	1.631297	0.325318
C185	C	1.061921	0.929953	-0.356098
C186	C	1.311921	1.179953	-0.106098
C187	C	1.561921	1.429953	0.143902
C188	C	1.811921	1.679953	0.393902
C189	C	1.014898	0.746085	-0.403574
C190	C	1.264898	0.996085	-0.153574
C191	C	1.514898	1.246085	0.096426
C192	C	1.764898	1.496085	0.346426
C193	C	1.015043	1.060272	-0.403604
C194	C	1.265043	1.310272	-0.153604
C195	C	1.515043	1.560272	0.096396
C196	C	1.765043	1.810272	0.346396
C197	C	1.061957	0.355942	-0.881400
C198	C	1.311957	0.605942	-0.631400
C199	C	1.561957	0.855942	-0.381400
C200	C	1.811957	1.105942	-0.131400
C201	C	0.997900	0.334872	-0.927908
C202	C	1.247900	0.584872	-0.677908
C203	C	1.497900	0.834872	-0.427908
C204	C	1.747900	1.084872	-0.177908
C205	C	1.014998	0.403434	-0.830951
C206	C	1.264998	0.653434	-0.580951
C207	C	1.514998	0.903434	-0.330951
C208	C	1.764998	1.153434	-0.080951
C209	C	1.079081	0.424458	-0.931527
C210	C	1.329081	0.674458	-0.681527
C211	C	1.579081	0.924458	-0.431527
C212	C	1.829081	1.174458	-0.181527
C213	C	1.015031	0.403422	-0.976938
C214	C	1.265031	0.653422	-0.726938
C215	C	1.515031	0.903422	-0.476938
C216	C	1.765031	1.153422	-0.226938
C217	C	0.950907	0.382328	-0.876370
C218	C	1.200907	0.632328	-0.626370
C219	C	1.450907	0.882328	-0.376370
C220	C	1.700907	1.132328	-0.126370
C221	C	1.032131	0.471947	-0.879987
C222	C	1.282131	0.721947	-0.629987
C223	C	1.532131	0.971947	-0.379987
C224	C	1.782131	1.221947	-0.129987
C225	C	0.968030	0.450901	-0.926470
C226	C	1.218030	0.700901	-0.676470
C227	C	1.468030	0.950901	-0.426470
C228	C	1.718030	1.200901	-0.176470
C229	C	1.014980	0.403439	-0.746852
C230	C	1.264980	0.653439	-0.496852
C231	C	1.514980	0.903439	-0.246852
C232	C	1.764980	1.153439	0.003148
C233	C	1.015042	0.403416	-1.061035
C234	C	1.265042	0.653416	-0.811035
C235	C	1.515042	0.903416	-0.561035
C236	C	1.765042	1.153416	-0.311035
C237	C	1.014935	0.403582	-0.210614
C238	C	1.264935	0.653582	0.039386
C239	C	1.514935	0.903582	0.289386
C240	C	1.764935	1.153582	0.539386
C241	C	1.015058	0.403413	-0.128075
C242	C	1.265058	0.653413	0.121925
C243	C	1.515058	0.903413	0.371925
C244	C	1.765058	1.153413	0.621925
H245	H	0.614497	0.471739	-0.471550
H246	H	0.864497	0.721739	-0.221550
H247	H	1.114497	0.971739	0.028450
H248	H	1.364497	1.221739	0.278450
H249	H	0.983419	0.276926	-0.948982
H250	H	1.233419	0.526926	-0.698982
H251	H	1.483419	0.776926	-0.448982
H252	H	1.733419	1.026926	-0.198982
H253	H	0.928286	0.491057	-0.946190
H254	H	1.178286	0.741057	-0.696190
H255	H	1.428286	0.991057	-0.446190
H256	H	1.678286	1.241057	-0.196190
H257	H	0.502836	0.341718	-0.341909
H258	H	0.752836	0.591718	-0.091909
H259	H	1.002836	0.841718	0.158091
H260	H	1.252836	1.091718	0.408091
N261	N	1.114523	0.960846	-0.302884
N262	N	1.364523	1.210846	-0.052884
N263	N	1.614523	1.460846	0.197116
N264	N	1.864523	1.710846	0.447116
H265	H	1.151038	0.993252	-0.330846
H266	H	1.401038	1.243252	-0.080846
H267	H	1.651038	1.493252	0.169154
H268	H	1.901038	1.743252	0.419154
H269	H	1.137938	0.918654	-0.278513
H270	H	1.387938	1.168654	-0.028513
H271	H	1.637938	1.418654	0.221487
H272	H	1.887938	1.668654	0.471487
N273	N	0.915366	0.845307	-0.504116
N274	N	1.165366	1.095307	-0.254116
N275	N	1.415366	1.345307	-0.004116
N276	N	1.665366	1.595307	0.245884
H277	H	0.940218	0.815580	-0.543853
H278	H	1.190218	1.065580	-0.293853
H279	H	1.440218	1.315580	-0.043853
H280	H	1.690218	1.565580	0.206147
H281	H	0.891200	0.887381	-0.527805
H282	H	1.141200	1.137381	-0.277805
H283	H	1.391200	1.387381	-0.027805
H284	H	1.641200	1.637381	0.222195
H285	H	0.416064	0.507964	-0.507670
H286	H	0.666064	0.757964	-0.257670
H287	H	0.916064	1.007964	-0.007670
H288	H	1.166064	1.257964	0.242330
H289	H	1.046570	0.950888	-0.530094
H290	H	1.296570	1.200888	-0.280094
H291	H	1.546570	1.450888	-0.030094
H292	H	1.796570	1.700888	0.219906
N293	N	1.114476	0.302713	-0.855077
N294	N	1.364476	0.552713	-0.605077
N295	N	1.614476	0.802713	-0.355077
N296	N	1.864476	1.052713	-0.105077
H297	H	1.162752	0.318069	-0.875988
H298	H	1.412752	0.568069	-0.625988
H299	H	1.662752	0.818069	-0.375988
H300	H	1.912752	1.068069	-0.125988
H301	H	1.101392	0.250981	-0.872487
H302	H	1.351392	0.500981	-0.622487
H303	H	1.601392	0.750981	-0.372487
H304	H	1.851392	1.000981	-0.122487
N305	N	0.273302	0.316436	-0.316663
N306	N	0.523302	0.566436	-0.066663
N307	N	0.773302	0.816436	0.183337
N308	N	1.023302	1.066436	0.433337
H309	H	0.221270	0.321319	-0.321508
H310	H	0.471270	0.571319	-0.071508
H311	H	0.721270	0.821319	0.178492
H312	H	0.971270	1.071319	0.428492
H313	H	0.286115	0.328536	-0.264190
H314	H	0.536115	0.578536	-0.014190
H315	H	0.786115	0.828536	0.235810
H316	H	1.036115	1.078536	0.485810
H317	H	1.046631	0.529878	-0.858899
H318	H	1.296631	0.779878	-0.608899
H319	H	1.546631	1.029878	-0.358899
H320	H	1.796631	1.279878	-0.108899
H321	H	1.133261	0.442244	-0.955662
H322	H	1.383261	0.692244	-0.705662
H323	H	1.633261	0.942244	-0.455662
H324	H	1.883261	1.192244	-0.205662
H325	H	0.896711	0.364473	-0.852327
H326	H	1.146711	0.614473	-0.602327
H327	H	1.396711	0.864473	-0.352327
H328	H	1.646711	1.114473	-0.102327
H329	H	0.282990	0.501957	-0.501690
H330	H	0.532990	0.751957	-0.251690
H331	H	0.782990	1.001957	-0.001690
H332	H	1.032990	1.251957	0.248310
N333	N	0.757259	0.490753	-0.490489
N334	N	1.007259	0.740753	-0.240489
N335	N	1.257259	0.990753	0.009511
N336	N	1.507259	1.240753	0.259511
H337	H	0.722893	0.519323	-0.518980
H338	H	0.972893	0.769323	-0.268980
H339	H	1.222893	1.019323	-0.018980
H340	H	1.472893	1.269323	0.231020
H341	H	0.787718	0.461938	-0.526278
H342	H	1.037718	0.711938	-0.276278
H343	H	1.287718	0.961938	-0.026278
H344	H	1.537718	1.211938	0.223722
N345	N	1.150735	0.855681	-0.448334
N346	N	1.400735	1.105681	-0.198334
N347	N	1.650735	1.355681	0.051666
N348	N	1.900735	1.605681	0.301666
H349	H	1.163625	0.874151	-0.500142
H350	H	1.413625	1.124151	-0.250142
H351	H	1.663625	1.374151	-0.000142
H352	H	1.913625	1.624151	0.249858
H353	H	1.150236	0.799714	-0.447631
H354	H	1.400236	1.049714	-0.197631
H355	H	1.650236	1.299714	0.052369
H356	H	1.900236	1.549714	0.302369
H357	H	0.416063	0.335419	-0.335631
H358	H	0.666063	0.585419	-0.085631
H359	H	0.916063	0.835419	0.164369
H360	H	1.166063	1.085419	0.414369
N361	N	0.537411	0.478449	-0.478240
N362	N	0.787411	0.728449	-0.228240
N363	N	1.037411	0.978449	0.021760
N364	N	1.287411	1.228449	0.271760
H365	H	0.503050	0.507026	-0.506731
H366	H	0.753050	0.757026	-0.256731
H367	H	1.003050	1.007026	-0.006731
H368	H	1.253050	1.257026	0.243269
H369	H	0.567870	0.449634	-0.514029
H370	H	0.817870	0.699634	-0.264029
H371	H	1.067870	0.949634	-0.014029
H372	H	1.317870	1.199634	0.235971
N373	N	0.604808	0.286207	-0.286529
N374	N	0.854808	0.536207	-0.036529
N375	N	1.104808	0.786207	0.213471
N376	N	1.354808	1.036207	0.463471
H377	H	0.552776	0.291081	-0.291375
H378	H	0.802776	0.541081	-0.041375
H379	H	1.052776	0.791081	0.208625
H380	H	1.302776	1.041081	0.458625
H381	H	0.617617	0.298301	-0.234053
H382	H	0.867617	0.548301	0.015947
H383	H	1.117617	0.798301	0.265947
H384	H	1.367617	1.048301	0.515947
N385	N	0.757270	0.293068	-0.293403
N386	N	1.007270	0.543068	-0.043403
N387	N	1.257270	0.793068	0.206597
N388	N	1.507270	1.043068	0.456597
H389	H	0.722908	0.261395	-0.261823
H390	H	0.972908	0.511395	-0.011823
H391	H	1.222908	0.761395	0.238177
H392	H	1.472908	1.011395	0.488177
H393	H	0.787682	0.324626	-0.260350
H394	H	1.037682	0.574626	-0.010350
H395	H	1.287682	0.824626	0.239650
H396	H	1.537682	1.074626	0.489650
H397	H	0.983244	0.855564	-0.277026
H398	H	1.233244	1.105564	-0.027026
H399	H	1.483244	1.355564	0.222974
H400	H	1.733244	1.605564	0.472974
N401	N	0.879154	0.950652	-0.358860
N402	N	1.129154	1.200652	-0.108860
N403	N	1.379154	1.450652	0.141140
N404	N	1.629154	1.700652	0.391140
H405	H	0.843711	0.931113	-0.394731
H406	H	1.093711	1.181113	-0.144731
H407	H	1.343711	1.431113	0.105269
H408	H	1.593711	1.681113	0.355269
H409	H	0.879885	1.006630	-0.358563
H410	H	1.129885	1.256630	-0.108563
H411	H	1.379885	1.506630	0.141437
H412	H	1.629885	1.756630	0.391437
