data_functionalizedCrystal
_audit_creation_method	'MofGen! by Chris Wilmer'
_symmetry_space_group_name_H-M	'P1'
_symmetry_Int_Tables_number	1
_symmetry_cell_setting	triclinic
loop_
_symmetry_equiv_pos_as_xyz
  x,y,z
_cell_length_a	10.654545
_cell_length_b	10.654551
_cell_length_c	9.130313
_cell_angle_alpha	90.000169
_cell_angle_beta	90.003278
_cell_angle_gamma	84.484220
loop_
_atom_site_label
_atom_site_type_symbol
_atom_site_fract_x
_atom_site_fract_y
_atom_site_fract_z
O1	O	1.667844	0.176369	0.121775
O2	O	1.302365	0.193181	0.121780
O3	O	1.493507	0.002036	0.121778
O4	O	1.476702	0.367514	0.121777
O5	O	1.493492	0.002036	-0.121821
O6	O	1.302350	0.193181	-0.121819
O7	O	1.667830	0.176369	-0.121824
Cu8	Cu	1.485089	0.184775	-0.144064
Cu9	Cu	1.485106	0.184775	0.144020
O10	O	1.476688	0.367514	-0.121822
C11	C	1.255560	0.191948	-0.000019
C12	C	1.116116	0.188258	-0.000016
C13	C	1.050604	0.186521	-0.132803
C14	C	0.919584	0.183033	-0.132803
C15	C	0.919601	0.183025	0.132782
C16	C	1.050619	0.186504	0.132780
C17	C	1.492265	-0.044762	-0.000018
C18	C	1.488573	-0.184206	-0.000008
C19	C	1.486849	-0.249717	0.132775
C20	C	1.483368	-0.380738	0.132768
C21	C	1.483342	-0.380723	-0.132817
C22	C	1.486813	-0.249704	-0.132808
C23	C	1.486869	-0.249728	0.286109
C24	C	1.483389	-0.380748	0.286102
C25	C	1.714635	0.177602	-0.000022
C26	C	1.854078	0.181292	-0.000015
C27	C	1.477929	0.414312	-0.000023
C28	C	1.481622	0.553755	-0.000023
N29	N	1.485086	0.184774	-0.346687
C30	C	1.561917	0.261655	-0.423335
C31	C	1.561938	0.261648	-0.576671
C32	C	1.408284	0.107876	-0.576699
C33	C	1.408271	0.107877	-0.423365
N34	N	1.485119	0.184766	0.346642
H35	H	0.866250	0.181620	-0.240931
Cl36	Cl	1.311713	0.011221	-0.673105
H37	H	1.624503	0.324250	-0.639071
H38	H	1.400083	-0.203445	0.344989
Cl39	Cl	1.658494	0.358314	-0.326944
H40	H	1.578471	-0.220163	0.333682
Cl41	Cl	1.311672	0.011222	-0.327000
Cl42	Cl	1.481127	-0.463073	-0.299756
H43	H	1.391795	-0.410314	0.333695
H44	H	1.103928	0.187950	-0.240935
Cl45	Cl	1.617394	-0.452230	0.376979
Cl46	Cl	1.132985	0.188677	0.299726
Cl47	Cl	1.488940	-0.167345	-0.299743
Cl48	Cl	0.837256	0.180789	0.299717
