data_functionalizedCrystal
_audit_creation_method	'MofGen! by Chris Wilmer'
_symmetry_space_group_name_H-M	'P1'
_symmetry_Int_Tables_number	1
_symmetry_cell_setting	triclinic
loop_
_symmetry_equiv_pos_as_xyz
  x,y,z
_cell_length_a	14.044191
_cell_length_b	14.044220
_cell_length_c	12.503572
_cell_angle_alpha	93.843168
_cell_angle_beta	86.162165
_cell_angle_gamma	93.190327
loop_
_atom_site_label
_atom_site_type_symbol
_atom_site_fract_x
_atom_site_fract_y
_atom_site_fract_z
O1	O	1.282208	0.225145	-0.089273
O2	O	1.782208	0.725145	0.410727
O3	O	1.005536	0.216832	-0.089287
O4	O	1.505536	0.716832	0.410713
O5	O	1.139719	0.082653	-0.089269
O6	O	1.639719	0.582653	0.410731
O7	O	1.148026	0.359324	-0.089290
O8	O	1.648026	0.859324	0.410710
O9	O	1.129629	0.092762	0.089371
O10	O	1.629629	0.592762	0.589371
O11	O	0.995447	0.226941	0.089354
O12	O	1.495447	0.726941	0.589354
O13	O	1.272118	0.235254	0.089368
O14	O	1.772118	0.735254	0.589368
Cu15	Cu	1.132861	0.232021	0.105672
Cu16	Cu	1.632861	0.732021	0.605672
Cu17	Cu	1.144794	0.220065	-0.105591
Cu18	Cu	1.644794	0.720065	0.394409
O19	O	1.137936	0.369433	0.089350
O20	O	1.637936	0.869433	0.589350
C21	C	0.964870	0.218250	0.000032
C22	C	1.464870	0.718250	0.500032
C23	C	0.858727	0.207402	0.000027
C24	C	1.358727	0.707402	0.500027
C25	C	1.131038	0.052086	0.000051
C26	C	1.631038	0.552086	0.500051
C27	C	1.120194	-0.054057	0.000052
C28	C	1.620194	0.445943	0.500052
C29	C	0.613268	0.264503	0.000034
C30	C	1.113268	0.764503	0.500034
C31	C	0.664393	0.187587	0.000038
C32	C	1.164393	0.687587	0.500038
C33	C	0.772531	0.198615	0.000032
C34	C	1.272531	0.698615	0.500032
C35	C	0.505121	0.253477	0.000040
C36	C	1.005121	0.753477	0.500040
C37	C	1.100368	-0.248396	0.000036
C38	C	1.600368	0.251604	0.500036
C39	C	1.177283	-0.299524	0.000036
C40	C	1.677283	0.200476	0.500036
C41	C	1.166252	-0.407661	0.000027
C42	C	1.666252	0.092339	0.500027
C43	C	1.111398	-0.140249	0.000045
C44	C	1.611398	0.359751	0.500045
C45	C	1.312785	0.233836	0.000046
C46	C	1.812785	0.733836	0.500046
C47	C	1.418929	0.244683	0.000044
C48	C	1.918929	0.744683	0.500044
C49	C	1.146617	0.400000	0.000027
C50	C	1.646617	0.900000	0.500027
C51	C	1.157462	0.506143	0.000020
C52	C	1.657462	1.006143	0.500020
N53	N	1.124476	0.240429	0.254263
N54	N	1.624476	0.740429	0.754263
N55	N	1.153186	0.211650	-0.254182
N56	N	1.653186	0.711650	0.245818
C57	C	1.112141	0.252807	0.473377
C58	C	1.612141	0.752807	0.973377
C59	C	1.165518	0.199275	0.526711
C60	C	1.665518	0.699275	1.026711
C61	C	1.158655	0.206162	0.648633
C62	C	1.658655	0.706162	1.148633
C63	C	1.119003	0.245921	0.351444
C64	C	1.619003	0.745921	0.851444
H65	H	0.650710	0.338629	0.000025
H66	H	1.150710	0.838629	0.500025
O67	O	1.265684	-0.254766	-0.000090
O68	O	1.765684	0.245234	0.499910
C69	C	1.281883	-0.202547	-0.092615
C70	C	1.781883	0.297453	0.407385
H71	H	1.210444	-0.185968	-0.123472
H72	H	1.710444	0.314032	0.376528
H73	H	1.324171	-0.132882	-0.071791
H74	H	1.824171	0.367118	0.428209
H75	H	1.324134	-0.246561	-0.157398
H76	H	1.824134	0.253439	0.342602
H77	H	1.026241	-0.285835	0.000029
H78	H	1.526241	0.214165	0.500029
O79	O	1.225954	0.138200	0.471947
O80	O	1.725954	0.638200	0.971947
C81	C	1.173188	0.071413	0.407079
C82	C	1.673188	0.571413	0.907079
H83	H	1.102786	0.102425	0.390260
H84	H	1.602786	0.602425	0.890260
H85	H	1.216094	0.054963	0.327984
H86	H	1.716094	0.554963	0.827984
H87	H	1.158018	0.002849	0.450535
H88	H	1.658018	0.502849	0.950535
O89	O	0.619583	0.099212	-0.000014
O90	O	1.119583	0.599212	0.499986
C91	C	0.520023	0.107729	0.000012
C92	C	1.020023	0.607729	0.500012
H93	H	0.504971	0.178382	-0.033800
H94	H	1.004971	0.678382	0.466200
H95	H	0.487528	0.046049	-0.051860
H96	H	0.987528	0.546049	0.448140
H97	H	0.487065	0.105641	0.085714
H98	H	0.987065	0.605641	0.585714
O99	O	1.051562	0.313637	0.528298
O100	O	1.551562	0.813637	1.028298
C101	C	1.058104	0.307048	0.639567
C102	C	1.558104	0.807048	1.139567
H103	H	1.130088	0.278537	0.654782
H104	H	1.630088	0.778537	1.154782
H105	H	1.051353	0.380841	0.682399
H106	H	1.551353	0.880841	1.182399
H107	H	0.998163	0.256439	0.671496
H108	H	1.498163	0.756439	1.171496
