data_functionalizedCrystal
_audit_creation_method	'MofGen! by Chris Wilmer'
_symmetry_space_group_name_H-M	'P1'
_symmetry_Int_Tables_number	1
_symmetry_cell_setting	triclinic
loop_
_symmetry_equiv_pos_as_xyz
  x,y,z
_cell_length_a	13.596369
_cell_length_b	14.519731
_cell_length_c	8.559648
_cell_angle_alpha	76.733759
_cell_angle_beta	90.010964
_cell_angle_gamma	89.992959
loop_
_atom_site_label
_atom_site_type_symbol
_atom_site_fract_x
_atom_site_fract_y
_atom_site_fract_z
O1	O	0.081789	-1.208816	-0.209563
O2	O	0.581789	-0.708816	0.290437
O3	O	0.081782	-0.938574	-0.234188
O4	O	0.581782	-0.438574	0.265812
O5	O	0.081810	-1.097504	0.010655
O6	O	0.581810	-0.597504	0.510655
O7	O	0.081760	-1.049887	-0.454406
O8	O	0.581760	-0.549887	0.045594
O9	O	-0.081773	-1.097485	0.010642
O10	O	0.418227	-0.597485	0.510642
O11	O	-0.081801	-0.938556	-0.234202
O12	O	0.418199	-0.438556	0.265798
O13	O	-0.081794	-1.208798	-0.209576
O14	O	0.418206	-0.708798	0.290424
Zn15	Zn	-0.107770	-1.073674	-0.221891
Zn16	Zn	0.392230	-0.573674	0.278109
Zn17	Zn	0.107758	-1.073698	-0.221873
Zn18	Zn	0.607758	-0.573698	0.278127
O19	O	-0.081822	-1.049868	-0.454420
O20	O	0.418178	-0.549868	0.045580
C21	C	-0.000010	-0.904289	-0.233041
C22	C	0.499990	-0.404289	0.266959
C23	C	-0.000011	-0.802157	-0.229583
C24	C	0.499989	-0.302157	0.270417
N25	N	-0.254862	-1.073664	-0.221902
N26	N	0.245138	-0.573664	0.278098
C27	C	0.000027	-1.101103	0.070168
C28	C	0.500027	-0.601103	0.570168
C29	C	0.000052	-1.111845	0.247516
C30	C	0.500052	-0.611845	0.747516
C31	C	-0.343860	-1.073669	-0.221906
C32	C	0.156140	-0.573669	0.278094
C33	C	-0.455511	-1.073678	-0.221895
C34	C	0.044489	-0.573678	0.278105
C35	C	-0.544502	-1.073692	-0.221877
C36	C	-0.044502	-0.573692	0.278123
C37	C	-0.656160	-1.073703	-0.221867
C38	C	-0.156160	-0.573703	0.278133
N39	N	0.254849	-1.073716	-0.221849
N40	N	0.754849	-0.573716	0.278151
C41	C	-0.000008	-0.719214	-0.226774
C42	C	0.499992	-0.219214	0.273226
C43	C	-0.000010	-0.615157	-0.223263
C44	C	0.499990	-0.115157	0.276737
C45	C	-0.000011	-0.532218	-0.220477
C46	C	0.499989	-0.032218	0.279523
C47	C	-0.000010	-0.428155	-0.216967
C48	C	0.499990	0.071845	0.283033
C49	C	-0.000005	-0.243084	-0.210723
C50	C	0.499995	0.256916	0.289277
C51	C	-0.000012	-0.345216	-0.214181
C52	C	0.499988	0.154784	0.285819
C53	C	-0.000010	-1.046269	0.486068
C54	C	0.499990	-0.546269	0.986068
C55	C	0.000053	-1.035528	0.308720
C56	C	0.500053	-0.535528	0.808720
H57	H	0.000040	-0.961972	0.225443
H58	H	0.500040	-0.461972	0.725443
Br59	Br	0.000051	-1.234453	0.386318
Br60	Br	0.500051	-0.734453	0.886318
