data_functionalizedCrystal
_audit_creation_method	'MofGen! by Chris Wilmer'
_symmetry_space_group_name_H-M	'P1'
_symmetry_Int_Tables_number	1
_symmetry_cell_setting	triclinic
loop_
_symmetry_equiv_pos_as_xyz
  x,y,z
_cell_length_a	12.827893
_cell_length_b	13.031981
_cell_length_c	12.827885
_cell_angle_alpha	82.783278
_cell_angle_beta	89.980728
_cell_angle_gamma	97.191823
loop_
_atom_site_label
_atom_site_type_symbol
_atom_site_fract_x
_atom_site_fract_y
_atom_site_fract_z
Zn1	Zn	1.544849	-0.416067	-0.537943
Zn2	Zn	1.522548	-0.590879	-0.340977
Zn3	Zn	1.370083	-0.416117	-0.363211
Zn4	Zn	1.347891	-0.590801	-0.515687
O5	O	1.446343	-0.503466	-0.439454
O6	O	1.688125	-0.439267	-0.511824
O7	O	1.502278	-0.567750	-0.197683
O8	O	1.411886	-0.269845	-0.405008
O9	O	1.671741	-0.567701	-0.367114
O10	O	1.540286	-0.269808	-0.533383
O11	O	1.390262	-0.439354	-0.214018
O12	O	1.220905	-0.439278	-0.383428
O13	O	1.374064	-0.567568	-0.664882
O14	O	1.204600	-0.567618	-0.495452
O15	O	1.518767	-0.439192	-0.681234
O16	O	1.480760	-0.737134	-0.345533
O17	O	1.352440	-0.737077	-0.473892
C18	C	1.174835	-0.503446	-0.439438
C19	C	1.058680	-0.503462	-0.439452
C20	C	1.411800	-0.775030	-0.404908
C21	C	1.397118	-0.891207	-0.390164
C22	C	0.998801	-0.566918	-0.367773
C23	C	0.878748	-0.566936	-0.367787
C24	C	1.454061	-0.942900	-0.447170
C25	C	1.438888	-1.062974	-0.431933
C26	C	1.718910	-0.503487	-0.439471
C27	C	1.835062	-0.503496	-0.439479
C28	C	1.446427	-0.503366	-0.712037
C29	C	1.446464	-0.503323	-0.828196
C30	C	1.481049	-0.230841	-0.474158
C31	C	1.495838	-0.114665	-0.488947
C32	C	1.501939	-0.566786	-0.991951
C33	C	1.501903	-0.566832	-0.871895
C34	C	1.446328	-0.503491	-0.167941
C35	C	1.446532	-0.503239	-0.051821
H36	H	0.827285	-0.621261	-0.306418
C37	C	1.382408	-0.429782	-1.001004
C38	C	1.438173	-0.347822	-0.936379
C39	C	1.374047	-0.274362	-0.885566
C40	C	1.254157	-0.282863	-0.899379
C41	C	1.198386	-0.364826	-0.964008
C42	C	1.262511	-0.438286	-1.014821
H43	H	1.526929	-0.341526	-0.926151
H44	H	1.415334	-0.213687	-0.837723
H45	H	1.206687	-0.228483	-0.861764
H46	H	1.109630	-0.371122	-0.974236
H47	H	1.221225	-0.498961	-1.062663
C48	C	1.566051	-0.640259	-1.042756
C49	C	1.685940	-0.631779	-1.028941
C50	C	1.750050	-0.705262	-1.079737
C51	C	1.694270	-0.787227	-1.144349
C52	C	1.574375	-0.795711	-1.158168
C53	C	1.510265	-0.722227	-1.107372
H54	H	1.727238	-0.571101	-0.981108
H55	H	1.838805	-0.698981	-1.069507
H56	H	1.741728	-0.841623	-1.181952
H57	H	1.533077	-0.856388	-1.206000
H58	H	1.421510	-0.728508	-1.117602
H59	H	1.036414	-0.621234	-0.306399
C60	C	0.904571	-0.430096	-0.522391
C61	C	0.973896	-0.475541	-0.598502
C62	C	1.043413	-0.402141	-0.681414
C63	C	1.043606	-0.283298	-0.688215
C64	C	0.974278	-0.237848	-0.612101
C65	C	0.904760	-0.311247	-0.529189
H66	H	0.973756	-0.563521	-0.593470
H67	H	1.094734	-0.435787	-0.737758
H68	H	1.095067	-0.228963	-0.749591
H69	H	0.974418	-0.149867	-0.617133
H70	H	0.853439	-0.277601	-0.472845
C71	C	1.535101	-0.882606	-0.528342
C72	C	1.652046	-0.897417	-0.518049
C73	C	1.733089	-0.837125	-0.599222
C74	C	1.697188	-0.762021	-0.690686
C75	C	1.580237	-0.747206	-0.700983
C76	C	1.499194	-0.807498	-0.619811
H77	H	1.678627	-0.953017	-0.450338
H78	H	1.819664	-0.848092	-0.591599
H79	H	1.757181	-0.717389	-0.750775
H80	H	1.553656	-0.691606	-0.768694
H81	H	1.412619	-0.796531	-0.627433
H82	H	1.399030	-0.448911	-0.879646
C83	C	1.357846	-1.123262	-0.350753
C84	C	1.393751	-1.198362	-0.259287
C85	C	1.312711	-1.258651	-0.178109
C86	C	1.195766	-1.243839	-0.188397
C87	C	1.159855	-1.168735	-0.279866
C88	C	1.240895	-1.108446	-0.361044
H89	H	1.480326	-1.209330	-0.251668
H90	H	1.339295	-1.314248	-0.110397
H91	H	1.135775	-1.288468	-0.128304
H92	H	1.073280	-1.157767	-0.287485
H93	H	1.214311	-1.052850	-0.428756
H94	H	1.549343	-0.621233	-0.820440
C95	C	1.316080	-0.951498	-0.308988
C96	C	1.351986	-1.026599	-0.217522
C97	C	1.270946	-1.086887	-0.136344
C98	C	1.154001	-1.072075	-0.146632
C99	C	1.118090	-0.996971	-0.238102
C100	C	1.199130	-0.936683	-0.319280
H101	H	1.438560	-1.037567	-0.209903
H102	H	1.297530	-1.142484	-0.068632
H103	H	1.094010	-1.116704	-0.086539
H104	H	1.031515	-0.986003	-0.245721
H105	H	1.172546	-0.881086	-0.386991
C106	C	1.576879	-1.054382	-0.570132
C107	C	1.693823	-1.069198	-0.559848
C108	C	1.774860	-1.008917	-0.641033
C109	C	1.738953	-0.933821	-0.732502
C110	C	1.622003	-0.919002	-0.742789
C111	C	1.540966	-0.979283	-0.661604
H112	H	1.720409	-1.124791	-0.492135
H113	H	1.861435	-1.019887	-0.633417
H114	H	1.798942	-0.889197	-0.792600
H115	H	1.595417	-0.863409	-0.810503
H116	H	1.454391	-0.968313	-0.669220
H117	H	1.021066	-0.449153	-0.500832
