data_functionalizedCrystal
_audit_creation_method	'MofGen! by Chris Wilmer'
_symmetry_space_group_name_H-M	'P1'
_symmetry_Int_Tables_number	1
_symmetry_cell_setting	triclinic
loop_
_symmetry_equiv_pos_as_xyz
  x,y,z
_cell_length_a	16.120530
_cell_length_b	12.759399
_cell_length_c	12.759393
_cell_angle_alpha	90.032031
_cell_angle_beta	87.081041
_cell_angle_gamma	92.889229
loop_
_atom_site_label
_atom_site_type_symbol
_atom_site_fract_x
_atom_site_fract_y
_atom_site_fract_z
Zn1	Zn	1.274623	0.499754	-0.675422
Zn2	Zn	1.274538	0.675468	-0.499735
Zn3	Zn	1.135200	0.490888	-0.490853
Zn4	Zn	1.135189	0.666471	-0.666473
O5	O	1.204887	0.583145	-0.583121
O6	O	1.391278	0.530538	-0.659579
O7	O	1.256023	0.651038	-0.351534
O8	O	1.153734	0.345046	-0.515364
O9	O	1.391216	0.659634	-0.530503
O10	O	1.256168	0.351559	-0.650966
O11	O	1.153652	0.515428	-0.345008
O12	O	1.018531	0.506704	-0.506687
O13	O	1.153717	0.644300	-0.814683
O14	O	1.018524	0.635704	-0.635714
O15	O	1.256158	0.521814	-0.821258
O16	O	1.256013	0.821293	-0.521826
O17	O	1.153635	0.814683	-0.644327
C18	C	0.988277	0.569266	-0.569266
C19	C	0.895611	0.563354	-0.563364
C20	C	1.204836	0.856109	-0.583094
C21	C	1.204891	0.972889	-0.583122
C22	C	1.204946	0.583043	-0.857158
C23	C	1.204970	0.582999	-0.973936
C24	C	0.725947	0.552536	-0.552597
C25	C	0.684668	0.613832	-0.613721
C26	C	0.590261	0.607812	-0.607731
C27	C	0.820362	0.558554	-0.558586
C28	C	1.422343	0.597079	-0.597030
C29	C	1.515010	0.603017	-0.602958
C30	C	1.204961	0.309117	-0.583172
C31	C	1.204993	0.192342	-0.583194
C32	C	1.258260	1.031162	-0.519416
C33	C	1.258314	1.140890	-0.519454
C34	C	1.151621	1.134061	-0.646908
C35	C	1.151572	1.024336	-0.646874
C36	C	1.356720	1.297065	-0.488352
C37	C	1.410082	1.355341	-0.424629
C38	C	1.422909	1.320624	-0.322938
C39	C	1.382362	1.227631	-0.284948
C40	C	1.328994	1.169360	-0.348665
C41	C	1.316182	1.204077	-0.450372
C42	C	1.053165	0.868159	-0.677966
C43	C	0.999792	0.809886	-0.741678
C44	C	0.986956	0.844600	-0.843370
C45	C	1.027489	0.937595	-0.881355
C46	C	1.080862	0.995868	-0.817643
C47	C	1.093699	0.961146	-0.715952
C48	C	1.151685	0.512376	-1.025401
C49	C	1.151704	0.512345	-1.135126
C50	C	1.258302	0.653563	-1.141913
C51	C	1.258278	0.653598	-1.032189
C52	C	1.053424	0.468457	-1.278800
C53	C	1.000146	0.397818	-1.330269
C54	C	0.987367	0.294496	-1.293863
C55	C	1.027879	0.261794	-1.205992
C56	C	1.081164	0.332427	-1.154529
C57	C	1.093926	0.435762	-1.190932
C58	C	1.356559	0.697476	-0.888514
C59	C	1.409848	0.768105	-0.837050
C60	C	1.422635	0.871429	-0.873453
C61	C	1.382138	0.904129	-0.961329
C62	C	1.328849	0.833499	-1.012794
C63	C	1.316060	0.730177	-0.976382
C64	C	1.204877	0.583175	-0.310153
C65	C	1.205014	0.582933	-0.193385
H66	H	0.720229	0.670829	-0.670552
H67	H	1.017038	0.965861	-0.964162
H68	H	1.108278	0.454890	-0.977974
H69	H	1.392804	1.199377	-0.202136
H70	H	0.690388	0.495543	-0.495771
H71	H	1.301676	0.989277	-0.467506
H72	H	1.295983	1.093647	-0.317736
C73	C	0.955206	0.707592	-0.699896
H74	H	0.970502	0.695252	-0.630211
H75	H	0.896742	0.713723	-0.700330
H76	H	0.970884	0.650686	-0.743367
H77	H	0.943987	0.236982	-1.335777
C78	C	1.125452	1.098160	-0.859421
H79	H	1.159071	1.127896	-0.806909
H80	H	1.159464	1.083331	-0.920072
H81	H	1.085323	1.146372	-0.877039
C82	C	1.067477	0.582114	-1.318841
H83	H	1.105004	0.619504	-1.275601
H84	H	1.090154	0.581742	-1.389022
H85	H	1.015938	0.615223	-1.316587
H86	H	1.466359	1.368080	-0.271054
C87	C	1.454688	1.457620	-0.466419
H88	H	1.439420	1.469943	-0.536119
H89	H	1.439015	1.514535	-0.422967
H90	H	1.513153	1.451471	-0.465965
C91	C	1.396202	1.017784	-1.001378
H92	H	1.433732	1.055167	-0.958138
H93	H	1.418880	1.017407	-1.071559
H94	H	1.344667	1.050903	-0.999126
H95	H	1.346128	0.613351	-0.858843
H96	H	1.466036	0.928932	-0.831547
H97	H	1.108210	1.175963	-0.698811
C98	C	1.342619	1.335246	-0.600219
H99	H	1.305038	1.287218	-0.632734
H100	H	1.319989	1.402555	-0.596971
H101	H	1.394134	1.339505	-0.639974
C102	C	1.454378	0.732144	-0.740371
H103	H	1.439118	0.660498	-0.726044
H104	H	1.512848	0.740115	-0.753901
H105	H	1.438619	0.773631	-0.681509
H106	H	0.943493	0.797145	-0.895243
H107	H	0.967162	0.424454	-1.401814
H108	H	1.063619	0.839879	-0.595162
H109	H	1.114151	0.305800	-1.082990
H110	H	1.017478	0.177654	-1.176365
C111	C	1.316943	0.731206	-1.205995
H112	H	1.309333	0.721064	-1.278714
H113	H	1.304721	0.801021	-1.187219
H114	H	1.372962	0.719417	-1.191596
H115	H	1.295876	0.860132	-1.084349
