data_functionalizedCrystal
_audit_creation_method	'MofGen! by Chris Wilmer'
_symmetry_space_group_name_H-M	'P1'
_symmetry_Int_Tables_number	1
_symmetry_cell_setting	triclinic
loop_
_symmetry_equiv_pos_as_xyz
  x,y,z
_cell_length_a	14.519709
_cell_length_b	9.065215
_cell_length_c	13.596369
_cell_angle_alpha	89.994989
_cell_angle_beta	89.999709
_cell_angle_gamma	95.652579
loop_
_atom_site_label
_atom_site_type_symbol
_atom_site_fract_x
_atom_site_fract_y
_atom_site_fract_z
O1	O	1.225283	-0.193397	0.081661
O2	O	0.956973	-0.216172	0.081691
O3	O	1.096675	0.009962	0.081671
O4	O	1.085581	-0.419531	0.081681
O5	O	1.096661	0.009974	-0.081912
O6	O	0.956959	-0.216160	-0.081892
O7	O	1.225269	-0.193385	-0.081922
Zn8	Zn	1.091112	-0.204770	-0.107879
Zn9	Zn	1.091130	-0.204786	0.107648
O10	O	1.085567	-0.419519	-0.081902
C11	C	0.922598	-0.215104	-0.000097
C12	C	0.820194	-0.211924	-0.000085
C13	C	0.445212	-0.200215	-0.000130
C14	C	0.549544	-0.203466	-0.000118
C15	C	0.632700	-0.206069	-0.000107
C16	C	0.737038	-0.209321	-0.000096
C17	C	1.095603	0.064935	-0.000119
C18	C	1.092416	0.228718	-0.000116
C19	C	1.259644	-0.194452	-0.000132
C20	C	1.362048	-0.197633	-0.000137
C21	C	1.086639	-0.474492	-0.000110
C22	C	1.089826	-0.638275	-0.000106
N23	N	1.091106	-0.204759	-0.254971
C24	C	1.091129	-0.204788	-0.656262
C25	C	1.091120	-0.204785	-0.544611
C26	C	1.091118	-0.204774	-0.455620
C27	C	1.091108	-0.204769	-0.343962
N28	N	1.091144	-0.204786	0.254740
