data_functionalizedCrystal
_audit_creation_method	'MofGen! by Chris Wilmer'
_symmetry_space_group_name_H-M	'P1'
_symmetry_Int_Tables_number	1
_symmetry_cell_setting	triclinic
loop_
_symmetry_equiv_pos_as_xyz
  x,y,z
_cell_length_a	11.026607
_cell_length_b	11.026607
_cell_length_c	16.176319
_cell_angle_alpha	89.991517
_cell_angle_beta	90.005437
_cell_angle_gamma	108.586017
loop_
_atom_site_label
_atom_site_type_symbol
_atom_site_fract_x
_atom_site_fract_y
_atom_site_fract_z
O1	O	1.726730	0.533603	0.068745
O2	O	1.360150	0.472839	0.068746
O3	O	1.513058	0.319931	0.068742
O4	O	1.573822	0.686511	0.068748
O5	O	1.513047	0.319963	-0.068751
O6	O	1.360139	0.472871	-0.068747
O7	O	1.726719	0.533634	-0.068749
Cu8	Cu	1.543428	0.503255	-0.081302
Cu9	Cu	1.543441	0.503218	0.081299
O10	O	1.573811	0.686543	-0.068745
C11	C	1.312485	0.461645	-0.000001
C12	C	1.170471	0.428228	-0.000000
C13	C	1.116821	0.520498	0.000002
C14	C	0.970043	0.485962	0.000002
C15	C	1.501843	0.272287	-0.000003
C16	C	1.468426	0.130273	-0.000000
C17	C	1.560695	0.076624	0.000001
C18	C	1.526160	-0.070155	0.000004
C19	C	1.774384	0.544828	-0.000000
C20	C	1.916398	0.578245	0.000004
C21	C	1.585026	0.734187	0.000002
C22	C	1.618443	0.876200	0.000005
N23	N	1.543428	0.503283	-0.195667
C24	C	1.449272	0.408976	-0.761058
C25	C	1.449272	0.408986	-0.674511
C26	C	1.543444	0.503208	-0.631243
C27	C	1.637630	0.597420	-0.674526
C28	C	1.637634	0.597405	-0.761071
C29	C	1.637614	0.597485	-0.325498
C30	C	1.637600	0.597496	-0.238946
C31	C	1.449252	0.409066	-0.238937
C32	C	1.449256	0.409051	-0.325483
C33	C	1.543445	0.503258	-0.368759
C34	C	1.543446	0.503245	-0.462603
C35	C	1.543439	0.503228	-0.537400
N36	N	1.543449	0.503183	0.195665
H37	H	0.907314	0.381393	0.000022
F38	F	1.349010	0.308798	-0.192874
F39	F	1.331751	0.048283	0.000008
F40	F	1.088480	0.291554	-0.000008
F41	F	1.737860	0.697695	-0.628474
F42	F	1.737853	0.697755	-0.371544
H43	H	1.372587	0.332270	-0.639279
H44	H	1.372581	0.332254	-0.796281
H45	H	1.179555	0.625061	-0.000001
F46	F	1.737835	0.697786	-0.192898
H47	H	1.714323	0.674117	-0.796306
F48	F	0.998382	0.714928	-0.000003
H49	H	1.665258	0.139357	-0.000005
H50	H	1.421590	-0.132884	0.000010
H51	H	1.723013	-0.061072	0.000066
H52	H	1.372568	0.332328	-0.360708
