data_functionalizedCrystal
_audit_creation_method	'MofGen! by Chris Wilmer'
_symmetry_space_group_name_H-M	'P1'
_symmetry_Int_Tables_number	1
_symmetry_cell_setting	triclinic
loop_
_symmetry_equiv_pos_as_xyz
  x,y,z
_cell_length_a	12.645331
_cell_length_b	12.645330
_cell_length_c	18.215399
_cell_angle_alpha	89.976970
_cell_angle_beta	89.984786
_cell_angle_gamma	90.018103
loop_
_atom_site_label
_atom_site_type_symbol
_atom_site_fract_x
_atom_site_fract_y
_atom_site_fract_z
Zn1	Zn	1.620702	-0.422039	-0.416050
Zn2	Zn	2.120702	0.077961	0.083950
Zn3	Zn	1.620592	-0.599321	-0.292995
Zn4	Zn	2.120592	-0.099321	0.207005
Zn5	Zn	1.443425	-0.422073	-0.293008
Zn6	Zn	1.943425	0.077927	0.206992
Zn7	Zn	1.443398	-0.599262	-0.416029
Zn8	Zn	1.943398	-0.099262	0.083971
O9	O	1.532029	-0.510674	-0.354521
O10	O	2.032029	-0.010674	0.145479
O11	O	1.769035	-0.445566	-0.399730
O12	O	2.269035	0.054434	0.100270
O13	O	1.597056	-0.575848	-0.190012
O14	O	2.097056	-0.075848	0.309988
O15	O	1.466998	-0.273721	-0.309344
O16	O	1.966998	0.226279	0.190656
O17	O	1.768954	-0.575814	-0.309322
O18	O	2.268954	-0.075814	0.190678
O19	O	1.597243	-0.273696	-0.399743
O20	O	2.097243	0.226304	0.100257
O21	O	1.466892	-0.445625	-0.190022
O22	O	1.966892	0.054375	0.309978
O23	O	1.295074	-0.445567	-0.309323
O24	O	1.795074	0.054433	0.190677
O25	O	1.466953	-0.575714	-0.519017
O26	O	1.966953	-0.075714	-0.019017
O27	O	1.295055	-0.575747	-0.399707
O28	O	1.795055	-0.075747	0.100293
O29	O	1.597217	-0.445508	-0.519032
O30	O	2.097217	0.054492	-0.019032
O31	O	1.597030	-0.747660	-0.309301
O32	O	2.097030	-0.247660	0.190699
O33	O	1.466846	-0.747617	-0.399694
O34	O	1.966846	-0.247617	0.100306
C35	C	1.256600	-0.510655	-0.354515
C36	C	1.756600	-0.010655	0.145485
C37	C	1.138770	-0.510673	-0.354530
C38	C	1.638770	-0.010673	0.145470
C39	C	1.093911	-0.592709	-0.411307
C40	C	1.593911	-0.092709	0.088693
C41	C	0.971351	-0.593046	-0.411138
C42	C	1.471351	-0.093046	0.088862
C43	C	0.970822	-0.540508	-0.276878
C44	C	1.470822	-0.040508	0.223122
C45	C	1.093420	-0.541087	-0.277207
C46	C	1.593420	-0.041087	0.222793
C47	C	1.093622	-0.398629	-0.374726
C48	C	1.593622	0.101371	0.125274
C49	C	0.971017	-0.399248	-0.376436
C50	C	1.471017	0.100752	0.123564
C51	C	1.531952	-0.786103	-0.354510
C52	C	2.031952	-0.286103	0.145490
C53	C	1.532016	-0.903933	-0.354530
C54	C	2.032016	-0.403933	0.145470
C55	C	1.450455	-1.071514	-0.411572
C56	C	1.950455	-0.571514	0.088428
C57	C	1.450038	-0.948955	-0.411389
C58	C	1.950038	-0.448955	0.088611
C59	C	1.501776	-0.948524	-0.276974
C60	C	2.001776	-0.448524	0.223026
C61	C	1.501278	-1.071123	-0.277320
C62	C	2.001278	-0.571123	0.222680
C63	C	1.644316	-1.071023	-0.374417
C64	C	2.144316	-0.571023	0.125583
C65	C	1.643627	-0.948416	-0.376113
C66	C	2.143627	-0.448416	0.123887
C67	C	1.808535	-0.510693	-0.354527
C68	C	2.308535	-0.010693	0.145473
C69	C	1.926365	-0.510701	-0.354529
C70	C	2.426365	-0.010701	0.145471
C71	C	1.532094	-0.510601	-0.546473
C72	C	2.032094	-0.010601	-0.046473
C73	C	1.532122	-0.510569	-0.628272
C74	C	2.032122	-0.010569	-0.128272
C75	C	1.532136	-0.234168	-0.354547
C76	C	2.032136	0.265832	0.145453
C77	C	1.532181	-0.116338	-0.354558
C78	C	2.032181	0.383662	0.145442
C79	C	1.599974	-0.442708	-0.816476
C80	C	2.099974	0.057292	-0.316476
C81	C	1.599987	-0.442677	-0.893334
C82	C	2.099987	0.057323	-0.393334
C83	C	1.464344	-0.578267	-0.893307
C84	C	1.964344	-0.078267	-0.393307
C85	C	1.464326	-0.578291	-0.816450
C86	C	1.964326	-0.078291	-0.316450
C87	C	1.532148	-0.510514	-0.778036
C88	C	2.032148	-0.010514	-0.278036
C89	C	1.532178	-0.510458	-0.931752
C90	C	2.032178	-0.010458	-0.431752
C91	C	1.532191	-0.510425	-1.015086
C92	C	2.032191	-0.010425	-0.515086
C93	C	1.532133	-0.510545	-0.694697
C94	C	2.032133	-0.010545	-0.194697
C95	C	1.532026	-0.510670	-0.163314
C96	C	2.032026	-0.010670	0.336686
C97	C	1.532204	-0.510402	-0.081516
C98	C	2.032204	-0.010402	0.418484
H99	H	0.941682	-0.482591	-0.233413
H100	H	1.441682	0.017409	0.266587
H101	H	1.367843	-1.102415	-0.398584
H102	H	1.867843	-0.602415	0.101416
O103	O	1.475400	-1.110750	-0.487914
O104	O	1.975400	-0.610750	0.012086
H105	H	1.491261	-1.042307	-0.524467
H106	H	1.991261	-0.542307	-0.024467
O107	O	1.673117	-0.369607	-0.775039
O108	O	2.173117	0.130393	-0.275039
H109	H	1.654960	-0.286400	-0.789793
H110	H	2.154960	0.213600	-0.289793
H111	H	1.409086	-0.633506	-0.785151
H112	H	1.909086	-0.133506	-0.285151
H113	H	0.941964	-0.376762	-0.433583
H114	H	1.441964	0.123238	0.066417
O115	O	0.931523	-0.568407	-0.487389
O116	O	1.431523	-0.068407	0.012611
H117	H	0.999830	-0.556150	-0.524718
H118	H	1.499830	-0.056150	-0.024718
H119	H	0.941993	-0.676079	-0.397739
H120	H	1.441993	-0.176079	0.102261
H121	H	1.123425	-0.574329	-0.469054
H122	H	1.623425	-0.074329	0.030946
O123	O	0.930121	-0.647796	-0.253870
O124	O	1.430121	-0.147796	0.246130
H125	H	0.878245	-0.680060	-0.297611
H126	H	1.378245	-0.180060	0.202389
H127	H	1.655217	-0.387462	-0.924629
H128	H	2.155217	0.112538	-0.424629
H129	H	1.366907	-0.919720	-0.398233
H130	H	1.866907	-0.419720	0.101767
H131	H	1.409128	-0.633451	-0.924593
H132	H	1.909128	-0.133451	-0.424593
H133	H	1.124689	-0.675263	-0.398070
H134	H	1.624689	-0.175263	0.101930
O135	O	1.576709	-1.110408	-0.219137
O136	O	2.076709	-0.610408	0.280863
H137	H	1.576929	-1.198183	-0.218955
H138	H	2.076929	-0.698183	0.281045
O139	O	1.132078	-0.317674	-0.319965
O140	O	1.632078	0.182326	0.180035
H141	H	1.178190	-0.255759	-0.349002
H142	H	1.678190	0.244241	0.150998
H143	H	1.559415	-0.919363	-0.233333
H144	H	2.059415	-0.419363	0.266667
O145	O	1.131272	-0.649556	-0.254602
O146	O	1.631272	-0.149556	0.245398
H147	H	1.062013	-0.701105	-0.243543
H148	H	1.562013	-0.201105	0.256457
H149	H	1.123093	-0.483889	-0.233452
H150	H	1.623093	0.016111	0.266548
H151	H	1.707724	-0.917763	-0.337610
H152	H	2.207724	-0.417763	0.162390
O153	O	1.134619	-0.362537	-0.448463
O154	O	1.634619	0.137463	0.051537
H155	H	1.187635	-0.424066	-0.471542
H156	H	1.687635	0.075934	0.028458
O157	O	1.392700	-1.109141	-0.255042
O158	O	1.892700	-0.609141	0.244958
H159	H	1.341041	-1.039961	-0.244127
H160	H	1.841041	-0.539961	0.255873
O161	O	0.930485	-0.314008	-0.325688
O162	O	1.430485	0.185992	0.174312
H163	H	0.877651	-0.349911	-0.283870
H164	H	1.377651	0.150089	0.216130
O165	O	1.673850	-0.909788	-0.451712
O166	O	2.173850	-0.409788	0.048288
H167	H	1.614343	-0.937408	-0.492182
H168	H	2.114343	-0.437408	0.007818
O169	O	1.394325	-0.907991	-0.254280
O170	O	1.894325	-0.407991	0.245720
H171	H	1.362287	-0.856102	-0.298109
H172	H	1.862287	-0.356102	0.201891
H173	H	1.468957	-0.918803	-0.468897
H174	H	1.968957	-0.418803	0.031103
H175	H	1.671902	-1.101869	-0.430009
H176	H	2.171902	-0.601869	0.069991
O177	O	1.725031	-1.109653	-0.319536
O178	O	2.225031	-0.609653	0.180464
H179	H	1.685536	-1.160848	-0.278298
H180	H	2.185536	-0.660848	0.221702
