data_functionalizedCrystal
_audit_creation_method	'MofGen! by Chris Wilmer'
_symmetry_space_group_name_H-M	'P1'
_symmetry_Int_Tables_number	1
_symmetry_cell_setting	triclinic
loop_
_symmetry_equiv_pos_as_xyz
  x,y,z
_cell_length_a	27.731993
_cell_length_b	27.731996
_cell_length_c	10.065875
_cell_angle_alpha	98.708141
_cell_angle_beta	81.339926
_cell_angle_gamma	82.620891
loop_
_atom_site_label
_atom_site_type_symbol
_atom_site_fract_x
_atom_site_fract_y
_atom_site_fract_z
O1	O	0.648039	0.050256	-0.113137
O2	O	0.507245	0.059023	-0.113223
O3	O	0.582026	-0.015758	-0.113148
O4	O	0.573258	0.125037	-0.113212
O5	O	0.567766	-0.001441	0.113826
O6	O	0.492985	0.073340	0.113751
O7	O	0.633779	0.064572	0.113837
Zn8	Zn	0.561118	0.071229	0.149831
Zn9	Zn	0.579906	0.052366	-0.149217
O10	O	0.558998	0.139353	0.113762
C11	C	0.482108	0.066001	0.000253
C12	C	0.428454	0.065457	0.000222
C13	C	0.053064	0.053726	-0.123434
C14	C	0.254723	0.055791	-0.123472
O15	O	0.287407	0.049402	-0.228697
N16	N	0.272170	0.063853	0.000249
C17	C	0.239199	0.071397	0.123988
O18	O	0.258667	0.078297	0.229220
C19	C	0.037541	0.069329	0.124025
C20	C	0.020097	0.061271	0.000296
C21	C	0.035618	0.045668	-0.247153
C22	C	-0.014794	0.045155	-0.247142
C23	C	-0.047761	0.052699	-0.123412
C24	C	-0.030316	0.060757	0.000307
C25	C	0.004572	0.076869	0.247763
C26	C	-0.045845	0.076350	0.247761
C27	C	-0.063289	0.068292	0.124032
C28	C	-0.113695	0.067788	0.124047
N29	N	-0.131142	0.059726	0.000326
C30	C	-0.098175	0.052182	-0.123403
C31	C	0.345073	0.072483	0.123960
C32	C	0.395487	0.073001	0.123952
C33	C	0.411007	0.057394	-0.123509
C34	C	0.360592	0.056880	-0.123499
C35	C	0.327626	0.064421	0.000240
C36	C	-0.204045	0.051104	-0.123372
C37	C	-0.254463	0.050594	-0.123350
C38	C	-0.269978	0.066198	0.124110
C39	C	-0.219565	0.066711	0.124089
C40	C	-0.186599	0.059162	0.000337
O41	O	-0.146406	0.074168	0.229217
O42	O	-0.117651	0.045272	-0.228619
C43	C	0.103476	0.054240	-0.123444
C44	C	0.120921	0.062298	0.000274
C45	C	0.087954	0.069842	0.124004
C46	C	0.171335	0.062816	0.000266
C47	C	0.204302	0.055271	-0.123464
C48	C	0.186855	0.047209	-0.247185
C49	C	0.136443	0.046695	-0.247174
C50	C	0.105402	0.077904	0.247725
C51	C	0.155814	0.078418	0.247704
C52	C	0.188781	0.070873	0.123974
C53	C	0.574715	-0.026607	0.000344
C54	C	0.574172	-0.080262	0.000357
C55	C	0.578534	-0.420786	-0.123435
C56	C	0.576475	-0.622445	-0.123461
O57	O	0.582799	-0.655153	-0.228684
N58	N	0.568446	-0.639858	0.000262
C59	C	0.560928	-0.606853	0.123999
O60	O	0.554046	-0.626290	0.229232
C61	C	0.562984	-0.405194	0.124023
C62	C	0.571018	-0.387784	0.000293
C63	C	0.586568	-0.403376	-0.247156
C64	C	0.587085	-0.352964	-0.247148
C65	C	0.579569	-0.319963	-0.123420
C66	C	0.571536	-0.337373	0.000300
C67	C	0.555463	-0.372189	0.247759
C68	C	0.555976	-0.321771	0.247754
C69	C	0.564011	-0.304362	0.124024
C70	C	0.564537	-0.253960	0.124036
N71	N	0.572567	-0.236547	0.000313
C72	C	0.580082	-0.269548	-0.123415
C73	C	0.559850	-0.712727	0.123978
C74	C	0.559337	-0.763142	0.123973
C75	C	0.574883	-0.778731	-0.123488
C76	C	0.575399	-0.728316	-0.123481
C77	C	0.567879	-0.695314	0.000256
C78	C	0.581169	-0.163680	-0.123389
C79	C	0.581688	-0.113263	-0.123371
C80	C	0.566139	-0.097678	0.124089
C81	C	0.565623	-0.148091	0.124071
C82	C	0.573137	-0.181091	0.000321
O83	O	0.558212	-0.221224	0.229204
O84	O	0.586952	-0.250100	-0.228632
C85	C	0.578017	-0.471197	-0.123443
C86	C	0.569984	-0.488608	0.000278
C87	C	0.562468	-0.455606	0.124006
C88	C	0.569470	-0.539022	0.000272
C89	C	0.576986	-0.572024	-0.123456
C90	C	0.585015	-0.554610	-0.247178
C91	C	0.585533	-0.504199	-0.247171
C92	C	0.554439	-0.473019	0.247728
C93	C	0.553922	-0.523432	0.247710
C94	C	0.561438	-0.556433	0.123982
C95	C	0.658915	0.057594	0.000357
C96	C	0.712570	0.058138	0.000380
C97	C	0.566308	0.150202	0.000267
C98	C	0.566853	0.203857	0.000245
N99	N	0.548299	0.084102	0.353924
N100	N	0.592729	0.039490	-0.353310
C101	C	0.575443	0.056842	0.421730
C102	C	0.565581	0.066753	0.578887
H103	H	0.122244	0.040134	-0.347927
O104	O	0.071168	0.037531	-0.380623
H105	H	0.099072	0.004431	-0.386561
H106	H	-0.296829	0.072342	0.224847
H107	H	0.213705	0.041068	-0.347930
H108	H	0.605982	0.026165	0.363436
H109	H	0.535037	0.097429	0.637178
O110	O	0.174626	0.087121	0.381163
H111	H	0.143228	0.092279	0.467194
O112	O	0.633185	-0.001151	0.569498
H113	H	0.634584	-0.002558	0.458174
H114	H	0.549845	-0.294902	0.348518
H115	H	0.517756	0.114776	0.412219
O116	O	0.550675	-0.781919	0.257423
H117	H	0.545531	-0.750495	0.343452
H118	H	-0.177209	0.044958	-0.224142
O119	O	-0.273270	0.041888	-0.256815
H120	H	-0.264429	0.071197	-0.316182
O121	O	-0.033604	0.036437	-0.380592
H122	H	-0.002202	0.031265	-0.466619
O123	O	0.545257	-0.542201	0.381180
H124	H	0.577608	-0.569357	0.387139
H125	H	0.437858	0.051253	-0.224254
O126	O	0.341779	0.048174	-0.256946
H127	H	0.373178	0.043009	-0.342977
O128	O	0.069821	0.086065	0.381142
H129	H	0.080311	0.056961	0.440558
O130	O	0.414299	0.081708	0.257400
H131	H	0.382901	0.086866	0.343431
H132	H	0.548319	-0.446154	0.348484
H133	H	0.318236	0.078623	0.224729
O134	O	0.023372	0.085572	0.381225
H135	H	0.014537	0.056256	0.440571
O136	O	-0.081489	0.084539	0.381081
H137	H	-0.071070	0.055457	0.440632
O138	O	-0.200745	0.075404	0.257533
H139	H	-0.232140	0.080561	0.343571
O140	O	0.594665	-0.438961	-0.380625
H141	H	0.631449	-0.437583	-0.439933
H142	H	0.559085	-0.162267	0.224823
O143	O	0.590352	-0.094489	-0.256834
H144	H	0.589454	-0.053889	-0.236052
H145	H	0.587285	-0.190543	-0.224158
O146	O	0.584057	-0.709537	-0.256930
H147	H	0.589192	-0.740959	-0.342959
H148	H	0.593626	-0.338794	-0.347902
H149	H	0.581003	-0.805609	-0.224232
O150	O	0.551749	-0.677136	0.257444
H151	H	0.546087	-0.697720	0.343463
O152	O	0.546792	-0.390958	0.381212
H153	H	0.541646	-0.359533	0.467235
H154	H	0.560022	-0.070800	0.224825
O155	O	0.594190	-0.485422	-0.380623
H156	H	0.599322	-0.516845	-0.466648
H157	H	0.591137	-0.581489	-0.347922
