data_functionalizedCrystal
_audit_creation_method	'MofGen! by Chris Wilmer'
_symmetry_space_group_name_H-M	'P1'
_symmetry_Int_Tables_number	1
_symmetry_cell_setting	triclinic
loop_
_symmetry_equiv_pos_as_xyz
  x,y,z
_cell_length_a	19.188905
_cell_length_b	19.188930
_cell_length_c	18.266242
_cell_angle_alpha	89.988525
_cell_angle_beta	89.983837
_cell_angle_gamma	83.139668
loop_
_atom_site_label
_atom_site_type_symbol
_atom_site_fract_x
_atom_site_fract_y
_atom_site_fract_z
O1	O	0.926160	0.087085	-0.061010
O2	O	0.722847	0.098838	-0.060986
O3	O	0.830371	-0.008694	-0.060984
O4	O	0.818636	0.194618	-0.061011
O5	O	0.830353	-0.008700	0.060778
O6	O	0.722828	0.098833	0.060776
O7	O	0.926142	0.087080	0.060752
Zn8	Zn	0.824482	0.092955	0.080097
Zn9	Zn	0.824506	0.092963	-0.080330
O10	O	0.818618	0.194612	0.060751
C11	C	0.696826	0.098458	-0.000102
C12	C	0.619321	0.097324	-0.000092
C13	C	0.582939	0.096782	-0.066466
C14	C	0.510115	0.095709	-0.066475
C15	C	0.473678	0.095164	-0.000106
C16	C	0.510068	0.095709	0.066277
C17	C	0.582890	0.096789	0.066284
N18	N	0.364651	0.053733	0.049292
N19	N	0.295474	0.052705	0.049280
C20	C	0.254272	0.091911	-0.000123
N21	N	0.284861	0.132174	-0.049526
N22	N	0.354045	0.133199	-0.049517
C23	C	0.394716	0.093993	-0.000106
C24	C	0.138926	0.090207	-0.066512
C25	C	0.066100	0.089138	-0.066518
C26	C	0.066056	0.089132	0.066236
C27	C	0.138879	0.090207	0.066240
C28	C	0.175310	0.090742	-0.000136
C29	C	0.829982	-0.034708	-0.000101
C30	C	0.828841	-0.112213	-0.000095
C31	C	0.891933	-0.157142	-0.000099
C32	C	0.890861	-0.229966	-0.000110
C33	C	0.826694	-0.257857	-0.000103
C34	C	0.763594	-0.212917	-0.000103
C35	C	0.764668	-0.140095	-0.000099
N36	N	0.777640	-0.365859	0.041341
N37	N	0.776624	-0.435038	0.041338
C38	C	0.823456	-0.477265	-0.000118
N39	N	0.871352	-0.447702	-0.041561
N40	N	0.872369	-0.378517	-0.041556
C41	C	0.825523	-0.336819	-0.000108
C42	C	0.885390	-0.601159	-0.000135
C43	C	0.884315	-0.673984	-0.000151
C44	C	0.757047	-0.656933	-0.000137
C45	C	0.758123	-0.584110	-0.000128
C46	C	0.822296	-0.556228	-0.000124
C47	C	0.952163	0.087460	-0.000134
C48	C	1.029668	0.088594	-0.000148
C49	C	0.819007	0.220626	-0.000134
C50	C	0.820148	0.298131	-0.000145
N51	N	0.824471	0.092950	0.189583
N52	N	0.824523	0.092962	-0.189817
C53	C	0.872098	0.045358	0.227893
C54	C	0.872103	0.045355	0.304538
C55	C	0.824487	0.092956	0.342870
C56	C	0.776851	0.140551	0.304552
C57	C	0.776843	0.140549	0.227908
N58	N	0.815411	0.154764	0.463195
N59	N	0.815423	0.154764	0.536003
C60	C	0.824506	0.092966	0.573793
N61	N	0.833592	0.031165	0.536024
N62	N	0.833584	0.031165	0.463209
C63	C	0.824490	0.092963	0.425977
C64	C	0.872141	0.045366	0.695210
C65	C	0.872141	0.045362	0.771856
C66	C	0.776892	0.140565	0.771868
C67	C	0.776889	0.140563	0.695223
C68	C	0.824517	0.092964	0.656898
H69	H	0.036389	0.088692	0.120275
Cl70	Cl	0.678803	-0.527624	-0.000120
Cl71	Cl	0.464368	0.095028	-0.149924
Cl72	Cl	0.932012	-0.014475	0.647029
Cl73	Cl	0.716965	0.200384	0.179744
Cl74	Cl	0.966063	-0.566103	-0.000125
H75	H	0.704801	-0.679641	-0.000135
H76	H	0.910922	0.006603	0.803048
H77	H	0.711349	-0.235631	-0.000099
H78	H	0.935694	-0.710565	-0.000158
Cl79	Cl	0.628629	0.097470	0.149733
Cl80	Cl	0.931969	-0.014482	0.179714
H81	H	0.036479	0.088702	-0.120570
H82	H	0.168502	0.090644	0.120290
Cl83	Cl	0.717026	0.200401	0.820052
Cl84	Cl	0.464262	0.095028	0.149713
Cl85	Cl	0.685346	-0.083609	-0.000094
H86	H	0.910888	0.006598	0.335735
H87	H	0.738080	0.179308	0.335766
Cl88	Cl	0.717015	0.200399	0.647058
H89	H	0.612597	0.097218	-0.120515
H90	H	0.944187	-0.134445	-0.000097
Cl91	Cl	0.184727	0.090886	-0.149954
H92	H	0.942239	-0.266555	-0.000116
