data_functionalizedCrystal
_audit_creation_method	'MofGen! by Chris Wilmer'
_symmetry_space_group_name_H-M	'P1'
_symmetry_Int_Tables_number	1
_symmetry_cell_setting	triclinic
loop_
_symmetry_equiv_pos_as_xyz
  x,y,z
_cell_length_a	14.044220
_cell_length_b	16.992695
_cell_length_c	15.455313
_cell_angle_alpha	87.152573
_cell_angle_beta	87.075622
_cell_angle_gamma	88.071450
loop_
_atom_site_label
_atom_site_type_symbol
_atom_site_fract_x
_atom_site_fract_y
_atom_site_fract_z
O1	O	1.276018	-0.186887	-0.072131
O2	O	0.999530	-0.180030	-0.072133
O3	O	1.136665	-0.069239	-0.072125
O4	O	1.138883	-0.297678	-0.072139
O5	O	1.128821	-0.075546	0.072137
O6	O	0.991685	-0.186337	0.072129
O7	O	1.268174	-0.193194	0.072131
Cu8	Cu	1.129213	-0.190341	0.085302
Cu9	Cu	1.138490	-0.182883	-0.085304
O10	O	1.131038	-0.303985	0.072123
C11	C	0.960066	-0.180181	-0.000002
C12	C	0.854162	-0.171227	-0.000003
C13	C	1.129891	-0.042980	0.000006
C14	C	1.121383	0.044659	0.000006
C15	C	1.307638	-0.193043	-0.000002
C16	C	1.413542	-0.201997	-0.000007
C17	C	1.607444	-0.218367	-0.000007
C18	C	1.660266	-0.154861	-0.000003
C19	C	1.768160	-0.163969	-0.000003
C20	C	1.499540	-0.209259	-0.000007
C21	C	1.137812	-0.330244	-0.000010
C22	C	1.146321	-0.417883	-0.000015
N23	N	1.122696	-0.195588	0.205297
C24	C	1.203479	0.089157	0.000007
C25	C	1.195479	0.171504	-0.000001
C26	C	1.105382	0.209350	-0.000005
C27	C	1.023279	0.164846	-0.000009
C28	C	1.031280	0.082502	-0.000007
C29	C	1.072220	0.455268	-0.000017
C30	C	1.064225	0.537619	-0.000016
C31	C	1.236426	0.544271	-0.000010
C32	C	1.244419	0.461924	-0.000003
C33	C	1.162317	0.417427	-0.000012
N34	N	1.097202	0.293522	-0.000011
N35	N	1.170497	0.333258	-0.000012
N36	N	1.145015	-0.177631	-0.205299
C37	C	1.180979	-0.148540	0.250695
C38	C	1.176059	-0.152515	0.341502
C39	C	1.112860	-0.203543	0.386911
C40	C	1.054571	-0.250592	0.341507
C41	C	1.059486	-0.246612	0.250701
C42	C	1.091641	-0.220700	0.658491
C43	C	1.086732	-0.224678	0.749303
C44	C	1.208219	-0.126600	0.749293
C45	C	1.213133	-0.122628	0.658485
C46	C	1.154840	-0.169674	0.613089
N47	N	1.107832	-0.207609	0.479731
N48	N	1.159864	-0.165603	0.520271
H49	H	1.624462	-0.093648	-0.000062
H50	H	0.949919	0.195668	-0.000017
N51	N	1.320296	0.589712	-0.000000
N52	N	1.375533	0.580085	0.060810
H53	H	1.434771	0.612177	0.060816
H54	H	1.643250	-0.279572	-0.000011
H55	H	1.005366	0.419049	-0.000024
N56	N	1.295507	0.050490	0.000001
N57	N	1.302643	-0.023031	0.000001
H58	H	1.367639	-0.050340	-0.000006
N59	N	0.990023	-0.302725	0.387885
N60	N	0.997390	-0.375233	0.377727
H61	H	0.951803	-0.412055	0.410480
N62	N	1.336446	0.423255	-0.000007
N63	N	1.343576	0.349734	-0.000002
H64	H	1.408571	0.322422	-0.000001
N65	N	0.999941	-0.294672	0.204339
N66	N	0.943516	-0.340229	0.244890
H67	H	0.901457	-0.374171	0.212148
H68	H	1.264595	-0.081078	0.621515
H69	H	1.223517	-0.114205	0.378465
H70	H	1.255678	-0.088296	0.786262
H71	H	1.035265	-0.266234	0.786271
N72	N	1.032088	-0.268757	0.612142
N73	N	0.975666	-0.314312	0.652699
H74	H	0.933602	-0.348255	0.619962
N75	N	1.279350	0.216946	-0.000008
N76	N	1.359788	0.183145	-0.000004
H77	H	1.419027	0.215238	-0.000012
H78	H	0.990852	0.568430	-0.000005
H79	H	1.232446	-0.106992	0.213729
N80	N	0.947411	0.037057	-0.000020
N81	N	0.866972	0.070856	-0.000028
H82	H	0.807736	0.038763	-0.000043
