data_functionalizedCrystal
_audit_creation_method	'MofGen! by Chris Wilmer'
_symmetry_space_group_name_H-M	'P1'
_symmetry_Int_Tables_number	1
_symmetry_cell_setting	triclinic
loop_
_symmetry_equiv_pos_as_xyz
  x,y,z
_cell_length_a	16.120530
_cell_length_b	18.050589
_cell_length_c	16.120297
_cell_angle_alpha	92.875657
_cell_angle_beta	90.128140
_cell_angle_gamma	87.123928
loop_
_atom_site_label
_atom_site_type_symbol
_atom_site_fract_x
_atom_site_fract_y
_atom_site_fract_z
Zn1	Zn	1.247404	-0.376248	-0.534587
Zn2	Zn	1.580738	-0.042915	-0.201254
Zn3	Zn	1.914071	0.290419	0.132080
Zn4	Zn	1.254344	-0.494473	-0.395537
Zn5	Zn	1.587677	-0.161139	-0.062203
Zn6	Zn	1.921011	0.172194	0.271130
Zn7	Zn	1.115396	-0.363698	-0.388504
Zn8	Zn	1.448729	-0.030365	-0.055171
Zn9	Zn	1.782063	0.302968	0.278162
Zn10	Zn	1.108300	-0.493789	-0.527506
Zn11	Zn	1.441634	-0.160455	-0.194173
Zn12	Zn	1.774967	0.172878	0.139161
O13	O	1.181361	-0.432052	-0.461533
O14	O	1.514694	-0.098719	-0.128200
O15	O	1.848028	0.234615	0.205133
O16	O	1.364691	-0.397469	-0.522048
O17	O	1.698024	-0.064136	-0.188715
O18	O	2.031357	0.269198	0.144618
O19	O	1.241786	-0.472159	-0.278238
O20	O	1.575119	-0.138826	0.055095
O21	O	1.908452	0.194507	0.388429
O22	O	1.132972	-0.261442	-0.407903
O23	O	1.466306	0.071891	-0.074570
O24	O	1.799639	0.405224	0.258764
O25	O	1.369789	-0.484328	-0.419888
O26	O	1.703122	-0.150995	-0.086555
O27	O	2.036456	0.182339	0.246778
O28	O	1.229959	-0.270662	-0.515230
O29	O	1.563292	0.062671	-0.181896
O30	O	1.896625	0.396004	0.151437
O31	O	1.139701	-0.376080	-0.273071
O32	O	1.473035	-0.042747	0.060262
O33	O	1.806368	0.290586	0.393595
O34	O	0.998089	-0.375417	-0.401037
O35	O	1.331422	-0.042084	-0.067703
O36	O	1.664756	0.291250	0.265630
O37	O	1.120879	-0.483162	-0.644811
O38	O	1.454212	-0.149829	-0.311478
O39	O	1.787546	0.183504	0.021856
O40	O	0.992876	-0.470994	-0.503160
O41	O	1.326209	-0.137660	-0.169827
O42	O	1.659542	0.195673	0.163506
O43	O	1.223078	-0.396806	-0.650014
O44	O	1.556412	-0.063472	-0.316680
O45	O	1.889745	0.269861	0.016653
O46	O	1.234906	-0.598303	-0.413022
O47	O	1.568239	-0.264969	-0.079689
O48	O	1.901572	0.068364	0.253645
O49	O	1.127608	-0.597800	-0.509979
O50	O	1.460941	-0.264467	-0.176646
O51	O	1.794275	0.068866	0.156687
C52	C	0.965310	-0.421770	-0.450568
C53	C	1.298643	-0.088437	-0.117234
C54	C	1.631977	0.244897	0.216099
C55	C	0.872881	-0.417390	-0.445896
C56	C	1.206215	-0.084057	-0.112563
C57	C	1.539548	0.249277	0.220771
C58	C	0.703653	-0.409376	-0.437374
C59	C	1.036986	-0.076043	-0.104041
C60	C	1.370319	0.257290	0.229293
C61	C	0.659907	-0.454785	-0.485754
C62	C	0.993240	-0.121452	-0.152420
C63	C	1.326574	0.211882	0.180913
C64	C	0.565742	-0.450326	-0.481012
C65	C	0.899076	-0.116993	-0.147679
C66	C	1.232409	0.216341	0.185655
C67	C	0.797826	-0.413834	-0.442115
C68	C	1.131159	-0.080501	-0.108781
C69	C	1.464493	0.252832	0.224552
C70	C	1.181261	-0.624999	-0.461515
C71	C	1.514595	-0.291665	-0.128181
C72	C	1.847928	0.041668	0.205152
C73	C	1.181293	-0.707547	-0.461538
C74	C	1.514627	-0.374214	-0.128205
C75	C	1.847960	-0.040880	0.205128
C76	C	1.123001	-0.906753	-0.514247
C77	C	1.456334	-0.573420	-0.180914
C78	C	1.789667	-0.240086	0.152420
C79	C	1.106578	-0.951975	-0.437341
C80	C	1.439911	-0.618642	-0.104008
C81	C	1.773244	-0.285308	0.229325
C82	C	1.181375	-0.858682	-0.461553
C83	C	1.514708	-0.525348	-0.128220
C84	C	1.848041	-0.192015	0.205114
C85	C	1.197838	-0.960544	-0.538470
C86	C	1.531171	-0.627210	-0.205136
C87	C	1.864505	-0.293877	0.128197
C88	C	1.181451	-1.004671	-0.461574
C89	C	1.514784	-0.671338	-0.128241
C90	C	1.848118	-0.338005	0.205092
C91	C	1.164914	-0.902813	-0.384605
C92	C	1.498247	-0.569479	-0.051272
C93	C	1.831580	-0.236146	0.282061
C94	C	1.256207	-0.911381	-0.485787
C95	C	1.589540	-0.578048	-0.152453
C96	C	1.922873	-0.244714	0.180880
C97	C	1.239815	-0.956580	-0.408830
C98	C	1.573149	-0.623246	-0.075497
C99	C	1.906482	-0.289913	0.257837
C100	C	1.181328	-0.774581	-0.461542
C101	C	1.514662	-0.441248	-0.128209
C102	C	1.847995	-0.107914	0.205125
C103	C	1.181498	-1.088770	-0.461577
C104	C	1.514831	-0.755437	-0.128244
C105	C	1.848165	-0.422103	0.205090
C106	C	1.398256	-0.442375	-0.472543
C107	C	1.731589	-0.109041	-0.139209
C108	C	2.064922	0.224292	0.194124
C109	C	1.490683	-0.446774	-0.477234
C110	C	1.824017	-0.113440	-0.143901
C111	C	2.157350	0.219893	0.189432
C112	C	1.170413	-0.441308	-0.678428
C113	C	1.503746	-0.107974	-0.345095
C114	C	1.837080	0.225359	-0.011762
C115	C	1.165748	-0.445252	-0.770856
C116	C	1.499081	-0.111919	-0.437522
C117	C	1.832414	0.221415	-0.104189
C118	C	1.181483	-0.238354	-0.461572
C119	C	1.514816	0.094980	-0.128238
C120	C	1.848150	0.428313	0.205095
C121	C	1.181535	-0.155811	-0.461588
C122	C	1.514868	0.177522	-0.128255
C123	C	1.848201	0.510856	0.205079
C124	C	1.157199	-0.452435	-0.940081
C125	C	1.490533	-0.119102	-0.606748
C126	C	1.823866	0.214232	-0.273414
C127	C	1.205687	-0.411454	-0.983846
C128	C	1.539020	-0.078121	-0.650513
C129	C	1.872353	0.255213	-0.317180
C130	C	1.200930	-0.415451	-1.078009
C131	C	1.534264	-0.082118	-0.744675
C132	C	1.867597	0.251216	-0.411342
C133	C	1.161955	-0.448439	-0.845910
C134	C	1.495288	-0.115106	-0.512576
C135	C	1.828621	0.218227	-0.179243
C136	C	1.192314	-0.422781	-0.245485
C137	C	1.525648	-0.089448	0.087848
C138	C	1.858981	0.243886	0.421182
C139	C	1.197141	-0.418635	-0.153066
C140	C	1.530474	-0.085302	0.180267
C141	C	1.863808	0.248031	0.513601
H142	H	0.670386	-0.367156	-0.392397
H143	H	1.003720	-0.033823	-0.059064
H144	H	1.337053	0.299511	0.274269
H145	H	1.112120	-0.490519	-0.973329
H146	H	1.445453	-0.157186	-0.639995
H147	H	1.778787	0.176147	-0.306662
C148	C	1.340598	-0.887487	-0.513030
C149	C	1.673932	-0.554154	-0.179696
C150	C	2.007265	-0.220820	0.153637
C151	C	1.401756	-0.913878	-0.458578
C152	C	1.735089	-0.580544	-0.125245
C153	C	2.068422	-0.247211	0.208089
C154	C	1.479508	-0.891890	-0.483664
C155	C	1.812841	-0.558557	-0.150331
C156	C	2.146175	-0.225223	0.183002
H157	H	1.340222	-0.834820	-0.512319
H158	H	1.673556	-0.501486	-0.178986
H159	H	2.006889	-0.168153	0.154347
H160	H	1.352238	-0.907352	-0.567695
H161	H	1.685572	-0.574019	-0.234361
H162	H	2.018905	-0.240685	0.098972
H163	H	1.390119	-0.894010	-0.403927
H164	H	1.723452	-0.560676	-0.070594
H165	H	2.056786	-0.227343	0.262740
H166	H	1.402158	-0.966543	-0.459281
H167	H	1.735492	-0.633210	-0.125947
H168	H	2.068825	-0.299876	0.207386
H169	H	1.491148	-0.911755	-0.538329
H170	H	1.824481	-0.578421	-0.204996
H171	H	2.157815	-0.245088	0.128337
H172	H	1.479123	-0.839223	-0.482954
H173	H	1.812456	-0.505889	-0.149620
H174	H	2.145790	-0.172556	0.183713
H175	H	1.521013	-0.909798	-0.446728
H176	H	1.854347	-0.576465	-0.113394
H177	H	2.187680	-0.243132	0.219939
C178	C	0.704105	-0.511119	-0.545808
C179	C	1.037439	-0.177786	-0.212475
C180	C	1.370772	0.155548	0.120858
C181	C	0.645236	-0.552128	-0.589523
C182	C	0.978569	-0.218795	-0.256190
C183	C	1.311902	0.114539	0.077143
C184	C	0.685923	-0.604022	-0.644855
C185	C	1.019257	-0.270689	-0.311522
C186	C	1.352590	0.062644	0.021812
H187	H	0.739571	-0.543711	-0.515695
H188	H	1.072904	-0.210378	-0.182362
H189	H	1.406238	0.122955	0.150972
H190	H	0.736165	-0.485905	-0.583815
H191	H	1.069499	-0.152572	-0.250482
H192	H	1.402832	0.180761	0.082852
H193	H	0.613190	-0.577340	-0.551522
H194	H	0.946523	-0.244007	-0.218189
H195	H	1.279856	0.089326	0.115145
H196	H	0.609767	-0.519556	-0.619653
H197	H	0.943101	-0.186222	-0.286320
H198	H	1.276434	0.147111	0.047013
H199	H	0.717983	-0.578809	-0.682862
H200	H	1.051316	-0.245476	-0.349528
H201	H	1.384650	0.087858	-0.016195
H202	H	0.721388	-0.636610	-0.614735
H203	H	1.054721	-0.303276	-0.281402
H204	H	1.388055	0.030057	0.051932
H205	H	0.645986	-0.631849	-0.674528
H206	H	0.979320	-0.298515	-0.341194
H207	H	1.312653	0.034818	-0.007861
C208	C	1.216490	-0.994275	-0.625121
C209	C	1.549824	-0.660942	-0.291788
C210	C	1.883157	-0.327608	0.041545
C211	C	1.289119	-1.040061	-0.623088
C212	C	1.622452	-0.706728	-0.289755
C213	C	1.955785	-0.373394	0.043578
C214	C	1.306313	-1.071151	-0.702894
C215	C	1.639646	-0.737818	-0.369561
C216	C	1.972980	-0.404485	-0.036228
H217	H	1.223874	-0.955751	-0.662051
H218	H	1.557207	-0.622418	-0.328718
H219	H	1.890540	-0.289084	0.004615
H220	H	1.171505	-1.022844	-0.643701
H221	H	1.504838	-0.689511	-0.310368
H222	H	1.838171	-0.356178	0.022965
H223	H	1.334094	-1.011493	-0.604520
H224	H	1.667427	-0.678160	-0.271186
H225	H	2.000760	-0.344826	0.062147
H226	H	1.281754	-1.078597	-0.586175
H227	H	1.615088	-0.745264	-0.252841
H228	H	1.948421	-0.411931	0.080492
H229	H	1.261328	-1.099721	-0.721474
H230	H	1.594661	-0.766387	-0.388141
H231	H	1.927994	-0.433054	-0.054807
H232	H	1.313693	-1.032622	-0.739818
H233	H	1.647026	-0.699289	-0.406485
H234	H	1.980359	-0.365956	-0.073151
H235	H	1.355588	-1.102226	-0.701524
H236	H	1.688921	-0.768892	-0.368191
H237	H	2.022255	-0.435559	-0.034858
H238	H	1.250770	-0.373367	-0.950596
H239	H	1.584103	-0.040033	-0.617263
H240	H	1.917436	0.293300	-0.283930
H241	H	1.073570	-0.884877	-0.558738
H242	H	1.406903	-0.551544	-0.225405
H243	H	1.740237	-0.218211	0.107928
C244	C	1.022175	-0.975913	-0.410171
C245	C	1.355508	-0.642580	-0.076838
C246	C	1.688841	-0.309247	0.256496
C247	C	0.961258	-0.950699	-0.465546
C248	C	1.294591	-0.617366	-0.132213
C249	C	1.627924	-0.284032	0.201121
C250	C	0.883497	-0.972742	-0.440556
C251	C	1.216830	-0.639408	-0.107222
C252	C	1.550163	-0.306075	0.226111
H253	H	1.009991	-0.955326	-0.355922
H254	H	1.343324	-0.621993	-0.022588
H255	H	1.676658	-0.288659	0.310745
H256	H	1.022930	-1.028564	-0.409920
H257	H	1.356263	-0.695231	-0.076587
H258	H	1.689596	-0.361897	0.256747
H259	H	0.960501	-0.898059	-0.465788
H260	H	1.293834	-0.564725	-0.132455
H261	H	1.627168	-0.231392	0.200878
H262	H	0.973414	-0.971283	-0.519799
H263	H	1.306747	-0.637950	-0.186466
H264	H	1.640081	-0.304617	0.146868
H265	H	0.884251	-1.025393	-0.440305
H266	H	1.217585	-0.692059	-0.106971
H267	H	1.550918	-0.358726	0.226362
H268	H	0.871321	-0.952153	-0.386306
H269	H	1.204654	-0.618820	-0.052972
H270	H	1.537988	-0.285486	0.280361
H271	H	0.842156	-0.955643	-0.478127
H272	H	1.175489	-0.622310	-0.144794
H273	H	1.508823	-0.288976	0.188539
C274	C	1.146120	-0.869261	-0.297906
C275	C	1.479453	-0.535928	0.035428
C276	C	1.812787	-0.202594	0.368761
C277	C	1.073850	-0.823021	-0.300073
C278	C	1.407183	-0.489688	0.033260
C279	C	1.740516	-0.156355	0.366593
C280	C	1.056502	-0.792108	-0.220223
C281	C	1.389836	-0.458774	0.113111
C282	C	1.723169	-0.125441	0.446444
H283	H	1.191238	-0.841042	-0.278963
H284	H	1.524571	-0.507708	0.054370
H285	H	1.857905	-0.174375	0.387704
H286	H	1.138243	-0.907882	-0.261211
H287	H	1.471576	-0.574549	0.072122
H288	H	1.804910	-0.241216	0.405455
H289	H	1.081732	-0.784406	-0.336755
H290	H	1.415065	-0.451072	-0.003421
H291	H	1.748398	-0.117739	0.329912
H292	H	1.028717	-0.851224	-0.319001
H293	H	1.362050	-0.517890	0.014332
H294	H	1.695383	-0.184557	0.347666
H295	H	1.048625	-0.830729	-0.183528
H296	H	1.381959	-0.497395	0.149805
H297	H	1.715292	-0.164062	0.483138
H298	H	1.101625	-0.763892	-0.201287
H299	H	1.434958	-0.430559	0.132047
H300	H	1.768291	-0.097225	0.465380
H301	H	1.007462	-0.760736	-0.221681
H302	H	1.340795	-0.427403	0.111652
H303	H	1.674128	-0.094069	0.444985
C304	C	1.305583	-0.985514	-0.349219
C305	C	1.638916	-0.652181	-0.015886
C306	C	1.972249	-0.318848	0.317447
C307	C	1.287993	-0.955993	-0.268844
C308	C	1.621327	-0.622660	0.064490
C309	C	1.954660	-0.289326	0.397823
C310	C	1.348549	-0.982640	-0.213905
C311	C	1.681882	-0.649307	0.119428
C312	C	2.015216	-0.315973	0.452761
H313	H	1.358613	-0.970965	-0.365849
H314	H	1.691947	-0.637631	-0.032516
H315	H	2.025280	-0.304298	0.300817
H316	H	1.305550	-1.038170	-0.349834
H317	H	1.638883	-0.704837	-0.016501
H318	H	1.972216	-0.371504	0.316832
H319	H	1.288035	-0.903348	-0.268231
H320	H	1.621368	-0.570015	0.065102
H321	H	1.954701	-0.236682	0.398435
H322	H	1.234973	-0.970540	-0.252188
H323	H	1.568307	-0.637207	0.081145
H324	H	1.901640	-0.303873	0.414478
H325	H	1.348516	-1.035296	-0.214520
H326	H	1.681849	-0.701963	0.118813
H327	H	2.015183	-0.368629	0.452146
H328	H	1.401576	-0.968089	-0.230543
H329	H	1.734909	-0.634755	0.102790
H330	H	2.068243	-0.301422	0.436124
H331	H	1.336619	-0.962619	-0.159363
H332	H	1.669952	-0.629286	0.173970
H333	H	2.003286	-0.295953	0.507303
