data_functionalizedCrystal
_audit_creation_method	'MofGen! by Chris Wilmer'
_symmetry_space_group_name_H-M	'P1'
_symmetry_Int_Tables_number	1
_symmetry_cell_setting	triclinic
loop_
_symmetry_equiv_pos_as_xyz
  x,y,z
_cell_length_a	13.897448
_cell_length_b	10.685909
_cell_length_c	10.686551
_cell_angle_alpha	90.350469
_cell_angle_beta	85.592616
_cell_angle_gamma	94.348259
loop_
_atom_site_label
_atom_site_type_symbol
_atom_site_fract_x
_atom_site_fract_y
_atom_site_fract_z
Zn1	Zn	-0.466500	-1.972195	-0.561925
Zn2	Zn	-0.133166	-1.638861	-0.228592
Zn3	Zn	0.200167	-1.305528	0.104741
Zn4	Zn	-0.639184	-1.955955	-0.352164
Zn5	Zn	-0.305851	-1.622621	-0.018830
Zn6	Zn	0.027483	-1.289288	0.314503
Zn7	Zn	-0.464680	-1.746320	-0.368294
Zn8	Zn	-0.131347	-1.412987	-0.034960
Zn9	Zn	0.201986	-1.079654	0.298373
Zn10	Zn	-0.614525	-1.762393	-0.577986
Zn11	Zn	-0.281191	-1.429059	-0.244652
Zn12	Zn	0.052142	-1.095726	0.088681
O13	O	-0.546222	-1.859216	-0.465092
O14	O	-0.212889	-1.525882	-0.131759
O15	O	0.120444	-1.192549	0.201575
O16	O	-0.500488	-2.145576	-0.520628
O17	O	-0.167155	-1.812243	-0.187295
O18	O	0.166179	-1.478909	0.146038
O19	O	-0.625594	-1.914624	-0.178761
O20	O	-0.292261	-1.581290	0.154573
O21	O	0.041072	-1.247957	0.487906
O22	O	-0.329943	-1.776353	-0.394008
O23	O	0.003391	-1.443020	-0.060675
O24	O	0.336724	-1.109687	0.272658
O25	O	-0.627358	-2.133645	-0.366517
O26	O	-0.294025	-1.800311	-0.033184
O27	O	0.039308	-1.466978	0.300149
O28	O	-0.331279	-1.942302	-0.536269
O29	O	0.002054	-1.608969	-0.202935
O30	O	0.335387	-1.275636	0.130398
O31	O	-0.497387	-1.760606	-0.190611
O32	O	-0.164054	-1.427273	0.142722
O33	O	0.169279	-1.093939	0.476056
O34	O	-0.473476	-1.572917	-0.409581
O35	O	-0.140143	-1.239584	-0.076248
O36	O	0.193191	-0.906250	0.257085
O37	O	-0.585330	-1.803746	-0.751398
O38	O	-0.251997	-1.470413	-0.418065
O39	O	0.081336	-1.137079	-0.084731
O40	O	-0.583566	-1.584725	-0.563641
O41	O	-0.250233	-1.251392	-0.230308
O42	O	0.083101	-0.918058	0.103025
O43	O	-0.476577	-1.957887	-0.739599
O44	O	-0.143244	-1.624553	-0.406265
O45	O	0.190090	-1.291220	-0.072932
O46	O	-0.770892	-1.930208	-0.382090
O47	O	-0.437559	-1.596875	-0.048757
O48	O	-0.104225	-1.263541	0.284576
O49	O	-0.752775	-1.787999	-0.548001
O50	O	-0.419442	-1.454665	-0.214668
O51	O	-0.086108	-1.121332	0.118666
C52	C	-0.525648	-1.533307	-0.490105
C53	C	-0.192315	-1.199973	-0.156772
C54	C	0.141018	-0.866640	0.176561
C55	C	-0.516869	-1.393883	-0.500836
C56	C	-0.183535	-1.060550	-0.167502
C57	C	0.149798	-0.727217	0.165831
C58	C	-0.796833	-1.859121	-0.465063
C59	C	-0.463499	-1.525788	-0.131729
C60	C	-0.130166	-1.192455	0.201604
C61	C	-0.904050	-1.859199	-0.465083
C62	C	-0.570717	-1.525866	-0.131750
C63	C	-0.237383	-1.192532	0.201583
C64	C	-1.100349	-1.859337	-0.465152
C65	C	-0.767016	-1.526003	-0.131819
C66	C	-0.433682	-1.192670	0.201515
C67	C	-0.991114	-1.859257	-0.465118
C68	C	-0.657781	-1.525923	-0.131785
C69	C	-0.324447	-1.192590	0.201549
C70	C	-0.294634	-1.859347	-0.465146
C71	C	0.038700	-1.526013	-0.131813
C72	C	0.372033	-1.192680	0.201520
C73	C	-0.187422	-1.859402	-0.465169
C74	C	0.145912	-1.526069	-0.131836
C75	C	0.479245	-1.192736	0.201497
C76	C	-0.528406	-1.884421	-0.792287
C77	C	-0.195073	-1.551087	-0.458954
C78	C	0.138261	-1.217754	-0.125621
C79	C	-0.520814	-1.895162	-0.931718
C80	C	-0.187480	-1.561828	-0.598385
C81	C	0.145853	-1.228495	-0.265052
C82	C	-0.566869	-1.186397	-0.439973
C83	C	-0.233535	-0.853063	-0.106640
C84	C	0.099798	-0.519730	0.226693
C85	C	-0.575646	-1.325820	-0.429247
C86	C	-0.242313	-0.992487	-0.095914
C87	C	0.091020	-0.659153	0.237420
C88	C	-0.563904	-1.834181	-0.139164
C89	C	-0.230571	-1.500847	0.194169
C90	C	0.102763	-1.167514	0.527502
C91	C	-0.571240	-1.823683	0.000285
C92	C	-0.237907	-1.490350	0.333618
C93	C	0.095427	-1.157016	0.666952
H94	H	-0.459831	-1.345487	-0.570342
H95	H	-0.126498	-1.012154	-0.237009
H96	H	0.206835	-0.678820	0.096325
H97	H	-0.620223	-1.754273	-0.951261
H98	H	-0.286890	-1.420940	-0.617927
H99	H	0.046443	-1.087607	-0.284594
O100	O	-0.651198	-1.389903	-0.337177
O101	O	-0.317865	-1.056570	-0.003843
O102	O	0.015469	-0.723237	0.329490
H103	H	-0.646461	-1.493027	-0.342906
H104	H	-0.313128	-1.159694	-0.009572
H105	H	0.020205	-0.826361	0.323761
H106	H	-0.471835	-1.964585	-0.980178
H107	H	-0.138501	-1.631251	-0.646845
H108	H	0.194832	-1.297918	-0.313512
