data_functionalizedCrystal
_audit_creation_method	'MofGen! by Chris Wilmer'
_symmetry_space_group_name_H-M	'P1'
_symmetry_Int_Tables_number	1
_symmetry_cell_setting	triclinic
loop_
_symmetry_equiv_pos_as_xyz
  x,y,z
_cell_length_a	10.654550
_cell_length_b	10.654543
_cell_length_c	10.268362
_cell_angle_alpha	89.998229
_cell_angle_beta	90.001331
_cell_angle_gamma	95.516448
loop_
_atom_site_label
_atom_site_type_symbol
_atom_site_fract_x
_atom_site_fract_y
_atom_site_fract_z
O1	O	1.667837	-0.176401	0.108192
O2	O	1.302358	-0.193207	0.108215
O3	O	1.493505	-0.002064	0.108206
O4	O	1.476690	-0.367543	0.108201
O5	O	1.493488	-0.002056	-0.108395
O6	O	1.302341	-0.193199	-0.108386
O7	O	1.667820	-0.176392	-0.108409
Cu8	Cu	1.485079	-0.184795	-0.128175
Cu9	Cu	1.485099	-0.184804	0.127981
O10	O	1.476673	-0.367535	-0.108400
C11	C	1.255552	-0.191969	-0.000082
C12	C	1.116109	-0.188277	-0.000073
C13	C	1.492264	0.044738	-0.000091
C14	C	1.488575	0.184182	-0.000080
C15	C	1.036620	-0.300819	-0.000078
C16	C	0.905600	-0.297342	-0.000101
C17	C	0.933568	-0.068772	-0.000108
C18	C	1.064586	-0.072250	-0.000095
C19	C	1.601119	0.263668	-0.000082
C20	C	1.597645	0.394689	-0.000058
C21	C	1.369075	0.366726	-0.000036
C22	C	1.372550	0.235707	-0.000050
C23	C	1.714627	-0.177630	-0.000109
C24	C	1.854070	-0.181322	-0.000109
N25	N	1.485074	-0.184787	-0.308340
C26	C	1.477921	0.585663	-0.000085
C27	C	1.481627	0.446222	-0.000041
C28	C	1.485093	-0.184802	-0.574011
C29	C	1.485078	-0.184797	-0.426173
N30	N	1.485114	-0.184802	0.308147
H31	H	1.078565	-0.395295	-0.000071
C32	C	1.250214	0.149607	-0.000115
C33	C	1.147860	0.222770	-0.000131
C34	C	1.035152	0.143499	-0.000202
H35	H	1.246652	0.097881	0.075394
H36	H	1.246744	0.097942	-0.075683
H37	H	1.151329	0.274413	0.075430
H38	H	1.151381	0.274493	-0.075634
H39	H	1.031682	0.091834	-0.075770
H40	H	1.031603	0.091777	0.075308
H41	H	0.965692	0.193128	-0.000224
H42	H	0.840885	-0.388985	-0.000108
H43	H	1.274611	0.408694	-0.000014
H44	H	1.689290	0.459402	-0.000057
H45	H	0.891602	0.025693	-0.000133
H46	H	1.129310	0.019401	-0.000094
H47	H	1.695594	0.221721	-0.000104
