data_functionalizedCrystal
_audit_creation_method	'MofGen! by Chris Wilmer'
_symmetry_space_group_name_H-M	'P1'
_symmetry_Int_Tables_number	1
_symmetry_cell_setting	triclinic
loop_
_symmetry_equiv_pos_as_xyz
  x,y,z
_cell_length_a	11.792241
_cell_length_b	14.519731
_cell_length_c	10.868271
_cell_angle_alpha	89.993880
_cell_angle_beta	89.999893
_cell_angle_gamma	83.941135
loop_
_atom_site_label
_atom_site_type_symbol
_atom_site_fract_x
_atom_site_fract_y
_atom_site_fract_z
O1	O	1.506220	0.126403	-0.102206
O2	O	1.756220	0.376403	0.147794
O3	O	2.006220	0.626403	0.397794
O4	O	2.256220	0.876403	0.647794
O5	O	1.175807	0.139430	-0.102235
O6	O	1.425807	0.389430	0.147765
O7	O	1.675807	0.639430	0.397765
O8	O	1.925807	0.889430	0.647765
O9	O	1.349761	-0.001288	-0.102208
O10	O	1.599761	0.248712	0.147792
O11	O	1.849761	0.498712	0.397792
O12	O	2.099761	0.748712	0.647792
O13	O	1.332266	0.267122	-0.102232
O14	O	1.582266	0.517122	0.147768
O15	O	1.832266	0.767122	0.397768
O16	O	2.082266	1.017122	0.647768
O17	O	1.349747	-0.001294	0.102436
O18	O	1.599747	0.248706	0.352436
O19	O	1.849747	0.498706	0.602436
O20	O	2.099747	0.748706	0.852436
O21	O	1.175793	0.139425	0.102410
O22	O	1.425793	0.389425	0.352410
O23	O	1.675793	0.639425	0.602410
O24	O	1.925793	0.889425	0.852410
O25	O	1.506205	0.126398	0.102439
O26	O	1.756205	0.376398	0.352439
O27	O	2.006205	0.626398	0.602439
O28	O	2.256205	0.876398	0.852439
Zn29	Zn	1.340997	0.132910	0.134916
Zn30	Zn	1.590997	0.382910	0.384916
Zn31	Zn	1.840997	0.632910	0.634916
Zn32	Zn	2.090997	0.882910	0.884916
Zn33	Zn	1.341016	0.132918	-0.134712
Zn34	Zn	1.591016	0.382918	0.115288
Zn35	Zn	1.841016	0.632918	0.365288
Zn36	Zn	2.091016	0.882918	0.615288
O37	O	1.332251	0.267116	0.102412
O38	O	1.582251	0.517116	0.352412
O39	O	1.832251	0.767116	0.602412
O40	O	2.082251	1.017116	0.852412
C41	C	1.133514	0.138609	0.000084
C42	C	1.383514	0.388609	0.250084
C43	C	1.633514	0.638609	0.500084
C44	C	1.883514	0.888609	0.750084
C45	C	1.007513	0.136160	0.000073
C46	C	1.257513	0.386160	0.250073
C47	C	1.507513	0.636160	0.500073
C48	C	1.757513	0.886160	0.750073
C49	C	0.776826	0.131656	0.000109
C50	C	1.026826	0.381656	0.250109
C51	C	1.276826	0.631656	0.500109
C52	C	1.526826	0.881656	0.750109
C53	C	0.905197	0.134159	0.000089
C54	C	1.155197	0.384159	0.250089
C55	C	1.405197	0.634159	0.500089
C56	C	1.655197	0.884159	0.750089
C57	C	1.348934	-0.035654	0.000114
C58	C	1.598934	0.214346	0.250114
C59	C	1.848934	0.464346	0.500114
C60	C	2.098934	0.714346	0.750114
C61	C	1.346478	-0.138043	0.000115
C62	C	1.596478	0.111957	0.250115
C63	C	1.846478	0.361957	0.500115
C64	C	2.096478	0.611957	0.750115
C65	C	1.344482	-0.221194	0.000112
C66	C	1.594482	0.028806	0.250112
C67	C	1.844482	0.278806	0.500112
C68	C	2.094482	0.528806	0.750112
C69	C	1.341988	-0.325512	0.000102
C70	C	1.591988	-0.075512	0.250102
C71	C	1.841988	0.174488	0.500102
C72	C	2.091988	0.424488	0.750102
C73	C	1.340008	-0.408658	0.000094
C74	C	1.590008	-0.158658	0.250094
C75	C	1.840008	0.091342	0.500094
C76	C	2.090008	0.341342	0.750094
C77	C	1.337514	-0.512983	0.000087
C78	C	1.587514	-0.262983	0.250087
C79	C	1.837514	-0.012983	0.500087
C80	C	2.087514	0.237017	0.750087
C81	C	1.548499	0.127219	0.000117
C82	C	1.798499	0.377219	0.250117
C83	C	2.048499	0.627219	0.500117
C84	C	2.298499	0.877219	0.750117
C85	C	1.674499	0.129668	0.000120
C86	C	1.924499	0.379668	0.250120
C87	C	2.174499	0.629668	0.500120
C88	C	2.424499	0.879668	0.750120
C89	C	1.333078	0.301482	0.000087
C90	C	1.583078	0.551482	0.250087
C91	C	1.833078	0.801482	0.500087
C92	C	2.083078	1.051482	0.750087
C93	C	1.335535	0.403871	0.000079
C94	C	1.585535	0.653871	0.250079
C95	C	1.835535	0.903871	0.500079
C96	C	2.085535	1.153871	0.750079
N97	N	1.340992	0.132905	0.318930
N98	N	1.590992	0.382905	0.568930
N99	N	1.840992	0.632905	0.818930
N100	N	2.090992	0.882905	1.068930
N101	N	1.341029	0.132916	-0.318726
N102	N	1.591029	0.382916	-0.068726
N103	N	1.841029	0.632916	0.181274
N104	N	2.091029	0.882916	0.431274
C105	C	1.341010	0.132916	0.569936
C106	C	1.591010	0.382916	0.819936
C107	C	1.841010	0.632916	1.069936
C108	C	2.091010	0.882916	1.319936
C109	C	1.340996	0.132912	0.430259
C110	C	1.590996	0.382912	0.680259
C111	C	1.840996	0.632912	0.930259
C112	C	2.090996	0.882912	1.180259
