data_functionalizedCrystal
_audit_creation_method	'MofGen! by Chris Wilmer'
_symmetry_space_group_name_H-M	'P1'
_symmetry_Int_Tables_number	1
_symmetry_cell_setting	triclinic
loop_
_symmetry_equiv_pos_as_xyz
  x,y,z
_cell_length_a	13.897449
_cell_length_b	12.645330
_cell_length_c	12.645323
_cell_angle_alpha	89.975130
_cell_angle_beta	89.978672
_cell_angle_gamma	90.018972
loop_
_atom_site_label
_atom_site_type_symbol
_atom_site_fract_x
_atom_site_fract_y
_atom_site_fract_z
Zn1	Zn	1.474708	-0.421995	-0.599408
Zn2	Zn	1.808042	-0.088661	-0.266075
Zn3	Zn	2.141375	0.244672	0.067258
Zn4	Zn	1.474601	-0.599283	-0.422148
Zn5	Zn	1.807934	-0.265949	-0.088815
Zn6	Zn	2.141267	0.067384	0.244518
Zn7	Zn	1.313396	-0.422038	-0.422157
Zn8	Zn	1.646729	-0.088704	-0.088823
Zn9	Zn	1.980062	0.244629	0.244510
Zn10	Zn	1.313379	-0.599221	-0.599368
Zn11	Zn	1.646712	-0.265887	-0.266034
Zn12	Zn	1.980046	0.067446	0.067299
O13	O	1.394021	-0.510634	-0.510770
O14	O	1.727354	-0.177301	-0.177437
O15	O	2.060688	0.156033	0.155896
O16	O	1.609676	-0.445520	-0.575908
O17	O	1.943009	-0.112187	-0.242574
O18	O	2.276342	0.221146	0.090759
O19	O	1.453178	-0.575815	-0.273802
O20	O	1.786512	-0.242481	0.059531
O21	O	2.119845	0.090852	0.392865
O22	O	1.334846	-0.273685	-0.445690
O23	O	1.668180	0.059649	-0.112357
O24	O	2.001513	0.392982	0.220977
O25	O	1.609596	-0.575773	-0.445676
O26	O	1.942930	-0.242440	-0.112342
O27	O	2.276263	0.090894	0.220991
O28	O	1.453362	-0.273653	-0.575916
O29	O	1.786695	0.059680	-0.242582
O30	O	2.120028	0.393013	0.090751
O31	O	1.334742	-0.445594	-0.273808
O32	O	1.668075	-0.112260	0.059525
O33	O	2.001408	0.221073	0.392858
O34	O	1.178412	-0.445533	-0.445651
O35	O	1.511745	-0.112200	-0.112317
O36	O	1.845079	0.221133	0.221016
O37	O	1.334818	-0.575667	-0.747721
O38	O	1.668151	-0.242334	-0.414387
O39	O	2.001485	0.090999	-0.081054
O40	O	1.178400	-0.575709	-0.575847
O41	O	1.511733	-0.242376	-0.242514
O42	O	1.845066	0.090958	0.090820
O43	O	1.453346	-0.445460	-0.747750
O44	O	1.786679	-0.112127	-0.414417
O45	O	2.120012	0.221206	-0.081084
O46	O	1.453162	-0.747622	-0.445636
O47	O	1.786496	-0.414288	-0.112303
O48	O	2.119829	-0.080955	0.221030
O49	O	1.334713	-0.747576	-0.575839
O50	O	1.668047	-0.414243	-0.242505
O51	O	2.001380	-0.080909	0.090828
C52	C	1.143407	-0.510620	-0.510746
C53	C	1.476740	-0.177286	-0.177413
C54	C	1.810073	0.156047	0.155921
C55	C	1.036193	-0.510639	-0.510761
C56	C	1.369526	-0.177306	-0.177428
C57	C	1.702859	0.156027	0.155906
C58	C	0.839898	-0.510643	-0.510789
C59	C	1.173231	-0.177310	-0.177455
C60	C	1.506564	0.156024	0.155878
C61	C	0.949130	-0.510638	-0.510770
C62	C	1.282463	-0.177304	-0.177437
C63	C	1.615797	0.156029	0.155896
C64	C	1.393951	-0.786064	-0.510755
C65	C	1.727284	-0.452730	-0.177422
C66	C	2.060617	-0.119397	0.155911
C67	C	1.394009	-0.903894	-0.510785
C68	C	1.727342	-0.570560	-0.177451
C69	C	2.060675	-0.237227	0.155882
C70	C	1.319800	-1.071473	-0.592947
C71	C	1.653133	-0.738140	-0.259614
C72	C	1.986467	-0.404806	0.073719
C73	C	1.319420	-0.948914	-0.592683
C74	C	1.652754	-0.615580	-0.259350
C75	C	1.986087	-0.282247	0.073983
C76	C	1.366488	-0.948488	-0.399063
C77	C	1.699822	-0.615155	-0.065730
C78	C	2.033155	-0.281822	0.267603
C79	C	1.366035	-1.071087	-0.399562
C80	C	1.699369	-0.737754	-0.066229
C81	C	2.032702	-0.404420	0.267105
C82	C	1.496192	-1.070981	-0.539437
C83	C	1.829525	-0.737647	-0.206104
C84	C	2.162858	-0.404314	0.127230
C85	C	1.495566	-0.948374	-0.541880
C86	C	1.828899	-0.615040	-0.208546
C87	C	2.162232	-0.281707	0.124787
C88	C	1.645614	-0.510649	-0.510795
C89	C	1.978947	-0.177316	-0.177462
C90	C	2.312281	0.156018	0.155872
C91	C	1.752828	-0.510655	-0.510806
C92	C	2.086161	-0.177322	-0.177472
C93	C	2.419494	0.156011	0.155861
C94	C	1.394092	-0.510552	-0.787276
C95	C	1.727425	-0.177219	-0.453942
C96	C	2.060759	0.156115	-0.120609
C97	C	1.394122	-0.510517	-0.905106
C98	C	1.727456	-0.177184	-0.571772
C99	C	2.060789	0.156150	-0.238439
C100	C	1.394118	-0.234129	-0.510808
C101	C	1.727451	0.099205	-0.177475
C102	C	2.060785	0.432538	0.155858
C103	C	1.394159	-0.116299	-0.510825
C104	C	1.727493	0.217035	-0.177491
C105	C	2.060826	0.550368	0.155842
C106	C	1.319326	-0.592044	-1.072651
C107	C	1.652660	-0.258711	-0.739318
C108	C	1.985993	0.074622	-0.405985
C109	C	1.319522	-0.592448	-0.950091
C110	C	1.652856	-0.259115	-0.616758
C111	C	1.986189	0.074219	-0.283425
C112	C	1.495758	-0.540833	-0.949623
C113	C	1.829091	-0.207500	-0.616290
C114	C	2.162425	0.125834	-0.282956
C115	C	1.495348	-0.541344	-1.072221
C116	C	1.828681	-0.208011	-0.738888
C117	C	2.162014	0.125322	-0.405555
C118	C	1.368243	-0.398218	-1.072304
C119	C	1.701577	-0.064885	-0.738971
C120	C	2.034910	0.268449	-0.405638
C121	C	1.365976	-0.398891	-0.949698
C122	C	1.699309	-0.065557	-0.616365
C123	C	2.032642	0.267776	-0.283031
C124	C	1.394006	-0.510639	-0.235341
C125	C	1.727339	-0.177306	0.097993
C126	C	2.060672	0.156028	0.431326
C127	C	1.394162	-0.510375	-0.117511
C128	C	1.727496	-0.177042	0.215822
C129	C	2.060829	0.156291	0.549156
H130	H	1.336639	-0.918759	-0.675524
H131	H	1.669972	-0.585426	-0.342191
H132	H	2.003305	-0.252093	-0.008857
F133	F	1.270013	-0.908486	-0.366808
F134	F	1.603346	-0.575153	-0.033475
F135	F	1.936679	-0.241819	0.299859
F136	F	1.524969	-0.646876	-0.909512
F137	F	1.858302	-0.313542	-0.576179
F138	F	2.191635	0.019791	-0.242845
H139	H	1.243778	-0.919681	-0.573728
H140	H	1.577111	-0.586347	-0.240394
H141	H	1.910445	-0.253014	0.092939
H142	H	1.336860	-1.100885	-0.676060
H143	H	1.670194	-0.767551	-0.342727
H144	H	2.003527	-0.434218	-0.009393
H145	H	1.336632	-0.675595	-0.920777
H146	H	1.669966	-0.342262	-0.587443
H147	H	2.003299	-0.008929	-0.254110
F148	F	1.524062	-0.648510	-1.109620
F149	F	1.857395	-0.315176	-0.776287
F150	F	2.190729	0.018157	-0.442954
H151	H	1.417845	-1.100743	-0.336288
H152	H	1.751179	-0.767409	-0.002954
H153	H	2.084512	-0.434076	0.330379
F154	F	1.221550	-1.111883	-0.568506
F155	F	1.554883	-0.778550	-0.235173
F156	F	1.888217	-0.445217	0.098161
H157	H	1.291449	-1.099780	-0.375323
H158	H	1.624782	-0.766447	-0.041990
H159	H	1.958115	-0.433113	0.291343
H160	H	1.516320	-0.919223	-0.624101
H161	H	1.849653	-0.585889	-0.290767
H162	H	2.182986	-0.252556	0.042566
H163	H	1.418931	-0.919329	-0.336203
H164	H	1.752264	-0.585995	-0.002870
H165	H	2.085598	-0.252662	0.330463
F166	F	1.529006	-1.111294	-0.644110
F167	F	1.862339	-0.777960	-0.310777
F168	F	2.195672	-0.444627	0.022556
F169	F	1.439487	-0.318687	-1.110224
F170	F	1.772820	0.014647	-0.776890
F171	F	2.106154	0.347980	-0.443557
H172	H	1.291181	-0.376028	-0.920601
H173	H	1.624514	-0.042695	-0.587267
H174	H	1.957848	0.290638	-0.253934
F175	F	1.432023	-0.315152	-0.909685
F176	F	1.765356	0.018181	-0.576351
F177	F	2.098689	0.351514	-0.243018
F178	F	1.571797	-0.908303	-0.469398
F179	F	1.905130	-0.574970	-0.136065
F180	F	2.238464	-0.241637	0.197268
H181	H	1.551591	-1.099967	-0.479623
H182	H	1.884925	-0.766634	-0.146290
H183	H	2.218258	-0.433301	0.187043
H184	H	1.244156	-0.573477	-0.919991
H185	H	1.577489	-0.240144	-0.586658
H186	H	1.910822	0.093189	-0.253325
F187	F	1.220520	-0.567483	-1.111167
F188	F	1.553854	-0.234150	-0.777834
F189	F	1.887187	0.099184	-0.444501
H190	H	1.336270	-0.674672	-1.103470
H191	H	1.669603	-0.341339	-0.770136
H192	H	2.002937	-0.008005	-0.436803
F193	F	1.570658	-0.466923	-1.111015
F194	F	1.903992	-0.133590	-0.777681
F195	F	2.237325	0.199743	-0.444348
F196	F	1.273058	-0.362098	-1.112697
F197	F	1.606391	-0.028765	-0.779363
F198	F	1.939724	0.304569	-0.446030
F199	F	1.570595	-0.465544	-0.911543
F200	F	1.903929	-0.132210	-0.578209
F201	F	2.237262	0.201123	-0.244876
