data_functionalizedCrystal
_audit_creation_method	'MofGen! by Chris Wilmer'
_symmetry_space_group_name_H-M	'P1'
_symmetry_Int_Tables_number	1
_symmetry_cell_setting	triclinic
loop_
_symmetry_equiv_pos_as_xyz
  x,y,z
_cell_length_a	13.032831
_cell_length_b	12.645330
_cell_length_c	13.034296
_cell_angle_alpha	97.207872
_cell_angle_beta	105.185450
_cell_angle_gamma	82.822813
loop_
_atom_site_label
_atom_site_type_symbol
_atom_site_fract_x
_atom_site_fract_y
_atom_site_fract_z
Zn1	Zn	1.700202	-0.537420	0.806483
Zn2	Zn	1.677517	-0.734681	0.628864
Zn3	Zn	1.500005	-0.537429	0.606364
Zn4	Zn	1.522548	-0.694629	0.783916
O5	O	1.600068	-0.626040	0.706407
O6	O	1.845831	-0.580344	0.801782
O7	O	1.635042	-0.725281	0.477240
O8	O	1.526622	-0.389085	0.632938
O9	O	1.829164	-0.725271	0.671287
O10	O	1.673706	-0.389078	0.779964
O11	O	1.504625	-0.580361	0.460709
O12	O	1.354357	-0.541525	0.611056
O13	O	1.565042	-0.657009	0.935549
O14	O	1.370919	-0.657019	0.741502
O15	O	1.695564	-0.541508	0.952129
O16	O	1.656900	-0.877711	0.649405
O17	O	1.543045	-0.848285	0.763320
C18	C	1.324098	-0.594927	0.671389
C19	C	1.206040	-0.581640	0.656434
C20	C	1.161616	-0.632975	0.714212
C21	C	1.039597	-0.619243	0.698756
C22	C	1.599989	-0.901462	0.706382
C23	C	1.600056	-1.019296	0.706419
C24	C	1.528801	-1.168402	0.778380
C25	C	1.528349	-1.045826	0.778062
C26	C	1.555529	-1.073073	0.590639
C27	C	1.555094	-1.195559	0.591075
C28	C	1.716224	-1.195833	0.749395
C29	C	1.715846	-1.072873	0.751755
C30	C	1.877116	-0.657274	0.741562
C31	C	1.995177	-0.670585	0.756543
C32	C	1.635348	-0.594790	0.983458
C33	C	1.650383	-0.581473	1.101520
C34	C	1.600180	-0.349542	0.706458
C35	C	1.600227	-0.231715	0.706480
C36	C	1.564986	-0.657098	0.430441
C37	C	1.550158	-0.670140	0.312406
C38	C	1.592506	-0.632684	1.145953
C39	C	1.608043	-0.618922	1.267977
H40	H	1.153740	-0.527520	0.595530
F41	F	1.687856	-0.548298	1.336325
H42	H	1.469876	-1.217729	0.556375
F43	F	0.971246	-0.548499	0.619144
H44	H	1.047474	-0.724697	0.817462
F45	F	1.229972	-0.703713	0.793823
H46	H	1.471112	-1.036086	0.555608
F47	F	1.619124	-1.252053	0.517660
H48	H	1.489104	-0.724180	1.260114
H49	H	1.769613	-1.238439	0.697201
H50	H	1.711439	-0.527445	1.153818
F51	F	1.620547	-1.052732	0.517885
H52	H	1.557856	-1.008468	0.863467
F53	F	1.567181	-1.197365	0.890340
H54	H	1.754063	-1.220763	0.833138
F55	F	1.790561	-1.050436	0.689778
F56	F	1.512705	-0.703312	1.077602
F57	F	1.759402	-1.026022	0.863221
H58	H	1.442642	-1.009343	0.748508
F59	F	1.417500	-1.199376	0.740172
