data_functionalizedCrystal
_audit_creation_method	'MofGen! by Chris Wilmer'
_symmetry_space_group_name_H-M	'P1'
_symmetry_Int_Tables_number	1
_symmetry_cell_setting	triclinic
loop_
_symmetry_equiv_pos_as_xyz
  x,y,z
_cell_length_a	16.625546
_cell_length_b	17.077404
_cell_length_c	17.077396
_cell_angle_alpha	90.019501
_cell_angle_beta	89.969785
_cell_angle_gamma	89.977307
loop_
_atom_site_label
_atom_site_type_symbol
_atom_site_fract_x
_atom_site_fract_y
_atom_site_fract_z
Zn1	Zn	-0.320997	-1.200057	-0.443833
Zn2	Zn	-0.455839	-1.199965	-0.312563
Zn3	Zn	-0.321025	-1.068789	-0.312581
Zn4	Zn	-0.455792	-1.068758	-0.443787
O5	O	-0.388413	-1.134392	-0.378191
O6	O	-0.338892	-1.309892	-0.426432
O7	O	-0.437988	-1.182539	-0.202719
O8	O	-0.208189	-1.086253	-0.330019
O9	O	-0.437960	-1.309824	-0.329988
O10	O	-0.208168	-1.182695	-0.426449
O11	O	-0.338940	-1.086164	-0.202732
O12	O	-0.338894	-0.958938	-0.329974
O13	O	-0.437879	-1.086200	-0.553640
O14	O	-0.437906	-0.958915	-0.426370
O15	O	-0.338846	-1.182665	-0.553674
O16	O	-0.568666	-1.182509	-0.329943
O17	O	-0.568630	-1.086111	-0.426353
C18	C	-0.388399	-0.930444	-0.378169
C19	C	-0.388412	-0.843194	-0.378179
C20	C	-0.597904	-1.134318	-0.378158
C21	C	-0.687525	-1.134358	-0.378170
C22	C	-0.388354	-1.134440	-0.582936
C23	C	-0.388329	-1.134460	-0.670185
C24	C	-1.015701	-1.134495	-0.378252
C25	C	-0.924392	-1.134454	-0.378232
C26	C	-0.851616	-1.134426	-0.378211
C27	C	-0.760302	-1.134386	-0.378191
C28	C	-0.178104	-1.134488	-0.378241
C29	C	-0.088483	-1.134529	-0.378263
C30	C	-0.388428	-1.339136	-0.378213
C31	C	-0.388435	-1.426386	-0.378223
C32	C	-0.440045	-0.802213	-0.428292
C33	C	-0.440047	-0.720232	-0.428304
C34	C	-0.388419	-0.679235	-0.378199
C35	C	-0.336780	-0.720222	-0.328084
C36	C	-0.336774	-0.802201	-0.328076
C37	C	-0.336795	-0.549352	-0.328103
C38	C	-0.336801	-0.467368	-0.328110
C39	C	-0.440068	-0.467383	-0.428331
C40	C	-0.440063	-0.549362	-0.428323
C41	C	-0.388425	-0.590344	-0.378207
C42	C	-0.336758	-1.184691	-0.711195
C43	C	-0.336731	-1.184700	-0.793175
C44	C	-0.388280	-1.134482	-0.834145
C45	C	-0.439853	-1.084245	-0.793130
C46	C	-0.439875	-1.084233	-0.711151
C47	C	-0.439804	-1.084277	-0.964000
C48	C	-0.439783	-1.084291	-1.045985
C49	C	-0.336660	-1.184745	-1.046024
C50	C	-0.336682	-1.184732	-0.964045
C51	C	-0.388257	-1.134496	-0.923036
C52	C	-0.388414	-1.134390	-0.174243
C53	C	-0.388212	-1.134522	-0.086994
H54	H	-0.482093	-0.686869	-0.469111
C55	C	-0.279987	-0.675124	-0.272970
C56	C	-0.216737	-0.618797	-0.307103
C57	C	-0.159945	-0.573700	-0.251987
C58	C	-0.166403	-0.584929	-0.162737
C59	C	-0.229656	-0.641258	-0.128599
C60	C	-0.286448	-0.686356	-0.183716
H61	H	-0.211954	-0.610482	-0.373175
H62	H	-0.113122	-0.532001	-0.277258
H63	H	-0.124363	-0.551545	-0.121936
H64	H	-0.234439	-0.649573	-0.062527
H65	H	-0.333271	-0.728055	-0.158444
H66	H	-0.294725	-0.835567	-0.287273
H67	H	-0.482112	-0.434012	-0.469140
H68	H	-0.294665	-1.225647	-1.079418
C69	C	-0.496514	-1.029078	-1.091054
C70	C	-0.553261	-0.973837	-1.045949
C71	C	-0.610008	-0.918639	-1.091019
C72	C	-0.610008	-0.918683	-1.181192
C73	C	-0.553260	-0.973926	-1.226302
C74	C	-0.496513	-1.029124	-1.181233
H75	H	-0.553262	-0.973803	-0.979193
H76	H	-0.652017	-0.877745	-1.057625
H77	H	-0.652016	-0.877822	-1.214555
H78	H	-0.553258	-0.973960	-1.293058
H79	H	-0.454503	-1.070019	-1.214626
C80	C	-0.280052	-1.239933	-0.666131
C81	C	-0.188387	-1.233568	-0.677424
C82	C	-0.131677	-1.288809	-0.632363
C83	C	-0.166634	-1.350415	-0.576009
C84	C	-0.258304	-1.356783	-0.564713
C85	C	-0.315013	-1.301541	-0.609774
H86	H	-0.162506	-1.187961	-0.719144
H87	H	-0.063817	-1.284095	-0.640726
H88	H	-0.124654	-1.391308	-0.542652
H89	H	-0.284185	-1.402390	-0.522994
H90	H	-0.382874	-1.306256	-0.601412
H91	H	-0.482090	-0.835587	-0.469091
C92	C	-0.496538	-1.029025	-0.918882
C93	C	-0.489960	-0.939791	-0.930129
C94	C	-0.546696	-0.884546	-0.885007
C95	C	-0.610009	-0.918536	-0.828638
C96	C	-0.616589	-1.007774	-0.817388
C97	C	-0.559854	-1.063019	-0.862510
H98	H	-0.443090	-0.914625	-0.971859
H99	H	-0.541824	-0.818486	-0.893335
H100	H	-0.652008	-0.877640	-0.795236
H101	H	-0.663459	-1.032940	-0.775658
H102	H	-0.564725	-1.129079	-0.854182
C103	C	-0.496605	-1.028982	-0.666034
C104	C	-0.490018	-0.939749	-0.677289
C105	C	-0.546747	-0.884495	-0.632172
C106	C	-0.610064	-0.918473	-0.575800
C107	C	-0.616654	-1.007710	-0.564543
C108	C	-0.559925	-1.062964	-0.609660
H109	H	-0.443145	-0.914593	-0.719022
H110	H	-0.541868	-0.818436	-0.640506
H111	H	-0.652058	-0.877570	-0.542402
H112	H	-0.663527	-1.032867	-0.522810
H113	H	-0.564804	-1.129024	-0.601326
H114	H	-0.482108	-0.582740	-0.469119
H115	H	-0.294739	-1.225605	-0.826561
H116	H	-0.481822	-1.043354	-0.826494
C117	C	-0.279979	-1.239973	-0.918978
C118	C	-0.188313	-1.233612	-0.930268
C119	C	-0.131608	-1.288852	-0.885201
C120	C	-0.166569	-1.350455	-0.828845
C121	C	-0.258239	-1.356819	-0.817553
C122	C	-0.314945	-1.301578	-0.862619
H123	H	-0.162429	-1.188008	-0.971988
H124	H	-0.063747	-1.284141	-0.893561
H125	H	-0.124592	-1.391347	-0.795485
H126	H	-0.284124	-1.402423	-0.775833
H127	H	-0.382806	-1.306290	-0.854260
H128	H	-0.294752	-0.433990	-0.287319
H129	H	-0.294739	-0.582717	-0.287300
