data_functionalizedCrystal
_audit_creation_method	'MofGen! by Chris Wilmer'
_symmetry_space_group_name_H-M	'P1'
_symmetry_Int_Tables_number	1
_symmetry_cell_setting	triclinic
loop_
_symmetry_equiv_pos_as_xyz
  x,y,z
_cell_length_a	10.654556
_cell_length_b	11.792241
_cell_length_c	9.730223
_cell_angle_alpha	89.995449
_cell_angle_beta	89.998368
_cell_angle_gamma	84.340476
loop_
_atom_site_label
_atom_site_type_symbol
_atom_site_fract_x
_atom_site_fract_y
_atom_site_fract_z
O1	O	1.667383	0.159454	-0.114239
O2	O	2.167383	0.659454	0.385761
O3	O	1.301863	0.174635	-0.114253
O4	O	1.801863	0.674635	0.385747
O5	O	1.493493	0.001895	-0.114236
O6	O	1.993493	0.501895	0.385764
O7	O	1.475753	0.332194	-0.114256
O8	O	1.975753	0.832194	0.385744
O9	O	1.493481	0.001890	0.114344
O10	O	1.993481	0.501890	0.614344
O11	O	1.301851	0.174630	0.114327
O12	O	1.801851	0.674630	0.614327
O13	O	1.667371	0.159449	0.114341
O14	O	2.167371	0.659449	0.614341
Zn15	Zn	1.484609	0.167039	0.150626
Zn16	Zn	1.984609	0.667039	0.650626
Zn17	Zn	1.484625	0.167045	-0.150538
Zn18	Zn	1.984625	0.667045	0.349462
O19	O	1.475741	0.332190	0.114324
O20	O	1.975741	0.832190	0.614324
C21	C	1.255062	0.173516	0.000035
C22	C	1.755062	0.673516	0.500035
C23	C	1.115629	0.170177	0.000030
C24	C	1.615629	0.670177	0.500030
C25	C	0.919103	0.165478	-0.124558
C26	C	1.419103	0.665478	0.375442
C27	C	1.050117	0.168608	-0.124566
C28	C	1.550117	0.668608	0.375434
C29	C	1.050122	0.168603	0.124644
C30	C	1.550122	0.668603	0.624644
C31	C	0.919112	0.165464	0.124651
C32	C	1.419112	0.665464	0.624651
C33	C	1.492373	-0.040401	0.000054
C34	C	1.992373	0.459599	0.500054
C35	C	1.489037	-0.166423	0.000052
C36	C	1.989037	0.333577	0.500052
C37	C	1.482904	-0.397149	0.000029
C38	C	1.982904	0.102851	0.500029
C39	C	1.486312	-0.268756	0.000042
C40	C	1.986312	0.231244	0.500042
C41	C	1.714172	0.160568	0.000050
C42	C	2.214172	0.660568	0.500050
C43	C	1.853605	0.163907	0.000046
C44	C	2.353605	0.663907	0.500046
C45	C	1.476861	0.374486	0.000032
C46	C	1.976861	0.874486	0.500032
C47	C	1.480197	0.500507	0.000024
C48	C	1.980197	1.000507	0.500024
N49	N	1.484607	0.167034	0.356163
N50	N	1.984607	0.667034	0.856163
N51	N	1.484637	0.167041	-0.356074
N52	N	1.984637	0.667041	0.143926
C53	C	1.569490	0.090577	0.428096
C54	C	2.069490	0.590577	0.928096
C55	C	1.569502	0.090578	0.571979
C56	C	2.069502	0.590578	1.071979
C57	C	1.399745	0.243502	0.571982
C58	C	1.899745	0.743502	1.071982
C59	C	1.399727	0.243495	0.428102
C60	C	1.899727	0.743495	0.928102
H61	H	1.103440	0.169886	-0.226032
H62	H	1.603440	0.669886	0.273968
H63	H	1.103473	0.169873	0.226093
H64	H	1.603473	0.669873	0.726093
H65	H	1.330599	0.305756	0.369530
H66	H	1.830599	0.805756	0.869530
F67	F	0.849400	0.163790	0.257279
F68	F	1.349400	0.663790	0.757279
H69	H	0.865772	0.164209	-0.226019
H70	H	1.365772	0.664209	0.273981
F71	F	1.659823	0.009198	0.351538
F72	F	2.159823	0.509198	0.851538
F73	F	1.659843	0.009200	0.648531
F74	F	2.159843	0.509200	1.148531
F75	F	1.309417	0.324876	0.648555
F76	F	1.809417	0.824876	1.148555
