data_functionalizedCrystal
_audit_creation_method	'MofGen! by Chris Wilmer'
_symmetry_space_group_name_H-M	'P1'
_symmetry_Int_Tables_number	1
_symmetry_cell_setting	triclinic
loop_
_symmetry_equiv_pos_as_xyz
  x,y,z
_cell_length_a	12.759400
_cell_length_b	17.077404
_cell_length_c	12.759393
_cell_angle_alpha	90.021591
_cell_angle_beta	89.968436
_cell_angle_gamma	89.985090
loop_
_atom_site_label
_atom_site_type_symbol
_atom_site_fract_x
_atom_site_fract_y
_atom_site_fract_z
Zn1	Zn	-0.418198	-1.200116	-0.594068
Zn2	Zn	-0.593917	-1.200037	-0.418388
Zn3	Zn	-0.418253	-1.068843	-0.418398
Zn4	Zn	-0.593836	-1.068834	-0.594020
O5	O	-0.506051	-1.134457	-0.506219
O6	O	-0.441518	-1.309952	-0.570780
O7	O	-0.570672	-1.182604	-0.271368
O8	O	-0.271225	-1.086293	-0.441725
O9	O	-0.570618	-1.309894	-0.441708
O10	O	-0.271184	-1.182738	-0.570789
O11	O	-0.441612	-1.086216	-0.271376
O12	O	-0.441534	-0.958995	-0.441679
O13	O	-0.570481	-1.086278	-0.741048
O14	O	-0.570534	-0.958988	-0.570708
O15	O	-0.441440	-1.182730	-0.741083
O16	O	-0.740927	-1.182596	-0.441662
O17	O	-0.740868	-1.086202	-0.570698
C18	C	-0.506032	-0.930509	-0.506190
C19	C	-0.506049	-0.843260	-0.506202
C20	C	-0.779018	-1.134411	-0.506197
C21	C	-0.895795	-1.134463	-0.506222
C22	C	-0.505945	-1.134512	-0.780252
C23	C	-0.505900	-1.134536	-0.897029
C24	C	-0.950653	-1.184711	-0.439108
C25	C	-1.060377	-1.184759	-0.439140
C26	C	-1.060375	-1.084304	-0.573405
C27	C	-0.950653	-1.084261	-0.573377
C28	C	-0.895795	-1.234913	-0.371953
C29	C	-0.950653	-1.285164	-0.304832
C30	C	-1.060377	-1.285212	-0.304864
C31	C	-1.115243	-1.235009	-0.372018
C32	C	-0.232018	-1.134525	-0.506264
C33	C	-0.115241	-1.134554	-0.506283
C34	C	-0.506071	-1.339201	-0.506248
C35	C	-0.506079	-1.426451	-0.506261
C36	C	-0.573321	-0.802287	-0.573280
C37	C	-0.573323	-0.720306	-0.573297
C38	C	-0.506058	-0.679300	-0.506230
C39	C	-0.438779	-0.720279	-0.439149
C40	C	-0.438772	-0.802258	-0.439138
C41	C	-0.438800	-0.549409	-0.439174
C42	C	-0.438808	-0.467424	-0.439183
C43	C	-0.573351	-0.467457	-0.573333
C44	C	-0.573344	-0.549436	-0.573322
C45	C	-0.506066	-0.590409	-0.506240
C46	C	-0.438702	-1.184765	-0.951911
C47	C	-0.438664	-1.184784	-1.061635
C48	C	-0.573031	-1.084341	-1.061585
C49	C	-0.573063	-1.084319	-0.951863
C50	C	-0.371539	-1.234981	-0.897076
C51	C	-0.304337	-1.285216	-0.951959
C52	C	-0.304299	-1.285234	-1.061683
C53	C	-0.371463	-1.235019	-1.116525
C54	C	-0.506081	-1.134448	-0.233251
C55	C	-0.505830	-1.134576	-0.116475
H56	H	-0.806452	-1.234877	-0.371916
C57	C	-1.120732	-1.029077	-0.647259
N58	N	-1.166193	-0.987476	-0.702882
C59	C	-0.646989	-1.029068	-0.891490
N60	N	-0.702672	-0.987451	-0.846016
H61	H	-1.105039	-1.326135	-0.250219
C62	C	-0.364809	-0.422319	-0.365410
N63	N	-0.309071	-0.388346	-0.309844
H64	H	-0.249647	-1.326094	-0.907299
C65	C	-0.647319	-0.847386	-0.647059
N66	N	-0.703054	-0.881352	-0.702636
C67	C	-0.890298	-1.340386	-0.230970
N68	N	-0.844840	-1.381980	-0.175335
H69	H	-0.383987	-0.835617	-0.384522
H70	H	-0.627712	-1.043458	-1.106246
C71	C	-0.647344	-0.594541	-0.647093
N72	N	-0.703081	-0.628515	-0.702660
C73	C	-1.235943	-1.235068	-0.372053
N74	N	-1.326853	-1.235110	-0.372075
C75	C	-0.890306	-1.028973	-0.647191
N76	N	-0.844853	-0.987327	-0.702787
H77	H	-0.628103	-0.686950	-0.627917
C78	C	-0.647352	-0.422386	-0.647129
N79	N	-0.703090	-0.388434	-0.702708
H80	H	-0.249572	-1.326131	-1.106365
H81	H	-0.371415	-1.235029	-1.205870
C82	C	-0.364784	-0.675169	-0.365377
N83	N	-0.309052	-0.641193	-0.309808
H84	H	-0.384006	-0.582766	-0.384558
C85	C	-0.371571	-1.234963	-0.776378
N86	N	-0.371596	-1.234948	-0.685468
