data_functionalizedCrystal
_audit_creation_method	'MofGen! by Chris Wilmer'
_symmetry_space_group_name_H-M	'P1'
_symmetry_Int_Tables_number	1
_symmetry_cell_setting	triclinic
loop_
_symmetry_equiv_pos_as_xyz
  x,y,z
_cell_length_a	13.897448
_cell_length_b	12.759401
_cell_length_c	12.759393
_cell_angle_alpha	90.022497
_cell_angle_beta	89.967728
_cell_angle_gamma	89.981486
loop_
_atom_site_label
_atom_site_type_symbol
_atom_site_fract_x
_atom_site_fract_y
_atom_site_fract_z
Zn1	Zn	-0.383947	-1.606245	-0.594051
Zn2	Zn	-0.545273	-1.606126	-0.418366
Zn3	Zn	-0.383996	-1.430543	-0.418381
Zn4	Zn	-0.545204	-1.430526	-0.593998
O5	O	-0.464605	-1.518360	-0.506199
O6	O	-0.405356	-1.753250	-0.570761
O7	O	-0.523929	-1.582793	-0.271346
O8	O	-0.249008	-1.453907	-0.441713
O9	O	-0.523882	-1.753163	-0.441686
O10	O	-0.248972	-1.582994	-0.570777
O11	O	-0.405440	-1.453793	-0.271358
O12	O	-0.405373	-1.283520	-0.441662
O13	O	-0.523763	-1.453878	-0.741026
O14	O	-0.523811	-1.283507	-0.570686
O15	O	-0.405288	-1.582977	-0.741065
O16	O	-0.680246	-1.582776	-0.441635
O17	O	-0.680195	-1.453763	-0.570671
C18	C	-0.715220	-1.518283	-0.506168
C19	C	-0.822433	-1.518347	-0.506191
C20	C	-0.464590	-1.245393	-0.506171
C21	C	-0.464607	-1.128616	-0.506183
C22	C	-0.464513	-1.518439	-0.780232
C23	C	-0.464473	-1.518472	-0.897009
C24	C	-1.018729	-1.518457	-0.506256
C25	C	-0.909496	-1.518393	-0.506223
C26	C	-0.213012	-1.518466	-0.506252
C27	C	-0.105798	-1.518511	-0.506275
C28	C	-0.526371	-1.073775	-0.573259
C29	C	-0.526374	-0.964051	-0.573277
C30	C	-0.402845	-0.964019	-0.439134
C31	C	-0.402839	-1.073741	-0.439122
C32	C	-0.560984	-0.814153	-0.697133
C33	C	-0.622763	-0.759308	-0.764199
C34	C	-0.716898	-0.794901	-0.780145
C35	C	-0.749273	-0.885336	-0.729008
C36	C	-0.687499	-0.940175	-0.661934
C37	C	-0.593350	-0.904584	-0.646008
C38	C	-0.368239	-1.223641	-0.315266
C39	C	-0.306469	-1.278482	-0.248185
C40	C	-0.212332	-1.242892	-0.232229
C41	C	-0.179961	-1.152453	-0.283347
C42	C	-0.241731	-1.097612	-0.350427
C43	C	-0.335866	-1.133209	-0.366385
C44	C	-0.464618	-0.792393	-0.506221
C45	C	-0.464616	-0.909170	-0.506213
C46	C	-0.402773	-1.585699	-0.951893
C47	C	-0.402732	-1.585717	-1.061617
C48	C	-0.526098	-1.451278	-1.061564
C49	C	-0.526134	-1.451255	-0.951842
C50	C	-0.288926	-1.623336	-1.211600
C51	C	-0.227235	-1.690579	-1.266488
C52	C	-0.212445	-1.793093	-1.230900
C53	C	-0.259360	-1.828384	-1.140426
C54	C	-0.321059	-1.761146	-1.085544
C55	C	-0.335830	-1.658618	-1.121130
C56	C	-0.639941	-1.413648	-0.801857
C57	C	-0.701645	-1.346414	-0.746973
C58	C	-0.716445	-1.243899	-0.782559
C59	C	-0.669547	-1.208612	-0.873036
C60	C	-0.607843	-1.275845	-0.927920
C61	C	-0.593041	-1.378359	-0.892327
C62	C	-0.464628	-1.518342	-0.233232
C63	C	-0.464396	-1.518512	-0.116455
H64	H	-0.576665	-1.118451	-0.627868
H65	H	-0.713858	-1.013805	-0.620299
O66	O	-0.366781	-1.795424	-0.997760
C67	C	-0.518818	-1.827778	-0.912865
C68	C	-0.467167	-1.788954	-1.012359
H69	H	-0.599988	-1.822540	-0.924626
H70	H	-0.497737	-1.912625	-0.896842
H71	H	-0.496956	-1.776836	-0.843431
H72	H	-0.489002	-1.839819	-1.081854
H73	H	-0.488250	-1.704091	-1.028290
H74	H	-0.766698	-1.189162	-0.737867
H75	H	-0.739841	-1.375158	-0.673308
H76	H	-0.767199	-0.750239	-0.834754
H77	H	-0.352563	-1.640429	-0.907252
H78	H	-0.300956	-1.539859	-1.240579
H79	H	-0.352557	-0.919326	-0.384534
O80	O	-0.562432	-1.241495	-1.015873
C81	C	-0.579848	-1.172732	-1.190704
C82	C	-0.631397	-1.211581	-1.091156
H83	H	-0.635583	-1.148557	-1.251604
H84	H	-0.532609	-1.102562	-1.170463
H85	H	-0.533179	-1.238396	-1.223766
H86	H	-0.678116	-1.145989	-1.058044
H87	H	-0.678577	-1.281779	-1.111458
H88	H	-0.162043	-1.287548	-0.177597
O89	O	-0.683994	-1.108981	-0.907443
C90	C	-0.764870	-0.944355	-0.878799
C91	C	-0.748570	-1.057152	-0.839705
H92	H	-0.817095	-0.902425	-0.824064
H93	H	-0.693366	-0.900606	-0.880037
H94	H	-0.796267	-0.946557	-0.961295
H95	H	-0.717204	-1.055046	-0.757197
H96	H	-0.820098	-1.100855	-0.838544
H97	H	-0.825931	-0.914301	-0.741988
H98	H	-0.627888	-1.497122	-0.772868
H99	H	-0.596394	-0.685676	-0.805836
H100	H	-0.484328	-0.785172	-0.684166
O101	O	-0.337907	-1.366232	-0.198339
C102	C	-0.367486	-1.450967	-0.032684
C103	C	-0.331892	-1.351522	-0.089011
H104	H	-0.362616	-1.439117	0.055716
H105	H	-0.445400	-1.467028	-0.055504
H106	H	-0.320724	-1.520415	-0.056577
H107	H	-0.378583	-1.282013	-0.065147
H108	H	-0.253964	-1.335552	-0.066189
H109	H	-0.162214	-1.847843	-1.275597
O110	O	-0.244860	-1.927990	-1.105980
C111	C	-0.164093	-2.092666	-1.134703
C112	C	-0.180413	-1.979880	-1.173818
H113	H	-0.112004	-2.134659	-1.189543
H114	H	-0.132602	-2.090564	-1.052245
H115	H	-0.235656	-2.136295	-1.133397
H116	H	-0.108889	-1.936185	-1.175191
H117	H	-0.211949	-1.982058	-1.256253
H118	H	-0.215363	-1.023976	-0.392058
O119	O	-0.181768	-1.656404	-1.354475
C120	C	-0.157162	-1.680743	-1.539854
C121	C	-0.208727	-1.719530	-1.440292
H122	H	-0.178924	-1.731776	-1.609258
H123	H	-0.178333	-1.595935	-1.555946
H124	H	-0.075991	-1.685844	-1.528043
H125	H	-0.289908	-1.714499	-1.452028
H126	H	-0.187478	-1.804319	-1.424231
O127	O	-0.585966	-1.386091	-1.114993
C128	C	-0.640546	-1.326498	-1.284001
C129	C	-0.572710	-1.400392	-1.223628
H130	H	-0.629838	-1.338020	-1.371843
H131	H	-0.718355	-1.344909	-1.262491
H132	H	-0.623617	-1.241797	-1.262353
H133	H	-0.589552	-1.485119	-1.245243
H134	H	-0.494922	-1.381891	-1.245143
H135	H	-0.444890	-1.252634	-0.328261
O136	O	-0.088473	-1.118042	-0.267771
C137	C	0.062734	-1.146638	-0.179968
C138	C	-0.040844	-1.185735	-0.197540
H139	H	0.101265	-1.201336	-0.123170
H140	H	0.102843	-1.145458	-0.257924
H141	H	0.060749	-1.064117	-0.145747
H142	H	-0.038948	-1.268267	-0.231727
H143	H	-0.080911	-1.186837	-0.119558
