data_functionalizedCrystal
_audit_creation_method	'MofGen! by Chris Wilmer'
_symmetry_space_group_name_H-M	'P1'
_symmetry_Int_Tables_number	1
_symmetry_cell_setting	triclinic
loop_
_symmetry_equiv_pos_as_xyz
  x,y,z
_cell_length_a	16.625545
_cell_length_b	10.685969
_cell_length_c	10.686551
_cell_angle_alpha	89.648066
_cell_angle_beta	94.407339
_cell_angle_gamma	94.340372
loop_
_atom_site_label
_atom_site_type_symbol
_atom_site_fract_x
_atom_site_fract_y
_atom_site_fract_z
Zn1	Zn	-0.389945	-1.972100	0.561976
Zn2	Zn	-0.056612	-1.638766	0.895310
Zn3	Zn	0.276722	-1.305433	1.228643
Zn4	Zn	-0.534292	-1.955829	0.352215
Zn5	Zn	-0.200958	-1.622496	0.685548
Zn6	Zn	0.132375	-1.289162	1.018881
Zn7	Zn	-0.388424	-1.746227	0.368339
Zn8	Zn	-0.055091	-1.412894	0.701672
Zn9	Zn	0.278242	-1.079560	1.035006
Zn10	Zn	-0.513679	-1.762272	0.578032
Zn11	Zn	-0.180346	-1.428939	0.911365
Zn12	Zn	0.152987	-1.095606	1.244698
O13	O	-0.456585	-1.859107	0.465140
O14	O	-0.123252	-1.525774	0.798474
O15	O	0.210082	-1.192440	1.131807
O16	O	-0.418356	-2.145474	0.520684
O17	O	-0.085022	-1.812141	0.854017
O18	O	0.248311	-1.478807	1.187351
O19	O	-0.522932	-1.914500	0.178810
O20	O	-0.189599	-1.581167	0.512144
O21	O	0.143735	-1.247834	0.845477
O22	O	-0.275797	-1.776284	0.394054
O23	O	0.057536	-1.442951	0.727388
O24	O	0.390870	-1.109617	1.060721
O25	O	-0.524406	-2.133520	0.366573
O26	O	-0.191073	-1.800187	0.699906
O27	O	0.142260	-1.466853	1.033239
O28	O	-0.276914	-1.942232	0.536319
O29	O	0.056419	-1.608898	0.869652
O30	O	0.389753	-1.275565	1.202986
O31	O	-0.415764	-1.760507	0.190657
O32	O	-0.082431	-1.427174	0.523990
O33	O	0.250903	-1.093840	0.857324
O34	O	-0.395777	-1.572823	0.409622
O35	O	-0.062444	-1.239490	0.742956
O36	O	0.270890	-0.906156	1.076289
O37	O	-0.489276	-1.803631	0.751445
O38	O	-0.155942	-1.470297	1.084778
O39	O	0.177391	-1.136964	1.418112
O40	O	-0.487801	-1.584611	0.563683
O41	O	-0.154468	-1.251278	0.897016
O42	O	0.178866	-0.917945	1.230349
O43	O	-0.398368	-1.957790	0.739649
O44	O	-0.065035	-1.624457	1.072983
O45	O	0.268298	-1.291123	1.406316
O46	O	-0.644387	-1.930059	0.382141
O47	O	-0.311053	-1.596725	0.715474
O48	O	0.022280	-1.263392	1.048807
O49	O	-0.629243	-1.787853	0.548048
O50	O	-0.295909	-1.454520	0.881381
O51	O	0.037424	-1.121187	1.214714
C52	C	-0.439388	-1.533204	0.490145
C53	C	-0.106055	-1.199870	0.823478
C54	C	0.227279	-0.866537	1.156812
C55	C	-0.432049	-1.393783	0.500872
C56	C	-0.098716	-1.060449	0.834205
C57	C	0.234618	-0.727116	1.167539
C58	C	-0.666071	-1.858968	0.465111
C59	C	-0.332737	-1.525634	0.798445
C60	C	0.000596	-1.192301	1.131778
C61	C	-0.755693	-1.859026	0.465132
C62	C	-0.422360	-1.525693	0.798465
C63	C	-0.089027	-1.192359	1.131799
C64	C	-0.828477	-1.859077	0.465153
C65	C	-0.495144	-1.525743	0.798487
C66	C	-0.161811	-1.192410	1.131820
C67	C	-0.919788	-1.859152	0.465175
C68	C	-0.586455	-1.525819	0.798509
C69	C	-0.253122	-1.192485	1.131842
C70	C	-0.992567	-1.859218	0.465186
C71	C	-0.659234	-1.525885	0.798520
C72	C	-0.325901	-1.192552	1.131853
C73	C	-1.083884	-1.859292	0.465207
C74	C	-0.750551	-1.525959	0.798540
C75	C	-0.417218	-1.192625	1.131873
C76	C	-0.246282	-1.859283	0.465194
C77	C	0.087051	-1.525950	0.798528
C78	C	0.420385	-1.192616	1.131861
C79	C	-0.156663	-1.859358	0.465217
C80	C	0.176670	-1.526025	0.798551
C81	C	0.510003	-1.192692	1.131884
C82	C	-0.441692	-1.884315	0.792336
C83	C	-0.108359	-1.550982	1.125670
C84	C	0.224974	-1.217649	1.459003
C85	C	-0.435346	-1.895057	0.931768
C86	C	-0.102013	-1.561724	1.265101
C87	C	0.231321	-1.228391	1.598434
C88	C	-0.473843	-1.186282	0.440025
C89	C	-0.140509	-0.852949	0.773358
C90	C	0.192824	-0.519615	1.106691
C91	C	-0.481179	-1.325702	0.429285
C92	C	-0.147845	-0.992368	0.762619
C93	C	0.185488	-0.659035	1.095952
C94	C	-0.471365	-1.834069	0.139212
C95	C	-0.138032	-1.500736	0.472545
C96	C	0.195301	-1.167402	0.805879
C97	C	-0.477497	-1.823570	-0.000237
C98	C	-0.144164	-1.490237	0.333096
C99	C	0.189169	-1.156903	0.666429
H100	H	-0.384373	-1.345410	0.570374
H101	H	-0.051040	-1.012076	0.903708
H102	H	0.282294	-0.678743	1.237041
N103	N	-0.531734	-1.731602	0.935604
N104	N	-0.198401	-1.398268	1.268938
N105	N	0.134932	-1.064935	1.602271
H106	H	-0.574237	-1.778400	0.877317
H107	H	-0.240904	-1.445067	1.210651
H108	H	0.092430	-1.111734	1.543984
H109	H	-0.498287	-1.669379	0.885781
H110	H	-0.164954	-1.336045	1.219114
H111	H	0.168379	-1.002712	1.552447
H112	H	-0.528864	-1.374082	0.359789
H113	H	-0.195531	-1.040749	0.693122
H114	H	0.137803	-0.707415	1.026456
H115	H	-0.394404	-1.964489	0.980229
H116	H	-0.061071	-1.631156	1.313563
H117	H	0.272262	-1.297822	1.646896
