data_functionalizedCrystal
_audit_creation_method	'MofGen! by Chris Wilmer'
_symmetry_space_group_name_H-M	'P1'
_symmetry_Int_Tables_number	1
_symmetry_cell_setting	triclinic
loop_
_symmetry_equiv_pos_as_xyz
  x,y,z
_cell_length_a	9.065218
_cell_length_b	16.053802
_cell_length_c	9.065215
_cell_angle_alpha	87.395306
_cell_angle_beta	85.015291
_cell_angle_gamma	92.619430
loop_
_atom_site_label
_atom_site_type_symbol
_atom_site_fract_x
_atom_site_fract_y
_atom_site_fract_z
O1	O	1.966541	0.069430	0.210228
O2	O	1.537256	0.069431	0.227974
O3	O	1.760774	0.069427	0.004459
O4	O	1.743024	0.069434	0.433743
O5	O	1.748470	-0.069432	0.016710
O6	O	1.524953	-0.069428	0.240226
O7	O	1.954238	-0.069429	0.222479
Zn8	Zn	1.737642	-0.091475	0.233298
Zn9	Zn	1.753852	0.091477	0.217156
O10	O	1.730720	-0.069425	0.445995
C11	C	1.476118	0.000001	0.232394
C12	C	1.312275	0.000002	0.227295
N13	N	1.726589	-0.216335	0.244313
C14	C	1.821732	-0.260031	0.149242
C15	C	1.814014	-0.347438	0.156962
C16	C	1.711160	-0.391147	0.259761
C17	C	1.616007	-0.347445	0.354837
C18	C	1.623719	-0.260040	0.347109
C19	C	1.677475	-0.652556	0.293476
C20	C	1.669774	-0.739967	0.301200
C21	C	1.867780	-0.739954	0.103322
C22	C	1.875488	-0.652547	0.095609
C23	C	1.780330	-0.608853	0.190679
N24	N	1.703272	-0.480491	0.267658
N25	N	1.788212	-0.519511	0.182775
C26	C	2.015376	0.000002	0.218059
C27	C	2.179220	0.000007	0.223158
C28	C	1.752917	-0.000002	-0.044402
C29	C	1.747820	0.000001	-0.208246
N30	N	1.764916	0.216337	0.206128
C31	C	1.738577	0.000005	0.494856
C32	C	1.743675	0.000008	0.658698
H33	H	1.891486	-0.383014	0.079546
O34	O	1.531367	-0.217462	0.439312
C35	C	1.560249	-0.130944	0.410472
H36	H	1.614891	-0.119011	0.292872
H37	H	1.451658	-0.097739	0.422391
H38	H	1.637551	-0.106123	0.492831
O39	O	1.974876	-0.610186	-0.004898
C40	C	1.898535	-0.559930	-0.101441
H41	H	1.785329	-0.546666	-0.044918
H42	H	1.965185	-0.498533	-0.130287
H43	H	1.883361	-0.593949	-0.207183
H44	H	1.905493	-0.224449	0.065538
H45	H	1.586013	-0.775551	0.384918
O46	O	1.960048	-0.782528	0.011033
C47	C	1.931218	-0.869047	0.039916
H48	H	1.813592	-0.880997	0.094489
H49	H	1.943215	-0.902271	-0.068666
H50	H	2.013534	-0.893834	0.117276
O51	O	1.584985	-0.610248	0.385984
C52	C	1.492534	-0.667573	0.478350
H53	H	1.547563	-0.729868	0.486364
H54	H	1.473816	-0.642315	0.593645
H55	H	1.381467	-0.676892	0.429732
H56	H	1.532254	-0.383039	0.438533
