data_functionalizedCrystal
_audit_creation_method	'MofGen! by Chris Wilmer'
_symmetry_space_group_name_H-M	'P1'
_symmetry_Int_Tables_number	1
_symmetry_cell_setting	triclinic
loop_
_symmetry_equiv_pos_as_xyz
  x,y,z
_cell_length_a	16.120530
_cell_length_b	18.050589
_cell_length_c	16.120297
_cell_angle_alpha	92.875657
_cell_angle_beta	90.128140
_cell_angle_gamma	87.123928
loop_
_atom_site_label
_atom_site_type_symbol
_atom_site_fract_x
_atom_site_fract_y
_atom_site_fract_z
Zn1	Zn	1.247404	-0.376248	-0.534587
Zn2	Zn	1.580738	-0.042915	-0.201254
Zn3	Zn	1.914071	0.290419	0.132080
Zn4	Zn	1.254344	-0.494473	-0.395537
Zn5	Zn	1.587677	-0.161139	-0.062203
Zn6	Zn	1.921011	0.172194	0.271130
Zn7	Zn	1.115396	-0.363698	-0.388504
Zn8	Zn	1.448729	-0.030365	-0.055171
Zn9	Zn	1.782063	0.302968	0.278162
Zn10	Zn	1.108300	-0.493789	-0.527506
Zn11	Zn	1.441634	-0.160455	-0.194173
Zn12	Zn	1.774967	0.172878	0.139161
O13	O	1.181361	-0.432052	-0.461533
O14	O	1.514694	-0.098719	-0.128200
O15	O	1.848028	0.234615	0.205133
O16	O	1.364691	-0.397469	-0.522048
O17	O	1.698024	-0.064136	-0.188715
O18	O	2.031357	0.269198	0.144618
O19	O	1.241786	-0.472159	-0.278238
O20	O	1.575119	-0.138826	0.055095
O21	O	1.908452	0.194507	0.388429
O22	O	1.132972	-0.261442	-0.407903
O23	O	1.466306	0.071891	-0.074570
O24	O	1.799639	0.405224	0.258764
O25	O	1.369789	-0.484328	-0.419888
O26	O	1.703122	-0.150995	-0.086555
O27	O	2.036456	0.182339	0.246778
O28	O	1.229959	-0.270662	-0.515230
O29	O	1.563292	0.062671	-0.181896
O30	O	1.896625	0.396004	0.151437
O31	O	1.139701	-0.376080	-0.273071
O32	O	1.473035	-0.042747	0.060262
O33	O	1.806368	0.290586	0.393595
O34	O	0.998089	-0.375417	-0.401037
O35	O	1.331422	-0.042084	-0.067703
O36	O	1.664756	0.291250	0.265630
O37	O	1.120879	-0.483162	-0.644811
O38	O	1.454212	-0.149829	-0.311478
O39	O	1.787546	0.183504	0.021856
O40	O	0.992876	-0.470994	-0.503160
O41	O	1.326209	-0.137660	-0.169827
O42	O	1.659542	0.195673	0.163506
O43	O	1.223078	-0.396806	-0.650014
O44	O	1.556412	-0.063472	-0.316680
O45	O	1.889745	0.269861	0.016653
O46	O	1.234906	-0.598303	-0.413022
O47	O	1.568239	-0.264969	-0.079689
O48	O	1.901572	0.068364	0.253645
O49	O	1.127608	-0.597800	-0.509979
O50	O	1.460941	-0.264467	-0.176646
O51	O	1.794275	0.068866	0.156687
C52	C	0.965310	-0.421770	-0.450568
C53	C	1.298643	-0.088437	-0.117234
C54	C	1.631977	0.244897	0.216099
C55	C	0.872881	-0.417390	-0.445896
C56	C	1.206215	-0.084057	-0.112563
C57	C	1.539548	0.249277	0.220771
C58	C	0.703653	-0.409376	-0.437374
C59	C	1.036986	-0.076043	-0.104041
C60	C	1.370319	0.257290	0.229293
C61	C	0.659907	-0.454785	-0.485754
C62	C	0.993240	-0.121452	-0.152420
C63	C	1.326574	0.211882	0.180913
C64	C	0.565742	-0.450326	-0.481012
C65	C	0.899076	-0.116993	-0.147679
C66	C	1.232409	0.216341	0.185655
C67	C	0.797826	-0.413834	-0.442115
C68	C	1.131159	-0.080501	-0.108781
C69	C	1.464493	0.252832	0.224552
C70	C	1.181261	-0.624999	-0.461515
C71	C	1.514595	-0.291665	-0.128181
C72	C	1.847928	0.041668	0.205152
C73	C	1.181293	-0.707547	-0.461538
C74	C	1.514627	-0.374214	-0.128205
C75	C	1.847960	-0.040880	0.205128
C76	C	1.123001	-0.906753	-0.514247
C77	C	1.456334	-0.573420	-0.180914
C78	C	1.789667	-0.240086	0.152420
C79	C	1.106578	-0.951975	-0.437341
C80	C	1.439911	-0.618642	-0.104008
C81	C	1.773244	-0.285308	0.229325
C82	C	1.181375	-0.858682	-0.461553
C83	C	1.514708	-0.525348	-0.128220
C84	C	1.848041	-0.192015	0.205114
C85	C	1.197838	-0.960544	-0.538470
C86	C	1.531171	-0.627210	-0.205136
C87	C	1.864505	-0.293877	0.128197
C88	C	1.181451	-1.004671	-0.461574
C89	C	1.514784	-0.671338	-0.128241
C90	C	1.848118	-0.338005	0.205092
C91	C	1.164914	-0.902813	-0.384605
C92	C	1.498247	-0.569479	-0.051272
C93	C	1.831580	-0.236146	0.282061
C94	C	1.256207	-0.911381	-0.485787
C95	C	1.589540	-0.578048	-0.152453
C96	C	1.922873	-0.244714	0.180880
C97	C	1.239815	-0.956580	-0.408830
C98	C	1.573149	-0.623246	-0.075497
C99	C	1.906482	-0.289913	0.257837
C100	C	1.181328	-0.774581	-0.461542
C101	C	1.514662	-0.441248	-0.128209
C102	C	1.847995	-0.107914	0.205125
C103	C	1.181498	-1.088770	-0.461577
C104	C	1.514831	-0.755437	-0.128244
C105	C	1.848165	-0.422103	0.205090
C106	C	1.398256	-0.442375	-0.472543
C107	C	1.731589	-0.109041	-0.139209
C108	C	2.064922	0.224292	0.194124
C109	C	1.490683	-0.446774	-0.477234
C110	C	1.824017	-0.113440	-0.143901
C111	C	2.157350	0.219893	0.189432
C112	C	1.170413	-0.441308	-0.678428
C113	C	1.503746	-0.107974	-0.345095
C114	C	1.837080	0.225359	-0.011762
C115	C	1.165748	-0.445252	-0.770856
C116	C	1.499081	-0.111919	-0.437522
C117	C	1.832414	0.221415	-0.104189
C118	C	1.181483	-0.238354	-0.461572
C119	C	1.514816	0.094980	-0.128238
C120	C	1.848150	0.428313	0.205095
C121	C	1.181535	-0.155811	-0.461588
C122	C	1.514868	0.177522	-0.128255
C123	C	1.848201	0.510856	0.205079
C124	C	1.157199	-0.452435	-0.940081
C125	C	1.490533	-0.119102	-0.606748
C126	C	1.823866	0.214232	-0.273414
C127	C	1.205687	-0.411454	-0.983846
C128	C	1.539020	-0.078121	-0.650513
C129	C	1.872353	0.255213	-0.317180
C130	C	1.200930	-0.415451	-1.078009
C131	C	1.534264	-0.082118	-0.744675
C132	C	1.867597	0.251216	-0.411342
C133	C	1.161955	-0.448439	-0.845910
C134	C	1.495288	-0.115106	-0.512576
C135	C	1.828621	0.218227	-0.179243
C136	C	1.192314	-0.422781	-0.245485
C137	C	1.525648	-0.089448	0.087848
C138	C	1.858981	0.243886	0.421182
C139	C	1.197141	-0.418635	-0.153066
C140	C	1.530474	-0.085302	0.180267
C141	C	1.863808	0.248031	0.513601
H142	H	0.693175	-0.497008	-0.530735
H143	H	1.026509	-0.163675	-0.197401
H144	H	1.359842	0.169658	0.135932
H145	H	1.250770	-0.373367	-0.950596
H146	H	1.584103	-0.040033	-0.617263
H147	H	1.917436	0.293300	-0.283930
N148	N	1.097471	-0.502872	-0.984114
N149	N	1.430804	-0.169539	-0.650781
N150	N	1.764138	0.163795	-0.317447
H151	H	1.102496	-0.498606	-1.046113
H152	H	1.435829	-0.165273	-0.712780
H153	H	1.769163	0.168060	-0.379447
H154	H	1.111120	-0.555900	-0.969650
H155	H	1.444453	-0.222567	-0.636316
H156	H	1.777787	0.110767	-0.302983
N157	N	0.659590	-0.353465	-0.377778
N158	N	0.992923	-0.020132	-0.044445
N159	N	1.326257	0.313201	0.288888
H160	H	0.621857	-0.318868	-0.409846
H161	H	0.955190	0.014466	-0.076512
H162	H	1.288523	0.347799	0.256821
H163	H	0.625530	-0.380351	-0.337432
H164	H	0.958863	-0.047018	-0.004099
H165	H	1.292196	0.286315	0.329234
N166	N	1.057533	-0.877773	-0.573185
N167	N	1.390866	-0.544439	-0.239852
N168	N	1.724199	-0.211106	0.093481
H169	H	1.001054	-0.892414	-0.554776
H170	H	1.334387	-0.559081	-0.221443
H171	H	1.667721	-0.225748	0.111891
H172	H	1.058393	-0.821863	-0.573133
H173	H	1.391726	-0.488529	-0.239799
H174	H	1.725059	-0.155196	0.093534
H175	H	1.043330	-0.969970	-0.416862
H176	H	1.376663	-0.636637	-0.083529
H177	H	1.709997	-0.303304	0.249804
N178	N	1.146415	-0.869531	-0.298422
N179	N	1.479748	-0.536197	0.034911
N180	N	1.813082	-0.202864	0.368244
H181	H	1.146476	-0.813605	-0.298950
H182	H	1.479809	-0.480272	0.034383
H183	H	1.813142	-0.146939	0.367716
H184	H	1.090122	-0.884671	-0.280060
H185	H	1.423456	-0.551338	0.053273
H186	H	1.756789	-0.218005	0.386607
H187	H	1.319438	-0.893389	-0.506301
H188	H	1.652771	-0.560055	-0.172968
H189	H	1.986105	-0.226722	0.160365
N190	N	1.305256	-0.985370	-0.349752
N191	N	1.638590	-0.652037	-0.016419
N192	N	1.971923	-0.318704	0.316914
H193	H	1.292741	-0.964155	-0.291706
H194	H	1.626075	-0.630821	0.041628
H195	H	1.959408	-0.297488	0.374961
H196	H	1.305227	-1.041351	-0.350509
H197	H	1.638560	-0.708017	-0.017176
H198	H	1.971893	-0.374684	0.316157
N199	N	1.216246	-0.993956	-0.624616
N200	N	1.549579	-0.660623	-0.291282
N201	N	1.882913	-0.327290	0.042051
H202	H	1.172084	-0.975820	-0.664360
H203	H	1.505417	-0.642486	-0.331026
H204	H	1.838751	-0.309153	0.002307
H205	H	1.272329	-0.978532	-0.643252
H206	H	1.605662	-0.645198	-0.309919
H207	H	1.938996	-0.311865	0.023415
