data_functionalizedCrystal
_audit_creation_method	'MofGen! by Chris Wilmer'
_symmetry_space_group_name_H-M	'P1'
_symmetry_Int_Tables_number	1
_symmetry_cell_setting	triclinic
loop_
_symmetry_equiv_pos_as_xyz
  x,y,z
_cell_length_a	16.120530
_cell_length_b	18.101395
_cell_length_c	18.101390
_cell_angle_alpha	90.031247
_cell_angle_beta	92.914658
_cell_angle_gamma	87.126665
loop_
_atom_site_label
_atom_site_type_symbol
_atom_site_fract_x
_atom_site_fract_y
_atom_site_fract_z
Zn1	Zn	1.274473	-0.352281	0.476079
Zn2	Zn	1.774473	0.147719	0.976079
Zn3	Zn	1.274359	-0.476133	0.352236
Zn4	Zn	1.774359	0.023867	0.852236
Zn5	Zn	1.135062	-0.346027	0.345980
Zn6	Zn	1.635062	0.153973	0.845980
Zn7	Zn	1.135003	-0.469795	0.469766
Zn8	Zn	1.635003	0.030205	0.969766
O9	O	1.204724	-0.411059	0.411015
O10	O	1.704724	0.088941	0.911015
O11	O	1.391122	-0.373980	0.464911
O12	O	1.891122	0.126020	0.964911
O13	O	1.255859	-0.458909	0.247772
O14	O	1.755859	0.041091	0.747772
O15	O	1.153628	-0.243227	0.363261
O16	O	1.653628	0.256773	0.863261
O17	O	1.391039	-0.464973	0.373924
O18	O	1.891039	0.035027	0.873924
O19	O	1.256052	-0.247822	0.458845
O20	O	1.756052	0.252178	0.958845
O21	O	1.153518	-0.363321	0.243175
O22	O	1.653518	0.136679	0.743175
O23	O	1.018390	-0.357176	0.357140
O24	O	1.518390	0.142824	0.857140
O25	O	1.153527	-0.454172	0.574237
O26	O	1.653527	0.045828	1.074237
O27	O	1.018346	-0.448108	0.448086
O28	O	1.518346	0.051892	0.948086
O29	O	1.255995	-0.367834	0.578875
O30	O	1.755995	0.132166	1.078875
O31	O	1.255801	-0.578922	0.367803
O32	O	1.755801	-0.078922	0.867803
O33	O	1.153417	-0.574265	0.454152
O34	O	1.653417	-0.074265	0.954152
C35	C	0.988118	-0.401276	0.401249
C36	C	1.488118	0.098724	0.901249
C37	C	0.895453	-0.397108	0.397089
C38	C	1.395453	0.102892	0.897089
C39	C	0.725793	-0.389482	0.389500
C40	C	1.225793	0.110518	0.889500
C41	C	0.684496	-0.432690	0.432584
C42	C	1.184496	0.067310	0.932584
C43	C	0.590092	-0.428447	0.428361
C44	C	1.090092	0.071553	0.928361
C45	C	0.820206	-0.393725	0.393722
C46	C	1.320206	0.106275	0.893722
C47	C	1.204613	-0.603465	0.410988
C48	C	1.704613	-0.103465	0.910988
C49	C	1.204641	-0.685780	0.411005
C50	C	1.704641	-0.185780	0.911005
C51	C	1.204824	-0.984879	0.411053
C52	C	1.704824	-0.484879	0.911053
C53	C	1.140556	-0.950662	0.465530
C54	C	1.640556	-0.450662	0.965530
C55	C	1.140251	-0.865030	0.465337
C56	C	1.640251	-0.365030	0.965337
C57	C	1.204734	-0.836492	0.411030
C58	C	1.704734	-0.336492	0.911030
C59	C	1.180950	-0.866577	0.331910
C60	C	1.680950	-0.366577	0.831910
C61	C	1.180535	-0.952203	0.332235
C62	C	1.680535	-0.452203	0.832235
C63	C	1.293017	-0.957199	0.435015
C64	C	1.793017	-0.457199	0.935015
C65	C	1.292498	-0.871524	0.436703
C66	C	1.792498	-0.371524	0.936703
C67	C	1.204684	-0.752631	0.411012
C68	C	1.704684	-0.252631	0.911012
C69	C	1.204872	-1.068741	0.411066
C70	C	1.704872	-0.568741	0.911066
C71	C	1.422176	-0.420881	0.420819
C72	C	1.922176	0.079119	0.920819
C73	C	1.514842	-0.425066	0.424997
C74	C	2.014842	0.074934	0.924997
C75	C	1.204767	-0.410994	0.604179
C76	C	1.704767	0.089006	1.104179
C77	C	1.204785	-0.410966	0.686494
C78	C	1.704785	0.089034	1.186494
C79	C	1.204859	-0.217903	0.411059
C80	C	1.704859	0.282097	0.911059
C81	C	1.204916	-0.135592	0.411078
C82	C	1.704916	0.364408	0.911078
C83	C	1.204730	-0.411073	0.218605
C84	C	1.704730	0.088927	0.718605
C85	C	1.204874	-0.410899	0.136298
C86	C	1.704874	0.089101	0.636298
C87	C	1.204815	-0.410944	0.837204
C88	C	1.704815	0.089056	1.337204
C89	C	1.269287	-0.356618	0.871476
C90	C	1.769287	0.143382	1.371476
C91	C	1.269556	-0.356785	0.957106
C92	C	1.769556	0.143215	1.457106
C93	C	1.204844	-0.410921	0.985588
C94	C	1.704844	0.089079	1.485588
C95	C	1.228345	-0.490093	0.955537
C96	C	1.728345	0.009907	1.455537
C97	C	1.228796	-0.489796	0.869912
C98	C	1.728796	0.010204	1.369912
C99	C	1.116685	-0.386769	0.864796
C100	C	1.616685	0.113231	1.364796
C101	C	1.117175	-0.385056	0.950469
C102	C	1.617175	0.114944	1.450469
C103	C	1.204859	-0.410913	1.069448
C104	C	1.704859	0.089087	1.569448
C105	C	1.204801	-0.410957	0.753344
C106	C	1.704801	0.089043	1.253344
H107	H	1.155131	-0.844633	0.523880
H108	H	1.655131	-0.344633	1.023880
H109	H	1.183843	-0.531864	0.847134
H110	H	1.683843	-0.031864	1.347134
H111	H	0.720042	-0.472867	0.472642
H112	H	1.220042	0.027133	0.972642
O113	O	1.356068	-0.378411	0.988156
O114	O	1.856068	0.121589	1.488156
H115	H	1.374864	-0.434480	0.968221
H116	H	1.874864	0.065520	1.468221
O117	O	1.355305	-0.378022	0.846868
O118	O	1.855305	0.121978	1.346868
H119	H	1.352338	-0.427186	0.810336
H120	H	1.852338	0.072814	1.310336
H121	H	1.068654	-0.426286	0.842343
H122	H	1.568654	0.073714	1.342343
O123	O	1.356528	-0.986883	0.382600
O124	O	1.856528	-0.486883	0.882600
H125	H	1.405339	-1.021180	0.413916
H126	H	1.905339	-0.521180	0.913916
O127	O	1.160008	-0.979120	0.543195
O128	O	1.660008	-0.479120	1.043195
H129	H	1.223371	-0.963714	0.562180
H130	H	1.723371	-0.463714	1.062180
O131	O	1.053664	-0.834071	0.443881
O132	O	1.553664	-0.334071	0.943881
H133	H	1.009664	-0.852741	0.484381
H134	H	1.509664	-0.352741	0.984381
H135	H	1.342914	-0.852388	0.400232
H136	H	1.842914	-0.352388	0.900232
O137	O	1.168069	-0.545404	0.979754
O138	O	1.668069	-0.045404	1.479754
H139	H	1.120611	-0.516984	1.013550
H140	H	1.620611	-0.016984	1.513550
O141	O	0.678720	-0.336286	0.336418
O142	O	1.178720	0.163714	0.836418
H143	H	0.610884	-0.341278	0.341378
H144	H	1.110884	0.158722	0.841378
O145	O	1.250139	-0.279198	0.984106
O146	O	1.750139	0.220802	1.484106
H147	H	1.240474	-0.241219	0.935978
H148	H	1.740474	0.258781	1.435978
O149	O	1.088232	-0.311330	0.834935
O150	O	1.588232	0.188670	1.334935
H151	H	1.133267	-0.270154	0.854160
H152	H	1.633267	0.229846	1.354160
H153	H	1.075583	-0.969319	0.449530
H154	H	1.575583	-0.469319	0.949530
O155	O	1.093683	-0.307854	0.976348
O156	O	1.593683	0.192146	1.476348
H157	H	1.084366	-0.270364	0.927812
H158	H	1.584366	0.229636	1.427812
O159	O	1.095141	-0.974912	0.305966
O160	O	1.595141	-0.474912	0.805966
H161	H	1.054529	-0.924753	0.293154
H162	H	1.554529	-0.424753	0.793154
O163	O	1.250087	-0.278803	0.843361
O164	O	1.750087	0.221197	1.343361
H165	H	1.303983	-0.259754	0.814069
H166	H	1.803983	0.240246	1.314069
H167	H	1.292046	-0.510351	0.979876
H168	H	1.792046	-0.010351	1.479876
O169	O	1.239834	-0.982334	0.276345
O170	O	1.739834	-0.482334	0.776345
H171	H	1.268675	-0.935738	0.249201
H172	H	1.768675	-0.435738	0.749201
H173	H	1.226287	-0.848254	0.290040
H174	H	1.726287	-0.348254	0.790040
O175	O	1.050215	-0.433240	0.975725
O176	O	1.550215	0.066760	1.475725
H177	H	1.048025	-0.430267	1.036847
H178	H	1.548025	0.069733	1.536847
H179	H	1.117164	-0.842316	0.311800
H180	H	1.617164	-0.342316	0.811800
H181	H	1.314701	-0.979721	0.491934
H182	H	1.814701	-0.479721	0.991934
O183	O	1.314117	-0.516259	0.847282
O184	O	1.814117	-0.016259	1.347282
H185	H	1.328593	-0.573173	0.868607
H186	H	1.828593	-0.073173	1.368607
O187	O	1.316275	-0.845609	0.513851
O188	O	1.816275	-0.345609	1.013851
H189	H	1.265803	-0.807932	0.533833
H190	H	1.765803	-0.307932	1.033833
