data_functionalizedCrystal
_audit_creation_method	'MofGen! by Chris Wilmer'
_symmetry_space_group_name_H-M	'P1'
_symmetry_Int_Tables_number	1
_symmetry_cell_setting	triclinic
loop_
_symmetry_equiv_pos_as_xyz
  x,y,z
_cell_length_a	21.295418
_cell_length_b	21.295417
_cell_length_c	21.295411
_cell_angle_alpha	89.979403
_cell_angle_beta	89.956262
_cell_angle_gamma	90.045515
loop_
_atom_site_label
_atom_site_type_symbol
_atom_site_fract_x
_atom_site_fract_y
_atom_site_fract_z
Zn1	Zn	0.962359	-0.250415	-0.356238
Zn2	Zn	1.462359	0.249585	0.143762
Zn3	Zn	0.962263	-0.355667	-0.250965
Zn4	Zn	1.462263	0.144333	0.249035
Zn5	Zn	0.857082	-0.250445	-0.250948
Zn6	Zn	1.357082	0.249555	0.249052
Zn7	Zn	0.857053	-0.355680	-0.356162
Zn8	Zn	1.357053	0.144320	0.143838
O9	O	0.909690	-0.303052	-0.303578
O10	O	1.409690	0.196948	0.196422
O11	O	1.050436	-0.264360	-0.342313
O12	O	1.550436	0.235640	0.157687
O13	O	0.948283	-0.341716	-0.162874
O14	O	1.448283	0.158284	0.337126
O15	O	0.871100	-0.162351	-0.264940
O16	O	1.371100	0.337649	0.235060
O17	O	1.050365	-0.341688	-0.264969
O18	O	1.550365	0.158312	0.235031
O19	O	0.948447	-0.162330	-0.342296
O20	O	1.448447	0.337670	0.157704
O21	O	0.871007	-0.264410	-0.162861
O22	O	1.371007	0.235590	0.337139
O23	O	0.768989	-0.264422	-0.264866
O24	O	1.268989	0.235578	0.235134
O25	O	0.871050	-0.341709	-0.444262
O26	O	1.371050	0.158291	0.055738
O27	O	0.768968	-0.341738	-0.342166
O28	O	1.268968	0.158262	0.157834
O29	O	0.948418	-0.264372	-0.444318
O30	O	1.448418	0.235628	0.055682
O31	O	0.948254	-0.443758	-0.264895
O32	O	1.448254	0.056242	0.235105
O33	O	0.870957	-0.443767	-0.342183
O34	O	1.370957	0.056233	0.157817
C35	C	0.746138	-0.303085	-0.303506
C36	C	1.246138	0.196915	0.196494
C37	C	0.676170	-0.303114	-0.303490
C38	C	1.176170	0.196886	0.196510
C39	C	0.909609	-0.466603	-0.303547
C40	C	1.409609	0.033397	0.196453
C41	C	0.909633	-0.536571	-0.303554
C42	C	1.409633	-0.036571	0.196446
C43	C	0.643308	-0.343426	-0.343680
C44	C	1.143308	0.156574	0.156320
C45	C	0.577566	-0.343410	-0.343708
C46	C	1.077566	0.156590	0.156292
C47	C	0.544687	-0.303090	-0.303535
C48	C	1.044687	0.196910	0.196465
C49	C	0.577557	-0.262770	-0.263342
C50	C	1.077557	0.237230	0.236658
C51	C	0.643298	-0.262783	-0.263320
C52	C	1.143298	0.237217	0.236680
N53	N	0.441411	-0.298163	-0.248477
N54	N	0.941411	0.201837	0.251523
N55	N	0.378960	-0.298155	-0.248501
N56	N	0.878960	0.201845	0.251499
C57	C	0.346613	-0.303050	-0.303602
C58	C	0.846613	0.196950	0.196398
N59	N	0.379076	-0.307965	-0.358680
N60	N	0.879076	0.192035	0.141320
N61	N	0.441533	-0.307976	-0.358656
N62	N	0.941533	0.192024	0.141344
C63	C	0.473402	-0.303072	-0.303556
C64	C	0.973402	0.196928	0.196444
C65	C	0.242466	-0.343346	-0.343826
C66	C	0.742466	0.156654	0.156174
C67	C	0.176722	-0.343326	-0.343855
C68	C	0.676722	0.156674	0.156145
C69	C	0.176714	-0.262690	-0.263484
C70	C	0.676714	0.237310	0.236516
C71	C	0.242456	-0.262707	-0.263460
C72	C	0.742456	0.237293	0.236540
C73	C	0.275328	-0.303038	-0.303630
C74	C	0.775328	0.196962	0.196370
C75	C	0.949884	-0.569370	-0.343862
C76	C	1.449884	-0.069370	0.156138
C77	C	0.949906	-0.635112	-0.343878
C78	C	1.449906	-0.135112	0.156122
C79	C	0.909684	-0.668054	-0.303574
C80	C	1.409684	-0.168054	0.196426
C81	C	0.869425	-0.635248	-0.263263
C82	C	1.369425	-0.135248	0.236737
C83	C	0.869399	-0.569507	-0.263253
C84	C	1.369399	-0.069507	0.236747
N85	N	0.904924	-0.771307	-0.248481
N86	N	1.404924	-0.271307	0.251519
N87	N	0.904952	-0.833759	-0.248492
N88	N	1.404952	-0.333759	0.251508
C89	C	0.909757	-0.866129	-0.303602
C90	C	1.409757	-0.366129	0.196398
N91	N	0.914546	-0.833687	-0.358702
N92	N	1.414546	-0.333687	0.141298
N93	N	0.914521	-0.771230	-0.358690
N94	N	1.414521	-0.271230	0.141310
C95	C	0.909707	-0.739339	-0.303580
C96	C	1.409707	-0.239339	0.196420
C97	C	0.950035	-0.970212	-0.343931
C98	C	1.450035	-0.470212	0.156069
C99	C	0.950052	-1.035956	-0.343947
C100	C	1.450052	-0.535956	0.156053
C101	C	0.869574	-1.036090	-0.263327
C102	C	1.369574	-0.536090	0.236673
C103	C	0.869553	-0.970348	-0.263316
C104	C	1.369553	-0.470348	0.236684
C105	C	0.909787	-0.937413	-0.303617
C106	C	1.409787	-0.437413	0.196383
C107	C	1.073880	-0.303019	-0.303652
C108	C	1.573880	0.196981	0.196348
C109	C	1.143848	-0.303005	-0.303683
C110	C	1.643848	0.196995	0.196317
C111	C	0.909742	-0.303038	-0.467769
C112	C	1.409742	0.196962	0.032231
C113	C	0.909764	-0.303033	-0.537737
C114	C	1.409764	0.196967	-0.037737
C115	C	0.909787	-0.138861	-0.303624
C116	C	1.409787	0.361139	0.196376
C117	C	0.909829	-0.068893	-0.303644
C118	C	1.409829	0.431107	0.196356
C119	C	0.950048	-0.262761	-0.570634
C120	C	1.450048	0.237239	-0.070634
C121	C	0.950047	-0.262734	-0.636376
C122	C	1.450047	0.237266	-0.136376
C123	C	0.909769	-0.302989	-0.669219
C124	C	1.409769	0.197011	-0.169219
C125	C	0.869477	-0.343263	-0.636315
C126	C	1.369477	0.156737	-0.136315
C127	C	0.869475	-0.343285	-0.570573
C128	C	1.369475	0.156715	-0.070573
N129	N	0.904913	-0.358058	-0.772434
N130	N	1.404913	0.141942	-0.272434
N131	N	0.904919	-0.358036	-0.834886
N132	N	1.404919	0.141964	-0.334886
C133	C	0.909773	-0.302926	-0.867294
C134	C	1.409773	0.197074	-0.367294
N135	N	0.914633	-0.247837	-0.834892
N136	N	1.414633	0.252163	-0.334892
N137	N	0.914630	-0.247860	-0.772435
N138	N	1.414630	0.252140	-0.272435
C139	C	0.909767	-0.302970	-0.740505
C140	C	1.409767	0.197030	-0.240505
C141	C	0.950058	-0.262621	-0.971477
C142	C	1.450058	0.237379	-0.471477
C143	C	0.950053	-0.262593	-1.037220
C144	C	1.450053	0.237407	-0.537220
C145	C	0.869486	-0.343128	-1.037158
C146	C	1.369486	0.156872	-0.537158
C147	C	0.869488	-0.343151	-0.971415
C148	C	1.369488	0.156849	-0.471415
C149	C	0.909777	-0.302898	-0.938579
C150	C	1.409777	0.197102	-0.438579
C151	C	0.909674	-0.303019	-0.140027
C152	C	1.409674	0.196981	0.359973
C153	C	0.909774	-0.302848	-0.070059
C154	C	1.409774	0.197152	0.429941
H155	H	0.670069	-0.376266	-0.376391
H156	H	1.170069	0.123734	0.123609
O157	O	0.988983	-0.537475	-0.383071
O158	O	1.488983	-0.037475	0.116929
C159	C	1.024527	-0.580527	-0.418640
C160	C	1.524527	-0.080527	0.081360
H161	H	0.998759	-0.627418	-0.420795
H162	H	1.498759	-0.127418	0.079205
H163	H	1.072348	-0.587474	-0.395645
H164	H	1.572348	-0.087474	0.104355
C165	C	1.065211	-0.497233	-0.482997
C166	C	1.565211	0.002767	0.017003
C167	C	1.033560	-0.554825	-0.485649
C168	C	1.533560	-0.054825	0.014351
H169	H	1.070785	-0.481379	-0.524331
H170	H	1.570785	0.018621	-0.024331
H171	H	1.041266	-0.468228	-0.459033
H172	H	1.541266	0.031772	0.040967
H173	H	1.105058	-0.503031	-0.463832
H174	H	1.605058	-0.003031	0.036168
H175	H	0.993710	-0.549025	-0.504806
H176	H	1.493710	-0.049025	-0.004806
H177	H	1.057498	-0.583829	-0.509618
H178	H	1.557498	-0.083829	-0.009618
H179	H	0.982830	-1.062659	-0.376774
H180	H	1.482830	-0.562659	0.123226
O181	O	0.830326	-0.382470	-0.538712
O182	O	1.330326	0.117530	-0.038712
C183	C	0.794761	-0.417984	-0.581793
C184	C	1.294761	0.082016	-0.081793
H185	H	0.820541	-0.420140	-0.628677
H186	H	1.320541	0.079860	-0.128677
H187	H	0.746964	-0.394941	-0.588746
H188	H	1.246964	0.105059	-0.088746
C189	C	0.753989	-0.482345	-0.498546
C190	C	1.253989	0.017655	0.001454
C191	C	0.785655	-0.484997	-0.556128
C192	C	1.285655	0.015003	-0.056128
H193	H	0.748368	-0.523681	-0.482714
H194	H	1.248368	-0.023681	0.017286
H195	H	0.777947	-0.458417	-0.469520
H196	H	1.277947	0.041583	0.030480
H197	H	0.714162	-0.463140	-0.504348
H198	H	1.214162	0.036860	-0.004348
H199	H	0.825484	-0.504195	-0.550325
H200	H	1.325484	-0.004195	-0.050325
H201	H	0.761702	-0.508929	-0.585152
H202	H	1.261702	-0.008929	-0.085152
H203	H	0.836674	-0.662073	-0.230449
H204	H	1.336674	-0.162073	0.269551
O205	O	0.989245	-0.223450	-1.069081
O206	O	1.489245	0.276550	-0.569081
C207	C	1.024792	-0.187920	-1.025998
C208	C	1.524792	0.312080	-0.525998
H209	H	1.026953	-0.213720	-0.979137
H210	H	1.526953	0.286280	-0.479137
H211	H	1.001773	-0.140116	-1.018988
H212	H	1.501773	0.359884	-0.518988
C213	C	1.089139	-0.147142	-1.109262
C214	C	1.589139	0.352858	-0.609262
C215	C	1.091799	-0.178833	-1.051708
C216	C	1.591799	0.321167	-0.551708
H217	H	1.130472	-0.141534	-1.125122
H218	H	1.630472	0.358466	-0.625122
H219	H	1.065190	-0.171077	-1.138289
H220	H	1.565190	0.328923	-0.638289
H221	H	1.069954	-0.107308	-1.103413
H222	H	1.569954	0.392692	-0.603413
H223	H	1.110976	-0.218668	-1.057560
H224	H	1.610976	0.281332	-0.557560
H225	H	1.115753	-0.154904	-1.022683
H226	H	1.615753	0.345096	-0.522683
H227	H	0.550805	-0.376236	-0.376438
H228	H	1.050805	0.123764	0.123562
O229	O	0.830279	-0.537741	-0.224034
O230	O	1.330279	-0.037741	0.275966
C231	C	0.794767	-0.580909	-0.188476
C232	C	1.294767	-0.080909	0.311524
H233	H	0.820567	-0.627744	-0.186336
H234	H	1.320567	-0.127744	0.313664
H235	H	0.746950	-0.587943	-0.211471
H236	H	1.246950	-0.087943	0.288529
C237	C	0.754029	-0.497774	-0.124093
C238	C	1.254029	0.002226	0.375907
C239	C	0.785719	-0.555296	-0.121460
C240	C	1.285719	-0.055296	0.378540
H241	H	0.748445	-0.481974	-0.082754
H242	H	1.248445	0.018026	0.417246
H243	H	0.777952	-0.468690	-0.148050
H244	H	1.277952	0.031310	0.351950
H245	H	0.714184	-0.503643	-0.143257
H246	H	1.214184	-0.003643	0.356743
H247	H	0.825566	-0.549425	-0.102303
H248	H	1.325566	-0.049425	0.397697
H249	H	0.761802	-0.584379	-0.097498
H250	H	1.261802	-0.084379	0.402502
O251	O	0.545595	-0.223696	-0.224247
O252	O	1.045595	0.276304	0.275753
C253	C	0.507479	-0.259470	-0.183546
C254	C	1.007479	0.240530	0.316454
H255	H	0.527240	-0.309046	-0.179564
H256	H	1.027240	0.190954	0.320436
H257	H	0.457673	-0.261658	-0.203018
H258	H	0.957673	0.238342	0.296982
C259	C	0.482162	-0.167732	-0.123052
C260	C	0.982162	0.332268	0.376948
C261	C	0.506435	-0.228621	-0.118157
C262	C	1.006435	0.271379	0.381843
H263	H	0.481515	-0.148703	-0.082718
H264	H	0.981515	0.351297	0.417282
H265	H	0.507839	-0.143630	-0.150474
H266	H	1.007839	0.356370	0.349526
H267	H	0.440659	-0.169564	-0.139282
H268	H	0.940659	0.330436	0.360718
H269	H	0.547940	-0.226788	-0.101936
H270	H	1.047940	0.273212	0.398064
H271	H	0.480765	-0.252723	-0.090730
H272	H	0.980765	0.247277	0.409270
O273	O	0.675125	-0.223605	-0.224214
O274	O	1.175125	0.276395	0.275786
C275	C	0.632012	-0.187999	-0.188774
C276	C	1.132012	0.312001	0.311226
H277	H	0.585120	-0.213767	-0.186565
H278	H	1.085120	0.286233	0.313435
H279	H	0.625097	-0.140222	-0.211916
H280	H	1.125097	0.359778	0.288084
C281	C	0.715197	-0.147186	-0.124497
C282	C	1.215197	0.352814	0.375503
C283	C	0.657604	-0.178837	-0.121780
C284	C	1.157604	0.321163	0.378220
H285	H	0.730984	-0.141531	-0.083173
H286	H	1.230984	0.358469	0.416827
H287	H	0.744244	-0.171172	-0.148375
H288	H	1.244244	0.328828	0.351625
H289	H	0.709427	-0.107375	-0.143785
H290	H	1.209427	0.392625	0.356215
H291	H	0.663377	-0.218650	-0.102500
H292	H	1.163377	0.281350	0.397500
H293	H	0.628559	-0.154857	-0.097897
H294	H	1.128559	0.345143	0.402103
H295	H	0.269232	-0.376183	-0.376538
H296	H	0.769232	0.123817	0.123462
H297	H	0.836685	-0.375898	-1.063898
H298	H	1.336685	0.124102	-0.563898
O299	O	0.989102	-0.223490	-0.939503
O300	O	1.489102	0.276510	-0.439503
C301	C	0.953287	-0.182844	-0.901457
C302	C	1.453287	0.317156	-0.401457
H303	H	0.905568	-0.205057	-0.891574
H304	H	1.405568	0.294943	-0.391574
H305	H	0.946401	-0.136184	-0.926784
H306	H	1.446401	0.363816	-0.426784
C307	C	1.046539	-0.144186	-0.851174
C308	C	1.546539	0.355814	-0.351174
C309	C	0.987931	-0.171471	-0.839031
C310	C	1.487931	0.328529	-0.339031
H311	H	1.067909	-0.137167	-0.812667
H312	H	1.567909	0.362833	-0.312667
H313	H	1.070668	-0.171567	-0.876807
H314	H	1.570668	0.328433	-0.376807
H315	H	1.040792	-0.105305	-0.872281
H316	H	1.540792	0.394695	-0.372281
H317	H	0.993679	-0.210354	-0.817931
H318	H	1.493679	0.289646	-0.317931
H319	H	0.963803	-0.144095	-0.813392
H320	H	1.463803	0.355905	-0.313392
H321	H	0.982793	-0.943395	-0.376748
H322	H	1.482793	-0.443395	0.123252
O323	O	0.830439	-0.938582	-0.224094
O324	O	1.330439	-0.438582	0.275906
C325	C	0.794930	-0.981751	-0.188534
C326	C	1.294930	-0.481751	0.311466
H327	H	0.820732	-1.028585	-0.186396
H328	H	1.320732	-0.528585	0.313604
H329	H	0.747111	-0.988786	-0.211525
H330	H	1.247111	-0.488786	0.288475
C331	C	0.754193	-0.898617	-0.124148
C332	C	1.254193	-0.398617	0.375852
C333	C	0.785886	-0.956138	-0.121517
C334	C	1.285886	-0.456138	0.378483
H335	H	0.748612	-0.882817	-0.082809
H336	H	1.248612	-0.382817	0.417191
H337	H	0.778114	-0.869532	-0.148107
H338	H	1.278114	-0.369532	0.351893
H339	H	0.714348	-0.904487	-0.143310
H340	H	1.214348	-0.404487	0.356690
H341	H	0.825733	-0.950266	-0.102363
H342	H	1.325733	-0.450266	0.397637
H343	H	0.761972	-0.985222	-0.097553
H344	H	1.261972	-0.485222	0.402447
O345	O	0.274284	-0.223532	-0.224355
O346	O	0.774284	0.276468	0.275645
C347	C	0.231170	-0.187928	-0.188914
C348	C	0.731170	0.312072	0.311086
H349	H	0.184279	-0.213699	-0.186703
H350	H	0.684279	0.286301	0.313297
H351	H	0.224251	-0.140152	-0.212056
H352	H	0.724251	0.359848	0.287944
C353	C	0.314355	-0.147108	-0.124641
C354	C	0.814355	0.352892	0.375359
C355	C	0.256764	-0.178763	-0.121921
C356	C	0.756764	0.321237	0.378079
H357	H	0.330143	-0.141452	-0.083317
H358	H	0.830143	0.358548	0.416683
H359	H	0.343402	-0.171093	-0.148520
H360	H	0.843402	0.328907	0.351480
H361	H	0.308581	-0.107298	-0.143929
H362	H	0.808581	0.392702	0.356071
H363	H	0.262540	-0.218575	-0.102640
H364	H	0.762540	0.281425	0.397360
H365	H	0.227718	-0.154785	-0.098037
H366	H	0.727718	0.345215	0.401963
O367	O	0.988917	-0.667014	-0.383099
O368	O	1.488917	-0.167014	0.116901
C369	C	0.953072	-0.705077	-0.423704
C370	C	1.453072	-0.205077	0.076296
H371	H	0.903486	-0.685316	-0.427534
H372	H	1.403486	-0.185316	0.072466
H373	H	0.950924	-0.754910	-0.404238
H374	H	1.450924	-0.254910	0.095762
C375	C	1.044700	-0.730302	-0.484475
C376	C	1.544700	-0.230302	0.015525
C377	C	0.983800	-0.706028	-0.489184
C378	C	1.483800	-0.206028	0.010816
H379	H	1.063656	-0.730891	-0.524866
H380	H	1.563656	-0.230891	-0.024866
H381	H	1.068851	-0.704660	-0.457118
H382	H	1.568851	-0.204660	0.042882
H383	H	1.042902	-0.771827	-0.468251
H384	H	1.542902	-0.271827	0.031749
H385	H	0.985599	-0.664501	-0.505400
H386	H	1.485599	-0.164501	-0.005400
H387	H	0.959650	-0.731662	-0.516546
H388	H	1.459650	-0.231662	-0.016546
O389	O	0.830448	-0.382307	-0.939388
O390	O	1.330448	0.117693	-0.439388
C391	C	0.866262	-0.422982	-0.901398
C392	C	1.366262	0.077018	-0.401398
H393	H	0.913980	-0.400774	-0.891583
H394	H	1.413980	0.099226	-0.391583
H395	H	0.873152	-0.469621	-0.926739
H396	H	1.373152	0.030379	-0.426739
C397	C	0.773010	-0.461685	-0.850980
C398	C	1.273010	0.038315	-0.350980
C399	C	0.831616	-0.434406	-0.838921
C400	C	1.331616	0.065594	-0.338921
H401	H	0.751638	-0.468735	-0.812442
H402	H	1.251638	0.031265	-0.312442
H403	H	0.748881	-0.434284	-0.876576
H404	H	1.248881	0.065716	-0.376576
H405	H	0.778760	-0.500548	-0.872099
H406	H	1.278760	-0.000548	-0.372099
H407	H	0.825865	-0.395541	-0.817809
H408	H	1.325865	0.104459	-0.317809
H409	H	0.855743	-0.461801	-0.813320
H410	H	1.355743	0.038199	-0.313320
O411	O	0.989199	-0.223598	-0.538835
O412	O	1.489199	0.276402	-0.038835
C413	C	1.024765	-0.188058	-0.581974
C414	C	1.524765	0.311942	-0.081974
H415	H	0.998985	-0.185870	-0.628818
H416	H	1.498985	0.314130	-0.128818
H417	H	1.072560	-0.211099	-0.588998
H418	H	1.572560	0.288901	-0.088998
C419	C	1.065542	-0.123753	-0.498793
C420	C	1.565542	0.376247	0.001207
C421	C	1.033875	-0.121062	-0.556327
C422	C	1.533875	0.378938	-0.056327
H423	H	1.071164	-0.082428	-0.482973
H424	H	1.571164	0.417572	0.017027
H425	H	1.041582	-0.147699	-0.469729
H426	H	1.541582	0.352301	0.030271
H427	H	1.105368	-0.142957	-0.504655
H428	H	1.605368	0.357043	-0.004655
H429	H	0.994047	-0.101866	-0.550463
H430	H	1.494047	0.398134	-0.050463
H431	H	1.057829	-0.097112	-0.585389
H432	H	1.557829	0.402888	-0.085389
H433	H	0.149968	-0.376152	-0.376587
H434	H	0.649968	0.123848	0.123413
H435	H	0.149945	-0.229857	-0.230777
H436	H	0.649945	0.270143	0.269223
H437	H	0.836820	-1.062911	-0.230515
H438	H	1.336820	-0.562911	0.269485
H439	H	0.982849	-0.229937	-0.663166
H440	H	1.482849	0.270063	-0.163166
H441	H	0.836681	-0.376038	-0.663060
H442	H	1.336681	0.123962	-0.163060
