data_functionalizedCrystal
_audit_creation_method	'MofGen! by Chris Wilmer'
_symmetry_space_group_name_H-M	'P1'
_symmetry_Int_Tables_number	1
_symmetry_cell_setting	triclinic
loop_
_symmetry_equiv_pos_as_xyz
  x,y,z
_cell_length_a	10.654549
_cell_length_b	15.021413
_cell_length_c	10.654555
_cell_angle_alpha	90.006595
_cell_angle_beta	95.511764
_cell_angle_gamma	90.008417
loop_
_atom_site_label
_atom_site_type_symbol
_atom_site_fract_x
_atom_site_fract_y
_atom_site_fract_z
O1	O	1.667853	0.074048	-0.176411
O2	O	1.302375	0.074045	-0.193210
O3	O	1.493510	0.074046	-0.002072
O4	O	1.476718	0.074047	-0.367549
O5	O	1.493479	-0.074018	-0.002099
O6	O	1.302345	-0.074019	-0.193238
O7	O	1.667822	-0.074016	-0.176438
Zn8	Zn	1.485079	-0.097526	-0.184842
Zn9	Zn	1.485119	0.097555	-0.184806
O10	O	1.476688	-0.074018	-0.367576
C11	C	1.255562	0.000012	-0.191989
C12	C	1.116119	0.000011	-0.188295
C13	C	0.826143	0.000036	-0.409917
C14	C	0.877685	0.000033	-0.525935
C15	C	1.008703	0.000021	-0.529410
C16	C	1.088184	0.000016	-0.416855
C17	C	1.036643	0.000019	-0.300837
C18	C	0.905620	0.000028	-0.297374
C19	C	1.064577	0.000015	-0.072277
C20	C	0.933559	0.000020	-0.068798
C21	C	1.144058	0.000009	0.040278
C22	C	1.092517	0.000007	0.156299
C23	C	0.961490	0.000017	0.159770
C24	C	0.882018	0.000024	0.047220
N25	N	1.485060	-0.230664	-0.184866
C26	C	1.396666	-0.470348	-0.273206
C27	C	1.510364	-0.529681	-0.298572
C28	C	1.485092	-0.412271	-0.184835
C29	C	1.371425	-0.529679	-0.159497
C30	C	1.485113	-0.587695	-0.184808
C31	C	1.598848	-0.470298	-0.210258
C32	C	1.459834	-0.470290	-0.071133
C33	C	1.573614	-0.529597	-0.096451
C34	C	1.485079	-0.311213	-0.184854
C35	C	1.485140	-0.688750	-0.184788
C36	C	1.714635	0.000019	-0.177659
C37	C	1.854079	0.000026	-0.181353
C38	C	1.492259	0.000016	0.044712
C39	C	1.488561	0.000022	0.184155
N40	N	1.485147	0.230693	-0.184772
C41	C	1.477939	0.000015	-0.414360
C42	C	1.481637	0.000015	-0.553803
C43	C	1.481588	-0.161409	0.446156
C44	C	1.483303	-0.242120	0.380627
C45	C	1.486771	-0.242120	0.249608
C46	C	1.488522	-0.161401	0.184115
C47	C	1.486807	-0.080689	0.249644
C48	C	1.483342	-0.080698	0.380667
C49	C	1.486846	0.080733	0.249684
C50	C	1.483387	0.080735	0.380704
C51	C	1.488597	0.161453	0.184191
C52	C	1.486891	0.242166	0.249722
C53	C	1.483424	0.242163	0.380749
C54	C	1.481672	0.161446	0.446234
H55	H	1.250739	0.000004	0.037440
F56	F	1.431841	-0.436163	0.054495
H57	H	1.488145	-0.307843	0.196251
F58	F	1.245771	-0.563774	-0.131498
F59	F	1.492179	-0.161405	0.044668
F60	F	1.477920	-0.161416	0.585601
F61	F	1.492264	0.161451	0.044746
F62	F	1.227625	0.000018	-0.420560
H63	H	1.488307	0.307881	0.196386
H64	H	1.482017	0.307888	0.434094
H65	H	1.050667	0.000017	-0.623882
F66	F	0.793088	0.000045	-0.645718
F67	F	1.477991	0.161436	0.585677
F68	F	1.177111	0.000006	0.276074
H69	H	0.919534	0.000025	0.254246
F70	F	1.299025	-0.436340	-0.370964
H71	H	0.719460	0.000030	-0.407098
H72	H	0.775334	0.000025	0.050035
F73	F	1.538315	-0.563780	-0.424237
H74	H	1.481874	-0.307841	0.433965
H75	H	1.695005	-0.444324	-0.231792
H76	H	1.648484	-0.555448	-0.021703
