data_functionalizedCrystal
_audit_creation_method	'MofGen! by Chris Wilmer'
_symmetry_space_group_name_H-M	'P1'
_symmetry_Int_Tables_number	1
_symmetry_cell_setting	triclinic
loop_
_symmetry_equiv_pos_as_xyz
  x,y,z
_cell_length_a	9.730223
_cell_length_b	14.971486
_cell_length_c	14.971486
_cell_angle_alpha	96.385871
_cell_angle_beta	89.996985
_cell_angle_gamma	89.999479
loop_
_atom_site_label
_atom_site_type_symbol
_atom_site_fract_x
_atom_site_fract_y
_atom_site_fract_z
O1	O	-0.114132	-1.186945	0.116560
O2	O	-0.114170	-0.926545	0.130519
O3	O	-0.114140	-1.063724	-0.006661
O4	O	-0.114162	-1.049765	0.253740
O5	O	0.114439	-1.063712	-0.006660
O6	O	0.114410	-0.926532	0.130520
O7	O	0.114447	-1.186933	0.116561
Zn8	Zn	0.150721	-1.056731	0.123540
Zn9	Zn	-0.150443	-1.056747	0.123539
O10	O	0.114418	-1.049753	0.253740
C11	C	0.000115	-0.893214	0.129895
C12	C	0.000101	-0.793917	0.128024
N13	N	0.356257	-1.056726	0.123541
N14	N	-0.355980	-1.056758	0.123532
C15	C	0.428205	-0.995975	0.184257
C16	C	0.572088	-0.995993	0.184255
C17	C	0.572062	-1.117516	0.062813
C18	C	0.428182	-1.117501	0.062820
C19	C	0.356281	-0.935200	0.244978
C20	C	0.428229	-0.874444	0.305698
C21	C	0.572112	-0.874462	0.305697
C22	C	0.644046	-0.935236	0.244974
C23	C	0.000149	-1.063094	-0.039985
C24	C	0.000148	-1.061223	-0.139282
C25	C	0.000159	-1.220263	0.117185
C26	C	0.000164	-1.319561	0.119056
C27	C	0.000096	-0.736692	0.208614
C28	C	0.000117	-0.643392	0.206850
C29	C	0.000133	-0.607320	0.124497
C30	C	0.000141	-0.664552	0.043902
C31	C	0.000131	-0.757850	0.045666
C32	C	0.000161	-0.470090	0.040231
C33	C	0.000169	-0.376786	0.038466
C34	C	0.000147	-0.355632	0.201415
C35	C	0.000136	-0.448930	0.203179
C36	C	0.000143	-0.506156	0.122584
C37	C	0.000160	-1.141812	-0.196507
C38	C	0.000146	-1.140049	-0.289807
C39	C	0.000129	-1.057696	-0.325879
C40	C	0.000112	-0.977101	-0.268646
C41	C	0.000117	-0.978865	-0.175349
C42	C	0.000107	-0.973430	-0.463109
C43	C	0.000105	-0.971665	-0.556413
C44	C	0.000136	-1.134614	-0.577567
C45	C	0.000141	-1.136378	-0.484269
C46	C	0.000126	-1.055782	-0.427043
C47	C	0.000125	-1.050384	0.287065
C48	C	0.000118	-1.052254	0.386362
H49	H	0.369652	-0.824968	0.355142
C50	C	0.000156	-1.226964	-0.444591
H51	H	0.000150	-1.274712	-0.492033
H52	H	0.079867	-1.231034	-0.408636
H53	H	-0.079565	-1.231038	-0.408633
C54	C	0.349033	-1.184322	-0.003970
H55	H	0.412474	-1.220511	-0.040143
H56	H	0.292896	-1.221578	0.028273
H57	H	0.292915	-1.152098	-0.041257
C58	C	0.000127	-1.223268	-0.640511
H59	H	0.000101	-1.210425	-0.701242
H60	H	0.079841	-1.257033	-0.629578
H61	H	-0.079590	-1.257031	-0.629556
H62	H	0.000114	-0.904606	-0.585780
H63	H	0.630691	-0.824998	0.355143
C64	C	0.000122	-0.488608	0.293765
H65	H	0.000134	-0.441166	0.341513
H66	H	-0.079590	-0.524562	0.297840
H67	H	0.079842	-0.524566	0.297835
C68	C	0.000122	-0.820798	-0.042982
H69	H	0.000118	-0.785954	-0.092282
H70	H	0.079826	-0.857640	-0.045684
H71	H	-0.079605	-0.857626	-0.045678
C72	C	0.000094	-0.884776	-0.400162
H73	H	0.000097	-0.835476	-0.435006
H74	H	-0.079614	-0.882079	-0.363321
H75	H	0.079818	-0.882076	-0.363333
C76	C	0.000102	-0.890219	-0.112397
H77	H	0.000092	-0.903064	-0.051666
H78	H	0.079804	-0.856445	-0.123340
H79	H	-0.079628	-0.856464	-0.123339
H80	H	0.239124	-0.935178	0.244983
H81	H	0.000090	-0.910047	-0.298024
C82	C	0.000148	-0.292691	0.290072
H83	H	0.000120	-0.327537	0.339370
H84	H	0.079864	-0.255861	0.292776
H85	H	-0.079568	-0.255852	0.292767
H86	H	0.000112	-0.596802	0.272474
C87	C	0.000194	-0.337107	-0.052120
H88	H	0.000215	-0.384550	-0.099867
H89	H	-0.079513	-0.301149	-0.056198
H90	H	0.079919	-0.301154	-0.056185
C91	C	0.802315	-0.935263	0.244974
H92	H	0.834847	-0.980159	0.200117
H93	H	0.834886	-0.878091	0.232639
H94	H	0.834850	-0.947572	0.302167
C95	C	0.651180	-1.184355	-0.003984
H96	H	0.587722	-1.220539	-0.040141
H97	H	0.707313	-1.152146	-0.041273
H98	H	0.707301	-1.221627	0.028256
C99	C	0.000078	-0.776363	0.299203
H100	H	0.000091	-0.728916	0.346946
H101	H	-0.079636	-0.812314	0.303281
H102	H	0.079796	-0.812321	0.303278
H103	H	0.000168	-0.516682	-0.025399
H104	H	0.000174	-0.635175	-0.023152
C105	C	0.000179	-1.232402	-0.156836
H106	H	0.000171	-1.280145	-0.204283
H107	H	0.079890	-1.236476	-0.120883
H108	H	-0.079541	-1.236480	-0.120878
H109	H	0.000159	-1.205673	-0.336396
