data_functionalizedCrystal
_audit_creation_method	'MofGen! by Chris Wilmer'
_symmetry_space_group_name_H-M	'P1'
_symmetry_Int_Tables_number	1
_symmetry_cell_setting	triclinic
loop_
_symmetry_equiv_pos_as_xyz
  x,y,z
_cell_length_a	16.109302
_cell_length_b	8.597304
_cell_length_c	14.586319
_cell_angle_alpha	82.296329
_cell_angle_beta	89.994552
_cell_angle_gamma	84.402578
loop_
_atom_site_label
_atom_site_type_symbol
_atom_site_fract_x
_atom_site_fract_y
_atom_site_fract_z
O1	O	1.104800	0.201736	-0.092213
O2	O	1.604800	0.701736	0.407787
O3	O	0.862945	0.226840	-0.094188
O4	O	1.362945	0.726840	0.405812
O5	O	0.988632	-0.014182	-0.075152
O6	O	1.488632	0.485818	0.424848
O7	O	0.979113	0.442757	-0.111249
O8	O	1.479113	0.942757	0.388751
O9	O	0.988623	-0.014185	0.077329
O10	O	1.488623	0.485815	0.577329
O11	O	0.862936	0.226836	0.058293
O12	O	1.362936	0.726836	0.558293
O13	O	1.104791	0.201732	0.060268
O14	O	1.604791	0.701732	0.560268
Cu15	Cu	0.983863	0.214284	0.073203
Cu16	Cu	1.483863	0.714284	0.573203
Cu17	Cu	0.983873	0.214288	-0.107123
Cu18	Cu	1.483873	0.714288	0.392877
O19	O	0.979104	0.442753	0.041232
O20	O	1.479104	0.942753	0.541232
C21	C	0.831958	0.225821	-0.017867
C22	C	1.331958	0.725821	0.482133
C23	C	0.739637	0.222772	-0.017623
C24	C	1.239637	0.722772	0.482377
C25	C	0.527233	0.215719	0.066043
C26	C	1.027233	0.715719	0.566043
C27	C	0.440489	0.212837	0.066267
C28	C	0.940489	0.712837	0.566267
C29	C	0.440509	0.212849	-0.099977
C30	C	0.940509	0.712849	0.400023
C31	C	0.527252	0.215719	-0.100200
C32	C	1.027252	0.715719	0.399800
C33	C	0.570611	0.217162	-0.017188
C34	C	1.070611	0.717162	0.482812
C35	C	0.397125	0.211410	-0.016741
C36	C	0.897125	0.711410	0.483259
C37	C	0.303073	0.208285	-0.016498
C38	C	0.803073	0.708285	0.483502
C39	C	0.664669	0.220284	-0.017430
C40	C	1.164669	0.720284	0.482570
C41	C	0.987605	-0.072654	0.005706
C42	C	1.487605	0.427346	0.505706
C43	C	0.984548	-0.246880	0.019463
C44	C	1.484548	0.253120	0.519463
C45	C	1.135778	0.202751	-0.016056
C46	C	1.635778	0.702751	0.483944
C47	C	1.228099	0.205800	-0.016305
C48	C	1.728099	0.705800	0.483695
C49	C	0.980131	0.501226	-0.039628
C50	C	1.480131	1.001226	0.460372
C51	C	0.983188	0.675452	-0.053392
C52	C	1.483188	1.175452	0.446608
N53	N	0.983861	0.214280	0.200035
N54	N	1.483861	0.714280	0.700035
N55	N	0.983881	0.214280	-0.233954
N56	N	1.483881	0.714280	0.266046
C57	C	1.039534	0.107591	0.443468
C58	C	1.539534	0.607591	0.943468
C59	C	1.039537	0.107588	0.539450
C60	C	1.539537	0.607588	1.039450
C61	C	0.928202	0.320973	0.522606
C62	C	1.428202	0.820973	1.022606
C63	C	0.928196	0.320968	0.426626
C64	C	1.428196	0.820968	0.926626
C65	C	0.983867	0.214279	0.387060
C66	C	1.483867	0.714279	0.887060
C67	C	0.983875	0.214280	0.579021
C68	C	1.483875	0.714280	1.079021
C69	C	0.983877	0.214277	0.683088
C70	C	1.483877	0.714277	1.183088
C71	C	0.983864	0.214280	0.282986
C72	C	1.483864	0.714280	0.782986
H73	H	0.405196	0.211676	-0.167562
H74	H	0.905196	0.711676	0.332438
C75	C	0.982955	-0.337115	0.117963
C76	C	1.482955	0.162885	0.617963
N77	N	0.981755	-0.405082	0.192151
N78	N	1.481755	0.094918	0.692151
H79	H	0.562572	0.216891	-0.167979
H80	H	1.062572	0.716891	0.332021
H81	H	0.984359	-0.257756	-0.126297
H82	H	1.484359	0.242244	0.373703
C83	C	0.574926	0.217287	0.157359
C84	C	1.074926	0.717287	0.657359
N85	N	0.610847	0.218462	0.226142
N86	N	1.110847	0.718462	0.726142
C87	C	1.100768	-0.009790	0.601496
C88	C	1.600768	0.490210	1.101496
N89	N	1.146888	-0.098210	0.648229
N90	N	1.646888	0.401790	1.148229
H91	H	0.882861	0.407847	0.380695
H92	H	1.382861	0.907847	0.880695
H93	H	0.882877	0.407839	0.554830
H94	H	1.382877	0.907839	1.054830
C95	C	0.392776	0.211267	0.157826
C96	C	0.892776	0.711267	0.657826
N97	N	0.356838	0.210090	0.226791
N98	N	0.856838	0.710090	0.726791
H99	H	1.084864	0.020717	0.411256
H100	H	1.584864	0.520717	0.911256
