data_functionalizedCrystal
_audit_creation_method	'MofGen! by Chris Wilmer'
_symmetry_space_group_name_H-M	'P1'
_symmetry_Int_Tables_number	1
_symmetry_cell_setting	triclinic
loop_
_symmetry_equiv_pos_as_xyz
  x,y,z
_cell_length_a	29.839134
_cell_length_b	21.395361
_cell_length_c	29.839125
_cell_angle_alpha	90.019046
_cell_angle_beta	89.978020
_cell_angle_gamma	89.974432
loop_
_atom_site_label
_atom_site_type_symbol
_atom_site_fract_x
_atom_site_fract_y
_atom_site_fract_z
Zn1	Zn	0.686753	0.249612	-0.254121
Zn2	Zn	1.186753	0.749612	0.245879
Zn3	Zn	0.686699	0.354368	-0.178989
Zn4	Zn	1.186699	0.854368	0.321011
Zn5	Zn	0.611636	0.249598	-0.178990
Zn6	Zn	1.111636	0.749598	0.321010
Zn7	Zn	0.611598	0.354347	-0.254077
Zn8	Zn	1.111598	0.854347	0.245923
O9	O	0.649171	0.301981	-0.216544
O10	O	1.149171	0.801981	0.283456
O11	O	0.749613	0.263523	-0.244172
O12	O	1.249613	0.763523	0.255828
O13	O	0.676735	0.340473	-0.116122
O14	O	1.176735	0.840473	0.383878
O15	O	0.621639	0.161922	-0.188975
O16	O	1.121639	0.661922	0.311025
O17	O	0.749573	0.340486	-0.188973
O18	O	1.249573	0.840486	0.311027
O19	O	0.676827	0.161933	-0.244173
O20	O	1.176827	0.661933	0.255827
O21	O	0.621587	0.263499	-0.116123
O22	O	1.121587	0.763499	0.383877
O23	O	0.548764	0.263479	-0.188933
O24	O	1.048764	0.763479	0.311067
O25	O	0.621574	0.340450	-0.316950
O26	O	1.121574	0.840450	0.183050
O27	O	0.548736	0.340437	-0.244099
O28	O	1.048736	0.840437	0.255901
O29	O	0.676790	0.263502	-0.316982
O30	O	1.176790	0.763502	0.183018
O31	O	0.676698	0.442043	-0.188931
O32	O	1.176698	0.942043	0.311069
O33	O	0.621522	0.442027	-0.244098
O34	O	1.121522	0.942027	0.255902
C35	C	0.649112	0.464769	-0.216519
C36	C	1.149112	0.964769	0.283481
C37	C	0.649128	0.534410	-0.216524
C38	C	1.149128	1.034410	0.283476
C39	C	0.532449	0.301955	-0.216512
C40	C	1.032449	0.801955	0.283488
C41	C	0.482514	0.301958	-0.216509
C42	C	0.982514	0.801958	0.283491
C43	C	0.649184	0.301976	-0.333723
C44	C	1.149184	0.801976	0.166277
C45	C	0.649189	0.301973	-0.383657
C46	C	1.149189	0.801973	0.116343
C47	C	0.172866	0.342112	-0.245234
C48	C	0.672866	0.842112	0.254766
C49	C	-0.014807	0.342130	-0.245254
C50	C	0.485193	0.842130	0.254746
O51	O	-0.039076	0.376241	-0.269658
O52	O	0.460924	0.876241	0.230342
N53	N	-0.038271	0.302004	-0.216578
N54	N	0.461729	0.802004	0.283422
C55	C	-0.014813	0.261868	-0.187897
C56	C	0.485187	0.761868	0.312103
O57	O	-0.039076	0.227734	-0.163510
O58	O	0.460924	0.727734	0.336490
C59	C	0.172859	0.261848	-0.187880
C60	C	0.672859	0.761848	0.312120
C61	C	0.196320	0.301981	-0.216555
C62	C	0.696320	0.801981	0.283445
C63	C	0.196327	0.382242	-0.273907
C64	C	0.696327	0.882242	0.226093
C65	C	0.243242	0.382239	-0.273900
C66	C	0.743242	0.882239	0.226100
C67	C	0.266697	0.342108	-0.245220
C68	C	0.766697	0.842108	0.254780
C69	C	0.243236	0.301978	-0.216548
C70	C	0.743236	0.801978	0.283452
C71	C	0.196316	0.221709	-0.159202
C72	C	0.696316	0.721709	0.340798
C73	C	0.243237	0.221706	-0.159201
C74	C	0.743237	0.721706	0.340799
C75	C	0.266698	0.261839	-0.187875
C76	C	0.766698	0.761839	0.312125
C77	C	0.313606	0.261844	-0.187861
C78	C	0.813606	0.761844	0.312139
N79	N	0.337069	0.301970	-0.216537
N80	N	0.837069	0.801970	0.283463
C81	C	0.313615	0.342102	-0.245217
C82	C	0.813615	0.842102	0.254783
C83	C	-0.113344	0.261882	-0.187908
C84	C	0.386656	0.761882	0.312092
C85	C	-0.160261	0.261888	-0.187912
C86	C	0.339739	0.761888	0.312088
C87	C	-0.160252	0.342150	-0.245269
C88	C	0.339748	0.842150	0.254731
C89	C	-0.113334	0.342147	-0.245263
C90	C	0.386666	0.842147	0.254737
C91	C	-0.089880	0.302008	-0.216584
C92	C	0.410120	0.802008	0.283416
C93	C	0.412141	0.342094	-0.245199
C94	C	0.912141	0.842094	0.254801
C95	C	0.459060	0.342090	-0.245188
C96	C	0.959060	0.842090	0.254812
C97	C	0.459047	0.261827	-0.187833
C98	C	0.959047	0.761827	0.312167
C99	C	0.412131	0.261833	-0.187842
C100	C	0.912131	0.761833	0.312158
C101	C	0.388679	0.301969	-0.216529
C102	C	0.888679	0.801969	0.283471
O103	O	0.337904	0.227746	-0.163473
O104	O	0.837904	0.727746	0.336527
O105	O	0.337886	0.376221	-0.269607
O106	O	0.837886	0.876221	0.230393
C107	C	0.125950	0.342115	-0.245241
C108	C	0.625950	0.842115	0.254759
C109	C	0.102489	0.301986	-0.216569
C110	C	0.602489	0.801986	0.283431
C111	C	0.125944	0.261854	-0.187889
C112	C	0.625944	0.761854	0.312111
C113	C	0.055572	0.301991	-0.216572
C114	C	0.555572	0.801991	0.283428
C115	C	0.032117	0.342123	-0.245252
C116	C	0.532117	0.842123	0.254748
C117	C	0.055581	0.382249	-0.273928
C118	C	0.555581	0.882249	0.226072
C119	C	0.102496	0.382247	-0.273921
C120	C	0.602496	0.882247	0.226079
C121	C	0.102480	0.221728	-0.159213
C122	C	0.602480	0.721728	0.340787
C123	C	0.055565	0.221734	-0.159222
C124	C	0.555565	0.721734	0.340778
C125	C	0.032110	0.261866	-0.187902
C126	C	0.532110	0.761866	0.312098
C127	C	0.766350	0.302008	-0.216577
C128	C	1.266350	0.802008	0.283423
C129	C	0.816284	0.302020	-0.216591
C130	C	1.316284	0.802020	0.283409
C131	C	0.649243	0.138558	-0.216579
C132	C	1.149243	0.638558	0.283421
C133	C	0.649274	0.068917	-0.216594
C134	C	1.149274	0.568917	0.283406
C135	C	0.677884	0.567110	-0.187828
C136	C	1.177884	1.067110	0.312172
C137	C	0.677905	0.632546	-0.187838
C138	C	1.177905	1.132546	0.312162
C139	C	0.649162	0.665278	-0.216539
C140	C	1.149162	1.165278	0.283461
C141	C	0.620404	0.632570	-0.245241
C142	C	1.120404	1.132570	0.254759
C143	C	0.620387	0.567136	-0.245233
C144	C	1.120387	1.067136	0.254767
C145	C	0.608710	0.768989	-0.220053
C146	C	1.108710	1.268989	0.279947
C147	C	0.608726	0.834422	-0.220057
C148	C	1.108726	1.334422	0.279943
C149	C	0.649214	0.867099	-0.216566
C150	C	1.149214	1.367099	0.283434
C151	C	0.689687	0.834336	-0.213060
C152	C	1.189687	1.334336	0.286940
C153	C	0.689670	0.768901	-0.213052
C154	C	1.189670	1.268901	0.286948
C155	C	0.649177	0.736231	-0.216551
C156	C	1.149177	1.236231	0.283449
C157	C	0.677995	0.970752	-0.187879
C158	C	1.177995	1.470752	0.312121
C159	C	0.678017	1.036189	-0.187892
C160	C	1.178017	1.536189	0.312108
C161	C	0.620512	1.036212	-0.245293
C162	C	1.120512	1.536212	0.254707
C163	C	0.620494	0.970776	-0.245282
C164	C	1.120494	1.470776	0.254718
C165	C	0.649235	0.938050	-0.216573
C166	C	1.149235	1.438050	0.283427
C167	C	0.677970	0.261802	-0.693320
C168	C	1.177970	0.761802	-0.193320
C169	C	0.677992	0.261748	-0.880994
C170	C	1.177992	0.761748	-0.380994
O171	O	0.702430	0.227652	-0.905275
O172	O	1.202430	0.727652	-0.405275
N173	N	0.649248	0.301805	-0.904443
N174	N	1.149248	0.801805	-0.404443
C175	C	0.620495	0.341876	-0.880970
C176	C	1.120495	0.841876	-0.380970
O177	O	0.596043	0.375941	-0.905222
O178	O	1.096043	0.875941	-0.405222
C179	C	0.620470	0.341926	-0.693298
C180	C	1.120470	0.841926	-0.193298
C181	C	0.649220	0.301870	-0.669852
C182	C	1.149220	0.801870	-0.169852
C183	C	0.706717	0.221749	-0.669874
C184	C	1.206717	0.721749	-0.169874
C185	C	0.706713	0.221765	-0.622958
C186	C	1.206713	0.721765	-0.122958
C187	C	0.677962	0.261834	-0.599489
C188	C	1.177962	0.761834	-0.099489
C189	C	0.649215	0.301887	-0.622936
C190	C	1.149215	0.801887	-0.122936
C191	C	0.591715	0.381993	-0.669827
C192	C	1.091715	0.881993	-0.169827
C193	C	0.591710	0.382001	-0.622906
C194	C	1.091710	0.882001	-0.122906
C195	C	0.620459	0.341945	-0.599459
C196	C	1.120459	0.841945	-0.099459
C197	C	0.620461	0.341972	-0.552552
C198	C	1.120461	0.841972	-0.052552
N199	N	0.649205	0.301914	-0.529103
N200	N	1.149205	0.801914	-0.029103
C201	C	0.677955	0.261845	-0.552572
C202	C	1.177955	0.761845	-0.052572
C203	C	0.620510	0.341848	-0.979501
C204	C	1.120510	0.841848	-0.479501
C205	C	0.620516	0.341836	-1.026419
C206	C	1.120516	0.841836	-0.526419
C207	C	0.678014	0.261707	-1.026439
C208	C	1.178014	0.761707	-0.526439
C209	C	0.678009	0.261723	-0.979520
C210	C	1.178009	0.761723	-0.479520
C211	C	0.649254	0.301791	-0.956052
C212	C	1.149254	0.801791	-0.456052
C213	C	0.677945	0.261883	-0.454046
C214	C	1.177945	0.761883	0.045954
C215	C	0.677939	0.261904	-0.407126
C216	C	1.177939	0.761904	0.092874
C217	C	0.620441	0.342031	-0.407110
C218	C	1.120441	0.842031	0.092890
C219	C	0.620447	0.342012	-0.454026
C220	C	1.120447	0.842012	0.045974
C221	C	0.649201	0.301933	-0.477492
C222	C	1.149201	0.801933	0.022508
O223	O	0.596032	0.376045	-0.528241
O224	O	1.096032	0.876045	-0.028241
O225	O	0.702396	0.227775	-0.528312
O226	O	1.202396	0.727775	-0.028312
C227	C	0.677974	0.261785	-0.740236
C228	C	1.177974	0.761785	-0.240236
C229	C	0.649228	0.301838	-0.763683
C230	C	1.149228	0.801838	-0.263683
C231	C	0.620477	0.341907	-0.740214
C232	C	1.120477	0.841907	-0.240214
C233	C	0.649234	0.301826	-0.810600
C234	C	1.149234	0.801826	-0.310600
C235	C	0.677985	0.261758	-0.834069
C236	C	1.177985	0.761758	-0.334069
C237	C	0.706729	0.221700	-0.810620
C238	C	1.206729	0.721700	-0.310620
C239	C	0.706725	0.221717	-0.763705
C240	C	1.206725	0.721717	-0.263705
C241	C	0.591733	0.381964	-0.763663
C242	C	1.091733	0.881964	-0.263663
C243	C	0.591740	0.381945	-0.810578
C244	C	1.091740	0.881945	-0.310578
C245	C	0.620491	0.341876	-0.834047
C246	C	1.120491	0.841876	-0.334047
C247	C	0.649185	0.301942	-0.099822
C248	C	1.149185	0.801942	0.400178
C249	C	0.649267	0.301768	-0.049888
C250	C	1.149267	0.801768	0.450112
H251	H	0.478160	0.374773	-0.268539
H252	H	0.978160	0.874773	0.231461
C253	C	-0.087551	0.217728	-0.156354
C254	C	0.412449	0.717728	0.343646
N255	N	-0.068125	0.184474	-0.132585
N256	N	0.431875	0.684474	0.367415
H257	H	0.701357	0.229245	-0.473147
H258	H	1.201357	0.729245	0.026853
H259	H	0.730135	0.189099	-0.744619
H260	H	1.230135	0.689099	-0.244619
H261	H	0.568330	0.414569	-0.829665
H262	H	1.068330	0.914569	-0.329665
H263	H	0.568304	0.414610	-0.688909
H264	H	1.068304	0.914610	-0.188909
H265	H	0.730122	0.189147	-0.603872
H266	H	1.230122	0.689147	-0.103872
H267	H	0.568321	0.414595	-0.744559
H268	H	1.068321	0.914595	-0.244559
C269	C	-0.186063	0.217743	-0.156365
C270	C	0.313937	0.717743	0.343635
N271	N	-0.205496	0.184487	-0.132605
N272	N	0.294504	0.684487	0.367395
C273	C	0.170519	0.177552	-0.127662
C274	C	0.670519	0.677552	0.372338
N275	N	0.151090	0.144287	-0.103906
N276	N	0.651090	0.644287	0.396094
H277	H	0.597034	0.374656	-0.387994
H278	H	1.097034	0.874656	0.112006
H279	H	0.262330	0.189016	-0.135849
H280	H	0.762330	0.689016	0.364151
H281	H	0.393051	0.374775	-0.268560
H282	H	0.893051	0.874775	0.231440
C283	C	0.484856	0.217677	-0.156292
C284	C	0.984856	0.717677	0.343708
N285	N	0.504296	0.184417	-0.132539
N286	N	1.004296	0.684417	0.367461
H287	H	0.596970	0.540511	-0.268602
H288	H	1.096970	1.040511	0.231398
H289	H	0.121594	0.414927	-0.297271
H290	H	0.621594	0.914927	0.202729
H291	H	0.730129	0.189117	-0.688977
H292	H	1.230129	0.689117	-0.188977
H293	H	0.597094	0.374480	-0.960398
H294	H	1.097094	0.874480	-0.460398
H295	H	0.701399	0.944106	-0.164503
H296	H	1.201399	1.444106	0.335497
H297	H	0.730140	0.189077	-0.829737
H298	H	1.230140	0.689077	-0.329737
C299	C	0.386324	0.217690	-0.156295
C300	C	0.886324	0.717690	0.343705
N301	N	0.366888	0.184436	-0.132536
N302	N	0.866888	0.684436	0.367464
H303	H	-0.094235	0.374826	-0.268613
H304	H	0.405765	0.874826	0.231387
H305	H	0.701288	0.540467	-0.164452
H306	H	1.201288	1.040467	0.335548
H307	H	0.262340	0.414919	-0.297251
H308	H	0.762340	0.914919	0.202749
C309	C	0.709652	1.072159	-0.156322
C310	C	1.209652	1.572159	0.343678
N311	N	0.733479	1.099252	-0.132542
N312	N	1.233479	1.599252	0.367458
C313	C	0.560077	0.426081	-0.597094
C314	C	1.060077	0.926081	-0.097094
N315	N	0.536253	0.459285	-0.577653
N316	N	1.036253	0.959285	-0.077653
C317	C	0.170535	0.426401	-0.305455
C318	C	0.670535	0.926401	0.194545
N319	N	0.151111	0.459669	-0.329215
N320	N	0.651111	0.959669	0.170785
H321	H	0.575738	0.742389	-0.222898
H322	H	1.075738	1.242389	0.277102
H323	H	0.701419	0.229105	-0.960433
H324	H	1.201419	0.729105	-0.460433
H325	H	-0.179357	0.374826	-0.268621
H326	H	0.320643	0.874826	0.231379
C327	C	0.734189	0.732864	-0.209196
C328	C	1.234189	1.232864	0.290804
N329	N	0.767721	0.705721	-0.206291
N330	N	1.267721	1.205721	0.293709
H331	H	0.701323	0.659176	-0.164470
H332	H	1.201323	1.159176	0.335530
H333	H	0.701352	0.229286	-0.388038
H334	H	1.201352	0.729286	0.111962
C335	C	0.029772	0.426393	-0.305476
C336	C	0.529772	0.926393	0.194524
N337	N	0.010330	0.459637	-0.329239
N338	N	0.510330	0.959637	0.170761
C339	C	0.588784	0.668577	-0.276811
C340	C	1.088784	1.168577	0.223189
N341	N	0.564968	0.695698	-0.300591
N342	N	1.064968	1.195698	0.199409
H343	H	0.597111	0.374460	-1.045505
H344	H	1.097111	0.874460	-0.545505
H345	H	0.036467	0.189054	-0.135868
H346	H	0.536467	0.689054	0.364132
C347	C	0.588825	0.386078	-0.479818
C348	C	1.088825	0.886078	0.020182
N349	N	0.565003	0.419266	-0.499241
N350	N	1.065003	0.919266	0.000759
C351	C	0.588894	1.072214	-0.276866
C352	C	1.088894	1.572214	0.223134
N353	N	0.565080	1.099334	-0.300648
N354	N	1.065080	1.599334	0.199352
C355	C	0.734227	0.870276	-0.209222
C356	C	1.234227	1.370276	0.290778
N357	N	0.767774	0.897349	-0.206332
N358	N	1.267774	1.397349	0.293668
H359	H	0.121572	0.189047	-0.135858
H360	H	0.621572	0.689047	0.364142
H361	H	0.701424	0.229082	-1.045555
H362	H	1.201424	0.729082	-0.545555
C363	C	0.564206	0.870455	-0.223913
C364	C	1.064206	1.370455	0.276087
N365	N	0.530672	0.897594	-0.226817
N366	N	1.030672	1.397594	0.273183
C367	C	0.588869	0.934804	-0.276860
C368	C	1.088869	1.434804	0.223140
N369	N	0.565052	0.907711	-0.300650
N370	N	1.065052	1.407711	0.199350
