data_functionalizedCrystal
_audit_creation_method	'MofGen! by Chris Wilmer'
_symmetry_space_group_name_H-M	'P1'
_symmetry_Int_Tables_number	1
_symmetry_cell_setting	triclinic
loop_
_symmetry_equiv_pos_as_xyz
  x,y,z
_cell_length_a	18.050591
_cell_length_b	18.050590
_cell_length_c	18.050582
_cell_angle_alpha	90.013008
_cell_angle_beta	89.976005
_cell_angle_gamma	89.998875
loop_
_atom_site_label
_atom_site_type_symbol
_atom_site_fract_x
_atom_site_fract_y
_atom_site_fract_z
Zn1	Zn	-1.135397	-0.295844	0.420142
Zn2	Zn	-1.135351	-0.420027	0.295972
Zn3	Zn	-1.011216	-0.295840	0.295946
Zn4	Zn	-1.011208	-0.419981	0.420101
O5	O	-1.073293	-0.357923	0.358040
O6	O	-1.239315	-0.312337	0.403698
O7	O	-1.118869	-0.403571	0.192044
O8	O	-1.027711	-0.191916	0.312427
O9	O	-1.239282	-0.403574	0.312472
O10	O	-1.118946	-0.191919	0.403673
O11	O	-1.027667	-0.312332	0.192025
O12	O	-0.907290	-0.312287	0.312388
O13	O	-1.027697	-0.403496	0.524031
O14	O	-0.907284	-0.403493	0.403604
O15	O	-1.118938	-0.312293	0.524061
O16	O	-1.118861	-0.523945	0.312432
O17	O	-1.027653	-0.523912	0.403629
C18	C	-0.880341	-0.357885	0.357989
C19	C	-0.797795	-0.357887	0.357985
C20	C	-0.598326	-0.308222	0.308485
C21	C	-0.548930	-0.375955	0.290217
C22	C	-0.646665	-0.357902	0.358010
C23	C	-0.548979	-0.290185	0.376268
C24	C	-0.500679	-0.357911	0.358033
C25	C	-0.598356	-0.425671	0.339707
C26	C	-0.598409	-0.339855	0.425789
C27	C	-0.549035	-0.407635	0.407548
C28	C	-0.730763	-0.357896	0.357995
C29	C	-0.416583	-0.357924	0.358049
C30	C	-1.073271	-0.550875	0.358046
C31	C	-1.073330	-0.633421	0.358073
C32	C	-1.073322	-0.357890	0.551746
C33	C	-1.073334	-0.357876	0.634292
C34	C	-0.266998	-0.357948	0.358079
C35	C	-0.349544	-0.357926	0.358061
C36	C	-1.073335	-0.164217	0.358051
C37	C	-1.073353	-0.081672	0.358056
C38	C	-1.122964	0.117778	0.407691
C39	C	-1.141118	0.167156	0.339944
C40	C	-1.073345	0.069459	0.358060
C41	C	-1.055218	0.167162	0.425810
C42	C	-1.073340	0.215444	0.358070
C43	C	-1.091535	0.117750	0.290277
C44	C	-1.005604	0.117752	0.376188
C45	C	-1.023732	0.167108	0.308394
C46	C	-1.073351	-0.014640	0.358055
C47	C	-1.073334	0.299540	0.358067
C48	C	-1.073307	-0.357902	0.165088
C49	C	-1.073438	-0.357707	0.082543
C50	C	-1.023755	-0.407405	0.833726
C51	C	-1.091517	-0.425566	0.883132
C52	C	-1.073371	-0.357819	0.785422
C53	C	-1.005647	-0.339637	0.883099
C54	C	-1.073400	-0.357766	0.931408
C55	C	-1.141168	-0.376017	0.833740
C56	C	-1.055252	-0.290056	0.833703
C57	C	-1.123060	-0.308192	0.883086
C58	C	-1.073353	-0.357852	0.701324
C59	C	-1.073426	-0.357733	1.015504
H60	H	-0.527529	-0.449700	0.449439
F61	F	-1.035181	0.195534	0.500692
H62	H	-0.981836	-0.449392	0.812054
H63	H	-1.164959	0.096118	0.449606
F64	F	-1.111572	-0.500439	0.911511
F65	F	-0.520625	-0.215329	0.396438
F66	F	-1.111650	0.089502	0.215369
H67	H	-0.948361	-0.324281	0.904781
F68	F	-1.216066	-0.396180	0.805522
F69	F	-1.177981	-0.253353	0.911239
F70	F	-1.035172	-0.215203	0.805302
F71	F	-0.626617	-0.253371	0.253690
F72	F	-0.520523	-0.395919	0.215311
H73	H	-0.981769	0.188631	0.266378
H74	H	-0.619955	-0.482959	0.324211
H75	H	-0.620159	-0.324561	0.483082
F76	F	-1.215993	0.195522	0.319900
H77	H	-0.948334	0.096036	0.391542
