data_functionalizedCrystal
_audit_creation_method	'MofGen! by Chris Wilmer'
_symmetry_space_group_name_H-M	'P1'
_symmetry_Int_Tables_number	1
_symmetry_cell_setting	triclinic
loop_
_symmetry_equiv_pos_as_xyz
  x,y,z
_cell_length_a	15.995343
_cell_length_b	10.654541
_cell_length_c	9.730217
_cell_angle_alpha	90.003041
_cell_angle_beta	90.002911
_cell_angle_gamma	96.013444
loop_
_atom_site_label
_atom_site_type_symbol
_atom_site_fract_x
_atom_site_fract_y
_atom_site_fract_z
O1	O	1.111925	-0.161824	-0.114151
O2	O	0.868265	-0.181824	-0.114184
O3	O	0.995698	0.010989	-0.114159
O4	O	0.984491	-0.354637	-0.114177
O5	O	0.995694	0.010991	0.114421
O6	O	0.868261	-0.181822	0.114396
O7	O	1.111921	-0.161823	0.114429
Zn8	Zn	0.990090	-0.171822	0.150704
Zn9	Zn	0.990095	-0.171824	-0.150460
O10	O	0.984488	-0.354635	0.114403
C11	C	0.837063	-0.180998	0.000102
C12	C	0.744098	-0.178524	0.000089
C13	C	0.573885	-0.174034	0.000108
C14	C	0.549732	-0.034853	0.000114
C15	C	0.453039	-0.032235	0.000641
C16	C	0.406300	-0.169612	0.000125
C17	C	0.435795	-0.239594	0.130392
C18	C	0.532597	-0.241244	0.130493
C19	C	0.532524	-0.243284	-0.129454
C20	C	0.435999	-0.238146	-0.131158
C21	C	0.311587	-0.167120	0.000139
C22	C	0.668598	-0.176531	0.000103
C23	C	0.994874	0.057777	0.000130
C24	C	0.992413	0.197188	0.000128
C25	C	1.143122	-0.162649	0.000140
C26	C	1.236088	-0.165122	0.000143
C27	C	0.985312	-0.401424	0.000111
C28	C	0.987772	-0.540835	0.000105
N29	N	0.990093	-0.171820	0.356241
C30	C	1.144794	0.227156	0.000166
C31	C	1.219825	0.307634	0.000187
C32	C	1.217508	0.438621	0.000183
C33	C	1.140152	0.489133	0.000152
C34	C	1.065121	0.408655	0.000131
C35	C	1.067446	0.277666	0.000140
C36	C	0.912741	0.378688	0.000083
C37	C	0.915057	0.247700	0.000097
C38	C	0.835385	0.429199	0.000053
C39	C	0.760352	0.348721	0.000041
C40	C	0.762672	0.217726	0.000047
C41	C	0.840025	0.167222	0.000076
N42	N	0.990099	-0.171817	-0.355996
C43	C	1.102981	-0.001133	0.356254
C44	C	1.159431	0.084206	0.428201
C45	C	1.159440	0.084207	0.572080
C46	C	1.102991	-0.001138	0.644017
C47	C	1.046541	-0.086478	0.572070
C48	C	1.046540	-0.086472	0.428187
C49	C	0.933649	-0.257156	0.572057
C50	C	0.933643	-0.257165	0.428177
C51	C	0.877200	-0.342502	0.643994
C52	C	0.820753	-0.427850	0.572047
C53	C	0.820747	-0.427848	0.428159
C54	C	0.877194	-0.342505	0.356231
H55	H	0.433704	0.022547	-0.092720
Br56	Br	0.595892	0.055072	-0.155563
H57	H	0.877197	-0.342500	0.239076
Br58	Br	1.319336	0.547847	0.000194
H59	H	0.560541	-0.199373	-0.228224
Br60	Br	0.744144	-0.543653	0.669677
H61	H	1.205390	0.153697	0.369617
H62	H	0.415423	-0.191576	0.227710
Br63	Br	0.421770	0.058619	0.157221
Br64	Br	0.597523	0.053608	0.155589
H65	H	0.559103	-0.193344	0.228245
H66	H	0.833504	0.535857	0.000040
H67	H	1.102987	-0.001136	0.239100
H68	H	0.417148	-0.187183	-0.227532
H69	H	0.697374	0.389859	0.000007
Br70	Br	0.660838	0.108516	0.000002
H71	H	0.841922	0.060567	0.000089
Br72	Br	0.383699	-0.408113	0.137856
Br73	Br	0.382047	-0.405227	-0.144949
H74	H	0.877206	-0.342493	0.761148
Br75	Br	0.557880	-0.411355	0.139751
Br76	Br	0.556826	-0.414054	-0.131514
H77	H	0.774776	-0.497337	0.369587
H78	H	1.146689	0.120501	0.000188
Br79	Br	1.236044	0.200036	0.669726
H80	H	1.282808	0.266493	0.000224
H81	H	1.102994	-0.001122	0.761171
H82	H	1.138272	0.595791	0.000132
