data_functionalizedCrystal
_audit_creation_method	'MofGen! by Chris Wilmer'
_symmetry_space_group_name_H-M	'P1'
_symmetry_Int_Tables_number	1
_symmetry_cell_setting	triclinic
loop_
_symmetry_equiv_pos_as_xyz
  x,y,z
_cell_length_a	11.792241
_cell_length_b	12.837942
_cell_length_c	11.295483
_cell_angle_alpha	85.469583
_cell_angle_beta	94.129266
_cell_angle_gamma	89.511178
loop_
_atom_site_label
_atom_site_type_symbol
_atom_site_fract_x
_atom_site_fract_y
_atom_site_fract_z
O1	O	-1.528213	-0.135234	-0.098907
O2	O	-1.199360	-0.149884	-0.098935
O3	O	-1.356494	0.008384	-0.098914
O4	O	-1.371079	-0.293502	-0.098928
O5	O	-1.342690	-0.005495	0.099135
O6	O	-1.185556	-0.163764	0.099114
O7	O	-1.514409	-0.149114	0.099142
Cu8	Cu	-1.348722	-0.157706	0.117212
Cu9	Cu	-1.365047	-0.141292	-0.117004
O10	O	-1.357275	-0.307382	0.099121
C11	C	-1.150074	-0.155903	0.000086
C12	C	-1.023782	-0.153148	0.000076
C13	C	-1.344666	0.040093	0.000109
C14	C	-1.329972	0.155253	0.000106
C15	C	-1.563695	-0.143094	0.000118
C16	C	-1.689988	-0.145849	0.000121
C17	C	-0.792553	-0.148085	0.000110
C18	C	-0.921225	-0.150898	0.000091
C19	C	-1.369104	-0.339090	0.000095
C20	C	-1.383798	-0.454250	0.000091
N21	N	-1.337249	-0.169250	0.281946
C22	C	-1.506618	0.395219	0.000096
C23	C	-1.492818	0.503423	0.000093
C24	C	-1.288572	0.479866	0.000088
C25	C	-1.302372	0.371663	0.000091
C26	C	-1.411399	0.329343	0.000097
C27	C	-1.425198	0.221137	0.000109
C28	C	-1.220954	0.197583	0.000095
C29	C	-1.207153	0.305787	0.000092
N30	N	-1.376529	-0.129739	-0.281739
C31	C	-1.459116	-0.046580	0.531252
C32	C	-1.450454	-0.055311	0.655914
C33	C	-1.311258	-0.195439	0.655936
C34	C	-1.319920	-0.186707	0.531274
C35	C	-1.393852	-0.112277	0.468936
C36	C	-1.402519	-0.103551	0.344271
C37	C	-1.263318	-0.243673	0.344295
C38	C	-1.254656	-0.252404	0.468958
H39	H	-1.595391	0.360761	0.000112
O40	O	-1.182749	0.521154	0.000132
C41	C	-1.190997	0.630786	0.000092
H42	H	-1.274267	0.653056	0.037587
H43	H	-1.116531	0.660370	0.057585
H44	H	-1.188861	0.667582	-0.094926
H45	H	-1.503596	-0.001813	0.706649
O46	O	-1.239503	-0.267860	0.716364
C47	C	-1.271188	-0.368529	0.685936
H48	H	-1.321250	-0.362343	0.595422
H49	H	-1.191635	-0.418781	0.681678
H50	H	-1.326297	-0.405868	0.756100
H51	H	-1.570356	0.557056	0.000088
O52	O	-1.101243	0.346868	-0.000124
C53	C	-1.049618	0.320420	-0.102677
H54	H	-1.118154	0.302582	-0.174368
H55	H	-0.996618	0.388647	-0.137111
H56	H	-0.992336	0.248646	-0.079482
O57	O	-1.531139	0.180088	-0.000103
C58	C	-1.597037	0.220897	-0.102663
H59	H	-1.538478	0.248770	-0.174351
H60	H	-1.654831	0.157492	-0.137095
H61	H	-1.651088	0.289425	-0.079478
H62	H	-1.194459	-0.313002	0.519728
O63	O	-1.200039	-0.307646	0.283818
C64	C	-1.227474	-0.412570	0.314311
H65	H	-1.316073	-0.416024	0.348567
H66	H	-1.225741	-0.458813	0.232335
H67	H	-1.162795	-0.447717	0.386684
O68	O	-1.128575	0.133445	0.000039
C69	C	-1.164127	0.028863	0.000077
H70	H	-1.256388	0.026830	-0.037413
H71	H	-1.108157	-0.015757	-0.057421
H72	H	-1.156583	-0.009051	0.095094
O73	O	-1.474196	-0.031092	0.283793
C74	C	-1.442492	0.069545	0.314322
H75	H	-1.349124	0.068174	0.348587
H76	H	-1.455621	0.127292	0.232363
H77	H	-1.497092	0.094546	0.386700
O78	O	-1.530953	0.025800	0.470874
C79	C	-1.586729	0.081892	0.552610
H80	H	-1.533867	0.077130	0.641482
H81	H	-1.597606	0.167145	0.516587
H82	H	-1.673813	0.046762	0.565853
