data_functionalizedCrystal
_audit_creation_method	'MofGen! by Chris Wilmer'
_symmetry_space_group_name_H-M	'P1'
_symmetry_Int_Tables_number	1
_symmetry_cell_setting	triclinic
loop_
_symmetry_equiv_pos_as_xyz
  x,y,z
_cell_length_a	18.215407
_cell_length_b	19.120786
_cell_length_c	18.215399
_cell_angle_alpha	87.529807
_cell_angle_beta	89.982632
_cell_angle_gamma	92.462665
loop_
_atom_site_label
_atom_site_type_symbol
_atom_site_fract_x
_atom_site_fract_y
_atom_site_fract_z
Zn1	Zn	1.112567	-0.279685	-0.403553
Zn2	Zn	1.445901	0.053648	-0.070220
Zn3	Zn	1.779234	0.386982	0.263114
Zn4	Zn	1.107224	-0.397146	-0.275231
Zn5	Zn	1.440558	-0.063813	0.058102
Zn6	Zn	1.773891	0.269520	0.391436
Zn7	Zn	0.989499	-0.279702	-0.280505
Zn8	Zn	1.322833	0.053632	0.052828
Zn9	Zn	1.656166	0.386965	0.386162
Zn10	Zn	0.984216	-0.397101	-0.398263
Zn11	Zn	1.317550	-0.063768	-0.064930
Zn12	Zn	1.650883	0.269566	0.268403
O13	O	1.048377	-0.338409	-0.339388
O14	O	1.381710	-0.005075	-0.006055
O15	O	1.715043	0.328258	0.327279
O16	O	1.214842	-0.295278	-0.386538
O17	O	1.548176	0.038055	-0.053204
O18	O	1.881509	0.371388	0.280129
O19	O	1.091582	-0.381593	-0.172945
O20	O	1.424916	-0.048260	0.160388
O21	O	1.758249	0.285074	0.493721
O22	O	1.010272	-0.181409	-0.301249
O23	O	1.343605	0.151924	0.032085
O24	O	1.676938	0.485257	0.365418
O25	O	1.210917	-0.381577	-0.292260
O26	O	1.544250	-0.048243	0.041073
O27	O	1.877583	0.285090	0.374407
O28	O	1.100689	-0.181397	-0.391651
O29	O	1.434023	0.151936	-0.058318
O30	O	1.767356	0.485270	0.275015
O31	O	1.005090	-0.295307	-0.176820
O32	O	1.338424	0.038026	0.156513
O33	O	1.671757	0.371360	0.489847
O34	O	0.885815	-0.295263	-0.296119
O35	O	1.219148	0.038070	0.037214
O36	O	1.552481	0.371404	0.370547
O37	O	1.001268	-0.381500	-0.501951
O38	O	1.334601	-0.048166	-0.168617
O39	O	1.667934	0.285167	0.164716
O40	O	0.881933	-0.381516	-0.382636
O41	O	1.215267	-0.048183	-0.049302
O42	O	1.548600	0.285151	0.284031
O43	O	1.095567	-0.295234	-0.505837
O44	O	1.428900	0.038099	-0.172504
O45	O	1.762233	0.371432	0.160830
O46	O	1.086460	-0.495431	-0.287131
O47	O	1.419793	-0.162097	0.046203
O48	O	1.753126	0.171236	0.379536
O49	O	0.996086	-0.495397	-0.377522
O50	O	1.329420	-0.162064	-0.044189
O51	O	1.662753	0.171269	0.289145
C52	C	0.857171	-0.338387	-0.339376
C53	C	1.190505	-0.005054	-0.006043
C54	C	1.523838	0.328280	0.327290
C55	C	0.775372	-0.338395	-0.339388
C56	C	1.108706	-0.005061	-0.006054
C57	C	1.442039	0.328272	0.327279
C58	C	0.589217	-0.293551	-0.388548
C59	C	0.922551	0.039782	-0.055215
C60	C	1.255884	0.373115	0.278118
C61	C	0.512358	-0.293557	-0.388551
C62	C	0.845692	0.039776	-0.055217
C63	C	1.179025	0.373109	0.278116
C64	C	0.508287	-0.383285	-0.290240
C65	C	0.841621	-0.049952	0.043093
C66	C	1.174954	0.283381	0.376427
C67	C	0.585145	-0.383275	-0.290235
C68	C	0.918479	-0.049942	0.043099
C69	C	1.251812	0.283391	0.376432
C70	C	0.625608	-0.338409	-0.339393
C71	C	0.958941	-0.005076	-0.006060
C72	C	1.292275	0.328257	0.327274
C73	C	0.471891	-0.338425	-0.339401
C74	C	0.805225	-0.005092	-0.006067
C75	C	1.138558	0.328241	0.327266
C76	C	0.388557	-0.338432	-0.339403
C77	C	0.721891	-0.005099	-0.006069
C78	C	1.055224	0.328234	0.327264
C79	C	0.708947	-0.338401	-0.339390
C80	C	1.042281	-0.005068	-0.006057
C81	C	1.375614	0.328265	0.327276
C82	C	1.040140	-0.520899	-0.331196
C83	C	1.373473	-0.187566	0.002137
C84	C	1.706807	0.145767	0.335471
C85	C	1.036684	-0.598970	-0.327716
C86	C	1.370017	-0.265636	0.005617
C87	C	1.703350	0.067697	0.338951
C88	C	1.082100	-0.635581	-0.373187
C89	C	1.415434	-0.302247	-0.039854
C90	C	1.748767	0.031086	0.293479
C91	C	1.078850	-0.708936	-0.369919
C92	C	1.412183	-0.375603	-0.036585
C93	C	1.745516	-0.042269	0.296748
C94	C	1.030186	-0.745679	-0.321175
C95	C	1.363519	-0.412346	0.012159
C96	C	1.696852	-0.079013	0.345492
C97	C	0.984764	-0.709063	-0.275701
C98	C	1.318097	-0.375730	0.057632
C99	C	1.651431	-0.042397	0.390965
C100	C	0.988011	-0.635709	-0.278974
C101	C	1.321345	-0.302376	0.054359
C102	C	1.654678	0.030957	0.387692
C103	C	1.018024	-0.967165	-0.308940
C104	C	1.351357	-0.633831	0.024394
C105	C	1.684690	-0.300498	0.357727
C106	C	1.014781	-1.040524	-0.305669
C107	C	1.348115	-0.707190	0.027665
C108	C	1.681448	-0.373857	0.360998
C109	C	1.108867	-1.040391	-0.399887
C110	C	1.442200	-0.707058	-0.066554
C111	C	1.775533	-0.373725	0.266779
C112	C	1.112113	-0.967036	-0.403153
C113	C	1.445446	-0.633703	-0.069819
C114	C	1.778779	-0.300369	0.263514
C115	C	1.066688	-0.930426	-0.357682
C116	C	1.400022	-0.597093	-0.024349
C117	C	1.733355	-0.263760	0.308984
C118	C	1.026863	-0.820660	-0.317831
C119	C	1.360197	-0.487327	0.015503
C120	C	1.693530	-0.153994	0.348836
C121	C	1.070007	-0.855447	-0.361030
C122	C	1.403341	-0.522113	-0.027697
C123	C	1.736674	-0.188780	0.305636
C124	C	1.240329	-0.338431	-0.339401
C125	C	1.573662	-0.005097	-0.006067
C126	C	1.906995	0.328236	0.327266
C127	C	1.322127	-0.338440	-0.339406
C128	C	1.655460	-0.005107	-0.006072
C129	C	1.988794	0.328227	0.327261
C130	C	1.048424	-0.338360	-0.531343
C131	C	1.381757	-0.005027	-0.198010
C132	C	1.715090	0.328307	0.135323
C133	C	1.048444	-0.338339	-0.613143
C134	C	1.381777	-0.005006	-0.279810
C135	C	1.715110	0.328327	0.053523
C136	C	1.056666	-0.155205	-0.347628
C137	C	1.389999	0.178128	-0.014295
C138	C	1.723332	0.511462	0.319038
C139	C	1.060198	-0.077135	-0.351140
C140	C	1.393531	0.256199	-0.017807
C141	C	1.726865	0.589532	0.315527
C142	C	1.097564	-0.293379	-0.803364
C143	C	1.430897	0.039954	-0.470031
C144	C	1.764231	0.373288	-0.136697
C145	C	1.097574	-0.293359	-0.880224
C146	C	1.430907	0.039975	-0.546890
C147	C	1.764240	0.373308	-0.213557
C148	C	0.999380	-0.383191	-0.876165
C149	C	1.332714	-0.049858	-0.542832
C150	C	1.666047	0.283476	-0.209499
C151	C	0.999368	-0.383208	-0.799307
C152	C	1.332701	-0.049874	-0.465974
C153	C	1.666034	0.283459	-0.132640
C154	C	1.048464	-0.338303	-0.762908
C155	C	1.381797	-0.004969	-0.429575
C156	C	1.715130	0.328364	-0.096242
C157	C	1.048486	-0.338266	-0.916626
C158	C	1.381819	-0.004932	-0.583293
C159	C	1.715153	0.328401	-0.249960
C160	C	1.048496	-0.338244	-0.999961
C161	C	1.381830	-0.004911	-0.666628
C162	C	1.715163	0.328423	-0.333294
C163	C	1.048453	-0.338323	-0.679568
C164	C	1.381786	-0.004990	-0.346235
C165	C	1.715119	0.328343	-0.012902
C166	C	1.048375	-0.338406	-0.148182
C167	C	1.381708	-0.005073	0.185151
C168	C	1.715041	0.328261	0.518485
C169	C	1.048506	-0.338229	-0.066391
C170	C	1.381839	-0.004896	0.266942
C171	C	1.715173	0.328438	0.600275
H172	H	1.121731	-0.605669	-0.412877
H173	H	1.455064	-0.272336	-0.079543
H174	H	1.788398	0.060998	0.253790
F175	F	1.149815	-0.245586	-0.764628
F176	F	1.483148	0.087748	-0.431295
F177	F	1.816481	0.421081	-0.097962
H178	H	0.622160	-0.257017	-0.428574
H179	H	0.955493	0.076317	-0.095241
H180	H	1.288827	0.409650	0.238093
F181	F	0.465218	-0.431034	-0.237927
F182	F	0.798551	-0.097700	0.095407
F183	F	1.131884	0.235633	0.428740
F184	F	0.947135	-0.430982	-0.914910
F185	F	1.280468	-0.097649	-0.581576
F186	F	1.613801	0.235685	-0.248243
F187	F	0.947102	-0.431021	-0.756249
F188	F	1.280435	-0.097687	-0.422916
F189	F	1.613769	0.235646	-0.089582
H190	H	0.482732	-0.257029	-0.428577
H191	H	0.816066	0.076305	-0.095243
H192	H	1.149399	0.409638	0.238090
H193	H	0.981039	-0.937363	-0.271914
H194	H	1.314372	-0.604030	0.061419
H195	H	1.647705	-0.270696	0.394752
H196	H	0.614775	-0.419804	-0.250203
H197	H	0.948109	-0.086471	0.083131
H198	H	1.281442	0.246862	0.416464
H199	H	0.945137	-0.738986	-0.236016
H200	H	1.278471	-0.405652	0.097317
H201	H	1.611804	-0.072319	0.430651
H202	H	1.115839	-0.738741	-0.406941
H203	H	1.449172	-0.405408	-0.073607
H204	H	1.782505	-0.072075	0.259726
F205	F	1.163907	-0.927936	-0.455033
F206	F	1.497240	-0.594603	-0.121700
F207	F	1.830574	-0.261270	0.211633
H208	H	1.109627	-0.825528	-0.400721
H209	H	1.442960	-0.492195	-0.067387
H210	H	1.776294	-0.158862	0.265946
H211	H	0.975150	-1.070438	-0.265975
H212	H	1.308483	-0.737105	0.067359
H213	H	1.641816	-0.403772	0.400692
F214	F	1.157205	-1.079359	-0.448278
F215	F	1.490538	-0.746026	-0.114945
F216	F	1.823872	-0.412692	0.218388
H217	H	0.951027	-0.605901	-0.241948
H218	H	1.284361	-0.272568	0.091386
H219	H	1.617694	0.060765	0.424719
F220	F	0.975069	-0.859772	-0.265958
F221	F	1.308403	-0.526438	0.067375
F222	F	1.641736	-0.193105	0.400708
H223	H	1.137555	-0.256776	-0.913159
H224	H	1.470888	0.076557	-0.579826
H225	H	1.804222	0.409890	-0.246493
