data_functionalizedCrystal
_audit_creation_method	'MofGen! by Chris Wilmer'
_symmetry_space_group_name_H-M	'P1'
_symmetry_Int_Tables_number	1
_symmetry_cell_setting	triclinic
loop_
_symmetry_equiv_pos_as_xyz
  x,y,z
_cell_length_a	30.700809
_cell_length_b	30.711276
_cell_length_c	30.700862
_cell_angle_alpha	59.998386
_cell_angle_beta	89.999414
_cell_angle_gamma	60.000191
loop_
_atom_site_label
_atom_site_type_symbol
_atom_site_fract_x
_atom_site_fract_y
_atom_site_fract_z
O1	O	-0.371254	-0.311651	0.012944
O2	O	-0.307913	-0.222487	-0.012907
O3	O	-0.307911	-0.311650	0.076286
O4	O	-0.371257	-0.222488	-0.076249
O5	O	-0.235466	-0.384070	0.076286
O6	O	-0.235468	-0.294907	-0.012907
O7	O	-0.298809	-0.384071	0.012944
Zn8	Zn	-0.255636	-0.350987	0.000018
Zn9	Zn	-0.351086	-0.255571	0.000019
O10	O	-0.298812	-0.294908	-0.076249
C11	C	-0.234796	-0.137097	-0.018777
C12	C	-0.261674	-0.083360	-0.015076
C13	C	-0.182374	-0.163176	-0.019143
C14	C	-0.234798	-0.215942	-0.018783
C15	C	-0.261678	-0.246507	-0.015089
C16	C	-0.182376	-0.241901	-0.019150
C17	C	-0.155920	-0.215947	-0.018777
C18	C	-0.098463	-0.246515	-0.015075
C19	C	-0.261132	-0.163172	-0.019150
C20	C	-0.574961	-0.535511	0.039265
C21	C	-0.548506	-0.588283	0.039634
C22	C	-0.496086	-0.535509	0.039262
C23	C	-0.469751	-0.588281	0.039632
C24	C	-0.496085	-0.614360	0.039265
C25	C	-0.548507	-0.509552	0.039632
C26	C	-0.765169	-0.393516	0.024987
C27	C	-0.819034	-0.364488	0.020950
C28	C	-0.846055	-0.389406	0.018925
C29	C	-0.904462	-0.357927	0.014538
C30	C	-0.819206	-0.443357	0.020941
C31	C	-0.765344	-0.472385	0.024984
C32	C	-0.738325	-0.447463	0.027007
C33	C	-0.447920	-0.790230	0.024988
C34	C	-0.423094	-0.840041	0.020951
C35	C	-0.371150	-0.865027	0.018921
C36	C	-0.344230	-0.919028	0.014536
C37	C	-0.344030	-0.840201	0.020935
C38	C	-0.368852	-0.790399	0.024981
C39	C	-0.420803	-0.765414	0.027004
C40	C	-0.447922	-0.393510	0.024977
C41	C	-0.423099	-0.364475	0.020931
C42	C	-0.371152	-0.389391	0.018903
C43	C	-0.344235	-0.357911	0.014513
C44	C	-0.344034	-0.443338	0.020916
C45	C	-0.368860	-0.472368	0.024960
C46	C	-0.420804	-0.447452	0.026995
C47	C	-0.679920	-0.478941	0.031387
C48	C	-0.633366	-0.504032	0.034880
C49	C	-0.469171	-0.504029	0.034875
C50	C	-0.447717	-0.478936	0.031380
C51	C	-0.469170	-0.668361	0.034880
C52	C	-0.447716	-0.711408	0.031386
C53	C	-0.496432	-0.071057	-0.503890
C54	C	-0.548853	-0.018285	-0.530226
C55	C	-0.496432	-0.071056	-0.425015
C56	C	-0.548854	-0.018284	-0.451470
C57	C	-0.575308	0.007793	-0.503892
C58	C	-0.470097	-0.097014	-0.451469
C59	C	-0.368666	-0.213054	-0.552051
C60	C	-0.343664	-0.242084	-0.576877
C61	C	-0.370616	-0.217167	-0.628824
C62	C	-0.343513	-0.248647	-0.655741
C63	C	-0.422570	-0.163216	-0.655945
C64	C	-0.447565	-0.134187	-0.631122
C65	C	-0.420611	-0.159108	-0.579173
C66	C	-0.765518	0.183662	-0.631659
C67	C	-0.819384	0.233473	-0.656662
C68	C	-0.846408	0.258459	-0.629712
C69	C	-0.904813	0.312461	-0.656813
C70	C	-0.819559	0.233635	-0.577758
C71	C	-0.765694	0.183833	-0.552761
C72	C	-0.738677	0.158847	-0.579717
C73	C	-0.368668	-0.213052	-0.234803
C74	C	-0.343669	-0.242086	-0.180935
C75	C	-0.370621	-0.217169	-0.153914
C76	C	-0.343519	-0.248648	-0.095506
C77	C	-0.422573	-0.163222	-0.180762
C78	C	-0.447570	-0.134193	-0.234627
C79	C	-0.420610	-0.159111	-0.261646
C80	C	-0.447720	-0.127629	-0.552258
C81	C	-0.469327	-0.102536	-0.530805
C82	C	-0.469328	-0.102535	-0.366609
C83	C	-0.447721	-0.127627	-0.320054
C84	C	-0.633714	0.061794	-0.530997
C85	C	-0.680269	0.104841	-0.552605
O86	O	0.076277	-0.384081	0.012960
O87	O	-0.076257	-0.294916	-0.012894
O88	O	0.012931	-0.384083	0.076300
O89	O	-0.012910	-0.294914	-0.076234
O90	O	0.012933	-0.311666	0.076306
O91	O	-0.076254	-0.222499	-0.012888
O92	O	0.076280	-0.311664	0.012966
Zn93	Zn	0.000013	-0.255584	0.000040
Zn94	Zn	0.000010	-0.350996	0.000032
O95	O	-0.012908	-0.222497	-0.076228
O96	O	-0.298805	0.063292	0.012964
O97	O	-0.235462	-0.063346	-0.012888
O98	O	-0.235465	-0.063353	0.076305
O99	O	-0.298803	0.063300	-0.076229
O100	O	-0.307912	-0.063350	0.076299
O101	O	-0.307909	-0.063342	-0.012895
O102	O	-0.371252	0.063295	0.012958
Zn103	Zn	-0.351083	-0.000023	0.000031
Zn104	Zn	-0.255631	-0.000027	0.000039
O105	O	-0.371250	0.063303	-0.076236
O106	O	-1.076607	0.456783	-0.692421
O107	O	-0.924074	0.330140	-0.629074
O108	O	-1.013262	0.330138	-0.629073
O109	O	-0.987418	0.456785	-0.692422
O110	O	-1.013261	0.330136	-0.701518
O111	O	-0.924072	0.330138	-0.701518
O112	O	-1.076605	0.456781	-0.764865
Zn113	Zn	-1.000338	0.393459	-0.744694
Zn114	Zn	-1.000340	0.393461	-0.649245
O115	O	-0.987417	0.456783	-0.764866
O116	O	-0.307911	-0.311650	-0.764507
O117	O	-0.371254	-0.222491	-0.701165
O118	O	-0.371252	-0.311652	-0.701162
O119	O	-0.307912	-0.222489	-0.764510
O120	O	-0.298806	-0.384074	-0.628716
O121	O	-0.298807	-0.294912	-0.628719
O122	O	-0.235464	-0.384072	-0.692061
Zn123	Zn	-0.255634	-0.350991	-0.648887
Zn124	Zn	-0.351085	-0.255572	-0.744338
O125	O	-0.235466	-0.294910	-0.692064
C126	C	-0.155920	-0.469469	0.234827
C127	C	-0.098464	-0.523208	0.261706
C128	C	-0.182375	-0.443392	0.261162
C129	C	-0.234797	-0.390619	0.155950
C130	C	-0.261676	-0.360052	0.098494
C131	C	-0.261132	-0.364662	0.182405
C132	C	-0.234797	-0.390620	0.234826
C133	C	-0.261675	-0.360052	0.261704
C134	C	-0.182375	-0.443391	0.182406
C135	C	0.018810	-0.390643	0.234846
C136	C	0.015111	-0.360079	0.261727
C137	C	0.019176	-0.443414	0.261179
C138	C	0.018812	-0.390637	0.155967
C139	C	0.015115	-0.360067	0.098511
C140	C	0.019178	-0.443408	0.182420
C141	C	0.018807	-0.469488	0.234841
C142	C	0.015106	-0.523226	0.261717
C143	C	0.019180	-0.364683	0.182425
C144	C	-0.234799	-0.215977	0.234834
C145	C	-0.261678	-0.246545	0.261708
C146	C	-0.182376	-0.241940	0.261172
C147	C	-0.234798	-0.137119	0.155964
C148	C	-0.261676	-0.083372	0.098509
C149	C	-0.182375	-0.163202	0.182421
C150	C	-0.155921	-0.215981	0.234841
C151	C	-0.098464	-0.246554	0.261721
C152	C	-0.261134	-0.163198	0.182415
C153	C	-0.039199	0.007461	-0.503869
C154	C	-0.039568	-0.018614	-0.530207
C155	C	-0.039203	-0.071390	-0.424995
C156	C	-0.039572	-0.097344	-0.451452
C157	C	-0.039201	-0.071385	-0.503874
C158	C	-0.039570	-0.018618	-0.451448
C159	C	-0.024912	0.183325	-0.552025
C160	C	-0.020873	0.233135	-0.576849
C161	C	-0.018844	0.258123	-0.628796
C162	C	-0.014454	0.312124	-0.655711
C163	C	-0.020859	0.233301	-0.655918
C164	C	-0.024906	0.183500	-0.631097
C165	C	-0.026932	0.158512	-0.579148
C166	C	-0.024920	-0.133799	-0.631644
C167	C	-0.020882	-0.162650	-0.656647
C168	C	-0.018855	-0.216605	-0.629699
C169	C	-0.014470	-0.247897	-0.656801
C170	C	-0.020872	-0.241704	-0.577746
C171	C	-0.024919	-0.212847	-0.552747
C172	C	-0.026939	-0.158893	-0.579702
C173	C	-0.024929	-0.133823	-0.234783
C174	C	-0.020887	-0.162684	-0.180915
C175	C	-0.018862	-0.216639	-0.153896
C176	C	-0.014477	-0.247936	-0.095488
C177	C	-0.020875	-0.241733	-0.180745
C178	C	-0.024915	-0.212872	-0.234610
C179	C	-0.026947	-0.158912	-0.261627
C180	C	-0.031316	0.104507	-0.552235
C181	C	-0.034811	0.061462	-0.530782
C182	C	-0.034820	-0.102682	-0.366590
C183	C	-0.031328	-0.127624	-0.320035
C184	C	-0.034816	-0.102672	-0.530980
C185	C	-0.031322	-0.127610	-0.552588
O186	O	-0.012940	-0.294936	0.371303
O187	O	0.012923	-0.384099	0.307961
O188	O	-0.076273	-0.294935	0.307950
O189	O	0.076257	-0.384100	0.371315
O190	O	-0.076265	-0.222515	0.235508
O191	O	0.012932	-0.311679	0.235520
O192	O	-0.012931	-0.222517	0.298862
Zn193	Zn	0.000002	-0.255600	0.255689
Zn194	Zn	-0.000010	-0.351016	0.351134
O195	O	0.076266	-0.311681	0.298873
C196	C	-0.574962	0.464558	-0.503864
C197	C	-0.548506	0.490518	-0.530195
C198	C	-0.496085	0.385697	-0.424987
C199	C	-0.469749	0.411776	-0.451438
C200	C	-0.496084	0.464555	-0.503857
C201	C	-0.548507	0.411779	-0.451444
C202	C	-0.765173	0.526994	-0.552039
C203	C	-0.819039	0.555852	-0.576867
C204	C	-0.846061	0.609814	-0.628812
C205	C	-0.904469	0.641114	-0.655732
C206	C	-0.819211	0.634913	-0.655928
C207	C	-0.765348	0.606050	-0.631102
C208	C	-0.738329	0.552088	-0.579155
C209	C	-0.447916	0.606561	-0.631604
C210	C	-0.423088	0.635592	-0.656601
C211	C	-0.371143	0.610674	-0.629648
C212	C	-0.344222	0.642150	-0.656742
C213	C	-0.344023	0.556716	-0.577696
C214	C	-0.368845	0.527681	-0.552704
C215	C	-0.420798	0.552613	-0.579664
C216	C	-0.447920	0.209802	-0.234786
C217	C	-0.423096	0.159988	-0.180919
C218	C	-0.371148	0.134996	-0.153895
C219	C	-0.344230	0.080987	-0.095489
C220	C	-0.344029	0.159823	-0.180737
C221	C	-0.368856	0.209637	-0.234602
C222	C	-0.420801	0.234620	-0.261624
C223	C	-0.679923	0.520797	-0.552238
C224	C	-0.633367	0.495853	-0.530781
C225	C	-0.469169	0.331687	-0.366583
C226	C	-0.447714	0.288634	-0.320030
C227	C	-0.469167	0.496035	-0.530956
C228	C	-0.447712	0.521128	-0.552558
H229	H	-0.569747	-0.610106	0.040228
O230	O	-0.497993	-0.081723	-0.657476
C231	C	-0.497969	-0.033600	-0.662313
H232	H	-0.456276	-0.044469	-0.659138
H233	H	-0.527493	0.011334	-0.702648
H234	H	-0.510119	-0.028750	-0.629065
H235	H	-0.161141	-0.284407	0.304244
H236	H	-0.040160	0.003216	-0.573279
O237	O	-0.845419	0.687371	-0.706359
C238	C	-0.844457	0.733337	-0.707482
H239	H	-0.809369	0.710796	-0.672596
H240	H	-0.839960	0.761995	-0.746583
H241	H	-0.883261	0.764389	-0.704176
O242	O	-0.312486	-0.137201	0.157019
C243	C	-0.315405	-0.136904	0.111030
H244	H	-0.274611	-0.174245	0.115851
H245	H	-0.345835	-0.146169	0.105352
H246	H	-0.328128	-0.090060	0.074699
O247	O	-0.293599	0.135640	-0.154489
C248	C	-0.292456	0.181439	-0.155460
H249	H	-0.334183	0.218714	-0.161825
H250	H	-0.263848	0.159944	-0.115920
H251	H	-0.278413	0.202691	-0.189418
O252	O	-0.573921	-0.458842	0.040263
C253	C	-0.619883	-0.410225	-0.005455
H254	H	-0.633116	-0.429876	-0.021193
H255	H	-0.653239	-0.382341	0.005358
H256	H	-0.610460	-0.379144	-0.037500
H257	H	-0.304205	-0.141343	-0.019747
H258	H	-0.743837	0.163627	-0.510462
H259	H	-0.161128	-0.465208	0.161163
O260	O	-0.498064	-0.081844	-0.260709
C261	C	-0.531731	-0.091657	-0.279735
H262	H	-0.513593	-0.143033	-0.255062
H263	H	-0.572563	-0.066169	-0.276201
H264	H	-0.536262	-0.073704	-0.323325
O265	O	-0.019028	-0.138225	-0.154884
C266	C	-0.065849	-0.078147	-0.180250
H267	H	-0.098987	-0.073088	-0.203496
H268	H	-0.078582	-0.069472	-0.148941
H269	H	-0.057838	-0.043299	-0.208823
H270	H	-0.346770	0.229846	-0.256454
O271	O	-0.157088	-0.137082	0.157103
C272	C	-0.185641	-0.076129	0.142317
H273	H	-0.210886	-0.071066	0.168942
H274	H	-0.156412	-0.065029	0.147131
H275	H	-0.212715	-0.043005	0.098924
O276	O	-0.040320	-0.147976	-0.426054
C277	C	-0.040553	-0.165413	-0.374010
H278	H	-0.056911	-0.123970	-0.372371
H279	H	-0.066816	-0.182795	-0.362918
H280	H	0.001877	-0.203575	-0.344657
H281	H	-0.444519	-0.142934	-0.158758
O282	O	0.019796	-0.313961	0.157031
C283	C	-0.025897	-0.265359	0.111042
H284	H	-0.058434	-0.273609	0.115864
H285	H	-0.040834	-0.219999	0.105364
H286	H	-0.015372	-0.263166	0.074711
O287	O	-0.018835	0.257241	-0.550530
C288	C	0.029344	0.252347	-0.545668
H289	H	0.045231	0.248654	-0.578096
H290	H	0.021881	0.294908	-0.550180
H291	H	0.059876	0.209525	-0.504797
H292	H	-0.040120	0.003178	-0.430195
H293	H	-0.026581	-0.089888	-0.256777
H294	H	-0.841210	-0.463642	0.019294
O295	O	0.019784	-0.469396	0.157066
C296	C	-0.025916	-0.469678	0.154432
H297	H	-0.058445	-0.432337	0.157873
H298	H	-0.040861	-0.460403	0.114727
H299	H	-0.015396	-0.516520	0.188562
O300	O	-0.026903	0.159148	-0.501572
C301	C	-0.024246	0.191726	-0.482953
H302	H	-0.038116	0.239566	-0.518396
H303	H	-0.051112	0.196157	-0.457575
H304	H	0.018636	0.165800	-0.457832
O305	O	-0.574237	0.007855	-0.426217
C306	C	-0.589009	0.068802	-0.454753
H307	H	-0.591820	0.086523	-0.498041
H308	H	-0.629390	0.099314	-0.453222
H309	H	-0.557762	0.069852	-0.436070
H310	H	-0.301723	0.536422	-0.555753
H311	H	-0.019210	0.253653	-0.698214
H312	H	-0.426680	-0.610102	0.040221
H313	H	-0.346776	-0.516292	0.026600
O314	O	-0.026834	0.159446	-0.657508
C315	C	-0.024189	0.192188	-0.708684
H316	H	-0.004557	0.215357	-0.708634
H317	H	0.000341	0.158974	-0.719715
H318	H	-0.066212	0.228708	-0.739085
O319	O	-0.312537	-0.314047	0.157137
C320	C	-0.344974	-0.327805	0.185663
H321	H	-0.319422	-0.368252	0.228958
H322	H	-0.377046	-0.285897	0.184110
H323	H	-0.364685	-0.340389	0.166988
H324	H	-0.743487	-0.516312	0.026628
O325	O	-0.157106	-0.137033	-0.019967
C326	C	-0.185661	-0.076101	-0.066189
H327	H	-0.228959	-0.058382	-0.081042
H328	H	-0.184088	-0.045566	-0.056391
H329	H	-0.167026	-0.075083	-0.098509
O330	O	-0.019007	-0.138238	-0.707141
C331	C	-0.062491	-0.123594	-0.740816
H332	H	-0.095747	-0.117067	-0.722680
H333	H	-0.077825	-0.079238	-0.781645
H334	H	-0.049063	-0.162634	-0.745355
H335	H	-0.019226	-0.285667	-0.158742
H336	H	-0.161139	-0.284365	-0.019743
H337	H	-0.743523	0.163324	-0.653612
O338	O	-0.026906	-0.081375	-0.657912
C339	C	-0.024249	-0.065418	-0.709121
H340	H	-0.038121	-0.086980	-0.721534
H341	H	-0.051113	-0.013191	-0.738932
H342	H	0.018634	-0.083177	-0.708305
H343	H	0.019760	-0.465234	0.304248
O344	O	-0.018976	-0.294068	-0.551649
C345	C	-0.062478	-0.284136	-0.580594
H346	H	-0.077154	-0.244478	-0.624206
H347	H	-0.049327	-0.327671	-0.577691
H348	H	-0.096128	-0.272228	-0.563290
H349	H	-0.301736	-0.463624	0.019263
O350	O	-0.498407	-0.369318	0.026880
C351	C	-0.531976	-0.354765	-0.016620
H352	H	-0.506985	-0.383690	-0.031297
H353	H	-0.562375	-0.365010	-0.003466
H354	H	-0.553715	-0.303827	-0.050271
O355	O	-0.156993	-0.469383	0.312517
C356	C	-0.111013	-0.469664	0.315452
H357	H	-0.115829	-0.432321	0.274662
H358	H	-0.105358	-0.460393	0.345885
H359	H	-0.074671	-0.516505	0.328184
H360	H	-0.026564	-0.233284	-0.510448
H361	H	-0.445184	-0.320548	0.019287
O362	O	-0.026886	-0.237316	-0.260615
C363	C	-0.024216	-0.291135	-0.225215
H364	H	-0.038098	-0.289526	-0.191285
H365	H	-0.051066	-0.294198	-0.247528
H366	H	0.018672	-0.333199	-0.208207
O367	O	-0.418358	0.385646	-0.426028
C368	C	-0.400690	0.333389	-0.373984
H369	H	-0.425777	0.315386	-0.372353
H370	H	-0.357033	0.296054	-0.362878
H371	H	-0.404971	0.346471	-0.344636
H372	H	-0.569746	0.532985	-0.573266
O373	O	-0.573915	0.385805	-0.426193
C374	C	-0.625963	0.420178	-0.460794
H375	H	-0.627600	0.446896	-0.503892
H376	H	-0.637074	0.387644	-0.454490
H377	H	-0.655303	0.453789	-0.451978
O378	O	-0.449506	0.135931	-0.154932
C379	C	-0.500682	0.168676	-0.190330
H380	H	-0.500632	0.191851	-0.233139
H381	H	-0.511714	0.135463	-0.181639
H382	H	-0.531082	0.205191	-0.184834
O383	O	-0.498405	0.234179	-0.261073
C384	C	-0.531975	0.296668	-0.280078
H385	H	-0.506983	0.315282	-0.284018
H386	H	-0.562374	0.324158	-0.320727
H387	H	-0.553712	0.301094	-0.250861
H388	H	-0.743179	0.483055	-0.509743
H389	H	-0.743175	-0.373219	0.026636
O390	O	-0.845046	0.531411	-0.550442
C391	C	-0.809645	0.477588	-0.499276
H392	H	-0.775709	0.479190	-0.487008
H393	H	-0.831954	0.474528	-0.469357
H394	H	-0.792648	0.435526	-0.500087
O395	O	-0.739231	0.630416	-0.657360
C396	C	-0.720232	0.645070	-0.628517
H397	H	-0.716137	0.616084	-0.584860
H398	H	-0.679660	0.634988	-0.631574
H399	H	-0.749536	0.695986	-0.645792
H400	H	-0.490215	0.626864	-0.653559
O401	O	-0.449520	0.688020	-0.707050
C402	C	-0.500691	0.703790	-0.725485
H403	H	-0.512949	0.682111	-0.689943
H404	H	-0.530607	0.755999	-0.750837
H405	H	-0.499894	0.686011	-0.750581
O406	O	-0.342517	0.475334	-0.502208
C407	C	-0.329232	0.487404	-0.467467
H408	H	-0.357309	0.538708	-0.485644
H409	H	-0.333284	0.460151	-0.427480
H410	H	-0.286363	0.473112	-0.461182
O411	O	-0.845040	-0.312070	0.018968
C412	C	-0.809640	-0.296307	0.021632
H413	H	-0.775705	-0.317971	0.007762
H414	H	-0.831950	-0.244098	-0.005230
H415	H	-0.792639	-0.314106	0.064518
H416	H	-0.490218	-0.769893	0.026639
H417	H	-0.445180	-0.860248	0.019309
H418	H	-0.346767	-0.770191	0.026621
O419	O	-0.293546	-0.864577	0.019035
C420	C	-0.259974	-0.927068	0.062537
H421	H	-0.284963	-0.945685	0.077217
H422	H	-0.229575	-0.954552	0.049384
H423	H	-0.238236	-0.931498	0.096186
O424	O	-0.574195	0.007861	-0.581644
C425	C	-0.588974	0.068812	-0.614040
H426	H	-0.562325	0.073848	-0.593858
H427	H	-0.584191	0.079946	-0.654389
H428	H	-0.632356	0.101931	-0.620071
O429	O	-0.418705	-0.147657	-0.426214
C430	C	-0.401036	-0.165098	-0.460813
H431	H	-0.426125	-0.123650	-0.503912
H432	H	-0.357380	-0.182502	-0.454507
H433	H	-0.405313	-0.203243	-0.451998
H434	H	-0.301369	-0.286012	-0.159078
H435	H	-0.346709	-0.233340	-0.256801
O436	O	-0.342413	-0.237230	-0.501628
C437	C	-0.295456	-0.239340	-0.500505
H438	H	-0.299908	-0.203986	-0.542239
H439	H	-0.288334	-0.228414	-0.471902
H440	H	-0.260157	-0.287324	-0.486468
O441	O	-0.293168	-0.294430	-0.550594
C442	C	-0.259508	-0.284606	-0.579444
H443	H	-0.277653	-0.233228	-0.606166
H444	H	-0.218675	-0.310089	-0.550419
H445	H	-0.254979	-0.302556	-0.605077
H446	H	-0.444508	-0.142931	-0.698242
H447	H	-0.841239	0.253681	-0.698962
H448	H	-0.841561	0.253985	-0.555818
