data_functionalizedCrystal
_audit_creation_method	'MofGen! by Chris Wilmer'
_symmetry_space_group_name_H-M	'P1'
_symmetry_Int_Tables_number	1
_symmetry_cell_setting	triclinic
loop_
_symmetry_equiv_pos_as_xyz
  x,y,z
_cell_length_a	10.686220
_cell_length_b	19.077068
_cell_length_c	19.076919
_cell_angle_alpha	85.529249
_cell_angle_beta	96.464688
_cell_angle_gamma	83.477335
loop_
_atom_site_label
_atom_site_type_symbol
_atom_site_fract_x
_atom_site_fract_y
_atom_site_fract_z
Zn1	Zn	1.890241	0.212309	-0.325683
Zn2	Zn	1.890084	0.325469	-0.212535
Zn3	Zn	1.686763	0.216675	-0.216873
Zn4	Zn	1.668913	0.340038	-0.340227
O5	O	1.784000	0.273623	-0.273830
O6	O	2.067937	0.219395	-0.302772
O7	O	1.870517	0.306768	-0.114134
O8	O	1.721290	0.117110	-0.227037
O9	O	2.067822	0.302533	-0.219642
O10	O	1.870785	0.113902	-0.306979
O11	O	1.721138	0.226837	-0.117321
O12	O	1.506678	0.240964	-0.241139
O13	O	1.690868	0.327364	-0.437274
O14	O	1.493564	0.331598	-0.331766
O15	O	1.853477	0.233522	-0.426589
O16	O	1.853209	0.426387	-0.233744
O17	O	1.690716	0.437091	-0.327559
C18	C	1.454041	0.288337	-0.288501
C19	C	1.312880	0.294649	-0.294796
C20	C	1.770199	0.281581	-0.458313
C21	C	1.764318	0.284972	-0.536929
C22	C	1.770042	0.457404	-0.281773
C23	C	1.764185	0.536022	-0.285189
C24	C	2.115248	0.258852	-0.259101
C25	C	2.256406	0.252557	-0.252824
C26	C	1.798046	0.089123	-0.265869
C27	C	1.804032	0.010500	-0.262477
C28	C	1.846095	0.567360	-0.237985
C29	C	1.840594	0.641230	-0.241202
C30	C	1.753175	0.683762	-0.291621
C31	C	1.671261	0.652420	-0.338830
C32	C	1.676770	0.578550	-0.335616
C33	C	1.727627	0.905288	-0.306472
C34	C	1.722122	0.979162	-0.309682
C35	C	1.891457	0.967968	-0.212054
C36	C	1.896952	0.894098	-0.208841
C37	C	1.815043	0.862762	-0.256053
N38	N	1.747547	0.759270	-0.294909
N39	N	1.820679	0.787255	-0.252767
C40	C	1.846212	0.237709	-0.568301
C41	C	1.840671	0.240894	-0.642169
C42	C	1.753241	0.291345	-0.684664
C43	C	1.671338	0.338610	-0.653287
C44	C	1.676874	0.335422	-0.579420
C45	C	1.727600	0.306117	-0.906180
C46	C	1.722072	0.309303	-0.980051
C47	C	1.891405	0.211585	-0.968928
C48	C	1.896938	0.208404	-0.895060
C49	C	1.815031	0.255666	-0.863690
N50	N	1.747577	0.294603	-0.760169
N51	N	1.820689	0.252405	-0.788186
C52	C	1.797824	0.265641	-0.090059
C53	C	1.803967	0.262040	-0.011424
H54	H	1.316048	0.211692	-0.212075
C55	C	1.232316	0.349847	-0.349864
H56	H	1.286675	0.375404	-0.375352
H57	H	1.180336	0.326439	-0.381830
H58	H	1.180249	0.381755	-0.326381
C59	C	1.637509	0.870828	-0.358391
H60	H	1.584646	0.906740	-0.388870
H61	H	1.685872	0.841138	-0.385823
H62	H	1.586385	0.843352	-0.332507
C63	C	1.637480	0.358090	-0.871682
H64	H	1.584620	0.388592	-0.907571
H65	H	1.586374	0.332240	-0.844167
H66	H	1.685846	0.385512	-0.842029
H67	H	1.650872	0.350388	-1.014650
C68	C	1.981485	0.159596	-1.003438
H69	H	1.965663	0.168714	-1.053516
H70	H	2.066933	0.165618	-0.987987
H71	H	1.967412	0.112374	-0.990107
C72	C	1.942246	0.520578	-0.182520
H73	H	1.933789	0.472096	-0.187359
H74	H	2.025886	0.529279	-0.189637
H75	H	1.926364	0.531494	-0.136341
C76	C	1.981557	1.002439	-0.160131
H77	H	1.965767	1.052524	-0.169268
H78	H	1.967501	0.989138	-0.112897
H79	H	2.067002	0.986929	-0.166206
C80	C	1.930761	0.188907	-0.676676
H81	H	1.983635	0.158410	-0.640788
H82	H	1.882375	0.161493	-0.706319
H83	H	1.981876	0.214749	-0.704200
C84	C	1.930661	0.675703	-0.189262
H85	H	1.914865	0.725788	-0.198397
H86	H	1.916569	0.662397	-0.142036
H87	H	2.016119	0.660199	-0.195316
H88	H	1.600146	0.379687	-0.687892
C89	C	1.942385	0.182214	-0.521560
H90	H	1.933964	0.187087	-0.473073
H91	H	1.926512	0.136038	-0.532441
H92	H	2.026022	0.189289	-0.530323
H93	H	1.968137	0.167322	-0.860465
C94	C	1.586820	0.387427	-0.544910
H95	H	1.533972	0.417940	-0.580796
H96	H	1.535697	0.361607	-0.517378
H97	H	1.635247	0.414834	-0.515273
C98	C	1.993120	0.847318	-0.153384
H99	H	2.041125	0.876561	-0.125735
H100	H	1.949041	0.819371	-0.123451
H101	H	2.048544	0.817167	-0.176758
C102	C	1.575100	0.699202	-0.394288
H103	H	1.583539	0.747685	-0.389438
H104	H	1.590961	0.688294	-0.440469
H105	H	1.491460	0.690497	-0.387161
H106	H	1.650949	1.013790	-0.350750
C107	C	1.586671	0.544079	-0.387542
H108	H	1.533812	0.579988	-0.418027
H109	H	1.635057	0.514392	-0.414966
H110	H	1.535541	0.516599	-0.361666
