data_functionalizedCrystal
_audit_creation_method	'MofGen! by Chris Wilmer'
_symmetry_space_group_name_H-M	'P1'
_symmetry_Int_Tables_number	1
_symmetry_cell_setting	triclinic
loop_
_symmetry_equiv_pos_as_xyz
  x,y,z
_cell_length_a	10.686220
_cell_length_b	16.120444
_cell_length_c	10.686551
_cell_angle_alpha	91.291368
_cell_angle_beta	89.691918
_cell_angle_gamma	97.071939
loop_
_atom_site_label
_atom_site_type_symbol
_atom_site_fract_x
_atom_site_fract_y
_atom_site_fract_z
Zn1	Zn	1.957915	-0.203138	0.579050
Zn2	Zn	1.931016	-0.353950	0.381663
Zn3	Zn	1.730526	-0.224453	0.387116
Zn4	Zn	1.737566	-0.352261	0.607302
O5	O	1.839256	-0.283450	0.488783
O6	O	2.130470	-0.214930	0.538760
O7	O	1.890217	-0.346399	0.207630
O8	O	1.769001	-0.105022	0.403035
O9	O	2.110707	-0.325731	0.393741
O10	O	1.936063	-0.089362	0.544048
O11	O	1.742918	-0.251258	0.211637
O12	O	1.555337	-0.249620	0.430430
O13	O	1.780999	-0.322853	0.778310
O14	O	1.560509	-0.343521	0.592199
O15	O	1.942889	-0.213292	0.757553
O16	O	1.897043	-0.470329	0.421136
O17	O	1.754916	-0.469089	0.586912
C18	C	1.512256	-0.298701	0.514973
C19	C	1.372365	-0.305243	0.526208
C20	C	1.823861	-0.499940	0.506522
C21	C	1.817394	-0.592548	0.514144
C22	C	1.873136	-0.803942	0.449489
C23	C	1.805610	-0.762096	0.528070
C24	C	1.812169	-0.667750	0.520319
C25	C	1.866579	-0.898296	0.457238
C26	C	2.167532	-0.268141	0.462491
C27	C	2.307424	-0.261617	0.451287
C28	C	1.865730	-0.265507	0.814511
C29	C	1.877012	-0.257860	0.953317
C30	C	1.854747	-0.066112	0.470998
C31	C	1.861349	0.026504	0.463420
C32	C	1.812961	-0.301261	0.164311
C33	C	1.801940	-0.308661	0.025467
H34	H	1.358846	-0.219262	0.378547
H35	H	1.320936	-0.347607	0.598946
O36	O	1.947882	-0.762264	0.362119
C37	C	1.993626	-0.744254	0.142668
C38	C	1.908912	-0.791544	0.241486
H39	H	1.962134	-0.767895	0.045113
H40	H	2.095744	-0.755296	0.157798
H41	H	1.985662	-0.674508	0.151943
H42	H	1.916767	-0.861303	0.232270
H43	H	1.806830	-0.780432	0.226326
H44	H	1.742874	-0.797125	0.601167
O45	O	1.715126	-0.367569	0.972332
C46	C	1.678351	-0.488913	0.835515
C47	C	1.776796	-0.422237	0.895595
H48	H	1.728175	-0.533140	0.773481
H49	H	1.610375	-0.457100	0.776497
H50	H	1.623618	-0.525895	0.912175
H51	H	1.831619	-0.385234	0.819018
H52	H	1.844687	-0.454100	0.954642
H53	H	1.949925	-0.208517	0.997743
