data_functionalizedCrystal
_audit_creation_method	'MofGen! by Chris Wilmer'
_symmetry_space_group_name_H-M	'P1'
_symmetry_Int_Tables_number	1
_symmetry_cell_setting	triclinic
loop_
_symmetry_equiv_pos_as_xyz
  x,y,z
_cell_length_a	12.759401
_cell_length_b	21.295417
_cell_length_c	12.759393
_cell_angle_alpha	89.960830
_cell_angle_beta	89.981504
_cell_angle_gamma	90.030668
loop_
_atom_site_label
_atom_site_type_symbol
_atom_site_fract_x
_atom_site_fract_y
_atom_site_fract_z
Zn1	Zn	1.606140	-0.250569	-0.593926
Zn2	Zn	1.605986	-0.355853	-0.418223
Zn3	Zn	1.430442	-0.250602	-0.418265
Zn4	Zn	1.430382	-0.355805	-0.593864
O5	O	1.518237	-0.303208	-0.506069
O6	O	1.753141	-0.264542	-0.570626
O7	O	1.582660	-0.341926	-0.271207
O8	O	1.453838	-0.162509	-0.441611
O9	O	1.753027	-0.341894	-0.441538
O10	O	1.582923	-0.162484	-0.570668
O11	O	1.453689	-0.264598	-0.271238
O12	O	1.283413	-0.264551	-0.441551
O13	O	1.453736	-0.341811	-0.740893
O14	O	1.283369	-0.341843	-0.570562
O15	O	1.582865	-0.264495	-0.740939
O16	O	1.582602	-0.443936	-0.441478
O17	O	1.453587	-0.443901	-0.570521
C18	C	1.245270	-0.303196	-0.506055
C19	C	1.128493	-0.303206	-0.506074
C20	C	1.073636	-0.343516	-0.573139
C21	C	0.963912	-0.343524	-0.573151
C22	C	0.963912	-0.262910	-0.439022
C23	C	1.073635	-0.262899	-0.439017
C24	C	1.073635	-0.390061	-0.650574
C25	C	0.963911	-0.390069	-0.650585
C26	C	1.518100	-0.466759	-0.506011
C27	C	1.518137	-0.536727	-0.506021
C28	C	1.585375	-0.569592	-0.438898
C29	C	1.585424	-0.635334	-0.438921
C30	C	1.518217	-0.668210	-0.506058
C31	C	1.450974	-0.635338	-0.573195
C32	C	1.450934	-0.569596	-0.573177
N33	N	1.426309	-0.771475	-0.514062
N34	N	1.426350	-0.833927	-0.514073
C35	C	1.518334	-0.866284	-0.506118
N36	N	1.610278	-0.833832	-0.498130
N37	N	1.610236	-0.771375	-0.498114
C38	C	1.518253	-0.739495	-0.506085
C39	C	1.585631	-0.970434	-0.439016
C40	C	1.585682	-1.036178	-0.439047
C41	C	1.451223	-1.036180	-0.573315
C42	C	1.451181	-0.970438	-0.573289
C43	C	1.518384	-0.937569	-0.506134
C44	C	1.792271	-0.303220	-0.506084
C45	C	1.909047	-0.303225	-0.506091
C46	C	1.518311	-0.303144	-0.780103
C47	C	1.518342	-0.303117	-0.896880
C48	C	1.518404	-0.139017	-0.506151
C49	C	1.518475	-0.069049	-0.506185
C50	C	1.585589	-0.262855	-0.951767
C51	C	1.585614	-0.262832	-1.061491
C52	C	1.451143	-0.343339	-1.061431
C53	C	1.451113	-0.343358	-0.951709
C54	C	1.663228	-0.216376	-0.951803
C55	C	1.663253	-0.216353	-1.061527
C56	C	1.518225	-0.303225	-0.233102
C57	C	1.518397	-0.303075	-0.116326
H58	H	0.934093	-0.438810	-0.628642
C59	C	1.377965	-0.386960	-0.892054
C60	C	1.310639	-0.351315	-0.829106
C61	C	1.243228	-0.391458	-0.774146
H62	H	1.417986	-0.414412	-0.849148
H63	H	1.337868	-0.410913	-0.940388
H64	H	1.350731	-0.327372	-0.780778
H65	H	1.270595	-0.323864	-0.871986
H66	H	1.203131	-0.415411	-0.822479
H67	H	1.283257	-0.418908	-0.731245
H68	H	1.197533	-0.367278	-0.731436
H69	H	0.929921	-0.372666	-0.727941
H70	H	1.640098	-0.542832	-0.384219
H71	H	1.740492	-0.233853	-0.917763
C72	C	1.118770	-0.451835	-0.611539
C73	C	1.036826	-0.492768	-0.585674
C74	C	1.078365	-0.549682	-0.549721
H75	H	1.160641	-0.444393	-0.551267
H76	H	1.160652	-0.470125	-0.664982
H77	H	0.994961	-0.474482	-0.532235
H78	H	0.994948	-0.500228	-0.645930
H79	H	1.120247	-0.567971	-0.603164
H80	H	1.120235	-0.542233	-0.489452
H81	H	1.022773	-0.577464	-0.532177
H82	H	1.634161	-0.170033	-1.095585
C83	C	1.658240	-0.671098	-0.365949
C84	C	1.598780	-0.708906	-0.298596
C85	C	1.665813	-0.741861	-0.231357
H86	H	1.698269	-0.642172	-0.325853
H87	H	1.704009	-0.696742	-0.406126
H88	H	1.553029	-0.683263	-0.258423
H89	H	1.558753	-0.737843	-0.338663
H90	H	1.711582	-0.767505	-0.271535
H91	H	1.705839	-0.712930	-0.191269
H92	H	1.625480	-0.767521	-0.185657
C93	C	1.133006	-0.219102	-0.366100
C94	C	1.061475	-0.183819	-0.307361
C95	C	1.116129	-0.143469	-0.240169
H96	H	1.175842	-0.191646	-0.406265
H97	H	1.175756	-0.243126	-0.320183
H98	H	1.018742	-0.159797	-0.353272
H99	H	1.018637	-0.211258	-0.267174
H100	H	1.158879	-0.167493	-0.194253
H101	H	1.158963	-0.116017	-0.280343
H102	H	1.067604	-0.119528	-0.200300
C103	C	0.904159	-0.219225	-0.366250
C104	C	0.796327	-0.227872	-0.380588
C105	C	0.741253	-0.187648	-0.313554
H106	H	0.922046	-0.176913	-0.381684
H107	H	0.922049	-0.228396	-0.295608
H108	H	0.778444	-0.218697	-0.451214
H109	H	0.778409	-0.270176	-0.365147
H110	H	0.759143	-0.196819	-0.242912
H111	H	0.759148	-0.145338	-0.328993
H112	H	0.668083	-0.193514	-0.323266
H113	H	1.744618	-0.229411	-1.091302
H114	H	1.103449	-0.377059	-0.731984
H115	H	1.396255	-0.662109	-0.627859
H116	H	1.396405	-0.376101	-1.106086
H117	H	1.396180	-0.542838	-0.627838
C118	C	1.658710	-0.934856	-0.366073
C119	C	1.717633	-0.977712	-0.307317
C120	C	1.784972	-0.944963	-0.240120
H121	H	1.618643	-0.909256	-0.320160
H122	H	1.704505	-0.909175	-0.406268
H123	H	1.671844	-1.003382	-0.267125
H124	H	1.757722	-1.003313	-0.353202
H125	H	1.830766	-0.919282	-0.280315
H126	H	1.744896	-0.919364	-0.194213
H127	H	1.824965	-0.974036	-0.200252
H128	H	1.640442	-1.062935	-0.384389
H129	H	1.396425	-0.943678	-0.627944
C130	C	1.378426	-1.071945	-0.646273
C131	C	1.437902	-1.109630	-0.713658
C132	C	1.370879	-1.142593	-0.780879
H133	H	1.338348	-1.043025	-0.686346
H134	H	1.332702	-1.097674	-0.606084
H135	H	1.483607	-1.083903	-0.753844
H136	H	1.477977	-1.138561	-0.673615
H137	H	1.325155	-1.168322	-0.740690
H138	H	1.330805	-1.113669	-0.820944
H139	H	1.411223	-1.168171	-0.826601
C140	C	1.634154	-0.151344	-0.912336
C141	C	1.616400	-0.111543	-0.997888
C142	C	1.589600	-0.051636	-0.961571
H143	H	1.689794	-0.135073	-0.871013
H144	H	1.572359	-0.153973	-0.871001
H145	H	1.678187	-0.108911	-1.039205
H146	H	1.560755	-0.127793	-1.039219
H147	H	1.527805	-0.054266	-0.920237
H148	H	1.645244	-0.035372	-0.920248
H149	H	1.577541	-0.024626	-1.019612
