data_functionalizedCrystal
_audit_creation_method	'MofGen! by Chris Wilmer'
_symmetry_space_group_name_H-M	'P1'
_symmetry_Int_Tables_number	1
_symmetry_cell_setting	triclinic
loop_
_symmetry_equiv_pos_as_xyz
  x,y,z
_cell_length_a	13.262402
_cell_length_b	16.109301
_cell_length_c	14.586319
_cell_angle_alpha	89.998390
_cell_angle_beta	74.087538
_cell_angle_gamma	96.030018
loop_
_atom_site_label
_atom_site_type_symbol
_atom_site_fract_x
_atom_site_fract_y
_atom_site_fract_z
O1	O	1.392594	-0.112030	-0.271032
O2	O	1.892594	0.387970	0.228968
O3	O	1.087015	-0.124195	-0.194827
O4	O	1.587015	0.375805	0.305173
O5	O	1.248199	0.002888	-0.235032
O6	O	1.748199	0.502888	0.264968
O7	O	1.231410	-0.239112	-0.230827
O8	O	1.731410	0.260888	0.269173
O9	O	1.248179	0.002880	-0.387508
O10	O	1.748179	0.502880	0.112492
O11	O	1.086996	-0.124202	-0.347303
O12	O	1.586996	0.375798	0.152697
O13	O	1.392574	-0.112037	-0.423508
O14	O	1.892574	0.387963	0.076492
Cu15	Cu	1.239783	-0.118120	-0.399328
Cu16	Cu	1.739783	0.381880	0.100672
Cu17	Cu	1.239806	-0.118112	-0.219007
Cu18	Cu	1.739806	0.381888	0.280993
O19	O	1.231390	-0.239120	-0.383303
O20	O	1.731390	0.260880	0.116697
C21	C	1.047903	-0.123515	-0.261313
C22	C	1.547903	0.376485	0.238687
C23	C	0.931389	-0.121467	-0.232258
C24	C	1.431389	0.378533	0.267742
C25	C	0.876661	-0.120500	-0.135490
C26	C	1.376661	0.379500	0.364510
C27	C	0.767190	-0.118584	-0.108192
C28	C	1.267190	0.381416	0.391808
C29	C	0.712437	-0.117629	-0.177659
C30	C	1.212437	0.382371	0.322341
C31	C	0.767166	-0.118590	-0.274429
C32	C	1.267166	0.381410	0.225571
C33	C	0.876647	-0.120513	-0.301729
C34	C	1.376647	0.379487	0.198271
C35	C	0.712423	-0.117642	-0.343898
C36	C	1.212423	0.382358	0.156102
C37	C	0.767152	-0.118603	-0.440668
C38	C	1.267152	0.381397	0.059332
C39	C	0.876623	-0.120525	-0.467964
C40	C	1.376623	0.379475	0.032036
C41	C	0.931376	-0.121480	-0.398497
C42	C	1.431376	0.378520	0.101503
C43	C	0.602942	-0.115719	-0.316597
C44	C	1.102942	0.384281	0.183403
C45	C	0.602928	-0.115732	-0.482837
C46	C	1.102928	0.384268	0.017163
C47	C	0.712399	-0.117648	-0.510135
C48	C	1.212399	0.382352	-0.010135
C49	C	1.247509	0.033861	-0.311101
C50	C	1.747509	0.533861	0.188899
C51	C	1.245470	0.126164	-0.310594
C52	C	1.745470	0.626164	0.189406
C53	C	1.431686	-0.112717	-0.357019
C54	C	1.931686	0.387283	0.142981
C55	C	1.548200	-0.114765	-0.386069
C56	C	2.048200	0.385235	0.113931
C57	C	1.232080	-0.270093	-0.307232
C58	C	1.732080	0.229907	0.192768
C59	C	1.234119	-0.362396	-0.307733
C60	C	1.734119	0.137604	0.192267
C61	C	1.336373	0.348099	-0.333249
C62	C	1.836373	0.848099	0.166751
C63	C	1.334449	0.434827	-0.332761
C64	C	1.834449	0.934827	0.167239
C65	C	1.143210	0.415662	-0.285074
C66	C	1.643210	0.915662	0.214926
C67	C	1.145135	0.328936	-0.285555
C68	C	1.645135	0.828936	0.214445
C69	C	1.241719	0.295157	-0.309648
C70	C	1.741719	0.795157	0.190352
C71	C	1.237870	0.468611	-0.308679
C72	C	1.737870	0.968611	0.191321
C73	C	1.235783	0.562644	-0.308151
C74	C	1.735783	1.062644	0.191849
C75	C	1.243807	0.201118	-0.310175
C76	C	1.743807	0.701118	0.189825
N77	N	1.239774	-0.118126	-0.526157
N78	N	1.739774	0.381874	-0.026157
C79	C	1.303428	-0.168791	-0.777033
C80	C	1.803428	0.331209	-0.277033
C81	C	1.303439	-0.168785	-0.873017
C82	C	1.803439	0.331215	-0.373017
C83	C	1.176167	-0.067429	-0.841296
C84	C	1.676167	0.432571	-0.341296
C85	C	1.176163	-0.067431	-0.745315
C86	C	1.676163	0.432569	-0.245315
C87	C	1.239791	-0.118116	-0.713186
C88	C	1.739791	0.381884	-0.213186
C89	C	1.239807	-0.118109	-0.905151
C90	C	1.739807	0.381891	-0.405151
C91	C	1.239818	-0.118102	-1.009221
C92	C	1.739818	0.381898	-0.509221
C93	C	1.239781	-0.118122	-0.609110
C94	C	1.739781	0.381878	-0.109110
N95	N	1.239823	-0.118099	-0.092180
N96	N	1.739823	0.381901	0.407820
H97	H	0.623300	-0.116069	-0.155426
H98	H	1.123300	0.383931	0.344574
H99	H	1.068052	0.285828	-0.266332
H100	H	1.568052	0.785828	0.233668
H101	H	1.411525	0.477929	-0.351978
H102	H	1.911525	0.977929	0.148022
C103	C	0.936826	-0.121590	-0.574406
C104	C	1.436826	0.378410	-0.074406
H105	H	1.009865	-0.122879	-0.580714
H106	H	1.509865	0.377121	-0.080714
H107	H	0.926901	-0.072854	-0.606091
H108	H	1.426901	0.427146	-0.106091
H109	H	0.910861	-0.169709	-0.602075
H110	H	1.410861	0.330291	-0.102075
C111	C	1.106156	-0.011688	-0.675078
C112	C	1.606156	0.488312	-0.175078
H113	H	1.068250	0.018490	-0.707955
H114	H	1.568250	0.518490	-0.207955
H115	H	1.149176	0.026404	-0.648359
H116	H	1.649176	0.526404	-0.148359
H117	H	1.057838	-0.045577	-0.625594
H118	H	1.557838	0.454423	-0.125594
C119	C	1.106155	-0.011697	-0.876632
C120	C	1.606155	0.488303	-0.376632
H121	H	1.068256	0.018484	-0.824858
H122	H	1.568256	0.518484	-0.324858
H123	H	1.057848	-0.045589	-0.902025
H124	H	1.557848	0.454411	-0.402025
H125	H	1.149170	0.026406	-0.924802
H126	H	1.649170	0.526406	-0.424802
H127	H	1.355260	-0.210048	-0.924999
H128	H	1.855260	0.289952	-0.424999
C129	C	0.936883	-0.121558	-0.059085
C130	C	1.436883	0.378442	0.440915
H131	H	0.888612	-0.120714	0.002457
H132	H	1.388612	0.379286	0.502457
H133	H	0.987614	-0.073887	-0.068283
H134	H	1.487614	0.426113	0.431717
H135	H	0.971563	-0.170742	-0.064281
H136	H	1.471563	0.329258	0.435719
C137	C	0.542748	-0.114658	-0.210161
C138	C	1.042748	0.385342	0.289839
H139	H	0.469706	-0.113383	-0.203846
H140	H	0.969706	0.386617	0.296154
H141	H	0.568714	-0.066547	-0.182487
H142	H	1.068714	0.433453	0.317513
H143	H	0.552676	-0.163402	-0.178483
H144	H	1.052676	0.336598	0.321517
H145	H	0.722637	-0.117802	-0.029402
H146	H	1.222637	0.382198	0.470598
H147	H	1.020517	-0.123034	-0.420719
H148	H	1.520517	0.376966	0.079281
C149	C	0.772606	-0.118694	-0.616577
C150	C	1.272606	0.381306	-0.116577
H151	H	0.724327	-0.117839	-0.654045
H152	H	1.224327	0.382161	-0.154045
H153	H	0.807305	-0.167862	-0.628690
H154	H	1.307305	0.332138	-0.128690
H155	H	0.823321	-0.071006	-0.632668
H156	H	1.323321	0.428994	-0.132668
C157	C	1.036973	0.452818	-0.258576
C158	C	1.536973	0.952818	0.241424
H159	H	0.980876	0.408864	-0.244579
H160	H	1.480876	0.908864	0.255421
H161	H	1.032237	0.486254	-0.310567
H162	H	1.532237	0.986254	0.189433
H163	H	1.032256	0.486248	-0.204218
H164	H	1.532256	0.986248	0.295782
C165	C	0.542716	-0.114681	-0.559259
C166	C	1.042716	0.385319	-0.059259
H167	H	0.590987	-0.115542	-0.620800
H168	H	1.090987	0.384458	-0.120800
H169	H	0.508027	-0.065508	-0.554071
H170	H	1.008027	0.434492	-0.054071
H171	H	0.491992	-0.162363	-0.550055
H172	H	0.991992	0.337637	-0.050055
C173	C	1.442608	0.310940	-0.359742
C174	C	1.942608	0.810940	0.140258
H175	H	1.430201	0.251707	-0.356658
H176	H	1.930201	0.751707	0.143342
H177	H	1.481585	0.329088	-0.316287
H178	H	1.981585	0.829088	0.183713
H179	H	1.481572	0.329094	-0.422638
H180	H	1.981572	0.829094	0.077362
C181	C	1.373430	-0.224532	-0.741697
C182	C	1.873430	0.275468	-0.241697
H183	H	1.411340	-0.254703	-0.793474
H184	H	1.911340	0.245297	-0.293474
H185	H	1.330415	-0.262630	-0.693530
H186	H	1.830415	0.237370	-0.193530
H187	H	1.421744	-0.190641	-0.716302
H188	H	1.921744	0.309359	-0.216302
