data_functionalizedCrystal
_audit_creation_method	'MofGen! by Chris Wilmer'
_symmetry_space_group_name_H-M	'P1'
_symmetry_Int_Tables_number	1
_symmetry_cell_setting	triclinic
loop_
_symmetry_equiv_pos_as_xyz
  x,y,z
_cell_length_a	16.176319
_cell_length_b	16.992698
_cell_length_c	17.699083
_cell_angle_alpha	86.974978
_cell_angle_beta	89.994467
_cell_angle_gamma	90.005005
loop_
_atom_site_label
_atom_site_type_symbol
_atom_site_fract_x
_atom_site_fract_y
_atom_site_fract_z
O1	O	-0.068765	-1.040087	-0.160444
O2	O	0.431235	-0.540087	0.339556
O3	O	-0.068763	-0.811805	-0.158686
O4	O	0.431237	-0.311805	0.341314
O5	O	-0.068757	-0.932395	-0.049777
O6	O	0.431243	-0.432395	0.450223
O7	O	-0.068771	-0.919496	-0.269353
O8	O	0.431229	-0.419496	0.230647
O9	O	0.068736	-0.932384	-0.049798
O10	O	0.568736	-0.432384	0.450202
O11	O	0.068730	-0.811793	-0.158706
O12	O	0.568730	-0.311793	0.341294
O13	O	0.068728	-1.040075	-0.160464
O14	O	0.568728	-0.540075	0.339536
Cu15	Cu	0.081283	-0.925933	-0.159587
Cu16	Cu	0.581283	-0.425933	0.340413
Cu17	Cu	-0.081318	-0.925947	-0.159563
Cu18	Cu	0.418682	-0.425947	0.340437
O19	O	0.068722	-0.919484	-0.269373
O20	O	0.568722	-0.419484	0.230627
C21	C	-0.000016	-0.782591	-0.156432
C22	C	0.499984	-0.282591	0.343568
C23	C	-0.000015	-0.695559	-0.149675
C24	C	0.499985	-0.195559	0.350325
N25	N	0.195648	-0.925929	-0.159604
N26	N	0.695648	-0.425929	0.340396
N27	N	-0.195684	-0.925957	-0.159541
N28	N	0.304316	-0.425957	0.340459
C29	C	-0.000011	-0.206686	-0.104279
C30	C	0.499989	0.293314	0.395721
C31	C	-0.000007	-0.288460	-0.110633
C32	C	0.499993	0.211540	0.389367
C33	C	-0.000016	-0.319867	-0.182185
C34	C	0.499984	0.180133	0.317815
C35	C	-0.000020	-0.269495	-0.247388
C36	C	0.499980	0.230505	0.252612
C37	C	-0.000018	-0.187722	-0.241033
C38	C	0.499982	0.312278	0.258967
C39	C	-0.000018	-0.563414	-0.208523
C40	C	0.499982	-0.063414	0.291477
C41	C	-0.000022	-0.645193	-0.214873
C42	C	0.499978	-0.145193	0.285127
C43	C	-0.000008	-0.664153	-0.078118
C44	C	0.499992	-0.164153	0.421882
C45	C	-0.000011	-0.582378	-0.071769
C46	C	0.499989	-0.082378	0.428231
C47	C	-0.000010	-0.532013	-0.136971
C48	C	0.499990	-0.032013	0.363029
N49	N	-0.000015	-0.403454	-0.188682
N50	N	0.499985	0.096546	0.311318
N51	N	-0.000006	-0.448428	-0.130474
N52	N	0.499994	0.051572	0.369526
C53	C	0.761042	-0.878496	-0.110745
C54	C	1.261042	-0.378496	0.389255
C55	C	0.674495	-0.878494	-0.110751
C56	C	1.174495	-0.378494	0.389249
C57	C	0.631224	-0.925950	-0.159557
C58	C	1.131224	-0.425950	0.340443
C59	C	0.674504	-0.973416	-0.208354
C60	C	1.174504	-0.473416	0.291646
C61	C	0.761050	-0.973422	-0.208344
C62	C	1.261050	-0.473422	0.291656
C63	C	0.325476	-0.973397	-0.208396
C64	C	0.825476	-0.473397	0.291604
C65	C	0.238924	-0.973386	-0.208404
C66	C	0.738924	-0.473386	0.291596
C67	C	0.238921	-0.878470	-0.110803
C68	C	0.738921	-0.378470	0.389197
C69	C	0.325467	-0.878475	-0.110792
C70	C	0.825467	-0.378475	0.389208
C71	C	0.368739	-0.925944	-0.159587
C72	C	0.868739	-0.425944	0.340413
C73	C	0.462584	-0.925946	-0.159579
C74	C	0.962584	-0.425946	0.340421
C75	C	0.537381	-0.925944	-0.159569
C76	C	1.037381	-0.425944	0.340431
C77	C	-0.000010	-0.931927	-0.021562
C78	C	0.499990	-0.431927	0.478438
C79	C	-0.000010	-0.930541	0.062543
C80	C	0.499990	-0.430541	0.562543
C81	C	-0.000018	-0.069289	-0.162719
C82	C	0.499982	0.430711	0.337281
C83	C	-0.000018	-0.156320	-0.169477
C84	C	0.499982	0.343680	0.330523
C85	C	-0.000027	-0.919952	-0.297589
C86	C	0.499973	-0.419952	0.202411
C87	C	-0.000033	-0.921339	-0.381693
C88	C	0.499967	-0.421339	0.118307
C89	C	-0.000009	-1.001325	0.106757
C90	C	0.499991	-0.501325	0.606757
C91	C	-0.000017	-1.000017	0.185782
C92	C	0.499983	-0.500017	0.685782
C93	C	-0.000019	-0.927925	0.220591
C94	C	0.499981	-0.427925	0.720591
C95	C	-0.000022	-0.857135	0.176370
C96	C	0.499978	-0.357135	0.676370
C97	C	-0.000020	-0.858443	0.097347
C98	C	0.499980	-0.358443	0.597347
C99	C	-0.000028	-0.851857	0.495062
C100	C	0.499972	-0.351857	0.995062
C101	C	-0.000027	-0.850554	0.574091
C102	C	0.499973	-0.350554	1.074091
C103	C	-0.000025	-0.993431	0.583497
C104	C	0.499975	-0.493431	1.083497
C105	C	-0.000023	-0.994739	0.504474
C106	C	0.499977	-0.494739	1.004474
C107	C	-0.000031	-0.923950	0.460260
C108	C	0.499969	-0.423950	0.960260
C109	C	-0.000024	-0.925369	0.374573
C110	C	0.499976	-0.425369	0.874573
C111	C	-0.000019	-0.926505	0.306277
C112	C	0.499981	-0.426505	0.806277
H113	H	-0.000009	-0.181121	-0.046014
H114	H	0.499991	0.318879	0.453986
C115	C	-0.000041	-0.773987	0.446437
C116	C	0.499959	-0.273987	0.946437
N117	N	-0.000053	-0.715331	0.409810
N118	N	0.499947	-0.215331	0.909810
H119	H	0.360694	-0.839829	-0.071053
H120	H	0.860694	-0.339829	0.428947
H121	H	0.639266	-1.012059	-0.248089
H122	H	1.139266	-0.512059	0.251911
H123	H	-0.000022	-0.522416	-0.261616
H124	H	0.499978	-0.022416	0.238384
H125	H	0.796267	-0.839848	-0.071006
H126	H	1.296267	-0.339848	0.428994
C127	C	0.626897	-0.826280	-0.057075
C128	C	1.126897	-0.326280	0.442925
N129	N	0.591047	-0.786949	-0.016645
N130	N	1.091047	-0.286949	0.483355
C131	C	0.191313	-0.826323	-0.057063
C132	C	0.691313	-0.326323	0.442937
N133	N	0.155456	-0.787070	-0.016567
N134	N	0.655456	-0.287070	0.483433
H135	H	-0.000021	-0.800804	0.061348
H136	H	0.499979	-0.300804	0.561348
H137	H	0.000002	-0.329465	-0.057542
H138	H	0.500002	0.170535	0.442458
H139	H	-0.000003	-0.556813	-0.013504
H140	H	0.499997	-0.056813	0.486496
C141	C	-0.000027	-0.304045	-0.326096
C142	C	0.499973	0.195955	0.173904
N143	N	-0.000035	-0.330068	-0.385381
N144	N	0.499965	0.169932	0.114619
C145	C	-0.000007	-1.080633	0.068476
C146	C	0.499993	-0.580633	0.568476
N147	N	-0.000009	-1.140371	0.039644
N148	N	0.499991	-0.640371	0.539644
H149	H	-0.000007	-0.705169	-0.025034
H150	H	0.499993	-0.205169	0.474966
C151	C	0.808651	-1.025629	-0.262026
C152	C	1.308651	-0.525629	0.237974
N153	N	0.844503	-1.064954	-0.302460
N154	N	1.344503	-0.564954	0.197540
H155	H	0.203695	-1.012033	-0.248149
H156	H	0.703695	-0.512033	0.251851
H157	H	-0.000017	-0.670761	-0.273142
H158	H	0.499983	-0.170761	0.226858
H159	H	-0.000014	-1.057657	0.221779
H160	H	0.499986	-0.557657	0.721779
H161	H	0.360698	-1.012049	-0.248128
H162	H	0.860698	-0.512049	0.251872
H163	H	-0.000018	-1.053444	0.476137
H164	H	0.499982	-0.553444	0.976137
C165	C	-0.000036	-0.771243	0.612378
C166	C	0.499964	-0.271243	1.112378
N167	N	-0.000044	-0.711509	0.641216
N168	N	0.499956	-0.211509	1.141216
C169	C	-0.000017	-0.777832	0.214662
C170	C	0.499983	-0.277832	0.714662
N171	N	-0.000007	-0.718100	0.243503
N172	N	0.499993	-0.218100	0.743503
H173	H	-0.000021	-0.146714	-0.294124
H174	H	0.499979	0.353286	0.205876
H175	H	-0.000023	-1.051071	0.619505
H176	H	0.499977	-0.551071	1.119505
