data_functionalizedCrystal
_audit_creation_method	'MofGen! by Chris Wilmer'
_symmetry_space_group_name_H-M	'P1'
_symmetry_Int_Tables_number	1
_symmetry_cell_setting	triclinic
loop_
_symmetry_equiv_pos_as_xyz
  x,y,z
_cell_length_a	21.295418
_cell_length_b	21.295418
_cell_length_c	10.685880
_cell_angle_alpha	85.583143
_cell_angle_beta	94.334267
_cell_angle_gamma	90.043213
loop_
_atom_site_label
_atom_site_type_symbol
_atom_site_fract_x
_atom_site_fract_y
_atom_site_fract_z
Zn1	Zn	-0.277600	0.989673	-0.714102
Zn2	Zn	-0.374818	0.981513	-0.503081
Zn3	Zn	-0.269595	0.876326	-0.503043
Zn4	Zn	-0.382858	0.884365	-0.713952
O5	O	-0.326218	0.932969	-0.608545
O6	O	-0.290481	1.076683	-0.686189
O7	O	-0.354145	0.960780	-0.326496
O8	O	-0.182569	0.891413	-0.531088
O9	O	-0.361907	1.070688	-0.531152
O10	O	-0.188450	0.974688	-0.686152
O11	O	-0.276838	0.883500	-0.326469
O12	O	-0.284634	0.789300	-0.530942
O13	O	-0.375610	0.905114	-0.890552
O14	O	-0.367848	0.795207	-0.685896
O15	O	-0.298277	0.982483	-0.890662
O16	O	-0.463972	0.968575	-0.531006
O17	O	-0.469879	0.897201	-0.685932
C18	C	-0.326245	0.769412	-0.608399
C19	C	-0.326273	0.699443	-0.608367
C20	C	-0.369652	0.669663	-0.688931
C21	C	-0.369638	0.603923	-0.688988
C22	C	-0.326252	0.567964	-0.608458
C23	C	-0.282866	0.597751	-0.527888
C24	C	-0.282876	0.663490	-0.527843
N25	N	-0.317124	0.460468	-0.498092
N26	N	-0.317118	0.398018	-0.498139
C27	C	-0.326217	0.369894	-0.608592
N28	N	-0.335336	0.406579	-0.718999
N29	N	-0.335345	0.469035	-0.718951
C30	C	-0.326236	0.496680	-0.608499
C31	C	-0.369584	0.268832	-0.689224
C32	C	-0.369566	0.203090	-0.689283
C33	C	-0.282796	0.196919	-0.528172
C34	C	-0.282811	0.262660	-0.528125
C35	C	-0.326208	0.298612	-0.608649
C36	C	-0.489767	0.932893	-0.608484
C37	C	-0.559736	0.932920	-0.608501
C38	C	-1.056106	0.970292	-0.528078
C39	C	-0.990363	0.970267	-0.528048
C40	C	-0.960580	0.933061	-0.608633
C41	C	-0.996546	0.895865	-0.689231
C42	C	-1.062288	0.895887	-0.689250
N43	N	-0.861542	0.932394	-0.719046
N44	N	-0.799089	0.932377	-0.719025
C45	C	-0.762503	0.932994	-0.608580
N46	N	-0.790729	0.933640	-0.498155
N47	N	-0.853187	0.933660	-0.498177
C48	C	-0.889294	0.933034	-0.608621
C49	C	-0.655259	0.970157	-0.527949
C50	C	-0.589514	0.970127	-0.527917
C51	C	-0.595699	0.895729	-0.689111
C52	C	-0.661442	0.895755	-0.689131
C53	C	-0.691218	0.932972	-0.608552
C54	C	-0.162031	0.933064	-0.608633
C55	C	-0.092064	0.933104	-0.608670
C56	C	-0.338734	0.945606	-0.937672
C57	C	-0.344067	0.950990	-1.077927
C58	C	-0.326190	1.097165	-0.608691
C59	C	-0.326179	1.167136	-0.608754
C60	C	-0.313705	0.920418	-0.280697
C61	C	-0.308194	0.915155	-0.140444
H62	H	-0.404917	0.298106	-0.754798
C63	C	-0.963789	0.854938	-0.777877
C64	C	-0.978252	0.865521	-0.921341
C65	C	-0.945496	0.824589	-1.009985
C66	C	-0.898277	0.773074	-0.955165
C67	C	-0.883812	0.762489	-0.811694
C68	C	-0.916568	0.803421	-0.723049
H69	H	-1.013208	0.903657	-0.961929
H70	H	-0.956205	0.832425	-1.116193
H71	H	-0.874029	0.742774	-1.020785
H72	H	-0.848856	0.724353	-0.771106
H73	H	-0.905859	0.795585	-0.616842
H74	H	-0.247551	0.687736	-0.462238
C75	C	-0.261188	0.868137	-1.067806
C76	C	-0.267014	0.797254	-1.085747
C77	C	-0.220007	0.750235	-1.013101
C78	C	-0.167175	0.774099	-0.922513
C79	C	-0.161348	0.844985	-0.904568
C80	C	-0.208354	0.892005	-0.977214
H81	H	-0.306125	0.779585	-1.152810
H82	H	-0.224321	0.697760	-1.026386
H83	H	-0.132378	0.739292	-0.868736
H84	H	-0.122237	0.862654	-0.837506
H85	H	-0.204040	0.944480	-0.963930
C86	C	-0.562948	0.854800	-0.777757
C87	C	-0.515733	0.803281	-0.722938
C88	C	-0.482979	0.762348	-0.811583
C89	C	-0.497441	0.772933	-0.955047
C90	C	-0.544658	0.824454	-1.009874
C91	C	-0.577411	0.865387	-0.921228
H92	H	-0.505026	0.795443	-0.616730
H93	H	-0.448026	0.724209	-0.770996
H94	H	-0.473195	0.742632	-1.020668
H95	H	-0.555365	0.832292	-1.116081
H96	H	-0.612365	0.903526	-0.961815
H97	H	-0.378863	0.985795	-1.131708
C98	C	-0.700999	0.854852	-0.777799
C99	C	-0.691638	0.782890	-0.767316
C100	C	-0.731194	0.741983	-0.855986
C101	C	-0.780111	0.773038	-0.955138
C102	C	-0.789474	0.845004	-0.965624
C103	C	-0.749918	0.885911	-0.876955
H104	H	-0.655425	0.759897	-0.693915
H105	H	-0.724263	0.688708	-0.848222
H106	H	-0.809392	0.742756	-1.020776
H107	H	-0.825687	0.867997	-1.039026
H108	H	-0.756849	0.939186	-0.884718
C109	C	-0.417361	0.571155	-0.777604
C110	C	-0.465096	0.610701	-0.866174
C111	C	-0.512820	0.577935	-0.954786
C112	C	-0.512809	0.505624	-0.954829
C113	C	-0.465073	0.466074	-0.866256
C114	C	-0.417349	0.498840	-0.777644
H115	H	-0.465105	0.664233	-0.866145
H116	H	-0.548157	0.607213	-1.020354
H117	H	-0.548137	0.481369	-1.020426
H118	H	-0.465063	0.412541	-0.866285
H119	H	-0.382011	0.469562	-0.712076
C120	C	-0.417284	0.170331	-0.777912
C121	C	-0.465017	0.209880	-0.866480
C122	C	-0.512735	0.177120	-0.955111
C123	C	-0.512722	0.104809	-0.955175
C124	C	-0.464988	0.065255	-0.866605
C125	C	-0.417269	0.098016	-0.777973
H126	H	-0.465028	0.263412	-0.866435
H127	H	-0.548071	0.206400	-1.020677
H128	H	-0.548046	0.080558	-1.020785
H129	H	-0.464976	0.011723	-0.866649
H130	H	-0.381933	0.068735	-0.712407
C131	C	-0.549959	1.011037	-0.439255
C132	C	-0.553584	1.000465	-0.295797
C133	C	-0.514029	1.041376	-0.207134
C134	C	-0.470849	1.092859	-0.261929
C135	C	-0.467223	1.103434	-0.405396
C136	C	-0.506778	1.062523	-0.494059
H137	H	-0.585549	0.962352	-0.255227
H138	H	-0.516714	1.033547	-0.100930
H139	H	-0.441568	1.123144	-0.196296
H140	H	-0.435257	1.141548	-0.445966
H141	H	-0.504093	1.070352	-0.600262
C142	C	-0.235141	0.558199	-0.439302
C143	C	-0.235130	0.485887	-0.439341
C144	C	-0.187402	0.446336	-0.350756
C145	C	-0.139684	0.479096	-0.262132
C146	C	-0.139694	0.551411	-0.262089
C147	C	-0.187422	0.590963	-0.350674
H148	H	-0.270455	0.461633	-0.504949
H149	H	-0.187395	0.392803	-0.350788
H150	H	-0.104353	0.449818	-0.196556
H151	H	-0.104369	0.575666	-0.196481
H152	H	-0.187429	0.644495	-0.350642
C153	C	-0.235069	0.157372	-0.439589
C154	C	-0.235054	0.085061	-0.439635
C155	C	-0.187323	0.045511	-0.351054
C156	C	-0.139607	0.078272	-0.262427
C157	C	-0.139621	0.150586	-0.262377
C158	C	-0.187352	0.190137	-0.350958
H159	H	-0.270377	0.060806	-0.505246
H160	H	-0.187313	-0.008022	-0.351092
H161	H	-0.104274	0.048994	-0.196853
H162	H	-0.104298	0.174841	-0.196766
H163	H	-0.187362	0.243669	-0.350921
H164	H	-0.404988	0.698932	-0.754502
H165	H	-0.247491	0.286906	-0.462514
C166	C	-0.950799	1.011180	-0.439398
C167	C	-0.983551	1.052116	-0.350765
C168	C	-0.943990	1.093029	-0.262117
C169	C	-0.871676	1.093006	-0.262101
C170	C	-0.838920	1.052068	-0.350737
C171	C	-0.878482	1.011155	-0.439385
H172	H	-1.037085	1.052135	-0.350774
H173	H	-0.968238	1.123334	-0.196502
H174	H	-0.842390	1.123292	-0.196478
H175	H	-0.785386	1.052050	-0.350728
H176	H	-0.854233	0.980850	-0.504999
C177	C	-0.688019	1.011084	-0.439300
C178	C	-0.673564	1.000490	-0.295836
C179	C	-0.706324	1.041416	-0.207185
C180	C	-0.753538	1.092935	-0.262000
C181	C	-0.767996	1.103532	-0.405472
C182	C	-0.735236	1.062606	-0.494122
H183	H	-0.638611	0.962350	-0.255252
H184	H	-0.695621	1.033571	-0.100978
H185	H	-0.777789	1.123231	-0.196375
H186	H	-0.802949	1.141672	-0.446055
H187	H	-0.745939	1.070451	-0.600330
H188	H	-1.091565	0.865604	-0.754882
H189	H	-1.080346	1.000595	-0.462460
