data_functionalizedCrystal
_audit_creation_method	'MofGen! by Chris Wilmer'
_symmetry_space_group_name_H-M	'P1'
_symmetry_Int_Tables_number	1
_symmetry_cell_setting	triclinic
loop_
_symmetry_equiv_pos_as_xyz
  x,y,z
_cell_length_a	9.130313
_cell_length_b	10.489689
_cell_length_c	10.654550
_cell_angle_alpha	95.498638
_cell_angle_beta	89.999890
_cell_angle_gamma	90.003435
loop_
_atom_site_label
_atom_site_type_symbol
_atom_site_fract_x
_atom_site_fract_y
_atom_site_fract_z
O1	O	-0.121904	-1.694000	0.176874
O2	O	-0.121883	-1.322787	0.193575
O3	O	-0.121889	-1.516928	0.002488
O4	O	-0.121898	-1.499859	0.367962
O5	O	0.121710	-1.516926	0.002493
O6	O	0.121716	-1.322785	0.193580
O7	O	0.121695	-1.693997	0.176880
Cu8	Cu	0.143948	-1.508391	0.185230
Cu9	Cu	-0.144136	-1.508394	0.185224
O10	O	0.121700	-1.499856	0.367967
C11	C	-0.000081	-1.275254	0.192330
C12	C	-0.000073	-1.133623	0.188598
N13	N	0.346571	-1.508398	0.185234
N14	N	-0.346759	-1.508396	0.185211
C15	C	-0.000087	-0.951179	0.303517
C16	C	-0.120193	-1.043355	0.246111
C17	C	0.119977	-1.043325	0.246085
C18	C	-0.120301	-0.973462	0.124479
C19	C	0.119977	-0.973423	0.124470
C20	C	-0.000159	-1.065571	0.066976
C21	C	0.423220	-1.594386	0.100650
C22	C	0.576557	-1.594383	0.100634
C23	C	0.576581	-1.422399	0.269799
C24	C	0.423247	-1.422398	0.269807
C25	C	0.346543	-1.680387	0.016076
C26	C	0.423193	-1.766383	-0.068514
C27	C	0.576530	-1.766379	-0.068529
C28	C	0.653217	-1.680380	0.016046
C29	C	-0.000102	-0.741528	0.178144
C30	C	-0.000095	-0.883152	0.181936
C31	C	-0.000091	-1.515674	-0.044308
C32	C	-0.000096	-1.511924	-0.183752
C33	C	-0.000098	-1.626231	-0.263205
C34	C	-0.000108	-1.622700	-0.394227
C35	C	-0.000107	-1.390545	-0.366330
C36	C	-0.000108	-1.394077	-0.235311
C37	C	-0.000086	-1.744078	-0.211647
C38	C	-0.000086	-1.858395	-0.291102
C39	C	-0.000096	-1.854864	-0.422123
C40	C	-0.000106	-1.737016	-0.473691
C41	C	-0.000101	-1.501111	0.414762
C42	C	-0.000105	-1.504861	0.554207
H43	H	-0.221731	-1.074326	0.297556
H44	H	0.639030	-1.352383	0.338658
O45	O	-0.241732	-0.936888	0.063283
C46	C	-0.505489	-0.931680	0.057699
C47	C	-0.368093	-0.973199	0.127101
H48	H	-0.607687	-0.960996	0.109282
H49	H	-0.506024	-0.979947	-0.042830
H50	H	-0.504463	-0.823263	0.055310
H51	H	-0.369029	-1.081601	0.129586
H52	H	-0.367611	-0.924839	0.227593
H53	H	-0.000207	-0.901440	0.403457
O54	O	0.241073	-1.080054	0.307644
C55	C	0.377835	-1.063107	0.501958
C56	C	0.240662	-1.021392	0.432374
H57	H	0.377532	-1.015719	0.602823
H58	H	0.480242	-1.032935	0.451196
H59	H	0.377229	-1.171637	0.503385
H60	H	0.241125	-0.912868	0.430927
H61	H	0.138315	-1.051658	0.483159
H62	H	-0.000218	-1.115077	-0.033056
H63	H	0.778074	-1.680376	0.016018
O64	O	0.348573	-1.849717	-0.150766
C65	C	0.175593	-1.875291	-0.322143
C66	C	0.259958	-1.780789	-0.229015
H67	H	0.103951	-1.819600	-0.385449
H68	H	0.103684	-1.939508	-0.267441
H69	H	0.256781	-1.936738	-0.382543
H70	H	0.178876	-1.719258	-0.168592
H71	H	0.331889	-1.716660	-0.283793
H72	H	0.221524	-0.942424	0.073071
H73	H	0.221689	-1.680400	0.016083
H74	H	0.638936	-1.836391	-0.137414
O75	O	-0.000345	-1.972896	-0.241073
C76	C	-0.126512	-2.172431	-0.224882
C77	C	-0.126413	-2.042789	-0.281595
H78	H	-0.228411	-2.228987	-0.257643
H79	H	-0.126598	-2.155397	-0.117585
H80	H	-0.024525	-2.228923	-0.257504
H81	H	-0.228383	-1.986229	-0.249071
H82	H	-0.126251	-2.059913	-0.388885
H83	H	0.360839	-1.352377	0.338682
H84	H	-0.000073	-1.746966	-0.104964
H85	H	-0.000111	-1.947945	-0.486812
H86	H	-0.000129	-1.734150	-0.580379
H87	H	-0.000113	-1.294599	-0.408327
H88	H	-0.000104	-1.300998	-0.170617
