data_functionalizedCrystal
_audit_creation_method	'MofGen! by Chris Wilmer'
_symmetry_space_group_name_H-M	'P1'
_symmetry_Int_Tables_number	1
_symmetry_cell_setting	triclinic
loop_
_symmetry_equiv_pos_as_xyz
  x,y,z
_cell_length_a	23.532407
_cell_length_b	23.532407
_cell_length_c	13.101018
_cell_angle_alpha	93.329207
_cell_angle_beta	86.664201
_cell_angle_gamma	82.848713
loop_
_atom_site_label
_atom_site_type_symbol
_atom_site_fract_x
_atom_site_fract_y
_atom_site_fract_z
O1	O	0.758410	0.065980	-0.085104
O2	O	1.258410	0.565980	0.414896
O3	O	0.592548	0.075982	-0.085137
O4	O	1.092548	0.575982	0.414863
O5	O	0.680479	-0.011949	-0.085091
O6	O	1.180479	0.488051	0.414909
O7	O	0.670478	0.153912	-0.085150
O8	O	1.170478	0.653912	0.414850
O9	O	0.674163	-0.005635	0.085336
O10	O	1.174163	0.494365	0.585336
O11	O	0.586231	0.082297	0.085290
O12	O	1.086231	0.582297	0.585290
O13	O	0.752094	0.072295	0.085323
O14	O	1.252094	0.572295	0.585323
Zn15	Zn	0.668160	0.078298	0.112365
Zn16	Zn	1.168160	0.578298	0.612365
Zn17	Zn	0.676482	0.069979	-0.112180
Zn18	Zn	1.176482	0.569979	0.387820
O19	O	0.664162	0.160226	0.085277
O20	O	1.164162	0.660226	0.585277
C21	C	0.677066	-0.030008	0.000128
C22	C	1.177066	0.469992	0.500128
C23	C	0.676300	-0.093224	0.000143
C24	C	1.176300	0.406776	0.500143
C25	C	0.568174	0.078885	0.000073
C26	C	1.068174	0.578885	0.500073
C27	C	0.504957	0.078118	0.000062
C28	C	1.004957	0.578118	0.500062
C29	C	0.621107	-0.359395	0.000068
C30	C	1.121107	0.140605	0.500068
C31	C	0.621818	-0.299994	0.000076
C32	C	1.121818	0.200006	0.500076
O33	O	0.578034	-0.263251	0.000035
O34	O	1.078034	0.236749	0.500035
N35	N	0.674094	-0.277367	0.000098
N36	N	1.174094	0.222633	0.500098
C37	C	0.725662	-0.314144	0.000102
C38	C	1.225662	0.185856	0.500102
O39	O	0.770192	-0.289444	0.000121
O40	O	1.270192	0.210556	0.500121
C41	C	0.724950	-0.373544	0.000087
C42	C	1.224950	0.126456	0.500087
C43	C	0.672671	-0.396167	0.000075
C44	C	1.172671	0.103833	0.500075
C45	C	0.568832	-0.382018	0.000055
C46	C	1.068832	0.117982	0.500055
C47	C	0.568121	-0.441415	0.000049
C48	C	1.068121	0.058585	0.500049
C49	C	0.619685	-0.478187	0.000056
C50	C	1.119685	0.021813	0.500056
C51	C	0.671960	-0.455564	0.000069
C52	C	1.171960	0.044436	0.500069
C53	C	0.776518	-0.410321	0.000083
C54	C	1.276518	0.089679	0.500083
C55	C	0.775802	-0.469724	0.000067
C56	C	1.275802	0.030276	0.500067
C57	C	0.723523	-0.492347	0.000055
C58	C	1.223523	0.007653	0.500055
C59	C	0.722813	-0.551733	0.000070
C60	C	1.222813	-0.051733	0.500070
N61	N	0.670538	-0.574360	0.000048
N62	N	1.170538	-0.074360	0.500048
C63	C	0.618974	-0.537587	0.000041
C64	C	1.118974	-0.037587	0.500041
C65	C	0.727152	-0.189401	0.000133
C66	C	1.227152	0.310599	0.500133
C67	C	0.727864	-0.130002	0.000155
C68	C	1.227864	0.369998	0.500155
C69	C	0.624020	-0.115856	0.000128
C70	C	1.124020	0.384144	0.500128
C71	C	0.623309	-0.175255	0.000112
C72	C	1.123309	0.324745	0.500112
C73	C	0.674877	-0.212028	0.000110
C74	C	1.174877	0.287972	0.500110
C75	C	0.617484	-0.662324	0.000029
C76	C	1.117484	-0.162324	0.500029
C77	C	0.616778	-0.721726	0.000027
C78	C	1.116778	-0.221726	0.500027
C79	C	0.720622	-0.735868	0.000049
C80	C	1.220622	-0.235868	0.500049
C81	C	0.721328	-0.676470	0.000057
C82	C	1.221328	-0.176470	0.500057
C83	C	0.669755	-0.639700	0.000043
C84	C	1.169755	-0.139700	0.500043
O85	O	0.766575	-0.588510	0.000106
O86	O	1.266575	-0.088510	0.500106
O87	O	0.574452	-0.562296	0.000009
O88	O	1.074452	-0.062296	0.500009
C89	C	0.105853	0.125353	0.000091
C90	C	0.605853	0.625353	0.500091
C91	C	0.046452	0.124642	0.000098
C92	C	0.546452	0.624642	0.500098
O93	O	0.009707	0.168428	0.000119
O94	O	0.509707	0.668428	0.500119
N95	N	0.023826	0.072366	0.000115
N96	N	0.523826	0.572366	0.500115
C97	C	0.060602	0.020799	0.000136
C98	C	0.560602	0.520799	0.500136
O99	O	0.035902	-0.023731	0.000152
O100	O	0.535902	0.476269	0.500152
C101	C	0.120001	0.021511	0.000136
C102	C	0.620001	0.521511	0.500136
C103	C	0.142625	0.073789	0.000109
C104	C	0.642625	0.573789	0.500109
C105	C	0.128477	0.177627	0.000065
C106	C	0.628477	0.677627	0.500065
C107	C	0.187874	0.178338	0.000056
C108	C	0.687874	0.678338	0.500056
C109	C	0.224646	0.126775	0.000074
C110	C	0.724646	0.626775	0.500074
C111	C	0.202022	0.074500	0.000101
C112	C	0.702022	0.574500	0.500101
C113	C	0.156777	-0.030056	0.000165
C114	C	0.656777	0.469944	0.500165
C115	C	0.216179	-0.029339	0.000166
C116	C	0.716179	0.470661	0.500166
C117	C	0.238803	0.022939	0.000139
C118	C	0.738803	0.522939	0.500139
C119	C	0.298190	0.023648	0.000110
C120	C	0.798190	0.523648	0.500110
N121	N	0.320817	0.075923	0.000093
N122	N	0.820817	0.575923	0.500093
C123	C	0.284045	0.127487	0.000075
C124	C	0.784045	0.627487	0.500075
C125	C	-0.064140	0.019307	0.000136
C126	C	0.435860	0.519307	0.500136
C127	C	-0.123538	0.018594	0.000128
C128	C	0.376462	0.518594	0.500128
C129	C	-0.137684	0.122438	0.000092
C130	C	0.362316	0.622438	0.500092
C131	C	-0.078285	0.123150	0.000092
C132	C	0.421715	0.623150	0.500092
C133	C	-0.041513	0.071583	0.000119
C134	C	0.458487	0.571583	0.500119
C135	C	0.408782	0.128976	0.000057
C136	C	0.908782	0.628976	0.500057
C137	C	0.468185	0.129682	0.000044
C138	C	0.968185	0.629682	0.500044
C139	C	0.482325	0.025839	0.000085
C140	C	0.982325	0.525839	0.500085
C141	C	0.422928	0.025132	0.000093
C142	C	0.922928	0.525132	0.500093
C143	C	0.386157	0.076705	0.000082
C144	C	0.886157	0.576705	0.500082
O145	O	0.334970	-0.020116	0.000093
O146	O	0.834970	0.479884	0.500093
O147	O	0.308753	0.172010	0.000073
O148	O	0.808753	0.672010	0.500073
C149	C	0.776468	0.069392	0.000111
C150	C	1.276468	0.569392	0.500111
C151	C	0.839685	0.070158	0.000115
C152	C	1.339685	0.570158	0.500115
C153	C	0.667575	0.178285	0.000056
C154	C	1.167575	0.678285	0.500056
C155	C	0.668342	0.241501	0.000034
C156	C	1.168342	0.741501	0.500034
N157	N	0.662484	0.083976	0.265611
N158	N	1.162484	0.583976	0.765611
N159	N	0.682161	0.064297	-0.265426
N160	N	1.182161	0.564297	0.234574
C161	C	0.689880	0.056570	0.525535
C162	C	1.189880	0.556570	1.025535
C163	C	0.654768	0.091701	0.474644
C164	C	1.154768	0.591701	0.974644
C165	C	0.659062	0.087402	0.358327
C166	C	1.159062	0.587402	0.858327
C167	C	0.685586	0.060868	0.641862
C168	C	1.185586	0.560868	1.141862
H169	H	0.574204	-0.740142	0.000022
H170	H	1.074204	-0.240142	0.500022
N171	N	-0.147939	-0.037790	0.000145
N172	N	0.352061	0.462210	0.500145
H173	H	-0.132171	-0.062706	-0.063024
H174	H	0.367829	0.437294	0.436976
H175	H	-0.136838	-0.057976	0.063372
H176	H	0.363162	0.442024	0.563372
N177	N	0.733976	0.012456	0.467559
N178	N	1.233976	0.512456	0.967559
H179	H	0.726947	-0.027248	0.486179
H180	H	1.226947	0.472752	0.986179
H181	H	0.730817	0.015646	0.391500
H182	H	1.230817	0.515646	0.891500
H183	H	0.621482	0.125007	0.518432
H184	H	1.121482	0.625007	1.018432
N185	N	0.561861	-0.622670	0.000013
N186	N	1.061861	-0.122670	0.500013
H187	H	0.528641	-0.646023	0.000005
H188	H	1.028641	-0.146023	0.500005
H189	H	0.557550	-0.595385	0.063196
H190	H	1.057550	-0.095385	0.563196
H191	H	0.138368	-0.072627	0.000188
H192	H	0.638368	0.427373	0.500188
N193	N	0.369122	0.184595	0.000036
N194	N	0.869122	0.684595	0.500036
H195	H	0.341826	0.188958	0.063216
H196	H	0.841826	0.688958	0.563216
H197	H	0.392510	0.217785	-0.000022
H198	H	0.892510	0.717785	0.499978
N199	N	0.255839	-0.084959	0.000201
N200	N	0.755839	0.415041	0.500201
H201	H	0.232490	-0.118181	0.000220
H202	H	0.732490	0.381819	0.500220
H203	H	0.283130	-0.089272	-0.062979
H204	H	0.783130	0.410728	0.437021
H205	H	0.769147	-0.219338	0.000138
H206	H	1.269147	0.280662	0.500138
N207	N	0.398517	-0.031249	0.000112
N208	N	0.898517	0.468751	0.500112
H209	H	0.414278	-0.056167	-0.063058
H210	H	0.914278	0.443833	0.436942
H211	H	0.409617	-0.051436	0.063338
H212	H	0.909617	0.448564	0.563338
N213	N	0.521992	-0.029774	0.000105
N214	N	1.021992	0.470226	0.500105
H215	H	0.563053	-0.021386	0.000102
H216	H	1.063053	0.478614	0.500102
H217	H	0.512362	-0.050226	0.063299
H218	H	1.012362	0.449774	0.563299
H219	H	0.817796	-0.499662	0.000060
H220	H	1.317796	0.000338	0.500060
N221	N	0.777714	-0.652068	0.000092
N222	N	1.277714	-0.152068	0.500092
H223	H	0.777979	-0.625408	0.063275
H224	H	1.277979	-0.125408	0.563275
H225	H	0.810236	-0.684414	0.000066
H226	H	1.310236	-0.184414	0.500066
H227	H	0.580738	-0.193670	0.000107
H228	H	1.080738	0.306330	0.500107
H229	H	0.525550	-0.459829	0.000031
H230	H	1.025550	0.040171	0.500031
N231	N	-0.053892	0.179539	0.000073
N232	N	0.446108	0.679539	0.500073
H233	H	-0.031903	0.184493	0.063251
H234	H	0.468097	0.684493	0.563251
H235	H	-0.027251	0.179776	-0.063146
H236	H	0.472749	0.679776	0.436854
N237	N	0.513212	-0.342362	0.000046
N238	N	1.013212	0.157638	0.500046
H239	H	0.479994	-0.365716	0.000035
H240	H	0.979994	0.134284	0.500035
H241	H	0.508901	-0.315080	0.063233
H242	H	1.008901	0.184920	0.563233
N243	N	0.832909	-0.385937	0.000092
N244	N	1.332909	0.114063	0.500092
H245	H	0.857818	-0.401705	-0.063088
H246	H	1.357818	0.098295	0.436912
H247	H	0.825501	-0.342729	0.000137
H248	H	1.325501	0.157271	0.500137
N249	N	0.568404	-0.076187	0.000102
N250	N	1.068404	0.423813	0.500102
H251	H	0.535176	-0.099528	0.000087
H252	H	1.035176	0.400472	0.500087
H253	H	0.564096	-0.048901	0.063283
H254	H	1.064096	0.451099	0.563283
N255	N	0.784249	-0.105604	0.000190
N256	N	1.284249	0.394396	0.500190
H257	H	0.816804	-0.137917	0.000195
H258	H	1.316804	0.362083	0.500195
H259	H	0.789153	-0.083599	-0.062985
H260	H	1.289153	0.416401	0.437015
H261	H	0.762603	-0.765818	0.000060
H262	H	1.262603	-0.265818	0.500060
H263	H	0.486601	0.172255	0.000021
H264	H	0.986601	0.672255	0.500021
H265	H	0.206288	0.220909	0.000034
H266	H	0.706288	0.720909	0.500034
N267	N	0.088819	0.233249	0.000104
N268	N	0.588819	0.733249	0.500104
H269	H	0.112173	0.266468	0.000106
H270	H	0.612173	0.766468	0.500106
H271	H	0.066189	0.232900	-0.063060
H272	H	0.566189	0.732900	0.436940
N273	N	-0.177338	0.178065	0.000094
N274	N	0.322662	0.678065	0.500094
H275	H	-0.199967	0.177757	-0.063076
H276	H	0.300033	0.677757	0.436924
H277	H	-0.204594	0.182392	0.063321
H278	H	0.295406	0.682392	0.563321
N279	N	-0.024481	-0.036315	0.000159
N280	N	0.475519	0.463685	0.500159
H281	H	-0.047833	-0.069536	0.000169
H282	H	0.452167	0.430464	0.500169
H283	H	0.002811	-0.040626	-0.063019
H284	H	0.502811	0.459374	0.436981
