data_functionalizedCrystal
_audit_creation_method	'MofGen! by Chris Wilmer'
_symmetry_space_group_name_H-M	'P1'
_symmetry_Int_Tables_number	1
_symmetry_cell_setting	triclinic
loop_
_symmetry_equiv_pos_as_xyz
  x,y,z
_cell_length_a	16.109301
_cell_length_b	14.853576
_cell_length_c	14.586319
_cell_angle_alpha	89.999126
_cell_angle_beta	90.003133
_cell_angle_gamma	83.549982
loop_
_atom_site_label
_atom_site_type_symbol
_atom_site_fract_x
_atom_site_fract_y
_atom_site_fract_z
O1	O	1.103300	0.115875	0.076180
O2	O	0.861259	0.130296	0.076194
O3	O	0.988741	-0.008154	0.076183
O4	O	0.975818	0.254326	0.076191
O5	O	0.988726	-0.008146	-0.076297
O6	O	0.861243	0.130304	-0.076286
O7	O	1.103285	0.115883	-0.076301
Cu8	Cu	0.982263	0.123095	-0.090216
Cu9	Cu	0.982281	0.123085	0.090110
O10	O	0.975803	0.254334	-0.076289
C11	C	0.830275	0.129716	-0.000044
C12	C	0.737978	0.127965	-0.000039
C13	C	0.515817	0.206046	-0.000047
C14	C	0.429094	0.204394	-0.000053
C15	C	0.448733	0.040127	-0.000054
C16	C	0.535454	0.041780	-0.000055
C17	C	0.568994	0.124743	-0.000046
C18	C	0.395550	0.121437	-0.000052
C19	C	0.301521	0.119644	-0.000058
C20	C	0.663028	0.126536	-0.000042
C21	C	0.988147	-0.041738	-0.000056
C22	C	0.986388	-0.141818	-0.000053
C23	C	0.985569	-0.188836	0.083069
C24	C	0.985561	-0.188841	-0.083172
C25	C	0.983914	-0.282872	-0.083172
C26	C	0.983095	-0.329890	-0.000050
C27	C	0.983923	-0.282877	0.083071
C28	C	0.983093	-0.329894	-0.166292
C29	C	0.981446	-0.423931	-0.166295
C30	C	0.980621	-0.470950	-0.083173
C31	C	0.981449	-0.423931	-0.000048
C32	C	0.980630	-0.470949	0.083074
C33	C	0.981452	-0.423930	0.166200
C34	C	0.983098	-0.329896	0.166194
C35	C	0.978975	-0.564984	-0.083167
C36	C	0.978985	-0.564989	0.083076
C37	C	1.134268	0.116463	-0.000060
C38	C	1.226566	0.118215	-0.000059
C39	C	0.976397	0.287917	-0.000048
C40	C	0.978156	0.387998	-0.000045
N41	N	0.982256	0.123101	-0.217048
C42	C	1.032757	0.177783	-0.452056
C43	C	1.032766	0.177777	-0.548037
C44	C	0.931791	0.068383	-0.548044
C45	C	0.931788	0.068385	-0.452064
C46	C	0.982269	0.123090	-0.404073
C47	C	0.982281	0.123082	-0.596033
C48	C	0.982290	0.123075	-0.700101
C49	C	0.982261	0.123096	-0.299999
N50	N	0.982295	0.123071	0.216942
H51	H	0.578753	-0.024431	-0.000057
O52	O	1.081787	0.230822	-0.594789
C53	C	1.126515	0.279338	-0.742646
C54	C	1.070969	0.219205	-0.689814
H55	H	1.117775	0.269981	-0.819482
H56	H	1.194774	0.259258	-0.723830
H57	H	1.108073	0.353351	-0.723726
H58	H	1.089336	0.145175	-0.708705
H59	H	1.002723	0.239362	-0.708634
O60	O	0.978143	-0.610513	-0.163986
C61	C	0.978372	-0.600598	-0.328876
C62	C	0.979298	-0.548923	-0.237410
H63	H	0.979324	-0.550828	-0.388263
H64	H	0.919449	-0.636331	-0.333100
H65	H	1.035724	-0.652910	-0.332975
H66	H	0.921986	-0.496568	-0.233250
H67	H	1.038258	-0.513252	-0.233225
H68	H	0.980776	-0.462205	-0.233981
H69	H	0.978311	-0.603264	0.150765
O70	O	1.081875	0.230940	-0.405578
C71	C	1.181994	0.339479	-0.415706
C72	C	1.126420	0.279308	-0.468452
H73	H	1.218011	0.378614	-0.466517
H74	H	1.227911	0.295194	-0.370789
H75	H	1.141152	0.389224	-0.370753
H76	H	1.167196	0.229554	-0.513455
H77	H	1.080498	0.323650	-0.513311
O78	O	0.548498	0.286576	-0.000167
C79	C	0.634967	0.383801	-0.079189
C80	C	0.598030	0.292560	-0.079154
H81	H	0.675007	0.388677	-0.143053
H82	H	0.675133	0.388696	-0.015419
H83	H	0.582047	0.441612	-0.079147
H84	H	0.650897	0.234697	-0.079229
H85	H	0.557842	0.287744	-0.142919
H86	H	0.986235	-0.150549	0.150748
O87	O	0.416110	-0.040435	0.000109
C88	C	0.329561	-0.137610	0.079084
C89	C	0.366465	-0.046350	0.079020
H90	H	0.289401	-0.142413	0.142866
H91	H	0.382433	-0.195474	0.079141
H92	H	0.289481	-0.142477	0.015243
H93	H	0.406535	-0.041394	0.142849
H94	H	0.313553	0.011470	0.078915
O95	O	0.986207	-0.143101	-0.163882
C96	C	0.916108	-0.026647	-0.260312
C97	C	0.915269	-0.078401	-0.168883
H98	H	0.858770	0.025688	-0.264376
H99	H	0.915176	-0.076345	-0.319764
H100	H	0.975042	0.009073	-0.264453
H101	H	0.856345	-0.114123	-0.164652
H102	H	0.916245	-0.028660	-0.109473
O103	O	0.980619	-0.469742	0.246860
C104	C	0.978148	-0.614626	0.320522
C105	C	0.979070	-0.562850	0.229113
H106	H	0.976913	-0.689915	0.306206
H107	H	0.920318	-0.587950	0.361524
H108	H	1.036596	-0.604342	0.361515
H109	H	0.920661	-0.573111	0.188047
H110	H	1.036938	-0.589535	0.188180
H111	H	0.983767	-0.291606	-0.233965
H112	H	0.890690	0.023845	-0.587130
H113	H	0.983771	-0.291605	0.233870
H114	H	0.890674	0.023843	-0.412995
H115	H	0.385801	0.270599	-0.000055
