data_functionalizedCrystal
_audit_creation_method	'MofGen! by Chris Wilmer'
_symmetry_space_group_name_H-M	'P1'
_symmetry_Int_Tables_number	1
_symmetry_cell_setting	triclinic
loop_
_symmetry_equiv_pos_as_xyz
  x,y,z
_cell_length_a	27.731996
_cell_length_b	10.654550
_cell_length_c	9.730223
_cell_angle_alpha	90.007970
_cell_angle_beta	89.991235
_cell_angle_gamma	96.446855
loop_
_atom_site_label
_atom_site_type_symbol
_atom_site_fract_x
_atom_site_fract_y
_atom_site_fract_z
O1	O	0.067886	-1.664955	-0.114423
O2	O	0.567886	-1.164955	0.385577
O3	O	0.074354	-1.299201	-0.114403
O4	O	0.574354	-0.799201	0.385597
O5	O	0.000792	-1.493472	-0.114384
O6	O	0.500792	-0.993472	0.385616
O7	O	0.141448	-1.470684	-0.114442
O8	O	0.641448	-0.970684	0.385558
O9	O	0.000793	-1.493454	0.114196
O10	O	0.500793	-0.993454	0.614196
O11	O	0.074354	-1.299184	0.114177
O12	O	0.574354	-0.799184	0.614177
O13	O	0.067886	-1.664938	0.114157
O14	O	0.567886	-1.164938	0.614157
Zn15	Zn	0.071120	-1.482058	0.150459
Zn16	Zn	0.571120	-0.982058	0.650459
Zn17	Zn	0.071120	-1.482081	-0.150705
Zn18	Zn	0.571120	-0.982081	0.349295
O19	O	0.141448	-1.470667	0.114138
O20	O	0.641448	-0.970667	0.614138
C21	C	0.073879	-1.252415	-0.000110
C22	C	0.573879	-0.752415	0.499890
C23	C	0.072458	-1.113032	-0.000101
C24	C	0.572458	-0.613032	0.499899
C25	C	-0.017218	-1.492995	-0.000089
C26	C	0.482782	-0.992995	0.499911
C27	C	-0.070883	-1.491585	-0.000075
C28	C	0.429117	-0.991585	0.499925
C29	C	0.068361	-1.711724	-0.000139
C30	C	0.568361	-1.211724	0.499861
C31	C	0.069782	-1.851107	-0.000157
C32	C	0.569782	-1.351107	0.499843
C33	C	-0.403655	-1.482724	-0.124740
C34	C	0.096345	-0.982724	0.375260
C35	C	-0.605346	-1.477370	-0.124764
C36	C	-0.105346	-0.977370	0.375236
O37	O	-0.631422	-1.476631	-0.230732
O38	O	-0.131422	-0.976631	0.269268
N39	N	-0.630567	-1.476695	-0.000167
N40	N	-0.130567	-0.976695	0.499833
C41	C	-0.605362	-1.477351	0.124446
C42	C	-0.105362	-0.977351	0.624446
O43	O	-0.631441	-1.476642	0.230424
O44	O	-0.131441	-0.976642	0.730424
C45	C	-0.403671	-1.482696	0.124468
C46	C	0.096329	-0.982696	0.624468
C47	C	-0.378453	-1.483383	-0.000137
C48	C	0.121547	-0.983383	0.499863
C49	C	-0.378437	-1.483409	-0.249336
C50	C	0.121563	-0.983409	0.250664
C51	C	-0.328017	-1.484755	-0.249329
C52	C	0.171983	-0.984755	0.250671
C53	C	-0.302815	-1.485414	-0.124726
C54	C	0.197185	-0.985414	0.375274
C55	C	-0.328033	-1.484729	-0.000130
C56	C	0.171967	-0.984729	0.499870
C57	C	-0.378466	-1.483343	0.249080
C58	C	0.121534	-0.983343	0.749080
C59	C	-0.328040	-1.484676	0.249074
C60	C	0.171960	-0.984676	0.749074
C61	C	-0.302822	-1.485363	0.124468
C62	C	0.197178	-0.985363	0.624468
C63	C	-0.252412	-1.486734	0.124480
C64	C	0.247588	-0.986734	0.624480
N65	N	-0.227191	-1.487408	-0.000118
N66	N	0.272809	-0.987408	0.499882
C67	C	-0.252393	-1.486748	-0.124721
C68	C	0.247607	-0.986748	0.375279
C69	C	-0.711253	-1.474547	0.124425
C70	C	-0.211253	-0.974547	0.624425
C71	C	-0.761675	-1.473213	0.124420
C72	C	-0.261675	-0.973213	0.624420
C73	C	-0.761656	-1.473230	-0.124791
C74	C	-0.261656	-0.973230	0.375209
C75	C	-0.711233	-1.474573	-0.124784
C76	C	-0.211233	-0.974573	0.375216
C77	C	-0.686032	-1.475222	-0.000172
C78	C	-0.186032	-0.975222	0.499828
C79	C	-0.146508	-1.489575	-0.124696
C80	C	0.353492	-0.989575	0.375304
C81	C	-0.096084	-1.490925	-0.124678
C82	C	0.403916	-0.990925	0.375322
C83	C	-0.096108	-1.490902	0.124532
C84	C	0.403892	-0.990902	0.624532
C85	C	-0.146527	-1.489559	0.124515
C86	C	0.353473	-0.989559	0.624515
C87	C	-0.171726	-1.488890	-0.000111
C88	C	0.328274	-0.988890	0.499889
O89	O	-0.226305	-1.487458	0.230392
O90	O	0.273695	-0.987458	0.730392
O91	O	-0.226303	-1.487430	-0.230682
O92	O	0.273697	-0.987430	0.269318
C93	C	-0.454074	-1.481378	-0.124748
C94	C	0.045926	-0.981378	0.375252
C95	C	-0.479292	-1.480693	-0.000152
C96	C	0.020708	-0.980693	0.499848
C97	C	-0.454090	-1.481352	0.124451
C98	C	0.045910	-0.981352	0.624451
C99	C	-0.529715	-1.479359	-0.000157
C100	C	-0.029715	-0.979359	0.499843
C101	C	-0.554916	-1.478699	-0.124760
C102	C	-0.054916	-0.978699	0.375240
C103	C	-0.529695	-1.479373	-0.249358
C104	C	-0.029695	-0.979373	0.250642
C105	C	-0.479276	-1.480719	-0.249351
C106	C	0.020724	-0.980719	0.250649
C107	C	-0.479311	-1.480678	0.249049
C108	C	0.020689	-0.980678	0.749049
C109	C	-0.529731	-1.479334	0.249031
C110	C	-0.029731	-0.979334	0.749031
C111	C	-0.554933	-1.478674	0.124428
C112	C	-0.054933	-0.978674	0.624428
C113	C	0.159458	-1.471144	-0.000160
C114	C	0.659458	-0.971144	0.499840
C115	C	0.213123	-1.472554	-0.000183
C116	C	0.713123	-0.972554	0.499817
N117	N	0.071121	-1.482052	0.355996
N118	N	0.571121	-0.982052	0.855996
C119	C	0.115770	-1.031705	-0.000139
C120	C	0.615770	-0.531705	0.499861
C121	C	0.114432	-0.900741	-0.000162
C122	C	0.614432	-0.400741	0.499838
C123	C	0.026467	-0.932445	-0.000115
C124	C	0.526467	-0.432445	0.499885
C125	C	0.027805	-1.063406	-0.000082
C126	C	0.527805	-0.563406	0.499918
C127	C	0.160423	-1.081331	-0.000157
C128	C	0.660423	-0.581331	0.499843
C129	C	0.203739	-1.000002	-0.000197
C130	C	0.703739	-0.500002	0.499803
C131	C	0.202401	-0.869038	-0.000220
C132	C	0.702401	-0.369038	0.499780
C133	C	0.157747	-0.819403	-0.000204
C134	C	0.657747	-0.319403	0.499796
N135	N	0.071116	-1.482097	-0.356241
N136	N	0.571116	-0.982097	0.143759
C137	C	0.103679	-1.396018	0.427948
C138	C	0.603679	-0.896018	0.927948
C139	C	0.103678	-1.396044	0.571831
C140	C	0.603678	-0.896044	1.071831
C141	C	0.038556	-1.568140	0.571796
C142	C	0.538556	-1.068140	1.071796
C143	C	0.038560	-1.568119	0.427916
C144	C	0.538560	-1.068119	0.927916
C145	C	0.136240	-1.309951	0.356028
C146	C	0.636240	-0.809951	0.856028
C147	C	0.168801	-1.223909	0.427981
C148	C	0.668801	-0.723909	0.927981
C149	C	0.168800	-1.223935	0.571864
C150	C	0.668800	-0.723935	1.071864
C151	C	0.136238	-1.310001	0.643794
C152	C	0.636238	-0.810001	1.143794
H153	H	-0.075554	-1.491488	-0.226151
H154	H	0.424446	-0.991488	0.273849
H155	H	0.195314	-1.153844	0.369409
H156	H	0.695314	-0.653844	0.869409
F157	F	0.251259	-1.052829	-0.000201
F158	F	0.751259	-0.552829	0.499799
H159	H	-0.007463	-1.129626	-0.000055
H160	H	0.492537	-0.629626	0.499945
H161	H	-0.167019	-1.489024	-0.226178
H162	H	0.332981	-0.989024	0.273822
F163	F	0.003903	-1.659729	0.648352
F164	F	0.503903	-1.159729	1.148352
H165	H	-0.782184	-1.472694	-0.226247
H166	H	-0.282184	-0.972694	0.273753
H167	H	-0.307489	-1.485309	-0.350796
H168	H	0.192511	-0.985309	0.149204
F169	F	0.003908	-1.659690	0.351337
F170	F	0.503908	-1.159690	0.851337
F171	F	-0.684437	-1.475232	0.257063
F172	F	-0.184437	-0.975232	0.757063
F173	F	-0.021053	-0.879614	-0.000102
F174	F	0.478947	-0.379614	0.499898
F175	F	0.248500	-0.782485	-0.000249
F176	F	0.748500	-0.282485	0.499751
F177	F	-0.405250	-1.482706	-0.381968
F178	F	0.094750	-0.982706	0.118032
F179	F	-0.556565	-1.478611	0.381664
F180	F	-0.056565	-0.978611	0.881664
H181	H	-0.690704	-1.475130	-0.226249
H182	H	-0.190704	-0.975130	0.273751
F183	F	-0.788510	-1.472505	0.257043
F184	F	-0.288510	-0.972505	0.757043
F185	F	0.136244	-1.310031	0.796929
F186	F	0.636244	-0.810031	1.296929
H187	H	-0.398990	-1.482786	0.350547
H188	H	0.101010	-0.982786	0.850547
H189	H	-0.307523	-1.485186	0.350551
H190	H	0.192477	-0.985186	0.850551
H191	H	-0.167061	-1.489011	0.225979
H192	H	0.332939	-0.989011	0.725979
H193	H	-0.075580	-1.491445	0.225981
H194	H	0.424420	-0.991445	0.725981
H195	H	-0.458748	-1.481277	-0.350818
H196	H	0.041252	-0.981277	0.149182
F197	F	-0.556526	-1.478678	-0.381970
F198	F	-0.056526	-0.978678	0.118030
F199	F	0.203457	-1.132374	0.648440
F200	F	0.703457	-0.632374	1.148440
H201	H	-0.458798	-1.481217	0.350518
H202	H	0.041202	-0.981217	0.850518
F203	F	0.136242	-1.309914	0.202896
F204	F	0.636242	-0.809914	0.702896
F205	F	0.161851	-1.220712	-0.000139
F206	F	0.661851	-0.720712	0.499861
F207	F	0.156326	-0.680017	-0.000210
F208	F	0.656326	-0.180017	0.499790
