data_functionalizedCrystal
_audit_creation_method	'MofGen! by Chris Wilmer'
_symmetry_space_group_name_H-M	'P1'
_symmetry_Int_Tables_number	1
_symmetry_cell_setting	triclinic
loop_
_symmetry_equiv_pos_as_xyz
  x,y,z
_cell_length_a	19.288864
_cell_length_b	14.853567
_cell_length_c	17.766277
_cell_angle_alpha	89.997439
_cell_angle_beta	89.976791
_cell_angle_gamma	83.385589
loop_
_atom_site_label
_atom_site_type_symbol
_atom_site_fract_x
_atom_site_fract_y
_atom_site_fract_z
O1	O	0.921733	0.112464	-0.062829
O2	O	1.421733	0.612464	0.437171
O3	O	0.719523	0.127636	-0.062777
O4	O	1.219523	0.627636	0.437223
O5	O	0.826029	-0.011211	-0.062807
O6	O	1.326029	0.488789	0.437193
O7	O	0.815227	0.251310	-0.062800
O8	O	1.315227	0.751310	0.437200
O9	O	0.826011	-0.011218	0.062382
O10	O	1.326011	0.488782	0.562382
O11	O	0.719504	0.127629	0.062411
O12	O	1.219504	0.627629	0.562411
O13	O	0.921714	0.112457	0.062359
O14	O	1.421714	0.612457	0.562359
Cu15	Cu	0.820607	0.120042	0.073816
Cu16	Cu	1.320607	0.620042	0.573816
Cu17	Cu	0.820630	0.120051	-0.074234
Cu18	Cu	1.320630	0.620051	0.425766
O19	O	0.815208	0.251303	0.062389
O20	O	1.315208	0.751303	0.562389
C21	C	0.693636	0.127144	-0.000176
C22	C	1.193636	0.627144	0.499824
C23	C	0.616527	0.125679	-0.000157
C24	C	1.116527	0.625679	0.499843
C25	C	0.572106	0.207147	-0.000166
C26	C	1.072106	0.707147	0.499834
C27	C	0.499654	0.205770	-0.000175
C28	C	0.999654	0.705770	0.499825
C29	C	0.471627	0.122920	-0.000188
C30	C	0.971627	0.622920	0.499812
C31	C	0.516058	0.041441	-0.000175
C32	C	1.016058	0.541441	0.499825
C33	C	0.588508	0.042820	-0.000159
C34	C	1.088508	0.542820	0.499841
C35	C	0.363152	0.057794	-0.044075
C36	C	0.863152	0.557794	0.455925
C37	C	0.290703	0.056418	-0.044095
C38	C	0.790703	0.556418	0.455905
C39	C	0.248167	0.118664	-0.000234
C40	C	0.748167	0.618664	0.499766
C41	C	0.278088	0.182300	0.043638
C42	C	0.778088	0.682300	0.543638
C43	C	0.350538	0.183679	0.043654
C44	C	0.850538	0.683679	0.543654
C45	C	0.393068	0.121416	-0.000205
C46	C	0.893068	0.621416	0.499795
C47	C	0.125185	0.198645	-0.000252
C48	C	0.625185	0.698645	0.499748
C49	C	0.052732	0.197265	-0.000255
C50	C	0.552732	0.697265	0.499745
C51	C	0.069138	0.032933	-0.000263
C52	C	0.569138	0.532933	0.499737
C53	C	0.141589	0.034316	-0.000252
C54	C	0.641589	0.534316	0.499748
C55	C	0.169608	0.117174	-0.000250
C56	C	0.669608	0.617174	0.499750
C57	C	0.825530	-0.044800	-0.000215
C58	C	1.325530	0.455200	0.499785
C59	C	0.824064	-0.144875	-0.000221
C60	C	1.324064	0.355125	0.499779
C61	C	0.754596	-0.557014	-0.000189
C62	C	1.254596	-0.057014	0.499811
C63	C	0.881128	-0.579015	-0.000221
C64	C	1.381128	-0.079015	0.499779
C65	C	0.882507	-0.484989	-0.000226
C66	C	1.382507	0.015011	0.499774
C67	C	0.819930	-0.426971	-0.000211
C68	C	1.319930	0.073029	0.499789
C69	C	0.755974	-0.462979	-0.000191
C70	C	1.255974	0.037021	0.499809
C71	C	0.946462	-0.448973	-0.000239
C72	C	1.446462	0.051027	0.499761
C73	C	0.947844	-0.354942	-0.000242
C74	C	1.447844	0.145058	0.499758
C75	C	0.885266	-0.296923	-0.000233
C76	C	1.385266	0.203077	0.499767
C77	C	0.821307	-0.332936	-0.000214
C78	C	1.321307	0.167064	0.499786
C79	C	0.758730	-0.274918	-0.000199
C80	C	1.258730	0.225082	0.499801
C81	C	0.694770	-0.310930	-0.000185
C82	C	1.194770	0.189070	0.499815
C83	C	0.693396	-0.404960	-0.000181
C84	C	1.193396	0.095040	0.499819
C85	C	0.886641	-0.202893	-0.000236
C86	C	1.386641	0.297107	0.499764
C87	C	0.760107	-0.180883	-0.000201
C88	C	1.260107	0.319117	0.499799
C89	C	0.947601	0.112949	-0.000243
C90	C	1.447601	0.612949	0.499757
C91	C	1.024710	0.114414	-0.000268
C92	C	1.524710	0.614414	0.499732
C93	C	0.815707	0.284893	-0.000205
C94	C	1.315707	0.784893	0.499795
C95	C	0.817174	0.384968	-0.000204
C96	C	1.317174	0.884968	0.499796
N97	N	0.820597	0.120036	0.177946
N98	N	1.320597	0.620036	0.677946
N99	N	0.820646	0.120050	-0.178364
N100	N	1.320646	0.620050	0.321636
C101	C	0.867773	0.058585	0.217320
C102	C	1.367773	0.558585	0.717320
C103	C	0.867777	0.058581	0.296122
C104	C	1.367777	0.558581	0.796122
C105	C	0.820612	0.120043	0.335547
C106	C	1.320612	0.620043	0.835547
C107	C	0.773427	0.181499	0.296164
C108	C	1.273427	0.681499	0.796164
C109	C	0.773419	0.181495	0.217363
C110	C	1.273419	0.681495	0.717363
C111	C	0.811590	0.202186	0.460389
C112	C	1.311590	0.702186	0.960389
C113	C	0.811602	0.202191	0.539187
C114	C	1.311602	0.702191	1.039187
C115	C	0.820630	0.120054	0.578593
C116	C	1.320630	0.620054	1.078593
C117	C	0.829661	0.037908	0.539190
C118	C	1.329661	0.537908	1.039190
C119	C	0.829653	0.037905	0.460390
C120	C	1.329653	0.537905	0.960390
C121	C	0.820614	0.120053	0.420992
C122	C	1.320614	0.620053	0.920992
C123	C	0.867813	0.058593	0.703413
C124	C	1.367813	0.558593	1.203413
C125	C	0.867813	0.058588	0.782216
C126	C	1.367813	0.558588	1.282216
C127	C	0.773465	0.181514	0.782256
C128	C	1.273465	0.681514	1.282256
C129	C	0.773463	0.181511	0.703455
C130	C	1.273463	0.681511	1.203455
C131	C	0.820640	0.120052	0.664038
C132	C	1.320640	0.620052	1.164038
H133	H	0.147999	0.266113	-0.000239
H134	H	0.647999	0.766113	0.499761
O135	O	0.955619	-0.164055	-0.000255
O136	O	1.455619	0.335945	0.499745
H137	H	0.959268	-0.121744	0.050769
H138	H	1.459268	0.378256	0.550769
O139	O	0.409020	-0.009353	-0.091387
O140	O	0.909020	0.490647	0.408613
H141	H	0.446244	-0.051234	-0.054392
H142	H	0.946244	0.448766	0.445608
H143	H	0.016564	0.263609	-0.000259
H144	H	0.516564	0.763609	0.499741
H145	H	0.735050	0.231554	0.671394
H146	H	1.235050	0.731554	1.171394
H147	H	0.177758	-0.032025	-0.000248
H148	H	0.677758	0.467975	0.499752
O149	O	0.722527	0.247774	0.174894
O150	O	1.222527	0.747774	0.674894
H151	H	0.730442	0.237440	0.113477
H152	H	1.230442	0.737440	0.613477
O153	O	1.013952	-0.511548	-0.000243
O154	O	1.513952	-0.011548	0.499757
H155	H	1.016365	-0.554911	-0.051269
H156	H	1.516365	-0.054911	0.448731
H157	H	0.735022	0.231541	0.328267
H158	H	1.235022	0.731541	0.828267
H159	H	0.493234	-0.026016	-0.000196
H160	H	0.993234	0.473984	0.499804
H161	H	0.702522	-0.586339	-0.000180
H162	H	1.202522	-0.086339	0.499820
O163	O	0.258437	-0.012213	-0.091417
O164	O	0.758437	0.487787	0.408583
H165	H	0.200912	-0.002707	-0.084069
H166	H	0.700912	0.497293	0.415931
H167	H	0.932075	-0.626258	-0.000228
H168	H	1.432075	-0.126258	0.499772
O169	O	0.627280	-0.248345	-0.000161
O170	O	1.127280	0.251655	0.499839
H171	H	0.582572	-0.289177	-0.000145
H172	H	1.082572	0.210823	0.499855
H173	H	0.709148	-0.133651	-0.000192
H174	H	1.209148	0.366349	0.499808
H175	H	0.046319	-0.034525	-0.000321
H176	H	0.546319	0.465475	0.499679
O177	O	0.624419	-0.443809	-0.000156
O178	O	1.124419	0.056191	0.499844
H179	H	0.594352	-0.420502	-0.051176
H180	H	1.094352	0.079498	0.448824
O181	O	1.016824	-0.316101	-0.000275
O182	O	1.516824	0.183899	0.499725
H183	H	1.060105	-0.372242	-0.000293
H184	H	1.560105	0.127758	0.499707
O185	O	0.918704	-0.007697	0.824679
O186	O	1.418704	0.492303	1.324679
H187	H	0.889436	-0.051432	0.860593
H188	H	1.389436	0.448568	1.360593
H189	H	0.624677	-0.023524	-0.000151
H190	H	1.124677	0.476476	0.499849
H191	H	0.837004	-0.028981	0.428312
H192	H	1.337004	0.471019	0.928312
O193	O	0.918646	-0.007711	0.174804
O194	O	1.418646	0.492289	0.674804
H195	H	0.951447	-0.050450	0.215427
H196	H	1.451447	0.449550	0.715427
H197	H	0.906195	0.008538	0.328186
H198	H	1.406195	0.508538	0.828186
O199	O	0.839393	-0.050693	0.581678
O200	O	1.339393	0.449307	1.081678
H201	H	0.837871	-0.036895	0.643092
H202	H	1.337871	0.463105	1.143092
O203	O	0.918685	-0.007701	0.660889
O204	O	1.418685	0.492299	1.160889
H205	H	0.951483	-0.050446	0.701511
H206	H	1.451483	0.449554	1.201511
O207	O	0.722593	0.247811	0.824766
O208	O	1.222593	0.747811	1.324766
H209	H	0.730525	0.237494	0.886177
H210	H	1.230525	0.737494	1.386177
H211	H	0.804254	0.269079	0.571263
H212	H	1.304254	0.769079	1.071263
O213	O	0.801857	0.290782	0.417888
O214	O	1.301857	0.790782	0.917888
H215	H	0.795592	0.347901	0.458523
H216	H	1.295592	0.847901	0.958523
H217	H	0.463479	0.272114	-0.000180
H218	H	0.963479	0.772114	0.499820
O219	O	0.602321	0.296516	-0.000143
O220	O	1.102321	0.796516	0.499857
H221	H	0.584507	0.335662	-0.051164
H222	H	1.084507	0.835662	0.448836
O223	O	0.382817	0.252276	0.091000
O224	O	0.882817	0.752276	0.591000
H225	H	0.341075	0.295318	0.121512
H226	H	0.841075	0.795318	0.621512
H227	H	0.243457	0.232986	0.079354
H228	H	0.743457	0.732986	0.579354
