data_functionalizedCrystal
_audit_creation_method	'MofGen! by Chris Wilmer'
_symmetry_space_group_name_H-M	'P1'
_symmetry_Int_Tables_number	1
_symmetry_cell_setting	triclinic
loop_
_symmetry_equiv_pos_as_xyz
  x,y,z
_cell_length_a	19.077105
_cell_length_b	21.295417
_cell_length_c	19.077271
_cell_angle_alpha	87.717260
_cell_angle_beta	89.912562
_cell_angle_gamma	87.725910
loop_
_atom_site_label
_atom_site_type_symbol
_atom_site_fract_x
_atom_site_fract_y
_atom_site_fract_z
Zn1	Zn	1.058158	-0.304636	0.440390
Zn2	Zn	1.391492	0.028698	0.773723
Zn3	Zn	1.724825	0.362031	1.107057
Zn4	Zn	1.062810	-0.405822	0.322876
Zn5	Zn	1.396143	-0.072488	0.656209
Zn6	Zn	1.729477	0.260845	0.989543
Zn7	Zn	0.945400	-0.296175	0.318185
Zn8	Zn	1.278733	0.037158	0.651518
Zn9	Zn	1.612066	0.370492	0.984852
Zn10	Zn	0.940611	-0.405468	0.435628
Zn11	Zn	1.273944	-0.072135	0.768961
Zn12	Zn	1.607278	0.261199	1.102295
O13	O	1.001745	-0.353025	0.379270
O14	O	1.335078	-0.019692	0.712603
O15	O	1.668411	0.313642	1.045936
O16	O	1.157106	-0.321747	0.428758
O17	O	1.490439	0.011586	0.762091
O18	O	1.823773	0.344920	1.095424
O19	O	1.051186	-0.387884	0.223924
O20	O	1.384520	-0.054551	0.557257
O21	O	1.717853	0.278782	0.890590
O22	O	0.960415	-0.209211	0.334426
O23	O	1.293748	0.124122	0.667759
O24	O	1.627081	0.457456	1.001092
O25	O	1.160524	-0.396088	0.342421
O26	O	1.493857	-0.062755	0.675754
O27	O	1.827190	0.270579	1.009087
O28	O	1.043258	-0.215427	0.424209
O29	O	1.376591	0.117906	0.757542
O30	O	1.709925	0.451240	1.090876
O31	O	0.964925	-0.307327	0.220477
O32	O	1.298259	0.026006	0.553810
O33	O	1.631592	0.359340	0.887144
O34	O	0.846434	-0.306984	0.329808
O35	O	1.179767	0.026349	0.663141
O36	O	1.513100	0.359683	0.996475
O37	O	0.952253	-0.395485	0.534590
O38	O	1.285586	-0.062152	0.867923
O39	O	1.618920	0.271182	1.201256
O40	O	0.842915	-0.387281	0.416093
O41	O	1.176249	-0.053948	0.749426
O42	O	1.509582	0.279386	1.082759
O43	O	1.038615	-0.321404	0.538089
O44	O	1.371948	0.011929	0.871422
O45	O	1.705281	0.345263	1.204755
O46	O	1.046543	-0.493861	0.337803
O47	O	1.379876	-0.160528	0.671136
O48	O	1.713209	0.172806	1.004470
O49	O	0.956763	-0.493601	0.420641
O50	O	1.290097	-0.160268	0.753975
O51	O	1.623430	0.173066	1.087308
C52	C	0.819179	-0.346177	0.371925
C53	C	1.152512	-0.012843	0.705258
C54	C	1.485845	0.320490	1.038591
C55	C	0.741075	-0.343262	0.368799
C56	C	1.074409	-0.009929	0.702133
C57	C	1.407742	0.323404	1.035466
C58	C	1.001657	-0.516572	0.379231
C59	C	1.334990	-0.183239	0.712564
C60	C	1.668323	0.150095	1.045897
C61	C	1.001682	-0.586541	0.379240
C62	C	1.335016	-0.253208	0.712573
C63	C	1.668349	0.080125	1.045907
C64	C	0.702572	-0.383758	0.412184
C65	C	1.035905	-0.050425	0.745517
C66	C	1.369238	0.282909	1.078851
C67	C	0.629185	-0.381012	0.409251
C68	C	0.962518	-0.047678	0.742584
C69	C	1.295852	0.285655	1.075917
C70	C	0.594304	-0.337773	0.362929
C71	C	0.927637	-0.004439	0.696262
C72	C	1.260970	0.328894	1.029595
C73	C	0.632813	-0.297273	0.319542
C74	C	0.966146	0.036061	0.652875
C75	C	1.299479	0.369394	0.986209
C76	C	0.706198	-0.300016	0.322479
C77	C	1.039531	0.033317	0.655813
C78	C	1.372864	0.366650	0.989146
C79	C	0.375020	-0.325075	0.349337
C80	C	0.708354	0.008259	0.682670
C81	C	1.041687	0.341592	1.016004
C82	C	0.301630	-0.322335	0.346401
C83	C	0.634963	0.010998	0.679735
C84	C	0.968297	0.344331	1.013068
C85	C	0.298008	-0.406074	0.436111
C86	C	0.631341	-0.072741	0.769445
C87	C	0.964674	0.260593	1.102778
C88	C	0.371394	-0.408816	0.439042
C89	C	0.704728	-0.075483	0.772375
C90	C	1.038061	0.257850	1.105708
C91	C	0.409897	-0.368314	0.395658
C92	C	0.743230	-0.034981	0.728991
C93	C	1.076563	0.298352	1.062325
N94	N	0.519291	-0.334966	0.359927
N95	N	0.852624	-0.001632	0.693261
N96	N	1.185958	0.331701	1.026594
N97	N	0.484908	-0.371118	0.398663
N98	N	0.818241	-0.037785	0.731996
N99	N	1.151574	0.295548	1.065330
C100	C	1.044792	-0.622588	0.426021
C101	C	1.378125	-0.289254	0.759355
C102	C	1.711458	0.044079	1.092688
C103	C	1.044816	-0.688332	0.426040
C104	C	1.378149	-0.354998	0.759373
C105	C	1.711483	-0.021665	1.092706
C106	C	1.001738	-0.718027	0.379264
C107	C	1.335072	-0.384694	0.712598
C108	C	1.668405	-0.051360	1.045931
C109	C	0.958620	-0.681972	0.332479
C110	C	1.291954	-0.348639	0.665813
C111	C	1.625287	-0.015306	0.999146
C112	C	0.958592	-0.616230	0.332467
C113	C	1.291926	-0.282896	0.665801
C114	C	1.625259	0.050437	0.999134
N115	N	0.998916	-0.818955	0.317556
N116	N	1.332249	-0.485621	0.650890
N117	N	1.665583	-0.152288	0.984223
N118	N	0.998947	-0.881408	0.317570
N119	N	1.332280	-0.548074	0.650903
N120	N	1.665613	-0.214741	0.984237
C121	C	1.001819	-0.916106	0.379299
C122	C	1.335152	-0.582772	0.712633
C123	C	1.668486	-0.249439	1.045966
N124	N	1.004674	-0.885992	0.441016
N125	N	1.338007	-0.552659	0.774350
N126	N	1.671340	-0.219325	1.107683
N127	N	1.004647	-0.823533	0.441002
N128	N	1.337980	-0.490200	0.774335
N129	N	1.671313	-0.156867	1.107668
C130	C	1.001764	-0.789313	0.379273
C131	C	1.335097	-0.455980	0.712606
C132	C	1.668430	-0.122647	1.045939
C133	C	1.044957	-1.023439	0.426104
C134	C	1.378290	-0.690106	0.759438
C135	C	1.711624	-0.356773	1.092771
C136	C	1.044976	-1.089185	0.426124
C137	C	1.378309	-0.755851	0.759457
C138	C	1.711643	-0.422518	1.092790
C139	C	0.958784	-1.082824	0.332558
C140	C	1.292118	-0.749490	0.665891
C141	C	1.625451	-0.416157	0.999224
C142	C	0.958761	-1.017080	0.332544
C143	C	1.292095	-0.683746	0.665878
C144	C	1.625428	-0.350413	0.999211
C145	C	1.001851	-0.987392	0.379317
C146	C	1.335185	-0.654058	0.712650
C147	C	1.668518	-0.320725	1.045984
C148	C	1.185024	-0.359901	0.386644
C149	C	1.518357	-0.026567	0.719977
C150	C	1.851690	0.306766	1.053310
C151	C	1.263126	-0.362831	0.389786
C152	C	1.596460	-0.029498	0.723119
C153	C	1.929793	0.303836	1.056453
C154	C	0.994381	-0.359349	0.562548
C155	C	1.327714	-0.026015	0.895881
C156	C	1.661047	0.307318	1.229215
C157	C	0.991243	-0.362044	0.640650
C158	C	1.324576	-0.028710	0.973984
C159	C	1.657909	0.304623	1.307317
C160	C	1.001852	-0.188841	0.379325
C161	C	1.335185	0.144493	0.712659
C162	C	1.668518	0.477826	1.045992
C163	C	1.001897	-0.118875	0.379349
C164	C	1.335231	0.214458	0.712682
C165	C	1.668564	0.547792	1.046016
C166	C	1.034730	-0.324741	0.679165
C167	C	1.368063	0.008592	1.012499
C168	C	1.701396	0.341925	1.345832
C169	C	1.031773	-0.327271	0.752550
C170	C	1.365106	0.006063	1.085884
C171	C	1.698439	0.339396	1.419217
C172	C	0.985331	-0.367106	0.787419
C173	C	1.318665	-0.033773	1.120752
C174	C	1.651998	0.299561	1.454086
C175	C	0.941839	-0.404410	0.748898
C176	C	1.275173	-0.071076	1.082232
C177	C	1.608506	0.262257	1.415565
C178	C	0.944793	-0.401877	0.675515
C179	C	1.278127	-0.068543	1.008848
C180	C	1.611460	0.264790	1.342181
C181	C	0.971671	-0.378814	1.006697
C182	C	1.305005	-0.045481	1.340031
C183	C	1.638338	0.287852	1.673364
C184	C	0.968722	-0.381346	1.080087
C185	C	1.302055	-0.048013	1.413420
C186	C	1.635389	0.285321	1.746753
C187	C	1.058655	-0.304206	1.083734
C188	C	1.391988	0.029127	1.417067
C189	C	1.725322	0.362461	1.750400
C190	C	1.061608	-0.301679	1.010348
C191	C	1.394941	0.031654	1.343682
C192	C	1.728275	0.364988	1.677015
C193	C	1.018113	-0.338980	0.971834
C194	C	1.351447	-0.005647	1.305167
C195	C	1.684780	0.327686	1.638501
N196	N	0.982309	-0.369694	0.862430
N197	N	1.315642	-0.036360	1.195764
N198	N	1.648976	0.296973	1.529097
N199	N	1.021133	-0.336389	0.896824
N200	N	1.354466	-0.003055	1.230157
N201	N	1.687799	0.330278	1.563491
C202	C	1.009074	-0.346740	1.196704
C203	C	1.342407	-0.013406	1.530038
C204	C	1.675741	0.319927	1.863371
C205	C	1.012209	-0.344044	1.118602
C206	C	1.345543	-0.010710	1.451935
C207	C	1.678876	0.322623	1.785268
H208	H	0.730967	-0.418970	0.449902
H209	H	1.064300	-0.085637	0.783236
H210	H	1.397633	0.247696	1.116569
H211	H	0.904023	-0.436842	0.777294
H212	H	1.237356	-0.103509	1.110627
H213	H	1.570690	0.229825	1.443961
H214	H	1.099427	-0.269243	0.981964
H215	H	1.432761	0.064091	1.315297
H216	H	1.766094	0.397424	1.648630
H217	H	0.273232	-0.287118	0.308684
H218	H	0.606565	0.046216	0.642018
H219	H	0.939898	0.379549	0.975351
F220	F	0.912936	-1.114423	0.282777
F221	F	1.246269	-0.781090	0.616110
F222	F	1.579602	-0.447756	0.949444
F223	F	0.595687	-0.251250	0.270246
F224	F	0.929021	0.082083	0.603580
F225	F	1.262354	0.415417	0.936913
H226	H	0.923661	-0.987729	0.294448
H227	H	1.256994	-0.654396	0.627781
H228	H	1.590327	-0.321062	0.961114
F229	F	1.090814	-0.991841	0.475885
F230	F	1.424147	-0.658508	0.809219
F231	F	1.757481	-0.325174	1.142552
H232	H	1.072550	-0.292305	0.650781
H233	H	1.405883	0.041028	0.984114
H234	H	1.739216	0.374362	1.317448
H235	H	1.079876	-0.598418	0.464108
H236	H	1.413210	-0.265085	0.797441
H237	H	1.746543	0.068249	1.130775
F238	F	0.912706	-0.577865	0.282675
F239	F	1.246040	-0.244532	0.616008
F240	F	1.579373	0.088802	0.949341
H241	H	0.923545	-0.706154	0.294396
H242	H	1.256878	-0.372821	0.627730
H243	H	1.590211	-0.039487	0.961063
H244	H	1.080081	-1.118533	0.464222
H245	H	1.413414	-0.785199	0.797555
H246	H	1.746747	-0.451866	1.130889
H247	H	1.067186	-0.296897	0.783907
H248	H	1.400520	0.036437	1.117240
H249	H	1.733853	0.369770	1.450573
H250	H	1.094065	-0.273837	1.115100
H251	H	1.427398	0.059497	1.448433
H252	H	1.760731	0.392830	1.781766
H253	H	0.930902	-0.413786	1.108474
H254	H	1.264235	-0.080453	1.441808
H255	H	1.597568	0.252880	1.775141
H256	H	0.936265	-0.409197	0.975348
H257	H	1.269599	-0.075864	1.308682
H258	H	1.602932	0.257469	1.642015
H259	H	0.406360	-0.292099	0.314005
H260	H	0.739694	0.041234	0.647339
H261	H	1.073027	0.374567	0.980672
H262	H	0.909374	-0.432246	0.644156
H263	H	1.242708	-0.098912	0.977489
H264	H	1.576041	0.234421	1.310823
H265	H	0.597839	-0.413988	0.444579
H266	H	0.931172	-0.080655	0.777912
H267	H	1.264505	0.252678	1.111245
H268	H	0.399790	-0.444028	0.476761
H269	H	0.733123	-0.110694	0.810094
H270	H	1.066456	0.222639	1.143427
H271	H	0.737546	-0.267037	0.287154
H272	H	1.070880	0.066296	0.620488
H273	H	1.404213	0.399629	0.953821
H274	H	1.079915	-0.717686	0.464143
H275	H	1.413248	-0.384353	0.797476
H276	H	1.746581	-0.051020	1.130809
F277	F	0.257026	-0.449177	0.482279
F278	F	0.590359	-0.115844	0.815613
F279	F	0.923692	0.217490	1.148946
