data_functionalizedCrystal
_audit_creation_method	'MofGen! by Chris Wilmer'
_symmetry_space_group_name_H-M	'P1'
_symmetry_Int_Tables_number	1
_symmetry_cell_setting	triclinic
loop_
_symmetry_equiv_pos_as_xyz
  x,y,z
_cell_length_a	27.435584
_cell_length_b	27.434948
_cell_length_c	27.431174
_cell_angle_alpha	60.005483
_cell_angle_beta	60.011353
_cell_angle_gamma	59.993028
loop_
_atom_site_label
_atom_site_type_symbol
_atom_site_fract_x
_atom_site_fract_y
_atom_site_fract_z
O1	O	0.067437	-0.712144	0.595551
O2	O	0.025356	-0.554453	0.479848
O3	O	0.125206	-0.654236	0.479781
O4	O	-0.032412	-0.612361	0.595618
O5	O	0.158328	-0.621117	0.512835
O6	O	0.058479	-0.521333	0.512902
O7	O	0.100560	-0.679025	0.628605
Zn8	Zn	0.084778	-0.594921	0.576001
Zn9	Zn	0.041138	-0.638557	0.532452
O10	O	0.000710	-0.579241	0.628672
N11	N	0.114563	-0.565144	0.605726
N12	N	0.011358	-0.668338	0.502727
C13	C	0.156385	-0.523520	0.904506
C14	C	0.413419	-0.523497	0.647322
C15	C	0.156253	-0.523488	0.647384
C16	C	0.156238	-0.266354	0.647407
C17	C	0.197637	-0.390463	0.688753
C18	C	0.197646	-0.482126	0.688741
C19	C	0.220575	-0.459215	0.711654
C20	C	0.320555	-0.441991	0.659023
C21	C	0.383051	-0.462825	0.638179
C22	C	0.383069	-0.563942	0.676737
C23	C	0.320575	-0.543107	0.697583
C24	C	0.212704	-0.359206	0.627313
C25	C	0.191849	-0.296705	0.606496
C26	C	0.140866	-0.296722	0.708562
C27	C	0.161721	-0.359223	0.729379
C28	C	0.136200	-0.467030	0.703858
C29	C	0.115361	-0.487857	0.683021
C30	C	0.217408	-0.538877	0.631968
C31	C	0.238249	-0.518050	0.652796
C32	C	0.136259	-0.467047	0.811668
C33	C	0.115461	-0.487892	0.874167
C34	C	0.217537	-0.538923	0.874131
C35	C	0.238333	-0.518080	0.811631
C36	C	0.197693	-0.482140	0.780401
C37	C	0.289320	-0.482131	0.688723
C38	C	0.132699	-0.546027	0.973247
C39	C	0.482158	-0.545613	0.624075
C40	C	0.132521	-0.546006	0.624886
C41	C	0.132917	-0.197607	0.625310
C42	C	-0.098217	-0.686189	0.484419
C43	C	-0.006438	-0.686322	0.392891
C44	C	-0.006621	-0.777944	0.484592
C45	C	-0.006606	-0.686315	0.484649
C46	C	-0.029470	-0.709193	0.461638
N47	N	0.538410	-0.565162	0.605628
O48	O	0.742647	-0.575135	0.458625
O49	O	0.742821	-0.691181	0.616169
O50	O	0.742757	-0.690917	0.516248
O51	O	0.742711	-0.575399	0.558546
O52	O	0.643472	-0.657878	0.549405
O53	O	0.643536	-0.658142	0.649326
O54	O	0.643362	-0.542096	0.491782
Zn55	Zn	0.627685	-0.594873	0.575818
Zn56	Zn	0.758498	-0.638404	0.532133
O57	O	0.643426	-0.542360	0.591702
N58	N	0.847774	-0.668115	0.502317
N59	N	0.114542	-0.141354	0.605766
O60	O	-0.032397	0.062987	0.595660
O61	O	0.125155	0.062987	0.479633
O62	O	0.025219	0.062974	0.479910
O63	O	0.067539	0.063001	0.595383
O64	O	0.058343	-0.036320	0.513009
O65	O	0.158279	-0.036306	0.512732
O66	O	0.000728	-0.036306	0.628759
Zn67	Zn	0.084763	-0.052071	0.576000
Zn68	Zn	0.041120	0.078752	0.532392
O69	O	0.100664	-0.036292	0.628482
N70	N	0.011333	0.168036	0.502628
N71	N	0.114782	-0.565197	1.029501
O72	O	0.104681	-0.712124	1.233827
O73	O	-0.011334	-0.554523	1.233839
O74	O	-0.011066	-0.654443	1.233797
O75	O	0.104414	-0.612204	1.233869
O76	O	0.022028	-0.621336	1.134509
O77	O	0.021760	-0.521417	1.134551
O78	O	0.137775	-0.679018	1.134539
Zn79	Zn	0.085022	-0.594961	1.118780
Zn80	Zn	0.041420	-0.638580	1.249597
O81	O	0.137508	-0.579098	1.134580
N82	N	0.011658	-0.668350	1.338876
C83	C	0.037974	-0.518023	0.480435
C84	C	0.161625	-0.641592	0.480351
C85	C	0.087941	-0.715455	0.628017
C86	C	-0.035710	-0.591885	0.628101
C87	C	0.693199	-0.690642	0.652596
C88	C	0.693122	-0.690315	0.528855
C89	C	0.692981	-0.542634	0.455356
C90	C	0.693062	-0.542961	0.579095
C91	C	0.161524	0.013463	0.480164
C92	C	0.037807	0.013324	0.480547
C93	C	-0.035683	0.013341	0.628188
C94	C	0.088076	0.013357	0.627845
C95	C	-0.010764	-0.518114	1.184196
C96	C	-0.010426	-0.641846	1.184125
C97	C	0.137205	-0.715426	1.184182
C98	C	0.136875	-0.591687	1.184231
H99	H	0.065433	-0.475593	0.899616
O100	O	0.027364	-0.464010	0.437023
C101	C	0.078656	-0.463880	0.385542
H102	H	0.119666	-0.499190	0.398647
H103	H	0.083935	-0.418070	0.363254
H104	H	0.073842	-0.474273	0.353099
H105	H	0.096930	-0.760753	0.664356
H106	H	0.028745	0.013321	0.444270
H107	H	0.206895	-0.650521	0.443974
O108	O	-0.089707	0.013379	0.671569
C109	C	-0.126867	0.013360	0.650090
H110	H	-0.110708	0.032142	0.599237
H111	H	-0.174685	0.042198	0.668384
H112	H	-0.125256	-0.034276	0.665279
H113	H	0.241946	-0.384640	0.594232
O114	O	0.693152	-0.734093	0.706597
C115	C	0.641766	-0.750165	0.733029
H116	H	0.605790	-0.711831	0.713309
H117	H	0.624543	-0.760045	0.783268
H118	H	0.653413	-0.791612	0.723884
H119	H	-0.047187	-0.472851	1.184199
O120	O	-0.089740	-0.581133	0.671444
C121	C	-0.126839	-0.522474	0.649852
H122	H	-0.098087	-0.494128	0.611514
H123	H	-0.155440	-0.502481	0.687315
H124	H	-0.156987	-0.523379	0.633269
O125	O	0.180102	-0.580804	1.184221
C126	C	0.158354	-0.522122	1.184249
H127	H	0.120031	-0.493866	1.165446
H128	H	0.195741	-0.502044	1.155435
H129	H	0.141704	-0.523001	1.231888
H130	H	0.693140	-0.726605	0.519802
H131	H	0.692924	-0.506199	0.410112
H132	H	0.103160	-0.437777	0.786243
H133	H	0.693053	-0.506675	0.588146
H134	H	0.295144	-0.575796	0.721768
H135	H	0.206679	0.013739	0.443646
O136	O	0.098990	0.013328	0.671072
C137	C	0.157669	0.013343	0.649320
H138	H	0.185901	-0.005450	0.610993
H139	H	0.177773	-0.015489	0.686705
H140	H	0.156785	0.060978	0.632672
H141	H	0.173631	-0.760687	1.184171
O142	O	0.257097	-0.573840	0.904371
C143	C	0.315779	-0.582672	0.863369
H144	H	0.315643	-0.575686	0.818824
H145	H	0.345473	-0.630072	0.881410
H146	H	0.333675	-0.549402	0.856719
O147	O	0.298001	-0.532638	0.781194
C148	C	0.313087	-0.480125	0.745057
H149	H	0.271890	-0.440852	0.735710
H150	H	0.349314	-0.485712	0.701101
H151	H	0.330256	-0.471349	0.769138
O152	O	-0.053616	-0.652692	1.184022
C153	C	-0.031872	-0.711378	1.184006
H154	H	0.018979	-0.727108	1.165252
H155	H	-0.050014	-0.712215	1.155128
H156	H	-0.046997	-0.742267	1.231625
H157	H	0.065328	-0.475552	0.695316
O158	O	0.096677	-0.432116	0.738743
C159	C	0.037975	-0.423269	0.747623
H160	H	0.038069	-0.430242	0.709943
H161	H	0.008298	-0.375869	0.747964
H162	H	0.020092	-0.456539	0.792142
H163	H	0.288283	-0.530335	0.640482
O164	O	0.256933	-0.573749	0.597040
C165	C	0.315633	-0.582619	0.588187
H166	H	0.315520	-0.544942	0.595175
H167	H	0.345287	-0.582940	0.540782
H168	H	0.333559	-0.627145	0.621441
H169	H	0.408481	-0.430137	0.613993
O170	O	0.413371	-0.623177	0.685301
C171	C	0.398097	-0.642257	0.657224
H172	H	0.352709	-0.610562	0.651917
H173	H	0.395978	-0.689278	0.685664
H174	H	0.433252	-0.642359	0.611388
O175	O	0.290261	-0.382736	0.650313
C176	C	0.305494	-0.350491	0.588605
H177	H	0.350865	-0.377801	0.563989
H178	H	0.307630	-0.306433	0.580348
H179	H	0.270306	-0.341164	0.571581
O180	O	0.206380	-0.266311	0.546816
C181	C	0.153852	-0.230145	0.531733
H182	H	0.116322	-0.248986	0.566971
H183	H	0.162066	-0.229424	0.486362
H184	H	0.140693	-0.182780	0.529667
O185	O	0.105967	-0.266465	0.748105
C186	C	0.097164	-0.307455	0.806800
H187	H	0.104151	-0.352008	0.806688
H188	H	0.049775	-0.289404	0.836487
H189	H	0.130446	-0.314100	0.824686
H190	H	0.149444	-0.384673	0.779411
