data_functionalizedCrystal
_audit_creation_method	'MofGen! by Chris Wilmer'
_symmetry_space_group_name_H-M	'P1'
_symmetry_Int_Tables_number	1
_symmetry_cell_setting	triclinic
loop_
_symmetry_equiv_pos_as_xyz
  x,y,z
_cell_length_a	14.044220
_cell_length_b	14.519709
_cell_length_c	12.503552
_cell_angle_alpha	93.525226
_cell_angle_beta	93.839891
_cell_angle_gamma	91.565489
loop_
_atom_site_label
_atom_site_type_symbol
_atom_site_fract_x
_atom_site_fract_y
_atom_site_fract_z
O1	O	1.263541	-0.217493	0.089211
O2	O	1.763541	0.282507	0.589211
O3	O	0.987560	-0.209467	0.089238
O4	O	1.487560	0.290533	0.589238
O5	O	1.132867	-0.079832	0.089214
O6	O	1.632867	0.420168	0.589214
O7	O	1.118234	-0.347128	0.089235
O8	O	1.618234	0.152872	0.589235
O9	O	1.121926	-0.089590	-0.089427
O10	O	1.621926	0.410410	0.410573
O11	O	0.976619	-0.219225	-0.089403
O12	O	1.476619	0.280775	0.410597
O13	O	1.252600	-0.227250	-0.089430
O14	O	1.752600	0.272750	0.410570
Cu15	Cu	1.113611	-0.224128	-0.105728
Cu16	Cu	1.613611	0.275872	0.394272
Cu17	Cu	1.126549	-0.212589	0.105535
Cu18	Cu	1.626549	0.287411	0.605535
O19	O	1.107293	-0.356885	-0.089406
O20	O	1.607293	0.143115	0.410594
C21	C	0.946769	-0.210833	-0.000079
C22	C	1.446769	0.289167	0.499921
C23	C	0.841526	-0.200356	-0.000069
C24	C	1.341526	0.299644	0.499931
N25	N	1.104517	-0.232245	-0.254319
N26	N	1.604517	0.267755	0.245681
C27	C	1.126715	-0.050296	-0.000107
C28	C	1.626715	0.449704	0.499893
C29	C	1.124671	0.052250	-0.000107
C30	C	1.624671	0.552250	0.499893
C31	C	0.648831	-0.181202	-0.000092
C32	C	1.148831	0.318798	0.499908
C33	C	0.591324	-0.255510	-0.000091
C34	C	1.091324	0.244490	0.499909
C35	C	0.484102	-0.244853	-0.000104
C36	C	0.984102	0.255147	0.499896
C37	C	0.756063	-0.191858	-0.000079
C38	C	1.256063	0.308142	0.499921
C39	C	1.293391	-0.225884	-0.000111
C40	C	1.793391	0.274116	0.499889
C41	C	1.398634	-0.236361	-0.000114
C42	C	1.898634	0.263639	0.499886
C43	C	1.113446	-0.386421	-0.000083
C44	C	1.613446	0.113579	0.499917
C45	C	1.115490	-0.488967	-0.000076
C46	C	1.615490	0.011033	0.499924
C47	C	1.117148	0.427754	-0.000078
C48	C	1.617148	0.927754	0.499922
C49	C	1.119237	0.323277	-0.000087
C50	C	1.619237	0.823277	0.499913
C51	C	1.120909	0.240005	-0.000094
C52	C	1.620909	0.740005	0.499906
C53	C	1.122999	0.135522	-0.000100
C54	C	1.622999	0.635522	0.499900
C55	C	1.149022	-0.192523	-0.526760
C56	C	1.649022	0.307477	-0.026760
C57	C	1.091149	-0.244185	-0.473426
C58	C	1.591149	0.255815	0.026574
C59	C	1.098589	-0.237540	-0.351504
C60	C	1.598589	0.262460	0.148496
C61	C	1.141583	-0.199167	-0.648693
C62	C	1.641583	0.300833	-0.148693
N63	N	1.135650	-0.204466	0.254127
N64	N	1.635650	0.295534	0.754127
H65	H	0.622617	-0.327131	-0.000080
H66	H	1.122617	0.172869	0.499920
F67	F	1.019086	-0.308520	-0.533428
F68	F	1.519086	0.191480	-0.033428
F69	F	0.607932	-0.087594	-0.000102
F70	F	1.107932	0.412406	0.499898
H71	H	1.204153	-0.143308	-0.480858
H72	H	1.704153	0.356692	0.019142
