data_functionalizedCrystal
_audit_creation_method	'MofGen! by Chris Wilmer'
_symmetry_space_group_name_H-M	'P1'
_symmetry_Int_Tables_number	1
_symmetry_cell_setting	triclinic
loop_
_symmetry_equiv_pos_as_xyz
  x,y,z
_cell_length_a	19.805407
_cell_length_b	12.759394
_cell_length_c	19.805399
_cell_angle_alpha	89.976033
_cell_angle_beta	89.980427
_cell_angle_gamma	90.014837
loop_
_atom_site_label
_atom_site_type_symbol
_atom_site_fract_x
_atom_site_fract_y
_atom_site_fract_z
Zn1	Zn	1.034790	-0.418291	-0.382737
Zn2	Zn	1.534790	0.081709	0.117263
Zn3	Zn	1.034728	-0.593984	-0.269556
Zn4	Zn	1.534728	-0.093984	0.230444
Zn5	Zn	0.921605	-0.418320	-0.269561
Zn6	Zn	1.421605	0.081680	0.230439
Zn7	Zn	0.921591	-0.593928	-0.382702
Zn8	Zn	1.421591	-0.093928	0.117298
O9	O	0.978178	-0.506131	-0.326139
O10	O	1.478178	-0.006131	0.173861
O11	O	1.129498	-0.441608	-0.367735
O12	O	1.629498	0.058392	0.132265
O13	O	1.019701	-0.570717	-0.174840
O14	O	1.519701	-0.070717	0.325160
O15	O	0.936651	-0.271295	-0.284591
O16	O	1.436651	0.228705	0.215409
O17	O	1.129453	-0.570689	-0.284581
O18	O	1.629453	-0.070689	0.215419
O19	O	1.019808	-0.271274	-0.367740
O20	O	1.519808	0.228726	0.132260
O21	O	0.936590	-0.441658	-0.174844
O22	O	1.436590	0.058342	0.325156
O23	O	0.826886	-0.441603	-0.284558
O24	O	1.326886	0.058397	0.215442
O25	O	0.936628	-0.570594	-0.477423
O26	O	1.436628	-0.070594	0.022577
O27	O	0.826876	-0.570622	-0.367682
O28	O	1.326876	-0.070622	0.132318
O29	O	1.019794	-0.441554	-0.477449
O30	O	1.519794	0.058446	0.022551
O31	O	1.019688	-0.740998	-0.284548
O32	O	1.519688	-0.240998	0.215452
O33	O	0.936567	-0.740957	-0.367676
O34	O	1.436567	-0.240957	0.132324
C35	C	0.802322	-0.506111	-0.326117
C36	C	1.302322	-0.006111	0.173883
C37	C	0.727090	-0.506127	-0.326124
C38	C	1.227090	-0.006127	0.173876
C39	C	0.978138	-0.779098	-0.326123
C40	C	1.478138	-0.279098	0.173877
C41	C	0.978182	-0.895875	-0.326138
C42	C	1.478182	-0.395875	0.173862
C43	C	0.691759	-0.573409	-0.369336
C44	C	1.191759	-0.073409	0.130664
C45	C	0.621070	-0.573411	-0.369346
C46	C	1.121070	-0.073411	0.130654
C47	C	0.585715	-0.506136	-0.326139
C48	C	1.085715	-0.006136	0.173861
C49	C	0.621051	-0.438847	-0.282924
C50	C	1.121051	0.061153	0.217076
C51	C	0.691739	-0.438841	-0.282919
C52	C	1.191739	0.061159	0.217081
C53	C	0.335978	-0.438870	-0.282947
C54	C	0.835978	0.061130	0.217053
C55	C	0.265286	-0.438884	-0.282954
C56	C	0.765286	0.061116	0.217046
C57	C	0.265310	-0.573440	-0.369374
C58	C	0.765310	-0.073440	0.130626
C59	C	0.335997	-0.573434	-0.369368
C60	C	0.835997	-0.073434	0.130632
C61	C	0.371327	-0.506142	-0.326157
C62	C	0.871327	-0.006142	0.173843
C63	C	0.447976	-0.506139	-0.326148
C64	C	0.947976	-0.006139	0.173852
C65	C	0.509068	-0.506143	-0.326144
C66	C	1.009068	-0.006143	0.173856
C67	C	1.064801	-0.895864	-0.239641
C68	C	1.564801	-0.395864	0.260359
C69	C	1.108128	-0.950720	-0.196401
C70	C	1.608128	-0.450720	0.303599
C71	C	1.108168	-1.060441	-0.196419
C72	C	1.608168	-0.560441	0.303581
C73	C	1.064877	-1.115310	-0.239684
C74	C	1.564877	-0.615310	0.260316
C75	C	1.021550	-1.060455	-0.282925
C76	C	1.521550	-0.560455	0.217075
C77	C	1.021514	-0.950730	-0.282900
C78	C	1.521514	-0.450730	0.217100
C79	C	0.934936	-1.060465	-0.369424
C80	C	1.434936	-0.560465	0.130576
C81	C	0.934892	-0.950744	-0.369403
C82	C	1.434892	-0.450744	0.130597
C83	C	0.891645	-1.115334	-0.412689
C84	C	1.391645	-0.615334	0.087311
C85	C	0.848314	-1.060478	-0.455927
C86	C	1.348314	-0.560478	0.044073
C87	C	0.848275	-0.950750	-0.455906
C88	C	1.348275	-0.450750	0.044094
C89	C	0.891565	-0.895888	-0.412644
C90	C	1.391565	-0.395888	0.087356
C91	C	1.154721	-0.506152	-0.326161
C92	C	1.654721	-0.006152	0.173839
C93	C	1.229953	-0.506161	-0.326171
C94	C	1.729953	-0.006161	0.173829
C95	C	0.978216	-0.506065	-0.502682
C96	C	1.478216	-0.006065	-0.002682
C97	C	0.978233	-0.506036	-0.577914
C98	C	1.478233	-0.006036	-0.077914
C99	C	0.978238	-0.232097	-0.326170
C100	C	1.478238	0.267903	0.173830
C101	C	0.978263	-0.115321	-0.326183
C102	C	1.478263	0.384679	0.173817
C103	C	1.021539	-0.438842	-0.613272
C104	C	1.521539	0.061158	-0.113272
C105	C	1.021545	-0.438811	-0.683961
C106	C	1.521545	0.061189	-0.183961
C107	C	0.978249	-0.505982	-0.719289
C108	C	1.478249	-0.005982	-0.219289
C109	C	0.934939	-0.573179	-0.683926
C110	C	1.434939	-0.073179	-0.183926
C111	C	0.934929	-0.573203	-0.613239
C112	C	1.434929	-0.073203	-0.113239
C113	C	0.934977	-0.573081	-0.969000
C114	C	1.434977	-0.073081	-0.469000
C115	C	0.934992	-0.573054	-1.039692
C116	C	1.434992	-0.073054	-0.539692
C117	C	1.021594	-0.438689	-1.039721
C118	C	1.521594	0.061311	-0.539721
C119	C	1.021584	-0.438713	-0.969034
C120	C	1.521584	0.061287	-0.469034
C121	C	0.978271	-0.505907	-0.933677
C122	C	1.478271	-0.005907	-0.433677
C123	C	0.978263	-0.505937	-0.857028
C124	C	1.478263	-0.005937	-0.357028
C125	C	0.978260	-0.505957	-0.795937
C126	C	1.478260	-0.005957	-0.295937
C127	C	0.978180	-0.506121	-0.150283
C128	C	1.478180	-0.006121	0.349717
C129	C	0.978295	-0.505853	-0.075051
C130	C	1.478295	-0.005853	0.424949
H131	H	0.592306	-0.628199	-0.404534
H132	H	1.092306	-0.128199	0.095466
C133	C	1.069207	-0.364823	-0.930176
C134	C	1.569207	0.135177	-0.430176
H135	H	1.094995	-0.324791	-0.961359
H136	H	1.594995	0.175209	-0.461359
H137	H	1.098685	-0.405021	-0.902599
H138	H	1.598685	0.094979	-0.402599
H139	H	1.043313	-0.319051	-0.902604
H140	H	1.543313	0.180949	-0.402604
C141	C	0.800702	-1.120828	-0.503515
C142	C	1.300702	-0.620828	-0.003515
H143	H	0.774893	-1.072447	-0.529267
H144	H	1.274893	-0.572447	-0.029267
H145	H	0.771242	-1.163705	-0.477610
H146	H	1.271242	-0.663705	0.022390
H147	H	0.826603	-1.163557	-0.533040
H148	H	1.326603	-0.663557	-0.033040
H149	H	1.056859	-0.383973	-1.068518
H150	H	1.556859	0.116027	-0.568518
H151	H	0.899684	-0.627866	-0.712696
H152	H	1.399684	-0.127866	-0.212696
C153	C	1.155825	-1.120790	-0.148858
C154	C	1.655825	-0.620790	0.351142
H155	H	1.149648	-1.193993	-0.155071
H156	H	1.649648	-0.693993	0.344929
H157	H	1.145938	-1.102872	-0.103368
H158	H	1.645938	-0.602872	0.396632
H159	H	1.201294	-1.102745	-0.158803
H160	H	1.701294	-0.602745	0.341197
C161	C	1.155745	-0.890368	-0.148811
C162	C	1.655745	-0.390368	0.351189
H163	H	1.181558	-0.938754	-0.123067
H164	H	1.681558	-0.438754	0.376933
H165	H	1.129854	-0.847630	-0.119291
H166	H	1.629854	-0.347630	0.380709
H167	H	1.185212	-0.847503	-0.174724
H168	H	1.685212	-0.347503	0.325276
C169	C	0.891687	-1.236024	-0.412708
C170	C	1.391687	-0.736024	0.087292
H171	H	0.923685	-1.260838	-0.380755
H172	H	1.423685	-0.760838	0.119245
H173	H	0.903377	-1.260788	-0.456400
H174	H	1.403377	-0.760788	0.043600
H175	H	0.848019	-1.260905	-0.400968
H176	H	1.348019	-0.760905	0.099032
H177	H	0.899732	-0.627754	-1.068454
H178	H	1.399732	-0.127754	-0.568454
C179	C	0.374836	-0.364859	-0.235414
C180	C	0.874836	0.135141	0.264586
H181	H	0.421999	-0.374476	-0.241601
H182	H	0.921999	0.125524	0.258399
H183	H	0.363231	-0.380141	-0.189921
H184	H	0.863231	0.119859	0.310079
H185	H	0.363261	-0.294288	-0.245406
H186	H	0.863261	0.205712	0.254594
H187	H	0.899719	-0.627809	-0.940220
H188	H	1.399719	-0.127809	-0.440220
H189	H	1.064919	-1.204651	-0.239701
H190	H	1.564919	-0.704651	0.260299
H191	H	0.812996	-0.906092	-0.491120
H192	H	1.312996	-0.406092	0.008880
C193	C	0.582162	-0.364849	-0.235395
C194	C	1.082162	0.135151	0.264605
H195	H	0.535003	-0.374497	-0.241581
H196	H	1.035003	0.125503	0.258419
H197	H	0.593758	-0.294276	-0.245376
H198	H	1.093758	0.205724	0.254624
H199	H	0.593728	-0.380142	-0.189899
H200	H	1.093728	0.119858	0.310101
H201	H	0.891533	-0.806547	-0.412618
H202	H	1.391533	-0.306547	0.087382
H203	H	0.720505	-0.384048	-0.247734
H204	H	1.220505	0.115952	0.252266
H205	H	0.364780	-0.628219	-0.404550
H206	H	0.864780	-0.128219	0.095450
C207	C	1.069162	-0.364949	-0.574417
C208	C	1.569162	0.135051	-0.074417
H209	H	1.094948	-0.324918	-0.605602
H210	H	1.594948	0.175082	-0.105602
H211	H	1.098642	-0.405144	-0.546840
H212	H	1.598642	0.094856	-0.046840
H213	H	1.043269	-0.319175	-0.546845
H214	H	1.543269	0.180825	-0.046845
H215	H	1.056811	-0.384097	-0.712746
H216	H	1.556811	0.115903	-0.212746
C217	C	0.887309	-0.647143	-0.574345
C218	C	1.387309	-0.147143	-0.074345
H219	H	0.861533	-0.687158	-0.605508
H220	H	1.361533	-0.187158	-0.105508
H221	H	0.857818	-0.606981	-0.546761
H222	H	1.357818	-0.106981	-0.046761
H223	H	0.913205	-0.692929	-0.546777
H224	H	1.413205	-0.192929	-0.046777
C225	C	0.730644	-0.647411	-0.416866
C226	C	1.230644	-0.147411	0.083134
H227	H	0.699475	-0.687473	-0.442608
H228	H	1.199475	-0.187473	0.057392
H229	H	0.758203	-0.693134	-0.390924
H230	H	1.258203	-0.193134	0.109076
H231	H	0.758235	-0.607270	-0.446402
H232	H	1.258235	-0.107270	0.053598
C233	C	0.226445	-0.647451	-0.416914
C234	C	0.726445	-0.147451	0.083086
H235	H	0.179282	-0.637815	-0.410737
H236	H	0.679282	-0.137815	0.089263
H237	H	0.238015	-0.718020	-0.406928
H238	H	0.738015	-0.218020	0.093072
H239	H	0.238054	-0.632160	-0.462409
H240	H	0.738054	-0.132160	0.037591
H241	H	0.236502	-0.384094	-0.247770
H242	H	0.736502	0.115906	0.252230
C243	C	1.064756	-0.775174	-0.239616
C244	C	1.564756	-0.275174	0.260384
H245	H	1.096745	-0.750353	-0.207660
H246	H	1.596745	-0.250353	0.292340
H247	H	1.021075	-0.750421	-0.227873
H248	H	1.521075	-0.250421	0.272127
H249	H	1.076437	-0.750289	-0.283301
H250	H	1.576437	-0.250289	0.216699
