data_functionalizedCrystal
_audit_creation_method	'MofGen! by Chris Wilmer'
_symmetry_space_group_name_H-M	'P1'
_symmetry_Int_Tables_number	1
_symmetry_cell_setting	triclinic
loop_
_symmetry_equiv_pos_as_xyz
  x,y,z
_cell_length_a	23.532407
_cell_length_b	22.010155
_cell_length_c	23.532407
_cell_angle_alpha	89.990798
_cell_angle_beta	97.151322
_cell_angle_gamma	90.010358
loop_
_atom_site_label
_atom_site_type_symbol
_atom_site_fract_x
_atom_site_fract_y
_atom_site_fract_z
O1	O	0.755269	0.050455	-0.069133
O2	O	0.589406	0.050474	-0.079137
O3	O	0.677339	0.050453	0.008797
O4	O	0.667336	0.050476	-0.157067
O5	O	0.677312	-0.050597	0.008797
O6	O	0.589379	-0.050576	-0.079137
O7	O	0.755243	-0.050595	-0.069133
Cu8	Cu	0.672308	-0.059812	-0.074135
Cu9	Cu	0.672340	0.059691	-0.074135
O10	O	0.667309	-0.050574	-0.157067
C11	C	0.568176	-0.000049	-0.078882
C12	C	0.504959	-0.000042	-0.078116
C13	C	0.105856	-0.000063	-0.125350
C14	C	0.046456	-0.000067	-0.124638
O15	O	0.009711	-0.000083	-0.168424
N16	N	0.023830	-0.000073	-0.072362
C17	C	0.060607	-0.000082	-0.020794
O18	O	0.035908	-0.000088	0.023737
C19	C	0.120006	-0.000082	-0.021506
C20	C	0.142629	-0.000070	-0.073785
C21	C	0.128479	-0.000051	-0.177625
C22	C	0.187876	-0.000046	-0.178336
C23	C	0.224649	-0.000053	-0.126772
C24	C	0.202025	-0.000065	-0.074497
C25	C	0.156783	-0.000096	0.030062
C26	C	0.216185	-0.000097	0.029345
C27	C	0.238808	-0.000084	-0.022934
C28	C	0.298194	-0.000067	-0.023643
N29	N	0.320820	-0.000061	-0.075920
C30	C	0.284048	-0.000054	-0.127484
C31	C	-0.064135	-0.000082	-0.019302
C32	C	-0.123533	-0.000077	-0.018589
C33	C	-0.137680	-0.000063	-0.122434
C34	C	-0.078281	-0.000064	-0.123146
C35	C	-0.041509	-0.000076	-0.071578
C36	C	0.408784	-0.000043	-0.128974
C37	C	0.468186	-0.000035	-0.129680
C38	C	0.482329	-0.000052	-0.025836
C39	C	0.422932	-0.000057	-0.025129
C40	C	0.386160	-0.000054	-0.076702
O41	O	0.334974	-0.000054	0.020119
O42	O	0.308755	-0.000055	-0.172007
N43	N	0.672291	-0.143865	-0.074135
C44	C	0.706685	-0.563643	-0.108496
C45	C	0.706692	-0.627251	-0.108494
O46	O	0.735915	-0.660141	-0.137705
N47	N	0.672351	-0.659072	-0.074128
C48	C	0.638005	-0.627282	-0.039758
O49	O	0.608796	-0.660189	-0.010527
C50	C	0.638002	-0.563676	-0.039757
C51	C	0.672341	-0.531858	-0.074129
C52	C	0.741022	-0.531825	-0.142864
C53	C	0.741014	-0.468222	-0.142867
C54	C	0.706670	-0.436437	-0.108500
C55	C	0.672333	-0.468255	-0.074131
C56	C	0.603660	-0.531887	-0.005383
C57	C	0.603660	-0.468276	-0.005384
C58	C	0.637999	-0.436458	-0.039757
C59	C	0.637981	-0.372866	-0.039766
N60	N	0.672322	-0.341045	-0.074132
C61	C	0.706667	-0.372830	-0.108498
C62	C	0.638015	-0.760860	-0.039762
C63	C	0.638015	-0.824465	-0.039766
C64	C	0.706703	-0.824429	-0.108502
C65	C	0.706700	-0.760823	-0.108501
C66	C	0.672356	-0.729039	-0.074128
C67	C	0.706648	-0.239259	-0.108501
C68	C	0.706635	-0.175650	-0.108502
C69	C	0.637950	-0.175691	-0.039764
C70	C	0.637960	-0.239295	-0.039765
C71	C	0.672313	-0.271077	-0.074135
O72	O	0.608775	-0.339935	-0.010568
O73	O	0.735876	-0.339916	-0.137719
C74	C	0.776472	-0.000071	-0.069388
C75	C	0.839689	-0.000073	-0.070154
C76	C	0.677071	-0.000074	0.030013
C77	C	0.676305	-0.000078	0.093230
N78	N	0.672362	0.143744	-0.074131
C79	C	0.667577	-0.000046	-0.178283
C80	C	0.668343	-0.000037	-0.241500
C81	C	0.723539	-0.000050	0.492333
C82	C	0.722827	-0.000046	0.551733
O83	O	0.766613	-0.000028	0.588478
N84	N	0.670551	-0.000040	0.574359
C85	C	0.618983	-0.000033	0.537582
O86	O	0.574452	-0.000027	0.562281
C87	C	0.619695	-0.000033	0.478182
C88	C	0.671974	-0.000045	0.455560
C89	C	0.775814	-0.000061	0.469710
C90	C	0.776525	-0.000067	0.410313
C91	C	0.724961	-0.000062	0.373540
C92	C	0.672685	-0.000051	0.396164
C93	C	0.568127	-0.000022	0.441406
C94	C	0.568844	-0.000022	0.382004
C95	C	0.621123	-0.000034	0.359381
C96	C	0.621832	-0.000052	0.299995
N97	N	0.674109	-0.000057	0.277368
C98	C	0.725673	-0.000062	0.314141
C99	C	0.617491	-0.000031	0.662324
C100	C	0.616778	-0.000035	0.721722
C101	C	0.720623	-0.000047	0.735869
C102	C	0.721335	-0.000047	0.676470
C103	C	0.669767	-0.000037	0.639698
C104	C	0.727163	-0.000075	0.189405
C105	C	0.727869	-0.000083	0.130003
C106	C	0.624025	-0.000069	0.115860
C107	C	0.623318	-0.000064	0.175257
C108	C	0.674891	-0.000065	0.212029
O109	O	0.578070	-0.000067	0.263215
O110	O	0.770196	-0.000060	0.289433
H111	H	0.138375	-0.000106	0.072634
H112	H	-0.034198	-0.000086	0.022693
O113	O	0.743756	-0.858717	-0.145563
H114	H	0.737993	-0.908291	-0.139780
O115	O	0.521995	-0.000068	0.029779
H116	H	0.567098	-0.000073	0.020496
O117	O	0.831437	-0.000070	0.509364
H118	H	0.822171	-0.000065	0.554472
H119	H	0.734622	-0.265129	-0.136488
H120	H	0.582043	-0.000067	0.085909
O121	O	0.600947	-0.141404	-0.002658
H122	H	0.606733	-0.091830	-0.008419
O123	O	0.566642	-0.433998	0.031718
H124	H	0.572417	-0.384422	0.025959
H125	H	0.486602	-0.000025	-0.172255
O126	O	0.255849	-0.000107	0.084966
H127	H	0.230134	-0.000111	0.121435
H128	H	0.575698	-0.557782	0.022607
H129	H	-0.141947	-0.000078	0.023982
H130	H	0.206289	-0.000036	-0.220908
O131	O	0.777722	-0.000056	0.652072
H132	H	0.780541	0.041130	0.625342
H133	H	0.575496	-0.000028	0.632386
O134	O	0.369128	-0.000034	-0.184597
H135	H	0.394847	-0.000019	-0.221063
O136	O	0.784258	-0.000086	0.105601
H137	H	0.819993	-0.000080	0.141155
O138	O	0.398525	-0.000068	0.031256
H139	H	0.434078	-0.000075	0.066992
H140	H	0.734598	-0.149747	-0.136494
O141	O	0.832917	-0.000068	0.385924
H142	H	0.835729	-0.041257	0.359211
O143	O	0.566934	-0.000058	0.199666
H144	H	0.542187	0.041132	0.184867
O145	O	0.778054	-0.433907	-0.179937
H146	H	0.801937	-0.466704	-0.203827
O147	O	0.513222	-0.000013	0.342342
H148	H	0.511051	-0.041199	0.314947
H149	H	0.098544	-0.000048	-0.219617
H150	H	0.768992	-0.557698	-0.170850
O151	O	0.743739	-0.726506	-0.145569
H152	H	0.767621	-0.759301	-0.169463
H153	H	-0.059867	-0.000057	-0.165717
H154	H	0.610046	-0.850366	-0.011784
H155	H	0.574207	-0.000036	0.740136
O156	O	0.600962	-0.726578	-0.002696
H157	H	0.577082	-0.759396	0.021193
O158	O	0.782786	-0.000085	0.229061
H159	H	0.819252	-0.000101	0.203342
O160	O	0.600923	-0.273619	-0.002695
H161	H	0.577042	-0.240827	0.021203
O162	O	0.511737	-0.000007	0.465793
H163	H	0.519893	-0.000011	0.513276
H164	H	0.762610	-0.000048	0.765821
O165	O	-0.177352	-0.000066	-0.178051
H166	H	-0.169349	0.041125	-0.203089
