data_functionalizedCrystal
_audit_creation_method	'MofGen! by Chris Wilmer'
_symmetry_space_group_name_H-M	'P1'
_symmetry_Int_Tables_number	1
_symmetry_cell_setting	triclinic
loop_
_symmetry_equiv_pos_as_xyz
  x,y,z
_cell_length_a	12.759401
_cell_length_b	12.759393
_cell_length_c	21.395361
_cell_angle_alpha	89.961821
_cell_angle_beta	90.030985
_cell_angle_gamma	89.982629
loop_
_atom_site_label
_atom_site_type_symbol
_atom_site_fract_x
_atom_site_fract_y
_atom_site_fract_z
Zn1	Zn	1.606126	-0.593927	-0.249403
Zn2	Zn	1.605975	-0.418223	-0.354194
Zn3	Zn	1.430432	-0.418266	-0.249435
Zn4	Zn	1.430368	-0.593864	-0.354148
O5	O	1.518225	-0.506070	-0.301795
O6	O	1.753127	-0.570627	-0.263310
O7	O	1.582653	-0.271208	-0.340330
O8	O	1.453828	-0.441611	-0.161753
O9	O	1.753016	-0.441539	-0.340299
O10	O	1.582910	-0.570669	-0.161730
O11	O	1.453682	-0.271239	-0.263363
O12	O	1.283402	-0.441551	-0.263319
O13	O	1.453719	-0.740894	-0.340221
O14	O	1.283355	-0.570563	-0.340251
O15	O	1.582848	-0.740939	-0.263266
O16	O	1.582590	-0.441479	-0.441866
O17	O	1.453573	-0.570521	-0.441832
C18	C	1.245258	-0.506056	-0.301784
C19	C	1.128481	-0.506074	-0.301794
C20	C	0.963891	-0.573152	-0.341923
C21	C	1.073615	-0.573141	-0.341916
C22	C	1.073618	-0.439006	-0.261681
C23	C	0.963896	-0.439013	-0.261691
C24	C	1.223532	-0.610440	-0.415821
C25	C	1.278392	-0.677517	-0.455927
C26	C	1.242812	-0.780003	-0.465623
C27	C	1.152374	-0.815433	-0.435204
C28	C	1.097520	-0.748362	-0.395093
C29	C	1.133098	-0.645861	-0.385409
C30	C	0.813977	-0.401725	-0.187786
C31	C	0.759121	-0.334658	-0.147671
C32	C	0.794699	-0.232170	-0.137969
C33	C	0.885140	-0.196744	-0.168377
C34	C	0.939996	-0.263811	-0.208491
C35	C	0.904411	-0.366298	-0.218195
C36	C	1.518293	-0.780103	-0.301735
C37	C	1.518322	-0.896880	-0.301709
C38	C	1.451108	-0.951720	-0.341761
C39	C	1.451145	-1.061444	-0.341737
C40	C	1.585615	-1.061479	-0.261605
C41	C	1.585582	-0.951757	-0.261632
C42	C	1.413574	-1.211363	-0.415591
C43	C	1.346342	-1.266206	-0.455638
C44	C	1.243807	-1.230591	-0.465260
C45	C	1.208482	-1.140134	-0.434828
C46	C	1.275708	-1.085296	-0.394777
C47	C	1.378258	-1.120910	-0.385166
C48	C	1.623143	-0.801836	-0.187777
C49	C	1.690364	-0.746996	-0.147723
C50	C	1.792901	-0.782609	-0.138094
C51	C	1.828222	-0.873070	-0.168515
C52	C	1.761000	-0.927910	-0.208570
C53	C	1.658465	-0.892289	-0.218200
C54	C	1.792259	-0.506085	-0.301807
C55	C	1.909035	-0.506092	-0.301812
C56	C	1.518087	-0.506012	-0.464583
C57	C	1.518123	-0.506022	-0.534224
C58	C	1.518218	-0.233103	-0.301810
C59	C	1.518393	-0.116327	-0.301659
C60	C	1.585363	-0.438898	-0.566934
C61	C	1.585411	-0.438921	-0.632369
C62	C	1.518202	-0.506058	-0.665092
C63	C	1.450959	-0.573195	-0.632374
C64	C	1.450919	-0.573177	-0.566940
C65	C	1.423604	-0.514296	-0.768806
C66	C	1.423642	-0.514307	-0.834239
C67	C	1.518325	-0.506119	-0.866913
C68	C	1.612973	-0.497899	-0.834146
C69	C	1.612934	-0.497881	-0.768711
C70	C	1.518238	-0.506085	-0.736044
C71	C	1.585623	-0.439017	-0.970575
C72	C	1.585673	-0.439048	-1.036012
C73	C	1.451211	-0.573316	-1.036016
C74	C	1.451170	-0.573291	-0.970580
C75	C	1.518374	-0.506136	-0.937864
C76	C	1.518393	-0.506152	-0.138372
C77	C	1.518465	-0.506186	-0.068730
H78	H	1.118298	-0.384395	-0.229015
H79	H	1.640087	-0.384219	-0.540298
H80	H	1.640169	-0.384261	-0.659007
N81	N	1.524173	-1.249775	-0.405225
H82	H	1.522340	-1.322861	-0.387100
H83	H	1.561349	-1.201240	-0.375256
H84	H	1.789766	-1.001572	-0.233338
N85	N	1.658122	-0.366608	-0.935285
H86	H	1.647891	-0.376777	-0.888868
H87	H	1.641827	-0.291561	-0.946769
H88	H	1.124983	-1.111151	-0.442660
N89	N	1.658205	-0.366653	-1.071295
H90	H	1.700767	-0.324109	-1.040638
H91	H	1.615479	-0.318009	-1.098494
N92	N	1.715104	-0.489063	-0.869377
H93	H	1.724943	-0.553084	-0.896486
H94	H	1.774987	-0.483818	-0.838651
H95	H	1.252501	-0.526983	-0.407938
H96	H	0.919227	-0.627772	-0.374592
N97	N	1.715008	-0.489020	-0.733368
H98	H	1.775000	-0.483835	-0.763991
H99	H	1.724707	-0.553036	-0.706183
H100	H	1.396493	-0.627984	-1.062658
N101	N	0.735537	-0.159827	-0.094703
H102	H	0.783065	-0.137005	-0.059489
H103	H	0.672849	-0.197874	-0.076952
H104	H	1.346495	-0.520967	-0.742210
N105	N	0.923521	-0.086204	-0.157910
H106	H	0.867577	-0.034893	-0.171349
H107	H	0.989155	-0.074035	-0.183258
H108	H	1.375113	-1.339857	-0.480416
H109	H	0.685484	-0.363515	-0.122907
H110	H	1.013640	-0.234959	-0.233249
N111	N	1.378639	-0.645681	-0.935295
H112	H	1.336067	-0.688215	-0.965952
H113	H	1.330028	-0.602861	-0.908195
H114	H	1.346573	-0.520990	-0.860913
N115	N	1.378471	-0.645610	-0.667664
H116	H	1.388695	-0.635434	-0.714080
H117	H	1.303439	-0.629191	-0.656273
H118	H	1.396164	-0.627838	-0.540307
H119	H	1.640374	-1.106173	-0.228975
N120	N	0.775598	-0.512268	-0.198256
H121	H	0.709986	-0.524536	-0.172901
H122	H	0.831615	-0.563506	-0.184829
N123	N	1.378561	-0.892529	-0.384981
H124	H	1.335986	-0.943924	-0.410349
H125	H	1.421275	-0.846987	-0.413991
H126	H	1.023889	-0.777210	-0.370325
H127	H	1.123419	-0.898893	-0.443096
N128	N	1.237628	-0.987729	-0.361962
H129	H	1.175524	-1.005685	-0.334738
H130	H	1.216125	-0.933784	-0.394071
H131	H	1.911713	-0.902072	-0.160671
N132	N	1.301971	-0.852355	-0.508881
H133	H	1.375922	-0.861839	-0.492990
H134	H	1.303842	-0.820985	-0.552217
H135	H	1.847626	-0.737956	-0.105470
N136	N	1.375922	-0.639308	-0.488746
H137	H	1.437494	-0.684457	-0.476228
H138	H	1.390042	-0.564188	-0.476516
H139	H	1.189067	-1.275253	-0.497867
N140	N	1.652296	-0.649429	-0.114897
H141	H	1.656847	-0.659870	-0.068176
H142	H	1.577155	-0.635210	-0.127113
N143	N	1.512547	-0.763419	-0.198169
H144	H	1.500369	-0.697797	-0.172815
H145	H	1.461379	-0.819414	-0.184695
