data_functionalizedCrystal
_audit_creation_method	'MofGen! by Chris Wilmer'
_symmetry_space_group_name_H-M	'P1'
_symmetry_Int_Tables_number	1
_symmetry_cell_setting	triclinic
loop_
_symmetry_equiv_pos_as_xyz
  x,y,z
_cell_length_a	23.204026
_cell_length_b	23.204034
_cell_length_c	23.204065
_cell_angle_alpha	90.004048
_cell_angle_beta	59.993824
_cell_angle_gamma	119.999457
loop_
_atom_site_label
_atom_site_type_symbol
_atom_site_fract_x
_atom_site_fract_y
_atom_site_fract_z
O1	O	-0.508354	-0.491194	0.903701
O2	O	-0.390337	-0.407389	0.701879
O3	O	-0.508353	-0.407389	0.819895
O4	O	-0.390338	-0.491194	0.785684
O5	O	-0.412501	-0.311538	0.819893
O6	O	-0.294485	-0.311538	0.701876
O7	O	-0.412501	-0.395343	0.903698
Cu8	Cu	-0.344741	-0.344688	0.802787
Cu9	Cu	-0.458097	-0.458043	0.802790
O10	O	-0.294485	-0.395343	0.785682
C11	C	-0.590045	-0.248543	0.838594
C12	C	-0.549591	-0.284107	0.833703
C13	C	-0.555689	-0.179185	0.839080
C14	C	-0.694400	-0.248540	0.838588
C15	C	-0.765523	-0.284101	0.833691
C16	C	-0.659885	-0.179182	0.839074
C17	C	-0.590042	-0.144182	0.838589
C18	C	-0.549584	-0.068163	0.833693
C19	C	-0.659889	-0.283385	0.839079
C20	C	-0.516897	-0.006747	0.829736
C21	C	-0.516907	-0.312839	0.829751
C22	C	-0.822981	-0.312830	0.829734
C23	C	-0.475890	0.070302	0.824774
C24	C	-0.475904	-0.348885	0.824793
C25	C	-0.895066	-0.348872	0.824770
O26	O	-1.083827	-0.491184	0.785666
O27	O	-0.916220	-0.407375	0.819871
O28	O	-0.916202	-0.407380	0.701857
O29	O	-1.083845	-0.491179	0.903680
O30	O	-0.916201	-0.311528	0.701852
O31	O	-0.916219	-0.311523	0.819866
O32	O	-1.083826	-0.395332	0.785661
Cu33	Cu	-1.000023	-0.344676	0.802763
Cu34	Cu	-1.000024	-0.458031	0.802769
O35	O	-1.083844	-0.395328	0.903675
C36	C	-0.212794	-0.248542	0.356979
C37	C	-0.253253	-0.284104	0.321419
C38	C	-0.142950	-0.179184	0.322134
C39	C	-0.212791	-0.248544	0.461336
C40	C	-0.253246	-0.284108	0.537356
C41	C	-0.142946	-0.179185	0.426333
C42	C	-0.108434	-0.144182	0.356976
C43	C	-0.037310	-0.068163	0.321413
C44	C	-0.247148	-0.283387	0.426336
C45	C	0.020150	-0.006746	0.292682
C46	C	-0.285940	-0.312834	0.292690
C47	C	-0.285930	-0.312840	0.598772
C48	C	0.092236	0.070303	0.256638
C49	C	-0.326947	-0.348878	0.256649
C50	C	-0.326934	-0.348885	0.675822
C51	C	-0.181447	-0.492070	0.777885
C52	C	-0.110320	-0.456506	0.782776
C53	C	-0.215959	-0.561427	0.777397
C54	C	-0.285813	-0.492074	0.777893
C55	C	-0.326274	-0.456514	0.782792
C56	C	-0.320166	-0.561431	0.777405
C57	C	-0.285806	-0.596431	0.777888
C58	C	-0.326261	-0.672449	0.782781
C59	C	-0.215966	-0.457229	0.777402
O60	O	-0.390319	0.298172	0.785667
O61	O	-0.508335	0.096360	0.819870
O62	O	-0.390311	0.214360	0.701857
O63	O	-0.508343	0.180171	0.903680
O64	O	-0.294465	0.214355	0.701862
O65	O	-0.412489	0.096354	0.819875
O66	O	-0.294473	0.298166	0.785673
Cu67	Cu	-0.344730	0.197260	0.802775
Cu68	Cu	-0.458078	0.197266	0.802768
O69	O	-0.412497	0.180165	0.903686
O70	O	0.281002	0.298170	0.210182
O71	O	0.113391	0.096357	0.293986
O72	O	0.113378	0.214355	0.294006
O73	O	0.281016	0.180172	0.210162
O74	O	0.113375	0.214358	0.198156
O75	O	0.113389	0.096359	0.198136
O76	O	0.280999	0.298172	0.114332
Cu77	Cu	0.197194	0.197266	0.147482
Cu78	Cu	0.197197	0.197263	0.260836
O79	O	0.281013	0.180174	0.114312
O80	O	-0.412515	-0.395339	0.114349
O81	O	-0.294502	-0.311529	0.198147
O82	O	-0.412522	-0.311537	0.198169
O83	O	-0.294495	-0.395331	0.114327
O84	O	-0.508371	-0.407389	0.294021
O85	O	-0.390350	-0.407382	0.293999
O86	O	-0.508364	-0.491192	0.210202
Cu87	Cu	-0.458109	-0.458039	0.260852
Cu88	Cu	-0.344757	-0.344682	0.147496
O89	O	-0.390343	-0.491184	0.210179
C90	C	-0.621391	-0.596434	1.113469
C91	C	-0.692518	-0.672452	1.149034
C92	C	-0.586878	-0.561432	1.148312
C93	C	-0.517025	-0.492076	1.009105
C94	C	-0.476565	-0.456515	0.933083
C95	C	-0.482671	-0.457233	1.044107
C96	C	-0.517030	-0.492075	1.113467
C97	C	-0.476575	-0.456512	1.149029
C98	C	-0.586873	-0.561433	1.044109
C99	C	-1.285850	-0.492058	1.113447
C100	C	-1.326312	-0.456495	1.149009
C101	C	-1.320209	-0.561415	1.148293
C102	C	-1.181477	-0.492060	1.009084
C103	C	-1.110342	-0.456499	0.933062
C104	C	-1.215994	-0.561417	1.044089
C105	C	-1.285848	-0.596417	1.113449
C106	C	-1.326308	-0.672435	1.149014
C107	C	-1.215996	-0.457216	1.044086
C108	C	-0.517042	0.172379	1.113459
C109	C	-0.476610	0.177239	1.149033
C110	C	-0.586863	0.171935	1.148291
C111	C	-0.517017	0.172401	1.009087
C112	C	-0.476557	0.177284	0.933066
C113	C	-0.586838	0.171957	1.044077
C114	C	-0.621352	0.172455	1.113436
C115	C	-0.692449	0.177395	1.148986
C116	C	-0.482686	0.171881	1.044100
C117	C	-0.589969	-0.144198	0.356937
C118	C	-0.549506	-0.068180	0.321370
C119	C	-0.555610	-0.179202	0.322096
C120	C	-0.694342	-0.248552	0.461304
C121	C	-0.765477	-0.284111	0.537327
C122	C	-0.659825	-0.283398	0.426305
C123	C	-0.589971	-0.248559	0.356944
C124	C	-0.549511	-0.284124	0.321384
C125	C	-0.659822	-0.179196	0.426298
C126	C	-0.516823	-0.312856	0.292655
C127	C	-0.516816	-0.006765	0.292635
C128	C	-0.822946	-0.312838	0.598746
C129	C	-0.475815	-0.348903	0.256614
C130	C	-0.475805	0.070282	0.256586
C131	C	-0.895044	-0.348878	0.675798
O132	O	-1.412522	-0.903627	1.198145
O133	O	-1.294513	-0.701816	1.114334
O134	O	-1.412512	-0.819821	1.114330
O135	O	-1.294522	-0.785622	1.198149
O136	O	-1.508378	-0.819822	1.210186
O137	O	-1.390378	-0.701817	1.210190
O138	O	-1.508387	-0.903627	1.294000
Cu139	Cu	-1.458136	-0.802722	1.260847
Cu140	Cu	-1.344764	-0.802721	1.147487
O141	O	-1.390388	-0.785622	1.294004
C142	C	-0.108356	0.233051	0.356949
C143	C	-0.037230	0.228153	0.321389
C144	C	-0.142862	0.233541	0.322099
C145	C	-0.212727	0.233059	0.461309
C146	C	-0.253195	0.228168	0.537331
C147	C	-0.247074	0.233548	0.426301
C148	C	-0.212708	0.233058	0.356940
C149	C	-0.253156	0.228166	0.321371
C150	C	-0.142881	0.233542	0.426310
C151	C	-0.285834	0.224212	0.292636
C152	C	0.020231	0.224193	0.292661
C153	C	-0.285890	0.224215	0.598751
C154	C	-0.326830	0.219253	0.256585
C155	C	0.092320	0.219227	0.256621
C156	C	-0.326906	0.219257	0.675803
H157	H	-0.499490	-0.151089	0.839870
H158	H	-0.113955	0.234338	0.265105
H159	H	-0.426499	0.171069	1.016008
H160	H	-0.187077	-0.400242	0.776616
H161	H	-0.426464	-0.400247	1.016000
H162	H	-0.114064	-0.151086	0.265145
H163	H	-0.113992	0.234335	0.454410
F164	F	-0.624643	-0.598158	1.222803
F165	F	-0.482137	-0.142475	0.247608
H166	H	-0.688766	-0.340368	0.839854
H167	H	-0.688766	-0.151079	0.839847
F168	F	-0.320609	-0.357872	0.463068
F169	F	-1.393682	-0.598144	1.222780
H170	H	-0.688709	-0.151090	0.454394
H171	H	-0.114063	-0.151087	0.454436
F172	F	-0.393625	-0.598161	0.776377
H173	H	-0.187058	-0.589519	0.776595
F174	F	-0.624624	-0.598165	1.007378
F175	F	-0.320545	0.234564	0.463033
F176	F	-1.178232	-0.598146	1.007359
F177	F	-0.697580	-0.357880	0.463043
H178	H	-0.615753	0.171151	1.205281
F179	F	-1.178227	-0.382727	1.007359
H180	H	-0.615665	0.171254	1.015945
