data_functionalizedCrystal
_audit_creation_method	'MofGen! by Chris Wilmer'
_symmetry_space_group_name_H-M	'P1'
_symmetry_Int_Tables_number	1
_symmetry_cell_setting	triclinic
loop_
_symmetry_equiv_pos_as_xyz
  x,y,z
_cell_length_a	18.050590
_cell_length_b	21.295416
_cell_length_c	18.050583
_cell_angle_alpha	90.037986
_cell_angle_beta	89.999666
_cell_angle_gamma	89.980502
loop_
_atom_site_label
_atom_site_type_symbol
_atom_site_fract_x
_atom_site_fract_y
_atom_site_fract_z
Zn1	Zn	1.135290	0.250746	-0.419593
Zn2	Zn	1.635290	0.750746	0.080407
Zn3	Zn	1.135193	0.356033	-0.295399
Zn4	Zn	1.635193	0.856033	0.204601
Zn5	Zn	1.011106	0.250761	-0.295451
Zn6	Zn	1.511106	0.750761	0.204549
Zn7	Zn	1.011052	0.355962	-0.419582
Zn8	Zn	1.511052	0.855962	0.080418
O9	O	1.073160	0.303375	-0.357506
O10	O	1.573160	0.803375	0.142494
O11	O	1.239201	0.264736	-0.403101
O12	O	1.739201	0.764736	0.096899
O13	O	1.118715	0.342104	-0.191481
O14	O	1.618715	0.842104	0.308519
O15	O	1.027643	0.162670	-0.311945
O16	O	1.527643	0.662670	0.188055
O17	O	1.239131	0.342090	-0.311857
O18	O	1.739131	0.842090	0.188143
O19	O	1.118879	0.162659	-0.403151
O20	O	1.618879	0.662659	0.096849
O21	O	1.027549	0.264762	-0.191519
O22	O	1.527549	0.764762	0.308481
O23	O	0.907175	0.264693	-0.311934
O24	O	1.407175	0.764693	0.188066
O25	O	1.027550	0.341968	-0.523508
O26	O	1.527550	0.841968	-0.023508
O27	O	0.907135	0.341983	-0.403132
O28	O	1.407135	0.841983	0.096868
O29	O	1.118827	0.264667	-0.523516
O30	O	1.618827	0.764667	-0.023516
O31	O	1.118663	0.444113	-0.311846
O32	O	1.618663	0.944113	0.188154
O33	O	1.027457	0.444060	-0.403082
O34	O	1.527457	0.944060	0.096918
C35	C	0.880208	0.303332	-0.357538
C36	C	1.380208	0.803332	0.142462
C37	C	0.797663	0.303329	-0.357569
C38	C	1.297663	0.803329	0.142431
C39	C	0.598212	0.345480	-0.407045
C40	C	1.098212	0.845480	0.092955
C41	C	0.548821	0.288079	-0.425322
C42	C	1.048821	0.788079	0.074678
C43	C	0.646532	0.303364	-0.357533
C44	C	1.146532	0.803364	0.142467
C45	C	0.548841	0.360798	-0.339255
C46	C	1.048841	0.860798	0.160745
C47	C	0.500547	0.303403	-0.357499
C48	C	1.000547	0.803403	0.142501
C49	C	0.598229	0.245933	-0.375846
C50	C	1.098229	0.745933	0.124154
C51	C	0.598253	0.318691	-0.289747
C52	C	1.098253	0.818691	0.210253
C53	C	0.548885	0.261250	-0.307998
C54	C	1.048885	0.761250	0.192002
C55	C	0.730630	0.303343	-0.357554
C56	C	1.230630	0.803343	0.142446
C57	C	0.416450	0.303419	-0.357478
C58	C	0.916450	0.803419	0.142522
C59	C	1.073064	0.466927	-0.357473
C60	C	1.573064	0.966927	0.142527
C61	C	1.073090	0.536895	-0.357484
C62	C	1.573090	1.036895	0.142516
C63	C	1.120623	0.569768	-0.310028
C64	C	1.620623	1.069768	0.189972
C65	C	1.120658	0.635511	-0.310048
C66	C	1.620658	1.135511	0.189952
C67	C	1.073147	0.668378	-0.357516
C68	C	1.573147	1.168378	0.142484
C69	C	1.025610	0.635497	-0.404982
C70	C	1.525610	1.135497	0.095018
C71	C	1.025582	0.569756	-0.404966
C72	C	1.525582	1.069756	0.095034
N73	N	1.008181	0.771632	-0.363194
N74	N	1.508181	1.271632	0.136806
N75	N	1.008210	0.834084	-0.363205
N76	N	1.508210	1.334084	0.136795
C77	C	1.073231	0.866452	-0.357569
C78	C	1.573231	1.366452	0.142431
N79	N	1.138223	0.834010	-0.351907
N80	N	1.638223	1.334010	0.148093
N81	N	1.138194	0.771553	-0.351892
N82	N	1.638194	1.271553	0.148108
C83	C	1.073173	0.739663	-0.357540
C84	C	1.573173	1.239663	0.142460
C85	C	1.120806	0.970611	-0.310132
C86	C	1.620806	1.470611	0.189868
C87	C	1.120842	1.036354	-0.310157
C88	C	1.620842	1.536354	0.189843
C89	C	1.025788	1.036339	-0.405088
C90	C	1.525788	1.536339	0.094912
C91	C	1.025758	0.970597	-0.405066
C92	C	1.525758	1.470597	0.094934
C93	C	1.073266	0.937737	-0.357584
C94	C	1.573266	1.437737	0.142416
C95	C	1.266866	0.303419	-0.357474
C96	C	1.766866	0.803419	0.142526
C97	C	1.349412	0.303438	-0.357461
C98	C	1.849412	0.803438	0.142539
C99	C	1.073279	1.139185	-0.357568
C100	C	1.573279	1.639185	0.142432
C101	C	1.073331	1.069217	-0.357627
C102	C	1.573331	1.569217	0.142373
C103	C	1.073193	0.303308	-0.551212
C104	C	1.573193	0.803308	-0.051212
C105	C	1.073207	0.303280	-0.633758
C106	C	1.573207	0.803280	-0.133758
C107	C	1.122893	0.261223	-0.833213
C108	C	1.622893	0.761223	-0.333213
C109	C	1.055160	0.245805	-0.882627
C110	C	1.555160	0.745805	-0.382627
C111	C	1.073237	0.303269	-0.784888
C112	C	1.573237	0.803269	-0.284888
C113	C	1.140997	0.318646	-0.882556
C114	C	1.640997	0.818646	-0.382556
C115	C	1.073272	0.303257	-0.930873
C116	C	1.573272	0.803257	-0.430873
C117	C	1.005468	0.287822	-0.833215
C118	C	1.505468	0.787822	-0.333215
C119	C	1.091351	0.360689	-0.833140
C120	C	1.591351	0.860689	-0.333140
C121	C	1.023571	0.345294	-0.882531
C122	C	1.523571	0.845294	-0.382531
C123	C	1.073218	0.303274	-0.700790
C124	C	1.573218	0.803274	-0.200790
C125	C	1.073283	0.303252	-1.014970
C126	C	1.573283	0.803252	-0.514970
C127	C	1.073170	0.303397	-0.164554
C128	C	1.573170	0.803397	0.335446
C129	C	1.073300	0.303248	-0.082009
C130	C	1.573300	0.803248	0.417991
H131	H	0.619833	0.197364	-0.391356
H132	H	1.119833	0.697364	0.108644
Cl133	Cl	0.916989	0.267654	-0.799896
Cl134	Cl	1.416989	0.767654	-0.299896
Cl135	Cl	0.965820	0.528427	-0.464630
Cl136	Cl	1.465820	1.028427	0.035370
Cl137	Cl	0.631777	0.338700	-0.201274
Cl138	Cl	1.131777	0.838700	0.298726
H139	H	1.159554	1.063118	-0.271514
H140	H	1.659554	1.563118	0.228486
H141	H	1.159493	0.943855	-0.271471
H142	H	1.659493	1.443855	0.228529
Cl143	Cl	1.187623	0.206295	-0.799775
Cl144	Cl	1.687623	0.706295	-0.299775
Cl145	Cl	0.958687	0.400176	-0.915771
Cl146	Cl	1.458687	0.900176	-0.415771
H147	H	0.986928	0.662261	-0.443633
H148	H	1.486928	1.162261	0.056367
Cl149	Cl	0.966063	1.077652	-0.464768
Cl150	Cl	1.466063	1.577652	0.035232
H151	H	0.527362	0.225610	-0.266114
H152	H	1.027362	0.725610	0.233886
Cl153	Cl	0.515297	0.268083	-0.513805
Cl154	Cl	1.015297	0.768083	-0.013805
Cl155	Cl	0.965995	0.929269	-0.464726
Cl156	Cl	1.465995	1.429269	0.035274
H157	H	0.527143	0.409352	-0.323812
H158	H	1.027143	0.909352	0.176188
Cl159	Cl	1.031522	0.170828	-0.916191
Cl160	Cl	1.531522	0.670828	-0.416191
H161	H	1.106681	0.409240	-0.811388
H162	H	1.606681	0.909240	-0.311388
H163	H	1.198286	0.331657	-0.904233
H164	H	1.698286	0.831657	-0.404233
H165	H	0.619873	0.381033	-0.448963
H166	H	1.119873	0.881033	0.051037
H167	H	1.159309	0.543015	-0.271367
H168	H	1.659309	1.043015	0.228633
Cl169	Cl	1.180418	0.676845	-0.250382
Cl170	Cl	1.680418	1.176845	0.249618
