data_functionalizedCrystal
_audit_creation_method	'MofGen! by Chris Wilmer'
_symmetry_space_group_name_H-M	'P1'
_symmetry_Int_Tables_number	1
_symmetry_cell_setting	triclinic
loop_
_symmetry_equiv_pos_as_xyz
  x,y,z
_cell_length_a	16.959455
_cell_length_b	16.959454
_cell_length_c	18.215399
_cell_angle_alpha	89.976304
_cell_angle_beta	89.981058
_cell_angle_gamma	90.019503
loop_
_atom_site_label
_atom_site_type_symbol
_atom_site_fract_x
_atom_site_fract_y
_atom_site_fract_z
Zn1	Zn	1.208417	-0.314702	-0.416120
Zn2	Zn	1.208330	-0.446887	-0.293063
Zn3	Zn	1.076236	-0.314725	-0.293069
Zn4	Zn	1.076210	-0.446841	-0.416090
O5	O	1.142298	-0.380789	-0.354586
O6	O	1.319016	-0.332246	-0.399806
O7	O	1.190781	-0.429385	-0.190080
O8	O	1.093817	-0.204111	-0.309408
O9	O	1.318952	-0.429362	-0.309397
O10	O	1.190930	-0.204094	-0.399813
O11	O	1.093732	-0.332286	-0.190084
O12	O	0.965621	-0.332241	-0.309378
O13	O	1.093773	-0.429283	-0.519078
O14	O	0.965602	-0.429306	-0.399761
O15	O	1.190905	-0.332201	-0.519100
O16	O	1.190756	-0.557492	-0.309367
O17	O	1.093689	-0.557458	-0.399755
C18	C	0.936932	-0.380772	-0.354567
C19	C	0.849075	-0.380783	-0.354577
C20	C	0.807766	-0.431275	-0.307438
C21	C	0.807831	-0.330298	-0.401722
C22	C	0.725285	-0.330304	-0.401731
C23	C	0.683976	-0.380796	-0.354592
C24	C	0.725212	-0.431281	-0.307444
C25	C	0.684042	-0.279813	-0.448873
C26	C	0.601491	-0.279817	-0.448883
C27	C	0.560180	-0.330314	-0.401747
C28	C	0.601422	-0.380802	-0.354598
C29	C	0.560113	-0.431294	-0.307458
C30	C	0.601353	-0.481786	-0.260312
C31	C	0.683902	-0.481778	-0.260308
C32	C	0.477632	-0.330322	-0.401751
C33	C	0.477559	-0.431300	-0.307464
C34	C	1.142232	-0.586155	-0.354573
C35	C	1.142276	-0.674012	-0.354592
C36	C	1.091828	-1.045499	-0.401645
C37	C	1.192988	-1.045475	-0.307601
C38	C	1.192960	-0.962929	-0.307594
C39	C	1.142365	-0.921664	-0.354613
C40	C	1.091797	-0.962946	-0.401638
C41	C	1.243521	-0.921641	-0.260564
C42	C	1.243495	-0.839091	-0.260555
C43	C	1.192903	-0.797825	-0.307578
C44	C	1.142334	-0.839111	-0.354606
C45	C	1.091739	-0.797846	-0.401625
C46	C	1.041173	-0.839131	-0.448657
C47	C	1.041205	-0.921680	-0.448661
C48	C	1.192871	-0.715276	-0.307574
C49	C	1.091708	-0.715293	-0.401618
C50	C	1.348466	-0.380807	-0.354604
C51	C	1.436323	-0.380814	-0.354612
C52	C	1.142346	-0.380734	-0.546539
C53	C	1.142367	-0.380711	-0.628338
C54	C	1.142386	-0.174620	-0.354614
C55	C	1.142424	-0.086764	-0.354626
C56	C	1.192961	-0.330113	-0.816544
C57	C	1.192971	-0.330090	-0.893403
C58	C	1.091828	-0.431187	-0.893369
C59	C	1.091815	-0.431205	-0.816511
C60	C	1.142386	-0.380670	-0.778101
C61	C	1.142409	-0.380628	-0.931817
C62	C	1.142418	-0.380603	-1.015151
C63	C	1.142376	-0.380693	-0.694762
C64	C	1.142296	-0.380786	-0.163379
C65	C	1.142428	-0.380587	-0.081581
H66	H	0.567708	-0.522894	-0.221929
C67	C	1.036210	-1.090904	-0.453379
H68	H	1.006079	-1.054503	-0.481383
H69	H	1.001799	-1.123151	-0.425207
H70	H	1.066447	-1.123062	-0.485478
C71	C	1.248607	-0.274482	-0.935688
H72	H	1.278725	-0.244394	-0.901802
H73	H	1.218393	-0.240030	-0.965671
H74	H	1.283042	-0.304719	-0.965669
C75	C	0.556130	-0.224287	-0.500745
H76	H	0.501051	-0.231519	-0.493997
H77	H	0.569682	-0.235919	-0.550171
H78	H	0.569665	-0.171159	-0.490051
H79	H	1.284708	-0.955245	-0.222279
C80	C	0.432122	-0.486843	-0.255614
H81	H	0.377052	-0.479621	-0.262371
H82	H	0.445633	-0.475216	-0.206184
H83	H	0.445640	-0.539967	-0.266313
C84	C	0.985522	-0.793735	-0.500375
H85	H	0.992752	-0.738660	-0.493633
H86	H	0.932424	-0.807307	-0.489566
H87	H	0.997073	-0.807222	-0.549836
H88	H	0.717487	-0.522884	-0.221922
C89	C	1.036055	-0.669904	-0.453340
H90	H	1.043280	-0.614828	-0.446604
H91	H	0.982958	-0.683479	-0.442530
H92	H	1.047607	-0.683397	-0.502799
H93	H	1.284669	-0.805481	-0.222260
C94	C	1.036211	-0.486778	-0.935622
H95	H	1.043467	-0.479533	-0.986902
H96	H	0.983104	-0.475214	-0.923022
H97	H	1.047764	-0.539892	-0.923017
C98	C	1.248580	-0.274523	-0.774292
H99	H	1.241336	-0.281778	-0.723012
H100	H	1.237034	-0.221411	-0.786895
H101	H	1.301689	-0.286095	-0.786896
H102	H	0.841347	-0.472387	-0.269055
H103	H	1.234037	-0.681666	-0.269277
C104	C	1.248642	-1.090863	-0.255889
H105	H	1.241422	-1.145939	-0.262632
H106	H	1.237109	-1.077371	-0.206429
H107	H	1.301740	-1.077291	-0.266715
H108	H	1.050625	-0.472374	-0.785210
H109	H	0.841470	-0.289186	-0.440097
H110	H	0.444058	-0.289206	-0.440131
C111	C	0.729478	-0.224279	-0.500723
H112	H	0.693096	-0.194205	-0.528797
H113	H	0.761683	-0.254558	-0.532740
H114	H	0.761680	-0.189799	-0.472618
C115	C	0.985586	-0.967090	-0.500389
H116	H	0.955453	-0.930694	-0.528397
H117	H	0.951176	-0.999332	-0.472210
H118	H	1.015820	-0.999254	-0.532484
