data_functionalizedCrystal
_audit_creation_method	'MofGen! by Chris Wilmer'
_symmetry_space_group_name_H-M	'P1'
_symmetry_Int_Tables_number	1
_symmetry_cell_setting	triclinic
loop_
_symmetry_equiv_pos_as_xyz
  x,y,z
_cell_length_a	16.109301
_cell_length_b	16.053811
_cell_length_c	16.109301
_cell_angle_alpha	87.436393
_cell_angle_beta	96.538519
_cell_angle_gamma	87.421869
loop_
_atom_site_label
_atom_site_type_symbol
_atom_site_fract_x
_atom_site_fract_y
_atom_site_fract_z
O1	O	1.106638	-0.069379	-0.103368
O2	O	0.864577	-0.069392	-0.116667
O3	O	0.992257	-0.069377	0.011013
O4	O	0.978958	-0.069395	-0.231048
O5	O	0.985228	0.069481	0.004014
O6	O	0.857548	0.069466	-0.123666
O7	O	1.099609	0.069479	-0.110367
Zn8	Zn	0.977463	0.091519	-0.118128
Zn9	Zn	0.986724	-0.091432	-0.108906
O10	O	0.971930	0.069464	-0.238047
C11	C	0.830088	0.000035	-0.119628
C12	C	0.737793	0.000030	-0.118012
N13	N	0.971149	0.216379	-0.124422
C14	C	0.515520	0.000034	-0.190020
C15	C	0.428799	0.000040	-0.188496
C16	C	0.448673	0.000048	-0.037008
C17	C	0.535392	0.000048	-0.038533
C18	C	0.568813	0.000037	-0.115041
C19	C	0.395374	0.000042	-0.111992
C20	C	0.301347	0.000048	-0.110340
C21	C	0.662845	0.000033	-0.116694
C22	C	1.025496	0.260079	-0.070113
C23	C	1.021087	0.347485	-0.074523
C24	C	0.962334	0.391189	-0.133247
C25	C	0.907981	0.347483	-0.187557
C26	C	0.912386	0.260078	-0.183143
C27	C	0.943090	0.652597	-0.152507
C28	C	0.938690	0.740008	-0.156919
C29	C	1.051796	0.740004	-0.043883
C30	C	1.056200	0.652598	-0.039477
C31	C	1.001844	0.608899	-0.093785
N32	N	0.957827	0.480533	-0.137758
N33	N	1.006347	0.519557	-0.089269
C34	C	1.134099	0.000050	-0.107406
C35	C	1.226394	0.000049	-0.109021
C36	C	0.988204	0.000053	0.038488
C37	C	0.986588	0.000054	0.130784
N38	N	0.993037	0.783708	-0.102611
C39	C	0.975983	0.000032	-0.265522
C40	C	0.977598	0.000026	-0.357817
C41	C	1.058597	0.000045	0.353057
C42	C	1.057073	0.000038	0.439777
C43	C	0.905584	0.000032	0.419903
C44	C	0.907109	0.000033	0.333184
C45	C	0.983618	0.000044	0.299763
C46	C	0.980569	0.000036	0.473203
C47	C	0.978916	0.000028	0.567229
C48	C	0.985271	0.000050	0.205731
H49	H	0.542728	0.000032	-0.252318
H50	H	1.104041	0.617016	0.008340
C51	C	0.370180	0.000041	-0.270979
N52	N	0.326028	0.000044	-0.333110
C53	C	0.411902	0.000052	0.047147
N54	N	0.384207	0.000051	0.110535
H55	H	0.898832	0.617024	-0.196728
H56	H	0.843294	0.000026	0.447125
C57	C	0.852606	0.212008	-0.242893
N58	N	0.807578	0.175803	-0.287899
C59	C	0.594018	0.000051	0.043954
N60	N	0.638175	0.000056	0.106081
H61	H	0.860138	0.383072	-0.235368
H62	H	1.073343	0.224501	-0.022298
C63	C	1.080854	0.395552	-0.014759
N64	N	1.125866	0.431755	0.030266
C65	C	1.111577	0.788080	0.015858
N66	N	1.156603	0.824291	0.060860
C67	C	1.139556	0.000046	0.498396
N68	N	1.201685	0.000054	0.542548
C69	C	0.874052	0.788080	-0.221520
N70	N	0.825369	0.824289	-0.270174
H71	H	1.120895	0.000051	0.325848
C72	C	0.824622	0.000028	0.274558
N73	N	0.762496	0.000021	0.230401
