data_functionalizedCrystal
_audit_creation_method	'MofGen! by Chris Wilmer'
_symmetry_space_group_name_H-M	'P1'
_symmetry_Int_Tables_number	1
_symmetry_cell_setting	triclinic
loop_
_symmetry_equiv_pos_as_xyz
  x,y,z
_cell_length_a	12.759399
_cell_length_b	12.759401
_cell_length_c	12.759393
_cell_angle_alpha	89.981504
_cell_angle_beta	89.968020
_cell_angle_gamma	90.015277
loop_
_atom_site_label
_atom_site_type_symbol
_atom_site_fract_x
_atom_site_fract_y
_atom_site_fract_z
Zn1	Zn	-0.418200	1.606252	-0.593978
Zn2	Zn	-0.593919	1.606145	-0.418297
Zn3	Zn	-0.418255	1.430554	-0.418318
Zn4	Zn	-0.593838	1.430542	-0.593939
O5	O	-0.506053	1.518373	-0.506133
O6	O	-0.441520	1.753259	-0.570682
O7	O	-0.570673	1.582813	-0.271279
O8	O	-0.271227	1.453911	-0.441645
O9	O	-0.570620	1.753181	-0.441610
O10	O	-0.271186	1.582996	-0.570702
O11	O	-0.441614	1.453807	-0.271294
O12	O	-0.441535	1.283532	-0.441606
O13	O	-0.570482	1.453890	-0.740965
O14	O	-0.570536	1.283522	-0.570634
O15	O	-0.441442	1.582983	-0.740994
O16	O	-0.740929	1.582801	-0.441571
O17	O	-0.740870	1.453786	-0.570614
C18	C	-0.506033	1.245406	-0.506119
C19	C	-0.506050	1.128629	-0.506138
C20	C	-0.573328	1.073790	-0.573211
C21	C	-0.573342	0.964066	-0.573223
C22	C	-0.438796	0.964030	-0.439078
C23	C	-0.438778	1.073752	-0.439072
C24	C	-0.651010	1.073810	-0.650656
C25	C	-0.651024	0.964086	-0.650667
C26	C	-0.779020	1.518309	-0.506109
C27	C	-0.895797	1.518378	-0.506134
C28	C	-0.950655	1.585633	-0.439018
C29	C	-1.060379	1.585700	-0.439053
C30	C	-1.060377	1.451249	-0.573324
C31	C	-0.950655	1.451187	-0.573293
C32	C	-1.210258	1.709709	-0.401662
C33	C	-1.265120	1.776955	-0.334530
C34	C	-1.229581	1.793120	-0.232019
C35	C	-1.139183	1.742023	-0.196620
C36	C	-1.084327	1.674770	-0.263747
C37	C	-1.119864	1.658625	-0.366273
C38	C	-0.800774	1.327177	-0.610673
C39	C	-0.745916	1.259917	-0.677795
C40	C	-0.781452	1.243742	-0.780308
C41	C	-0.871854	1.294820	-0.815703
C42	C	-0.926712	1.362079	-0.748580
C43	C	-0.891168	1.378256	-0.646069
C44	C	-0.232019	1.518467	-0.506180
C45	C	-0.115243	1.518506	-0.506200
C46	C	-0.506073	1.792407	-0.506148
C47	C	-0.506082	1.909183	-0.506154
C48	C	-0.505947	1.518447	-0.780166
C49	C	-0.505902	1.518478	-0.896943
C50	C	-0.438704	1.585707	-0.951822
C51	C	-0.438666	1.585732	-1.061546
C52	C	-0.573033	1.451297	-1.061503
C53	C	-0.573064	1.451267	-0.951781
C54	C	-0.361131	1.663325	-0.951848
C55	C	-0.361093	1.663350	-1.061572
C56	C	-0.506083	1.518361	-0.233166
C57	C	-0.505832	1.518533	-0.116389
H58	H	-0.629311	1.103618	-0.732063
C59	C	-1.100100	1.759800	-0.083853
H60	H	-1.145712	1.807178	-0.048948
H61	H	-1.099133	1.694892	-0.047382
H62	H	-1.031339	1.788322	-0.085664
H63	H	-0.390300	1.740597	-0.917812
H64	H	-1.010725	1.633170	-0.234927
C65	C	-0.611795	0.918144	-0.755157
H66	H	-0.613136	0.843782	-0.751596
H67	H	-0.655924	0.941149	-0.810507
H68	H	-0.542108	0.941146	-0.767815
H69	H	-1.338722	1.818558	-0.363361
C70	C	-0.755369	1.119768	-0.611104
H71	H	-0.801857	1.064307	-0.593500
H72	H	-0.742807	1.161653	-0.550868
H73	H	-0.785836	1.161685	-0.664557
H74	H	-0.283784	1.634237	-1.095621
C75	C	-0.760911	0.923825	-0.621033
H76	H	-0.806092	0.981726	-0.608826
H77	H	-0.788019	0.882486	-0.676678
H78	H	-0.756413	0.882438	-0.559294
H79	H	-0.900788	1.281650	-0.899177
H80	H	-0.905992	1.640345	-0.384334
H81	H	-0.627712	1.396574	-1.106165
C82	C	-1.289924	1.867092	-0.158178
H83	H	-1.348845	1.895210	-0.193942
H84	H	-1.312974	1.829146	-0.098387
H85	H	-1.245179	1.922575	-0.136670
H86	H	-0.382886	1.744720	-1.091350
H87	H	-0.672302	1.218333	-0.648970
C88	C	-0.364771	1.134073	-0.365294
H89	H	-0.324719	1.085673	-0.325348
H90	H	-0.319038	1.176898	-0.405561
H91	H	-0.404905	1.176850	-0.319438
C92	C	-0.251225	1.633914	-0.911638
H93	H	-0.251251	1.633906	-0.837180
H94	H	-0.233032	1.566127	-0.936448
H95	H	-0.201589	1.683581	-0.936466
C96	C	-1.249341	1.691939	-0.514430
H97	H	-1.203718	1.644581	-0.549347
H98	H	-1.318098	1.663422	-0.512629
H99	H	-1.250304	1.756858	-0.550894
H100	H	-1.105056	1.396543	-0.628001
H101	H	-1.000319	1.403674	-0.777409
C102	C	-0.721109	1.169754	-0.854140
H103	H	-0.662179	1.141648	-0.818383
H104	H	-0.765851	1.114278	-0.875653
H105	H	-0.698055	1.207708	-0.913932
C106	C	-0.761683	1.344975	-0.497907
H107	H	-0.807294	1.392357	-0.463006
H108	H	-0.760715	1.280071	-0.461428
H109	H	-0.692922	1.373496	-0.499723
C110	C	-0.646962	1.377297	-0.891417
H111	H	-0.686957	1.337278	-0.939793
H112	H	-0.606765	1.331532	-0.848628
H113	H	-0.692768	1.417448	-0.848600
H114	H	-0.384025	0.919336	-0.384476
