data_functionalizedCrystal
_audit_creation_method	'MofGen! by Chris Wilmer'
_symmetry_space_group_name_H-M	'P1'
_symmetry_Int_Tables_number	1
_symmetry_cell_setting	triclinic
loop_
_symmetry_equiv_pos_as_xyz
  x,y,z
_cell_length_a	16.109301
_cell_length_b	15.186229
_cell_length_c	9.065218
_cell_angle_alpha	90.001905
_cell_angle_beta	84.238683
_cell_angle_gamma	90.000638
loop_
_atom_site_label
_atom_site_type_symbol
_atom_site_fract_x
_atom_site_fract_y
_atom_site_fract_z
O1	O	1.104588	0.073169	0.189628
O2	O	0.862707	0.073183	0.213227
O3	O	0.988647	0.073174	-0.013335
O4	O	0.978648	0.073178	0.416191
O5	O	0.988638	-0.073283	-0.013339
O6	O	0.862698	-0.073274	0.213224
O7	O	1.104579	-0.073288	0.189625
Zn8	Zn	0.983637	-0.096534	0.201424
Zn9	Zn	0.983649	0.096429	0.201428
O10	O	0.978639	-0.073279	0.416188
C11	C	0.831720	-0.000044	0.212270
C12	C	0.739403	-0.000039	0.209404
C13	C	0.518112	-0.000048	0.337178
C14	C	0.431371	-0.000053	0.334474
C15	C	0.449180	-0.000052	0.065664
C16	C	0.535920	-0.000053	0.068370
C17	C	0.570383	-0.000046	0.204131
C18	C	0.396903	-0.000051	0.198721
C19	C	0.302854	-0.000057	0.195788
C20	C	0.664438	-0.000042	0.207065
N21	N	0.983636	-0.228227	0.201420
C22	C	1.039421	-0.453954	0.101132
C23	C	1.039424	-0.546144	0.101129
C24	C	0.927865	-0.546145	0.301714
C25	C	0.927859	-0.453957	0.301709
C26	C	0.983642	-0.407864	0.201420
C27	C	0.983650	-0.592241	0.201421
C28	C	0.983653	-0.692198	0.201418
C29	C	0.983639	-0.307901	0.201421
C30	C	1.135565	-0.000059	0.190583
C31	C	1.227883	-0.000059	0.193449
C32	C	0.987682	-0.000053	-0.068300
C33	C	0.984808	-0.000049	-0.232074
N34	N	0.983657	0.228122	0.201421
C35	C	0.979604	-0.000050	0.471153
C36	C	0.982478	-0.000049	0.634926
H37	H	0.388815	-0.000056	0.442814
C38	C	0.411268	-0.000049	-0.083667
C39	C	0.315858	-0.000041	-0.086652
C40	C	0.277948	-0.000034	-0.235987
C41	C	0.335448	-0.000033	-0.382338
C42	C	0.430863	-0.000041	-0.379358
C43	C	0.468773	-0.000048	-0.230023
H44	H	0.273289	-0.000042	0.021690
H45	H	0.207316	-0.000028	-0.238192
H46	H	0.307385	-0.000028	-0.492884
H47	H	0.473433	-0.000040	-0.487700
H48	H	0.539406	-0.000054	-0.227818
C49	C	1.100774	-0.403251	-0.009194
C50	C	1.162127	-0.453955	-0.119514
C51	C	1.223480	-0.403255	-0.229848
C52	C	1.223480	-0.301852	-0.229861
C53	C	1.162126	-0.251143	-0.119536
C54	C	1.100773	-0.301842	-0.009203
H55	H	1.162128	-0.529024	-0.119508
H56	H	1.268898	-0.440794	-0.311517
H57	H	1.268897	-0.264321	-0.311536
H58	H	1.162124	-0.176073	-0.119542
H59	H	1.055354	-0.264303	0.072466
C60	C	0.593424	-0.000051	-0.077992
C61	C	0.655501	-0.076105	-0.113097
C62	C	0.713005	-0.076108	-0.259451
C63	C	0.708433	-0.000056	-0.370700
C64	C	0.646354	0.076005	-0.335598
C65	C	0.588850	0.076007	-0.189244
H66	H	0.658888	-0.132409	-0.030741
H67	H	0.758960	-0.132413	-0.285435
H68	H	0.751001	-0.000057	-0.479040
H69	H	0.642967	0.132308	-0.417954
H70	H	0.542894	0.132312	-0.163259
C71	C	0.866512	-0.596848	0.412040
C72	C	0.866560	-0.698251	0.412138
C73	C	0.805207	-0.748950	0.522472
C74	C	0.743806	-0.698247	0.632706
C75	C	0.743755	-0.596838	0.632612
C76	C	0.805108	-0.546138	0.522278
H77	H	0.912015	-0.735790	0.330533
H78	H	0.805245	-0.824020	0.522541
H79	H	0.698389	-0.735778	0.714382
H80	H	0.698301	-0.559299	0.714218
H81	H	0.805071	-0.471069	0.522209
H82	H	0.546169	-0.000049	0.447723
H83	H	1.084844	-0.583668	0.019464
H84	H	0.882433	-0.416428	0.383376
