data_functionalizedCrystal
_audit_creation_method	'MofGen! by Chris Wilmer'
_symmetry_space_group_name_H-M	'P1'
_symmetry_Int_Tables_number	1
_symmetry_cell_setting	triclinic
loop_
_symmetry_equiv_pos_as_xyz
  x,y,z
_cell_length_a	11.169416
_cell_length_b	16.120490
_cell_length_c	11.169409
_cell_angle_alpha	87.080796
_cell_angle_beta	89.969126
_cell_angle_gamma	87.103007
loop_
_atom_site_label
_atom_site_type_symbol
_atom_site_fract_x
_atom_site_fract_y
_atom_site_fract_z
Zn1	Zn	-0.570970	1.274675	-0.771562
Zn2	Zn	-0.070970	1.774675	-0.271562
Zn3	Zn	-0.771705	1.274598	-0.570878
Zn4	Zn	-0.271705	1.774598	-0.070878
Zn5	Zn	-0.560839	1.135247	-0.560723
Zn6	Zn	-0.060839	1.635247	-0.060723
Zn7	Zn	-0.761409	1.135252	-0.761355
Zn8	Zn	-0.261409	1.635252	-0.261355
O9	O	-0.666231	1.204943	-0.666129
O10	O	-0.166231	1.704943	-0.166129
O11	O	-0.606147	1.391333	-0.753462
O12	O	-0.106147	1.891333	-0.253462
O13	O	-0.743803	1.256079	-0.401579
O14	O	-0.243803	1.756079	0.098421
O15	O	-0.394236	1.153773	-0.588712
O16	O	0.105764	1.653773	-0.088712
O17	O	-0.753626	1.391277	-0.606020
O18	O	-0.253626	1.891277	-0.106020
O19	O	-0.401679	1.256210	-0.743615
O20	O	0.098321	1.756210	-0.243615
O21	O	-0.588880	1.153698	-0.394117
O22	O	-0.088880	1.653698	0.105883
O23	O	-0.578897	1.018580	-0.578816
O24	O	-0.078897	1.518580	-0.078816
O25	O	-0.736078	1.153781	-0.930662
O26	O	-0.236078	1.653781	-0.430662
O27	O	-0.726255	1.018584	-0.726220
O28	O	-0.226255	1.518584	-0.226220
O29	O	-0.596164	1.256215	-0.938160
O30	O	-0.096164	1.756215	-0.438160
O31	O	-0.938287	1.256084	-0.596124
O32	O	-0.438287	1.756084	-0.096124
O33	O	-0.930723	1.153707	-0.736067
O34	O	-0.430723	1.653707	-0.236067
C35	C	-0.650360	0.988331	-0.650309
C36	C	-0.150360	1.488331	-0.150309
C37	C	-0.643599	0.895663	-0.643569
C38	C	-0.143599	1.395663	-0.143569
C39	C	-0.978053	1.204910	-0.666118
C40	C	-0.478053	1.704910	-0.166118
C41	C	-1.111458	1.204972	-0.666159
C42	C	-0.611458	1.704972	-0.166159
C43	C	-0.701292	0.684734	-0.701091
C44	C	-0.201292	1.184734	-0.201091
C45	C	-0.631266	0.726004	-0.631263
C46	C	-0.131266	1.226004	-0.131263
C47	C	-0.638130	0.820411	-0.638112
C48	C	-0.138130	1.320411	-0.138112
C49	C	-0.694429	0.590318	-0.694243
C50	C	-0.194429	1.090318	-0.194243
C51	C	-0.353193	1.204999	-0.666169
C52	C	0.146807	1.704999	-0.166169
C53	C	-0.219795	1.205023	-0.666186
C54	C	0.280205	1.705023	-0.166186
C55	C	-0.666103	1.205007	-0.979177
C56	C	-0.166103	1.705007	-0.479177
C57	C	-0.666048	1.205035	-1.112579
C58	C	-0.166048	1.705035	-0.612579
C59	C	-0.682165	1.422401	-0.682012
C60	C	-0.182165	1.922401	-0.182012
C61	C	-0.688955	1.515069	-0.688781
C62	C	-0.188955	2.015069	-0.188781
C63	C	-0.666276	1.204927	-0.354303
C64	C	-0.166276	1.704927	0.145697
C65	C	-0.666005	1.205062	-0.220914
C66	C	-0.166005	1.705062	0.279086
H67	H	-0.566161	0.690434	-0.566337
H68	H	-0.066161	1.190434	-0.066337
C69	C	-0.789248	0.732779	-0.788784
C70	C	-0.289248	1.232779	-0.288784
H71	H	-0.782386	0.790847	-0.781926
H72	H	-0.282386	1.290847	-0.281926
H73	H	-0.770778	0.718593	-0.868448
H74	H	-0.270778	1.218593	-0.368448
H75	H	-0.868856	0.718554	-0.770055
H76	H	-0.368856	1.218554	-0.270055
