data_functionalizedCrystal
_audit_creation_method	'MofGen! by Chris Wilmer'
_symmetry_space_group_name_H-M	'P1'
_symmetry_Int_Tables_number	1
_symmetry_cell_setting	triclinic
loop_
_symmetry_equiv_pos_as_xyz
  x,y,z
_cell_length_a	25.639242
_cell_length_b	25.639240
_cell_length_c	17.077396
_cell_angle_alpha	90.038257
_cell_angle_beta	90.020548
_cell_angle_gamma	90.025061
loop_
_atom_site_label
_atom_site_type_symbol
_atom_site_fract_x
_atom_site_fract_y
_atom_site_fract_z
Zn1	Zn	0.799279	-0.208258	0.443811
Zn2	Zn	1.132612	0.125075	0.777145
Zn3	Zn	1.465945	0.458409	1.110478
Zn4	Zn	0.799202	-0.295696	0.312523
Zn5	Zn	1.132535	0.037638	0.645856
Zn6	Zn	1.465868	0.370971	0.979189
Zn7	Zn	0.711845	-0.208264	0.312557
Zn8	Zn	1.045179	0.125069	0.645890
Zn9	Zn	1.378512	0.458402	0.979223
Zn10	Zn	0.711809	-0.295653	0.443744
Zn11	Zn	1.045142	0.037681	0.777077
Zn12	Zn	1.378476	0.371014	1.110411
O13	O	0.755534	-0.251968	0.378159
O14	O	1.088867	0.081366	0.711492
O15	O	1.422200	0.414699	1.044825
O16	O	0.872434	-0.219872	0.426409
O17	O	1.205767	0.113461	0.759743
O18	O	1.539100	0.446794	1.093076
O19	O	0.787597	-0.284118	0.202680
O20	O	1.120930	0.049215	0.536014
O21	O	1.454263	0.382548	0.869347
O22	O	0.723491	-0.135098	0.330010
O23	O	1.056824	0.198235	0.663344
O24	O	1.390158	0.531568	0.996677
O25	O	0.872377	-0.284112	0.329952
O26	O	1.205710	0.049221	0.663286
O27	O	1.539044	0.382554	0.996619
O28	O	0.787728	-0.135094	0.426442
O29	O	1.121061	0.198240	0.759776
O30	O	1.454394	0.531573	1.093109
O31	O	0.723416	-0.219883	0.202705
O32	O	1.056750	0.113450	0.536039
O33	O	1.390083	0.446784	0.869372
O34	O	0.638675	-0.219841	0.329945
O35	O	0.972009	0.113492	0.663278
O36	O	1.305342	0.446825	0.996612
O37	O	0.723429	-0.284039	0.553600
O38	O	1.056762	0.049294	0.886933
O39	O	1.390096	0.382628	1.220267
O40	O	0.638649	-0.284045	0.426328
O41	O	0.971982	0.049288	0.759661
O42	O	1.305315	0.382622	1.092994
O43	O	0.787693	-0.219831	0.553649
O44	O	1.121026	0.113503	0.886983
O45	O	1.454359	0.446836	1.220316
O46	O	0.787561	-0.368855	0.329887
O47	O	1.120895	-0.035522	0.663221
O48	O	1.454228	0.297811	0.996554
O49	O	0.723354	-0.368824	0.426295
O50	O	1.056688	-0.035490	0.759628
O51	O	1.390021	0.297843	1.092962
C52	C	0.619691	-0.251939	0.378133
C53	C	0.953024	0.081394	0.711467
C54	C	1.286358	0.414727	1.044800
C55	C	0.561577	-0.251940	0.378141
C56	C	0.894910	0.081393	0.711474
C57	C	1.228244	0.414727	1.044808
C58	C	0.310421	-0.218577	0.428475
C59	C	0.643754	0.114756	0.761809
C60	C	0.977088	0.448089	1.095142
C61	C	0.365025	-0.218572	0.428471
C62	C	0.698359	0.114761	0.761804
C63	C	1.031692	0.448094	1.095138
O64	O	0.393294	-0.190183	0.471262
O65	O	0.726627	0.143150	0.804595
O66	O	1.059961	0.476483	1.137928
N67	N	0.392303	-0.251962	0.378168
N68	N	0.725636	0.081372	0.711501
N69	N	1.058970	0.414705	1.044834
C70	C	0.364974	-0.285362	0.327871
C71	C	0.698307	0.047971	0.661204
C72	C	1.031640	0.381304	0.994538
O73	O	0.393190	-0.313763	0.285084
O74	O	0.726523	0.019571	0.618418
O75	O	1.059856	0.352904	0.951751
C76	C	0.310370	-0.285370	0.327880
C77	C	0.643704	0.047964	0.661214
C78	C	0.977037	0.381297	0.994547
C79	C	0.283096	-0.251974	0.378181
C80	C	0.616429	0.081359	0.711515
C81	C	0.949762	0.414692	1.044848
C82	C	0.283146	-0.185185	0.478773
C83	C	0.616479	0.148148	0.812106
C84	C	0.949813	0.481482	1.145440
C85	C	0.228546	-0.185190	0.478776
C86	C	0.561879	0.148144	0.812110
C87	C	0.895212	0.481477	1.145443
C88	C	0.201220	-0.218587	0.428482
C89	C	0.534553	0.114747	0.761815
C90	C	0.867887	0.448080	1.095149
C91	C	0.228495	-0.251979	0.378184
C92	C	0.561828	0.081354	0.711518
C93	C	0.895162	0.414688	1.044851
C94	C	0.283042	-0.318772	0.277588
C95	C	0.616375	0.014561	0.610922
C96	C	0.949709	0.347894	0.944255
C97	C	0.228435	-0.318777	0.277602
C98	C	0.561768	0.014556	0.610935
C99	C	0.895102	0.347889	0.944269
C100	C	0.201160	-0.285382	0.327903
C101	C	0.534493	0.047951	0.661236
C102	C	0.867827	0.381285	0.994570
C103	C	0.146569	-0.285380	0.327893
C104	C	0.479902	0.047953	0.661227
C105	C	0.813236	0.381286	0.994560
N106	N	0.119291	-0.251991	0.378197
N107	N	0.452624	0.081342	0.711530
N108	N	0.785958	0.414676	1.044863
C109	C	0.146617	-0.218594	0.428491
C110	C	0.479950	0.114739	0.761824
C111	C	0.813283	0.448073	1.095158
C112	C	0.479644	-0.285345	0.327857
C113	C	0.812978	0.047989	0.661190
C114	C	1.146311	0.381322	0.994524
C115	C	0.534247	-0.285335	0.327843
C116	C	0.867580	0.047998	0.661177
C117	C	1.200913	0.381331	0.994510
C118	C	0.534295	-0.218546	0.428445
C119	C	0.867628	0.114788	0.761778
C120	C	1.200961	0.448121	1.095111
C121	C	0.479691	-0.218553	0.428454
C122	C	0.813025	0.114780	0.761787
C123	C	1.146358	0.448114	1.095120
C124	C	0.452367	-0.251955	0.378160
C125	C	0.785700	0.081378	0.711494
C126	C	1.119033	0.414711	1.044827
C127	C	0.031952	-0.218606	0.428493
C128	C	0.365285	0.114728	0.761827
C129	C	0.698618	0.448061	1.095160
C130	C	-0.022654	-0.218612	0.428490
C131	C	0.310680	0.114721	0.761823
C132	C	0.644013	0.448055	1.095157
C133	C	-0.022697	-0.285403	0.327892
C134	C	0.310636	0.047930	0.661225
C135	C	0.643970	0.381264	0.994559
C136	C	0.031904	-0.285395	0.327892
C137	C	0.365237	0.047938	0.661226
C138	C	0.698570	0.381271	0.994559
C139	C	0.059227	-0.251995	0.378199
C140	C	0.392560	0.081338	0.711533
C141	C	0.725893	0.414672	1.044866
O142	O	0.118266	-0.313756	0.285127
O143	O	0.451599	0.019577	0.618460
O144	O	0.784932	0.352910	0.951794
O145	O	0.118394	-0.190203	0.471278
O146	O	0.451728	0.143130	0.804611
O147	O	0.785061	0.476463	1.137945
C148	C	0.755460	-0.387810	0.378097
C149	C	1.088793	-0.054477	0.711431
C150	C	1.422126	0.278856	1.044764
C151	C	0.755476	-0.445924	0.378097
C152	C	1.088809	-0.112591	0.711430
C153	C	1.422143	0.220742	1.044764
C154	C	0.788998	-0.806247	0.428461
C155	C	1.122332	-0.472913	0.761795
C156	C	1.455665	-0.139580	1.095128
C157	C	0.789014	-0.860851	0.428477
C158	C	1.122347	-0.527517	0.761811
C159	C	1.455680	-0.194184	1.095144
O160	O	0.817428	-0.889053	0.471236
O161	O	1.150761	-0.555719	0.804569
O162	O	1.484094	-0.222386	1.137902
N163	N	0.755606	-0.888207	0.378235
N164	N	1.088940	-0.554873	0.711568
N165	N	1.422273	-0.221540	1.044901
C166	C	0.722177	-0.860956	0.327978
C167	C	1.055511	-0.527622	0.661311
C168	C	1.388844	-0.194289	0.994645
O169	O	0.693763	-0.889238	0.285245
O170	O	1.027096	-0.555905	0.618578
O171	O	1.360429	-0.222571	0.951911
C172	C	0.722160	-0.806352	0.327967
C173	C	1.055493	-0.473019	0.661300
C174	C	1.388826	-0.139686	0.994633
C175	C	0.755573	-0.778999	0.378207
C176	C	1.088906	-0.445666	0.711541
C177	C	1.422240	-0.112332	1.044874
C178	C	0.822409	-0.778893	0.478698
C179	C	1.155742	-0.445560	0.812032
C180	C	1.489075	-0.112227	1.145365
C181	C	0.822394	-0.724293	0.478681
C182	C	1.155727	-0.390959	0.812015
C183	C	1.489060	-0.057626	1.145348
C184	C	0.788969	-0.697045	0.428427
C185	C	1.122302	-0.363712	0.761760
C186	C	1.455635	-0.030379	1.095094
C187	C	0.755558	-0.724399	0.378190
C188	C	1.088892	-0.391065	0.711523
C189	C	1.422225	-0.057732	1.044857
C190	C	0.688728	-0.779102	0.277715
C191	C	1.022062	-0.445769	0.611048
C192	C	1.355395	-0.112435	0.944381
C193	C	0.688713	-0.724495	0.277708
C194	C	1.022047	-0.391162	0.611041
C195	C	1.355380	-0.057828	0.944375
C196	C	0.722127	-0.697142	0.327949
C197	C	1.055460	-0.363809	0.661282
C198	C	1.388794	-0.030475	0.994615
C199	C	0.722118	-0.642551	0.327919
C200	C	1.055451	-0.309217	0.661252
C201	C	1.388785	0.024116	0.994585
N202	N	0.755526	-0.615195	0.378161
N203	N	1.088859	-0.281861	0.711495
N204	N	1.422192	0.051472	1.044828
C205	C	0.788951	-0.642442	0.428416
C206	C	1.122284	-0.309109	0.761749
C207	C	1.455618	0.024225	1.095082
C208	C	0.722216	-0.975626	0.328007
C209	C	1.055550	-0.642293	0.661340
C210	C	1.388883	-0.308960	0.994674
C211	C	0.722236	-1.030229	0.328014
C212	C	1.055570	-0.696895	0.661347
C213	C	1.388903	-0.363562	0.994680
C214	C	0.789072	-1.030120	0.428514
C215	C	1.122405	-0.696787	0.761848
C216	C	1.455739	-0.363453	1.095181
C217	C	0.789054	-0.975517	0.428503
C218	C	1.122388	-0.642183	0.761836
C219	C	1.455721	-0.308850	1.095170
C220	C	0.755624	-0.948270	0.378250
C221	C	1.088957	-0.614937	0.711583
C222	C	1.422291	-0.281604	1.044916
C223	C	0.788918	-0.527777	0.428375
C224	C	1.122251	-0.194444	0.761709
C225	C	1.455584	0.138890	1.095042
C226	C	0.788901	-0.473172	0.428351
C227	C	1.122235	-0.139838	0.761685
C228	C	1.455568	0.193495	1.095018
C229	C	0.722064	-0.473285	0.327854
C230	C	1.055397	-0.139952	0.661187
C231	C	1.388730	0.193382	0.994521
C232	C	0.722082	-0.527886	0.327875
C233	C	1.055415	-0.194552	0.661208
C234	C	1.388748	0.138781	0.994541
C235	C	0.755510	-0.555130	0.378142
C236	C	1.088844	-0.221797	0.711475
C237	C	1.422177	0.111536	1.044808
O238	O	0.693717	-0.614314	0.285184
O239	O	1.027050	-0.280981	0.618518
O240	O	1.360384	0.052353	0.951851
O241	O	0.817356	-0.614153	0.471149
O242	O	1.150689	-0.280820	0.804483
O243	O	1.484023	0.052514	1.137816
C244	C	0.891907	-0.251996	0.378185
C245	C	1.225240	0.081337	0.711518
C246	C	1.558573	0.414670	1.044851
C247	C	0.950021	-0.252009	0.378196
C248	C	1.283354	0.081325	0.711529
C249	C	1.616687	0.414658	1.044862
C250	C	0.755565	-0.251929	0.582903
C251	C	1.088899	0.081404	0.916236
C252	C	1.422232	0.414737	1.249570
C253	C	0.755579	-0.251913	0.670153
C254	C	1.088912	0.081421	1.003486
C255	C	1.422245	0.414754	1.336820
C256	C	0.755622	-0.115595	0.378238
C257	C	1.088955	0.217739	0.711571
C258	C	1.422289	0.551072	1.044904
C259	C	0.755660	-0.057481	0.378271
C260	C	1.088993	0.275853	0.711605
C261	C	1.422326	0.609186	1.044938
C262	C	0.755532	-0.251968	0.174211
C263	C	1.088866	0.081365	0.507544
C264	C	1.422199	0.414698	0.840878
C265	C	0.755620	-0.251838	0.086962
C266	C	1.088953	0.081496	0.420295
C267	C	1.422287	0.414829	0.753628
C268	C	0.789042	-0.218477	0.711170
C269	C	1.122375	0.114857	1.044503
C270	C	1.455709	0.448190	1.377837
C271	C	0.789048	-0.218459	0.793151
C272	C	1.122382	0.114874	1.126484
C273	C	1.455715	0.448207	1.459817
C274	C	0.755594	-0.251881	0.834112
C275	C	1.088927	0.081452	1.167446
C276	C	1.422260	0.414786	1.500779
C277	C	0.722127	-0.285319	0.793090
C278	C	1.055460	0.048015	1.126423
C279	C	1.388793	0.381348	1.459756
C280	C	0.722118	-0.285333	0.711111
C281	C	1.055451	0.048000	1.044444
C282	C	1.388785	0.381334	1.377777
C283	C	0.722148	-0.285287	0.963960
C284	C	1.055481	0.048046	1.297293
C285	C	1.388814	0.381380	1.630626
C286	C	0.722157	-0.285274	1.045944
C287	C	1.055490	0.048060	1.379278
C288	C	1.388824	0.381393	1.712611
C289	C	0.789078	-0.218414	1.046000
C290	C	1.122411	0.114920	1.379333
C291	C	1.455745	0.448253	1.712666
C292	C	0.789069	-0.218428	0.964021
C293	C	1.122403	0.114905	1.297354
C294	C	1.455736	0.448239	1.630687
C295	C	0.755603	-0.251866	0.923003
C296	C	1.088936	0.081467	1.256337
C297	C	1.422270	0.414800	1.589670
H298	H	0.556449	-0.312523	0.286875
H299	H	0.889783	0.020810	0.620208
H300	H	1.223116	0.354143	0.953541
H301	H	-0.044859	-0.191415	0.469451
H302	H	0.288475	0.141919	0.802784
H303	H	0.621808	0.475252	1.136118
H304	H	0.816288	-1.052315	0.469435
H305	H	1.149621	-0.718981	0.802769
H306	H	1.482955	-0.385648	1.136102
C307	C	0.825693	-0.557739	0.483661
C308	C	1.159026	-0.224405	0.816994
C309	C	1.492359	0.108928	1.150327
H310	H	0.845590	-0.533621	0.513568
H311	H	1.178923	-0.200288	0.846901
H312	H	1.512256	0.133045	1.180234
H313	H	0.805693	-0.579036	0.517847
H314	H	1.139026	-0.245703	0.851180
H315	H	1.472359	0.087630	1.184514
H316	H	0.848494	-0.579037	0.453664
H317	H	1.181828	-0.245704	0.786997
H318	H	1.515161	0.087630	1.120331
H319	H	0.816286	-0.191262	0.677825
H320	H	1.149620	0.142071	1.011158
H321	H	1.482953	0.475404	1.344491
C322	C	0.825860	-0.181682	0.838266
C323	C	1.159194	0.151651	1.171600
C324	C	1.492527	0.484984	1.504933
H325	H	0.845788	-0.161785	0.802130
H326	H	1.179122	0.171548	1.135463
H327	H	1.512455	0.504882	1.468796
H328	H	0.805881	-0.158889	0.870254
H329	H	1.139214	0.174444	1.203587
H330	H	1.472548	0.507778	1.536920
H331	H	0.848632	-0.201687	0.870240
H332	H	1.181965	0.131647	1.203574
H333	H	1.515298	0.464980	1.536907
H334	H	0.694995	-0.953445	0.287078
H335	H	1.028328	-0.620112	0.620412
H336	H	1.361661	-0.286778	0.953745
C337	C	0.825896	-0.181638	1.091115
C338	C	1.159229	0.151695	1.424448
C339	C	1.492563	0.485029	1.757782
H340	H	0.821109	-0.186413	1.145805
H341	H	1.154442	0.146920	1.479138
H342	H	1.487776	0.480254	1.812472
H343	H	0.861016	-0.189309	1.077681
H344	H	1.194349	0.144025	1.411014
H345	H	1.527683	0.477358	1.744348
H346	H	0.818272	-0.146505	1.077702
H347	H	1.151605	0.186829	1.411035
H348	H	1.484938	0.520162	1.744369
H349	H	0.694851	-0.451092	0.286935
H350	H	1.028184	-0.117758	0.620269
H351	H	1.361517	0.215575	0.953602
C352	C	0.685322	-0.322125	0.665992
C353	C	1.018655	0.011208	0.999325
C354	C	1.351988	0.344541	1.332658
H355	H	0.665405	-0.342035	0.702127
H356	H	0.998738	-0.008702	1.035460
H357	H	1.332072	0.324631	1.368793
H358	H	0.662547	-0.302137	0.634008
H359	H	0.995880	0.031197	0.967341
H360	H	1.329214	0.364530	1.300674
H361	H	0.705318	-0.344914	0.634014
H362	H	1.038651	-0.011581	0.967347
H363	H	1.371984	0.321752	1.300680
H364	H	0.816314	-0.191216	0.930672
H365	H	1.149647	0.142117	1.264005
H366	H	1.482981	0.475451	1.597338
H367	H	0.694888	-0.312508	0.930566
H368	H	1.028221	0.020825	1.263899
H369	H	1.361554	0.354159	1.597233
C370	C	0.198550	-0.148460	0.534116
C371	C	0.531883	0.184874	0.867449
C372	C	0.865217	0.518207	1.200782
H373	H	0.222651	-0.128576	0.564070
H374	H	0.555984	0.204758	0.897403
H375	H	0.889317	0.538091	1.230737
H376	H	0.177246	-0.125652	0.504167
H377	H	0.510579	0.207681	0.837500
H378	H	0.843913	0.541014	1.170834
H379	H	0.177256	-0.168495	0.568268
H380	H	0.510589	0.164838	0.901601
H381	H	0.843922	0.498171	1.234934
C382	C	0.651969	-0.809179	0.222455
C383	C	0.985302	-0.475845	0.555788
C384	C	1.318636	-0.142512	0.889122
H385	H	0.632058	-0.785123	0.192537
H386	H	0.965391	-0.451790	0.525870
H387	H	1.298725	-0.118457	0.859203
H388	H	0.671980	-0.830486	0.188278
H389	H	1.005313	-0.497153	0.521612
H390	H	1.338647	-0.163819	0.854945
H391	H	0.629180	-0.830476	0.252464
H392	H	0.962513	-0.497143	0.585797
H393	H	1.295847	-0.163809	0.919131
H394	H	0.457400	-0.312544	0.286896
H395	H	0.790733	0.020789	0.620229
H396	H	1.124067	0.354123	0.953562
C397	C	0.313196	-0.148442	0.534097
C398	C	0.646529	0.184891	0.867431
C399	C	0.979863	0.518224	1.200764
H400	H	0.289124	-0.128557	0.564045
H401	H	0.622458	0.204777	0.897378
H402	H	0.955791	0.538110	1.230711
H403	H	0.334504	-0.168461	0.568245
H404	H	0.667837	0.164873	0.901578
H405	H	1.001170	0.498206	1.234911
H406	H	0.334491	-0.125629	0.504127
H407	H	0.667824	0.207705	0.837460
H408	H	1.001157	0.541038	1.170793
H409	H	0.661488	-0.702314	0.236787
H410	H	0.994822	-0.368980	0.570120
H411	H	1.328155	-0.035647	0.903453
H412	H	0.694914	-0.312487	1.079293
H413	H	1.028247	0.020846	1.412627
H414	H	1.361581	0.354179	1.745960
C415	C	0.198379	-0.355520	0.222279
C416	C	0.531712	-0.022186	0.555612
C417	C	0.865045	0.311147	0.888946
H418	H	0.161952	-0.350746	0.229486
H419	H	0.495285	-0.017412	0.562820
H420	H	0.828618	0.315921	0.896153
H421	H	0.207316	-0.347825	0.169559
H422	H	0.540650	-0.014492	0.502892
H423	H	0.873983	0.318841	0.836225
H424	H	0.207320	-0.390659	0.233675
H425	H	0.540654	-0.057325	0.567008
H426	H	0.873987	0.276008	0.900341
H427	H	0.694885	-0.312529	0.826447
H428	H	1.028219	0.020804	1.159781
H429	H	1.361552	0.354137	1.493114
C430	C	0.313033	-0.355511	0.222260
C431	C	0.646366	-0.022177	0.555593
C432	C	0.979699	0.311156	0.888926
H433	H	0.288931	-0.375403	0.192320
H434	H	0.622264	-0.042070	0.525653
H435	H	0.955597	0.291264	0.858986
H436	H	0.334331	-0.335486	0.188106
H437	H	0.667665	-0.002153	0.521439
H438	H	1.000998	0.331180	0.854773
H439	H	0.334332	-0.378318	0.252224
H440	H	0.667665	-0.044985	0.585558
H441	H	1.000999	0.288349	0.918891
C442	C	0.061907	-0.322132	0.272567
C443	C	0.395241	0.011202	0.605900
C444	C	0.728574	0.344535	0.939234
H445	H	0.037811	-0.342025	0.242619
H446	H	0.371144	-0.008691	0.575952
H447	H	0.704477	0.324642	0.909286
H448	H	0.083212	-0.302109	0.238420
H449	H	0.416546	0.031225	0.571754
H450	H	0.749879	0.364558	0.905087
H451	H	0.083201	-0.344938	0.302542
H452	H	0.416534	-0.011605	0.635875
H453	H	0.749868	0.321729	0.969209
H454	H	0.054191	-0.191408	0.469458
H455	H	0.387525	0.141926	0.802791
H456	H	0.720858	0.475259	1.136125
H457	H	0.457488	-0.191359	0.469412
H458	H	0.790821	0.141974	0.802746
H459	H	1.124154	0.475308	1.136079
C460	C	0.859143	-0.694209	0.533952
C461	C	1.192476	-0.360875	0.867286
C462	C	1.525810	-0.027542	1.200619
H463	H	0.854353	-0.657785	0.526751
H464	H	1.187687	-0.324452	0.860084
H465	H	1.521020	0.008882	1.193418
H466	H	0.851470	-0.703138	0.586682
H467	H	1.184804	-0.369805	0.920016
H468	H	1.518137	-0.036472	1.253349
H469	H	0.894281	-0.703140	0.522513
H470	H	1.227615	-0.369807	0.855846
H471	H	1.560948	-0.036473	1.189180
H472	H	-0.044955	-0.312592	0.286941
H473	H	0.288378	0.020741	0.620274
H474	H	0.621711	0.354075	0.953607
C475	C	0.564357	-0.181811	0.483774
C476	C	0.897691	0.151522	0.817107
C477	C	1.231024	0.484856	1.150440
H478	H	0.540296	-0.161921	0.513732
H479	H	0.873629	0.171413	0.847066
H480	H	1.206962	0.504746	1.180399
H481	H	0.585662	-0.201841	0.517910
H482	H	0.918995	0.131492	0.851244
H483	H	1.252329	0.464826	1.184577
H484	H	0.585656	-0.159001	0.453804
H485	H	0.918990	0.174332	0.787137
H486	H	1.252323	0.507665	1.120470
C487	C	0.825653	-0.443086	0.483625
C488	C	1.158986	-0.109753	0.816958
C489	C	1.492320	0.223581	1.150292
H490	H	0.845556	-0.467137	0.513563
H491	H	1.178890	-0.133804	0.846896
H492	H	1.512223	0.199529	1.180229
H493	H	0.848442	-0.421785	0.453630
H494	H	1.181775	-0.088451	0.786964
H495	H	1.515108	0.244882	1.120297
H496	H	0.805628	-0.421783	0.517795
H497	H	1.138961	-0.088449	0.851128
H498	H	1.472294	0.244884	1.184462
H499	H	0.694878	-0.550158	0.286959
H500	H	1.028211	-0.216824	0.620292
H501	H	1.361544	0.116509	0.953625
C502	C	0.859183	-0.808857	0.533978
C503	C	1.192516	-0.475524	0.867312
C504	C	1.525850	-0.142191	1.200645
H505	H	0.879078	-0.784739	0.563887
H506	H	1.212411	-0.451406	0.897220
H507	H	1.545744	-0.118072	1.230553
H508	H	0.839184	-0.830157	0.568164
H509	H	1.172518	-0.496824	0.901497
H510	H	1.505851	-0.163490	1.234831
H511	H	0.881986	-0.830153	0.503981
H512	H	1.215320	-0.496820	0.837314
H513	H	1.548653	-0.163486	1.170648
H514	H	0.816262	-0.953249	0.469413
H515	H	1.149596	-0.619916	0.802747
H516	H	1.482929	-0.286582	1.136080
H517	H	0.695033	-1.052495	0.287094
H518	H	1.028367	-0.719162	0.620428
H519	H	1.361700	-0.385828	0.953761
