data_functionalizedCrystal
_audit_creation_method	'MofGen! by Chris Wilmer'
_symmetry_space_group_name_H-M	'P1'
_symmetry_Int_Tables_number	1
_symmetry_cell_setting	triclinic
loop_
_symmetry_equiv_pos_as_xyz
  x,y,z
_cell_length_a	8.559649
_cell_length_b	10.654550
_cell_length_c	9.130313
_cell_angle_alpha	89.998357
_cell_angle_beta	90.004275
_cell_angle_gamma	102.868216
loop_
_atom_site_label
_atom_site_type_symbol
_atom_site_fract_x
_atom_site_fract_y
_atom_site_fract_z
O1	O	2.119657	0.042561	0.121776
O2	O	1.655171	-0.022225	0.121782
O3	O	1.898094	0.194011	0.121773
O4	O	1.876735	-0.173674	0.121785
O5	O	1.898071	0.194007	-0.121825
O6	O	1.655148	-0.022229	-0.121816
O7	O	2.119634	0.042558	-0.121823
Cu8	Cu	1.887389	0.010164	-0.144062
Cu9	Cu	1.887417	0.010168	0.144021
O10	O	1.876712	-0.173678	-0.121814
C11	C	1.595684	-0.027137	-0.000016
C12	C	1.418466	-0.041751	-0.000013
N13	N	1.887381	0.010163	-0.346685
C14	C	1.896514	0.240645	-0.000024
C15	C	1.891822	0.379603	-0.000019
C16	C	2.179121	0.047469	-0.000022
C17	C	2.356339	0.062084	-0.000015
C18	C	1.878292	-0.220312	-0.000013
C19	C	1.882984	-0.359271	-0.000009
C20	C	2.034851	0.473864	-0.000026
C21	C	2.030432	0.604428	-0.000015
C22	C	1.739944	0.546458	0.000002
C23	C	1.744364	0.415896	0.000002
C24	C	2.202562	0.507333	-0.000042
C25	C	2.198144	0.637898	-0.000032
C26	C	1.779801	-0.085550	-0.423371
C27	C	1.779832	-0.085544	-0.576707
C28	C	1.995029	0.105899	-0.576660
C29	C	1.995004	0.105887	-0.423326
C30	C	1.655553	-0.196075	-0.423399
C31	C	1.655584	-0.196069	-0.576736
N32	N	1.887437	0.010181	0.346644
H33	H	1.438727	0.162162	-0.000010
H34	H	1.336069	-0.141836	-0.000003
O35	O	1.580910	0.585612	0.000017
H36	H	1.482195	0.498128	0.000030
O37	O	1.590100	0.314224	0.000007
H38	H	1.486827	0.361399	0.000002
H39	H	1.539661	-0.177460	-0.375861
O40	O	2.265289	0.705307	0.139282
H41	H	2.171378	0.745192	0.194371
H42	H	2.268170	0.484753	0.101896
H43	H	2.261325	0.686184	-0.101976
O44	O	2.273314	0.467432	-0.139348
H45	H	2.307254	0.551866	-0.213203
H46	H	2.082619	0.183814	-0.360890
O47	O	2.111097	0.209148	-0.659319
H48	H	2.093038	0.193082	-0.778826
H49	H	1.682794	-0.289799	-0.381786
H50	H	1.694376	-0.283278	-0.624287
O51	O	1.493142	-0.184317	-0.631915
H52	H	1.413595	-0.178556	-0.537324
