data_functionalizedCrystal
_audit_creation_method	'MofGen! by Chris Wilmer'
_symmetry_space_group_name_H-M	'P1'
_symmetry_Int_Tables_number	1
_symmetry_cell_setting	triclinic
loop_
_symmetry_equiv_pos_as_xyz
  x,y,z
_cell_length_a	10.723024
_cell_length_b	14.421503
_cell_length_c	10.723024
_cell_angle_alpha	90.002644
_cell_angle_beta	95.532131
_cell_angle_gamma	89.992654
loop_
_atom_site_label
_atom_site_type_symbol
_atom_site_fract_x
_atom_site_fract_y
_atom_site_fract_z
O1	O	1.657169	0.077103	-0.175018
O2	O	1.990502	0.410436	0.158315
O3	O	2.323835	0.743770	0.491649
O4	O	1.294016	0.077106	-0.191771
O5	O	1.627349	0.410439	0.141562
O6	O	1.960683	0.743773	0.474895
O7	O	1.483969	0.077101	-0.001818
O8	O	1.817302	0.410434	0.331515
O9	O	2.150636	0.743768	0.664848
O10	O	1.467216	0.077108	-0.364971
O11	O	1.800549	0.410441	-0.031637
O12	O	2.133882	0.743775	0.301696
O13	O	1.483992	-0.077122	-0.001831
O14	O	1.817326	0.256211	0.331502
O15	O	2.150659	0.589544	0.664836
O16	O	1.294040	-0.077117	-0.191784
O17	O	1.627373	0.256216	0.141550
O18	O	1.960706	0.589549	0.474883
O19	O	1.657192	-0.077120	-0.175031
O20	O	1.990525	0.256213	0.158303
O21	O	2.323859	0.589546	0.491636
Cu22	Cu	1.475618	-0.091201	-0.183408
Cu23	Cu	1.808951	0.242133	0.149925
Cu24	Cu	2.142285	0.575466	0.483258
Cu25	Cu	1.475590	0.091186	-0.183393
Cu26	Cu	1.808924	0.424520	0.149940
Cu27	Cu	2.142257	0.757853	0.483273
O28	O	1.467239	-0.077115	-0.364983
O29	O	1.800572	0.256218	-0.031650
O30	O	2.133906	0.589551	0.301683
C31	C	1.247528	-0.000005	-0.190558
C32	C	1.580862	0.333328	0.142775
C33	C	1.914195	0.666661	0.476108
C34	C	1.108974	-0.000004	-0.186911
C35	C	1.442307	0.333329	0.146423
C36	C	1.775641	0.666662	0.479756
N37	N	1.475646	-0.219482	-0.183418
N38	N	1.808980	0.113851	0.149915
N39	N	2.142313	0.447185	0.483249
C40	C	1.033991	-0.000002	-0.293198
C41	C	1.367325	0.333332	0.040135
C42	C	1.700658	0.666665	0.373468
C43	C	0.890788	-0.000000	-0.289431
C44	C	1.224121	0.333333	0.043903
C45	C	1.557455	0.666666	0.377236
C46	C	1.563499	-0.469113	-0.095565
C47	C	1.896833	-0.135780	0.237769
C48	C	2.230166	0.197554	0.571102
C49	C	1.450531	-0.530910	-0.070364
C50	C	1.783865	-0.197576	0.262970
C51	C	2.117198	0.135757	0.596303
C52	C	1.475618	-0.408643	-0.183403
C53	C	1.808952	-0.075310	0.149931
C54	C	2.142285	0.258023	0.483264
C55	C	1.588559	-0.530941	-0.208531
C56	C	1.921893	-0.197607	0.124803
C57	C	2.255226	0.135726	0.458136
C58	C	1.475602	-0.591365	-0.183385
C59	C	1.808935	-0.258031	0.149948
C60	C	2.142268	0.075302	0.483281
C61	C	1.362593	-0.469079	-0.158146
C62	C	1.695926	-0.135746	0.175188
C63	C	2.029260	0.197588	0.508521
C64	C	1.500695	-0.469105	-0.296362
C65	C	1.834029	-0.135771	0.036971
C66	C	2.167362	0.197562	0.370305
C67	C	1.387646	-0.530873	-0.271208
C68	C	1.720980	-0.197540	0.062125
C69	C	2.054313	0.135793	0.395458
C70	C	1.475630	-0.303382	-0.183410
C71	C	1.808963	0.029951	0.149924
C72	C	2.142297	0.363284	0.483257
C73	C	1.475577	-0.696624	-0.183379
C74	C	1.808910	-0.363290	0.149954
C75	C	2.142244	-0.029957	0.483288
C76	C	1.703680	-0.000007	-0.176243
C77	C	2.037013	0.333326	0.157090
C78	C	2.370346	0.666660	0.490423
C79	C	1.842234	-0.000002	-0.179891
C80	C	2.175567	0.333331	0.153442
C81	C	2.508901	0.666665	0.486776
C82	C	1.482762	-0.000010	0.044675
C83	C	1.816095	0.333324	0.378008
C84	C	2.149428	0.666657	0.711342
C85	C	1.479114	-0.000006	0.183229
C86	C	1.812447	0.333327	0.516563
C87	C	2.145780	0.666660	0.849896
N88	N	1.475571	0.219468	-0.183374
N89	N	1.808905	0.552801	0.149959
N90	N	2.142238	0.886134	0.483293
C91	C	1.468447	-0.000003	-0.411477
C92	C	1.801780	0.333331	-0.078143
C93	C	2.135113	0.666664	0.255190
C94	C	1.472094	0.000000	-0.550031
C95	C	1.805428	0.333333	-0.216698
C96	C	2.138761	0.666667	0.116636
C97	C	1.585401	-0.000006	0.258212
C98	C	1.918735	0.333328	0.591545
C99	C	2.252068	0.666661	0.924878
C100	C	1.581634	-0.000002	0.401415
C101	C	1.914967	0.333331	0.734749
C102	C	2.248301	0.666664	1.068082
H103	H	1.075814	-0.000005	-0.386984
H104	H	1.409147	0.333328	-0.053651
H105	H	1.742480	0.666662	0.279682
Cl106	Cl	1.215083	-0.427308	-0.125147
Cl107	Cl	1.548416	-0.093975	0.208186
Cl108	Cl	1.881749	0.239358	0.541520
Cl109	Cl	1.736030	-0.572900	-0.241355
Cl110	Cl	2.069364	-0.239566	0.091979
Cl111	Cl	2.402697	0.093767	0.425312
H112	H	1.385328	0.000001	0.225051
H113	H	1.718661	0.333334	0.558385
H114	H	2.051995	0.666667	0.891718
H115	H	1.381099	-0.000007	0.385544
H116	H	1.714432	0.333327	0.718877
H117	H	2.047765	0.666660	1.052211
H118	H	0.826355	0.000006	-0.380421
H119	H	1.159689	0.333339	-0.047088
H120	H	1.493022	0.666672	0.286246
H121	H	1.679187	-0.000012	0.216390
H122	H	2.012521	0.333321	0.549723
H123	H	2.345854	0.666654	0.883056
H124	H	1.637738	-0.441994	-0.021240
H125	H	1.971071	-0.108661	0.312093
H126	H	2.304405	0.224672	0.645426
Cl127	Cl	0.941699	0.000002	-0.039396
Cl128	Cl	1.275033	0.333335	0.293938
Cl129	Cl	1.608366	0.666668	0.627271
H130	H	1.429305	-0.558058	0.025171
H131	H	1.762638	-0.224725	0.358504
H132	H	2.095971	0.108608	0.691837
H133	H	1.672624	-0.000006	0.465848
H134	H	2.005958	0.333327	0.799181
H135	H	2.339291	0.666660	1.132514
H136	H	1.313239	-0.557820	-0.345487
H137	H	1.646573	-0.224487	-0.012153
H138	H	1.979906	0.108847	0.321180
Cl139	Cl	1.044415	-0.000014	-0.042105
Cl140	Cl	1.377749	0.333320	0.291228
Cl141	Cl	1.711082	0.666653	0.624562
H142	H	1.521957	-0.441936	-0.391867
H143	H	1.855291	-0.108603	-0.058534
H144	H	2.188624	0.224730	0.274799
