data_functionalizedCrystal
_audit_creation_method	'MofGen! by Chris Wilmer'
_symmetry_space_group_name_H-M	'P1'
_symmetry_Int_Tables_number	1
_symmetry_cell_setting	triclinic
loop_
_symmetry_equiv_pos_as_xyz
  x,y,z
_cell_length_a	19.188930
_cell_length_b	10.654550
_cell_length_c	9.130313
_cell_angle_alpha	90.000830
_cell_angle_beta	89.991485
_cell_angle_gamma	96.185159
loop_
_atom_site_label
_atom_site_type_symbol
_atom_site_fract_x
_atom_site_fract_y
_atom_site_fract_z
O1	O	0.098061	-1.665753	-0.121938
O2	O	0.107404	-1.300077	-0.121916
O3	O	0.001146	-1.493468	-0.121899
O4	O	0.204319	-1.472363	-0.121955
O5	O	0.001144	-1.493477	0.121700
O6	O	0.107402	-1.300086	0.121682
O7	O	0.098059	-1.665763	0.121661
Cu8	Cu	0.102730	-1.482925	0.143914
Cu9	Cu	0.102733	-1.482914	-0.144170
O10	O	0.204317	-1.472372	0.121644
C11	C	-0.024871	-1.492789	-0.000096
C12	C	-0.102389	-1.490737	-0.000083
C13	C	0.106717	-1.253298	-0.000114
C14	C	0.104664	-1.113898	-0.000104
C15	C	0.098746	-1.712541	-0.000145
C16	C	0.100798	-1.851941	-0.000164
C17	C	-0.146570	-1.604213	-0.000083
C18	C	-0.219407	-1.602285	-0.000106
C19	C	-0.248058	-1.486876	-0.000100
C20	C	-0.203867	-1.373386	-0.000109
C21	C	-0.131032	-1.375316	-0.000100
N22	N	-0.356641	-1.398662	0.082806
N23	N	-0.425831	-1.396836	0.082801
C24	C	-0.467505	-1.481052	-0.000129
N25	N	-0.437375	-1.567182	-0.083037
N26	N	-0.368179	-1.569012	-0.083025
C27	C	-0.327034	-1.484770	-0.000110
C28	C	-0.590665	-1.592445	-0.000157
C29	C	-0.663502	-1.590513	-0.000189
C30	C	-0.647960	-1.361610	-0.000177
C31	C	-0.575125	-1.363545	-0.000159
C32	C	-0.546481	-1.478966	-0.000142
C33	C	0.230334	-1.473051	-0.000163
C34	C	0.307852	-1.475102	-0.000186
N35	N	0.102730	-1.482907	-0.346792
C36	C	0.167227	-1.033089	-0.000143
C37	C	0.165295	-0.902109	-0.000168
C38	C	0.038231	-0.932761	-0.000121
C39	C	0.040164	-1.063738	-0.000086
C40	C	0.240587	-1.015391	-0.000176
C41	C	0.238654	-0.884411	-0.000201
C42	C	0.055776	-1.568730	-0.576775
C43	C	0.055775	-1.568710	-0.423438
C44	C	0.149683	-1.397110	-0.423492
C45	C	0.149681	-1.397125	-0.576826
C46	C	0.001561	-1.667806	-0.576743
C47	C	0.001560	-1.667786	-0.423406
N48	N	0.102728	-1.482942	0.346537
H49	H	-0.123254	-1.698197	-0.000074
H50	H	-0.227199	-1.279418	-0.000107
C51	C	0.024663	-1.790404	-0.640998
C52	C	-0.017228	-1.918295	-0.605579
C53	C	0.005878	-2.040891	-0.669832
C54	C	0.070874	-2.035595	-0.769505
C55	C	0.112769	-1.907698	-0.804929
C56	C	0.089663	-1.785103	-0.740675
H57	H	-0.065346	-1.922220	-0.531791
H58	H	-0.025136	-2.135568	-0.643609
H59	H	0.087978	-2.126347	-0.817069
H60	H	0.160886	-1.903773	-0.878717
H61	H	0.120676	-1.690425	-0.766899
H62	H	-0.049190	-1.638518	-0.375835
C63	C	0.017873	-1.797719	-0.367147
C64	C	-0.035598	-1.877488	-0.270143
C65	C	-0.019279	-2.007409	-0.213878
C66	C	0.050511	-2.057562	-0.254616
C67	C	0.103987	-1.977792	-0.351625
C68	C	0.087668	-1.847870	-0.407890
H69	H	-0.087265	-1.840363	-0.239982
H70	H	-0.058866	-2.066460	-0.142065
H71	H	0.062591	-2.153738	-0.212965
H72	H	0.155654	-2.014917	-0.381787
H73	H	0.127255	-1.788820	-0.479703
H74	H	-0.255386	-1.694693	-0.000112
C75	C	0.201322	-1.302751	-0.661190
C76	C	0.253147	-1.208674	-0.576896
C77	C	0.304789	-1.114295	-0.661262
C78	C	0.304607	-1.113992	-0.829922
C79	C	0.252781	-1.208072	-0.914226
C80	C	0.201138	-1.302451	-0.829859
H81	H	0.253283	-1.208895	-0.452034
H82	H	0.343155	-1.044651	-0.598854
H83	H	0.342836	-1.044127	-0.892375
H84	H	0.252644	-1.207851	-1.039087
H85	H	0.162772	-1.372095	-0.892267
C86	C	-0.070975	-1.640619	-0.632948
C87	C	-0.136680	-1.729718	-0.592170
C88	C	-0.209214	-1.702530	-0.648375
C89	C	-0.216043	-1.586244	-0.745360
C90	C	-0.150336	-1.497138	-0.786144
C91	C	-0.077802	-1.524326	-0.729938
H92	H	-0.131627	-1.815806	-0.520371
H93	H	-0.257855	-1.768492	-0.618184
H94	H	-0.269737	-1.566118	-0.786967
H95	H	-0.155390	-1.411049	-0.857942
H96	H	-0.029162	-1.458363	-0.760129
H97	H	-0.095058	-1.282908	-0.000100
H98	H	0.187911	-1.327240	-0.361077
C99	C	0.268605	-0.822074	0.141859
C100	C	0.332376	-0.721264	0.135360
C101	C	0.362325	-0.658927	0.277417
C102	C	0.328502	-0.697401	0.425972
C103	C	0.264727	-0.798216	0.432476
C104	C	0.234779	-0.860553	0.290420
H105	H	0.357417	-0.692779	0.025386
H106	H	0.409535	-0.584297	0.272601
H107	H	0.350672	-0.651255	0.531131
H108	H	0.239686	-0.826701	0.542451
H109	H	0.187568	-0.935183	0.295235
H110	H	-0.014283	-0.891904	-0.000129
H111	H	0.269277	-1.044119	0.101768
H112	H	0.263947	-1.050548	-0.105354
H113	H	-0.567342	-1.686428	-0.000149
H114	H	-0.699475	-1.682922	-0.000197
H115	H	-0.671287	-1.267641	-0.000180
H116	H	-0.010781	-1.129530	-0.000034
C117	C	-0.526519	-1.238719	-0.000133
C118	C	-0.558030	-1.111767	-0.000122
C119	C	-0.509424	-0.986934	-0.000098
C120	C	-0.429308	-0.989053	-0.000085
C121	C	-0.397794	-1.116009	-0.000095
C122	C	-0.446399	-1.240842	-0.000119
H123	H	-0.617340	-1.110195	-0.000132
H124	H	-0.532754	-0.892953	-0.000090
H125	H	-0.393328	-0.896644	-0.000067
H126	H	-0.338484	-1.117581	-0.000085
H127	H	-0.423070	-1.334823	-0.000127
H128	H	0.266296	-0.842090	-0.102162
