data_functionalizedCrystal
_audit_creation_method	'MofGen! by Chris Wilmer'
_symmetry_space_group_name_H-M	'P1'
_symmetry_Int_Tables_number	1
_symmetry_cell_setting	triclinic
loop_
_symmetry_equiv_pos_as_xyz
  x,y,z
_cell_length_a	12.827893
_cell_length_b	13.897449
_cell_length_c	12.827885
_cell_angle_alpha	90.020099
_cell_angle_beta	89.974949
_cell_angle_gamma	89.995211
loop_
_atom_site_label
_atom_site_type_symbol
_atom_site_fract_x
_atom_site_fract_y
_atom_site_fract_z
Zn1	Zn	0.415947	1.474792	0.590906
Zn2	Zn	0.749280	1.808125	0.924239
Zn3	Zn	1.082613	2.141458	1.257573
Zn4	Zn	0.590724	1.474727	0.416181
Zn5	Zn	0.924057	1.808061	0.749514
Zn6	Zn	1.257391	2.141394	1.082848
Zn7	Zn	0.416002	1.313483	0.416177
Zn8	Zn	0.749335	1.646816	0.749511
Zn9	Zn	1.082668	1.980149	1.082844
Zn10	Zn	0.590650	1.313502	0.590878
Zn11	Zn	0.923984	1.646836	0.924212
Zn12	Zn	1.257317	1.980169	1.257545
O13	O	0.503331	1.394126	0.503536
O14	O	0.836664	1.727459	0.836869
O15	O	1.169997	2.060793	1.170202
O16	O	0.439139	1.609765	0.567742
O17	O	0.772473	1.943098	0.901075
O18	O	1.105806	2.276431	1.234408
O19	O	0.567601	1.453303	0.269944
O20	O	0.900934	1.786636	0.603278
O21	O	1.234267	2.119969	0.936611
O22	O	0.269758	1.334899	0.439366
O23	O	0.603092	1.668232	0.772699
O24	O	0.936425	2.001566	1.106032
O25	O	0.567547	1.609717	0.439372
O26	O	0.900881	1.943051	0.772705
O27	O	1.234214	2.276384	1.106038
O28	O	0.269718	1.453412	0.567738
O29	O	0.603051	1.786746	0.901071
O30	O	0.936385	2.120079	1.234405
O31	O	0.439233	1.334837	0.269942
O32	O	0.772566	1.668170	0.603275
O33	O	1.105899	2.001503	0.936608
O34	O	0.439161	1.178504	0.439339
O35	O	0.772494	1.511837	0.772672
O36	O	1.105828	1.845170	1.106005
O37	O	0.567422	1.334933	0.737118
O38	O	0.900755	1.668266	1.070452
O39	O	1.234088	2.001600	1.403785
O40	O	0.567475	1.178518	0.567691
O41	O	0.900808	1.511852	0.901024
O42	O	1.234141	1.845185	1.234357
O43	O	0.439068	1.453431	0.737139
O44	O	0.772401	1.786765	1.070472
O45	O	1.105734	2.120098	1.403805
O46	O	0.736950	1.453322	0.439345
O47	O	1.070284	1.786655	0.772678
O48	O	1.403617	2.119989	1.106011
O49	O	0.736896	1.334871	0.567694
O50	O	1.070229	1.668204	0.901028
O51	O	1.403563	2.001537	1.234361
C52	C	0.503317	1.143512	0.503512
C53	C	0.836650	1.476845	0.836845
C54	C	1.169983	1.810178	1.170179
C55	C	0.503336	1.036298	0.503526
C56	C	0.836669	1.369631	0.836860
C57	C	1.170003	1.702964	1.170193
C58	C	0.230761	1.394161	0.503555
C59	C	0.564094	1.727494	0.836888
C60	C	0.897427	2.060827	1.170221
C61	C	0.114607	1.394175	0.503563
C62	C	0.447941	1.727509	0.836896
C63	C	0.781274	2.060842	1.170229
C64	C	0.062843	1.335544	0.440050
C65	C	0.396176	1.668877	0.773383
C66	C	0.729509	2.002211	1.106717
C67	C	-0.057208	1.335558	0.440057
C68	C	0.276126	1.668891	0.773390
C69	C	0.609459	2.002225	1.106723
C70	C	0.503340	0.840003	0.503554
C71	C	0.836673	1.173336	0.836887
C72	C	1.170006	1.506669	1.170221
C73	C	0.503334	0.949235	0.503536
C74	C	0.836668	1.282568	0.836869
C75	C	1.170001	1.615902	1.170202
C76	C	0.774841	1.394118	0.503540
C77	C	1.108174	1.727451	0.836873
C78	C	1.441507	2.060784	1.170206
C79	C	0.890994	1.394202	0.503576
C80	C	1.224327	1.727536	0.836910
C81	C	1.557660	2.060869	1.170243
C82	C	0.503230	1.394192	0.776106
C83	C	0.836564	1.727525	1.109439
C84	C	1.169897	2.060858	1.442773
C85	C	0.503188	1.394220	0.892259
C86	C	0.836521	1.727553	1.225593
C87	C	1.169854	2.060886	1.558926
C88	C	0.503345	1.645719	0.503560
C89	C	0.836679	1.979052	0.836894
C90	C	1.170012	2.312386	1.170227
C91	C	0.503352	1.752933	0.503571
C92	C	0.836685	2.086266	0.836904
C93	C	1.170018	2.419600	1.170237
C94	C	0.503355	1.394116	0.232026
C95	C	0.836689	1.727449	0.565359
C96	C	1.170022	2.060783	0.898692
C97	C	0.503104	1.394275	0.115873
C98	C	0.836437	1.727608	0.449206
C99	C	1.169770	2.060942	0.782540
C100	C	0.439661	1.452863	0.944054
C101	C	0.772995	1.786196	1.277387
C102	C	1.106328	2.119529	1.610721
C103	C	0.439616	1.452893	1.064104
C104	C	0.772949	1.786226	1.397438
C105	C	1.106282	2.119560	1.730771
H106	H	0.107402	1.285334	0.385673
H107	H	0.440735	1.618667	0.719006
H108	H	0.774068	1.952001	1.052340
H109	H	-0.064497	1.444405	0.557951
H110	H	0.268837	1.777738	0.891284
H111	H	0.602170	2.111071	1.224618
O112	O	0.367665	1.519350	0.885080
O113	O	0.700998	1.852684	1.218414
O114	O	1.034332	2.186017	1.551747
H115	H	0.379007	1.508900	0.800042
H116	H	0.712341	1.842234	1.133376
H117	H	1.045674	2.175567	1.466709
H118	H	0.557534	1.344029	0.936793
H119	H	0.890867	1.677363	1.270126
H120	H	1.224200	2.010696	1.603459
H121	H	0.070049	1.444379	0.557947
H122	H	0.403383	1.777712	0.891281
H123	H	0.736716	2.111045	1.224614
H124	H	0.557497	1.344069	1.071338
H125	H	0.890831	1.677403	1.404671
H126	H	1.224164	2.010736	1.738004
H127	H	-0.101723	1.285365	0.385677
H128	H	0.231610	1.618698	0.719010
H129	H	0.564943	1.952032	1.052344
O130	O	0.367557	1.519384	1.123105
O131	O	0.700890	1.852717	1.456439
O132	O	1.034223	2.186050	1.789772
H133	H	0.414348	1.568420	1.172849
H134	H	0.747681	1.901754	1.506183
H135	H	1.081014	2.235087	1.839516
