data_functionalizedCrystal
_audit_creation_method	'MofGen! by Chris Wilmer'
_symmetry_space_group_name_H-M	'P1'
_symmetry_Int_Tables_number	1
_symmetry_cell_setting	triclinic
loop_
_symmetry_equiv_pos_as_xyz
  x,y,z
_cell_length_a	6.817900
_cell_length_b	11.102289
_cell_length_c	17.078481
_cell_angle_alpha	95.111625
_cell_angle_beta	99.306161
_cell_angle_gamma	108.605707
loop_
_atom_site_label
_atom_site_type_symbol
_atom_site_fract_x
_atom_site_fract_y
_atom_site_fract_z
V1	V	-4.005700	-0.175542	-0.247361
O2	O	-3.966747	0.008741	-0.242653
O3	O	-3.983201	-0.348365	-0.245670
O4	O	-3.936325	-0.172708	-0.355244
O5	O	-4.013948	-0.168132	-0.132319
V6	V	-4.488690	-0.153516	-0.233602
O7	O	-4.268129	-0.223859	-0.277545
O8	O	-4.676459	-0.105199	-0.203418
O9	O	-4.287983	0.019306	-0.235293
O10	O	-4.645040	-0.337799	-0.238310
O11	O	-4.597839	-0.160927	-0.348644
O12	O	-4.334858	-0.156350	-0.125719
C13	C	-3.835182	-0.390499	-0.241767
C14	C	-3.897933	-0.531783	-0.241103
C15	C	-4.109727	-0.604627	-0.244749
C16	C	-4.168680	-0.737379	-0.244131
C17	C	-3.804020	-0.724430	-0.236219
C18	C	-3.745073	-0.591682	-0.236842
C19	C	-4.320260	-0.612103	-0.249313
C20	C	-4.379213	-0.744855	-0.248696
C21	C	-3.775386	-0.166430	-0.381540
C22	C	-3.800119	-0.165257	-0.469735
C23	C	-3.994021	-0.171049	-0.515211
C24	C	-4.017249	-0.169946	-0.598079
C25	C	-3.846575	-0.163058	-0.635470
C26	C	-3.652655	-0.157261	-0.589988
C27	C	-3.629426	-0.158356	-0.507121
C28	C	-3.896497	-0.159097	-0.882874
C29	C	-3.919744	-0.158006	-0.965748
C30	C	-4.284335	-0.170689	-0.973832
C31	C	-4.261092	-0.171790	-0.890963
C32	C	-4.067172	-0.165986	-0.845488
N33	N	-3.870314	-0.161934	-0.720175
N34	N	-4.043431	-0.167101	-0.760784
C35	C	-4.099346	0.061434	-0.239194
C36	C	-4.015832	0.202717	-0.239863
C37	C	-4.159142	-0.162632	-0.099419
C38	C	-4.113646	-0.163799	-0.011223
H39	H	-4.453706	-0.769889	-0.194502
H40	H	-3.513688	-0.151646	-0.620438
N41	N	-4.435698	-0.586528	-0.325741
H42	H	-4.593090	-0.623517	-0.328731
H43	H	-4.397951	-0.628162	-0.373436
H44	H	-4.344261	-0.558943	-0.193375
N45	N	-3.516633	-0.513129	-0.232917
H46	H	-3.464244	-0.445480	-0.183591
H47	H	-3.504001	-0.470133	-0.282444
H48	H	-4.175138	-0.174656	-0.635101
N49	N	-4.520492	-0.821430	-0.326546
H50	H	-4.545922	-0.760787	-0.364528
H51	H	-4.659851	-0.876642	-0.315574
H52	H	-4.400077	-0.177397	-0.860525
N53	N	-3.639156	-0.789035	-0.231611
H54	H	-3.568961	-0.775387	-0.279396
H55	H	-3.708783	-0.884160	-0.231743
H56	H	-4.442218	-0.175412	-1.010867
N57	N	-3.735635	-0.150540	-1.006076
H58	H	-3.609253	-0.147013	-0.964693
H59	H	-3.699763	-0.070659	-1.032573
N60	N	-3.687350	-0.152833	-0.833831
H61	H	-3.582763	-0.148307	-0.870095
H62	H	-3.707377	-0.232148	-0.806971
H63	H	-3.471517	-0.153607	-0.470092
N64	N	-4.178112	-0.178488	-0.474885
H65	H	-4.304471	-0.181987	-0.516271
H66	H	-4.138794	-0.100076	-0.432975
