data_functionalizedCrystal
_audit_creation_method	'MofGen! by Chris Wilmer'
_symmetry_space_group_name_H-M	'P1'
_symmetry_Int_Tables_number	1
_symmetry_cell_setting	triclinic
loop_
_symmetry_equiv_pos_as_xyz
  x,y,z
_cell_length_a	13.635800
_cell_length_b	23.752959
_cell_length_c	9.514088
_cell_angle_alpha	93.110896
_cell_angle_beta	118.843545
_cell_angle_gamma	100.066424
loop_
_atom_site_label
_atom_site_type_symbol
_atom_site_fract_x
_atom_site_fract_y
_atom_site_fract_z
V1	V	2.100419	0.080176	0.501662
O2	O	2.100972	-0.002809	0.491179
O3	O	2.067452	0.157972	0.499129
O4	O	2.117888	0.079401	0.720044
O5	O	2.050187	0.076306	0.268734
V6	V	2.337970	0.070196	0.473693
O7	O	2.240285	0.102069	0.563015
O8	O	2.423202	0.048304	0.412340
O9	O	2.259334	-0.007600	0.476226
O10	O	2.396114	0.153182	0.484176
O11	O	2.446900	0.074066	0.706621
O12	O	2.208897	0.070972	0.255310
V13	V	2.600419	0.080176	0.501662
O14	O	2.600972	-0.002809	0.491179
O15	O	2.567452	0.157972	0.499129
O16	O	2.617888	0.079401	0.720044
O17	O	2.550187	0.076306	0.268734
V18	V	2.837970	0.070196	0.473693
O19	O	2.740285	0.102069	0.563015
O20	O	2.923202	0.048304	0.412340
O21	O	2.759334	-0.007600	0.476226
O22	O	2.896114	0.153182	0.484176
O23	O	2.946900	0.074066	0.706621
O24	O	2.708897	0.070972	0.255310
C25	C	1.986471	0.176923	0.491447
C26	C	2.000438	0.240525	0.490831
C27	C	2.050807	0.076697	0.773244
C28	C	2.105674	0.076578	0.951779
C29	C	2.171984	-0.026547	0.483904
C30	C	2.147639	-0.090149	0.484530
C31	C	2.107647	0.073678	0.202102
C32	C	2.042400	0.073794	0.023566
C33	C	1.968619	0.512513	0.480223
C34	C	1.955478	0.452750	0.480788
O35	O	1.870222	0.419353	0.474292
N36	N	2.041182	0.425790	0.489109
C37	C	2.140040	0.458597	0.496882
O38	O	2.211732	0.430178	0.504013
C39	C	2.153184	0.518359	0.496328
C40	C	2.067467	0.545314	0.487990
C41	C	1.882910	0.539469	0.471887
C42	C	1.896050	0.599226	0.471318
C43	C	1.994898	0.632028	0.479086
C44	C	2.080607	0.605072	0.487421
C45	C	2.252044	0.551165	0.504112
C46	C	2.265181	0.610930	0.503558
C47	C	2.179464	0.637886	0.495220
C48	C	2.192595	0.697632	0.494620
N49	N	2.106890	0.724592	0.486299
C50	C	2.008042	0.691790	0.478532
C51	C	2.112431	0.333093	0.498047
C52	C	2.099285	0.273332	0.498590
C53	C	1.914724	0.267490	0.482499
C54	C	1.927868	0.327251	0.481945
C55	C	2.026727	0.360053	0.489726
C56	C	2.035643	0.817286	0.477337
C57	C	2.048790	0.877049	0.476762
C58	C	2.233352	0.882887	0.492862
C59	C	2.220204	0.823128	0.493428
C60	C	2.121344	0.790330	0.485670
O61	O	2.277820	0.731066	0.501119
O62	O	1.936372	0.720218	0.471423
C63	C	2.550807	0.076697	0.773244
C64	C	2.605674	0.076578	0.951779
C65	C	2.486471	0.176923	0.491447
C66	C	2.500438	0.240525	0.490831
C67	C	2.671984	-0.026547	0.483904
C68	C	2.647639	-0.090149	0.484530
C69	C	2.607647	0.073678	0.202102
C70	C	2.542400	0.073794	0.023566
C71	C	2.599286	0.273327	0.498600
C72	C	2.612431	0.333090	0.498047
C73	C	2.526723	0.360049	0.489712
C74	C	2.427867	0.327243	0.481948
C75	C	2.414727	0.267482	0.482513
C76	C	2.721284	-0.122951	0.476765
C77	C	2.698413	-0.182713	0.477327
C78	C	2.601899	-0.209672	0.485664
C79	C	2.528246	-0.176866	0.493424
C80	C	2.551114	-0.117106	0.492851
H81	H	1.955146	0.790588	0.471026
C82	C	2.412516	0.070703	0.922091
H83	H	2.391440	0.071191	0.811383
H84	H	2.395163	0.103053	0.961199
H85	H	2.370810	0.035949	0.931061
C86	C	2.422096	-0.206526	0.502616
H87	H	2.419044	-0.246813	0.501866
H88	H	2.354419	-0.200954	0.411689
H89	H	2.427355	-0.190113	0.600002
H90	H	2.201828	0.078871	1.026913
H91	H	2.669083	0.251385	0.505376
C92	C	2.779440	-0.218790	0.468804
H93	H	2.752000	-0.258245	0.470318
H94	H	2.854594	-0.204779	0.559562
H95	H	2.781696	-0.215611	0.371246
H96	H	2.537436	0.408711	0.489253
H97	H	2.321849	0.529228	0.510908
H98	H	2.169077	0.251388	0.505352
C99	C	2.721167	0.369165	0.506566
H100	H	2.770314	0.344545	0.511580
H101	H	2.760374	0.398015	0.600831
H102	H	2.699889	0.387181	0.412514
C103	C	1.912515	0.070702	0.922098
H104	H	1.880177	0.068943	0.991073
H105	H	1.876441	0.037080	0.841247
H106	H	1.900798	0.104184	0.871388
H107	H	2.701828	0.078871	1.026913
H108	H	2.345685	0.637635	0.509899
H109	H	2.491143	-0.090402	0.499188
C110	C	1.954501	0.906698	0.467601
H111	H	1.893756	0.878601	0.463074
H112	H	1.925556	0.924474	0.372895
H113	H	1.986025	0.935304	0.561211
H114	H	2.358088	0.349203	0.475163
C115	C	2.305983	0.231402	0.473943
H116	H	2.310423	0.191949	0.475479
H117	H	2.240001	0.234585	0.376387
H118	H	2.300449	0.245411	0.564702
C119	C	1.801769	0.628872	0.462176
H120	H	1.741029	0.600772	0.457650
H121	H	1.772817	0.646652	0.367476
H122	H	1.833296	0.657475	0.555794
H123	H	2.799877	-0.101009	0.469977
C124	C	2.576755	-0.275407	0.486302
H125	H	2.508723	-0.286770	0.492369
H126	H	2.639463	-0.284586	0.577609
H127	H	2.566549	-0.295422	0.389294
C128	C	1.774166	0.503395	0.463328
H129	H	1.725011	0.528015	0.458272
H130	H	1.795409	0.485369	0.557353
H131	H	1.734968	0.474550	0.369039
H132	H	1.834236	0.240772	0.476181
C133	C	2.342081	0.918976	0.501412
H134	H	2.337629	0.958428	0.499898
H135	H	2.347629	0.904974	0.410668
H136	H	2.408072	0.915801	0.598982
H137	H	1.858073	0.349195	0.475169
H138	H	2.192933	0.359796	0.504371
H139	H	2.289990	0.801178	0.500181
