data_functionalizedCrystal
_audit_creation_method	'MofGen! by Chris Wilmer'
_symmetry_space_group_name_H-M	'P1'
_symmetry_Int_Tables_number	1
_symmetry_cell_setting	triclinic
loop_
_symmetry_equiv_pos_as_xyz
  x,y,z
_cell_length_a	10.723024
_cell_length_b	10.723024
_cell_length_c	17.766277
_cell_angle_alpha	89.990957
_cell_angle_beta	90.004243
_cell_angle_gamma	95.532131
loop_
_atom_site_label
_atom_site_type_symbol
_atom_site_fract_x
_atom_site_fract_y
_atom_site_fract_z
O1	O	-0.175029	1.657197	-0.062586
O2	O	-0.191783	1.294045	-0.062588
O3	O	-0.001830	1.483998	-0.062586
O4	O	-0.364982	1.467244	-0.062588
O5	O	-0.001820	1.483964	0.062603
O6	O	-0.191772	1.294011	0.062601
O7	O	-0.175019	1.657163	0.062603
Cu8	Cu	-0.183395	1.475584	0.074033
Cu9	Cu	-0.183407	1.475624	-0.074017
O10	O	-0.364972	1.467210	0.062601
C11	C	-0.190558	1.247528	0.000006
C12	C	-0.186911	1.108974	0.000005
C13	C	-0.293198	1.033991	0.000004
C14	C	-0.289431	0.890788	0.000003
C15	C	-0.411477	1.468447	0.000006
C16	C	-0.550031	1.472094	0.000005
C17	C	-0.625014	1.365807	0.000004
C18	C	-0.768217	1.369574	0.000003
C19	C	0.044675	1.482762	0.000007
C20	C	0.183229	1.479114	0.000003
C21	C	-0.176243	1.703680	0.000007
C22	C	-0.179891	1.842234	0.000003
N23	N	-0.183386	1.475565	0.178163
N24	N	-0.183406	1.475653	-0.178148
C25	C	-0.099317	1.559704	0.217551
C26	C	-0.099311	1.559711	0.296353
C27	C	-0.183396	1.475591	0.335763
C28	C	-0.267472	1.391437	0.296366
C29	C	-0.267466	1.391423	0.217566
C30	C	-0.296908	1.460214	0.460601
C31	C	-0.296915	1.460236	0.539399
C32	C	-0.183411	1.475625	0.578810
C33	C	-0.069896	1.491019	0.539412
C34	C	-0.069891	1.491006	0.460611
C35	C	-0.183410	1.475596	0.421209
C36	C	-0.099329	1.559776	0.703644
C37	C	-0.099322	1.559775	0.782447
C38	C	-0.267493	1.391506	0.782459
C39	C	-0.267490	1.391502	0.703657
C40	C	-0.183409	1.475643	0.664254
H41	H	-0.093125	1.067152	-0.000014
H42	H	-0.583191	1.272021	-0.000000
C43	C	-0.853972	1.248143	-0.000117
C44	C	-0.830766	1.178767	-0.064515
C45	C	-0.909731	1.066886	-0.064646
H46	H	-0.938844	1.266624	-0.000156
H47	H	-0.838388	1.200815	0.043516
H48	H	-0.846360	1.226085	-0.108136
H49	H	-0.745910	1.160253	-0.064490
H50	H	-0.894147	1.019558	-0.021013
H51	H	-0.994598	1.085379	-0.064683
H52	H	-0.893989	1.019796	-0.108336
C53	C	-0.418347	1.089574	-0.000113
C54	C	-0.486086	1.049600	-0.064511
C55	C	-0.601388	1.100760	-0.064639
H56	H	-0.404433	1.178410	-0.000150
H57	H	-0.464538	1.062536	0.043520
H58	H	-0.439906	1.076645	-0.108133
H59	H	-0.500034	0.960770	-0.064487
H60	H	-0.647579	1.073722	-0.021006
H61	H	-0.587462	1.189595	-0.064674
H62	H	-0.647368	1.073636	-0.108328
H63	H	-0.752346	1.570109	0.000008
H64	H	-0.591853	1.565880	-0.000022
C65	C	-0.358618	1.299903	0.339113
C66	C	-0.337228	1.177106	0.319983
C67	C	-0.421153	1.092745	0.359353
H68	H	-0.442083	1.313986	0.326223
H69	H	-0.346575	1.311880	0.391692
H70	H	-0.349281	1.165135	0.267415
H71	H	-0.253779	1.162983	0.332875
H72	H	-0.409110	1.104721	0.411932
H73	H	-0.504613	1.106839	0.346460
H74	H	-0.406644	1.009418	0.346384
H75	H	-0.380421	0.826355	-0.000001
H76	H	-0.335952	1.322993	0.671585
H77	H	-0.030850	1.628214	0.185471
C78	C	-0.420283	1.443445	0.582035
C79	C	-0.519682	1.429914	0.530658
C80	C	-0.633348	1.414428	0.569903
H81	H	-0.428047	1.514767	0.612764
H82	H	-0.422206	1.370776	0.612772
H83	H	-0.517761	1.502576	0.499934
H84	H	-0.511960	1.358592	0.499927
H85	H	-0.635271	1.341758	0.600640
H86	H	-0.641099	1.485752	0.600631
H87	H	-0.700803	1.405233	0.535050
C88	C	-0.007970	1.651200	0.338993
C89	C	0.065650	1.724897	0.287619
C90	C	0.149798	1.809196	0.326869
H91	H	0.044502	1.606015	0.369745
H92	H	-0.053308	1.703598	0.369707
H93	H	0.110985	1.672506	0.256918
H94	H	0.013211	1.770109	0.256865
H95	H	0.104459	1.861594	0.357583
H96	H	0.202261	1.764000	0.357620
H97	H	0.199751	1.859217	0.292018
H98	H	0.022537	1.503537	0.428536
C99	C	-0.420063	1.443715	0.417716
C100	C	-0.430879	1.549021	0.372446
C101	C	-0.544296	1.533860	0.332922
H102	H	-0.487779	1.434610	0.452374
H103	H	-0.421934	1.371108	0.386942
H104	H	-0.429018	1.621608	0.403217
H105	H	-0.363190	1.558145	0.337774
H106	H	-0.546168	1.461253	0.302148
H107	H	-0.612003	1.524752	0.367585
H108	H	-0.551645	1.605301	0.302196
H109	H	-0.088896	0.906659	-0.000000
C110	C	0.053327	1.507470	0.582222
C111	C	0.064203	1.402139	0.627460
C112	C	0.177703	1.417248	0.666901
H113	H	0.055315	1.580044	0.613015
H114	H	0.120960	1.516573	0.547492
H115	H	-0.003412	1.393050	0.662187
H116	H	0.062237	1.329551	0.596687
H117	H	0.245336	1.426351	0.632171
H118	H	0.179682	1.489826	0.697689
H119	H	0.185103	1.345780	0.697594
C120	C	-0.007876	1.650970	0.660867
C121	C	0.114966	1.629714	0.679993
C122	C	0.199227	1.713686	0.640584
H123	H	-0.022032	1.734423	0.673728
H124	H	-0.019879	1.638880	0.608293
H125	H	0.126965	1.641815	0.732555
H126	H	0.129162	1.546278	0.667131
H127	H	0.187224	1.701595	0.588010
H128	H	0.185059	1.797133	0.653448
H129	H	0.282585	1.699268	0.653550
C130	C	-0.358957	1.300219	0.174838
C131	C	-0.481773	1.321523	0.193983
C132	C	-0.566091	1.237543	0.154629
H133	H	-0.344812	1.216770	0.187730
H134	H	-0.347001	1.312269	0.122256
H135	H	-0.493725	1.309463	0.246553
H136	H	-0.495958	1.404956	0.181089
H137	H	-0.554134	1.249592	0.102047
H138	H	-0.551934	1.154099	0.167524
H139	H	-0.649430	1.251993	0.167608
H140	H	-0.030856	1.628287	0.814517
H141	H	-0.335952	1.323010	0.814547
