data_functionalizedCrystal
_audit_creation_method	'MofGen! by Chris Wilmer'
_symmetry_space_group_name_H-M	'P1'
_symmetry_Int_Tables_number	1
_symmetry_cell_setting	triclinic
loop_
_symmetry_equiv_pos_as_xyz
  x,y,z
_cell_length_a	17.699083
_cell_length_b	17.699083
_cell_length_c	16.176319
_cell_angle_alpha	89.992304
_cell_angle_beta	89.998611
_cell_angle_gamma	83.283015
loop_
_atom_site_label
_atom_site_type_symbol
_atom_site_fract_x
_atom_site_fract_y
_atom_site_fract_z
O1	O	1.004079	0.095713	-0.068632
O2	O	1.504079	0.595713	0.431368
O3	O	0.783700	0.108166	-0.068660
O4	O	1.283700	0.608166	0.431340
O5	O	0.900116	-0.008250	-0.068638
O6	O	1.400116	0.491750	0.431362
O7	O	0.887663	0.212129	-0.068654
O8	O	1.387663	0.712129	0.431346
O9	O	0.900100	-0.008257	0.068855
O10	O	1.400100	0.491743	0.568855
O11	O	0.783684	0.108158	0.068834
O12	O	1.283684	0.608158	0.568834
O13	O	1.004063	0.095706	0.068861
O14	O	1.504063	0.595706	0.568861
Cu15	Cu	0.893872	0.101931	0.081401
Cu16	Cu	1.393872	0.601931	0.581401
Cu17	Cu	0.893891	0.101940	-0.081200
Cu18	Cu	1.393891	0.601940	0.418800
O19	O	0.887647	0.212121	0.068839
O20	O	1.387647	0.712121	0.568839
C21	C	0.755495	0.107716	0.000084
C22	C	1.255495	0.607716	0.500084
C23	C	0.671477	0.106377	0.000073
C24	C	1.171477	0.606377	0.500073
C25	C	0.622856	0.174710	0.000069
C26	C	1.122856	0.674710	0.500069
C27	C	0.543913	0.173448	0.000079
C28	C	1.043913	0.673448	0.500079
C29	C	0.513592	0.103852	0.000089
C30	C	1.013592	0.603852	0.500089
C31	C	0.562219	0.035513	0.000096
C32	C	1.062219	0.535513	0.500096
C33	C	0.641161	0.036776	0.000091
C34	C	1.141161	0.536776	0.500091
C35	C	0.243856	0.030418	0.000117
C36	C	0.743856	0.530418	0.500117
C37	C	0.164908	0.029160	0.000120
C38	C	0.664908	0.529160	0.500120
C39	C	0.146608	0.167090	0.000105
C40	C	0.646608	0.667090	0.500105
C41	C	0.225550	0.168353	0.000100
C42	C	0.725550	0.668353	0.500100
C43	C	0.274170	0.100015	0.000112
C44	C	0.774170	0.600015	0.500112
C45	C	0.359769	0.101384	0.000102
C46	C	0.859769	0.601384	0.500102
C47	C	0.427995	0.102481	0.000093
C48	C	0.927995	0.602481	0.500093
C49	C	0.899662	-0.036451	0.000109
C50	C	1.399662	0.463549	0.500109
C51	C	0.898323	-0.120469	0.000109
C52	C	1.398323	0.379531	0.500109
C53	C	0.966656	-0.169090	0.000119
C54	C	1.466656	0.330910	0.500119
C55	C	0.965394	-0.248033	0.000111
C56	C	1.465394	0.251967	0.500111
C57	C	0.895798	-0.278354	0.000100
C58	C	1.395798	0.221646	0.500100
C59	C	0.827459	-0.229727	0.000088
C60	C	1.327459	0.270273	0.500088
C61	C	0.828722	-0.150785	0.000089
C62	C	1.328722	0.349215	0.500089
C63	C	0.822364	-0.548090	0.000080
C64	C	1.322364	-0.048090	0.500080
C65	C	0.821106	-0.627038	0.000081
C66	C	1.321106	-0.127038	0.500081
C67	C	0.959036	-0.645338	0.000102
C68	C	1.459036	-0.145338	0.500102
C69	C	0.960299	-0.566396	0.000104
C70	C	1.460299	-0.066396	0.500104
C71	C	0.891961	-0.517776	0.000087
C72	C	1.391961	-0.017776	0.500087
C73	C	0.893330	-0.432177	0.000094
C74	C	1.393330	0.067823	0.500094
C75	C	0.894427	-0.363951	0.000099
C76	C	1.394427	0.136049	0.500099
C77	C	1.032268	0.096156	0.000116
C78	C	1.532268	0.596156	0.500116
C79	C	1.116286	0.097494	0.000121
C80	C	1.616286	0.597494	0.500121
C81	C	0.888102	0.240322	0.000091
C82	C	1.388102	0.740322	0.500091
C83	C	0.889440	0.324340	0.000085
C84	C	1.389440	0.824340	0.500085
N85	N	0.893864	0.101925	0.195767
N86	N	1.393864	0.601925	0.695767
N87	N	0.893905	0.101941	-0.195565
N88	N	1.393905	0.601941	0.304435
C89	C	0.945429	0.050397	0.239040
C90	C	1.445429	0.550397	0.739040
C91	C	0.945432	0.050396	0.325588
C92	C	1.445432	0.550396	0.825588
C93	C	0.893875	0.101927	0.368859
C94	C	1.393875	0.601927	0.868859
C95	C	0.842305	0.153457	0.325579
C96	C	1.342305	0.653457	0.825579
C97	C	0.842299	0.153454	0.239034
C98	C	1.342299	0.653454	0.739034
C99	C	0.842331	0.153472	0.674608
C100	C	1.342331	0.653472	1.174608
C101	C	0.842344	0.153473	0.761159
C102	C	1.342344	0.653473	1.261159
C103	C	0.945465	0.050414	0.761161
C104	C	1.445465	0.550414	1.261161
C105	C	0.945458	0.050410	0.674616
C106	C	1.445458	0.550410	1.174616
C107	C	0.893886	0.101937	0.631344
C108	C	1.393886	0.601937	1.131344
C109	C	0.893882	0.101937	0.537499
C110	C	1.393882	0.601937	1.037499
C111	C	0.893883	0.101932	0.462702
C112	C	1.393883	0.601932	0.962702
H113	H	0.107012	0.222734	0.000100
H114	H	0.607012	0.722734	0.500100
H115	H	0.987416	0.008438	0.203814
H116	H	1.487416	0.508438	0.703814
C117	C	0.490433	0.248615	0.000071
C118	C	0.990433	0.748615	0.500071
H119	H	0.519797	0.290244	0.000055
H120	H	1.019797	0.790244	0.500055
H121	H	0.459260	0.250991	0.048021
H122	H	0.959260	0.750991	0.548021
H123	H	0.459256	0.250989	-0.047879
H124	H	0.959256	0.750989	0.452121
H125	H	1.014680	-0.684934	0.000111
H126	H	1.514680	-0.184934	0.500111
C127	C	0.744546	-0.660389	0.000058
C128	C	1.244546	-0.160389	0.500058
H129	H	0.704027	-0.620127	0.000039
H130	H	1.204027	-0.120127	0.500039
H131	H	0.741176	-0.690810	0.048003
H132	H	1.241176	-0.190810	0.548003
H133	H	0.741203	-0.690798	-0.047897
H134	H	1.241203	-0.190798	0.452103
H135	H	0.140225	-0.027517	0.000128
H136	H	0.640225	0.472483	0.500128
H137	H	0.800341	0.195428	0.639382
H138	H	1.300341	0.695428	1.139382
H139	H	0.987419	0.008438	0.360821
H140	H	1.487419	0.508438	0.860821
H141	H	0.250232	0.225025	0.000089
H142	H	0.750232	0.725025	0.500089
H143	H	0.800323	0.195413	0.360816
H144	H	1.300323	0.695413	0.860816
C145	C	1.036852	-0.533043	0.000119
C146	C	1.536852	-0.033043	0.500119
H147	H	1.027817	-0.479065	0.000127
H148	H	1.527817	0.020935	0.500127
H149	H	1.064991	-0.549734	-0.047823
H150	H	1.564991	-0.049734	0.452177
H151	H	1.064974	-0.549747	0.048077
H152	H	1.564974	-0.049747	0.548077
H153	H	1.023330	-0.144409	0.000133
H154	H	1.523330	0.355591	0.500133
H155	H	0.987444	0.008451	0.639387
H156	H	1.487444	0.508451	1.139387
C157	C	0.656206	0.251266	0.000055
C158	C	1.156206	0.751266	0.500055
H159	H	0.710185	0.242234	0.000045
H160	H	1.210185	0.742234	0.500045
H161	H	0.639510	0.279395	0.048000
H162	H	1.139510	0.779395	0.548000
H163	H	0.639505	0.279395	-0.047900
H164	H	1.139505	0.779395	0.452100
H165	H	0.766718	-0.508512	0.000067
H166	H	1.266718	-0.008512	0.500067
H167	H	0.283434	-0.025228	0.000127
H168	H	0.783434	0.474772	0.500127
C169	C	1.040559	-0.301516	0.000113
C170	C	1.540559	0.198484	0.500113
H171	H	1.029841	-0.352874	0.000097
H172	H	1.529841	0.147126	0.500097
H173	H	1.069102	-0.292351	0.048062
H174	H	1.569102	0.207649	0.548062
H175	H	1.069102	-0.292326	-0.047837
H176	H	1.569102	0.207674	0.452163
C177	C	0.785581	0.210137	0.191433
C178	C	1.285581	0.710137	0.691433
H179	H	0.754881	0.240833	0.229597
H180	H	1.254881	0.740833	0.729597
H181	H	0.754126	0.182949	0.157680
H182	H	1.254126	0.682949	0.657680
H183	H	0.812749	0.241611	0.157663
H184	H	1.312749	0.741611	0.657663
H185	H	0.770792	-0.254420	0.000073
H186	H	1.270792	0.245580	0.500073
H187	H	0.537526	-0.021154	0.000116
H188	H	1.037526	0.478846	0.500116
C189	C	0.753556	-0.097302	0.000081
C190	C	1.253556	0.402698	0.500081
H191	H	0.711925	-0.126664	0.000081
H192	H	1.211925	0.373336	0.500081
H193	H	0.751188	-0.066120	-0.047866
H194	H	1.251188	0.433880	0.452134
H195	H	0.751175	-0.066132	0.048034
H196	H	1.251175	0.433868	0.548034
C197	C	0.694647	-0.038388	0.000096
C198	C	1.194647	0.461612	0.500096
H199	H	0.746005	-0.027669	0.000100
H200	H	1.246005	0.472331	0.500100
H201	H	0.685472	-0.066933	-0.047846
H202	H	1.185472	0.433067	0.452154
H203	H	0.685470	-0.066931	0.048054
H204	H	1.185470	0.433069	0.548054
H205	H	0.987456	0.008455	0.796403
H206	H	1.487456	0.508455	1.296403
H207	H	0.800357	0.195437	0.796390
H208	H	1.300357	0.695437	1.296390
