data_functionalizedCrystal
_audit_creation_method	'MofGen! by Chris Wilmer'
_symmetry_space_group_name_H-M	'P1'
_symmetry_Int_Tables_number	1
_symmetry_cell_setting	triclinic
loop_
_symmetry_equiv_pos_as_xyz
  x,y,z
_cell_length_a	21.395362
_cell_length_b	29.839131
_cell_length_c	21.395355
_cell_angle_alpha	89.979828
_cell_angle_beta	89.956060
_cell_angle_gamma	90.057297
loop_
_atom_site_label
_atom_site_type_symbol
_atom_site_fract_x
_atom_site_fract_y
_atom_site_fract_z
Zn1	Zn	0.957813	-0.178715	-0.354578
Zn2	Zn	1.291146	0.154618	-0.021245
Zn3	Zn	1.624480	0.487952	0.312088
Zn4	Zn	0.957696	-0.253830	-0.249798
Zn5	Zn	1.291029	0.079503	0.083536
Zn6	Zn	1.624362	0.412836	0.416869
Zn7	Zn	0.853028	-0.178736	-0.249780
Zn8	Zn	1.186361	0.154597	0.083554
Zn9	Zn	1.519694	0.487931	0.416887
Zn10	Zn	0.852977	-0.253840	-0.354503
Zn11	Zn	1.186311	0.079494	-0.021169
Zn12	Zn	1.519644	0.412827	0.312164
O13	O	0.905378	-0.216280	-0.302165
O14	O	1.238712	0.117053	0.031169
O15	O	1.572045	0.450386	0.364502
O16	O	1.045475	-0.188667	-0.340718
O17	O	1.378809	0.144667	-0.007385
O18	O	1.712142	0.478000	0.325948
O19	O	0.943783	-0.243874	-0.162117
O20	O	1.277117	0.089460	0.171216
O21	O	1.610450	0.422793	0.504549
O22	O	0.866998	-0.115866	-0.263706
O23	O	1.200331	0.217467	0.069628
O24	O	1.533665	0.550801	0.402961
O25	O	1.045389	-0.243853	-0.263737
O26	O	1.378723	0.089480	0.069597
O27	O	1.712056	0.422813	0.402930
O28	O	0.943983	-0.115851	-0.340701
O29	O	1.277316	0.217483	-0.007367
O30	O	1.610650	0.550816	0.325966
O31	O	0.866884	-0.188702	-0.162104
O32	O	1.200218	0.144631	0.171229
O33	O	1.533551	0.477964	0.504563
O34	O	0.765343	-0.188711	-0.263632
O35	O	1.098677	0.144622	0.069701
O36	O	1.432010	0.477955	0.403035
O37	O	0.866912	-0.243869	-0.442191
O38	O	1.200245	0.089464	-0.108857
O39	O	1.533579	0.422797	0.224476
O40	O	0.765306	-0.243889	-0.340571
O41	O	1.098640	0.089444	-0.007238
O42	O	1.431973	0.422777	0.326095
O43	O	0.943934	-0.188676	-0.442246
O44	O	1.277267	0.144658	-0.108913
O45	O	1.610601	0.477991	0.224420
O46	O	0.943735	-0.316699	-0.263663
O47	O	1.277068	0.016635	0.069670
O48	O	1.610401	0.349968	0.403004
O49	O	0.866798	-0.316705	-0.340589
O50	O	1.200132	0.016628	-0.007256
O51	O	1.533465	0.349961	0.326078
C52	C	0.742591	-0.216304	-0.302092
C53	C	1.075924	0.117029	0.031241
C54	C	1.409257	0.450363	0.364575
C55	C	0.672950	-0.216325	-0.302076
C56	C	1.006283	0.117008	0.031258
C57	C	1.339616	0.450342	0.364591
C58	C	0.640233	-0.245094	-0.342078
C59	C	0.973567	0.088239	-0.008745
C60	C	1.306900	0.421572	0.324589
C61	C	0.574798	-0.245083	-0.342106
C62	C	0.908131	0.088250	-0.008773
C63	C	1.241465	0.421583	0.324561
C64	C	0.542081	-0.216308	-0.302120
C65	C	0.875415	0.117026	0.031213
C66	C	1.208748	0.450359	0.364546
C67	C	0.574805	-0.187533	-0.262115
C68	C	0.908138	0.145801	0.071218
C69	C	1.241472	0.479134	0.404552
C70	C	0.640239	-0.187541	-0.262093
C71	C	0.973573	0.145792	0.071241
C72	C	1.306906	0.479125	0.404574
C73	C	0.438357	-0.212688	-0.245715
C74	C	0.771691	0.120645	0.087618
C75	C	1.105024	0.453978	0.420951
C76	C	0.372925	-0.212683	-0.245736
C77	C	0.706258	0.120650	0.087597
C78	C	1.039591	0.453984	0.420930
C79	C	0.340261	-0.216278	-0.302189
C80	C	0.673594	0.117055	0.031144
C81	C	1.006927	0.450388	0.364477
C82	C	0.373038	-0.219889	-0.358623
C83	C	0.706371	0.113445	-0.025290
C84	C	1.039704	0.446778	0.308044
C85	C	0.438472	-0.219897	-0.358601
C86	C	0.771805	0.113436	-0.025267
C87	C	1.105138	0.446769	0.308066
C88	C	0.471129	-0.216295	-0.302140
C89	C	0.804462	0.117039	0.031193
C90	C	1.137796	0.450372	0.364526
C91	C	0.236592	-0.245037	-0.342226
C92	C	0.569925	0.088296	-0.008892
C93	C	0.903259	0.421629	0.324441
C94	C	0.171155	-0.245023	-0.342254
C95	C	0.504489	0.088310	-0.008921
C96	C	0.837822	0.421644	0.324412
C97	C	0.171164	-0.187475	-0.262258
C98	C	0.504497	0.145859	0.071075
C99	C	0.837830	0.479192	0.404409
C100	C	0.236599	-0.187487	-0.262235
C101	C	0.569932	0.145847	0.071099
C102	C	0.903266	0.479180	0.404432
C103	C	0.269309	-0.216270	-0.302218
C104	C	0.602643	0.117063	0.031116
C105	C	0.935976	0.450396	0.364449
C106	C	0.905265	-0.333003	-0.302133
C107	C	1.238599	0.000331	0.031200
C108	C	1.571932	0.333664	0.364533
C109	C	0.905274	-0.382937	-0.302141
C110	C	1.238608	-0.049604	0.031192
C111	C	1.571941	0.283729	0.364526
C112	C	0.945512	-0.692564	-0.262168
C113	C	1.278845	-0.359231	0.071166
C114	C	1.612179	-0.025898	0.404499
C115	C	0.945589	-0.880237	-0.262192
C116	C	1.278923	-0.546904	0.071141
C117	C	1.612256	-0.213571	0.404475
O118	O	0.979711	-0.904488	-0.228181
O119	O	1.313044	-0.571155	0.105152
O120	O	1.646378	-0.237822	0.438485
N121	N	0.905508	-0.903722	-0.302212
N122	N	1.238842	-0.570389	0.031121
N123	N	1.572175	-0.237056	0.364455
C124	C	0.865408	-0.880286	-0.342231
C125	C	1.198742	-0.546953	-0.008898
C126	C	1.532075	-0.213619	0.324435
O127	O	0.831323	-0.904567	-0.376276
O128	O	1.164657	-0.571234	-0.042942
O129	O	1.497990	-0.237901	0.290391
C130	C	0.865334	-0.692614	-0.342210
C131	C	1.198668	-0.359280	-0.008876
C132	C	1.532001	-0.025947	0.324457
C133	C	0.905414	-0.669131	-0.302183
C134	C	1.238747	-0.335798	0.031151
C135	C	1.572080	-0.002465	0.364484
C136	C	0.985588	-0.669082	-0.222145
C137	C	1.318922	-0.335749	0.111189
C138	C	1.652255	-0.002415	0.444522
C139	C	0.985566	-0.622166	-0.222136
C140	C	1.318899	-0.288833	0.111197
C141	C	1.652233	0.044500	0.444530
C142	C	0.945468	-0.598733	-0.262152
C143	C	1.278801	-0.265400	0.071182
C144	C	1.612134	0.067933	0.404515
C145	C	0.905391	-0.622216	-0.302175
C146	C	1.238725	-0.288883	0.031159
C147	C	1.572058	0.044451	0.364492
C148	C	0.825238	-0.669178	-0.382232
C149	C	1.158571	-0.335845	-0.048899
C150	C	1.491905	-0.002512	0.284435
C151	C	0.825224	-0.622257	-0.382224
C152	C	1.158557	-0.288924	-0.048891
C153	C	1.491891	0.044409	0.284443
C154	C	0.865303	-0.598775	-0.342197
C155	C	1.198637	-0.265442	-0.008864
C156	C	1.531970	0.067892	0.324470
C157	C	0.865271	-0.551867	-0.342182
C158	C	1.198604	-0.218534	-0.008848
C159	C	1.531937	0.114799	0.324485
N160	N	0.905352	-0.528383	-0.302162
N161	N	1.238685	-0.195049	0.031171
N162	N	1.572018	0.138284	0.364505
C163	C	0.945450	-0.551816	-0.262147
C164	C	1.278783	-0.218482	0.071187
C165	C	1.612117	0.114851	0.404520
C166	C	0.865449	-0.978816	-0.342239
C167	C	1.198782	-0.645483	-0.008906
C168	C	1.532116	-0.312150	0.324428
C169	C	0.865466	-1.025734	-0.342244
C170	C	1.198800	-0.692401	-0.008910
C171	C	1.532133	-0.359068	0.324423
C172	C	0.945649	-1.025683	-0.262205
C173	C	1.278982	-0.692349	0.071128
C174	C	1.612315	-0.359016	0.404462
C175	C	0.945627	-0.978764	-0.262198
C176	C	1.278961	-0.645431	0.071136
C177	C	1.612294	-0.312097	0.404469
C178	C	0.905530	-0.955332	-0.302219
C179	C	1.238863	-0.621998	0.031114
C180	C	1.572196	-0.288665	0.364447
C181	C	0.945400	-0.453290	-0.262132
C182	C	1.278734	-0.119956	0.071201
C183	C	1.612067	0.213377	0.404534
C184	C	0.945373	-0.406370	-0.262126
C185	C	1.278706	-0.073037	0.071207
C186	C	1.612039	0.260296	0.404541
C187	C	0.865193	-0.406426	-0.342167
C188	C	1.198527	-0.073093	-0.008833
C189	C	1.531860	0.260241	0.324500
C190	C	0.865218	-0.453342	-0.342171
C191	C	1.198551	-0.120008	-0.008838
C192	C	1.531885	0.213325	0.324496
C193	C	0.905327	-0.476772	-0.302152
C194	C	1.238660	-0.143439	0.031181
C195	C	1.571993	0.189894	0.364515
O196	O	0.831172	-0.527587	-0.376180
O197	O	1.164505	-0.194254	-0.042846
O198	O	1.497839	0.139079	0.290487
O199	O	0.979540	-0.527526	-0.228117
O200	O	1.312873	-0.194193	0.105216
O201	O	1.646206	0.139141	0.438549
C202	C	0.945534	-0.739480	-0.262176
C203	C	1.278867	-0.406146	0.071157
C204	C	1.612201	-0.072813	0.404491
C205	C	0.905458	-0.762962	-0.302199
C206	C	1.238791	-0.429629	0.031134
C207	C	1.572125	-0.096296	0.364468
C208	C	0.865359	-0.739529	-0.342214
C209	C	1.198693	-0.406196	-0.008881
C210	C	1.532026	-0.072863	0.324453
C211	C	0.905475	-0.809880	-0.302204
C212	C	1.238809	-0.476547	0.031130
C213	C	1.572142	-0.143213	0.364463
C214	C	0.945574	-0.833313	-0.262189
C215	C	1.278907	-0.499980	0.071145
C216	C	1.612240	-0.166646	0.404478
C217	C	0.985655	-0.809828	-0.222169
C218	C	1.318988	-0.476495	0.111164
C219	C	1.652321	-0.143162	0.444498
C220	C	0.985633	-0.762913	-0.222161
C221	C	1.318966	-0.429579	0.111173
C222	C	1.652299	-0.096246	0.444506
C223	C	0.825278	-0.763014	-0.382234
C224	C	1.158612	-0.429681	-0.048900
C225	C	1.491945	-0.096347	0.284433
C226	C	0.825303	-0.809929	-0.382238
C227	C	1.158637	-0.476596	-0.048905
C228	C	1.491970	-0.143263	0.284429
C229	C	0.865402	-0.833362	-0.342223
C230	C	1.198735	-0.500029	-0.008890
C231	C	1.532069	-0.166696	0.324444
C232	C	1.068802	-0.216257	-0.302238
C233	C	1.402135	0.117077	0.031095
C234	C	1.735468	0.450410	0.364429
C235	C	1.138443	-0.216247	-0.302269
C236	C	1.471776	0.117087	0.031064
C237	C	1.805110	0.450420	0.364397
C238	C	0.905431	-0.216271	-0.465588
C239	C	1.238764	0.117062	-0.132255
C240	C	1.572097	0.450396	0.201079
C241	C	0.905453	-0.216267	-0.535229
C242	C	1.238786	0.117066	-0.201896
C243	C	1.572119	0.450399	0.131437
C244	C	0.905509	-0.099102	-0.302210
C245	C	1.238842	0.234232	0.031124
C246	C	1.572176	0.567565	0.364457
C247	C	0.905565	-0.049167	-0.302229
C248	C	1.238898	0.284166	0.031105
C249	C	1.572231	0.617499	0.364438
C250	C	0.945556	-0.187527	-0.567972
C251	C	1.278890	0.145807	-0.234639
C252	C	1.612223	0.479140	0.098694
C253	C	0.945556	-0.187507	-0.633408
C254	C	1.278889	0.145826	-0.300074
C255	C	1.612222	0.479159	0.033259
C256	C	0.905458	-0.216237	-0.666098
C257	C	1.238791	0.117097	-0.332764
C258	C	1.572124	0.450430	0.000569
C259	C	0.865346	-0.244979	-0.633347
C260	C	1.198679	0.088354	-0.300013
C261	C	1.532013	0.421688	0.033320
C262	C	0.865344	-0.244994	-0.567912
C263	C	1.198677	0.088339	-0.234579
C264	C	1.532010	0.421672	0.098754
C265	C	0.900471	-0.256689	-0.769760
C266	C	1.233804	0.076645	-0.436427
C267	C	1.567138	0.409978	-0.103093
C268	C	0.900478	-0.256674	-0.835193
C269	C	1.233811	0.076659	-0.501860
C270	C	1.567145	0.409993	-0.168526
C271	C	0.905461	-0.216189	-0.867918
C272	C	1.238795	0.117144	-0.534585
C273	C	1.572128	0.450478	-0.201252
C274	C	0.910451	-0.175717	-0.835203
C275	C	1.243785	0.157616	-0.501870
C276	C	1.577118	0.490949	-0.168536
C277	C	0.910449	-0.175733	-0.769769
C278	C	1.243782	0.157601	-0.436436
C279	C	1.577116	0.490934	-0.103102
C280	C	0.905455	-0.216223	-0.737050
C281	C	1.238789	0.117110	-0.403717
C282	C	1.572122	0.450444	-0.070383
C283	C	0.945566	-0.187425	-0.971614
C284	C	1.278900	0.145908	-0.638281
C285	C	1.612233	0.479242	-0.304948
C286	C	0.945561	-0.187405	-1.037051
C287	C	1.278894	0.145928	-0.703718
C288	C	1.612228	0.479262	-0.370384
C289	C	0.865355	-0.244881	-1.036988
C290	C	1.198688	0.088452	-0.703655
C291	C	1.532022	0.421786	-0.370322
C292	C	0.865357	-0.244897	-0.971553
C293	C	1.198690	0.088436	-0.638220
C294	C	1.532024	0.421770	-0.304886
C295	C	0.905466	-0.216170	-0.938870
C296	C	1.238799	0.117164	-0.605536
C297	C	1.572133	0.450497	-0.272203
C298	C	0.905363	-0.216257	-0.139377
C299	C	1.238696	0.117077	0.193956
C300	C	1.572029	0.450410	0.527290
C301	C	0.905462	-0.216134	-0.069736
C302	C	1.238795	0.117199	0.263597
C303	C	1.572129	0.450533	0.596931
H304	H	0.346444	-0.222815	-0.404593
H305	H	0.679777	0.110518	-0.071259
H306	H	1.013111	0.443851	0.262074
N307	N	0.988814	-0.156543	-0.532721
N308	N	1.322147	0.176791	-0.199388
N309	N	1.655480	0.510124	0.133945
H310	H	1.014219	-0.138332	-0.563397
H311	H	1.347552	0.195001	-0.230064
H312	H	1.680886	0.528334	0.103269
H313	H	0.963333	-0.135761	-0.505555
H314	H	1.296666	0.197572	-0.172222
H315	H	1.630000	0.530906	0.161112
H316	H	0.263226	-0.268472	-0.374785
H317	H	0.596559	0.064861	-0.041452
H318	H	0.929893	0.398194	0.291882
H319	H	0.144519	-0.268450	-0.374833
H320	H	0.477853	0.064884	-0.041500
H321	H	0.811186	0.398217	0.291834
N322	N	0.473581	-0.208810	-0.184821
N323	N	0.806915	0.124523	0.148513
N324	N	1.140248	0.457856	0.481846
H325	H	0.500679	-0.236175	-0.178867
H326	H	0.834012	0.097158	0.154466
H327	H	1.167346	0.430491	0.487799
H328	H	0.500740	-0.181115	-0.185763
H329	H	0.834073	0.152219	0.147570
H330	H	1.167406	0.485552	0.480903
H331	H	0.666876	-0.164112	-0.229518
H332	H	1.000210	0.169221	0.103815
H333	H	1.333543	0.502554	0.437149
N334	N	0.539520	-0.156500	-0.218983
N335	N	0.872853	0.176834	0.114350
N336	N	1.206187	0.510167	0.447684
H337	H	0.570178	-0.138275	-0.193636
H338	H	0.903511	0.195058	0.139697
H339	H	1.236844	0.528391	0.473030
H340	H	0.512431	-0.135733	-0.244548
H341	H	0.845765	0.197600	0.088786
H342	H	1.179098	0.530933	0.422119
N343	N	0.988818	-0.156509	-0.668729
N344	N	1.322151	0.176824	-0.335396
N345	N	1.655485	0.510158	-0.002062
H346	H	1.017830	-0.174760	-0.695897
H347	H	1.351163	0.158573	-0.362564
H348	H	1.684496	0.491907	-0.029230
H349	H	0.963340	-0.135691	-0.695825
H350	H	1.296673	0.197642	-0.362492
H351	H	1.630006	0.530975	-0.029159
H352	H	0.914510	-0.142779	-0.743135
H353	H	1.247843	0.190554	-0.409801
H354	H	1.581177	0.523887	-0.076468
H355	H	0.978010	-0.387252	-0.229529
H356	H	1.311343	-0.053919	0.103804
H357	H	1.644676	0.279414	0.437137
N358	N	0.988659	-0.478558	-0.218971
N359	N	1.321993	-0.145224	0.114363
N360	N	1.655326	0.188109	0.447696
H361	H	1.014040	-0.456557	-0.193617
H362	H	1.347373	-0.123223	0.139716
H363	H	1.680707	0.210110	0.473049
H364	H	0.963179	-0.498057	-0.189944
H365	H	1.296513	-0.164724	0.143389
H366	H	1.629846	0.168609	0.476722
H367	H	0.144526	-0.164043	-0.229704
H368	H	0.477860	0.169290	0.103629
H369	H	0.811193	0.502624	0.436963
H370	H	0.832696	-0.268369	-0.659967
H371	H	1.166029	0.064964	-0.326633
H372	H	1.499363	0.398297	0.006700
N373	N	0.822106	-0.275870	-1.072234
N374	N	1.155439	0.057463	-0.738901
N375	N	1.488772	0.390796	-0.405568
H376	H	0.777347	-0.268901	-1.060813
H377	H	1.110680	0.064432	-0.727480
H378	H	1.444013	0.397765	-0.394146
H379	H	0.828243	-0.271486	-1.118645
H380	H	1.161576	0.061847	-0.785312
H381	H	1.494910	0.395180	-0.451978
H382	H	1.018204	-0.603050	-0.189545
H383	H	1.351537	-0.269717	0.143788
H384	H	1.684870	0.063617	0.477122
H385	H	0.832683	-0.268398	-0.541253
H386	H	1.166017	0.064935	-0.207920
H387	H	1.499350	0.398269	0.125413
N388	N	1.028842	-0.694352	-0.178983
N389	N	1.362175	-0.361018	0.154351
N390	N	1.695508	-0.027685	0.487684
H391	H	1.054223	-0.672350	-0.153632
H392	H	1.387556	-0.339016	0.179702
H393	H	1.720890	-0.005683	0.513035
H394	H	1.003360	-0.713848	-0.149954
H395	H	1.336693	-0.380515	0.183379
H396	H	1.670026	-0.047182	0.516713
H397	H	0.978263	-0.959647	-0.229605
H398	H	1.311597	-0.626314	0.103729
H399	H	1.644930	-0.292981	0.437062
H400	H	0.914510	-0.142751	-0.861847
H401	H	1.247844	0.190583	-0.528514
H402	H	1.581177	0.523916	-0.195180
N403	N	0.822092	-0.275889	-0.936232
N404	N	1.155425	0.057445	-0.602899
N405	N	1.488759	0.390778	-0.269565
H406	H	0.796685	-0.294084	-0.966868
H407	H	1.130018	0.039250	-0.633535
H408	H	1.463352	0.372583	-0.300201
H409	H	0.847559	-0.296685	-0.909094
H410	H	1.180893	0.036648	-0.575760
H411	H	1.514226	0.369982	-0.242427
H412	H	0.978298	-1.044770	-0.229623
H413	H	1.311632	-0.711436	0.103710
H414	H	1.644965	-0.378103	0.437043
H415	H	0.832824	-1.044850	-0.374832
H416	H	1.166157	-0.711516	-0.041498
H417	H	1.499491	-0.378183	0.291835
H418	H	0.263237	-0.164062	-0.229657
H419	H	0.596570	0.169272	0.103676
H420	H	0.929903	0.502605	0.437009
H421	H	0.346242	-0.209746	-0.199785
H422	H	0.679576	0.123587	0.133548
H423	H	1.012909	0.456921	0.466882
H424	H	0.832795	-0.959741	-0.374830
H425	H	1.166128	-0.626408	-0.041497
H426	H	1.499462	-0.293074	0.291836
H427	H	0.896419	-0.289629	-0.861825
H428	H	1.229752	0.043705	-0.528491
H429	H	1.563085	0.377038	-0.195158
H430	H	0.792598	-0.688290	-0.414823
H431	H	1.125932	-0.354956	-0.081490
H432	H	1.459265	-0.021623	0.251844
N433	N	0.781977	-0.596984	-0.425393
N434	N	1.115310	-0.263651	-0.092059
N435	N	1.448643	0.069683	0.241274
H436	H	0.756593	-0.618982	-0.450747
H437	H	1.089926	-0.285649	-0.117414
H438	H	1.423259	0.047684	0.215920
H439	H	0.752982	-0.577554	-0.399852
H440	H	1.086316	-0.244220	-0.066518
H441	H	1.419649	0.089113	0.266815
N442	N	0.988822	-0.156442	-0.936357
N443	N	1.322155	0.176892	-0.603024
N444	N	1.655489	0.510225	-0.269691
H445	H	1.014225	-0.138228	-0.967032
H446	H	1.347558	0.195105	-0.633699
H447	H	1.680892	0.528438	-0.300365
H448	H	0.963341	-0.135663	-0.909187
H449	H	1.296674	0.197671	-0.575854
H450	H	1.630008	0.531004	-0.242521
H451	H	1.018269	-0.743797	-0.189567
H452	H	1.351602	-0.410463	0.143766
H453	H	1.684935	-0.077130	0.477099
N454	N	0.988807	-0.156397	-1.072370
N455	N	1.322140	0.176937	-0.739037
N456	N	1.655473	0.510270	-0.405704
H457	H	1.014211	-0.138201	-1.041734
H458	H	1.347545	0.195133	-0.708401
H459	H	1.680878	0.528466	-0.375067
H460	H	1.017782	-0.174669	-1.099547
H461	H	1.351115	0.158665	-0.766213
H462	H	1.684448	0.491998	-0.432880
N463	N	0.821985	-0.478672	-0.385334
N464	N	1.155318	-0.145339	-0.052001
N465	N	1.488652	0.187994	0.281332
H466	H	0.796578	-0.456706	-0.410680
H467	H	1.129911	-0.123373	-0.077347
H468	H	1.463245	0.209960	0.255986
H469	H	0.847485	-0.498102	-0.414367
H470	H	1.180818	-0.164769	-0.081034
H471	H	1.514152	0.168564	0.252299
N472	N	1.028908	-0.835109	-0.179015
N473	N	1.362242	-0.501775	0.154319
N474	N	1.695575	-0.168442	0.487652
H475	H	1.054300	-0.813117	-0.153657
H476	H	1.387633	-0.479783	0.179677
H477	H	1.720966	-0.146450	0.513010
H478	H	1.003427	-0.854610	-0.149992
H479	H	1.336760	-0.521277	0.183341
H480	H	1.670094	-0.187944	0.516675
N481	N	0.675514	-0.276138	-0.385201
N482	N	1.008847	0.057195	-0.051867
N483	N	1.342180	0.390529	0.281466
H484	H	0.644855	-0.294362	-0.410547
H485	H	0.978188	0.038972	-0.077213
H486	H	1.311522	0.372305	0.256120
H487	H	0.702725	-0.257887	-0.414236
H488	H	1.036058	0.075447	-0.080902
H489	H	1.369392	0.408780	0.252431
H490	H	0.548156	-0.268511	-0.374683
H491	H	0.881489	0.064823	-0.041350
H492	H	1.214822	0.398156	0.291984
H493	H	0.896245	-0.289648	-0.743120
H494	H	1.229579	0.043685	-0.409787
H495	H	1.562912	0.377019	-0.076453
H496	H	0.465156	-0.222836	-0.404551
H497	H	0.798489	0.110498	-0.071217
H498	H	1.131823	0.443831	0.262116
H499	H	0.832544	-0.387340	-0.374745
H500	H	1.165877	-0.054006	-0.041411
H501	H	1.499210	0.279327	0.291922
H502	H	0.792661	-0.829045	-0.414832
H503	H	1.125994	-0.495711	-0.081499
H504	H	1.459327	-0.162378	0.251834
H505	H	0.792626	-0.743938	-0.414820
H506	H	1.125960	-0.410605	-0.081486
H507	H	1.459293	-0.077272	0.251847
