data_functionalizedCrystal
_audit_creation_method	'MofGen! by Chris Wilmer'
_symmetry_space_group_name_H-M	'P1'
_symmetry_Int_Tables_number	1
_symmetry_cell_setting	triclinic
loop_
_symmetry_equiv_pos_as_xyz
  x,y,z
_cell_length_a	15.944493
_cell_length_b	14.519709
_cell_length_c	13.596369
_cell_angle_alpha	90.006934
_cell_angle_beta	89.995239
_cell_angle_gamma	96.422406
loop_
_atom_site_label
_atom_site_type_symbol
_atom_site_fract_x
_atom_site_fract_y
_atom_site_fract_z
O1	O	1.114728	-0.118688	-0.081780
O2	O	1.364728	0.131312	0.168220
O3	O	1.614728	0.381312	0.418220
O4	O	1.864728	0.631312	0.668220
O5	O	0.870193	-0.133409	-0.081786
O6	O	1.120193	0.116591	0.168214
O7	O	1.370193	0.366591	0.418214
O8	O	1.620193	0.616591	0.668214
O9	O	0.998944	0.008203	-0.081774
O10	O	1.248944	0.258203	0.168226
O11	O	1.498944	0.508203	0.418226
O12	O	1.748944	0.758203	0.668226
O13	O	0.985977	-0.260300	-0.081792
O14	O	1.235977	-0.010300	0.168208
O15	O	1.485977	0.239700	0.418208
O16	O	1.735977	0.489700	0.668208
O17	O	0.998931	0.008210	0.081809
O18	O	1.248931	0.258210	0.331809
O19	O	1.498931	0.508210	0.581809
O20	O	1.748931	0.758210	0.831809
O21	O	0.870180	-0.133401	0.081797
O22	O	1.120180	0.116599	0.331797
O23	O	1.370180	0.366599	0.581797
O24	O	1.620180	0.616599	0.831797
O25	O	1.114715	-0.118681	0.081802
O26	O	1.364715	0.131319	0.331802
O27	O	1.614715	0.381319	0.581802
O28	O	1.864715	0.631319	0.831802
Zn29	Zn	0.992445	-0.126040	0.107772
Zn30	Zn	1.242445	0.123960	0.357772
Zn31	Zn	1.492445	0.373960	0.607772
Zn32	Zn	1.742445	0.623960	0.857772
Zn33	Zn	0.992462	-0.126050	-0.107755
Zn34	Zn	1.242462	0.123950	0.142245
Zn35	Zn	1.492462	0.373950	0.392245
Zn36	Zn	1.742462	0.623950	0.642245
O37	O	0.985964	-0.260292	0.081791
O38	O	1.235964	-0.010292	0.331791
O39	O	1.485964	0.239708	0.581791
O40	O	1.735964	0.489708	0.831791
C41	C	0.838891	-0.132803	0.000005
C42	C	1.088891	0.117197	0.250005
C43	C	1.338891	0.367197	0.500005
C44	C	1.588891	0.617197	0.750005
C45	C	0.745639	-0.130999	0.000004
C46	C	0.995639	0.119001	0.250004
C47	C	1.245639	0.369001	0.500004
C48	C	1.495639	0.619001	0.750004
C49	C	0.510000	-0.214355	-0.000003
C50	C	0.760000	0.035645	0.249997
C51	C	1.010000	0.285645	0.499997
C52	C	1.260000	0.535645	0.749997
C53	C	0.459370	-0.169401	0.080660
C54	C	0.709370	0.080599	0.330660
C55	C	0.959370	0.330599	0.580660
C56	C	1.209370	0.580599	0.830660
C57	C	0.574913	-0.127657	0.000006
C58	C	0.824913	0.122343	0.250006
C59	C	1.074913	0.372343	0.500006
C60	C	1.324913	0.622343	0.750006
C61	C	0.459388	-0.169388	-0.080620
C62	C	0.709388	0.080612	0.169380
C63	C	0.959388	0.330612	0.419380
C64	C	1.209388	0.580612	0.669380
C65	C	0.409999	-0.124435	0.000004
C66	C	0.659999	0.125565	0.250004
C67	C	0.909999	0.375565	0.500004
C68	C	1.159999	0.625565	0.750004
C69	C	0.525512	-0.082727	0.080735
C70	C	0.775512	0.167273	0.330735
C71	C	1.025512	0.417273	0.580735
C72	C	1.275512	0.667273	0.830735
C73	C	0.525532	-0.082726	-0.080618
C74	C	0.775532	0.167274	0.169382
C75	C	1.025532	0.417274	0.419382
C76	C	1.275532	0.667274	0.669382
C77	C	0.474935	-0.037708	0.000064
C78	C	0.724935	0.212292	0.250064
C79	C	0.974935	0.462292	0.500064
C80	C	1.224935	0.712292	0.750064
C81	C	0.669916	-0.129516	0.000008
C82	C	0.919916	0.120484	0.250008
C83	C	1.169916	0.370484	0.500008
C84	C	1.419916	0.620484	0.750008
C85	C	0.314999	-0.122570	0.000008
C86	C	0.564999	0.127430	0.250008
C87	C	0.814999	0.377430	0.500008
C88	C	1.064999	0.627430	0.750008
C89	C	0.998333	0.042565	0.000018
C90	C	1.248333	0.292565	0.250018
C91	C	1.498333	0.542565	0.500018
C92	C	1.748333	0.792565	0.750018
C93	C	0.996522	0.144943	0.000018
C94	C	1.246522	0.394943	0.250018
C95	C	1.496522	0.644943	0.500018
C96	C	1.746522	0.894943	0.750018
C97	C	1.146017	-0.119286	0.000009
C98	C	1.396017	0.130714	0.250009
C99	C	1.646017	0.380714	0.500009
C100	C	1.896017	0.630714	0.750009
C101	C	1.239268	-0.121090	0.000005
C102	C	1.489268	0.128910	0.250005
C103	C	1.739268	0.378910	0.500005
C104	C	1.989268	0.628910	0.750005
C105	C	0.986575	-0.294655	-0.000003
C106	C	1.236575	-0.044655	0.249997
C107	C	1.486575	0.205345	0.499997
C108	C	1.736575	0.455345	0.749997
C109	C	0.988385	-0.397032	-0.000010
C110	C	1.238385	-0.147032	0.249990
C111	C	1.488385	0.102968	0.499990
C112	C	1.738385	0.352968	0.749990
N113	N	0.992440	-0.126032	0.254864
N114	N	1.242440	0.123968	0.504864
N115	N	1.492440	0.373968	0.754864
N116	N	1.742440	0.623968	1.004864
C117	C	0.989855	0.519825	-0.000008
C118	C	1.239855	0.769825	0.249992
C119	C	1.489855	1.019825	0.499992
C120	C	1.739855	1.269825	0.749992
C121	C	0.991707	0.415521	-0.000000
C122	C	1.241707	0.665521	0.250000
C123	C	1.491707	0.915521	0.500000
C124	C	1.741707	1.165521	0.750000
C125	C	0.993188	0.332387	0.000006
C126	C	1.243188	0.582387	0.250006
C127	C	1.493188	0.832387	0.500006
C128	C	1.743188	1.082387	0.750006
C129	C	0.995040	0.228077	0.000012
C130	C	1.245040	0.478077	0.250012
C131	C	1.495040	0.728077	0.500012
C132	C	1.745040	0.978077	0.750012
N133	N	0.992474	-0.126050	-0.254847
N134	N	1.242474	0.123950	-0.004847
N135	N	1.492474	0.373950	0.245153
N136	N	1.742474	0.623950	0.495153
C137	C	0.992461	-0.126051	0.656155
C138	C	1.242461	0.123949	0.906155
C139	C	1.492461	0.373949	1.156155
C140	C	1.742461	0.623949	1.406155
C141	C	0.992453	-0.126049	0.544504
C142	C	1.242453	0.123951	0.794504
C143	C	1.492453	0.373951	1.044504
C144	C	1.742453	0.623951	1.294504
C145	C	0.992451	-0.126042	0.455513
C146	C	1.242451	0.123958	0.705513
C147	C	1.492451	0.373958	0.955513
C148	C	1.742451	0.623958	1.205513
C149	C	0.992442	-0.126039	0.343855
C150	C	1.242442	0.123961	0.593855
C151	C	1.492442	0.373961	0.843855
C152	C	1.742442	0.623961	1.093855
H153	H	0.525732	-0.289036	0.000068
H154	H	0.775732	-0.039036	0.250068
H155	H	1.025732	0.210964	0.500068
H156	H	1.275732	0.460964	0.750068
F157	F	0.563112	-0.034895	0.169959
F158	F	0.813112	0.215105	0.419959
F159	F	1.063112	0.465105	0.669959
F160	F	1.313112	0.715105	0.919959
H161	H	0.430481	-0.206012	0.148847
H162	H	0.680481	0.043988	0.398847
H163	H	0.930481	0.293988	0.648847
H164	H	1.180481	0.543988	0.898847
F165	F	0.454572	0.059976	0.000131
F166	F	0.704572	0.309976	0.250131
F167	F	0.954572	0.559976	0.500131
F168	F	1.204572	0.809976	0.750131
F169	F	0.563317	-0.034917	-0.169749
F170	F	0.813317	0.215083	0.080251
F171	F	1.063317	0.465083	0.330251
F172	F	1.313317	0.715083	0.580251
H173	H	0.430508	-0.206022	-0.148804
H174	H	0.680508	0.043978	0.101196
H175	H	0.930508	0.293978	0.351196
H176	H	1.180508	0.543978	0.601196
