data_functionalizedCrystal
_audit_creation_method	'MofGen! by Chris Wilmer'
_symmetry_space_group_name_H-M	'P1'
_symmetry_Int_Tables_number	1
_symmetry_cell_setting	triclinic
loop_
_symmetry_equiv_pos_as_xyz
  x,y,z
_cell_length_a	17.699092
_cell_length_b	19.288862
_cell_length_c	17.766277
_cell_angle_alpha	89.973950
_cell_angle_beta	90.003535
_cell_angle_gamma	96.789174
loop_
_atom_site_label
_atom_site_type_symbol
_atom_site_fract_x
_atom_site_fract_y
_atom_site_fract_z
O1	O	0.094407	-0.921469	0.062882
O2	O	0.107146	-0.719223	0.062819
O3	O	-0.009420	-0.826057	0.062851
O4	O	0.210973	-0.814635	0.062850
O5	O	-0.009424	-0.826038	-0.062338
O6	O	0.107142	-0.719204	-0.062369
O7	O	0.094404	-0.921450	-0.062307
Cu8	Cu	0.100773	-0.820325	-0.073769
Cu9	Cu	0.100777	-0.820348	0.074281
O10	O	0.210970	-0.814616	-0.062338
C11	C	0.106734	-0.693337	0.000217
C12	C	0.105505	-0.616231	0.000193
C13	C	0.173900	-0.571618	0.000203
C14	C	0.172745	-0.499169	0.000207
C15	C	0.103191	-0.471338	0.000217
C16	C	0.034786	-0.515961	0.000203
C17	C	0.035943	-0.588408	0.000191
C18	C	0.048515	-0.363016	0.044096
C19	C	0.047361	-0.290570	0.044112
C20	C	0.099619	-0.247887	0.000251
C21	C	0.153044	-0.277658	-0.043618
C22	C	0.154202	-0.350105	-0.043630
C23	C	0.101928	-0.392782	0.000230
C24	C	0.166767	-0.124716	0.000264
C25	C	0.165609	-0.052267	0.000264
C26	C	0.027648	-0.069060	0.000268
C27	C	0.028808	-0.141508	0.000260
C28	C	0.098369	-0.169331	0.000262
C29	C	-0.037618	-0.825637	0.000257
C30	C	-0.121634	-0.824406	0.000260
C31	C	-0.161099	-0.823840	0.068501
C32	C	-0.240041	-0.822679	0.068502
C33	C	-0.279516	-0.822090	0.000261
C34	C	-0.240046	-0.822654	-0.067985
C35	C	-0.161105	-0.823810	-0.067985
C36	C	-0.558404	-0.817991	-0.067988
C37	C	-0.637351	-0.816838	-0.067983
C38	C	-0.637340	-0.816861	0.068499
C39	C	-0.558399	-0.818017	0.068499
C40	C	-0.518935	-0.818577	0.000254
C41	C	-0.433337	-0.819835	0.000254
C42	C	-0.365113	-0.820837	0.000260
C43	C	0.239168	-0.815036	0.000257
C44	C	0.323184	-0.816266	0.000259
N45	N	0.100770	-0.820314	-0.177899
C46	C	0.094817	0.052664	0.000284
C47	C	0.096054	-0.024440	0.000273
C48	C	0.146560	-0.862357	-0.217266
C49	C	0.146558	-0.862368	-0.296068
C50	C	0.100774	-0.820323	-0.335500
C51	C	0.054974	-0.778278	-0.296123
C52	C	0.054972	-0.778273	-0.217323
C53	C	0.098860	-0.757708	-0.460378
C54	C	0.098868	-0.757711	-0.539177
C55	C	0.100776	-0.820338	-0.578546
C56	C	0.102693	-0.882962	-0.539106
C57	C	0.102691	-0.882957	-0.460306
C58	C	0.100771	-0.820324	-0.420945
C59	C	0.146567	-0.862396	-0.703359
C60	C	0.146560	-0.862408	-0.782162
C61	C	0.054980	-0.778312	-0.782216
C62	C	0.054983	-0.778306	-0.703414
C63	C	0.100781	-0.820347	-0.663990
N64	N	0.100774	-0.820364	0.178412
H65	H	0.221307	-0.015942	0.000268
H66	H	0.104250	-0.933948	-0.428197
O67	O	-0.118534	-0.824428	-0.141587
H68	H	-0.159246	-0.823832	-0.189040
H69	H	-0.669489	-0.816356	-0.123557
O70	O	0.211815	-0.382203	-0.090960
H71	H	0.248035	-0.410885	-0.053989
H72	H	0.195598	-0.242907	-0.079334
O73	O	0.005558	-0.732942	-0.174861
H74	H	0.013238	-0.740012	-0.113443
H75	H	-0.526262	-0.818500	0.124068
H76	H	-0.526284	-0.818462	-0.123558
O77	O	0.248924	-0.601630	0.000183
H78	H	0.296290	-0.558431	0.000179
O79	O	0.195945	-0.907763	-0.824626
H80	H	0.236708	-0.874399	-0.860552
H81	H	0.017700	-0.744079	-0.814321
O82	O	-0.282589	-0.822040	0.142113
H83	H	-0.274353	-0.869585	0.174865
O84	O	0.195960	-0.907741	-0.660834
H85	H	0.188276	-0.900666	-0.599425
O86	O	-0.047371	-0.039046	0.000275
H87	H	-0.080220	-0.056945	-0.050756
O88	O	-0.282615	-0.822016	-0.141593
H89	H	-0.274361	-0.869553	-0.174302
H90	H	-0.026887	-0.177834	0.000257
O91	O	0.246517	-0.451036	0.000226
H92	H	0.295080	-0.482555	0.000230
H93	H	-0.669480	-0.816401	0.124068
O94	O	0.096756	-0.690161	-0.417924
H95	H	0.097051	-0.700680	-0.356504
H96	H	0.003862	-0.266336	0.079836
O97	O	-0.007848	-0.409051	0.091411
H98	H	-0.045182	-0.376179	0.121926
H99	H	0.183850	-0.896593	-0.185172
O100	O	0.195955	-0.907710	-0.338543
H101	H	0.227804	-0.936938	-0.297890
H102	H	0.104251	-0.933958	-0.571158
O103	O	-0.040232	-0.485943	0.000210
H104	H	-0.087600	-0.529141	0.000194
O105	O	-0.037828	-0.636534	0.000185
H106	H	-0.086391	-0.605013	0.000194
O107	O	0.005600	-0.732958	-0.660939
H108	H	0.022225	-0.677416	-0.676082
O109	O	0.241789	-0.154735	0.000251
H110	H	0.289156	-0.111537	0.000244
O111	O	0.096662	-0.690190	-0.581715
H112	H	0.095267	-0.646651	-0.541103
O113	O	0.005594	-0.732924	-0.338646
H114	H	0.013295	-0.739984	-0.400056
O115	O	-0.118521	-0.824470	0.142105
H116	H	-0.159228	-0.823873	0.189556
