data_functionalizedCrystal
_audit_creation_method	'MofGen! by Chris Wilmer'
_symmetry_space_group_name_H-M	'P1'
_symmetry_Int_Tables_number	1
_symmetry_cell_setting	triclinic
loop_
_symmetry_equiv_pos_as_xyz
  x,y,z
_cell_length_a	17.917603
_cell_length_b	23.196402
_cell_length_c	23.196401
_cell_angle_alpha	60.008822
_cell_angle_beta	90.013379
_cell_angle_gamma	57.012000
loop_
_atom_site_label
_atom_site_type_symbol
_atom_site_fract_x
_atom_site_fract_y
_atom_site_fract_z
Zr1	Zr	0.754912	0.577925	-0.049090
O2	O	0.629761	0.706991	-0.145536
O3	O	0.793274	0.454963	-0.019528
O4	O	0.793240	0.575232	-0.139794
O5	O	0.629826	0.586717	0.069603
O6	O	0.922198	0.566166	-0.135261
O7	O	0.629796	0.586721	-0.025269
O8	O	0.922260	0.351026	0.079874
O9	O	0.629765	0.801858	-0.145532
O10	O	0.905879	0.496513	-0.003532
O11	O	0.809662	0.503276	0.063887
O12	O	0.809621	0.644878	-0.077711
O13	O	0.713404	0.651641	-0.010292
Zr14	Zr	0.960635	0.563460	0.109451
Zr15	Zr	0.960586	0.563466	-0.041860
Zr16	Zr	0.754961	0.577919	0.102221
Zr17	Zr	0.754918	0.729227	-0.049083
Zr18	Zr	0.960629	0.412158	0.109444
O19	O	0.922272	0.686422	0.079889
O20	O	0.922202	0.686431	-0.135256
O21	O	0.629831	0.706982	0.069608
O22	O	1.085786	0.434394	0.205897
O23	O	1.085716	0.434403	-0.009248
O24	O	0.793344	0.454954	0.195616
O25	O	1.085720	0.554668	-0.009242
O26	O	0.922307	0.566153	0.200155
O27	O	0.793349	0.575219	0.195622
O28	O	1.085751	0.554664	0.085630
O29	O	0.793248	0.790364	-0.139785
O30	O	0.922299	0.351021	0.200145
O31	O	1.085782	0.339527	0.205892
O32	O	1.085743	0.339532	0.085621
O33	O	0.629804	0.801853	-0.025260
O34	O	0.793287	0.790359	-0.019513
O35	O	0.905925	0.496507	0.138072
O36	O	1.002142	0.489744	0.070653
O37	O	0.905885	0.638109	-0.003526
O38	O	0.809667	0.644872	0.063893
C39	C	0.857766	0.381437	0.030172
C40	C	0.857764	0.317205	0.030169
C41	C	0.907982	0.283505	-0.005026
C42	C	0.907991	0.223143	-0.005020
C43	C	0.857764	0.196497	0.030171
C44	C	0.807544	0.230201	0.065374
C45	C	0.807544	0.290555	0.065373
C46	C	0.773615	0.140384	0.021938
C47	C	0.773612	0.080034	0.021934
C48	C	0.857765	0.010342	0.030178
C49	C	0.941920	0.001014	0.038412
C50	C	0.941920	0.061368	0.038411
C51	C	0.857758	0.131053	0.030176
C52	C	0.907997	-0.088811	-0.005012
C53	C	0.908009	-0.149177	-0.005001
C54	C	0.807553	-0.142111	0.065388
C55	C	0.807550	-0.081752	0.065382
C56	C	0.857770	-0.055103	0.030178
C57	C	0.600507	0.588779	0.021137
C58	C	0.513193	0.594918	0.018067
C59	C	0.353347	0.606131	0.012462
C60	C	0.362192	0.535258	0.047897
C61	C	0.273249	0.541497	0.044778
C62	C	0.442297	0.599894	0.015580
C63	C	1.115040	0.552606	0.039224
C64	C	1.202354	0.546467	0.042293
C65	C	0.857712	0.570700	-0.159086
C66	C	0.857691	0.570702	-0.223322
C67	C	0.857780	0.759948	0.030189
C68	C	0.857783	0.824180	0.030192
C69	C	0.807450	0.648145	-0.292215
C70	C	0.807474	0.648144	-0.352570
C71	C	0.857727	0.570698	-0.344027
C72	C	0.907979	0.493245	-0.275120
C73	C	0.907961	0.493247	-0.214768
C74	C	0.850588	0.514572	-0.411597
C75	C	0.850599	0.514573	-0.471950
C76	C	0.857787	0.570687	-0.530172
C77	C	0.864945	0.626815	-0.528041
C78	C	0.864927	0.626818	-0.467688
C79	C	0.857752	0.570687	-0.409464
C80	C	0.807570	0.648134	-0.664512
C81	C	0.807602	0.648130	-0.724865
C82	C	0.908099	0.493229	-0.647414
C83	C	0.908075	0.493235	-0.587062
C84	C	0.857805	0.570690	-0.595616
C85	C	0.857835	0.570685	0.219447
C86	C	0.857856	0.570683	0.283682
C87	C	1.115033	0.363350	0.039216
C88	C	1.202344	0.292980	0.042282
C89	C	0.857828	0.381429	0.219439
C90	C	0.857846	0.317195	0.283671
C91	C	1.115094	0.363343	0.228482
C92	C	1.202426	0.292970	0.295784
C93	C	0.600452	0.778042	-0.168122
C94	C	0.513120	0.848415	-0.235423
C95	C	0.600514	0.778035	0.021145
C96	C	0.513203	0.848405	0.018079
C97	C	0.857719	0.759956	-0.159078
C98	C	0.857700	0.824190	-0.223310
C99	C	1.193098	0.263466	0.004992
C100	C	1.275129	0.197355	0.007859
C101	C	1.366404	0.160754	0.048020
C102	C	1.375648	0.190273	0.085312
C103	C	1.293619	0.256388	0.082440
C104	C	0.908103	0.283497	0.352566
C105	C	0.908117	0.223151	0.412925
C106	C	0.857879	0.196500	0.404387
C107	C	0.807616	0.230204	0.335486
C108	C	0.807597	0.290554	0.275128
C109	C	1.293672	0.256391	0.292198
C110	C	1.375738	0.190276	0.355430
C111	C	1.366556	0.160737	0.422247
C112	C	1.275301	0.197323	0.425831
C113	C	1.193238	0.263440	0.362600
C114	C	0.421875	0.885001	-0.231837
C115	C	0.339809	0.951135	-0.295069
C116	C	0.348990	0.980677	-0.361886
C117	C	0.440245	0.944088	-0.365470
C118	C	0.522309	0.877959	-0.302239
C119	C	0.522449	0.877925	0.055363
C120	C	0.440418	0.944053	0.052479
C121	C	0.349142	0.980656	0.012315
C122	C	0.339898	0.951134	-0.024973
C123	C	0.421928	0.885011	-0.022094
C124	C	0.907948	0.850821	-0.214750
C125	C	0.907950	0.911166	-0.275097
C126	C	0.857697	0.944884	-0.344003
C127	C	0.807447	0.918247	-0.352562
C128	C	0.807452	0.857898	-0.292216
H129	H	1.010442	0.053768	0.045117
H130	H	0.414381	0.860953	-0.177437
C131	C	0.462655	0.446959	0.092039
H132	H	0.510117	0.454296	0.088364
H133	H	0.469935	0.416047	0.140927
H134	H	0.469898	0.416065	0.074041
C135	C	0.252889	0.694423	-0.031689
H136	H	0.205431	0.687081	-0.028024
H137	H	0.245626	0.725336	-0.013712
H138	H	0.245622	0.725319	-0.080580
C139	C	0.752164	0.733341	-0.301625
H140	H	0.722252	0.779463	-0.351303
H141	H	0.704619	0.739758	-0.281303
H142	H	0.795526	0.733367	-0.278081
H143	H	0.948876	0.305199	-0.033689
C144	C	0.963383	0.408036	-0.638006
H145	H	0.993307	0.361913	-0.588328
H146	H	0.920035	0.408006	-0.661553
H147	H	1.010935	0.401624	-0.658326
H148	H	0.766560	0.711209	-0.408673
C149	C	1.264943	0.164887	-0.033155
H150	H	1.198833	0.196146	-0.057472
H151	H	1.294832	0.172681	-0.067087
H152	H	1.294868	0.105800	-0.000201
H153	H	0.948982	0.430173	-0.530965
H154	H	0.857700	0.994024	-0.393135
C155	C	1.456829	0.088011	0.491797
H156	H	1.438299	0.075657	0.532108
H157	H	1.493944	0.038317	0.493099
H158	H	1.493931	0.105201	0.493094
C159	C	0.872814	0.688544	-0.465339
H160	H	0.877105	0.721961	-0.508652
H161	H	0.817629	0.725171	-0.460116
H162	H	0.928593	0.656572	-0.425800
H163	H	0.265514	0.980915	-0.292136
C164	C	0.752273	-0.044647	0.104067
H165	H	0.759464	-0.004884	0.099024
H166	H	0.686181	-0.016459	0.083479
H167	H	0.777082	-0.089707	0.153567
H168	H	0.705087	0.087639	0.015226
C169	C	0.963364	0.312808	0.361967
H170	H	0.956168	0.353573	0.316157
H171	H	0.938558	0.338099	0.386169
H172	H	1.029467	0.264830	0.389369
C173	C	0.842767	0.452811	-0.474279
H174	H	0.838513	0.419373	-0.430952
H175	H	0.787006	0.484741	-0.513808
H176	H	0.897976	0.416193	-0.479494
C177	C	0.258918	1.053387	0.009156
H178	H	0.277506	1.065715	0.037120
H179	H	0.221786	1.103091	-0.039231
H180	H	0.221810	1.036212	0.027646
C181	C	0.857907	0.130113	0.470783
H182	H	0.820786	0.119066	0.455836
H183	H	0.921922	0.078529	0.500334
H184	H	0.831016	0.151798	0.497136
H185	H	0.766533	0.945709	-0.408674
C186	C	0.963217	0.940466	-0.265674
H187	H	0.956032	0.981229	-0.311479
H188	H	0.938407	0.965755	-0.241470
H189	H	1.029317	0.892483	-0.238266
H190	H	0.447964	0.968079	0.082847
H191	H	0.265571	0.980946	-0.057674
H192	H	0.870793	0.672512	-0.575448
C193	C	0.752292	0.200896	0.104080
H194	H	0.759475	0.160131	0.099034
H195	H	0.777114	0.175606	0.153574
H196	H	0.686191	0.248875	0.083501
H197	H	1.118945	0.293215	0.365530
H198	H	0.766713	0.208496	0.328545
H199	H	0.766530	0.836222	-0.299196
H200	H	1.450034	0.160495	0.352498
C201	C	1.456628	0.088023	0.051180
H202	H	1.438040	0.075686	0.023224
H203	H	1.493745	0.105185	0.032699
H204	H	1.493751	0.038316	0.099572
H205	H	1.449976	0.160463	0.118010
H206	H	0.948870	0.823377	-0.158649
C207	C	0.963226	0.186071	-0.043741
H208	H	0.993129	0.210590	-0.064710
H209	H	1.010775	0.125749	-0.010175
H210	H	0.919838	0.199020	-0.080238
C211	C	0.411746	0.852537	-0.063099
H212	H	0.345635	0.883804	-0.087422
H213	H	0.441645	0.860317	-0.097025
H214	H	0.441658	0.793453	-0.030141
C215	C	1.303796	0.288848	0.123462
H216	H	1.241875	0.333470	0.116000
H217	H	1.337907	0.243117	0.173279
H218	H	1.337879	0.309998	0.106401
C219	C	1.034496	-0.075648	0.047491
H220	H	1.022451	-0.110266	0.046323
H221	H	1.054909	-0.055392	0.009570
H222	H	1.083239	-0.108595	0.092191
H223	H	1.267840	0.173262	0.480242
C224	C	0.622841	0.837672	0.099546
H225	H	0.616585	0.864737	0.121329
H226	H	0.656942	0.778297	0.135719
H227	H	0.656924	0.845170	0.068841
H228	H	0.282161	1.034523	-0.413367
C229	C	0.963419	0.186079	0.488708
H230	H	0.993347	0.210586	0.485142
H231	H	0.920076	0.199021	0.512271
H232	H	1.010968	0.125753	0.515458
H233	H	0.844728	0.468877	-0.364195
C234	C	0.752296	0.733328	-0.673915
H235	H	0.722391	0.779451	-0.723592
H236	H	0.704746	0.739753	-0.653596
H237	H	0.795663	0.733344	-0.650365
C238	C	0.963242	-0.059497	-0.043726
H239	H	0.956039	-0.018716	-0.038695
H240	H	1.029340	-0.107468	-0.023153
H241	H	0.938413	-0.034207	-0.093223
C242	C	0.450332	0.976584	-0.438971
H243	H	0.388385	1.021199	-0.476110
H244	H	0.484419	0.997734	-0.443080
H245	H	0.484403	0.930861	-0.443074
H246	H	0.948895	0.430187	-0.268168
C247	C	0.752318	0.327610	0.199348
H248	H	0.722411	0.303084	0.202915
H249	H	0.704769	0.387932	0.172588
H250	H	0.795678	0.314657	0.175794
H251	H	0.596603	0.848171	-0.305168
C252	C	0.963250	-0.186247	-0.043718
H253	H	0.993149	-0.161723	-0.064689
H254	H	1.010803	-0.246568	-0.010151
H255	H	0.919868	-0.173303	-0.080215
C256	C	0.752304	-0.171415	0.104098
H257	H	0.759491	-0.212183	0.099055
H258	H	0.777125	-0.196701	0.153591
H259	H	0.686202	-0.123437	0.083518
C260	C	0.681040	0.217044	0.012867
H261	H	0.630919	0.213963	0.007952
H262	H	0.691709	0.215626	0.053831
H263	H	0.663372	0.268840	-0.028791
H264	H	0.766648	0.317995	0.094033
H265	H	0.766693	0.711195	-0.780963
H266	H	0.948874	0.430182	-0.158670
C267	C	1.092704	0.303721	-0.039190
H268	H	1.045164	0.347321	-0.035561
H269	H	1.085494	0.327776	-0.088065
H270	H	1.085513	0.260896	-0.021193
C271	C	1.303790	0.288874	0.218708
H272	H	1.369891	0.257619	0.225638
H273	H	1.273873	0.281084	0.192572
H274	H	1.273866	0.347961	0.192580
