data_functionalizedCrystal
_audit_creation_method	'MofGen! by Chris Wilmer'
_symmetry_space_group_name_H-M	'P1'
_symmetry_Int_Tables_number	1
_symmetry_cell_setting	triclinic
loop_
_symmetry_equiv_pos_as_xyz
  x,y,z
_cell_length_a	19.805405
_cell_length_b	21.395362
_cell_length_c	21.395356
_cell_angle_alpha	90.047076
_cell_angle_beta	89.970920
_cell_angle_gamma	89.955329
loop_
_atom_site_label
_atom_site_type_symbol
_atom_site_fract_x
_atom_site_fract_y
_atom_site_fract_z
Zn1	Zn	-0.269150	-0.957872	-0.354648
Zn2	Zn	-0.382338	-0.957784	-0.249868
Zn3	Zn	-0.269205	-0.853089	-0.249842
Zn4	Zn	-0.382339	-0.853064	-0.354565
O5	O	-0.325758	-0.905453	-0.302231
O6	O	-0.284142	-1.045539	-0.340794
O7	O	-0.367353	-0.943870	-0.162187
O8	O	-0.174481	-0.867036	-0.263768
O9	O	-0.367301	-1.045474	-0.263813
O10	O	-0.174441	-0.944020	-0.340769
O11	O	-0.284235	-0.866951	-0.162167
O12	O	-0.284235	-0.765408	-0.263688
O13	O	-0.367302	-0.866994	-0.442254
O14	O	-0.367354	-0.765390	-0.340628
O15	O	-0.284143	-0.943996	-0.442315
O16	O	-0.477055	-0.943846	-0.263733
O17	O	-0.477055	-0.866909	-0.340653
C18	C	-0.325801	-0.742665	-0.302146
C19	C	-0.325836	-0.673024	-0.302125
C20	C	-0.501614	-0.905382	-0.302200
C21	C	-0.576846	-0.905409	-0.302208
C22	C	-0.369175	-0.640317	-0.342126
C23	C	-0.369161	-0.574882	-0.342149
C24	C	-0.325816	-0.542155	-0.302161
C25	C	-0.282468	-0.574869	-0.262158
C26	C	-0.282478	-0.640303	-0.262140
C27	C	-0.320377	-0.438431	-0.245748
C28	C	-0.320372	-0.372998	-0.245765
C29	C	-0.325781	-0.340335	-0.302215
C30	C	-0.331209	-0.373112	-0.358651
C31	C	-0.331219	-0.438546	-0.358633
C32	C	-0.325800	-0.471203	-0.302175
C33	C	-0.369107	-0.236676	-0.342244
C34	C	-0.369089	-0.171239	-0.342268
C35	C	-0.282399	-0.171228	-0.262272
C36	C	-0.282414	-0.236663	-0.262253
C37	C	-0.325772	-0.269383	-0.302238
C38	C	-0.612168	-0.945509	-0.262198
C39	C	-0.682856	-0.945536	-0.262212
C40	C	-0.718222	-0.905459	-0.302234
C41	C	-0.682895	-0.865357	-0.342249
C42	C	-0.612208	-0.865334	-0.342237
C43	C	-0.967968	-0.865449	-0.342295
C44	C	-1.038660	-0.865474	-0.342302
C45	C	-1.038616	-0.945651	-0.262269
C46	C	-0.967929	-0.945628	-0.262258
C47	C	-0.932609	-0.905529	-0.302275
C48	C	-0.855961	-0.905502	-0.302261
C49	C	-0.794869	-0.905483	-0.302245
C50	C	-0.149215	-0.905540	-0.302275
C51	C	-0.073983	-0.905578	-0.302294
C52	C	-0.325716	-0.905502	-0.465654
C53	C	-0.325698	-0.905523	-0.535295
C54	C	-0.325727	-0.068876	-0.302298
C55	C	-0.325742	-0.138517	-0.302281
C56	C	-0.282413	-0.865482	-0.567989
C57	C	-0.282401	-0.865480	-0.633424
C58	C	-0.325666	-0.905530	-0.666164
C59	C	-0.368959	-0.945574	-0.633463
C60	C	-0.368975	-0.945570	-0.568029
C61	C	-0.330968	-0.961982	-0.769873
C62	C	-0.330947	-0.961987	-0.835306
C63	C	-0.325620	-0.905540	-0.867985
C64	C	-0.320300	-0.849087	-0.835222
C65	C	-0.320316	-0.849084	-0.769788
C66	C	-0.325654	-0.905538	-0.737116
C67	C	-0.282320	-0.865493	-0.971631
C68	C	-0.282312	-0.865490	-1.037067
C69	C	-0.368867	-0.945590	-1.037105
C70	C	-0.368878	-0.945587	-0.971669
C71	C	-0.325601	-0.905540	-0.938936
C72	C	-0.325751	-0.905439	-0.139443
C73	C	-0.325578	-0.905540	-0.069802
H74	H	-0.404453	-0.548247	-0.374724
O75	O	-0.411223	-0.139396	-0.381040
C76	C	-0.502629	-0.065474	-0.389326
C77	C	-0.454944	-0.101487	-0.345347
H78	H	-0.538000	-0.034826	-0.360485
H79	H	-0.471635	-0.034862	-0.422141
H80	H	-0.533588	-0.100113	-0.417913
H81	H	-0.423976	-0.066893	-0.316719
H82	H	-0.485978	-0.132109	-0.312573
O83	O	-0.240373	-0.139348	-0.223431
C84	C	-0.201944	-0.038538	-0.187998
C85	C	-0.249577	-0.074567	-0.232015
H86	H	-0.209359	0.013843	-0.194932
H87	H	-0.213785	-0.051302	-0.137446
H88	H	-0.147384	-0.051490	-0.199061
H89	H	-0.304153	-0.061635	-0.221008
H90	H	-0.237679	-0.061800	-0.282553
O91	O	-0.240475	-0.826544	-0.536126
C92	C	-0.231412	-0.741920	-0.462223
C93	C	-0.278980	-0.785989	-0.498258
H94	H	-0.262525	-0.709112	-0.431609
H95	H	-0.196029	-0.770664	-0.431576
H96	H	-0.200459	-0.713330	-0.496849
H97	H	-0.309976	-0.814589	-0.463678
H98	H	-0.314318	-0.757210	-0.528915
O99	O	-1.072911	-0.826524	-0.381244
C100	C	-1.065500	-0.746975	-0.460609
C101	C	-1.026627	-0.791060	-0.416553
H102	H	-1.028096	-0.718282	-0.489159
H103	H	-1.098518	-0.775710	-0.493450
H104	H	-1.098672	-0.714264	-0.431796
H105	H	-0.993418	-0.823780	-0.445316
H106	H	-0.993652	-0.762287	-0.383711
O107	O	-0.240269	-0.543108	-0.223378
C108	C	-0.125093	-0.523174	-0.193137
C109	C	-0.172810	-0.559171	-0.237102
H110	H	-0.070543	-0.536157	-0.204208
H111	H	-0.132475	-0.470781	-0.200023
H112	H	-0.136944	-0.535968	-0.142596
H113	H	-0.160988	-0.546429	-0.287660
H114	H	-0.165419	-0.611555	-0.230163
O115	O	-0.336149	-1.016875	-0.867032
C116	C	-0.346682	-1.128858	-0.860208
C117	C	-0.340810	-1.066739	-0.824203
H118	H	-0.350438	-1.169190	-0.825597
H119	H	-0.393774	-1.127903	-0.890814
H120	H	-0.300129	-1.135468	-0.890875
H121	H	-0.387328	-1.060090	-0.793502
H122	H	-0.293690	-1.067723	-0.793637
O123	O	-0.240286	-0.826564	-0.665095
C124	C	-0.154456	-0.747100	-0.658157
C125	C	-0.202106	-0.791149	-0.622215
H126	H	-0.123585	-0.718446	-0.623505
H127	H	-0.119009	-0.775862	-0.688804
H128	H	-0.185540	-0.714351	-0.688777
H129	H	-0.171077	-0.823907	-0.591561
H130	H	-0.237555	-0.762349	-0.591608
H131	H	-0.583377	-0.978142	-0.229605
O132	O	-0.336482	-0.341489	-0.413547
C133	C	-0.347157	-0.348511	-0.525519
C134	C	-0.341211	-0.384406	-0.463396
H135	H	-0.350968	-0.383194	-0.565840
H136	H	-0.394244	-0.317843	-0.524533
H137	H	-0.300609	-0.317917	-0.532176
H138	H	-0.387724	-0.415034	-0.456701
H139	H	-0.294096	-0.415035	-0.464411
H140	H	-0.939137	-0.978261	-0.229667
O141	O	-0.240297	-0.268341	-0.223332
C142	C	-0.154284	-0.261422	-0.144018
C143	C	-0.201962	-0.225470	-0.188053
H144	H	-0.123268	-0.226777	-0.115492
H145	H	-0.185284	-0.291977	-0.111154
H146	H	-0.118968	-0.292135	-0.172846
H147	H	-0.237288	-0.194723	-0.159275
H148	H	-0.170920	-0.194955	-0.220919
H149	H	-0.335637	-0.465231	-0.404585
H150	H	-1.067382	-0.978305	-0.229688
H151	H	-0.315958	-0.803123	-0.861828
H152	H	-0.315986	-0.803118	-0.743115
O153	O	-0.410952	-0.984567	-0.665194
C154	C	-0.443749	-1.091132	-0.685314
C155	C	-0.396156	-1.047043	-0.649330
H156	H	-0.431793	-1.141653	-0.672511
H157	H	-0.498344	-1.080152	-0.672415
H158	H	-0.436313	-1.084226	-0.737695
H159	H	-0.403531	-1.053924	-0.596941
H160	H	-0.341578	-1.058034	-0.662281
H161	H	-0.939216	-0.832798	-0.374877
O162	O	-0.717352	-0.826445	-0.381067
C163	C	-0.826266	-0.790968	-0.416579
C164	C	-0.787331	-0.835059	-0.372576
H165	H	-0.882851	-0.797927	-0.409739
H166	H	-0.812486	-0.740434	-0.405506
H167	H	-0.812278	-0.801934	-0.467107
H168	H	-0.801298	-0.824150	-0.322034
H169	H	-0.801114	-0.885580	-0.383703
O170	O	-0.411116	-0.984440	-0.536336
C171	C	-0.526247	-1.014769	-0.516273
C172	C	-0.478601	-0.970719	-0.552216
H173	H	-0.580819	-1.003682	-0.529089
H174	H	-0.514402	-1.065307	-0.529194
H175	H	-0.518789	-1.007899	-0.463886
H176	H	-0.486032	-0.977533	-0.604612
H177	H	-0.490457	-0.920197	-0.539243
O178	O	-0.577999	-0.826323	-0.381125
C179	C	-0.585499	-0.746832	-0.460546
C180	C	-0.624323	-0.790966	-0.416521
H181	H	-0.622934	-0.718244	-0.489184
H182	H	-0.552480	-0.714031	-0.431767
H183	H	-0.552331	-0.775587	-0.493311
H184	H	-0.657527	-0.762262	-0.383746
H185	H	-0.657298	-0.823769	-0.445338
H186	H	-0.315956	-0.346316	-0.199811
O187	O	-0.240363	-0.826497	-0.939855
C188	C	-0.207524	-0.719935	-0.919784
C189	C	-0.255089	-0.764027	-0.955795
H190	H	-0.219403	-0.669419	-0.932668
H191	H	-0.214971	-0.726760	-0.867393
H192	H	-0.152943	-0.730993	-0.932665
H193	H	-0.309688	-0.752996	-0.942967
H194	H	-0.247583	-0.757194	-1.008177
O195	O	-0.411214	-0.672071	-0.381061
C196	C	-0.444253	-0.692140	-0.487578
C197	C	-0.396592	-0.656152	-0.443553
H198	H	-0.432457	-0.679273	-0.538111
H199	H	-0.436816	-0.744535	-0.480753
H200	H	-0.498808	-0.679222	-0.476453
H201	H	-0.342019	-0.669017	-0.454651
H202	H	-0.404087	-0.603766	-0.450386
O203	O	-0.717146	-0.984639	-0.223480
C204	C	-0.796719	-1.069387	-0.215329
C205	C	-0.757950	-1.025093	-0.259235
H206	H	-0.829730	-1.102096	-0.244219
H207	H	-0.759272	-1.098065	-0.186793
H208	H	-0.829894	-1.040754	-0.182463
H209	H	-0.724775	-1.053677	-0.292138
H210	H	-0.795434	-0.996412	-0.287727
H211	H	-0.335300	-1.007952	-0.743272
O212	O	-0.240453	-0.672049	-0.223189
C213	C	-0.207424	-0.691953	-0.116662
C214	C	-0.255069	-0.655972	-0.160704
H215	H	-0.219214	-0.678957	-0.066135
H216	H	-0.214883	-0.744349	-0.123462
H217	H	-0.152864	-0.679158	-0.127793
H218	H	-0.309647	-0.668715	-0.149601
H219	H	-0.247551	-0.603585	-0.153896
O220	O	-0.240236	-0.826675	-1.068900
C221	C	-0.148823	-0.818292	-1.142779
C222	C	-0.196438	-0.862322	-1.106776
H223	H	-0.113391	-0.847095	-1.173400
H224	H	-0.179869	-0.785527	-1.173417
H225	H	-0.117927	-0.789653	-1.108133
H226	H	-0.227344	-0.891001	-1.141377
H227	H	-0.165354	-0.895046	-1.076129
H228	H	-0.404093	-0.978201	-1.063761
H229	H	-0.404408	-0.263318	-0.374806
H230	H	-0.315970	-0.465020	-0.199776
O231	O	-0.410940	-0.984549	-0.940004
C232	C	-0.496814	-1.063972	-0.946949
C233	C	-0.449198	-1.019889	-0.982886
H234	H	-0.527767	-1.092546	-0.981603
H235	H	-0.465768	-1.096789	-0.916366
H236	H	-0.532191	-1.035178	-0.916264
H237	H	-0.413811	-1.048632	-1.013605
H238	H	-0.480286	-0.987071	-1.013430
