data_functionalizedCrystal
_audit_creation_method	'MofGen! by Chris Wilmer'
_symmetry_space_group_name_H-M	'P1'
_symmetry_Int_Tables_number	1
_symmetry_cell_setting	triclinic
loop_
_symmetry_equiv_pos_as_xyz
  x,y,z
_cell_length_a	8.634740
_cell_length_b	8.597304
_cell_length_c	9.130313
_cell_angle_alpha	82.295602
_cell_angle_beta	89.997160
_cell_angle_gamma	92.879790
loop_
_atom_site_label
_atom_site_type_symbol
_atom_site_fract_x
_atom_site_fract_y
_atom_site_fract_z
O1	O	2.053792	0.512867	-0.186503
O2	O	2.553792	1.012867	0.313497
O3	O	1.604192	0.469861	-0.181080
O4	O	2.104192	0.969861	0.318920
O5	O	1.837840	0.264234	-0.155127
O6	O	2.337840	0.764234	0.344873
O7	O	1.820144	0.718493	-0.212457
O8	O	2.320144	1.218493	0.287543
O9	O	1.837823	0.264225	0.088473
O10	O	2.337823	0.764225	0.588473
O11	O	1.604175	0.469851	0.062520
O12	O	2.104175	0.969851	0.562520
O13	O	2.053776	0.512857	0.057097
O14	O	2.553776	1.012857	0.557097
Cu15	Cu	1.828974	0.491354	0.082051
Cu16	Cu	2.328974	0.991354	0.582051
Cu17	Cu	1.828993	0.491365	-0.206034
Cu18	Cu	2.328993	0.991365	0.293966
O19	O	1.820128	0.718484	0.031143
O20	O	2.320128	1.218484	0.531143
C21	C	1.546587	0.460114	-0.058052
C22	C	2.046587	0.960114	0.441948
C23	C	1.374965	0.431065	-0.054388
C24	C	1.874965	0.931065	0.445612
C25	C	1.835931	0.205471	-0.025914
C26	C	2.335931	0.705471	0.474086
C27	C	1.830249	0.030384	-0.003827
C28	C	2.330249	0.530384	0.496173
C29	C	2.111381	0.522605	-0.065935
C30	C	2.611381	1.022605	0.434065
C31	C	2.283002	0.551653	-0.069608
C32	C	2.783002	1.051653	0.430392
C33	C	1.822037	0.777248	-0.098073
C34	C	2.322037	1.277248	0.401927
C35	C	1.827719	0.952334	-0.120170
C36	C	2.327719	1.452334	0.379830
N37	N	1.828972	0.491346	0.284674
N38	N	2.328972	0.991346	0.784674
N39	N	1.829008	0.491361	-0.408657
N40	N	2.329008	0.991361	0.091343
C41	C	1.932467	0.400345	0.372812
C42	C	2.432467	0.900345	0.872812
C43	C	1.932482	0.400348	0.526149
C44	C	2.432482	0.900348	1.026149
C45	C	1.725502	0.582366	0.503194
C46	C	2.225502	1.082366	1.003194
C47	C	1.725481	0.582354	0.349862
C48	C	2.225481	1.082354	0.849862
H49	H	1.335572	0.677124	-0.085434
H50	H	1.835572	1.177124	0.414566
H51	H	2.016755	0.326244	0.597908
H52	H	2.516755	0.826244	1.097908
H53	H	1.828049	-0.036748	0.112694
H54	H	2.328049	0.463252	0.612694
H55	H	1.829896	0.019458	-0.236683
H56	H	2.329896	0.519458	0.263317
Cl57	Cl	2.062564	0.285929	0.290869
Cl58	Cl	2.562564	0.785929	0.790869
Cl59	Cl	1.293819	0.237353	-0.029931
Cl60	Cl	1.793819	0.737353	0.470069
Cl61	Cl	1.595410	0.696777	0.585151
Cl62	Cl	2.095410	1.196777	1.085151
Cl63	Cl	1.595355	0.696756	0.239050
Cl64	Cl	2.095355	1.196756	0.739050
