data_functionalizedCrystal
_audit_creation_method	'MofGen! by Chris Wilmer'
_symmetry_space_group_name_H-M	'P1'
_symmetry_Int_Tables_number	1
_symmetry_cell_setting	triclinic
loop_
_symmetry_equiv_pos_as_xyz
  x,y,z
_cell_length_a	21.295417
_cell_length_b	16.959455
_cell_length_c	16.959447
_cell_angle_alpha	89.977004
_cell_angle_beta	89.964725
_cell_angle_gamma	90.027526
loop_
_atom_site_label
_atom_site_type_symbol
_atom_site_fract_x
_atom_site_fract_y
_atom_site_fract_z
Zn1	Zn	-0.250646	1.208347	-0.447010
Zn2	Zn	0.082687	1.541680	-0.113676
Zn3	Zn	0.416020	1.875014	0.219657
Zn4	Zn	-0.355923	1.208239	-0.314820
Zn5	Zn	-0.022590	1.541573	0.018514
Zn6	Zn	0.310744	1.874906	0.351847
Zn7	Zn	-0.250666	1.076169	-0.314833
Zn8	Zn	0.082667	1.409503	0.018500
Zn9	Zn	0.416000	1.742836	0.351834
Zn10	Zn	-0.355876	1.076116	-0.446944
Zn11	Zn	-0.022543	1.409449	-0.113611
Zn12	Zn	0.310791	1.742783	0.219722
O13	O	-0.303278	1.142218	-0.380902
O14	O	0.030055	1.475551	-0.047568
O15	O	0.363389	1.808885	0.285765
O16	O	-0.264623	1.318944	-0.429496
O17	O	0.068711	1.652277	-0.096163
O18	O	0.402044	1.985610	0.237171
O19	O	-0.341989	1.190697	-0.204211
O20	O	-0.008655	1.524031	0.129123
O21	O	0.324678	1.857364	0.462456
O22	O	-0.162574	1.093770	-0.332399
O23	O	0.170759	1.427104	0.000934
O24	O	0.504092	1.760437	0.334267
O25	O	-0.341969	1.318864	-0.332377
O26	O	-0.008636	1.652198	0.000957
O27	O	0.324697	1.985531	0.334290
O28	O	-0.162560	1.190881	-0.429509
O29	O	0.170774	1.524214	-0.096176
O30	O	0.504107	1.857547	0.237158
O31	O	-0.264657	1.093666	-0.204220
O32	O	0.068676	1.426999	0.129113
O33	O	0.402010	1.760333	0.462446
O34	O	-0.264611	0.965551	-0.332336
O35	O	0.068722	1.298885	0.000997
O36	O	0.402055	1.632218	0.334330
O37	O	-0.341889	1.093679	-0.557564
O38	O	-0.008556	1.427013	-0.224231
O39	O	0.324778	1.760346	0.109103
O40	O	-0.341908	0.965512	-0.429398
O41	O	-0.008575	1.298846	-0.096065
O42	O	0.324758	1.632179	0.237269
O43	O	-0.264577	1.190829	-0.557612
O44	O	0.068756	1.524162	-0.224279
O45	O	0.402090	1.857496	0.109055
O46	O	-0.444006	1.190646	-0.332313
O47	O	-0.110673	1.523979	0.001020
O48	O	0.222660	1.857312	0.334353
O49	O	-0.443972	1.093575	-0.429385
O50	O	-0.110638	1.426908	-0.096052
O51	O	0.222695	1.760242	0.237282
C52	C	-0.303257	0.936852	-0.380862
C53	C	0.030076	1.270185	-0.047529
C54	C	0.363409	1.603518	0.285805
C55	C	-0.303264	0.848995	-0.380864
C56	C	0.030070	1.182328	-0.047530
C57	C	0.363403	1.515662	0.285803
C58	C	-0.343512	0.477468	-0.330306
C59	C	-0.010179	0.810801	0.003027
C60	C	0.323154	1.144134	0.336361
C61	C	-0.263096	0.477571	-0.431594
C62	C	0.070237	0.810905	-0.098260
C63	C	0.403571	1.144238	0.235073
C64	C	-0.263085	0.560117	-0.431574
C65	C	0.070248	0.893450	-0.098241
C66	C	0.403581	1.226784	0.235092
C67	C	-0.303290	0.601342	-0.380921
C68	C	0.030044	0.934675	-0.047588
C69	C	0.363377	1.268009	0.285746
C70	C	-0.343505	0.560021	-0.330287
C71	C	-0.010171	0.893355	0.003047
C72	C	0.323162	1.226688	0.336380
C73	C	-0.222876	0.601444	-0.482213
C74	C	0.110457	0.934778	-0.148880
C75	C	0.443791	1.268111	0.184453
C76	C	-0.222864	0.683995	-0.482197
C77	C	0.110469	1.017329	-0.148864
C78	C	0.443802	1.350662	0.184470
C79	C	-0.263066	0.725222	-0.431539
C80	C	0.070267	1.058555	-0.098205
C81	C	0.403601	1.391888	0.235128
C82	C	-0.303282	0.683896	-0.380902
C83	C	0.030051	1.017229	-0.047569
C84	C	0.363385	1.350562	0.285765
C85	C	-0.343486	0.725121	-0.330248
C86	C	-0.010153	1.058454	0.003085
C87	C	0.323180	1.391787	0.336418
C88	C	-0.383700	0.683796	-0.279607
C89	C	-0.050366	1.017129	0.053726
C90	C	0.282967	1.350463	0.387060
C91	C	-0.383706	0.601248	-0.279629
C92	C	-0.050373	0.934581	0.053705
C93	C	0.282960	1.267914	0.387038
C94	C	-0.263059	0.807770	-0.431517
C95	C	0.070274	1.141103	-0.098184
C96	C	0.403607	1.474437	0.235150
C97	C	-0.343479	0.807674	-0.330229
C98	C	-0.010145	1.141007	0.003104
C99	C	0.323188	1.474341	0.336437
C100	C	-0.466830	1.142114	-0.380858
C101	C	-0.133496	1.475448	-0.047525
C102	C	0.199837	1.808781	0.285809
C103	C	-0.536798	1.142142	-0.380866
C104	C	-0.203464	1.475476	-0.047532
C105	C	0.129869	1.808809	0.285801
C106	C	-0.569661	1.192732	-0.330372
C107	C	-0.236328	1.526065	0.002961
C108	C	0.097005	1.859398	0.336294
C109	C	-0.635404	1.192769	-0.330390
C110	C	-0.302071	1.526102	0.002943
C111	C	0.031263	1.859435	0.336277
C112	C	-0.668280	1.142202	-0.380893
C113	C	-0.334947	1.475536	-0.047560
C114	C	-0.001614	1.808869	0.285774
C115	C	-0.635409	1.091609	-0.431396
C116	C	-0.302075	1.424943	-0.098063
C117	C	0.031258	1.758276	0.235271
C118	C	-0.569667	1.091579	-0.431382
C119	C	-0.236334	1.424913	-0.098049
C120	C	0.096999	1.758246	0.235284
N121	N	-0.771543	1.073056	-0.386905
N122	N	-0.438209	1.406389	-0.053572
N123	N	-0.104876	1.739722	0.279761
N124	N	-0.833994	1.073087	-0.386914
N125	N	-0.500661	1.406420	-0.053580
N126	N	-0.167328	1.739753	0.279753
C127	C	-0.866355	1.142291	-0.380938
C128	C	-0.533022	1.475624	-0.047605
C129	C	-0.199688	1.808957	0.285728
N130	N	-0.833905	1.211465	-0.374939
N131	N	-0.500571	1.544798	-0.041605
N132	N	-0.167238	1.878131	0.291728
N133	N	-0.771448	1.211433	-0.374926
N134	N	-0.438114	1.544766	-0.041593
N135	N	-0.104781	1.878100	0.291740
C136	C	-0.739566	1.142230	-0.380914
C137	C	-0.406232	1.475563	-0.047580
C138	C	-0.072899	1.808896	0.285753
C139	C	-0.970504	1.192925	-0.330462
C140	C	-0.637171	1.526258	0.002872
C141	C	-0.303837	1.859591	0.336205
C142	C	-1.036248	1.192963	-0.330485
C143	C	-0.702915	1.526296	0.002848
C144	C	-0.369581	1.859630	0.336182
C145	C	-1.036251	1.091796	-0.431487
C146	C	-0.702918	1.425130	-0.098153
C147	C	-0.369584	1.758463	0.235180
C148	C	-0.970509	1.091765	-0.431467
C149	C	-0.637175	1.425098	-0.098134
C150	C	-0.303842	1.758432	0.235199
C151	C	-0.937639	1.142328	-0.380951
C152	C	-0.604306	1.475662	-0.047617
C153	C	-0.270972	1.808995	0.285716
C154	C	-0.139088	1.142343	-0.380963
C155	C	0.194246	1.475677	-0.047630
C156	C	0.527579	1.809010	0.285704
C157	C	-0.069120	1.142397	-0.380989
C158	C	0.264214	1.475730	-0.047656
C159	C	0.597547	1.809064	0.285678
C160	C	-0.303226	1.142260	-0.587070
C161	C	0.030108	1.475594	-0.253737
C162	C	0.363441	1.808927	0.079597
C163	C	-0.303203	1.142278	-0.674927
C164	C	0.030130	1.475612	-0.341593
C165	C	0.363463	1.808945	-0.008260
C166	C	-0.303299	1.348386	-0.380942
C167	C	0.030034	1.681719	-0.047609
C168	C	0.363368	2.015053	0.285725
C169	C	-0.303308	1.436243	-0.380959
C170	C	0.030025	1.769576	-0.047626
C171	C	0.363359	2.102909	0.285707
C172	C	-0.262874	1.091828	-1.046414
C173	C	0.070459	1.425162	-0.713081
C174	C	0.403793	1.758495	-0.379747
C175	C	-0.343400	1.192868	-1.046391
C176	C	-0.010067	1.526201	-0.713058
C177	C	0.323266	1.859534	-0.379724
C178	C	-0.343415	1.192854	-0.963845
C179	C	-0.010082	1.526187	-0.630512
C180	C	0.323252	1.859521	-0.297179
C181	C	-0.303159	1.142326	-0.922580
C182	C	0.030174	1.475659	-0.589246
C183	C	0.363508	1.808992	-0.255913
C184	C	-0.262889	1.091811	-0.963860
C185	C	0.070445	1.425145	-0.630527
C186	C	0.403778	1.758478	-0.297194
C187	C	-0.383689	1.243362	-0.922559
C188	C	-0.050356	1.576695	-0.589225
C189	C	0.282978	1.910028	-0.255892
C190	C	-0.383706	1.243349	-0.840008
C191	C	-0.050373	1.576683	-0.506674
C192	C	0.282961	1.910016	-0.173341
C193	C	-0.343446	1.192825	-0.798741
C194	C	-0.010113	1.526158	-0.465407
C195	C	0.323220	1.859491	-0.132074
C196	C	-0.303174	1.142309	-0.840026
C197	C	0.030159	1.475642	-0.506693
C198	C	0.363493	1.808976	-0.173360
C199	C	-0.262918	1.091781	-0.798761
C200	C	0.070415	1.425114	-0.465427
C201	C	0.403749	1.758447	-0.132094
C202	C	-0.222642	1.041268	-0.840045
C203	C	0.110691	1.374602	-0.506712
C204	C	0.444025	1.707935	-0.173378
C205	C	-0.222629	1.041287	-0.922593
C206	C	0.110704	1.374620	-0.589260
C207	C	0.444037	1.707953	-0.255927
C208	C	-0.343459	1.192806	-0.716192
C209	C	-0.010126	1.526140	-0.382859
C210	C	0.323208	1.859473	-0.049525
C211	C	-0.262933	1.091764	-0.716207
C212	C	0.070400	1.425097	-0.382874
C213	C	0.403734	1.758431	-0.049540
C214	C	-0.303285	1.142221	-0.175535
C215	C	0.030049	1.475555	0.157798
C216	C	0.363382	1.808888	0.491131
C217	C	-0.303130	1.142356	-0.087679
C218	C	0.030204	1.475690	0.245654
C219	C	0.363537	1.809023	0.578987
H220	H	-0.230320	0.841413	-0.472750
H221	H	0.103014	1.174746	-0.139417
H222	H	0.436347	1.508080	0.193917
F223	F	-1.071236	1.037984	-0.485240
F224	F	-0.737903	1.371317	-0.151907
F225	F	-0.404569	1.704650	0.181426
H226	H	-0.230367	0.444001	-0.472838
H227	H	0.102967	0.777334	-0.139504
H228	H	0.436300	1.110668	0.193829
F229	F	-0.426490	0.727680	-0.225704
F230	F	-0.093157	1.061013	0.107629
F231	F	0.240176	1.394347	0.440962
H232	H	-0.542901	1.233905	-0.289241
H233	H	-0.209568	1.567238	0.044093
H234	H	0.123766	1.900572	0.377426
F235	F	-0.220083	1.037988	-0.672296
F236	F	0.113250	1.371321	-0.338962
F237	F	0.446584	1.704654	-0.005629
F238	F	-0.220009	1.038075	-1.090351
F239	F	0.113324	1.371408	-0.757017
F240	F	0.446658	1.704741	-0.423684
F241	F	-0.180098	0.557566	-0.536128
F242	F	0.153235	0.890899	-0.202794
F243	F	0.486569	1.224233	0.130539
H244	H	-0.662167	1.233968	-0.289273
H245	H	-0.328833	1.567301	0.044061
H246	H	0.004500	1.900634	0.377394
F247	F	-0.386246	1.246634	-1.090311
F248	F	-0.052912	1.579967	-0.756977
F249	F	0.280421	1.913300	-0.423644
H250	H	-0.662181	1.050439	-0.472517
H251	H	-0.328847	1.383772	-0.139184
H252	H	0.004486	1.717106	0.194150
F253	F	-0.426569	1.297111	-0.796077
F254	F	-0.093235	1.630444	-0.462744
F255	F	0.240098	1.963778	-0.129411
F256	F	-0.426535	1.297126	-0.966480
F257	F	-0.093201	1.630460	-0.633146
F258	F	0.240132	1.963793	-0.299813
H259	H	-0.189868	1.000125	-0.806436
H260	H	0.143465	1.333458	-0.473102
H261	H	0.476798	1.666792	-0.139769
H262	H	-0.190120	0.717635	-0.523432
H263	H	0.143213	1.050968	-0.190099
H264	H	0.476547	1.384301	0.143235
H265	H	-0.376251	0.443818	-0.289073
H266	H	-0.042918	0.777151	0.044261
H267	H	0.290415	1.110484	0.377594
F268	F	-0.935520	1.246737	-0.276698
F269	F	-0.602186	1.580070	0.056636
F270	F	-0.268853	1.913404	0.389969
F271	F	-0.935531	1.037917	-0.485207
F272	F	-0.602198	1.371250	-0.151874
F273	F	-0.268865	1.704584	0.181460
H274	H	-0.542909	1.050382	-0.472501
H275	H	-0.209576	1.383716	-0.139168
H276	H	0.123758	1.717049	0.194166
F277	F	-1.071224	1.246816	-0.276745
F278	F	-0.737890	1.580149	0.056588
F279	F	-0.404557	1.913482	0.389922
H280	H	-0.189839	1.000161	-0.956214
H281	H	0.143494	1.333494	-0.622881
H282	H	0.476827	1.666828	-0.289548
F283	F	-0.386325	1.246556	-0.672258
F284	F	-0.052992	1.579889	-0.338925
F285	F	0.280342	1.913223	-0.005592
H286	H	-0.416445	0.567594	-0.238399
H287	H	-0.083112	0.900927	0.094935
H288	H	0.250221	1.234261	0.428268
F289	F	-0.386267	0.851542	-0.276311
F290	F	-0.052934	1.184876	0.057022
F291	F	0.280399	1.518209	0.390355
