data_functionalizedCrystal
_audit_creation_method	'MofGen! by Chris Wilmer'
_symmetry_space_group_name_H-M	'P1'
_symmetry_Int_Tables_number	1
_symmetry_cell_setting	triclinic
loop_
_symmetry_equiv_pos_as_xyz
  x,y,z
_cell_length_a	25.639243
_cell_length_b	25.639239
_cell_length_c	25.639233
_cell_angle_alpha	90.019301
_cell_angle_beta	90.015962
_cell_angle_gamma	90.042008
loop_
_atom_site_label
_atom_site_type_symbol
_atom_site_fract_x
_atom_site_fract_y
_atom_site_fract_z
Zn1	Zn	0.799223	-0.208176	0.295654
Zn2	Zn	1.299223	0.291824	0.795654
Zn3	Zn	0.799145	-0.295595	0.208217
Zn4	Zn	1.299145	0.204405	0.708217
Zn5	Zn	0.711799	-0.208180	0.208227
Zn6	Zn	1.211799	0.291820	0.708227
Zn7	Zn	0.711743	-0.295587	0.295617
Zn8	Zn	1.211743	0.204413	0.795617
O9	O	0.755478	-0.251885	0.251929
O10	O	1.255478	0.248115	0.751929
O11	O	0.872378	-0.219775	0.284066
O12	O	1.372378	0.280225	0.784066
O13	O	0.787550	-0.284004	0.135053
O14	O	1.287550	0.215996	0.635053
O15	O	0.723452	-0.135014	0.219844
O16	O	1.223452	0.364986	0.719844
O17	O	0.872321	-0.284001	0.219827
O18	O	1.372321	0.215999	0.719827
O19	O	0.787682	-0.135012	0.284076
O20	O	1.287682	0.364988	0.784076
O21	O	0.723377	-0.219781	0.135061
O22	O	1.223377	0.280219	0.635061
O23	O	0.638627	-0.219772	0.219808
O24	O	1.138627	0.280228	0.719808
O25	O	0.723357	-0.283987	0.368787
O26	O	1.223357	0.216013	0.868787
O27	O	0.638586	-0.283990	0.284013
O28	O	1.138586	0.216010	0.784013
O29	O	0.787628	-0.219767	0.368814
O30	O	1.287628	0.280233	0.868814
O31	O	0.787496	-0.368759	0.219791
O32	O	1.287496	0.131241	0.719791
O33	O	0.723282	-0.368753	0.284003
O34	O	1.223282	0.131247	0.784003
C35	C	0.619635	-0.251881	0.251908
C36	C	1.119635	0.248119	0.751908
C37	C	0.561521	-0.251892	0.251911
C38	C	1.061521	0.248108	0.751911
C39	C	0.755388	-0.387727	0.251903
C40	C	1.255388	0.112273	0.751903
C41	C	0.755398	-0.445841	0.251910
C42	C	1.255398	0.054159	0.751910
C43	C	0.201182	-0.218495	0.285434
C44	C	0.701182	0.281505	0.785434
C45	C	0.146578	-0.218494	0.285437
C46	C	0.646578	0.281506	0.785437
O47	O	0.118361	-0.190088	0.313913
O48	O	0.618361	0.309912	0.813913
N49	N	0.119239	-0.251883	0.251943
N50	N	0.619239	0.248117	0.751943
C51	C	0.146507	-0.285271	0.218440
C52	C	0.646507	0.214729	0.718440
O53	O	0.118239	-0.313670	0.189951
O54	O	0.618239	0.186330	0.689951
C55	C	0.201110	-0.285268	0.218434
C56	C	0.701110	0.214732	0.718434
C57	C	0.228446	-0.251881	0.251934
C58	C	0.728446	0.248119	0.751934
C59	C	0.228518	-0.185109	0.318931
C60	C	0.728518	0.314891	0.818931
C61	C	0.283119	-0.185111	0.318928
C62	C	0.783119	0.314889	0.818928
C63	C	0.310383	-0.218497	0.285428
C64	C	0.810383	0.281503	0.785428
C65	C	0.283047	-0.251882	0.251932
C66	C	0.783047	0.248118	0.751932
C67	C	0.228377	-0.318653	0.184929
C68	C	0.728377	0.181347	0.684929
C69	C	0.282984	-0.318647	0.184926
C70	C	0.782984	0.181353	0.684926
C71	C	0.310320	-0.285260	0.218426
C72	C	0.810320	0.214740	0.718426
C73	C	0.364912	-0.285270	0.218429
C74	C	0.864912	0.214730	0.718429
N75	N	0.392251	-0.251881	0.251923
N76	N	0.892251	0.248119	0.751923
C77	C	0.364987	-0.218494	0.285423
C78	C	0.864987	0.281506	0.785423
C79	C	0.031836	-0.285273	0.218453
C80	C	0.531836	0.214727	0.718453
C81	C	-0.022766	-0.285279	0.218461
C82	C	0.477234	0.214721	0.718461
C83	C	-0.022691	-0.218501	0.285458
C84	C	0.477309	0.281499	0.785458
C85	C	0.031912	-0.218499	0.285452
C86	C	0.531912	0.281501	0.785452
C87	C	0.059175	-0.251884	0.251947
C88	C	0.559175	0.248116	0.751947
C89	C	0.479652	-0.218500	0.285415
C90	C	0.979652	0.281500	0.785415
C91	C	0.534257	-0.218506	0.285411
C92	C	1.034257	0.281494	0.785411
C93	C	0.534177	-0.285281	0.218413
C94	C	1.034177	0.214719	0.718413
C95	C	0.479577	-0.285278	0.218418
C96	C	0.979577	0.214722	0.718418
C97	C	0.452315	-0.251883	0.251921
C98	C	0.952315	0.248117	0.751921
O99	O	0.393163	-0.313659	0.189966
O100	O	0.893163	0.186341	0.689966
O101	O	0.393261	-0.190095	0.313903
O102	O	0.893261	0.309905	0.813903
C103	C	0.722035	-0.697044	0.285353
C104	C	1.222035	-0.197044	0.785353
C105	C	0.722016	-0.642440	0.285347
C106	C	1.222016	-0.142440	0.785347
O107	O	0.693564	-0.614211	0.313764
O108	O	1.193564	-0.114211	0.813764
N109	N	0.755464	-0.615115	0.251937
N110	N	1.255464	-0.115115	0.751937
C111	C	0.788937	-0.642398	0.218535
C112	C	1.288937	-0.142398	0.718535
O113	O	0.817386	-0.614142	0.190118
O114	O	1.317386	-0.114142	0.690118
C115	C	0.788959	-0.697001	0.218545
C116	C	1.288959	-0.197001	0.718545
C117	C	0.755505	-0.724323	0.251953
C118	C	1.255505	-0.224323	0.751953
C119	C	0.688584	-0.724366	0.318759
C120	C	1.188584	-0.224366	0.818759
C121	C	0.688603	-0.778966	0.318764
C122	C	1.188603	-0.278966	0.818764
C123	C	0.722073	-0.806245	0.285364
C124	C	1.222073	-0.306245	0.785364
C125	C	0.755524	-0.778923	0.251958
C126	C	1.255524	-0.278923	0.751958
C127	C	0.822434	-0.724283	0.185145
C128	C	1.322434	-0.224283	0.685145
C129	C	0.822453	-0.778890	0.185158
C130	C	1.322453	-0.278890	0.685158
C131	C	0.788999	-0.806211	0.218566
C132	C	1.288999	-0.306211	0.718566
C133	C	0.789012	-0.860803	0.218563
C134	C	1.289012	-0.360803	0.718563
N135	N	0.755564	-0.888127	0.251972
N136	N	1.255564	-0.388127	0.751972
C137	C	0.722094	-0.860848	0.285373
C138	C	1.222094	-0.360848	0.785373
C139	C	0.788890	-0.527727	0.218519
C140	C	1.288890	-0.027727	0.718519
C141	C	0.788866	-0.473125	0.218507
C142	C	1.288866	0.026875	0.718507
C143	C	0.721945	-0.473170	0.285320
C144	C	1.221945	0.026830	0.785320
C145	C	0.721967	-0.527774	0.285329
C146	C	1.221967	-0.027774	0.785329
C147	C	0.755442	-0.555052	0.251929
C148	C	1.255442	-0.055052	0.751929
C149	C	0.722136	-0.975513	0.285381
C150	C	1.222136	-0.475513	0.785381
C151	C	0.722156	-1.030119	0.285382
C152	C	1.222156	-0.530119	0.785382
C153	C	0.789079	-1.030068	0.218571
C154	C	1.289079	-0.530068	0.718571
C155	C	0.789057	-0.975468	0.218568
C156	C	1.289057	-0.475468	0.718568
C157	C	0.755584	-0.948191	0.251977
C158	C	1.255584	-0.448191	0.751977
O159	O	0.817451	-0.889066	0.190162
O160	O	1.317451	-0.389066	0.690162
O161	O	0.693655	-0.889110	0.313791
O162	O	1.193655	-0.389110	0.813791
C163	C	0.891851	-0.251888	0.251950
C164	C	1.391851	0.248112	0.751950
C165	C	0.949965	-0.251890	0.251959
C166	C	1.449965	0.248110	0.751959
C167	C	0.755495	-0.251875	0.388302
C168	C	1.255495	0.248125	0.888302
C169	C	0.755502	-0.251871	0.446416
C170	C	1.255502	0.248129	0.946416
C171	C	0.755582	-0.115512	0.251965
C172	C	1.255582	0.384488	0.751965
C173	C	0.755626	-0.057397	0.251981
C174	C	1.255626	0.442603	0.751981
C175	C	0.755491	-0.251856	0.116086
C176	C	1.255491	0.248144	0.616086
C177	C	0.755585	-0.251713	0.057972
C178	C	1.255585	0.248287	0.557972
C179	C	0.789010	-0.218333	0.806799
C180	C	1.289010	0.281667	1.306799
C181	C	0.789016	-0.218318	0.861403
C182	C	1.289016	0.281682	1.361403
O183	O	0.817464	-0.189864	0.889657
O184	O	1.317464	0.310136	1.389657
N185	N	0.755559	-0.251749	0.888698
N186	N	1.255559	0.248251	1.388698
C187	C	0.722090	-0.285192	0.861387
C188	C	1.222090	0.214808	1.361387
O189	O	0.693632	-0.313626	0.889617
O190	O	1.193632	0.186374	1.389617
C191	C	0.722081	-0.285204	0.806783
C192	C	1.222081	0.214796	1.306783
C193	C	0.755544	-0.251775	0.779491
C194	C	1.255544	0.248225	1.279491
C195	C	0.822470	-0.184906	0.779506
C196	C	1.322470	0.315094	1.279506
C197	C	0.822464	-0.184921	0.724906
C198	C	1.322464	0.315079	1.224906
C199	C	0.788998	-0.218363	0.697598
C200	C	1.288998	0.281637	1.197598
C201	C	0.755538	-0.251790	0.724890
C202	C	1.255538	0.248210	1.224890
C203	C	0.688610	-0.318644	0.779472
C204	C	1.188610	0.181356	1.279472
C205	C	0.688603	-0.318653	0.724865
C206	C	1.188603	0.181347	1.224865
C207	C	0.722066	-0.285224	0.697573
C208	C	1.222066	0.214776	1.197573
C209	C	0.722067	-0.285247	0.642982
C210	C	1.222067	0.214753	1.142982
N211	N	0.755524	-0.251817	0.615686
N212	N	1.255524	0.248183	1.115686
C213	C	0.788990	-0.218375	0.642994
C214	C	1.288990	0.281625	1.142994
C215	C	0.722110	-0.285165	0.976057
C216	C	1.222110	0.214835	1.476057
C217	C	0.722121	-0.285157	1.030660
C218	C	1.222121	0.214843	1.530660
C219	C	0.789047	-0.218282	1.030672
C220	C	1.289047	0.281718	1.530672
C221	C	0.789038	-0.218293	0.976069
C222	C	1.289038	0.281707	1.476069
C223	C	0.755567	-0.251735	0.948762
C224	C	1.255567	0.248265	1.448762
C225	C	0.788975	-0.218410	0.528329
C226	C	1.288975	0.281590	1.028329
C227	C	0.788968	-0.218429	0.473724
C228	C	1.288968	0.281571	0.973724
C229	C	0.722040	-0.285302	0.473716
C230	C	1.222040	0.214698	0.973716
C231	C	0.722049	-0.285285	0.528316
C232	C	1.222049	0.214715	1.028316
C233	C	0.755518	-0.251834	0.555622
C234	C	1.255518	0.248166	1.055622
O235	O	0.693632	-0.313686	0.614693
O236	O	1.193632	0.186314	1.114693
O237	O	0.817437	-0.189941	0.614757
O238	O	1.317437	0.310059	1.114757
H239	H	0.556512	-0.191317	0.312692
H240	H	1.056512	0.308683	0.812692
O241	O	0.689573	-0.317831	0.554776
O242	O	1.189573	0.182169	1.054776
C243	C	0.700966	-0.369948	0.541448
C244	C	1.200966	0.130052	1.041448
H245	H	0.721061	-0.371047	0.501806
H246	H	1.221061	0.128953	1.001806
H247	H	0.663213	-0.393390	0.539572
H248	H	1.163213	0.106610	1.039572
H249	H	0.727834	-0.387548	0.572186
H250	H	1.227834	0.112452	1.072186
O251	O	0.821344	-0.554293	0.186063
O252	O	1.321344	-0.054293	0.686063
C253	C	0.791632	-0.585933	0.152258
C254	C	1.291632	-0.085933	0.652258
H255	H	0.751990	-0.594143	0.170643
H256	H	1.251990	-0.094143	0.670643
H257	H	0.812954	-0.624312	0.145306
H258	H	1.312954	-0.124312	0.645306
H259	H	0.785926	-0.564932	0.113491
H260	H	1.285926	-0.064932	0.613491
O261	O	0.689585	-0.317709	0.949614
O262	O	1.189585	0.182291	1.449614
C263	C	0.660052	-0.347202	0.985420
C264	C	1.160052	0.152798	1.485420
H265	H	0.681475	-0.348996	1.024344
H266	H	1.181475	0.151004	1.524344
H267	H	0.654446	-0.388403	0.969644
H268	H	1.154446	0.111597	1.469644
H269	H	0.620357	-0.328058	0.991223
H270	H	1.120357	0.171942	1.491223
H271	H	0.054166	-0.191310	0.312730
H272	H	0.554166	0.308690	0.812730
O273	O	-0.049238	-0.186138	0.318024
O274	O	0.450762	0.313862	0.818024
C275	C	-0.080824	-0.215957	0.351748
C276	C	0.419176	0.284043	0.851748
H277	H	-0.089034	-0.255554	0.333238
H278	H	0.410966	0.244446	0.833238
H279	H	-0.119205	-0.194674	0.358792
H280	H	0.380795	0.305326	0.858792
H281	H	-0.059774	-0.221755	0.390485
H282	H	0.440226	0.278245	0.890485
O283	O	0.821418	-0.185876	0.447239
O284	O	1.321418	0.314124	0.947239
C285	C	0.810036	-0.133765	0.460599
C286	C	1.310036	0.366235	0.960599
H287	H	0.768270	-0.131125	0.475599
H288	H	1.268270	0.368875	0.975599
H289	H	0.814558	-0.107939	0.424696
H290	H	1.314558	0.392061	0.924696
H291	H	0.838078	-0.120093	0.492304
H292	H	1.338078	0.379907	0.992304
H293	H	0.305371	-0.157922	0.346206
H294	H	0.805371	0.342078	0.846206
O295	O	0.656143	-0.697849	0.351262
O296	O	1.156143	-0.197849	0.851262
C297	C	0.685864	-0.666202	0.385053
C298	C	1.185864	-0.166202	0.885053
H299	H	0.727050	-0.682601	0.388327
H300	H	1.227050	-0.182601	0.888327
H301	H	0.666922	-0.665592	0.425270
H302	H	1.166922	-0.165592	0.925270
H303	H	0.687653	-0.624823	0.368887
H304	H	1.187653	-0.124823	0.868887
H305	H	0.816227	-0.191169	0.550555
H306	H	1.316227	0.308831	1.050555
H307	H	0.054030	-0.312464	0.191171
H308	H	0.554030	0.187536	0.691171
O309	O	0.689647	-0.949079	0.317906
O310	O	1.189647	-0.449079	0.817906
C311	C	0.701050	-0.962380	0.370028
C312	C	1.201050	-0.462380	0.870028
H313	H	0.721166	-1.002001	0.371132
H314	H	1.221166	-0.502001	0.871132
H315	H	0.663300	-0.964285	0.393434
H316	H	1.163300	-0.464285	0.893434
H317	H	0.727905	-0.931610	0.387664
H318	H	1.227905	-0.431610	0.887664
O319	O	0.821502	-0.185806	1.057286
O320	O	1.321502	0.314194	1.557286
C321	C	0.814336	-0.192974	1.111331
C322	C	1.314336	0.307026	1.611331
H323	H	0.773976	-0.210102	1.118775
H324	H	1.273976	0.289898	1.618775
H325	H	0.817904	-0.153806	1.132090
H326	H	1.317904	0.346194	1.632090
H327	H	0.845332	-0.220808	1.126833
H328	H	1.345332	0.279192	1.626833
O329	O	0.689696	-0.317693	1.057190
O330	O	1.189696	0.182307	1.557190
C331	C	0.719440	-0.351448	1.088785
C332	C	1.219440	0.148552	1.588785
H333	H	0.760616	-0.354677	1.072340
H334	H	1.260616	0.145323	1.572340
H335	H	0.700502	-0.391686	1.089390
H336	H	1.200502	0.108314	1.589390
H337	H	0.721252	-0.335278	1.130172
H338	H	1.221252	0.164722	1.630172
O339	O	0.689464	-0.317769	0.447246
O340	O	1.189464	0.182231	0.947246
C341	C	0.637361	-0.306334	0.460568
C342	C	1.137361	0.193666	0.960568
H343	H	0.636293	-0.286222	0.500213
H344	H	1.136293	0.213778	1.000213
H345	H	0.613894	-0.344070	0.462432
H346	H	1.113894	0.155930	0.962432
H347	H	0.619766	-0.279466	0.429832
H348	H	1.119766	0.220534	0.929832
H349	H	0.849712	-0.157699	0.702689
H350	H	1.349712	0.342301	1.202689
H351	H	0.849715	-0.801096	0.157961
H352	H	1.349715	-0.301096	0.657961
H353	H	0.816286	-0.191071	0.953851
H354	H	1.316286	0.308929	1.453851
O355	O	0.201912	-0.351099	0.152334
O356	O	0.701912	0.148901	0.652334
C357	C	0.237696	-0.380567	0.122776
C358	C	0.737696	0.119433	0.622776
H359	H	0.276632	-0.359144	0.121014
H360	H	0.776632	0.140856	0.621014
H361	H	0.221909	-0.386078	0.081569
H362	H	0.721909	0.113922	0.581569
H363	H	0.243481	-0.420307	0.141844
H364	H	0.743481	0.079693	0.641844
H365	H	-0.045019	-0.312472	0.191188
H366	H	0.454981	0.187528	0.691188
H367	H	0.694729	-0.550015	0.312536
H368	H	1.194729	-0.050015	0.812536
O369	O	0.656093	-0.805422	0.351270
O370	O	1.156093	-0.305422	0.851270
C371	C	0.626544	-0.769626	0.380737
C372	C	1.126544	-0.269626	0.880737
H373	H	0.647947	-0.730681	0.382555
H374	H	1.147947	-0.230681	0.882555
H375	H	0.620945	-0.785383	0.421931
H376	H	1.120945	-0.285383	0.921931
H377	H	0.586845	-0.763871	0.361553
H378	H	1.086845	-0.263871	0.861553
H379	H	0.661360	-0.345866	0.801685
H380	H	1.161360	0.154134	1.301685
O381	O	0.854907	-0.152361	0.806050
O382	O	1.354907	0.347639	1.306050
C383	C	0.825179	-0.118586	0.837645
C384	C	1.325179	0.381414	1.337645
H385	H	0.783996	-0.115360	0.821194
H386	H	1.283996	0.384640	1.321194
H387	H	0.844121	-0.078350	0.838261
H388	H	1.344121	0.421650	1.338261
H389	H	0.823380	-0.134735	0.879029
H390	H	1.323380	0.365265	1.379029
H391	H	0.661341	-0.345880	0.702635
H392	H	1.161341	0.154120	1.202635
H393	H	0.816101	-0.450883	0.191298
H394	H	1.316101	0.049117	0.691298
O395	O	0.453198	-0.186120	0.318037
O396	O	0.953198	0.313880	0.818037
C397	C	0.466566	-0.197621	0.370121
C398	C	0.966566	0.302379	0.870121
H399	H	0.481543	-0.239396	0.372678
H400	H	0.981543	0.260604	0.872678
H401	H	0.430673	-0.193155	0.395968
H402	H	0.930673	0.306845	0.895968
H403	H	0.498291	-0.169615	0.383835
H404	H	0.998291	0.330385	0.883835
H405	H	0.457318	-0.312470	0.191146
H406	H	0.957318	0.187530	0.691146
O407	O	0.202120	-0.152660	0.351525
O408	O	0.702120	0.347340	0.851525
C409	C	0.237967	-0.123188	0.381075
C410	C	0.737967	0.376812	0.881075
H411	H	0.276874	-0.144609	0.382832
H412	H	0.776874	0.355391	0.882832
H413	H	0.222219	-0.117674	0.422284
H414	H	0.722219	0.382326	0.922284
H415	H	0.243796	-0.083449	0.362003
H416	H	0.743796	0.416551	0.862003
H417	H	0.305179	-0.345834	0.157641
H418	H	0.805179	0.154166	0.657641
H419	H	0.556386	-0.312465	0.191139
H420	H	1.056386	0.187535	0.691139
O421	O	0.689732	-1.056715	0.317864
O422	O	1.189732	-0.556715	0.817864
C423	C	0.719488	-1.088242	0.351675
C424	C	1.219488	-0.588242	0.851675
H425	H	0.759125	-1.096391	0.333273
H426	H	1.259125	-0.596391	0.833273
H427	H	0.698198	-1.126658	0.358669
H428	H	1.198198	-0.626658	0.858669
H429	H	0.725201	-1.067173	0.390423
H430	H	1.225201	-0.567173	0.890423
O431	O	0.854910	-0.697810	0.152623
O432	O	1.354910	-0.197810	0.652623
C433	C	0.843523	-0.711184	0.100502
C434	C	1.343523	-0.211184	0.600502
H435	H	0.823430	-0.750848	0.099406
H436	H	1.323430	-0.250848	0.599406
H437	H	0.881278	-0.713034	0.077102
H438	H	1.381278	-0.213034	0.577102
H439	H	0.816653	-0.680486	0.082853
H440	H	1.316653	-0.180486	0.582853
O441	O	0.689510	-0.446643	0.317826
O442	O	1.189510	0.053357	0.817826
C443	C	0.719248	-0.415001	0.351606
C444	C	1.219248	0.084999	0.851606
H445	H	0.760429	-0.431413	0.354876
H446	H	1.260429	0.068587	0.854876
H447	H	0.700313	-0.414378	0.391826
H448	H	1.200313	0.085622	0.891826
H449	H	0.721048	-0.373625	0.335434
H450	H	1.221048	0.126375	0.835434
H451	H	0.816327	-1.052289	0.191376
H452	H	1.316327	-0.552289	0.691376
O453	O	0.821596	-0.949005	0.186094
O454	O	1.321596	-0.449005	0.686094
C455	C	0.851127	-0.984794	0.156602
C456	C	1.351127	-0.484794	0.656602
H457	H	0.852937	-1.023706	0.178023
H458	H	1.352937	-0.523706	0.678023
H459	H	0.892320	-0.968977	0.151058
H460	H	1.392320	-0.468977	0.651058
H461	H	0.832006	-0.990638	0.116877
H462	H	1.332006	-0.490638	0.616877
