data_functionalizedCrystal
_audit_creation_method	'MofGen! by Chris Wilmer'
_symmetry_space_group_name_H-M	'P1'
_symmetry_Int_Tables_number	1
_symmetry_cell_setting	triclinic
loop_
_symmetry_equiv_pos_as_xyz
  x,y,z
_cell_length_a	18.050591
_cell_length_b	19.120904
_cell_length_c	18.050589
_cell_angle_alpha	92.416977
_cell_angle_beta	90.024227
_cell_angle_gamma	92.416941
loop_
_atom_site_label
_atom_site_type_symbol
_atom_site_fract_x
_atom_site_fract_y
_atom_site_fract_z
Zn1	Zn	1.117386	-0.397248	-0.313673
Zn2	Zn	1.122590	-0.279810	-0.432568
Zn3	Zn	0.998499	-0.279802	-0.308387
Zn4	Zn	0.993155	-0.397206	-0.437815
O5	O	1.057908	-0.338516	-0.373111
O6	O	1.222000	-0.381691	-0.329461
O7	O	1.110544	-0.181526	-0.411688
O8	O	1.014328	-0.295396	-0.205165
O9	O	1.225824	-0.295409	-0.416813
O10	O	1.101674	-0.381683	-0.209048
O11	O	1.019375	-0.181521	-0.320453
O12	O	0.893867	-0.295354	-0.325540
O13	O	1.005220	-0.495493	-0.425755
O14	O	0.889940	-0.381611	-0.420630
O15	O	1.096492	-0.495525	-0.334548
O16	O	1.105362	-0.295368	-0.537188
O17	O	1.010266	-0.381618	-0.541043
C18	C	0.864957	-0.338477	-0.373081
C19	C	0.782411	-0.338477	-0.373087
C20	C	0.585070	-0.291679	-0.321325
C21	C	0.536429	-0.274401	-0.388283
C22	C	0.631280	-0.338509	-0.373111
C23	C	0.532839	-0.355786	-0.306177
C24	C	0.485293	-0.338539	-0.373129
C25	C	0.583728	-0.321197	-0.440103
C26	C	0.580141	-0.402613	-0.357953
C27	C	0.531521	-0.385358	-0.424959
C28	C	0.715379	-0.338491	-0.373100
C29	C	0.401196	-0.338557	-0.373147
C30	C	1.049679	-0.521705	-0.381326
C31	C	1.046173	-0.599769	-0.384827
C32	C	1.092043	-0.636462	-0.338988
C33	C	1.088739	-0.709811	-0.342275
C34	C	1.039568	-0.746467	-0.391405
C35	C	0.993693	-0.709770	-0.437246
C36	C	0.996993	-0.636422	-0.433955
C37	C	1.027222	-0.967931	-0.403714
C38	C	1.023927	-1.041284	-0.407003
C39	C	1.118973	-1.041320	-0.312030
C40	C	1.122272	-0.967971	-0.308746
C41	C	1.076394	-0.931280	-0.354585
C42	C	1.036192	-0.821442	-0.394767
C43	C	1.079767	-0.856306	-0.351218
C44	C	1.251611	-0.338556	-0.373141
C45	C	1.334156	-0.338572	-0.373154
C46	C	1.057818	-0.338505	-0.566062
C47	C	1.057847	-0.338523	-0.648609
C48	C	1.066147	-0.156040	-0.364874
C49	C	1.069797	-0.077976	-0.361163
C50	C	1.006184	-0.385410	-0.850182
C51	C	0.990975	-0.321320	-0.896729
C52	C	1.057920	-0.338532	-0.799740
C53	C	1.073165	-0.402629	-0.900275
C54	C	1.057988	-0.338547	-0.945726
C55	C	1.042677	-0.274408	-0.845198
C56	C	1.124896	-0.355761	-0.848741
C57	C	1.109715	-0.291627	-0.895264
C58	C	1.057878	-0.338525	-0.715641
C59	C	1.058030	-0.338547	-1.029822
C60	C	1.058017	-0.338543	-0.179406
C61	C	1.058063	-0.338555	-0.096861
H62	H	0.608514	-0.252034	-0.277574
Br63	Br	0.934733	-0.586624	-0.496164
Br64	Br	0.620789	-0.296757	-0.534486
H65	H	0.517134	-0.220202	-0.401117
H66	H	0.599454	-0.456795	-0.345098
H67	H	0.996160	-0.851296	-0.434773
H68	H	1.132086	-0.606621	-0.298983
Br69	Br	0.933168	-0.451392	-0.817067
H70	H	1.153498	-0.251945	-0.914990
H71	H	0.510474	-0.370363	-0.249571
Br72	Br	1.021125	-0.184044	-0.805188
H73	H	1.181490	-0.370351	-0.827624
Br74	Br	1.151030	-0.759605	-0.280095
H75	H	0.508214	-0.424973	-0.468809
H76	H	1.162314	-0.938130	-0.268741
H77	H	0.989876	-0.938066	-0.441050
H78	H	1.086032	-0.456830	-0.924372
H79	H	1.156323	-1.071202	-0.274710
H80	H	1.119799	-0.826457	-0.311213
Br81	Br	0.957187	-1.091032	-0.473682
H82	H	0.953654	-0.739621	-0.477247
Br83	Br	0.896621	-0.297030	-0.931900
