data_functionalizedCrystal
_audit_creation_method	'MofGen! by Chris Wilmer'
_symmetry_space_group_name_H-M	'P1'
_symmetry_Int_Tables_number	1
_symmetry_cell_setting	triclinic
loop_
_symmetry_equiv_pos_as_xyz
  x,y,z
_cell_length_a	13.262415
_cell_length_b	10.723022
_cell_length_c	9.198806
_cell_angle_alpha	90.003396
_cell_angle_beta	105.919210
_cell_angle_gamma	84.451198
loop_
_atom_site_label
_atom_site_type_symbol
_atom_site_fract_x
_atom_site_fract_y
_atom_site_fract_z
O1	O	0.147208	1.656460	0.179084
O2	O	0.161302	1.293237	0.184661
O3	O	0.001528	1.483981	0.121480
O4	O	0.306982	1.465716	0.242265
O5	O	0.001527	1.483967	-0.120305
O6	O	0.161300	1.293223	-0.057125
O7	O	0.147207	1.656445	-0.062702
Cu8	Cu	0.154254	1.474833	-0.081990
Cu9	Cu	0.154255	1.474850	0.203949
O10	O	0.306980	1.465701	0.000479
C11	C	0.160276	1.246736	0.063363
C12	C	0.157208	1.108196	0.062152
C13	C	0.243436	0.889591	0.096252
C14	C	0.246609	1.032778	0.097505
C15	C	-0.037584	1.482949	-0.014875
C16	C	-0.154124	1.479878	-0.060949
C17	C	-0.482616	1.471259	0.336373
C18	C	-0.373122	1.474154	0.379669
C19	C	-0.318367	1.475585	0.269518
C20	C	-0.373117	1.474121	0.116064
C21	C	-0.482623	1.471236	0.072763
C22	C	-0.318374	1.475561	0.005908
C23	C	-0.373124	1.474098	-0.147546
C24	C	-0.482620	1.471212	-0.190840
C25	C	-0.537374	1.469781	-0.080689
C26	C	-0.208868	1.478447	0.049209
C27	C	-0.208875	1.478423	-0.214401
C28	C	-0.318370	1.475528	-0.257697
C29	C	0.346093	1.466734	0.136838
C30	C	0.462633	1.469805	0.182921
C31	C	0.148233	1.702947	0.058599
C32	C	0.151301	1.841486	0.059820
N33	N	0.154252	1.474830	-0.283105
C34	C	0.087022	1.555116	-0.549291
C35	C	0.087023	1.555099	-0.381878
N36	N	0.154249	1.474862	0.405061
H37	H	-0.164301	1.479638	0.174153
H38	H	0.211809	1.406146	-0.510080
H39	H	-0.527208	1.470104	0.426040
H40	H	0.029469	1.623842	-0.634146
H41	H	0.319968	0.824770	0.126524
C42	C	0.010060	1.646575	-0.329646
C43	C	-0.093231	1.625724	-0.407475
C44	C	-0.164180	1.709958	-0.359422
H45	H	0.021906	1.729996	-0.349775
H46	H	0.020142	1.634420	-0.224119
H47	H	-0.103309	1.637889	-0.512977
H48	H	-0.105110	1.542320	-0.387355
H49	H	-0.154098	1.697803	-0.253895
H50	H	-0.152324	1.793373	-0.379554
H51	H	-0.234270	1.695814	-0.412211
H52	H	0.211807	1.406114	-0.322453
C53	C	0.051906	1.053228	0.020443
C54	C	-0.029955	1.150566	-0.011963
C55	C	-0.126973	1.099967	-0.050410
H56	H	0.046717	1.003053	0.102683
H57	H	0.046807	1.003064	-0.065924
H58	H	-0.024858	1.200709	0.074394
H59	H	-0.024801	1.200748	-0.094211
H60	H	-0.132072	1.049803	-0.136776
H61	H	-0.132151	1.049793	0.031837
H62	H	-0.182527	1.166002	-0.072415
C63	C	-0.542161	1.469398	-0.357388
C64	C	-0.593992	1.360513	-0.385539
C65	C	-0.648852	1.358792	-0.538943
H66	H	-0.493972	1.470584	-0.416938
H67	H	-0.592423	1.540904	-0.382797
H68	H	-0.543735	1.289026	-0.360146
H69	H	-0.642197	1.359304	-0.326027
H70	H	-0.699114	1.430297	-0.564352
H71	H	-0.600656	1.359981	-0.598479
H72	H	-0.684033	1.284921	-0.558060
C73	C	0.351696	1.088238	0.139143
C74	C	0.333951	1.219232	0.132165
C75	C	0.430735	1.270365	0.170539
H76	H	0.390581	1.061189	0.070232
H77	H	0.390497	1.061128	0.238842
H78	H	0.295166	1.246331	0.032482
H79	H	0.295082	1.246315	0.201076
H80	H	0.469536	1.243255	0.270237
H81	H	0.469613	1.243307	0.101623
H82	H	0.418708	1.359249	0.165822
H83	H	-0.626534	1.467423	-0.115933
H84	H	-0.362963	1.474337	-0.382642
H85	H	-0.328552	1.475348	0.504611
H86	H	-0.229212	1.477942	0.304780
H87	H	-0.164295	1.479591	-0.304095
H88	H	0.074769	0.906307	0.029565
