data_functionalizedCrystal
_audit_creation_method	'MofGen! by Chris Wilmer'
_symmetry_space_group_name_H-M	'P1'
_symmetry_Int_Tables_number	1
_symmetry_cell_setting	triclinic
loop_
_symmetry_equiv_pos_as_xyz
  x,y,z
_cell_length_a	15.995350
_cell_length_b	13.930277
_cell_length_c	14.853567
_cell_angle_alpha	90.005533
_cell_angle_beta	96.436348
_cell_angle_gamma	89.986266
loop_
_atom_site_label
_atom_site_type_symbol
_atom_site_fract_x
_atom_site_fract_y
_atom_site_fract_z
O1	O	1.111104	0.079741	-0.116200
O2	O	1.611104	0.579741	0.383800
O3	O	0.867345	0.079760	-0.130550
O4	O	1.367345	0.579760	0.369450
O5	O	0.995736	0.079753	0.007864
O6	O	1.495736	0.579753	0.507864
O7	O	0.982713	0.079748	-0.254614
O8	O	1.482713	0.579748	0.245386
O9	O	0.995758	-0.079909	0.007855
O10	O	1.495758	0.420091	0.507855
O11	O	0.867368	-0.079902	-0.130559
O12	O	1.367368	0.420098	0.369441
O13	O	1.111127	-0.079921	-0.116209
O14	O	1.611127	0.420079	0.383791
Zn15	Zn	0.989251	-0.105261	-0.123385
Zn16	Zn	1.489251	0.394739	0.376615
Zn17	Zn	0.989221	0.105100	-0.123374
Zn18	Zn	1.489221	0.605100	0.376626
O19	O	0.982736	-0.079914	-0.254622
O20	O	1.482736	0.420086	0.245378
C21	C	0.836161	-0.000068	-0.129961
C22	C	1.336161	0.499932	0.370039
C23	C	0.743209	-0.000061	-0.128182
C24	C	1.243209	0.499939	0.371818
N25	N	0.989278	-0.248827	-0.123392
N26	N	1.489278	0.251173	0.376608
N27	N	0.989201	0.248667	-0.123359
N28	N	1.489201	0.748667	0.376641
C29	C	0.405454	-0.000081	-0.121795
C30	C	0.905454	0.499919	0.378205
C31	C	0.452773	-0.000435	-0.023220
C32	C	0.952773	0.499565	0.476780
C33	C	0.549465	-0.000069	-0.024999
C34	C	1.049465	0.499931	0.475001
C35	C	0.573018	-0.000071	-0.124963
C36	C	1.073018	0.499929	0.375037
C37	C	0.531974	0.091099	-0.173579
C38	C	1.031974	0.591099	0.326421
C39	C	0.435336	0.091168	-0.171103
C40	C	0.935336	0.591168	0.328897
C41	C	0.435025	-0.090397	-0.173149
C42	C	0.935025	0.409603	0.326851
C43	C	0.531971	-0.091595	-0.173126
C44	C	1.031971	0.408405	0.326874
C45	C	0.667718	-0.000063	-0.126759
C46	C	1.167718	0.499937	0.373241
C47	C	0.310754	-0.000083	-0.120002
C48	C	0.810754	0.499917	0.379998
C49	C	1.142311	-0.000090	-0.116798
C50	C	1.642311	0.499910	0.383202
C51	C	1.235263	-0.000091	-0.118576
C52	C	1.735263	0.499909	0.381424
C53	C	0.995157	-0.000075	0.041447
C54	C	1.495157	0.499925	0.541447
C55	C	0.993389	-0.000067	0.141528
C56	C	1.493389	0.499933	0.641528
C57	C	0.932309	0.700939	-0.184555
C58	C	1.432309	1.200939	0.315445
C59	C	1.046230	0.700902	-0.062223
C60	C	1.546230	1.200902	0.437777
C61	C	1.046216	0.600406	-0.062216
C62	C	1.546216	1.100406	0.437784
C63	C	0.989248	0.550172	-0.123379
C64	C	1.489248	1.050172	0.376621
C65	C	0.932292	0.600434	-0.184548
C66	C	1.432292	1.100434	0.315452
C67	C	1.103165	0.550137	-0.001042
C68	C	1.603165	1.050137	0.498958
C69	C	1.103153	0.449635	-0.001032
C70	C	1.603153	0.949635	0.498968
C71	C	1.046188	0.399400	-0.062200
C72	C	1.546188	0.899400	0.437800
C73	C	0.989231	0.449667	-0.123372
C74	C	1.489231	0.949667	0.376628
C75	C	0.932262	0.399433	-0.184535
C76	C	1.432262	0.899433	0.315465
C77	C	0.875308	0.449699	-0.245713
C78	C	1.375308	0.949699	0.254287
C79	C	0.875327	0.550198	-0.245716
C80	C	1.375327	1.050198	0.254284
C81	C	1.046169	0.298901	-0.062196
C82	C	1.546169	0.798901	0.437804
C83	C	0.932245	0.298928	-0.184529
C84	C	1.432245	0.798928	0.315471
C85	C	0.983315	-0.000083	-0.288206
C86	C	1.483315	0.499917	0.211794
C87	C	0.985083	-0.000085	-0.388287
C88	C	1.485083	0.499915	0.111713
C89	C	0.909648	-0.000078	0.553949
C90	C	1.409648	0.499922	1.053949
C91	C	1.062178	-0.000090	0.575436
C92	C	1.562178	0.499910	1.075436
C93	C	1.063841	-0.000084	0.481405
C94	C	1.563841	0.499916	0.981405
C95	C	0.988406	-0.000077	0.423641
C96	C	1.488406	0.499923	0.923641
C97	C	0.911308	-0.000076	0.459909
C98	C	1.411308	0.499924	0.959909
C99	C	1.140937	-0.000096	0.445129
C100	C	1.640937	0.499904	0.945129
C101	C	1.142603	-0.000091	0.351093
C102	C	1.642603	0.499909	0.851093
C103	C	1.067167	-0.000077	0.293327
C104	C	1.567167	0.499923	0.793327
C105	C	0.990066	-0.000075	0.329600
C106	C	1.490066	0.499925	0.829600
C107	C	0.914631	-0.000068	0.271837
C108	C	1.414631	0.499932	0.771837
C109	C	0.837529	-0.000058	0.308108
C110	C	1.337529	0.499942	0.808108
C111	C	0.835872	-0.000062	0.402144
C112	C	1.335872	0.499938	0.902144
C113	C	1.068824	-0.000074	0.199292
C114	C	1.568824	0.499926	0.699292
C115	C	0.916291	-0.000065	0.177796
C116	C	1.416291	0.499935	0.677796
H117	H	0.434215	-0.065817	0.016180
H118	H	0.934215	0.434183	0.516180
H119	H	0.828956	0.591131	-0.295524
H120	H	1.328956	1.091131	0.204476
H121	H	0.854861	-0.000055	0.130770
H122	H	1.354861	0.499945	0.630770
H123	H	0.885857	0.258034	-0.234339
H124	H	1.385857	0.758034	0.265661
N125	N	1.225759	-0.000083	0.311977
N126	N	1.725759	0.499917	0.811977
H127	H	1.215367	-0.000075	0.243641
H128	H	1.715367	0.499925	0.743641
H129	H	1.258785	-0.059273	0.333096
H130	H	1.758785	0.440727	0.833096
H131	H	0.885940	0.741868	-0.234368
H132	H	1.385940	1.241868	0.265632
H133	H	0.546184	0.094487	-0.247021
H134	H	1.046184	0.594487	0.252979
H135	H	0.560299	0.158951	-0.139806
H136	H	1.060299	0.658951	0.360194
H137	H	0.828920	0.408787	-0.295509
H138	H	1.328920	0.908787	0.204491
H139	H	1.131599	-0.000088	0.169764
H140	H	1.631599	0.499912	0.669764
N141	N	1.107594	0.244693	0.003781
N142	N	1.607594	0.744693	0.503781
H143	H	1.144631	0.202973	-0.030773
H144	H	1.644631	0.702973	0.469227
H145	H	1.075565	0.203073	0.043778
H146	H	1.575565	0.703073	0.543778
H147	H	1.092608	0.741806	-0.012421
H148	H	1.592608	1.241806	0.487579
H149	H	0.776110	-0.000059	0.261065
H150	H	1.276110	0.499941	0.761065
H151	H	0.773099	-0.000055	0.431685
H152	H	1.273099	0.499945	0.931685
N153	N	1.164573	0.604315	0.064959
N154	N	1.664573	1.104315	0.564959
H155	H	1.155933	0.675607	0.055678
H156	H	1.655933	1.175607	0.555678
H157	H	1.223960	0.586735	0.054423
H158	H	1.723960	1.086735	0.554423
N159	N	1.143540	-0.000093	0.637727
N160	N	1.643540	0.499907	1.137727
H161	H	1.177181	-0.059280	0.626051
H162	H	1.677181	0.440720	1.126051
H163	H	1.130726	-0.000060	0.702777
H164	H	1.630726	0.499940	1.202777
N165	N	0.826492	-0.000080	0.593066
N166	N	1.326492	0.499920	1.093066
H167	H	0.778959	-0.000077	0.542202
H168	H	1.278959	0.499923	1.042202
H169	H	0.822469	0.059109	0.631618
H170	H	1.322469	0.559109	1.131618
H171	H	1.149528	0.408715	0.048781
H172	H	1.649528	0.908715	0.548781
N173	N	0.407794	-0.181939	-0.130471
N174	N	0.907794	0.318061	0.369529
H175	H	0.376006	-0.165787	-0.077409
H176	H	0.876006	0.334213	0.422591
H177	H	0.459035	-0.221497	-0.108757
H178	H	0.959035	0.278503	0.391243
N179	N	0.411003	0.181437	-0.124128
N180	N	0.911003	0.681437	0.375872
H181	H	0.428132	0.239430	-0.158511
H182	H	0.928132	0.739430	0.341489
H183	H	0.440477	0.182889	-0.060348
H184	H	0.940477	0.682889	0.439652
N185	N	1.222295	-0.000121	0.507427
N186	N	1.722295	0.499879	1.007427
H187	H	1.209542	-0.000119	0.572501
H188	H	1.709542	0.499881	1.072501
H189	H	1.255889	0.059060	0.495692
H190	H	1.755889	0.559060	0.995692
H191	H	0.577859	-0.065423	0.013217
H192	H	1.077859	0.434577	0.513217
H193	H	0.559256	-0.159043	-0.137637
H194	H	1.059256	0.340957	0.362363
N195	N	0.552426	-0.098899	-0.269691
N196	N	1.052426	0.401101	0.230309
H197	H	0.615413	-0.102962	-0.270233
H198	H	1.115413	0.397038	0.229767
H199	H	0.530283	-0.040285	-0.304617
H200	H	1.030283	0.459715	0.195383
N201	N	0.426737	0.085692	0.028734
N202	N	0.926737	0.585692	0.528734
H203	H	0.477766	0.126416	0.048400
H204	H	0.977766	0.626416	0.548400
H205	H	0.400556	0.063364	0.083877
H206	H	0.900556	0.563364	0.583877
N207	N	0.586295	0.086654	0.025972
N208	N	1.086295	0.586654	0.525972
H209	H	0.561363	0.146971	-0.003727
H210	H	1.061363	0.646971	0.496273
H211	H	0.649329	0.087169	0.025023
H212	H	1.149329	0.587169	0.525023
N213	N	0.392721	0.096609	-0.266964
N214	N	0.892721	0.596609	0.233036
H215	H	0.436738	0.098960	-0.310641
H216	H	0.936738	0.598960	0.189359
H217	H	0.356817	0.156355	-0.274204
H218	H	0.856817	0.656355	0.225796
N219	N	0.393072	-0.091223	-0.269422
N220	N	0.893072	0.408777	0.230578
H221	H	0.355092	-0.033410	-0.279760
H222	H	0.855092	0.466590	0.220240
H223	H	0.358657	-0.151751	-0.280193
H224	H	0.858657	0.348249	0.219807
