data_functionalizedCrystal
_audit_creation_method	'MofGen! by Chris Wilmer'
_symmetry_space_group_name_H-M	'P1'
_symmetry_Int_Tables_number	1
_symmetry_cell_setting	triclinic
loop_
_symmetry_equiv_pos_as_xyz
  x,y,z
_cell_length_a	19.077105
_cell_length_b	19.077114
_cell_length_c	19.076919
_cell_angle_alpha	85.527261
_cell_angle_beta	90.076224
_cell_angle_gamma	89.883258
loop_
_atom_site_label
_atom_site_type_symbol
_atom_site_fract_x
_atom_site_fract_y
_atom_site_fract_z
Zn1	Zn	1.044040	0.340451	-0.453511
Zn2	Zn	1.043950	0.453600	-0.340356
Zn3	Zn	0.931652	0.331023	-0.330942
Zn4	Zn	0.921790	0.453176	-0.453093
O5	O	0.985358	0.394563	-0.394476
O6	O	1.142187	0.359583	-0.442616
O7	O	1.033143	0.433573	-0.240631
O8	O	0.950725	0.233799	-0.343437
O9	O	1.142122	0.442714	-0.359482
O10	O	1.033296	0.240725	-0.433488
O11	O	0.950638	0.343516	-0.233715
O12	O	0.832184	0.343104	-0.343031
O13	O	0.933917	0.441990	-0.551624
O14	O	0.824939	0.432849	-0.432774
O15	O	1.023733	0.359172	-0.551932
O16	O	1.023581	0.552019	-0.359076
O17	O	0.933830	0.551707	-0.441902
C18	C	0.803110	0.386908	-0.386836
C19	C	0.725142	0.383651	-0.383585
C20	C	0.977644	0.577398	-0.401481
C21	C	0.974407	0.655619	-0.404504
C22	C	0.684758	0.428912	-0.428714
C23	C	0.611499	0.425842	-0.425662
C24	C	0.578625	0.377515	-0.377477
C25	C	0.619014	0.332250	-0.332346
C26	C	0.692271	0.335317	-0.335402
C27	C	0.359931	0.363323	-0.363339
C28	C	0.286668	0.360262	-0.360285
C29	C	0.279158	0.453853	-0.453602
C30	C	0.352418	0.456918	-0.456651
C31	C	0.392800	0.411651	-0.411522
N32	N	0.503743	0.374378	-0.374355
N33	N	0.467681	0.414785	-0.414648
C34	C	1.019648	0.692509	-0.362840
C35	C	1.016607	0.766007	-0.365688
C36	C	0.968322	0.802612	-0.410197
C37	C	0.923079	0.765717	-0.451866
C38	C	0.926123	0.692221	-0.449021
C39	C	0.954205	1.022407	-0.423328
C40	C	0.951163	1.095908	-0.426168
C41	C	1.044693	1.096193	-0.339990
C42	C	1.047730	1.022695	-0.337147
C43	C	1.002489	0.985806	-0.378818
N44	N	0.965211	0.877739	-0.413107
N45	N	1.005604	0.910682	-0.375911
C46	C	1.168318	0.402247	-0.402146
C47	C	1.246284	0.405522	-0.405414
C48	C	0.977735	0.401585	-0.578026
C49	C	0.974487	0.404578	-0.656244
C50	C	0.993114	1.211015	-0.387468
C51	C	0.996404	1.132798	-0.384504
C52	C	1.019721	0.362866	-0.693152
C53	C	1.016660	0.365675	-0.766646
C54	C	0.968368	0.410200	-0.803231
C55	C	0.923129	0.451913	-0.766317
C56	C	0.926187	0.449100	-0.692824
C57	C	0.954205	0.423233	-1.023013
C58	C	0.951152	0.426044	-1.096511
C59	C	1.044683	0.339806	-1.096835
C60	C	1.047739	0.337000	-1.023341
C61	C	1.002498	0.378710	-0.986434
N62	N	0.965240	0.413074	-0.878353
N63	N	1.005623	0.375832	-0.911312
C64	C	0.992994	0.387518	-0.211639
C65	C	0.996386	0.384333	-0.133419
H66	H	0.711519	0.468267	-0.467949
O67	O	0.587048	0.285399	-0.285470
C68	C	0.544853	0.321875	-0.239727
H69	H	0.564778	0.378045	-0.238329
H70	H	0.488331	0.322844	-0.259262
C71	C	0.523727	0.215541	-0.166978
C72	C	0.548203	0.284530	-0.165256
H73	H	0.525790	0.192504	-0.121041
H74	H	0.552152	0.190966	-0.197797
H75	H	0.476627	0.216359	-0.183260
H76	H	0.595305	0.283711	-0.148983
H77	H	0.519786	0.309104	-0.134432
O78	O	1.066586	0.656882	-0.319699
C79	C	1.111969	0.617760	-0.360051
H80	H	1.085428	0.607744	-0.411895
H81	H	1.162450	0.648517	-0.371100
C82	C	1.161799	0.559310	-0.255496
C83	C	1.129200	0.547003	-0.319169
H84	H	1.172431	0.515664	-0.230278
H85	H	1.131226	0.585668	-0.228309
H86	H	1.203863	0.584942	-0.264713
H87	H	1.087132	0.521379	-0.309952
H88	H	1.159766	0.520638	-0.346354
H89	H	1.081515	0.305847	-1.126893
H90	H	0.259904	0.320900	-0.321051
H91	H	0.883767	0.795527	-0.488109
H92	H	1.087048	0.992892	-0.300904
H93	H	0.911851	1.125711	-0.462425
O94	O	1.088571	1.131991	-0.299415
C95	C	1.076971	1.110742	-0.227931
H96	H	1.021921	1.088098	-0.221198
H97	H	1.117125	1.068933	-0.209494
C98	C	1.152035	1.202404	-0.192117
C99	C	1.084419	1.174599	-0.183847
H100	H	1.156632	1.241793	-0.164922
H101	H	1.159853	1.216719	-0.240277
H102	H	1.185489	1.167557	-0.176753
H103	H	1.050967	1.209443	-0.199219
H104	H	1.076596	1.160291	-0.135688
H105	H	0.917367	0.992378	-0.457257
H106	H	1.087066	0.300745	-0.993559
H107	H	0.889284	0.662186	-0.482950
H108	H	0.392802	0.326468	-0.326587
H109	H	1.059047	0.326612	-0.663371
O110	O	1.060675	0.325136	-0.802392
C111	C	1.103946	0.285226	-0.754342
H112	H	1.107332	0.312148	-0.703158
H113	H	1.080849	0.230401	-0.743403
C114	C	1.173678	0.246256	-0.848637
C115	C	1.177842	0.279326	-0.785774
H116	H	1.219260	0.242614	-0.868026
H117	H	1.144524	0.273142	-0.881010
H118	H	1.154428	0.200572	-0.839513
H119	H	1.197083	0.325013	-0.794901
H120	H	1.207001	0.252448	-0.753403
H121	H	0.917376	0.457207	-0.992973
O122	O	0.731397	0.291325	-0.291488
C123	C	0.686675	0.248003	-0.248313
H124	H	0.633341	0.274541	-0.244757
H125	H	0.680068	0.195259	-0.271797
C126	C	0.784298	0.203484	-0.178599
C127	C	0.718794	0.236081	-0.174227
H128	H	0.804111	0.196127	-0.132900
H129	H	0.814429	0.232669	-0.207688
H130	H	0.778783	0.159534	-0.198172
H131	H	0.724310	0.280033	-0.154662
H132	H	0.688664	0.206903	-0.145132
O133	O	1.060582	0.801731	-0.325143
C134	C	1.103860	0.753663	-0.285258
H135	H	1.077400	0.700000	-0.279569
H136	H	1.156370	0.749010	-0.312995
C137	C	1.148447	0.845843	-0.218894
C138	C	1.115945	0.779934	-0.211901
H139	H	1.155905	0.862049	-0.173645
H140	H	1.119292	0.878228	-0.245767
H141	H	1.192201	0.841956	-0.242011
H142	H	1.072188	0.783823	-0.188793
H143	H	1.145094	0.747550	-0.185023
O144	O	0.904175	0.469312	-1.131940
C145	C	0.864910	0.505537	-1.083607
H146	H	0.865875	0.474607	-1.030015
H147	H	0.888659	0.559763	-1.078909
C148	C	0.787449	0.551627	-1.175372
C149	C	0.788630	0.513635	-1.109551
H150	H	0.740397	0.556626	-1.191377
H151	H	0.813904	0.527225	-1.207936
H152	H	0.807243	0.596812	-1.171449
H153	H	0.768844	0.468449	-1.113477
H154	H	0.762170	0.538031	-1.076989
H155	H	0.889345	0.483058	-0.662774
O156	O	0.572376	0.469888	-0.469522
C157	C	0.617100	0.513194	-0.512711
H158	H	0.670413	0.516659	-0.486153
H159	H	0.623760	0.489893	-0.565547
C160	C	0.519463	0.583041	-0.557010
C161	C	0.584940	0.587301	-0.524388
H162	H	0.499624	0.628753	-0.564216
H163	H	0.489330	0.553864	-0.527915
H164	H	0.525022	0.563621	-0.601036
H165	H	0.579379	0.606713	-0.480359
H166	H	0.615071	0.616484	-0.553476
O167	O	0.384314	0.503790	-0.503558
C168	C	0.364141	0.490466	-0.572388
H169	H	0.346225	0.433550	-0.573039
H170	H	0.319267	0.527143	-0.590392
C171	C	0.448933	0.573159	-0.621573
C172	C	0.426933	0.503251	-0.622374
H173	H	0.487664	0.581049	-0.652408
H174	H	0.462522	0.582138	-0.575201
H175	H	0.411531	0.603715	-0.636575
H176	H	0.464331	0.472697	-0.607364
H177	H	0.413352	0.494268	-0.668744
O178	O	0.239826	0.497748	-0.497412
C179	C	0.168117	0.484693	-0.484374
H180	H	0.161350	0.429053	-0.458914
H181	H	0.147122	0.524071	-0.447563
C182	C	0.135602	0.560739	-0.585521
C183	C	0.127289	0.492399	-0.554256
H184	H	0.110416	0.565495	-0.628626
H185	H	0.183913	0.569536	-0.594304
H186	H	0.118106	0.593546	-0.554838
H187	H	0.144793	0.459594	-0.584935
H188	H	0.078980	0.483596	-0.545479
O189	O	0.876279	0.495147	-0.801963
C190	C	0.883267	0.488675	-0.874744
H191	H	0.937958	0.468288	-0.886175
H192	H	0.842379	0.450250	-0.892421
C193	C	0.805083	0.586090	-0.900886
C194	C	0.872258	0.561056	-0.914927
H195	H	0.798289	0.630736	-0.925674
H196	H	0.800372	0.590449	-0.851853
H197	H	0.771017	0.554062	-0.915618
H198	H	0.906322	0.593078	-0.900187
H199	H	0.876974	0.556704	-0.963959
