data_functionalizedCrystal
_audit_creation_method	'MofGen! by Chris Wilmer'
_symmetry_space_group_name_H-M	'P1'
_symmetry_Int_Tables_number	1
_symmetry_cell_setting	triclinic
loop_
_symmetry_equiv_pos_as_xyz
  x,y,z
_cell_length_a	18.215407
_cell_length_b	19.077068
_cell_length_c	18.215398
_cell_angle_alpha	92.270673
_cell_angle_beta	89.980536
_cell_angle_gamma	92.327501
loop_
_atom_site_label
_atom_site_type_symbol
_atom_site_fract_x
_atom_site_fract_y
_atom_site_fract_z
Zn1	Zn	1.113284	-0.280218	-0.427869
Zn2	Zn	1.108244	-0.397915	-0.309740
Zn3	Zn	0.990217	-0.280236	-0.304818
Zn4	Zn	0.985234	-0.397881	-0.432763
O5	O	1.049245	-0.339063	-0.368798
O6	O	1.215600	-0.295838	-0.412211
O7	O	1.092563	-0.382326	-0.206103
O8	O	1.010737	-0.181743	-0.317033
O9	O	1.211896	-0.382309	-0.325422
O10	O	1.101154	-0.181729	-0.407438
O11	O	1.005849	-0.295868	-0.202487
O12	O	0.886572	-0.295835	-0.321778
O13	O	1.002245	-0.382251	-0.535098
O14	O	0.882911	-0.382269	-0.415779
O15	O	1.096323	-0.295805	-0.531502
O16	O	1.087732	-0.496402	-0.330167
O17	O	0.997357	-0.496377	-0.420552
C18	C	0.858039	-0.339051	-0.368776
C19	C	0.776240	-0.339063	-0.368785
C20	C	0.586156	-0.384139	-0.417675
C21	C	0.509297	-0.384141	-0.417684
C22	C	0.513085	-0.293999	-0.319936
C23	C	0.589943	-0.293994	-0.319931
C24	C	0.626476	-0.339068	-0.368800
C25	C	0.472760	-0.339075	-0.368814
C26	C	0.389426	-0.339077	-0.368824
C27	C	0.709815	-0.339065	-0.368791
C28	C	1.041477	-0.521927	-0.376441
C29	C	1.038221	-0.600157	-0.379735
C30	C	1.083781	-0.636900	-0.334264
C31	C	1.080723	-0.710405	-0.337367
C32	C	1.032100	-0.747167	-0.385938
C33	C	0.986539	-0.710420	-0.431415
C34	C	0.989601	-0.636915	-0.428315
C35	C	1.017896	-0.967002	-0.400254
C36	C	1.014835	-1.040512	-0.403349
C37	C	1.109021	-1.040492	-0.309301
C38	C	1.112076	-0.966987	-0.306203
C39	C	1.066517	-0.930246	-0.351682
N40	N	1.028972	-0.822302	-0.389109
N41	N	1.069649	-0.855112	-0.348514
C42	C	1.241197	-0.339075	-0.368820
C43	C	1.322996	-0.339081	-0.368829
C44	C	1.049290	-0.339022	-0.560749
C45	C	1.049310	-0.339005	-0.642547
C46	C	1.057064	-0.155484	-0.361140
C47	C	1.060395	-0.077254	-0.357877
C48	C	1.094499	-0.383937	-0.909489
C49	C	1.094486	-0.383961	-0.832631
C50	C	1.004182	-0.293937	-0.828849
C51	C	1.004191	-0.293917	-0.905705
C52	C	1.049353	-0.338916	-0.946023
C53	C	1.049332	-0.338961	-0.792309
C54	C	1.049319	-0.338987	-0.708976
C55	C	1.049366	-0.338891	-1.029361
C56	C	1.049244	-0.339052	-0.177591
C57	C	1.049376	-0.338871	-0.095785
H58	H	1.117822	-0.740318	-0.300338
H59	H	1.131248	-0.420622	-0.802888
H60	H	0.622773	-0.257287	-0.280131
H61	H	0.483331	-0.257303	-0.280149
O62	O	0.621675	-0.427991	-0.465047
C63	C	0.664203	-0.473387	-0.424972
H64	H	0.640838	-0.477668	-0.367183
H65	H	0.723375	-0.451619	-0.421560
C66	C	0.690986	-0.541338	-0.534846
C67	C	0.662285	-0.546601	-0.463871
H68	H	0.689806	-0.586499	-0.558842
H69	H	0.662337	-0.510753	-0.561847
H70	H	0.740294	-0.523196	-0.531993
H71	H	0.612976	-0.564734	-0.466725
H72	H	0.690926	-0.577191	-0.436872
O73	O	1.131076	-0.601301	-0.287060
C74	C	1.170619	-0.649497	-0.247578
H75	H	1.170968	-0.701871	-0.279935
H76	H	1.143372	-0.657373	-0.191994
C77	C	1.249718	-0.556428	-0.196088
C78	C	1.250153	-0.620754	-0.235832
H79	H	1.298778	-0.538698	-0.188839
H80	H	1.223076	-0.523957	-0.222685
H81	H	1.227009	-0.563000	-0.149772
H82	H	1.272853	-0.614179	-0.282150
H83	H	1.276801	-0.653223	-0.209242
O84	O	1.159379	-0.931387	-0.259008
C85	C	1.198926	-0.979580	-0.219526
H86	H	1.199271	-1.031957	-0.251878
H87	H	1.171686	-0.987450	-0.163938
C88	C	1.278033	-0.886508	-0.168054
C89	C	1.278462	-0.950837	-0.207792
H90	H	1.327093	-0.868777	-0.160812
H91	H	1.251388	-0.854039	-0.194651
H92	H	1.255329	-0.893075	-0.121734
H93	H	1.301156	-0.944267	-0.254114
H94	H	1.305112	-0.983304	-0.181202
O95	O	0.470241	-0.427991	-0.465187
C96	C	0.518972	-0.467757	-0.508329
H97	H	0.573643	-0.470153	-0.478275
H98	H	0.528263	-0.442053	-0.563190
C99	C	0.418651	-0.539737	-0.558856
C100	C	0.485798	-0.542685	-0.521941
H101	H	0.398188	-0.585955	-0.567256
H102	H	0.385820	-0.512945	-0.529793
H103	H	0.426403	-0.518314	-0.604570
H104	H	0.478044	-0.564099	-0.476224
H105	H	0.518627	-0.569482	-0.550996
H106	H	1.146114	-1.070415	-0.272276
H107	H	0.975250	-1.070441	-0.442915
H108	H	0.967413	-0.257300	-0.796012
O109	O	0.973557	-0.931427	-0.444448
C110	C	0.929994	-0.979639	-0.487988
H111	H	0.925291	-1.032056	-0.460052
H112	H	0.956579	-0.987398	-0.544238
C113	C	0.858627	-0.886634	-0.531613
C114	C	0.852845	-0.951013	-0.497298
H115	H	0.811038	-0.868976	-0.537360
H116	H	0.887977	-0.854153	-0.502282
H117	H	0.880783	-0.893109	-0.578485
H118	H	0.830698	-0.944536	-0.450425
H119	H	0.823489	-0.983493	-0.526622
H120	H	0.946952	-0.740357	-0.470966
O121	O	0.945272	-0.601330	-0.472516
C122	C	0.901714	-0.649537	-0.516067
H123	H	0.896993	-0.701953	-0.488129
H124	H	0.928314	-0.657302	-0.572308
C125	C	0.830378	-0.556523	-0.559719
C126	C	0.824574	-0.620899	-0.525402
H127	H	0.782795	-0.538857	-0.565481
H128	H	0.859725	-0.524044	-0.530381
H129	H	0.852547	-0.563003	-0.606583
H130	H	0.802413	-0.614417	-0.478535
H131	H	0.795221	-0.653376	-0.554733
O132	O	1.138384	-0.427717	-0.948543
C133	C	1.178240	-0.467447	-0.899811
H134	H	1.147985	-0.469897	-0.845121
H135	H	1.235228	-0.441677	-0.890573
C136	C	1.222823	-0.539339	-1.000109
C137	C	1.185660	-0.542353	-0.932939
H138	H	1.227403	-0.585544	-1.020544
H139	H	1.195973	-0.512571	-1.032941
H140	H	1.270309	-0.517861	-0.992401
H141	H	1.138172	-0.563823	-0.940649
H142	H	1.212501	-0.569127	-0.900108
O143	O	0.960314	-0.250114	-0.941083
C144	C	0.920441	-0.210409	-0.889019
H145	H	0.950680	-0.207983	-0.834137
H146	H	0.863452	-0.236186	-0.881908
C147	C	0.875881	-0.138476	-0.983295
C148	C	0.913025	-0.135490	-0.915890
H149	H	0.871303	-0.092263	-0.999870
H150	H	0.902741	-0.165227	-1.018372
H151	H	0.828394	-0.159959	-0.977360
H152	H	0.960514	-0.114015	-0.921827
H153	H	0.886172	-0.108734	-0.880814
