data_functionalizedCrystal
_audit_creation_method	'MofGen! by Chris Wilmer'
_symmetry_space_group_name_H-M	'P1'
_symmetry_Int_Tables_number	1
_symmetry_cell_setting	triclinic
loop_
_symmetry_equiv_pos_as_xyz
  x,y,z
_cell_length_a	16.974800
_cell_length_b	19.188924
_cell_length_c	16.053802
_cell_angle_alpha	92.554672
_cell_angle_beta	91.074188
_cell_angle_gamma	83.266364
loop_
_atom_site_label
_atom_site_type_symbol
_atom_site_fract_x
_atom_site_fract_y
_atom_site_fract_z
O1	O	1.048768	0.089000	0.001457
O2	O	0.819269	0.099688	-0.014058
O3	O	0.940644	-0.007281	-0.005843
O4	O	0.927394	0.195970	-0.006759
O5	O	0.933963	-0.001417	0.132564
O6	O	0.812589	0.105552	0.124349
O7	O	1.042087	0.094864	0.139863
Zn8	Zn	0.926277	0.101139	0.154081
Zn9	Zn	0.935080	0.093413	-0.028276
O10	O	0.920713	0.201833	0.131648
C11	C	0.786568	0.102106	0.053160
C12	C	0.699081	0.100567	0.047246
C13	C	0.654342	0.103038	0.119915
C14	C	0.572140	0.101580	0.114361
C15	C	0.534677	0.097656	0.036137
C16	C	0.579422	0.095183	-0.036538
C17	C	0.661624	0.096635	-0.030982
C18	C	0.289223	0.092964	0.011432
C19	C	0.207015	0.091514	0.005882
C20	C	0.199739	0.097910	0.156782
C21	C	0.281941	0.099367	0.162330
C22	C	0.326680	0.096889	0.089656
N23	N	0.450653	0.096169	0.030457
N24	N	0.410703	0.098372	0.095336
C25	C	0.936875	-0.030362	0.063332
C26	C	0.935590	-0.107873	0.063247
C27	C	0.938632	-0.147471	-0.012239
C28	C	0.937413	-0.220299	-0.012328
C29	C	0.933168	-0.253529	0.063075
C30	C	0.930122	-0.213921	0.138571
C31	C	0.931332	-0.141093	0.138657
N32	N	0.973406	-0.370617	0.122130
N33	N	0.972258	-0.439801	0.122043
C34	C	0.929518	-0.472955	0.062821
N35	N	0.887980	-0.434313	0.003676
N36	N	0.889132	-0.365123	0.003761
C37	C	0.931854	-0.332498	0.062990
C38	C	0.931237	-0.591522	-0.012767
C39	C	0.930013	-0.664351	-0.012853
C40	C	0.922730	-0.657972	0.138048
C41	C	0.923946	-0.585144	0.138132
C42	C	0.928203	-0.551923	0.062722
C43	C	1.074789	0.092446	0.072643
C44	C	1.162277	0.093985	0.078551
C45	C	0.924482	0.224914	0.062471
C46	C	0.925767	0.302425	0.062550
N47	N	0.920276	0.106411	0.278535
N48	N	0.941087	0.088136	-0.152730
C49	C	0.971940	0.060912	0.325726
C50	C	0.967749	0.064606	0.412849
C51	C	0.911898	0.113804	0.452780
C52	C	0.860228	0.159305	0.405583
C53	C	0.864416	0.155607	0.318461
C54	C	0.893606	0.129939	0.712952
C55	C	0.889423	0.133635	0.800080
C56	C	0.996944	0.038935	0.807340
C57	C	1.001129	0.035244	0.720216
C58	C	0.949457	0.080742	0.673027
N59	N	0.907614	0.117583	0.541834
N60	N	0.953738	0.076960	0.583974
H61	H	0.176516	0.088321	-0.057820
H62	H	0.851534	0.166987	0.674536
H63	H	0.926663	-0.240981	0.199965
H64	H	0.843940	0.173701	0.832587
C65	C	1.062566	-0.018881	0.676299
N66	N	1.108842	-0.059649	0.643220
H67	H	0.698049	0.094624	-0.090157
C68	C	0.323144	0.103680	0.248383
N69	N	0.354178	0.106929	0.313199
C70	C	0.522928	0.104315	0.194303
N71	N	0.485862	0.106380	0.254519
C72	C	1.033381	0.006789	0.281810
N73	N	1.079657	-0.033979	0.248735
C74	C	0.918061	-0.694521	0.220993
N75	N	0.914542	-0.722052	0.283469
C76	C	0.920608	-0.541585	0.221174
N77	N	0.918093	-0.508777	0.283726
H78	H	0.942096	-0.120427	-0.073644
C79	C	0.338426	0.090233	-0.068513
N80	N	0.375488	0.088173	-0.128731
H81	H	0.163304	0.099926	0.215949
C82	C	0.798784	0.213417	0.449510
N83	N	0.752502	0.254175	0.482594
C84	C	0.538211	0.090864	-0.122586
N85	N	0.507171	0.087614	-0.187399
C86	C	1.024565	0.014536	0.464754
N87	N	1.067354	-0.023186	0.503848
C88	C	1.053773	-0.011116	0.859255
N89	N	1.096575	-0.048819	0.898358
H90	H	0.939885	-0.252545	-0.073800
C91	C	0.927991	-0.097534	0.221702
N92	N	0.925477	-0.064725	0.284253
C93	C	0.933400	-0.707913	-0.095896
N94	N	0.935966	-0.740727	-0.158444
C95	C	0.695543	0.107354	0.205969
N96	N	0.726574	0.110602	0.270787
C97	C	0.935909	-0.554976	-0.095719
N98	N	0.939425	-0.527451	-0.158200
C99	C	0.807588	0.205665	0.266552
N100	N	0.764783	0.243372	0.227455
