data_functionalizedCrystal
_audit_creation_method	'MofGen! by Chris Wilmer'
_symmetry_space_group_name_H-M	'P1'
_symmetry_Int_Tables_number	1
_symmetry_cell_setting	triclinic
loop_
_symmetry_equiv_pos_as_xyz
  x,y,z
_cell_length_a	14.044191
_cell_length_b	10.540510
_cell_length_c	13.101039
_cell_angle_alpha	93.398210
_cell_angle_beta	86.337551
_cell_angle_gamma	88.852544
loop_
_atom_site_label
_atom_site_type_symbol
_atom_site_fract_x
_atom_site_fract_y
_atom_site_fract_z
O1	O	1.264925	0.299890	-0.085154
O2	O	0.988883	0.288828	-0.085168
O3	O	1.133216	0.110288	-0.085160
O4	O	1.120591	0.478429	-0.085162
O5	O	1.122861	0.123121	0.085269
O6	O	0.978527	0.301661	0.085262
O7	O	1.254570	0.312723	0.085275
Zn8	Zn	1.114904	0.309229	0.112328
Zn9	Zn	1.128548	0.292321	-0.112220
O10	O	1.110236	0.491262	0.085268
C11	C	0.948358	0.290405	0.000045
C12	C	0.843036	0.275971	0.000040
C13	C	0.593257	0.351950	0.000050
C14	C	0.650201	0.249605	0.000049
C15	C	0.757504	0.264279	0.000044
C16	C	0.485944	0.337279	0.000055
C17	C	1.127098	0.069306	0.000052
C18	C	1.124284	-0.071929	0.000046
C19	C	1.224528	-0.279215	0.000441
C20	C	1.227554	-0.132345	0.000052
C21	C	1.077332	-0.129363	-0.097278
C22	C	1.075066	-0.276359	-0.097354
C23	C	1.061139	-0.261791	0.096456
C24	C	1.065960	-0.114858	0.097737
C25	C	1.295094	0.311145	0.000060
C26	C	1.400417	0.325578	0.000059
C27	C	1.116355	0.532244	0.000053
C28	C	1.119169	0.673479	0.000053
N29	N	1.105599	0.320769	0.265576
N30	N	1.137860	0.280772	-0.265468
C31	C	1.092940	0.336480	0.474618
C32	C	1.150517	0.265065	0.525496
C33	C	1.143473	0.273807	0.641814
C34	C	1.099983	0.327740	0.358289
H35	H	0.618371	0.150959	-0.000023
H36	H	1.273404	-0.104994	-0.069830
C37	C	1.319897	-0.243552	-0.153448
C38	C	1.284225	-0.339520	-0.093247
H39	H	1.356752	-0.280785	-0.211285
H40	H	1.268269	-0.195138	-0.175827
H41	H	1.358874	-0.189660	-0.114062
H42	H	1.245241	-0.393407	-0.132632
H43	H	1.335860	-0.387955	-0.070869
H44	H	1.205100	0.197360	0.481697
H45	H	0.625091	0.450583	0.000046
H46	H	1.038361	0.404183	0.518412
C47	C	0.952802	0.009170	-0.017579
C48	C	0.975000	-0.076132	-0.102183
H49	H	0.889628	0.042038	-0.020612
H50	H	0.957431	-0.033702	0.043732
H51	H	0.996284	0.077038	-0.018492
H52	H	0.931521	-0.144006	-0.101267
H53	H	0.970362	-0.033259	-0.163510
H54	H	0.998094	-0.307498	-0.101767
H55	H	1.264678	-0.093564	0.069816
H56	H	1.260520	-0.311845	0.070237
H57	H	1.089475	-0.295099	0.170227
C58	C	1.086359	-0.291734	-0.281334
C59	C	1.129811	-0.333119	-0.195555
H60	H	1.120163	-0.326766	-0.341958
H61	H	1.022204	-0.318784	-0.279821
H62	H	1.087256	-0.201582	-0.280403
H63	H	1.128907	-0.423271	-0.196482
H64	H	1.193982	-0.306076	-0.197068
C65	C	1.139406	-0.165594	0.251246
C66	C	1.111981	-0.063663	0.194935
H67	H	1.167827	-0.133981	0.311245
H68	H	1.084871	-0.212929	0.270077
H69	H	1.184134	-0.218990	0.210608
H70	H	1.067248	-0.010272	0.235571
H71	H	1.166523	-0.016307	0.176106
C72	C	1.071935	-0.021155	-0.253078
C73	C	1.132833	-0.090069	-0.195053
H74	H	1.106206	0.003107	-0.313435
H75	H	1.020148	-0.072546	-0.271321
H76	H	1.048163	0.052724	-0.213834
H77	H	1.156599	-0.163953	-0.234295
H78	H	1.184638	-0.038676	-0.176812
H79	H	0.983563	-0.291734	0.097107
H80	H	0.990207	-0.072974	0.103610
