data_functionalizedCrystal
_audit_creation_method	'MofGen! by Chris Wilmer'
_symmetry_space_group_name_H-M	'P1'
_symmetry_Int_Tables_number	1
_symmetry_cell_setting	triclinic
loop_
_symmetry_equiv_pos_as_xyz
  x,y,z
_cell_length_a	12.594517
_cell_length_b	21.295417
_cell_length_c	12.594509
_cell_angle_alpha	90.035198
_cell_angle_beta	90.021327
_cell_angle_gamma	90.029502
loop_
_atom_site_label
_atom_site_type_symbol
_atom_site_fract_x
_atom_site_fract_y
_atom_site_fract_z
Zn1	Zn	1.627166	-0.250594	0.601809
Zn2	Zn	1.627014	-0.355872	0.423808
Zn3	Zn	1.449170	-0.250621	0.423837
Zn4	Zn	1.449110	-0.355829	0.601738
O5	O	1.538115	-0.303229	0.512798
O6	O	1.776092	-0.264566	0.578214
O7	O	1.603385	-0.341940	0.274866
O8	O	1.472870	-0.162528	0.447487
O9	O	1.775980	-0.341914	0.447438
O10	O	1.603643	-0.162508	0.578242
O11	O	1.472723	-0.264612	0.274888
O12	O	1.300216	-0.264570	0.447419
O13	O	1.472767	-0.341839	0.750694
O14	O	1.300172	-0.341865	0.578122
O15	O	1.603585	-0.264524	0.750745
O16	O	1.603326	-0.443956	0.447370
O17	O	1.472621	-0.443924	0.578094
C18	C	1.261574	-0.303216	0.512767
C19	C	1.143269	-0.303226	0.512779
C20	C	1.074009	-0.261127	0.441825
C21	C	1.003175	-0.318547	0.415633
C22	C	1.003304	-0.245834	0.538989
C23	C	1.073993	-0.360676	0.486536
C24	C	1.074128	-0.287924	0.609937
C25	C	1.003326	-0.345384	0.583782
C26	C	1.537979	-0.466780	0.512744
C27	C	1.538019	-0.536748	0.512757
C28	C	1.606073	-0.569548	0.580889
C29	C	1.606111	-0.635290	0.580916
C30	C	1.538105	-0.668231	0.512790
C31	C	1.470037	-0.635424	0.444653
C32	C	1.469994	-0.569683	0.444636
N33	N	1.530063	-0.771497	0.419640
N34	N	1.530110	-0.833949	0.419659
C35	C	1.538229	-0.866306	0.512838
N36	N	1.546320	-0.833852	0.606001
N37	N	1.546278	-0.771395	0.605980
C38	C	1.538144	-0.739516	0.512801
C39	C	1.606328	-0.970390	0.581005
C40	C	1.606358	-1.036134	0.581033
C41	C	1.470290	-1.036266	0.444761
C42	C	1.470255	-0.970524	0.444742
C43	C	1.538279	-0.937590	0.512863
C44	C	1.815736	-0.303242	0.512830
C45	C	1.934041	-0.303247	0.512844
C46	C	1.538186	-0.303174	0.790419
C47	C	1.538217	-0.303150	0.908725
C48	C	1.538280	-0.139038	0.512876
C49	C	1.538351	-0.069070	0.512908
C50	C	1.538105	-0.303238	0.236257
C51	C	1.538281	-0.303084	0.117952
C52	C	1.467088	-0.345178	0.977950
C53	C	1.564202	-0.360559	1.048737
C54	C	1.441178	-0.287731	1.048737
C55	C	1.635382	-0.318561	0.977954
C56	C	1.512292	-0.245707	0.977947
C57	C	1.609474	-0.261066	1.048702
H58	H	1.105318	-0.274950	0.692049
H59	H	1.661460	-0.542735	0.636360
C60	C	1.115610	-0.213713	0.361817
C61	C	1.226766	-0.213909	0.363497
C62	C	1.265126	-0.170237	0.289816
H63	H	1.091424	-0.224642	0.292787
H64	H	1.090426	-0.173020	0.379742
H65	H	1.251940	-0.254592	0.345565
H66	H	1.250980	-0.202973	0.432509
H67	H	1.239943	-0.129544	0.307742
H68	H	1.240934	-0.181170	0.220792
H69	H	1.340549	-0.170359	0.290953
C70	C	1.331627	-0.270461	1.090050
C71	C	1.257457	-0.314645	1.054178
C72	C	1.156525	-0.298758	1.092200
H73	H	1.332453	-0.270197	1.165466
H74	H	1.312640	-0.229975	1.064741
H75	H	1.276439	-0.355121	1.079493
H76	H	1.256598	-0.314916	0.978767
H77	H	1.137538	-0.258272	1.066891
H78	H	1.157362	-0.298494	1.167615
H79	H	1.106187	-0.328731	1.067859
H80	H	1.586164	-0.409109	1.079832
H81	H	1.414575	-0.542977	0.389153
H82	H	0.972486	-0.381035	0.643813
C83	C	1.396547	-0.934828	0.370697
C84	C	1.456828	-0.897072	0.302543
C85	C	1.388959	-0.864174	0.234327
H86	H	1.356025	-0.963787	0.330024
H87	H	1.350149	-0.909152	0.411335
H88	H	1.503207	-0.922746	0.261909
H89	H	1.497349	-0.868102	0.343186
H90	H	1.342561	-0.838498	0.274965
H91	H	1.348440	-0.893138	0.193662
H92	H	1.429849	-0.838549	0.188083
H93	H	1.406983	-0.380775	0.946885
C94	C	1.396140	-0.671265	0.370859
C95	C	1.327932	-0.709030	0.431071
C96	C	1.259847	-0.742061	0.363130
H97	H	1.355500	-0.642385	0.330253
H98	H	1.436870	-0.696945	0.324542
H99	H	1.287207	-0.683353	0.477370
H100	H	1.368543	-0.737922	0.471675
H101	H	1.300576	-0.767741	0.316812
H102	H	1.219213	-0.713177	0.322527
H103	H	1.213566	-0.767693	0.403973
C104	C	1.396513	-1.071944	0.370627
C105	C	1.419715	-1.055980	0.265332
C106	C	1.351759	-1.088832	0.197014
H107	H	1.406217	-1.115805	0.380254
H108	H	1.324965	-1.061187	0.386073
H109	H	1.491246	-1.066742	0.249891
H110	H	1.410005	-1.012126	0.255671
H111	H	1.280211	-1.078075	0.212461
H112	H	1.361468	-1.132691	0.206651
H113	H	1.367485	-1.078001	0.125565
C114	C	1.482755	-0.181012	0.936498
C115	C	1.380998	-0.165145	0.972275
C116	C	1.353734	-0.105558	0.934098
H117	H	1.532497	-0.150963	0.961749
H118	H	1.483527	-0.181408	0.861070
H119	H	1.380235	-0.164745	1.047687
H120	H	1.331234	-0.195179	0.947026
H121	H	1.354506	-0.105954	0.858671
H122	H	1.403482	-0.075514	0.959353
H123	H	1.284687	-0.094787	0.958359
C124	C	1.680134	-1.071861	0.654972
C125	C	1.665591	-1.136484	0.640433
C126	C	1.733525	-1.169416	0.708537
H127	H	1.751693	-1.061134	0.639519
H128	H	1.664506	-1.061097	0.726493
H129	H	1.681226	-1.147244	0.568928
H130	H	1.594046	-1.147230	0.655894
H131	H	1.717897	-1.158652	0.780059
H132	H	1.805080	-1.158684	0.693079
H133	H	1.723660	-1.213266	0.698690
C134	C	0.962045	-0.181051	0.568374
C135	C	0.997882	-0.137160	0.493803
C136	C	0.959911	-0.077474	0.520837
H137	H	0.886629	-0.181532	0.568803
H138	H	0.987414	-0.169849	0.636868
H139	H	0.972508	-0.148358	0.425327
H140	H	1.073293	-0.136659	0.493364
H141	H	0.985280	-0.066273	0.589331
H142	H	0.884496	-0.077962	0.521266
H143	H	0.984228	-0.047686	0.470251
H144	H	1.661715	-0.943574	0.636477
H145	H	1.717497	-0.331630	0.946992
H146	H	1.669722	-0.225496	1.079572
C147	C	1.680107	-0.670797	0.654945
C148	C	1.739679	-0.627884	0.714587
C149	C	1.807857	-0.660568	0.782789
H150	H	1.639490	-0.696443	0.701380
H151	H	1.726580	-0.696427	0.614308
H152	H	1.693212	-0.602265	0.755221
H153	H	1.780317	-0.602237	0.668180
H154	H	1.854330	-0.686197	0.742152
H155	H	1.767232	-0.686212	0.829217
H156	H	1.848292	-0.631456	0.823257
H157	H	0.972010	-0.331503	0.333496
H158	H	1.104915	-0.409235	0.464304
