data_functionalizedCrystal
_audit_creation_method	'MofGen! by Chris Wilmer'
_symmetry_space_group_name_H-M	'P1'
_symmetry_Int_Tables_number	1
_symmetry_cell_setting	triclinic
loop_
_symmetry_equiv_pos_as_xyz
  x,y,z
_cell_length_a	17.019282
_cell_length_b	19.188928
_cell_length_c	16.098546
_cell_angle_alpha	92.718633
_cell_angle_beta	88.846283
_cell_angle_gamma	96.732812
loop_
_atom_site_label
_atom_site_type_symbol
_atom_site_fract_x
_atom_site_fract_y
_atom_site_fract_z
O1	O	1.046079	-0.089164	-0.005780
O2	O	0.817211	-0.099774	0.010643
O3	O	0.938249	0.007154	0.001937
O4	O	0.925040	-0.196091	0.002927
O5	O	0.931206	0.000910	-0.136069
O6	O	0.810168	-0.106018	-0.127363
O7	O	1.039035	-0.095408	-0.143786
Zn8	Zn	0.923483	-0.101704	-0.157486
Zn9	Zn	0.932763	-0.093477	0.024343
O10	O	0.917997	-0.202335	-0.135079
C11	C	0.784409	-0.102372	-0.056259
C12	C	0.697162	-0.100803	-0.049999
C13	C	0.652338	-0.103468	-0.122287
C14	C	0.570362	-0.101982	-0.116408
C15	C	0.533210	-0.097837	-0.038240
C16	C	0.578040	-0.095170	0.034054
C17	C	0.660015	-0.096650	0.028174
C18	C	0.285890	-0.093192	-0.016722
C19	C	0.203908	-0.091714	-0.010848
C20	C	0.196236	-0.098525	-0.161310
C21	C	0.278213	-0.100009	-0.167184
C22	C	0.323036	-0.097338	-0.094890
C23	C	0.449417	-0.096321	-0.032228
C24	C	0.406828	-0.098850	-0.100902
C25	C	0.934300	0.030045	-0.067039
C26	C	0.933016	0.107555	-0.066958
C27	C	1.004038	0.152130	-0.072060
C28	C	1.002832	0.224960	-0.071964
C29	C	0.930601	0.253212	-0.066781
C30	C	0.859570	0.208627	-0.061674
C31	C	0.860778	0.135799	-0.061762
N32	N	0.872992	0.359363	-0.109791
N33	N	0.871850	0.428547	-0.109709
C34	C	0.926958	0.472639	-0.066514
N35	N	0.983264	0.444933	-0.023414
N36	N	0.984408	0.375743	-0.023500
C37	C	0.929283	0.332181	-0.066685
C38	C	0.996678	0.596185	-0.071511
C39	C	0.995470	0.669016	-0.071409
C40	C	0.852205	0.652681	-0.061127
C41	C	0.853416	0.579852	-0.061221
C42	C	0.925654	0.551608	-0.066417
C43	C	1.071838	-0.092809	-0.076882
C44	C	1.159085	-0.094378	-0.083136
N45	N	0.917156	-0.107319	-0.281580
C46	C	0.921948	0.774774	-0.066113
C47	C	0.923238	0.697263	-0.066225
C48	C	0.887711	-0.133231	-0.804281
C49	C	0.892154	-0.129317	-0.717411
C50	C	0.947988	-0.080032	-0.677827
C51	C	0.999376	-0.034654	-0.725116
C52	C	0.994928	-0.038565	-0.811983
C53	C	0.964096	-0.065852	-0.415736
C54	C	0.968542	-0.061945	-0.328862
C55	C	0.861318	-0.156607	-0.321164
C56	C	0.856879	-0.160517	-0.408034
C57	C	0.908264	-0.115137	-0.455315
C58	C	0.952533	-0.076032	-0.589033
C59	C	0.903715	-0.119134	-0.544107
N60	N	0.939097	-0.087858	0.148437
H61	H	0.159733	-0.100698	-0.220168
Br62	Br	1.099226	0.285467	-0.078885
Br63	Br	0.754175	0.691015	-0.054086
Br64	Br	0.827938	-0.186015	-0.597829
Br65	Br	1.033833	-0.004267	-0.479898
Br66	Br	0.757024	0.519353	-0.054297
Br67	Br	1.091866	0.729514	-0.078325
Br68	Br	0.761541	0.246966	-0.054630
H69	H	1.036771	-0.001617	-0.850480
Br70	Br	0.153487	-0.086092	0.095245
Br71	Br	0.811938	-0.200126	-0.857994
Br72	Br	0.781107	-0.227406	-0.461757
H73	H	0.682580	-0.106849	-0.185940
H74	H	1.062860	0.129139	-0.076288
H75	H	0.850312	-0.166263	-0.678914
H76	H	0.802942	0.099505	-0.057607
H77	H	0.533872	-0.104141	-0.175273
H78	H	1.055499	0.573188	-0.075738
H79	H	0.419159	-0.092945	0.031416
H80	H	0.308457	-0.103381	-0.230836
H81	H	0.322376	-0.091015	0.042144
H82	H	0.819482	-0.193553	-0.282660
Br83	Br	1.044326	0.004944	-0.275146
H84	H	0.547785	-0.091790	0.097700
H85	H	0.696510	-0.094482	0.087039
H86	H	0.437082	-0.102221	-0.164546
H87	H	1.044835	0.005478	-0.692881
H88	H	0.997995	-0.035904	-0.556796
