data_functionalizedCrystal
_audit_creation_method	'MofGen! by Chris Wilmer'
_symmetry_space_group_name_H-M	'P1'
_symmetry_Int_Tables_number	1
_symmetry_cell_setting	triclinic
loop_
_symmetry_equiv_pos_as_xyz
  x,y,z
_cell_length_a	14.908979
_cell_length_b	25.639239
_cell_length_c	25.639233
_cell_angle_alpha	89.981253
_cell_angle_beta	93.280764
_cell_angle_gamma	93.340522
loop_
_atom_site_label
_atom_site_type_symbol
_atom_site_fract_x
_atom_site_fract_y
_atom_site_fract_z
Zn1	Zn	1.379047	-0.162042	-0.249556
Zn2	Zn	1.712380	0.171291	0.083777
Zn3	Zn	2.045714	0.504625	0.417111
Zn4	Zn	1.378915	-0.249465	-0.162125
Zn5	Zn	1.712248	0.083868	0.171208
Zn6	Zn	2.045582	0.417201	0.504542
Zn7	Zn	1.228199	-0.167092	-0.167172
Zn8	Zn	1.561533	0.166241	0.166161
Zn9	Zn	1.894866	0.499575	0.499494
Zn10	Zn	1.228105	-0.254502	-0.254566
Zn11	Zn	1.561438	0.078831	0.078768
Zn12	Zn	1.894771	0.412165	0.412101
O13	O	1.303567	-0.208275	-0.208355
O14	O	1.636900	0.125058	0.124979
O15	O	1.970233	0.458391	0.458312
O16	O	1.505275	-0.169418	-0.233749
O17	O	1.838608	0.163916	0.099584
O18	O	2.171941	0.497249	0.432917
O19	O	1.358907	-0.238544	-0.089630
O20	O	1.692240	0.094790	0.243704
O21	O	2.025573	0.428123	0.577037
O22	O	1.248304	-0.093254	-0.178117
O23	O	1.581638	0.240080	0.155217
O24	O	1.914971	0.573413	0.488550
O25	O	1.505178	-0.233647	-0.169514
O26	O	1.838511	0.099686	0.163819
O27	O	2.171844	0.433019	0.497153
O28	O	1.359132	-0.089544	-0.238644
O29	O	1.692465	0.243790	0.094690
O30	O	2.025798	0.577123	0.428023
O31	O	1.248176	-0.178024	-0.093338
O32	O	1.581510	0.155309	0.239995
O33	O	1.914843	0.488642	0.573329
O34	O	1.101942	-0.182908	-0.182974
O35	O	1.435275	0.150425	0.150359
O36	O	1.768608	0.483758	0.483693
O37	O	1.248143	-0.242232	-0.327066
O38	O	1.581476	0.091102	0.006267
O39	O	1.914810	0.424435	0.339601
O40	O	1.101872	-0.247128	-0.247182
O41	O	1.435205	0.086205	0.086152
O42	O	1.768539	0.419538	0.419485
O43	O	1.359040	-0.174302	-0.323385
O44	O	1.692373	0.159032	0.009948
O45	O	2.025707	0.492365	0.343281
O46	O	1.358815	-0.323302	-0.174372
O47	O	1.692148	0.010031	0.158962
O48	O	2.025482	0.343365	0.492295
O49	O	1.248015	-0.327002	-0.242287
O50	O	1.581348	0.006331	0.091046
O51	O	1.914682	0.339664	0.424379
C52	C	1.069173	-0.216113	-0.216169
C53	C	1.402506	0.117220	0.117164
C54	C	1.735840	0.450553	0.450497
C55	C	0.968898	-0.219479	-0.219525
C56	C	1.302232	0.113855	0.113808
C57	C	1.635565	0.447188	0.447142
C58	C	1.303415	-0.344123	-0.208336
C59	C	1.636748	-0.010790	0.124997
C60	C	1.970081	0.322544	0.458331
C61	C	1.303432	-0.402237	-0.208343
C62	C	1.636766	-0.068903	0.124991
C63	C	1.970099	0.264430	0.458324
C64	C	0.827553	-0.257709	-0.257624
C65	C	1.160887	0.075624	0.075710
C66	C	1.494220	0.408958	0.409043
C67	C	0.921770	-0.254547	-0.254475
C68	C	1.255104	0.078786	0.078858
C69	C	1.588437	0.412120	0.412191
C70	C	0.921803	-0.187571	-0.187720
C71	C	1.255136	0.145762	0.145614
C72	C	1.588469	0.479095	0.478947
C73	C	0.827586	-0.190733	-0.190868
C74	C	1.160919	0.142600	0.142465
C75	C	1.494252	0.475933	0.475799
C76	C	0.780464	-0.225803	-0.225822
C77	C	1.113798	0.107530	0.107512
C78	C	1.447131	0.440864	0.440845
C79	C	0.686246	-0.228962	-0.228972
C80	C	1.019579	0.104371	0.104361
C81	C	1.352912	0.437705	0.437694
C82	C	0.686280	-0.161989	-0.162214
C83	C	1.019613	0.171344	0.171119
C84	C	1.352946	0.504677	0.504453
C85	C	0.780497	-0.158827	-0.159066
C86	C	1.113830	0.174506	0.174268
C87	C	1.447163	0.507840	0.507601
C88	C	1.361411	-0.760651	-0.173043
C89	C	1.694744	-0.427317	0.160290
C90	C	2.028077	-0.093984	0.493624
C91	C	1.361445	-0.815254	-0.173049
C92	C	1.694779	-0.481920	0.160285
C93	C	2.028112	-0.148587	0.493618
O94	O	1.410583	-0.841839	-0.143015
O95	O	1.743916	-0.508505	0.190319
O96	O	2.077250	-0.175172	0.523652
N97	N	1.303725	-0.844509	-0.208384
N98	N	1.637058	-0.511176	0.124949
N99	N	1.970392	-0.177842	0.458283
C100	C	1.245972	-0.819158	-0.243719
C101	C	1.579306	-0.485825	0.089614
C102	C	1.912639	-0.152492	0.422947
O103	O	1.196880	-0.849056	-0.273776
O104	O	1.530214	-0.515723	0.059558
O105	O	1.863547	-0.182390	0.392891
C106	C	1.245943	-0.764556	-0.243716
C107	C	1.579276	-0.431223	0.089618
C108	C	1.912609	-0.097889	0.422951
C109	C	1.303660	-0.735304	-0.208375
C110	C	1.636994	-0.401970	0.124959
C111	C	1.970327	-0.068637	0.458292
C112	C	1.419124	-0.731398	-0.137705
C113	C	1.752458	-0.398065	0.195628
C114	C	2.085791	-0.064732	0.528962
C115	C	1.419088	-0.676799	-0.137699
C116	C	1.752421	-0.343466	0.195635
C117	C	2.085755	-0.010132	0.528968
C118	C	1.361338	-0.651452	-0.173030
C119	C	1.694671	-0.318119	0.160303
C120	C	2.028004	0.015215	0.493636
C121	C	1.303624	-0.680704	-0.208368
C122	C	1.636957	-0.347371	0.124965
C123	C	1.970291	-0.014038	0.458298
C124	C	1.188195	-0.739206	-0.279053
C125	C	1.521529	-0.405873	0.054280
C126	C	1.854862	-0.072540	0.387614
C127	C	1.188171	-0.684600	-0.279047
C128	C	1.521504	-0.351267	0.054287
C129	C	1.854838	-0.017933	0.387620
C130	C	1.245889	-0.655348	-0.243705
C131	C	1.579222	-0.322014	0.089628
C132	C	1.912555	0.011319	0.422961
C133	C	1.245837	-0.600758	-0.243693
C134	C	1.579171	-0.267425	0.089640
C135	C	1.912504	0.065909	0.422973
N136	N	1.303558	-0.571503	-0.208358
N137	N	1.636891	-0.238169	0.124975
N138	N	1.970225	0.095164	0.458309
C139	C	1.361308	-0.596850	-0.173027
C140	C	1.694641	-0.263516	0.160307
C141	C	2.027975	0.069817	0.493640
C142	C	1.246040	-0.933827	-0.243725
C143	C	1.579374	-0.600493	0.089608
C144	C	1.912707	-0.267160	0.422941
C145	C	1.246065	-0.988428	-0.243727
C146	C	1.579398	-0.655095	0.089606
C147	C	1.912732	-0.321762	0.422940
C148	C	1.361539	-0.984520	-0.173057
C149	C	1.694873	-0.651186	0.160277
C150	C	2.028206	-0.317853	0.493610
C151	C	1.361510	-0.929917	-0.173053
C152	C	1.694843	-0.596584	0.160280
C153	C	2.028176	-0.263251	0.493614
C154	C	1.303761	-0.904571	-0.208390
C155	C	1.637094	-0.571238	0.124943
C156	C	1.970427	-0.237905	0.458277
C157	C	1.361227	-0.482187	-0.173016
C158	C	1.694560	-0.148854	0.160318
C159	C	2.027893	0.184479	0.493651
C160	C	1.361183	-0.427583	-0.173011
C161	C	1.694516	-0.094250	0.160322
C162	C	2.027849	0.239083	0.493656
C163	C	1.245712	-0.431497	-0.243683
C164	C	1.579045	-0.098163	0.089651
C165	C	1.912378	0.235170	0.422984
C166	C	1.245752	-0.486096	-0.243686
C167	C	1.579086	-0.152763	0.089648
C168	C	1.912419	0.180571	0.422981
C169	C	1.303517	-0.511440	-0.208350
C170	C	1.636850	-0.178106	0.124983
C171	C	1.970184	0.155227	0.458316
O172	O	1.196727	-0.574138	-0.273714
O173	O	1.530061	-0.240804	0.059620
O174	O	1.863394	0.092529	0.392953
O175	O	1.410400	-0.566945	-0.142980
O176	O	1.743733	-0.233612	0.190353
O177	O	2.077067	0.099722	0.523687
C178	C	1.538875	-0.200407	-0.200510
C179	C	1.872209	0.132926	0.132823
C180	C	2.205542	0.466259	0.466157
C181	C	1.639150	-0.197055	-0.197167
C182	C	1.972483	0.136279	0.136167
C183	C	2.305817	0.469612	0.469500
C184	C	1.303596	-0.208265	-0.344727
C185	C	1.636929	0.125068	-0.011393
C186	C	1.970262	0.458401	0.321940
C187	C	1.303608	-0.208261	-0.402840
C188	C	1.636941	0.125072	-0.069507
C189	C	1.970275	0.458406	0.263826
C190	C	1.303743	-0.071896	-0.208384
C191	C	1.637077	0.261437	0.124949
C192	C	1.970410	0.594770	0.458282
C193	C	1.303819	-0.013780	-0.208397
C194	C	1.637152	0.319553	0.124936
C195	C	1.970485	0.652887	0.458270
C196	C	1.361425	-0.172788	-0.761290
C197	C	1.694759	0.160545	-0.427957
C198	C	2.028092	0.493879	-0.094624
C199	C	1.361436	-0.172773	-0.815894
C200	C	1.694770	0.160560	-0.482561
C201	C	2.028103	0.493893	-0.149228
O202	O	1.410522	-0.142677	-0.842507
O203	O	1.743855	0.190656	-0.509174
O204	O	2.077188	0.523990	-0.175840
N205	N	1.303707	-0.208135	-0.845120
N206	N	1.637041	0.125198	-0.511787
N207	N	1.970374	0.458532	-0.178453
C208	C	1.245957	-0.243510	-0.819739
C209	C	1.579291	0.089823	-0.486405
C210	C	1.912624	0.423156	-0.153072
O211	O	1.196855	-0.273587	-0.849611
O212	O	1.530188	0.059747	-0.516278
O213	O	1.863521	0.393080	-0.182945
C214	C	1.245942	-0.243522	-0.765136
C215	C	1.579276	0.089811	-0.431803
C216	C	1.912609	0.423144	-0.098469
C217	C	1.303681	-0.208162	-0.735913
C218	C	1.637015	0.125172	-0.402580
C219	C	1.970348	0.458505	-0.069246
C220	C	1.419159	-0.137430	-0.732068
C221	C	1.752492	0.195903	-0.398734
C222	C	2.085826	0.529237	-0.065401
C223	C	1.419149	-0.137445	-0.677467
C224	C	1.752482	0.195888	-0.344134
C225	C	2.085815	0.529221	-0.010801
C226	C	1.361405	-0.172819	-0.652090
C227	C	1.694738	0.160514	-0.318757
C228	C	2.028072	0.493847	0.014577
C229	C	1.303671	-0.208177	-0.681313
C230	C	1.637004	0.125156	-0.347979
C231	C	1.970338	0.458489	-0.014646
C232	C	1.188188	-0.278895	-0.739756
C233	C	1.521521	0.054438	-0.406423
C234	C	1.854855	0.387772	-0.073089
C235	C	1.188178	-0.278904	-0.685149
C236	C	1.521511	0.054430	-0.351816
C237	C	1.854844	0.387763	-0.018483
C238	C	1.245917	-0.243543	-0.655926
C239	C	1.579250	0.089790	-0.322593
C240	C	1.912583	0.423124	0.010740
C241	C	1.245917	-0.243567	-0.601335
C242	C	1.579250	0.089767	-0.268002
C243	C	1.912584	0.423100	0.065332
N244	N	1.303646	-0.208205	-0.572110
N245	N	1.636979	0.125128	-0.238776
N246	N	1.970313	0.458462	0.094557
C247	C	1.361390	-0.172831	-0.597487
C248	C	1.694723	0.160502	-0.264154
C249	C	2.028057	0.493835	0.069179
C250	C	1.245992	-0.243482	-0.934408
C251	C	1.579325	0.089851	-0.601075
C252	C	1.912659	0.423185	-0.267742
C253	C	1.246011	-0.243473	-0.989010
C254	C	1.579344	0.089860	-0.655677
C255	C	1.912678	0.423194	-0.322343
C256	C	1.361489	-0.172735	-0.985162
C257	C	1.694822	0.160598	-0.651829
C258	C	2.028156	0.493932	-0.318495
C259	C	1.361474	-0.172747	-0.930559
C260	C	1.694807	0.160586	-0.597226
C261	C	2.028141	0.493920	-0.263892
C262	C	1.303721	-0.208120	-0.905183
C263	C	1.637054	0.125213	-0.571850
C264	C	1.970388	0.458546	-0.238516
C265	C	1.361365	-0.172867	-0.482823
C266	C	1.694698	0.160466	-0.149490
C267	C	2.028031	0.493800	0.183844
C268	C	1.361352	-0.172887	-0.428218
C269	C	1.694685	0.160446	-0.094885
C270	C	2.028019	0.493779	0.238449
C271	C	1.245871	-0.243623	-0.432071
C272	C	1.579204	0.089710	-0.098738
C273	C	1.912537	0.423043	0.234596
C274	C	1.245886	-0.243605	-0.486671
C275	C	1.579220	0.089728	-0.153338
C276	C	1.912553	0.423062	0.179996
C277	C	1.303636	-0.208223	-0.512046
C278	C	1.636970	0.125111	-0.178712
C279	C	1.970303	0.458444	0.154621
O280	O	1.196854	-0.273646	-0.574687
O281	O	1.530187	0.059687	-0.241354
O282	O	1.863521	0.393020	0.091979
O283	O	1.410476	-0.142755	-0.567609
O284	O	1.743809	0.190578	-0.234275
O285	O	2.077142	0.523911	0.099058
C286	C	1.303589	-0.208246	-0.072512
C287	C	1.636923	0.125087	0.260822
C288	C	1.970256	0.458421	0.594155
C289	C	1.303752	-0.208097	-0.014392
C290	C	1.637085	0.125236	0.318941
C291	C	1.970419	0.458569	0.652274
H292	H	0.647881	-0.257515	-0.257436
H293	H	0.981214	0.075818	0.075898
H294	H	1.314547	0.409151	0.409231
H295	H	1.466164	-0.108650	-0.653679
H296	H	1.799498	0.224683	-0.320346
H297	H	2.132831	0.558016	0.012988
Br298	Br	1.109796	-0.650205	-0.327009
Br299	Br	1.443130	-0.316872	0.006325
Br300	Br	1.776463	0.016462	0.339658
Br301	Br	0.985768	-0.139986	-0.140281
Br302	Br	1.319102	0.193348	0.193052
Br303	Br	1.652435	0.526681	0.526385
Br304	Br	1.167344	-0.397087	-0.291632
Br305	Br	1.500677	-0.063753	0.041701
Br306	Br	1.834011	0.269580	0.375034
Br307	Br	1.167665	-0.291474	-1.028662
Br308	Br	1.500998	0.041860	-0.695329
Br309	Br	1.834331	0.375193	-0.361996
H310	H	1.466089	-0.652984	-0.108922
H311	H	1.799422	-0.319651	0.224411
H312	H	2.132756	0.013682	0.557744
Br313	Br	0.763598	-0.305294	-0.305067
Br314	Br	1.096932	0.028039	0.028266
Br315	Br	1.430265	0.361373	0.361600
H316	H	1.199007	-0.913193	-0.272500
H317	H	1.532340	-0.579860	0.060834
H318	H	1.865673	-0.246527	0.394167
Br319	Br	1.167533	-0.291598	-0.526332
Br320	Br	1.500866	0.041735	-0.192998
Br321	Br	1.834199	0.375068	0.140335
Br322	Br	1.109868	-0.778892	-0.327025
Br323	Br	1.443202	-0.445559	0.006309
Br324	Br	1.776535	-0.112225	0.339642
Br325	Br	1.439912	-1.018930	-0.125104
Br326	Br	1.773245	-0.685596	0.208229
Br327	Br	2.106578	-0.352263	0.541563
Br328	Br	1.439721	-0.124897	-0.388561
Br329	Br	1.773054	0.208437	-0.055228
Br330	Br	2.106388	0.541770	0.278106
H331	H	1.198757	-0.509914	-0.272465
H332	H	1.532090	-0.176581	0.060868
H333	H	1.865423	0.156752	0.394202
H334	H	1.198860	-0.272425	-0.411399
H335	H	1.532193	0.060908	-0.078065
H336	H	1.865527	0.394242	0.255268
Br337	Br	1.439734	-0.124844	-0.517252
Br338	Br	1.773067	0.208489	-0.183918
Br339	Br	2.106400	0.541822	0.149415
Br340	Br	1.439837	-0.124756	-0.890905
Br341	Br	1.773170	0.208577	-0.557572
Br342	Br	2.106503	0.541911	-0.224238
Br343	Br	1.167717	-1.028122	-0.291685
Br344	Br	1.501051	-0.694789	0.041649
Br345	Br	1.834384	-0.361455	0.374982
Br346	Br	1.167611	-0.291497	-0.899975
Br347	Br	1.500944	0.041837	-0.566641
Br348	Br	1.834277	0.375170	-0.233308
H349	H	1.466181	-0.108621	-0.752724
H350	H	1.799515	0.224712	-0.419391
H351	H	2.132848	0.558045	-0.086057
H352	H	0.818876	-0.130276	-0.130606
H353	H	1.152209	0.203057	0.202727
H354	H	1.485542	0.536391	0.536061
Br355	Br	1.439857	-0.124727	-1.019613
Br356	Br	1.773190	0.208606	-0.686280
Br357	Br	2.106523	0.541940	-0.352947
H358	H	1.141170	-0.307689	-0.763540
H359	H	1.474504	0.025644	-0.430207
H360	H	1.807837	0.358977	-0.096874
Br361	Br	1.109790	-0.326911	-0.650714
Br362	Br	1.443124	0.006422	-0.317380
Br363	Br	1.776457	0.339755	0.015953
H364	H	0.960107	-0.280529	-0.280372
H365	H	1.293440	0.052805	0.052962
H366	H	1.626773	0.386138	0.386295
H367	H	0.647930	-0.136007	-0.136320
H368	H	0.981263	0.197327	0.197013
H369	H	1.314597	0.530660	0.530346
Br370	Br	1.439622	-0.516574	-0.125060
Br371	Br	1.772956	-0.183241	0.208273
Br372	Br	2.106289	0.150093	0.541607
Br373	Br	1.439517	-0.387887	-0.125044
Br374	Br	1.772851	-0.054553	0.208290
Br375	Br	2.106184	0.278780	0.541623
H376	H	1.466156	-0.752029	-0.108933
H377	H	1.799490	-0.418696	0.224400
H378	H	2.132823	-0.085363	0.557733
Br379	Br	1.439843	-0.890223	-0.125088
Br380	Br	1.773176	-0.556890	0.208245
Br381	Br	2.106509	-0.223557	0.541579
