data_functionalizedCrystal
_audit_creation_method	'MofGen! by Chris Wilmer'
_symmetry_space_group_name_H-M	'P1'
_symmetry_Int_Tables_number	1
_symmetry_cell_setting	triclinic
loop_
_symmetry_equiv_pos_as_xyz
  x,y,z
_cell_length_a	12.645331
_cell_length_b	19.120786
_cell_length_c	12.645323
_cell_angle_alpha	92.471912
_cell_angle_beta	90.022676
_cell_angle_gamma	92.464092
loop_
_atom_site_label
_atom_site_type_symbol
_atom_site_fract_x
_atom_site_fract_y
_atom_site_fract_z
Zn1	Zn	1.602667	-0.279644	0.581385
Zn2	Zn	1.594961	-0.397110	0.396539
Zn3	Zn	1.425380	-0.279668	0.404128
Zn4	Zn	1.417779	-0.397064	0.573757
O5	O	1.510197	-0.338371	0.488952
O6	O	1.749992	-0.295235	0.556881
O7	O	1.572422	-0.381560	0.249196
O8	O	1.455304	-0.181374	0.434010
O9	O	1.744330	-0.381537	0.421075
O10	O	1.585556	-0.181357	0.564240
O11	O	1.447832	-0.295276	0.254772
O12	O	1.276025	-0.295231	0.426613
O13	O	1.442349	-0.381459	0.723118
O14	O	1.270441	-0.381482	0.551239
O15	O	1.578185	-0.295191	0.728723
O16	O	1.565051	-0.495394	0.413678
O17	O	1.434876	-0.495360	0.543880
C18	C	1.234768	-0.338355	0.488923
C19	C	1.116938	-0.338364	0.488934
C20	C	0.952868	-0.283855	0.411000
C21	C	1.075418	-0.283996	0.410632
C22	C	1.067638	-0.412356	0.453640
C23	C	0.945059	-0.412058	0.453104
C24	C	0.951001	-0.319586	0.602431
C25	C	1.073714	-0.317933	0.601914
C26	C	1.498332	-0.520863	0.477151
C27	C	1.493352	-0.598933	0.472138
C28	C	1.558778	-0.635541	0.537642
C29	C	1.554095	-0.708897	0.532933
C30	C	1.483992	-0.745643	0.462715
C31	C	1.418559	-0.709030	0.397208
C32	C	1.423237	-0.635675	0.401923
C33	C	1.466472	-0.967129	0.445089
C34	C	1.461801	-1.040488	0.440377
C35	C	1.597336	-1.040351	0.576104
C36	C	1.602013	-0.966995	0.580808
C37	C	1.536576	-0.930388	0.515306
C38	C	1.479206	-0.820624	0.457898
C39	C	1.541357	-0.855408	0.520129
C40	C	1.786701	-0.338389	0.488982
C41	C	1.904531	-0.338396	0.488995
C42	C	1.510279	-0.338317	0.765461
C43	C	1.510313	-0.338294	0.883293
C44	C	1.522138	-0.155167	0.500823
C45	C	1.527226	-0.077097	0.505881
C46	C	1.510180	-0.338375	0.213522
C47	C	1.510363	-0.338200	0.095704
C48	C	1.424622	-0.392309	1.047348
C49	C	1.424820	-0.392577	0.924770
C50	C	1.620715	-0.358383	0.926515
C51	C	1.620243	-0.358722	1.049092
C52	C	1.486678	-0.263887	1.055296
C53	C	1.484157	-0.264333	0.932661
H54	H	0.921226	-0.296149	0.327535
H55	H	1.413193	-0.937329	0.391753
C56	C	1.113891	-0.300795	0.297202
N57	N	1.142867	-0.313451	0.211762
C58	C	0.913898	-0.247964	0.644543
N59	N	0.885955	-0.194014	0.676248
C60	C	1.313473	-0.375486	1.088241
N61	N	1.229753	-0.362813	1.119051
C62	C	1.314019	-0.375591	0.885198
N63	N	1.230558	-0.362800	0.855398
H64	H	1.659096	-0.937078	0.637985
C65	C	1.648112	-0.432113	1.083006
N66	N	1.669099	-0.487394	1.108545
C67	C	1.111907	-0.367690	0.685143
N68	N	1.140671	-0.405174	0.747828
C69	C	1.351265	-0.595407	0.329863
N70	N	1.297050	-0.565077	0.275587
H71	H	1.598432	-0.825487	0.577305
H72	H	0.912700	-0.454071	0.507175
C73	C	1.669304	-1.080624	0.648159
N74	N	1.723510	-1.110959	0.702438
C75	C	1.341508	-0.749453	0.319903
N76	N	1.283499	-0.779899	0.261648
C77	C	1.571126	-0.209426	1.098006
N78	N	1.634735	-0.168411	1.130178
C79	C	1.445009	-0.466273	1.084189
N80	N	1.460373	-0.521983	1.111933
C81	C	0.904966	-0.433599	0.340878
N82	N	0.874773	-0.449821	0.256345
C83	C	1.445398	-0.467006	0.880357
N84	N	1.460877	-0.523073	0.846905
C85	C	1.562862	-0.206986	0.894978
N86	N	1.622145	-0.163793	0.866588
H87	H	1.607380	-0.738700	0.586265
C88	C	1.709140	-0.307804	1.092477
N89	N	1.776102	-0.269459	1.125151
C90	C	1.709056	-0.306830	0.890479
N91	N	1.775592	-0.267999	0.863334
H92	H	1.422130	-0.850551	0.400723
H93	H	0.919456	-0.359312	0.660603
C94	C	1.120874	-0.209869	0.441243
N95	N	1.155106	-0.154032	0.464294
C96	C	1.649201	-0.431006	0.880374
N97	N	1.670649	-0.485708	0.845623
C98	C	1.384674	-1.080908	0.363133
N99	N	1.326585	-1.111351	0.304955
H100	H	1.094112	-0.454079	0.508456
H101	H	1.407828	-0.245575	1.087383
H102	H	0.926959	-0.228822	0.433475
C103	C	1.107625	-0.434274	0.342578
N104	N	1.137740	-0.450778	0.258923
H105	H	1.106335	-0.263484	0.628440
C106	C	1.635900	-0.595128	0.614886
N107	N	1.693988	-0.564690	0.673072
H108	H	1.402935	-0.249183	0.904540
