data_functionalizedCrystal
_audit_creation_method	'MofGen! by Chris Wilmer'
_symmetry_space_group_name_H-M	'P1'
_symmetry_Int_Tables_number	1
_symmetry_cell_setting	triclinic
loop_
_symmetry_equiv_pos_as_xyz
  x,y,z
_cell_length_a	25.639242
_cell_length_b	25.639239
_cell_length_c	16.120297
_cell_angle_alpha	92.868703
_cell_angle_beta	92.870347
_cell_angle_gamma	90.033587
loop_
_atom_site_label
_atom_site_type_symbol
_atom_site_fract_x
_atom_site_fract_y
_atom_site_fract_z
Zn1	Zn	0.784258	-0.223229	-0.471547
Zn2	Zn	1.284258	0.276771	0.028453
Zn3	Zn	0.788607	-0.306230	-0.332131
Zn4	Zn	1.288607	0.193770	0.167869
Zn5	Zn	0.701260	-0.218802	-0.332132
Zn6	Zn	1.201260	0.281198	0.167868
Zn7	Zn	0.696782	-0.310625	-0.471476
Zn8	Zn	1.196782	0.189375	0.028524
O9	O	0.742727	-0.264722	-0.401822
O10	O	1.242727	0.235278	0.098178
O11	O	0.857999	-0.234252	-0.453083
O12	O	1.357999	0.265748	0.046917
O13	O	0.780714	-0.290940	-0.215470
O14	O	1.280714	0.209060	0.284530
O15	O	0.712324	-0.146225	-0.350656
O16	O	1.212324	0.353775	0.149344
O17	O	0.861194	-0.295232	-0.350655
O18	O	1.361194	0.204768	0.149345
O19	O	0.773302	-0.149478	-0.453084
O20	O	1.273302	0.350522	0.046916
O21	O	0.716540	-0.226708	-0.215470
O22	O	1.216540	0.273292	0.284530
O23	O	0.627501	-0.230970	-0.350587
O24	O	1.127501	0.269030	0.149413
O25	O	0.704692	-0.302724	-0.588147
O26	O	1.204692	0.197276	-0.088147
O27	O	0.624212	-0.298432	-0.452962
O28	O	1.124212	0.201568	0.047038
O29	O	0.768961	-0.238514	-0.588199
O30	O	1.268961	0.261486	-0.088199
O31	O	0.776372	-0.379977	-0.350585
O32	O	1.276372	0.120023	0.149415
O33	O	0.708909	-0.383206	-0.452961
O34	O	1.208909	0.116794	0.047039
C35	C	0.606886	-0.264698	-0.401767
C36	C	1.106886	0.235302	0.098233
C37	C	0.548772	-0.264701	-0.401764
C38	C	1.048772	0.235299	0.098236
C39	C	0.299278	-0.229541	-0.348607
C40	C	0.799278	0.270459	0.151393
C41	C	0.353883	-0.229536	-0.348597
C42	C	0.853883	0.270464	0.151403
O43	O	0.383566	-0.199610	-0.303354
O44	O	0.883566	0.300390	0.196646
N45	N	0.379497	-0.264709	-0.401806
N46	N	0.879497	0.235291	0.098194
C47	C	0.350503	-0.299885	-0.455035
C48	C	0.850503	0.200115	0.044965
O49	O	0.377304	-0.329801	-0.500293
O50	O	0.877304	0.170199	-0.000293
C51	C	0.295899	-0.299887	-0.455049
C52	C	0.795899	0.200113	0.044951
C53	C	0.270288	-0.264716	-0.401831
C54	C	0.770288	0.235284	0.098169
C55	C	0.273667	-0.194373	-0.295393
C56	C	0.773667	0.305627	0.204607
C57	C	0.219066	-0.194378	-0.295403
C58	C	0.719066	0.305622	0.204597
C59	C	0.190076	-0.229553	-0.348627
C60	C	0.690076	0.270447	0.151373
C61	C	0.215688	-0.264722	-0.401840
C62	C	0.715688	0.235278	0.098160
C63	C	0.266907	-0.335061	-0.508282
C64	C	0.766907	0.164939	-0.008282
C65	C	0.212299	-0.335060	-0.508292
C66	C	0.712299	0.164940	-0.008292
C67	C	0.186688	-0.299888	-0.455074
C68	C	0.686688	0.200112	0.044926
C69	C	0.132097	-0.299903	-0.455073
C70	C	0.632097	0.200097	0.044927
N71	N	0.106483	-0.264730	-0.401864
N72	N	0.606483	0.235270	0.098136
C73	C	0.135472	-0.229555	-0.348641
C74	C	0.635472	0.270445	0.151359
C75	C	0.465175	-0.299877	-0.455002
C76	C	0.965175	0.200123	0.044998
C77	C	0.519778	-0.299878	-0.454985
C78	C	1.019778	0.200122	0.045015
C79	C	0.523153	-0.229528	-0.348547
C80	C	1.023153	0.270472	0.151453
C81	C	0.468550	-0.229530	-0.348561
C82	C	0.968550	0.270470	0.151439
C83	C	0.439561	-0.264704	-0.401793
C84	C	0.939561	0.235296	0.098207
C85	C	0.020807	-0.229571	-0.348665
C86	C	0.520807	0.270429	0.151335
C87	C	-0.033799	-0.229581	-0.348677
C88	C	0.466201	0.270419	0.151323
C89	C	-0.037170	-0.299929	-0.455117
C90	C	0.462830	0.200071	0.044883
C91	C	0.017431	-0.299921	-0.455102
C92	C	0.517431	0.200079	0.044898
C93	C	0.046418	-0.264737	-0.401873
C94	C	0.546418	0.235263	0.098127
O95	O	0.102380	-0.329812	-0.500295
O96	O	0.602380	0.170188	-0.000295
O97	O	0.108664	-0.199640	-0.303398
O98	O	0.608664	0.300360	0.196602
C99	C	0.742640	-0.400563	-0.401783
C100	C	1.242640	0.099437	0.098217
C101	C	0.742650	-0.458677	-0.401795
C102	C	1.242650	0.041323	0.098205
C103	C	0.777939	-0.817350	-0.348605
C104	C	1.277939	-0.317350	0.151395
C105	C	0.777959	-0.871955	-0.348617
C106	C	1.277959	-0.371955	0.151383
O107	O	0.807874	-0.898753	-0.303351
O108	O	1.307874	-0.398753	0.196649
N109	N	0.742817	-0.900962	-0.401877
N110	N	1.242817	-0.400962	0.098123
C111	C	0.707656	-0.875363	-0.455135
C112	C	1.207656	-0.375363	0.044865
O113	O	0.677767	-0.905050	-0.500439
O114	O	1.177767	-0.405050	-0.000439
C115	C	0.707639	-0.820759	-0.455128
C116	C	1.207639	-0.320759	0.044872
C117	C	0.742780	-0.791754	-0.401858
C118	C	1.242780	-0.291754	0.098142
C119	C	0.813078	-0.788345	-0.295341
C120	C	1.313078	-0.288345	0.204659
C121	C	0.813057	-0.733744	-0.295329
C122	C	1.313057	-0.233744	0.204671
C123	C	0.777898	-0.708148	-0.348581
C124	C	1.277898	-0.208148	0.151419
C125	C	0.742759	-0.737153	-0.401846
C126	C	1.242759	-0.237153	0.098154
C127	C	0.672481	-0.795161	-0.508390
C128	C	1.172481	-0.295161	-0.008390
C129	C	0.672467	-0.740554	-0.508378
C130	C	1.172467	-0.240554	-0.008378
C131	C	0.707608	-0.711548	-0.455109
C132	C	1.207608	-0.211548	0.044891
C133	C	0.707579	-0.656956	-0.455087
C134	C	1.207579	-0.156956	0.044913
N135	N	0.742722	-0.627949	-0.401826
N136	N	1.242722	-0.127949	0.098174
C137	C	0.777881	-0.653545	-0.348574
C138	C	1.277881	-0.153545	0.151426
C139	C	0.707695	-0.990034	-0.455148
C140	C	1.207695	-0.490034	0.044852
C141	C	0.707709	-1.044636	-0.455152
C142	C	1.207709	-0.544636	0.044848
C143	C	0.778013	-1.041224	-0.348634
C144	C	1.278013	-0.541224	0.151366
C145	C	0.777996	-0.986621	-0.348627
C146	C	1.277996	-0.486621	0.151373
C147	C	0.742837	-0.961026	-0.401888
C148	C	1.242837	-0.461026	0.098112
C149	C	0.777834	-0.538879	-0.348552
C150	C	1.277834	-0.038879	0.151448
C151	C	0.777809	-0.484273	-0.348542
C152	C	1.277809	0.015727	0.151458
C153	C	0.707507	-0.487690	-0.455063
C154	C	1.207507	0.012310	0.044937
C155	C	0.707530	-0.542291	-0.455070
C156	C	1.207530	-0.042291	0.044930
C157	C	0.742698	-0.567884	-0.401812
C158	C	1.242698	-0.067884	0.098188
O159	O	0.677682	-0.630123	-0.500332
O160	O	1.177682	-0.130123	-0.000332
O161	O	0.807769	-0.623851	-0.303286
O162	O	1.307769	-0.123851	0.196714
C163	C	0.879098	-0.264746	-0.401877
C164	C	1.379098	0.235254	0.098123
C165	C	0.937211	-0.264756	-0.401900
C166	C	1.437211	0.235244	0.098100
C167	C	0.735842	-0.271603	-0.619268
C168	C	1.235842	0.228397	-0.119268
C169	C	0.732908	-0.274536	-0.711931
C170	C	1.232908	0.225464	-0.211931
C171	C	0.742827	-0.128350	-0.401878
C172	C	1.242827	0.371650	0.098122
C173	C	0.742870	-0.070237	-0.401902
C174	C	1.242870	0.429763	0.098098
C175	C	0.727532	-0.279879	-0.881587
C176	C	1.227532	0.220121	-0.381587
C177	C	0.758024	-0.249408	-0.922908
C178	C	1.258024	0.250592	-0.422908
C179	C	0.755033	-0.252381	-1.017311
C180	C	1.255033	0.247619	-0.517311
C181	C	0.730523	-0.276907	-0.787176
C182	C	1.230523	0.223093	-0.287176
C183	C	0.749615	-0.257829	-0.185221
C184	C	1.249615	0.242171	0.314779
C185	C	0.752650	-0.254749	-0.092559
C186	C	1.252650	0.245251	0.407441
H187	H	0.287750	-0.363701	-0.551618
H188	H	0.787750	0.136299	-0.051618
O189	O	0.693759	-0.313652	-0.924084
O190	O	1.193759	0.186348	-0.424084
C191	C	0.698252	-0.309131	-1.010244
C192	C	1.198252	0.190869	-0.510244
H193	H	0.738247	-0.292374	-1.022056
H194	H	1.238247	0.207626	-0.522056
H195	H	0.693653	-0.349316	-1.043402
H196	H	1.193653	0.150684	-0.543402
H197	H	0.666492	-0.282048	-1.034944
H198	H	1.166492	0.217952	-0.534944
O199	O	-0.058758	-0.195471	-0.296993
O200	O	0.441242	0.304529	0.203007
C201	C	-0.113170	-0.203011	-0.308415
C202	C	0.386830	0.296989	0.191585
H203	H	-0.121503	-0.244244	-0.335620
H204	H	0.378497	0.255756	0.164380
H205	H	-0.131952	-0.197442	-0.245977
H206	H	0.368048	0.302558	0.254023
H207	H	-0.130055	-0.173444	-0.352885
H208	H	0.369945	0.326556	0.147115
H209	H	0.044402	-0.200919	-0.305324
H210	H	0.544402	0.299081	0.194676
O211	O	0.184220	-0.369278	-0.560033
O212	O	0.684220	0.130722	-0.060033
C213	C	0.218539	-0.400305	-0.607015
C214	C	0.718539	0.099695	-0.107015
H215	H	0.258533	-0.401000	-0.572850
H216	H	0.758533	0.099000	-0.072850
H217	H	0.202466	-0.441787	-0.615804
H218	H	0.702466	0.058213	-0.115804
H219	H	0.222367	-0.383219	-0.670379
H220	H	0.722367	0.116781	-0.170379
O221	O	0.812156	-0.958394	-0.297001
O222	O	1.312156	-0.458394	0.202999
C223	C	0.844400	-0.928284	-0.344514
C224	C	1.344400	-0.428284	0.155486
H225	H	0.823927	-0.922100	-0.407659
H226	H	1.323927	-0.422100	0.092341
H227	H	0.852491	-0.888815	-0.310559
H228	H	1.352491	-0.388815	0.189441
H229	H	0.882853	-0.949587	-0.353744
H230	H	1.382853	-0.449587	0.146256
H231	H	0.297264	-0.165726	-0.252052
H232	H	0.797264	0.334274	0.247948
O233	O	0.194273	-0.160158	-0.243687
O234	O	0.694273	0.339842	0.256313
C235	C	0.231578	-0.129123	-0.196702
C236	C	0.731578	0.370877	0.303298
H237	H	0.269428	-0.128433	-0.230851
H238	H	0.769428	0.371567	0.269149
H239	H	0.216106	-0.087641	-0.187936
H240	H	0.716106	0.412359	0.312064
H241	H	0.239366	-0.146199	-0.133327
H242	H	0.739366	0.353801	0.366673
O243	O	0.042287	-0.334035	-0.506912
O244	O	0.542287	0.165965	-0.006912
C245	C	0.026323	-0.325329	-0.590034
C246	C	0.526323	0.174671	-0.090034
H247	H	0.011193	-0.283704	-0.594362
H248	H	0.511193	0.216296	-0.094362
H249	H	0.060934	-0.331169	-0.631205
H250	H	0.560934	0.168831	-0.131205
H251	H	-0.006067	-0.354074	-0.611748
H252	H	0.493933	0.145926	-0.111748
O253	O	0.443755	-0.195313	-0.296843
O254	O	0.943755	0.304687	0.203157
C255	C	0.481058	-0.164279	-0.249850
C256	C	0.981058	0.335721	0.250150
H257	H	0.518909	-0.163586	-0.283995
H258	H	1.018909	0.336414	0.216005
H259	H	0.465585	-0.122797	-0.241079
H260	H	0.965585	0.377203	0.258921
H261	H	0.488845	-0.181359	-0.186478
H262	H	0.988845	0.318641	0.313522
H263	H	0.806643	-1.062074	-0.305276
H264	H	1.306643	-0.562074	0.194724
O265	O	0.791776	-0.215588	-0.880454
O266	O	1.291776	0.284412	-0.380454
C267	C	0.763596	-0.180249	-0.830096
C268	C	1.263596	0.319751	-0.330096
H269	H	0.724365	-0.198285	-0.817118
H270	H	1.224365	0.301715	-0.317118
H271	H	0.786801	-0.171346	-0.768840
H272	H	1.286801	0.328654	-0.268840
H273	H	0.756834	-0.142540	-0.863606
H274	H	1.256834	0.357460	-0.363606
O275	O	0.544570	-0.334066	-0.506753
O276	O	1.044570	0.165934	-0.006753
C277	C	0.507268	-0.365120	-0.553711
C278	C	1.007268	0.134880	-0.053711
H279	H	0.468264	-0.343801	-0.556661
H280	H	0.968264	0.156199	-0.056661
H281	H	0.520973	-0.372840	-0.619379
H282	H	1.020973	0.127160	-0.119379
H283	H	0.502403	-0.403829	-0.523067
H284	H	1.002403	0.096171	-0.023067
O285	O	0.551378	-0.195426	-0.296807
O286	O	1.051378	0.304574	0.203193
C287	C	0.584634	-0.223432	-0.242857
C288	C	1.084634	0.276568	0.257143
H289	H	0.591868	-0.264011	-0.272140
H290	H	1.091868	0.235989	0.227860
H291	H	0.623393	-0.201772	-0.231747
H292	H	1.123393	0.298228	0.268253
H293	H	0.565532	-0.227157	-0.181060
H294	H	1.065532	0.272843	0.318940
O295	O	0.436964	-0.334075	-0.506592
O296	O	0.936964	0.165925	-0.006592
C297	C	0.406865	-0.366305	-0.459040
C298	C	0.906865	0.133695	0.040960
H299	H	0.400671	-0.345805	-0.395920
H300	H	0.900671	0.154195	0.104080
H301	H	0.367401	-0.374428	-0.492992
H302	H	0.867401	0.125572	0.007008
H303	H	0.428184	-0.404745	-0.449755
H304	H	0.928184	0.095255	0.050245
O305	O	-0.065416	-0.334045	-0.506791
O306	O	0.434584	0.165955	-0.006791
C307	C	-0.119101	-0.326511	-0.495369
C308	C	0.380899	0.173489	0.004631
H309	H	-0.125677	-0.285276	-0.468176
H310	H	0.374323	0.214724	0.031824
H311	H	-0.141820	-0.332089	-0.557807
H312	H	0.358180	0.167911	-0.057807
H313	H	-0.133216	-0.356075	-0.450891
H314	H	0.366784	0.143925	0.049109
H315	H	0.643837	-0.719717	-0.551753
H316	H	1.143837	-0.219717	-0.051753
H317	H	0.806473	-0.559710	-0.305186
H318	H	1.306473	-0.059710	0.194814
O319	O	0.811998	-0.456178	-0.296768
O320	O	1.311998	0.043822	0.203232
C321	C	0.843026	-0.490483	-0.249758
C322	C	1.343026	0.009517	0.250242
H323	H	0.843750	-0.530476	-0.283920
H324	H	1.343750	-0.030476	0.216080
H325	H	0.884499	-0.474391	-0.240930
H326	H	1.384499	0.025609	0.259070
H327	H	0.825919	-0.494321	-0.186411
H328	H	1.325919	0.005679	0.313589
O329	O	0.847249	-0.705652	-0.243564
O330	O	1.347249	-0.205652	0.256436
C331	C	0.878274	-0.739962	-0.196560
C332	C	1.378274	-0.239962	0.303440
H333	H	0.878989	-0.779956	-0.230721
H334	H	1.378989	-0.279956	0.269279
H335	H	0.919750	-0.723878	-0.187741
H336	H	1.419750	-0.223878	0.312259
H337	H	0.861172	-0.743796	-0.133209
H338	H	1.361172	-0.243796	0.366791
H339	H	0.841711	-0.809179	-0.251976
H340	H	1.341711	-0.309179	0.248024
O341	O	0.673550	-1.072730	-0.506970
O342	O	1.173550	-0.572730	-0.006970
C343	C	0.642506	-1.038422	-0.553950
C344	C	1.142506	-0.538422	-0.053950
H345	H	0.663817	-0.999571	-0.556859
H346	H	1.163817	-0.499571	-0.056859
H347	H	0.634820	-1.056262	-0.619630
H348	H	1.134820	-0.556262	-0.119630
H349	H	0.603780	-1.031691	-0.523350
H350	H	1.103780	-0.531691	-0.023350
O351	O	0.673512	-0.965112	-0.506766
O352	O	1.173512	-0.465112	-0.006766
C353	C	0.641250	-0.932076	-0.459241
C354	C	1.141250	-0.432076	0.040759
H355	H	0.661720	-0.921888	-0.396096
H356	H	1.161720	-0.421888	0.103904
H357	H	0.633133	-0.894755	-0.493187
H358	H	1.133133	-0.394755	0.006813
H359	H	0.602811	-0.952869	-0.450012
H360	H	1.102811	-0.452869	0.049988
H361	H	0.643863	-0.818768	-0.551764
H362	H	1.143863	-0.318768	-0.051764
H363	H	0.678917	-0.565908	-0.498449
H364	H	1.178917	-0.065908	0.001551
H365	H	0.678879	-0.466841	-0.498418
H366	H	1.178879	0.033159	0.001582
