data_functionalizedCrystal
_audit_creation_method	'MofGen! by Chris Wilmer'
_symmetry_space_group_name_H-M	'P1'
_symmetry_Int_Tables_number	1
_symmetry_cell_setting	triclinic
loop_
_symmetry_equiv_pos_as_xyz
  x,y,z
_cell_length_a	14.519731
_cell_length_b	13.596369
_cell_length_c	14.519709
_cell_angle_alpha	89.998664
_cell_angle_beta	96.315501
_cell_angle_gamma	90.006024
loop_
_atom_site_label
_atom_site_type_symbol
_atom_site_fract_x
_atom_site_fract_y
_atom_site_fract_z
O1	O	1.223858	0.081796	-0.120979
O2	O	1.723858	0.581796	0.379021
O3	O	0.955384	0.081797	-0.135195
O4	O	1.455384	0.581797	0.364805
O5	O	1.096739	0.081788	0.006151
O6	O	1.596739	0.581788	0.506151
O7	O	1.082503	0.081805	-0.262325
O8	O	1.582503	0.581805	0.237675
O9	O	1.096722	-0.081795	0.006143
O10	O	1.596722	0.418205	0.506143
O11	O	0.955366	-0.081785	-0.135203
O12	O	1.455366	0.418215	0.364797
O13	O	1.223841	-0.081787	-0.120986
O14	O	1.723841	0.418213	0.379014
Zn15	Zn	1.089601	-0.107759	-0.128096
Zn16	Zn	1.589601	0.392241	0.371904
Zn17	Zn	1.089624	0.107769	-0.128085
Zn18	Zn	1.589624	0.607769	0.371915
O19	O	1.082485	-0.081777	-0.262332
O20	O	1.582485	0.418223	0.237668
C21	C	0.921016	0.000006	-0.134532
C22	C	1.421016	0.500006	0.365468
C23	C	0.818635	0.000007	-0.132536
C24	C	1.318635	0.500007	0.367464
C25	C	0.735491	0.000010	-0.130915
C26	C	1.235491	0.500010	0.369085
C27	C	0.631182	0.000011	-0.128888
C28	C	1.131182	0.500011	0.371112
C29	C	0.548043	0.000010	-0.127280
C30	C	1.048043	0.500010	0.372720
C31	C	0.443728	0.000012	-0.125253
C32	C	0.943728	0.500012	0.374747
N33	N	1.089592	-0.254851	-0.128102
N34	N	1.589592	0.245149	0.371898
C35	C	1.089596	-0.343848	-0.128104
C36	C	1.589596	0.156152	0.371896
C37	C	1.089605	-0.455500	-0.128098
C38	C	1.589605	0.044500	0.371902
C39	C	1.089617	-0.544490	-0.128088
C40	C	1.589617	-0.044490	0.371912
C41	C	1.089628	-0.656149	-0.128082
C42	C	1.589628	-0.156149	0.371918
C43	C	1.258209	0.000006	-0.121649
C44	C	1.758209	0.500006	0.378351
C45	C	1.360589	0.000012	-0.123645
C46	C	1.860589	0.500012	0.376355
C47	C	1.096067	-0.000004	0.040507
C48	C	1.596067	0.499996	0.540507
C49	C	1.094079	-0.000005	0.142889
C50	C	1.594079	0.499995	0.642889
N51	N	1.089640	0.254861	-0.128072
N52	N	1.589640	0.754861	0.371928
C53	C	1.083157	0.000016	-0.296688
C54	C	1.583157	0.500016	0.203312
C55	C	1.085146	0.000023	-0.399070
C56	C	1.585146	0.500023	0.100930
C57	C	1.086759	0.000021	0.517785
C58	C	1.586759	0.500021	1.017785
C59	C	1.088792	0.000014	0.413477
C60	C	1.588792	0.500014	0.913477
C61	C	1.090419	0.000007	0.330340
C62	C	1.590419	0.500007	0.830340
C63	C	1.092452	0.000002	0.226025
C64	C	1.592452	0.500002	0.726025
