data_functionalizedCrystal
_audit_creation_method	'MofGen! by Chris Wilmer'
_symmetry_space_group_name_H-M	'P1'
_symmetry_Int_Tables_number	1
_symmetry_cell_setting	triclinic
loop_
_symmetry_equiv_pos_as_xyz
  x,y,z
_cell_length_a	14.908571
_cell_length_b	16.959454
_cell_length_c	14.908694
_cell_angle_alpha	86.728428
_cell_angle_beta	96.407528
_cell_angle_gamma	86.716421
loop_
_atom_site_label
_atom_site_type_symbol
_atom_site_fract_x
_atom_site_fract_y
_atom_site_fract_z
Zn1	Zn	1.413345	-0.416138	0.591530
Zn2	Zn	1.404514	-0.540230	0.440172
Zn3	Zn	1.253246	-0.399970	0.431464
Zn4	Zn	1.261946	-0.540169	0.582770
O5	O	1.333263	-0.474127	0.511484
O6	O	1.538840	-0.439390	0.578762
O7	O	1.377112	-0.514884	0.312351
O8	O	1.274539	-0.291508	0.452719
O9	O	1.532352	-0.530561	0.467560
O10	O	1.392162	-0.303386	0.570319
O11	O	1.265976	-0.411835	0.305953
O12	O	1.127733	-0.411776	0.444225
O13	O	1.289365	-0.530456	0.710598
O14	O	1.134125	-0.514779	0.555389
O15	O	1.400598	-0.439331	0.717034
O16	O	1.385547	-0.650829	0.459065
O17	O	1.280802	-0.650784	0.563832
C18	C	1.098086	-0.461517	0.497912
C19	C	0.997477	-0.456143	0.492127
C20	C	0.815118	-0.553450	0.596856
C21	C	0.720587	-0.548404	0.591424
C22	C	0.713885	-0.440999	0.475836
C23	C	0.808415	-0.446046	0.481268
C24	C	0.859028	-0.502274	0.541780
C25	C	0.953560	-0.507325	0.547206
C26	C	0.946856	-0.399917	0.431624
C27	C	0.852326	-0.394870	0.426192
C28	C	1.333186	-0.679488	0.511464
C29	C	1.333238	-0.767349	0.511491
C30	C	1.278806	-1.138836	0.566034
C31	C	1.387977	-1.138833	0.457040
C32	C	1.387945	-1.056285	0.457030
C33	C	1.333341	-1.015008	0.511522
C34	C	1.278770	-1.056280	0.566024
C35	C	1.442508	-1.015006	0.402522
C36	C	1.442477	-0.932453	0.402509
C37	C	1.387878	-0.891176	0.457006
C38	C	1.333306	-0.932452	0.511511
C39	C	1.278702	-0.891176	0.566003
C40	C	1.224134	-0.932452	0.620514
C41	C	1.224171	-1.015002	0.620521
C42	C	1.387841	-0.808625	0.456999
C43	C	1.278666	-0.808620	0.565993
C44	C	1.569358	-0.486786	0.525109
C45	C	1.669968	-0.492181	0.530916
C46	C	1.346937	-0.486690	0.747577
C47	C	1.352764	-0.492044	0.848186
C48	C	1.333365	-0.267966	0.511525
C49	C	1.333409	-0.180112	0.511542
C50	C	1.319694	-0.461558	0.276312
C51	C	1.314042	-0.455991	0.175714
C52	C	1.247967	-0.394801	1.030580
C53	C	1.253439	-0.399829	1.125110
C54	C	1.369175	-0.507130	1.131780
C55	C	1.363703	-0.502103	1.037249
C56	C	1.303098	-0.445935	0.986652
C57	C	1.297631	-0.440904	0.892120
C58	C	1.413361	-0.548209	0.898791
C59	C	1.418833	-0.553237	0.993322
H60	H	0.811104	-0.349089	0.376928
O61	O	1.225572	-0.768432	0.618801
C62	C	1.103970	-0.669442	0.623814
C63	C	1.164050	-0.714883	0.563905
H64	H	1.054202	-0.626149	0.579454
H65	H	1.148165	-0.635442	0.673549
H66	H	1.065024	-0.713144	0.662794
H67	H	1.203007	-0.671235	0.524866
H68	H	1.119807	-0.748895	0.514227
O69	O	1.189053	-0.340344	0.981321
C70	C	1.060642	-0.317486	0.867572
C71	C	1.127315	-0.379242	0.923282
H72	H	1.010698	-0.348912	0.820648
H73	H	1.099607	-0.276041	0.825658
H74	H	1.022222	-0.281783	0.915225
H75	H	1.165752	-0.415001	0.875695
H76	H	1.088298	-0.420633	0.965207
O77	O	0.677896	-0.598007	0.645018
C78	C	0.578228	-0.609601	0.761034
C79	C	0.626540	-0.553336	0.700404
H80	H	0.536681	-0.573507	0.805816
H81	H	0.630606	-0.650641	0.805279
H82	H	0.531581	-0.646315	0.716838
H83	H	0.673185	-0.516571	0.744530
H84	H	0.574114	-0.512349	0.656154
H85	H	1.179743	-1.048616	0.664900
H86	H	1.468173	-0.598969	1.034530
H87	H	0.982618	-0.358247	0.386774
H88	H	1.234380	-1.172446	0.610418
H89	H	1.248287	-0.395167	0.850925
H90	H	0.672659	-0.395216	0.426577
O91	O	1.199851	-0.350072	1.167641
C92	C	1.084440	-0.243145	1.151043
C93	C	1.145095	-0.299435	1.102765
H94	H	1.040141	-0.202202	1.098612
H95	H	1.128531	-0.206338	1.197679
H96	H	1.039697	-0.279269	1.192589
H97	H	1.189848	-0.263373	1.061171
H98	H	1.100951	-0.336244	1.056183
O99	O	1.428006	-0.561630	1.181075
C100	C	1.487644	-0.616985	1.329662
C101	C	1.421002	-0.555209	1.273947
H102	H	1.481991	-0.611826	1.404758
H103	H	1.559596	-0.606047	1.315379
H104	H	1.470636	-0.678861	1.310082
H105	H	1.437927	-0.493308	1.293494
H106	H	1.349070	-0.566216	1.288235
O107	O	1.171176	-0.892233	0.673421
C108	C	1.122700	-0.765045	0.721649
C109	C	1.182731	-0.810499	0.661708
H110	H	1.132007	-0.698954	0.712185
H111	H	1.142774	-0.785916	0.795587
H112	H	1.048818	-0.776617	0.701499
H113	H	1.256630	-0.798948	0.681777
H114	H	1.162580	-0.789621	0.587783
O115	O	1.495538	-0.892284	0.349694
C116	C	1.617060	-0.804952	0.344672
C117	C	1.557015	-0.850390	0.404584
H118	H	1.666791	-0.771084	0.389027
H119	H	1.572834	-0.761543	0.294926
H120	H	1.656048	-0.848645	0.305703
H121	H	1.518016	-0.806757	0.443611
H122	H	1.601289	-0.893812	0.454274
H123	H	1.432265	-0.775022	0.412613
O124	O	1.440955	-1.179047	0.404157
C125	C	1.489263	-1.306211	0.355742
C126	C	1.429258	-1.260767	0.415716
H127	H	1.479813	-1.372288	0.365053
H128	H	1.563190	-1.294773	0.375866
H129	H	1.469161	-1.285200	0.281850
H130	H	1.449280	-1.281750	0.489624
H131	H	1.355346	-1.272206	0.395515
O132	O	1.495438	-1.055217	0.349592
C133	C	1.543640	-1.182373	0.301078
C134	C	1.483721	-1.136935	0.361136
H135	H	1.534174	-1.248449	0.310376
H136	H	1.617585	-1.170957	0.321135
H137	H	1.523471	-1.161337	0.227204
H138	H	1.503810	-1.157943	0.435027
H139	H	1.409791	-1.148352	0.341002
H140	H	1.458256	-0.589844	0.863015
H141	H	0.856328	-0.599238	0.646122
O142	O	1.002696	-0.561860	0.606114
C143	C	1.040518	-0.610186	0.761673
C144	C	0.984842	-0.548368	0.695058
H145	H	1.026089	-0.599309	0.833597
H146	H	1.115641	-0.605007	0.756176
H147	H	1.020995	-0.672050	0.744548
H148	H	1.004287	-0.486476	0.712140
H149	H	0.909733	-0.553616	0.700568
