data_functionalizedCrystal
_audit_creation_method	'MofGen! by Chris Wilmer'
_symmetry_space_group_name_H-M	'P1'
_symmetry_Int_Tables_number	1
_symmetry_cell_setting	triclinic
loop_
_symmetry_equiv_pos_as_xyz
  x,y,z
_cell_length_a	13.897448
_cell_length_b	11.169417
_cell_length_c	11.169409
_cell_angle_alpha	89.981395
_cell_angle_beta	89.964424
_cell_angle_gamma	90.019937
loop_
_atom_site_label
_atom_site_type_symbol
_atom_site_fract_x
_atom_site_fract_y
_atom_site_fract_z
Zn1	Zn	-0.383879	1.834901	-0.678477
Zn2	Zn	-0.545215	1.834765	-0.477782
Zn3	Zn	-0.383942	1.634187	-0.477815
Zn4	Zn	-0.545140	1.634169	-0.678431
O5	O	-0.464544	1.734505	-0.578126
O6	O	-0.405286	2.002833	-0.651859
O7	O	-0.523879	1.808108	-0.309837
O8	O	-0.248952	1.660877	-0.504466
O9	O	-0.523818	2.002732	-0.504410
O10	O	-0.248906	1.808341	-0.651891
O11	O	-0.405392	1.660744	-0.309861
O12	O	-0.405320	1.466235	-0.504422
O13	O	-0.523691	1.660846	-0.846387
O14	O	-0.523752	1.466221	-0.651814
O15	O	-0.405213	1.808323	-0.846421
O16	O	-0.680186	1.808090	-0.504366
O17	O	-0.680132	1.660713	-0.651782
C18	C	-0.715158	1.734418	-0.578092
C19	C	-0.822372	1.734490	-0.578117
C20	C	-0.464535	1.422681	-0.578118
C21	C	-0.464555	1.289281	-0.578142
C22	C	-0.464437	1.734597	-0.891169
C23	C	-0.464391	1.734637	-1.024569
C24	C	-1.018667	1.734616	-0.578192
C25	C	-0.909435	1.734543	-0.578154
C26	C	-0.212951	1.734626	-0.578188
C27	C	-0.105737	1.734677	-0.578214
C28	C	-0.464553	2.047548	-0.578136
C29	C	-0.464557	2.180948	-0.578140
C30	C	-0.464581	1.734483	-0.266302
C31	C	-0.464355	1.734676	-0.132902
