data_functionalizedCrystal
_audit_creation_method	'MofGen! by Chris Wilmer'
_symmetry_space_group_name_H-M	'P1'
_symmetry_Int_Tables_number	1
_symmetry_cell_setting	triclinic
loop_
_symmetry_equiv_pos_as_xyz
  x,y,z
_cell_length_a	19.805407
_cell_length_b	19.805405
_cell_length_c	19.805399
_cell_angle_alpha	89.969291
_cell_angle_beta	89.984884
_cell_angle_gamma	90.023727
loop_
_atom_site_label
_atom_site_type_symbol
_atom_site_fract_x
_atom_site_fract_y
_atom_site_fract_z
Zn1	Zn	1.034718	-0.269518	-0.382680
Zn2	Zn	1.534718	0.230482	0.117320
Zn3	Zn	1.034638	-0.382709	-0.269488
Zn4	Zn	1.534638	0.117291	0.230512
Zn5	Zn	0.921538	-0.269534	-0.269508
Zn6	Zn	1.421538	0.230466	0.230492
Zn7	Zn	0.921496	-0.382665	-0.382638
Zn8	Zn	1.421496	0.117335	0.117362
O9	O	0.978097	-0.326107	-0.326078
O10	O	1.478097	0.173893	0.173922
O11	O	1.129424	-0.284545	-0.367674
O12	O	1.629424	0.215455	0.132326
O13	O	1.019619	-0.367721	-0.174774
O14	O	1.519619	0.132279	0.325226
O15	O	0.936602	-0.174815	-0.284546
O16	O	1.436602	0.325185	0.215454
O17	O	1.129365	-0.367706	-0.284512
O18	O	1.629365	0.132294	0.215488
O19	O	1.019755	-0.174804	-0.367693
O20	O	1.519755	0.325196	0.132307
O21	O	0.936525	-0.284572	-0.174788
O22	O	1.436525	0.215428	0.325212
O23	O	0.826816	-0.284529	-0.284506
O24	O	1.326816	0.215471	0.215494
O25	O	0.936531	-0.367631	-0.477360
O26	O	1.436531	0.132369	0.022640
O27	O	0.826785	-0.367646	-0.367622
O28	O	1.326785	0.132354	0.132378
O29	O	1.019715	-0.284502	-0.477391
O30	O	1.519715	0.215498	0.022609
O31	O	1.019578	-0.477420	-0.284472
O32	O	1.519578	0.022580	0.215528
O33	O	0.936453	-0.477387	-0.367603
O34	O	1.436453	0.022613	0.132397
C35	C	0.802241	-0.326085	-0.326062
C36	C	1.302241	0.173915	0.173938
C37	C	0.727009	-0.326093	-0.326071
C38	C	1.227009	0.173907	0.173929
C39	C	0.691696	-0.282867	-0.369439
C40	C	1.191696	0.217133	0.130561
C41	C	0.621008	-0.282871	-0.369442
C42	C	1.121008	0.217129	0.130558
C43	C	0.585634	-0.326104	-0.326079
C44	C	1.085634	0.173896	0.173921
C45	C	0.620952	-0.369331	-0.282706
C46	C	1.120952	0.130669	0.217294
C47	C	0.691639	-0.369323	-0.282701
C48	C	1.191639	0.130677	0.217299
C49	C	0.335878	-0.369361	-0.282727
C50	C	0.835878	0.130639	0.217273
C51	C	0.265186	-0.369367	-0.282737
C52	C	0.765186	0.130633	0.217263
C53	C	0.265247	-0.282909	-0.369468
C54	C	0.765247	0.217091	0.130532
C55	C	0.335935	-0.282901	-0.369462
C56	C	0.835935	0.217099	0.130538
C57	C	0.371246	-0.326126	-0.326087
C58	C	0.871246	0.173874	0.173913
C59	C	0.447895	-0.326120	-0.326084
C60	C	0.947895	0.173880	0.173916
C61	C	0.508987	-0.326113	-0.326085
C62	C	1.008987	0.173887	0.173915
C63	C	0.978021	-0.501963	-0.326046
C64	C	1.478021	-0.001963	0.173954
C65	C	0.978050	-0.577195	-0.326054
C66	C	1.478050	-0.077195	0.173946
C67	C	1.021376	-0.612533	-0.282813
C68	C	1.521376	-0.112533	0.217187
C69	C	1.021404	-0.683222	-0.282828
C70	C	1.521404	-0.183222	0.217172
C71	C	0.978104	-0.718570	-0.326081
C72	C	1.478104	-0.218570	0.173919
C73	C	0.934777	-0.683227	-0.369327
C74	C	1.434777	-0.183227	0.130673
C75	C	0.934752	-0.612540	-0.369315
C76	C	1.434752	-0.112540	0.130685
C77	C	0.934877	-0.968300	-0.369377
C78	C	1.434877	-0.468300	0.130623
C79	C	0.934903	-1.038992	-0.369384
C80	C	1.434903	-0.538992	0.130616
C81	C	1.021529	-1.038982	-0.282890
C82	C	1.521529	-0.538982	0.217110
C83	C	1.021504	-0.968295	-0.282878
C84	C	1.521504	-0.468295	0.217122
C85	C	0.978180	-0.932957	-0.326126
C86	C	1.478180	-0.432957	0.173874
C87	C	0.978150	-0.856309	-0.326110
C88	C	1.478150	-0.356309	0.173890
C89	C	0.978130	-0.795217	-0.326094
C90	C	1.478130	-0.295217	0.173906
C91	C	1.154640	-0.326128	-0.326095
C92	C	1.654640	0.173872	0.173905
C93	C	1.229872	-0.326138	-0.326102
C94	C	1.729872	0.173862	0.173898
C95	C	0.978127	-0.326060	-0.502621
C96	C	1.478127	0.173940	-0.002621
C97	C	0.978140	-0.326040	-0.577853
C98	C	1.478140	0.173960	-0.077853
C99	C	0.978192	-0.149564	-0.326126
C100	C	1.478192	0.350436	0.173874
C101	C	0.978233	-0.074332	-0.326146
C102	C	1.478233	0.425668	0.173854
C103	C	0.934885	-0.282740	-0.613204
C104	C	1.434885	0.217260	-0.113204
C105	C	0.934894	-0.282727	-0.683893
C106	C	1.434894	0.217273	-0.183893
C107	C	0.978162	-0.326010	-0.719229
C108	C	1.478162	0.173990	-0.219229
C109	C	1.021419	-0.369315	-0.683873
C110	C	1.521419	0.130685	-0.183873
C111	C	1.021406	-0.369331	-0.613185
C112	C	1.521406	0.130669	-0.113185
C113	C	1.021473	-0.369252	-0.968946
C114	C	1.521473	0.130748	-0.468946
C115	C	1.021484	-0.369231	-1.039638
C116	C	1.521484	0.130769	-0.539638
C117	C	0.934961	-0.282647	-1.039653
C118	C	1.434961	0.217353	-0.539653
C119	C	0.934948	-0.282663	-0.968966
C120	C	1.434948	0.217337	-0.468966
C121	C	0.978202	-0.325970	-0.933616
C122	C	1.478202	0.174030	-0.433616
C123	C	0.978190	-0.325985	-0.856968
C124	C	1.478190	0.174015	-0.356968
C125	C	0.978178	-0.325993	-0.795876
C126	C	1.478178	0.174007	-0.295876
C127	C	0.978107	-0.326104	-0.150222
C128	C	1.478107	0.173896	0.349778
C129	C	0.978225	-0.325934	-0.074991
C130	C	1.478225	0.174066	0.425009
H131	H	0.592259	-0.247674	-0.404757
H132	H	1.092259	0.252326	0.095243
F133	F	0.729221	-0.415330	-0.236543
F134	F	1.229221	0.084670	0.263457
H135	H	1.056685	-0.404522	-0.940173
H136	H	1.556685	0.095478	-0.440173
H137	H	1.056645	-0.404561	-0.712649
H138	H	1.556645	0.095439	-0.212649
H139	H	1.056633	-0.404585	-0.584403
H140	H	1.556633	0.095415	-0.084403
F141	F	1.067458	-0.574919	-0.236772
F142	F	1.567458	-0.074919	0.263228
F143	F	1.067642	-1.076596	-0.236865
F144	F	1.567642	-0.576596	0.263135
H145	H	0.592144	-0.404529	-0.247397
H146	H	1.092144	0.095471	0.252603
F147	F	0.888816	-1.076611	-0.415424
F148	F	1.388816	-0.576611	0.084576
F149	F	0.729338	-0.236855	-0.415595
F150	F	1.229338	0.263145	0.084405
F151	F	0.888899	-0.236592	-0.931363
F152	F	1.388899	0.263408	-0.431363
H153	H	0.899599	-0.939534	-0.404590
H154	H	1.399599	-0.439534	0.095410
F155	F	0.888923	-0.236558	-1.077281
F156	F	1.388923	0.263442	-0.577281
H157	H	0.364733	-0.247699	-0.404775
H158	H	0.864733	0.252301	0.095225
F159	F	1.067537	-0.415303	-1.077244
F160	F	1.567537	0.084697	-0.577244
H161	H	0.236488	-0.247711	-0.404783
H162	H	0.736488	0.252289	0.095217
H163	H	0.899669	-0.247470	-0.712673
H164	H	1.399669	0.252530	-0.212673
H165	H	0.899473	-0.583768	-0.404527
H166	H	1.399473	-0.083768	0.095473
H167	H	1.056761	-0.939516	-0.247655
H168	H	1.556761	-0.439516	0.252345
F169	F	0.227540	-0.415382	-0.236581
F170	F	0.727540	0.084618	0.263419
H171	H	0.364621	-0.404558	-0.247409
H172	H	0.864621	0.095442	0.252591
H173	H	0.899524	-0.712013	-0.404547
H174	H	1.399524	-0.212013	0.095453
F175	F	1.067519	-0.720828	-0.236807
F176	F	1.567519	-0.220828	0.263193
H177	H	0.899655	-0.247489	-0.584439
H178	H	1.399655	0.252511	-0.084439
