data_functionalizedCrystal
_audit_creation_method	'MofGen! by Chris Wilmer'
_symmetry_space_group_name_H-M	'P1'
_symmetry_Int_Tables_number	1
_symmetry_cell_setting	triclinic
loop_
_symmetry_equiv_pos_as_xyz
  x,y,z
_cell_length_a	21.295420
_cell_length_b	21.295417
_cell_length_c	16.959447
_cell_angle_alpha	89.964807
_cell_angle_beta	89.984500
_cell_angle_gamma	90.026289
loop_
_atom_site_label
_atom_site_type_symbol
_atom_site_fract_x
_atom_site_fract_y
_atom_site_fract_z
Zn1	Zn	0.962299	-0.250668	-0.446907
Zn2	Zn	1.295632	0.082666	-0.113573
Zn3	Zn	1.628966	0.415999	0.219760
Zn4	Zn	0.962218	-0.355944	-0.314717
Zn5	Zn	1.295551	-0.022611	0.018616
Zn6	Zn	1.628885	0.310722	0.351950
Zn7	Zn	0.857039	-0.250685	-0.314742
Zn8	Zn	1.190372	0.082648	0.018592
Zn9	Zn	1.523705	0.415981	0.351925
Zn10	Zn	0.856991	-0.355895	-0.446853
Zn11	Zn	1.190325	-0.022562	-0.113519
Zn12	Zn	1.523658	0.310771	0.219814
O13	O	0.909637	-0.303298	-0.380804
O14	O	1.242970	0.030035	-0.047471
O15	O	1.576303	0.363369	0.285862
O16	O	1.050377	-0.264646	-0.429384
O17	O	1.383711	0.068687	-0.096050
O18	O	1.717044	0.402021	0.237283
O19	O	0.948252	-0.342009	-0.204109
O20	O	1.281585	-0.008676	0.129224
O21	O	1.614918	0.324657	0.462557
O22	O	0.871055	-0.162594	-0.332306
O23	O	1.204389	0.170740	0.001027
O24	O	1.537722	0.504073	0.334360
O25	O	1.050318	-0.341992	-0.332264
O26	O	1.383651	-0.008659	0.001069
O27	O	1.716985	0.324674	0.334402
O28	O	0.948390	-0.162581	-0.429408
O29	O	1.281723	0.170753	-0.096074
O30	O	1.615056	0.504086	0.237259
O31	O	0.870977	-0.264676	-0.204127
O32	O	1.204310	0.068657	0.129206
O33	O	1.537644	0.401991	0.462539
O34	O	0.768943	-0.264628	-0.332254
O35	O	1.102276	0.068705	0.001079
O36	O	1.435610	0.402038	0.334413
O37	O	0.870975	-0.341909	-0.557471
O38	O	1.204308	-0.008575	-0.224138
O39	O	1.537641	0.324758	0.109196
O40	O	0.768908	-0.341926	-0.429316
O41	O	1.102242	-0.008592	-0.095982
O42	O	1.435575	0.324741	0.237351
O43	O	0.948344	-0.264598	-0.557511
O44	O	1.281677	0.068735	-0.224177
O45	O	1.615010	0.402068	0.109156
O46	O	0.948206	-0.444027	-0.332212
O47	O	1.281539	-0.110694	0.001121
O48	O	1.614872	0.222639	0.334454
O49	O	0.870896	-0.443991	-0.429292
O50	O	1.204230	-0.110658	-0.095959
O51	O	1.537563	0.222676	0.237375
C52	C	0.746085	-0.303274	-0.380782
C53	C	1.079419	0.030059	-0.047449
C54	C	1.412752	0.363393	0.285885
C55	C	0.676117	-0.303279	-0.380791
C56	C	1.009450	0.030054	-0.047458
C57	C	1.342784	0.363388	0.285875
C58	C	0.176689	-0.263119	-0.431469
C59	C	0.510023	0.070215	-0.098135
C60	C	0.843356	0.403548	0.235198
C61	C	0.242432	-0.263114	-0.431468
C62	C	0.575765	0.070219	-0.098135
C63	C	0.909099	0.403553	0.235198
C64	C	0.275278	-0.303317	-0.380823
C65	C	0.608611	0.030016	-0.047490
C66	C	0.941944	0.363349	0.285844
C67	C	0.242375	-0.343540	-0.330188
C68	C	0.575709	-0.010206	0.003145
C69	C	0.909042	0.323127	0.336479
C70	C	0.176634	-0.343548	-0.330195
C71	C	0.509967	-0.010214	0.003138
C72	C	0.843301	0.323119	0.336472
N73	N	0.378476	-0.308066	-0.311611
N74	N	0.711810	0.025267	0.021722
N75	N	1.045143	0.358601	0.355056
N76	N	0.440928	-0.308055	-0.311606
N77	N	0.774261	0.025279	0.021727
N78	N	1.107594	0.358612	0.355060
C79	C	0.473352	-0.303297	-0.380800
C80	C	0.806686	0.030037	-0.047466
C81	C	1.140019	0.363370	0.285867
N82	N	0.440966	-0.298538	-0.449999
N83	N	0.774300	0.034796	-0.116666
N84	N	1.107633	0.368129	0.216668
N85	N	0.378509	-0.298546	-0.450003
N86	N	0.711842	0.034788	-0.116669
N87	N	1.045176	0.368121	0.216664
C88	C	0.346563	-0.303313	-0.380810
C89	C	0.679896	0.030020	-0.047477
C90	C	1.013230	0.363353	0.285857
C91	C	0.577532	-0.263075	-0.431435
C92	C	0.910866	0.070258	-0.098102
C93	C	1.244199	0.403592	0.235231
C94	C	0.643276	-0.263075	-0.431436
C95	C	0.976609	0.070259	-0.098103
C96	C	1.309943	0.403592	0.235230
C97	C	0.643218	-0.343497	-0.330149
C98	C	0.976551	-0.010163	0.003184
C99	C	1.309885	0.323170	0.336518
C100	C	0.577476	-0.343500	-0.330155
C101	C	0.910809	-0.010167	0.003179
C102	C	1.244142	0.323166	0.336512
C103	C	0.544637	-0.303286	-0.380797
C104	C	0.877970	0.030047	-0.047463
C105	C	1.211303	0.363381	0.285870
C106	C	0.909554	-0.466850	-0.380761
C107	C	1.242888	-0.133516	-0.047427
C108	C	1.576221	0.199817	0.285906
C109	C	0.909577	-0.536818	-0.380768
C110	C	1.242910	-0.203485	-0.047435
C111	C	1.576243	0.129849	0.285898
C112	C	0.949867	-0.569682	-0.330271
C113	C	1.283201	-0.236349	0.003062
C114	C	1.616534	0.096984	0.336396
C115	C	0.949897	-0.635425	-0.330289
C116	C	1.283230	-0.302092	0.003045
C117	C	1.616563	0.031242	0.336378
C118	C	0.909624	-0.668300	-0.380796
C119	C	1.242958	-0.334967	-0.047462
C120	C	1.576291	-0.001634	0.285871
C121	C	0.869331	-0.635428	-0.431303
C122	C	1.202664	-0.302094	-0.097970
C123	C	1.535997	0.031239	0.235364
C124	C	0.869307	-0.569687	-0.431289
C125	C	1.202640	-0.236353	-0.097956
C126	C	1.535973	0.096980	0.235377
N127	N	0.854557	-0.771562	-0.386814
N128	N	1.187890	-0.438228	-0.053481
N129	N	1.521223	-0.104895	0.279853
N130	N	0.854581	-0.834013	-0.386822
N131	N	1.187914	-0.500680	-0.053489
N132	N	1.521248	-0.167347	0.279844
C133	C	0.909695	-0.866375	-0.380841
C134	C	1.243028	-0.533042	-0.047508
C135	C	1.576361	-0.199708	0.285826
N136	N	0.964784	-0.833926	-0.374836
N137	N	1.298118	-0.500593	-0.041502
N138	N	1.631451	-0.167259	0.291831
N139	N	0.964759	-0.771469	-0.374823
N140	N	1.298093	-0.438136	-0.041490
N141	N	1.631426	-0.104802	0.291844
C142	C	0.909646	-0.739586	-0.380816
C143	C	1.242979	-0.406252	-0.047483
C144	C	1.576313	-0.072919	0.285850
C145	C	0.950021	-0.970525	-0.330360
C146	C	1.283354	-0.637192	0.002973
C147	C	1.616688	-0.303858	0.336307
C148	C	0.950052	-1.036269	-0.330383
C149	C	1.283385	-0.702935	0.002950
C150	C	1.616718	-0.369602	0.336283
C151	C	0.869480	-1.036270	-0.431394
C152	C	1.202813	-0.702937	-0.098060
C153	C	1.536146	-0.369604	0.235273
C154	C	0.869455	-0.970528	-0.431374
C155	C	1.202788	-0.637195	-0.098041
C156	C	1.536122	-0.303861	0.235292
C157	C	0.909725	-0.937659	-0.380853
C158	C	1.243058	-0.604326	-0.047520
C159	C	1.576391	-0.270993	0.285813
C160	C	1.073827	-0.303323	-0.380827
C161	C	1.407160	0.030011	-0.047494
C162	C	1.740494	0.363344	0.285839
C163	C	1.143795	-0.303333	-0.380837
C164	C	1.477128	0.030000	-0.047504
C165	C	1.810462	0.363333	0.285830
C166	C	0.909663	-0.303246	-0.586973
C167	C	1.242996	0.030087	-0.253639
C168	C	1.576330	0.363421	0.079694
C169	C	0.909674	-0.303224	-0.674829
C170	C	1.243007	0.030110	-0.341496
C171	C	1.576341	0.363443	-0.008163
C172	C	0.909737	-0.139108	-0.380866
C173	C	1.243070	0.194226	-0.047532
C174	C	1.576403	0.527559	0.285801
C175	C	0.909779	-0.069140	-0.380892
C176	C	1.243113	0.264194	-0.047558
C177	C	1.576446	0.597527	0.285775
C178	C	0.869467	-0.343409	-1.046287
C179	C	1.202800	-0.010076	-0.712954
C180	C	1.536134	0.323257	-0.379620
C181	C	0.950032	-0.262906	-1.046323
C182	C	1.283365	0.070428	-0.712990
C183	C	1.616699	0.403761	-0.379657
C184	C	0.950015	-0.262919	-0.963778
C185	C	1.283348	0.070414	-0.630444
C186	C	1.616682	0.403748	-0.297111
C187	C	0.909724	-0.303179	-0.922483
C188	C	1.243058	0.030155	-0.589149
C189	C	1.576391	0.363488	-0.255816
C190	C	0.869450	-0.343425	-0.963734
C191	C	1.202784	-0.010092	-0.630400
C192	C	1.536117	0.323242	-0.297067
C193	C	0.990293	-0.222678	-0.922520
C194	C	1.323626	0.110656	-0.589187
C195	C	1.656960	0.443989	-0.255854
C196	C	0.990278	-0.222690	-0.839969
C197	C	1.323612	0.110643	-0.506636
C198	C	1.656945	0.443977	-0.173303
C199	C	0.949984	-0.262947	-0.798673
C200	C	1.283317	0.070386	-0.465340
C201	C	1.616650	0.403720	-0.132006
C202	C	0.909708	-0.303195	-0.839929
C203	C	1.243041	0.030139	-0.506596
C204	C	1.576374	0.363472	-0.173262
C205	C	0.869417	-0.343454	-0.798634
C206	C	1.202750	-0.010121	-0.465301
C207	C	1.536083	0.323212	-0.131967
C208	C	0.829137	-0.383699	-0.839889
C209	C	1.162470	-0.050366	-0.506555
C210	C	1.495804	0.282967	-0.173222
C211	C	0.829156	-0.383682	-0.922437
C212	C	1.162489	-0.050349	-0.589104
C213	C	1.495822	0.282984	-0.255770
C214	C	0.949965	-0.262964	-0.716124
C215	C	1.283298	0.070369	-0.382791
C216	C	1.616632	0.403703	-0.049458
C217	C	0.869400	-0.343470	-0.716080
C218	C	1.202733	-0.010137	-0.382747
C219	C	1.536067	0.323196	-0.049414
C220	C	0.909647	-0.303305	-0.175438
C221	C	1.242980	0.030029	0.157895
C222	C	1.576314	0.363362	0.491228
C223	C	0.909758	-0.303149	-0.087582
C224	C	1.243091	0.030184	0.245751
C225	C	1.576424	0.363517	0.579085
H226	H	0.670057	-0.230329	-0.472672
H227	H	1.003391	0.103004	-0.139339
H228	H	1.336724	0.436338	0.193994
H229	H	0.836670	-0.376174	-1.079880
H230	H	1.170004	-0.042841	-0.746547
H231	H	1.503337	0.290493	-0.413214
H232	H	0.982813	-0.943762	-0.289225
H233	H	1.316146	-0.610429	0.044108
H234	H	1.649480	-0.277096	0.377442
H235	H	0.269220	-0.230364	-0.472698
H236	H	0.602553	0.102970	-0.139364
H237	H	0.935886	0.436303	0.193969
H238	H	0.836692	-1.063037	-0.472521
H239	H	1.170025	-0.729704	-0.139188
H240	H	1.503359	-0.396370	0.194146
F241	F	0.992781	-0.670409	-0.276539
F242	F	1.326114	-0.337076	0.056794
F243	F	1.659448	-0.003742	0.390127
H244	H	0.836644	-0.943768	-0.472491
H245	H	1.169977	-0.610435	-0.139158
H246	H	1.503310	-0.277101	0.194176
H247	H	0.982838	-0.230131	-1.079951
H248	H	1.316172	0.103202	-0.746617
H249	H	1.649505	0.436535	-0.413284
F250	F	0.542580	-0.220278	-0.485334
F251	F	0.875914	0.113056	-0.152001
F252	F	1.209247	0.446389	0.181333
F253	F	0.786293	-0.426512	-0.966348
F254	F	1.119627	-0.093179	-0.633015
F255	F	1.452960	0.240155	-0.299681
F256	F	0.826422	-0.534709	-0.485038
F257	F	1.159755	-0.201375	-0.151705
F258	F	1.493088	0.131958	0.181628
F259	F	0.826472	-0.670417	-0.485059
F260	F	1.159806	-0.337084	-0.151726
F261	F	1.493139	-0.003750	0.181607
F262	F	0.678171	-0.386289	-0.276253
F263	F	1.011504	-0.052955	0.057080
F264	F	1.344837	0.280378	0.390414
H265	H	0.550693	-0.376245	-0.288922
H266	H	0.884026	-0.042911	0.044412
H267	H	1.217359	0.290422	0.377745
F268	F	0.992733	-0.534705	-0.276510
F269	F	1.326067	-0.201371	0.056823
F270	F	1.659400	0.131962	0.390156
H271	H	0.982865	-1.063026	-0.289264
H272	H	1.316198	-0.729693	0.044070
H273	H	1.649532	-0.396359	0.377403
F274	F	1.033174	-0.179838	-0.966473
F275	F	1.366508	0.153495	-0.633140
F276	F	1.699841	0.486829	-0.299806
F277	F	0.826513	-0.386318	-0.672138
F278	F	1.159846	-0.052985	-0.338804
F279	F	1.493180	0.280349	-0.005471
H280	H	1.023076	-0.189920	-0.806387
H281	H	1.356409	0.143414	-0.473054
H282	H	1.689743	0.476747	-0.139720
H283	H	0.796335	-0.416482	-0.806255
H284	H	1.129668	-0.083148	-0.472922
H285	H	1.463002	0.250185	-0.139589
H286	H	0.149956	-0.230376	-0.472709
H287	H	0.483289	0.102958	-0.139375
H288	H	0.816623	0.436291	0.193958
F289	F	0.277333	-0.386329	-0.276290
F290	F	0.610666	-0.052995	0.057043
F291	F	0.944000	0.280338	0.390377
H292	H	0.149852	-0.376296	-0.288964
H293	H	0.483185	-0.042963	0.044369
H294	H	0.816519	0.290370	0.377703
F295	F	0.992834	-0.220140	-0.672222
F296	F	1.326168	0.113194	-0.338889
F297	F	1.659501	0.446527	-0.005555
