data_functionalizedCrystal
_audit_creation_method	'MofGen! by Chris Wilmer'
_symmetry_space_group_name_H-M	'P1'
_symmetry_Int_Tables_number	1
_symmetry_cell_setting	triclinic
loop_
_symmetry_equiv_pos_as_xyz
  x,y,z
_cell_length_a	31.640172
_cell_length_b	23.096457
_cell_length_c	23.096457
_cell_angle_alpha	90.003586
_cell_angle_beta	60.006251
_cell_angle_gamma	60.001847
loop_
_atom_site_label
_atom_site_type_symbol
_atom_site_fract_x
_atom_site_fract_y
_atom_site_fract_z
Zr1	Zr	0.462592	-0.075994	0.557845
O2	O	0.550757	-0.168438	0.465406
O3	O	0.374426	-0.047656	0.586172
O4	O	0.462591	-0.168443	0.586178
O5	O	0.462592	0.047630	0.465407
O6	O	0.462592	-0.168447	0.681459
O7	O	0.462591	-0.047650	0.465399
O8	O	0.304881	0.047620	0.681447
O9	O	0.620304	-0.168437	0.465419
O10	O	0.410691	-0.035572	0.669373
O11	O	0.410691	0.035538	0.598272
O12	O	0.514495	-0.106674	0.598280
O13	O	0.514495	-0.035565	0.527179
Zr14	Zr	0.462596	0.075962	0.709819
Zr15	Zr	0.462594	-0.075999	0.709807
Zr16	Zr	0.462594	0.075967	0.557858
Zr17	Zr	0.573512	-0.075992	0.557866
Zr18	Zr	0.351676	0.075960	0.709798
O19	O	0.550762	0.047624	0.681493
O20	O	0.550759	-0.168446	0.681475
O21	O	0.550759	0.047632	0.465424
O22	O	0.374431	0.168405	0.802259
O23	O	0.374429	-0.047664	0.802241
O24	O	0.374429	0.168413	0.586189
O25	O	0.462595	-0.047662	0.802257
O26	O	0.462597	0.168411	0.681486
O27	O	0.462595	0.168415	0.586206
O28	O	0.462597	0.047618	0.802265
O29	O	0.620306	-0.168441	0.586208
O30	O	0.304882	0.168409	0.681457
O31	O	0.304884	0.168404	0.802246
O32	O	0.304882	0.047616	0.802236
O33	O	0.620306	-0.047648	0.465429
O34	O	0.620307	-0.047652	0.586218
O35	O	0.410693	0.106642	0.669385
O36	O	0.410693	0.035533	0.740485
O37	O	0.514496	-0.035570	0.669392
O38	O	0.514496	0.035539	0.598292
C39	C	0.323850	-0.000018	0.633806
C40	C	0.276761	-0.000019	0.633797
C41	C	0.462592	-0.000009	0.443752
C42	C	0.462591	-0.000007	0.379240
C43	C	0.462596	0.190064	0.633848
C44	C	0.462597	0.254576	0.633853
C45	C	-0.015281	-0.037128	0.670960
C46	C	-0.192277	-0.037127	0.670975
O47	O	-0.215181	-0.068670	0.702565
N48	N	-0.214406	-0.000011	0.633860
C49	C	-0.192286	0.037113	0.596743
O50	O	-0.215174	0.068689	0.565181
C51	C	-0.015294	0.037116	0.596733
C52	C	0.006837	-0.000009	0.633844
C53	C	0.006850	-0.074249	0.708069
C54	C	0.051098	-0.074252	0.708062
C55	C	0.073216	-0.037134	0.670946
C56	C	0.051086	-0.000012	0.633837
C57	C	0.006822	0.074243	0.559620
C58	C	0.051072	0.074242	0.559623
C59	C	0.073203	0.037117	0.596734
C60	C	0.117452	0.037104	0.596714
N61	N	0.139581	-0.000013	0.633829
C62	C	0.117463	-0.037132	0.670945
C63	C	-0.285208	0.037107	0.596750
C64	C	-0.329455	0.037105	0.596751
C65	C	-0.329444	-0.037134	0.670984
C66	C	-0.285193	-0.037136	0.670978
C67	C	-0.263079	-0.000010	0.633864
C68	C	0.210389	-0.037136	0.670926
C69	C	0.254643	-0.037138	0.670913
C70	C	0.254626	0.037104	0.596683
C71	C	0.210377	0.037104	0.596693
C72	C	0.188259	-0.000018	0.633820
O73	O	0.140380	0.068636	0.565147
O74	O	0.140349	-0.068690	0.702515
C75	C	-0.059529	-0.037125	0.670968
C76	C	-0.081660	-0.000003	0.633859
C77	C	-0.059542	0.037115	0.596743
C78	C	-0.125907	-0.000005	0.633860
C79	C	-0.148025	-0.037124	0.670976
C80	C	-0.125896	-0.074241	0.708091
C81	C	-0.081647	-0.074244	0.708084
C82	C	-0.081671	0.074232	0.559628
C83	C	-0.125919	0.074231	0.559637
C84	C	-0.148037	0.037113	0.596753
C85	C	0.601338	-0.000014	0.633858
C86	C	0.648427	-0.000013	0.633867
C87	C	0.462592	-0.190096	0.633817
C88	C	0.462591	-0.254608	0.633811
C89	C	0.516780	0.247767	0.596746
C90	C	0.516781	0.308382	0.596736
C91	C	0.462596	0.375806	0.633846
C92	C	0.408406	0.382613	0.670954
C93	C	0.408407	0.321998	0.670958
N94	N	0.422263	0.498607	0.694240
N95	N	0.422266	0.556187	0.694235
C96	C	0.462590	0.558439	0.633836
N97	N	0.502920	0.500931	0.573442
N98	N	0.502919	0.443345	0.573449
C99	C	0.462589	0.441538	0.633846
C100	C	0.516778	0.617354	0.596714
C101	C	0.516776	0.677972	0.596702
C102	C	0.408400	0.752202	0.670927
C103	C	0.408403	0.691584	0.670933
C104	C	0.462593	0.624163	0.633828
C105	C	0.408408	0.037101	0.386044
C106	C	0.408407	0.037104	0.325429
C107	C	0.462592	-0.000014	0.258010
C108	C	0.516782	-0.037124	0.251208
C109	C	0.516781	-0.037120	0.311823
N110	N	0.502925	-0.060424	0.135217
N111	N	0.502922	-0.060426	0.077637
C112	C	0.462598	-0.000027	0.075377
N113	N	0.422268	0.060374	0.132878
N114	N	0.422269	0.060375	0.190464
C115	C	0.462599	-0.000022	0.192279
C116	C	0.408410	0.037088	0.016458
C117	C	0.408412	0.037093	-0.044161
C118	C	0.516788	-0.037143	-0.118381
C119	C	0.516785	-0.037141	-0.057763
C120	C	0.462594	-0.000027	0.009654
C121	C	0.462596	-0.000023	0.823913
C122	C	0.462597	-0.000025	0.888424
C123	C	0.323852	-0.000025	0.823886
C124	C	0.276764	-0.000028	0.888389
C125	C	0.323852	0.190062	0.633822
C126	C	0.276764	0.254573	0.633818
C127	C	0.323854	0.190055	0.823902
C128	C	0.276767	0.254564	0.888410
C129	C	0.601334	-0.190087	0.443762
C130	C	0.648421	-0.254596	0.379254
C131	C	0.601336	-0.000007	0.443778
C132	C	0.648424	-0.000004	0.379275
C133	C	0.601336	-0.190094	0.633843
C134	C	0.648424	-0.254605	0.633846
C135	C	0.254650	-0.037152	0.881560
C136	C	0.210413	-0.037169	0.942162
C137	C	0.188286	-0.000058	1.009591
C138	C	0.210405	0.037067	1.016419
C139	C	0.254645	0.037079	0.955818
C140	C	0.254652	0.321990	0.670937
C141	C	0.210415	0.382610	0.670931
C142	C	0.188287	0.375812	0.633810
C143	C	0.210403	0.308388	0.596687
C144	C	0.254643	0.247769	0.596689
C145	C	0.254655	0.247739	0.955824
C146	C	0.210418	0.308346	1.016442
C147	C	0.188291	0.375776	1.009644
C148	C	0.210408	0.382599	0.942223
C149	C	0.254647	0.321993	0.881607
C150	C	0.670538	-0.247771	0.311841
C151	C	0.714789	-0.308378	0.251223
C152	C	0.736918	-0.375808	0.258020
C153	C	0.714799	-0.382632	0.325441
C154	C	0.670552	-0.322026	0.386058
C155	C	0.670542	0.037113	0.386104
C156	C	0.714792	0.037114	0.325503
C157	C	0.736920	0.000001	0.258073
C158	C	0.714800	-0.037121	0.251246
C159	C	0.670553	-0.037125	0.311847
C160	C	0.670538	-0.247784	0.670974
C161	C	0.714776	-0.308393	0.670991
C162	C	0.736902	-0.375822	0.633876
C163	C	0.714784	-0.382641	0.596747
C164	C	0.670543	-0.322033	0.596734
H165	H	0.272662	-0.067372	0.701133
H166	H	0.732792	-0.302809	0.196332
H167	H	0.152269	0.425120	1.059008
H168	H	0.772948	0.000010	0.208734
H169	H	0.272641	0.192878	0.566465
H170	H	0.364283	0.327547	0.701175
H171	H	0.192415	0.302778	1.071333
H172	H	0.192413	0.437504	0.701163
H173	H	0.364282	0.807099	0.701138
H174	H	0.192383	0.067281	1.071328
H175	H	0.652544	-0.327591	0.440947
H176	H	0.192386	0.437509	0.936699
H177	H	0.732795	0.067345	0.331076
H178	H	0.152264	0.425178	0.633814
H179	H	0.192384	-0.067362	0.701159
H180	H	0.732823	-0.067338	0.196337
H181	H	0.652546	-0.067348	0.306276
H182	H	0.652529	-0.192886	0.701198
H183	H	0.732780	-0.302827	0.701225
H184	H	0.364285	0.067323	0.071352
H185	H	0.272646	0.327560	0.826718
H186	H	0.272644	0.067314	0.961388
H187	H	0.272665	-0.067380	0.826661
H188	H	0.772925	-0.425168	0.633892
H189	H	0.272664	0.327538	0.701165
H190	H	0.560906	0.192873	0.566531
H191	H	0.732806	-0.437550	0.566529
H192	H	0.652543	-0.327597	0.566497
H193	H	0.652523	-0.192871	0.306292
H194	H	0.192409	-0.067400	0.936589
H195	H	0.560900	-0.067346	0.196311
H196	H	0.772947	-0.425152	0.208657
H197	H	0.192380	0.302864	0.566464
H198	H	0.364284	0.067323	0.330970
H199	H	0.560905	-0.067336	0.306278
H200	H	0.732822	-0.437541	0.330967
H201	H	0.272664	0.192839	0.961372
H202	H	0.069113	-0.104480	0.738284
H203	H	-0.011156	-0.104475	0.738297
H204	H	0.652529	0.067340	0.441003
H205	H	-0.347459	-0.067359	0.701205
H206	H	-0.267177	-0.067366	0.701198
H207	H	0.364288	0.437514	0.701168
H208	H	-0.347464	0.067327	0.566522
H209	H	-0.267208	0.067342	0.566526
H210	H	-0.011190	0.104475	0.529401
H211	H	0.069075	0.104474	0.529398
H212	H	0.364288	0.067316	-0.038614
H213	H	0.560903	0.562455	0.566498
H214	H	0.272644	0.067323	0.566462
H215	H	0.192364	0.067324	0.566465
H216	H	0.152263	-0.000073	1.058930
H217	H	-0.143931	0.104461	0.529410
H218	H	-0.143909	-0.104467	0.738310
H219	H	-0.063631	-0.104474	0.738303
H220	H	-0.063669	0.104461	0.529405
H221	H	0.364282	0.697132	0.701153
H222	H	0.560904	0.302838	0.566516
H223	H	0.560900	0.672421	0.566481
H224	H	0.560906	-0.067366	-0.173274
H225	H	0.364282	0.067317	0.440935
H226	H	0.560906	-0.067363	-0.063307
