data_functionalizedCrystal
_audit_creation_method	'MofGen! by Chris Wilmer'
_symmetry_space_group_name_H-M	'P1'
_symmetry_Int_Tables_number	1
_symmetry_cell_setting	triclinic
loop_
_symmetry_equiv_pos_as_xyz
  x,y,z
_cell_length_a	13.262533
_cell_length_b	15.186229
_cell_length_c	16.109304
_cell_angle_alpha	89.999066
_cell_angle_beta	83.968701
_cell_angle_gamma	105.913449
loop_
_atom_site_label
_atom_site_type_symbol
_atom_site_fract_x
_atom_site_fract_y
_atom_site_fract_z
O1	O	1.392588	0.260305	0.112000
O2	O	1.087011	0.187117	0.124173
O3	O	1.248193	0.225721	-0.002913
O4	O	1.231407	0.221702	0.239086
O5	O	1.248182	0.372176	-0.002915
O6	O	1.087000	0.333572	0.124171
O7	O	1.392578	0.406760	0.111998
Zn8	Zn	1.239787	0.393419	0.118084
Zn9	Zn	1.239801	0.200458	0.118087
O10	O	1.231396	0.368156	0.239085
C11	C	1.047903	0.250979	0.123489
C12	C	0.931390	0.223074	0.121444
N13	N	1.239785	0.525111	0.118082
N14	N	1.239812	0.068768	0.118082
C15	C	0.602926	0.463742	0.115688
C16	C	0.712395	0.489965	0.117613
C17	C	0.767149	0.423245	0.118571
C18	C	0.712423	0.330296	0.117604
C19	C	0.602942	0.304071	0.115685
C20	C	0.767165	0.263573	0.118568
C21	C	0.712439	0.170625	0.117601
C22	C	0.602969	0.144403	0.115681
C23	C	0.548215	0.211124	0.114724
C24	C	0.876646	0.289799	0.120486
C25	C	0.876663	0.130127	0.120483
C26	C	0.767193	0.103904	0.118558
C27	C	1.431686	0.342896	0.112682
C28	C	1.548199	0.370796	0.114727
C29	C	1.247507	0.298783	-0.033892
C30	C	1.245467	0.298289	-0.126194
C31	C	1.311181	0.767933	0.061828
C32	C	1.311184	0.860124	0.061826
C33	C	1.168408	0.825938	0.174340
C34	C	1.168401	0.733748	0.174337
C35	C	1.239793	0.704749	0.118082
C36	C	1.239804	0.889130	0.118083
C37	C	1.239807	0.989086	0.118081
C38	C	1.239789	0.604786	0.118082
C39	C	1.240759	0.217331	-0.338548
C40	C	1.238833	0.216870	-0.425275
C41	C	1.238826	0.376544	-0.425274
C42	C	1.240745	0.377002	-0.338548
C43	C	1.241717	0.297394	-0.295187
C44	C	1.237871	0.296475	-0.468641
C45	C	1.235783	0.295977	-0.562675
C46	C	1.243804	0.297892	-0.201148
C47	C	1.232082	0.295092	0.270063
C48	C	1.234122	0.295581	0.362366
H49	H	0.856284	0.444601	0.120139
H50	H	1.369311	0.744326	0.016020
C51	C	0.542710	0.537126	0.114555
H52	H	0.469679	0.508194	0.113245
H53	H	0.552594	0.572353	0.163268
H54	H	0.568703	0.576101	0.066414
H55	H	0.921194	0.365478	0.121276
H56	H	1.241519	0.442202	-0.303242
H57	H	1.369313	0.911567	0.016017
C58	C	1.089893	0.857842	0.236223
H59	H	1.100129	0.921799	0.228175
H60	H	1.019850	0.825969	0.226923
H61	H	1.101281	0.845454	0.291757
H62	H	1.110263	0.682298	0.220147
H63	H	1.238037	0.441359	-0.460589
C64	C	0.427790	0.182274	0.112652
H65	H	0.403034	0.117363	0.112226
H66	H	0.395038	0.203917	0.160654
H67	H	0.411003	0.207736	0.063797
C68	C	1.241816	0.129763	-0.290853
H69	H	1.240960	0.082013	-0.329100
H70	H	1.303732	0.141266	-0.263148
H71	H	1.181388	0.111975	-0.250894
C72	C	1.237789	0.128803	-0.472969
H73	H	1.238652	0.081463	-0.434723
H74	H	1.175874	0.110650	-0.500674
H75	H	1.298218	0.139961	-0.512929
H76	H	0.756946	0.565644	0.118400
H77	H	0.722620	0.028224	0.117771
C78	C	0.542773	0.042164	0.114616
H79	H	0.591059	0.006183	0.115452
H80	H	0.492045	0.026686	0.162289
H81	H	0.508092	0.030546	0.065434
H82	H	0.921242	0.075797	0.121266
