data_functionalizedCrystal
_audit_creation_method	'MofGen! by Chris Wilmer'
_symmetry_space_group_name_H-M	'P1'
_symmetry_Int_Tables_number	1
_symmetry_cell_setting	triclinic
loop_
_symmetry_equiv_pos_as_xyz
  x,y,z
_cell_length_a	6.817900
_cell_length_b	12.908943
_cell_length_c	19.551823
_cell_angle_alpha	96.125540
_cell_angle_beta	101.663376
_cell_angle_gamma	100.860631
loop_
_atom_site_label
_atom_site_type_symbol
_atom_site_fract_x
_atom_site_fract_y
_atom_site_fract_z
V1	V	-3.987271	-0.329170	-0.095801
O2	O	-3.984823	-0.322397	0.005501
O3	O	-3.930125	-0.327407	-0.190821
O4	O	-3.925722	-0.472510	-0.093934
O5	O	-3.989257	-0.176289	-0.092057
V6	V	-4.473735	-0.310825	-0.083731
O7	O	-4.242076	-0.369412	-0.122279
O8	O	-4.669128	-0.270584	-0.057254
O9	O	-4.307674	-0.312589	0.011289
O10	O	-4.593580	-0.317599	-0.185034
O11	O	-4.589146	-0.463707	-0.087476
O12	O	-4.312078	-0.167485	-0.085598
C13	C	-3.773424	-0.322340	-0.213997
C14	C	-3.807900	-0.321854	-0.291675
C15	C	-4.005379	-0.326897	-0.331707
C16	C	-4.037776	-0.326450	-0.404694
C17	C	-3.872677	-0.320939	-0.437644
C18	C	-3.675172	-0.315902	-0.397603
C19	C	-3.642784	-0.316359	-0.324619
C20	C	-3.765580	-0.254094	-0.544309
C21	C	-3.797974	-0.253630	-0.617292
C22	C	-3.972568	-0.319534	-0.662754
C23	C	-4.114794	-0.385889	-0.635223
C24	C	-4.082406	-0.386346	-0.562238
C25	C	-3.907777	-0.320444	-0.516784
C26	C	-4.205189	-0.324095	-0.781928
C27	C	-4.237582	-0.323655	-0.854917
C28	C	-3.874968	-0.313096	-0.847823
C29	C	-3.842585	-0.313547	-0.774837
C30	C	-4.007701	-0.319041	-0.741893
C31	C	-3.767806	-0.507433	-0.090407
C32	C	-3.798709	-0.624617	-0.089509
C33	C	-4.219391	-0.855590	-0.094755
C34	C	-4.248436	-0.965696	-0.093912
C35	C	-3.885845	-0.954934	-0.086974
C36	C	-3.856800	-0.844829	-0.087817
C37	C	-4.023581	-0.795161	-0.091709
C38	C	-3.994536	-0.685055	-0.092558
C39	C	-3.631944	-0.674294	-0.085614
C40	C	-3.660990	-0.784400	-0.084771
C41	C	-4.127718	-0.317653	0.034461
C42	C	-4.072479	-0.318146	0.112138
C43	C	-4.133336	-0.132558	-0.089128
C44	C	-4.081672	-0.015372	-0.090022
H45	H	-3.682171	-0.199593	-0.639702
H46	H	-3.525207	-0.824854	-0.081600
H47	H	-3.472499	-0.625081	-0.083137
H48	H	-3.750067	-0.995392	-0.083800
H49	H	-4.198593	-0.330557	-0.437295
C50	C	-4.184507	-0.332655	-0.295884
C51	C	-4.147882	-0.242054	-0.245027
C52	C	-4.312863	-0.247319	-0.212019
H53	H	-4.198990	-0.394780	-0.273721
H54	H	-4.306788	-0.335541	-0.330159
H55	H	-4.025635	-0.239179	-0.210757
H56	H	-4.133421	-0.179916	-0.267171
H57	H	-4.435145	-0.250204	-0.246294
H58	H	-4.327334	-0.309447	-0.189860
H59	H	-4.288045	-0.185844	-0.177513
H60	H	-4.256771	-0.439700	-0.672247
C61	C	-4.237127	-0.458324	-0.532435
C62	C	-4.428620	-0.431502	-0.550731
C63	C	-4.571201	-0.497799	-0.523297
H64	H	-4.193121	-0.449220	-0.482458
H65	H	-4.247980	-0.530602	-0.551404
H66	H	-4.417763	-0.359242	-0.531758
H67	H	-4.472689	-0.440612	-0.600703
H68	H	-4.582055	-0.570077	-0.542266
H69	H	-4.527176	-0.488689	-0.473321
H70	H	-4.701149	-0.479616	-0.535712
C71	C	-4.384297	-0.329851	-0.746092
C72	C	-4.347653	-0.239242	-0.695239
C73	C	-4.512611	-0.244500	-0.662221
H74	H	-4.398762	-0.391970	-0.723923
H75	H	-4.506592	-0.332743	-0.780362
H76	H	-4.225392	-0.236360	-0.660975
H77	H	-4.333210	-0.177109	-0.717390
H78	H	-4.634907	-0.247392	-0.696491
H79	H	-4.527064	-0.306622	-0.640056
H80	H	-4.487780	-0.183020	-0.627718
H81	H	-4.407881	-1.014894	-0.096393
H82	H	-3.681775	-0.309433	-0.742241
C83	C	-3.576193	-0.182348	-0.494973
C84	C	-3.576578	-0.075707	-0.502427
C85	C	-3.402173	-0.009587	-0.456984
H86	H	-3.456584	-0.200118	-0.506507
H87	H	-3.577257	-0.192053	-0.447551
H88	H	-3.575495	-0.066007	-0.549839
H89	H	-3.696148	-0.057904	-0.490888
H90	H	-3.403237	-0.019292	-0.409562
H91	H	-3.282577	-0.027367	-0.468522
H92	H	-3.402420	0.062776	-0.462031
C93	C	-4.451844	-0.328946	-0.898447
C94	C	-4.452325	-0.237839	-0.931391
C95	C	-4.649663	-0.242676	-0.971502
H96	H	-4.545705	-0.332227	-0.868445
H97	H	-4.491506	-0.390746	-0.933325
H98	H	-4.412689	-0.176056	-0.896518
H99	H	-4.358506	-0.234541	-0.961406
H100	H	-4.689325	-0.304476	-1.006379
H101	H	-4.743508	-0.245959	-0.941494
H102	H	-4.650011	-0.180867	-0.993864
C103	C	-4.175602	-0.631103	-0.096926
C104	C	-4.200562	-0.582750	-0.157978
C105	C	-4.367360	-0.533055	-0.162029
H106	H	-4.150990	-0.578464	-0.056542
H107	H	-4.296447	-0.682844	-0.098657
H108	H	-4.079745	-0.531014	-0.156241
H109	H	-4.225207	-0.635366	-0.198372
H110	H	-4.488205	-0.584796	-0.163759
H111	H	-4.342732	-0.480421	-0.121642
H112	H	-4.384329	-0.500250	-0.203455
H113	H	-3.740543	-0.308615	-0.874651
H114	H	-3.540750	-0.311417	-0.424436
H115	H	-3.481970	-0.312253	-0.292024
H116	H	-4.355196	-0.815152	-0.097932
