data_functionalizedCrystal
_audit_creation_method	'MofGen! by Chris Wilmer'
_symmetry_space_group_name_H-M	'P1'
_symmetry_Int_Tables_number	1
_symmetry_cell_setting	triclinic
loop_
_symmetry_equiv_pos_as_xyz
  x,y,z
_cell_length_a	18.050589
_cell_length_b	14.908571
_cell_length_c	14.908308
_cell_angle_alpha	90.175053
_cell_angle_beta	86.730698
_cell_angle_gamma	93.275442
loop_
_atom_site_label
_atom_site_type_symbol
_atom_site_fract_x
_atom_site_fract_y
_atom_site_fract_z
Zn1	Zn	-0.387558	-1.345230	0.587600
Zn2	Zn	-0.505024	-1.353791	0.437245
Zn3	Zn	-0.373294	-1.203548	0.428597
Zn4	Zn	-0.504142	-1.194819	0.578897
O5	O	-0.442504	-1.274347	0.508085
O6	O	-0.409479	-1.472191	0.574916
O7	O	-0.481949	-1.341097	0.310273
O8	O	-0.271266	-1.222413	0.449712
O9	O	-0.495781	-1.478480	0.464452
O10	O	-0.281746	-1.326506	0.566530
O11	O	-0.385168	-1.230714	0.303919
O12	O	-0.384312	-1.076565	0.441273
O13	O	-0.494277	-1.207536	0.705876
O14	O	-0.480446	-1.070152	0.551698
O15	O	-0.408624	-1.318042	0.712270
O16	O	-0.608827	-1.332633	0.456013
O17	O	-0.608179	-1.215836	0.560084
C18	C	-0.430736	-1.040734	0.494603
C19	C	-0.425720	-0.940791	0.488857
C20	C	-0.635451	-1.274239	0.508063
C21	C	-0.717999	-1.274274	0.508089
C22	C	-0.452943	-1.260860	0.742610
C23	C	-0.457391	-1.255113	0.842551
C24	C	-0.917126	-1.210820	0.564665
C25	C	-0.961795	-1.193639	0.481356
C26	C	-0.869134	-1.274362	0.508106
C27	C	-0.971550	-1.291586	0.591427
C28	C	-1.015125	-1.274444	0.508129
C29	C	-0.912712	-1.257140	0.424750
C30	C	-0.922467	-1.355122	0.534880
C31	C	-0.967112	-1.337975	0.451515
C32	C	-0.785033	-1.274312	0.508094
C33	C	-1.099224	-1.274495	0.508132
C34	C	-0.248807	-1.274479	0.508127
C35	C	-0.166265	-1.274535	0.508145
C36	C	-0.454320	-1.508873	0.521619
C37	C	-0.459355	-1.608814	0.527387
C38	C	-0.516539	-0.746369	0.592890
C39	C	-0.511829	-0.652464	0.587494
C40	C	-0.411586	-0.659075	0.472674
C41	C	-0.416296	-0.752980	0.478070
C42	C	-0.468775	-0.796623	0.538179
C43	C	-0.473489	-0.890530	0.543570
C44	C	-0.373243	-0.897139	0.428755
C45	C	-0.368533	-0.803235	0.423359
C46	C	-0.432055	-1.287833	0.274474
C47	C	-0.427407	-1.293755	0.174544
C48	C	-0.376542	-1.359381	1.037010
C49	C	-0.380719	-1.353984	1.130914
C50	C	-0.469919	-1.238917	1.124263
C51	C	-0.465741	-1.244314	1.030360
C52	C	-0.419052	-1.304549	0.986737
C53	C	-0.414880	-1.309951	0.892832
C54	C	-0.504075	-1.194880	0.886183
C55	C	-0.508252	-1.189483	0.980086
H56	H	-0.895182	-1.157015	0.612419
H57	H	-0.334352	-0.938067	0.384203
Cl58	Cl	-0.356188	-1.385676	0.837992
H59	H	-0.988912	-1.391749	0.403636
Cl60	Cl	-0.317858	-1.435112	0.982167
Cl61	Cl	-0.345608	-0.604193	0.397129
Cl62	Cl	-1.011211	-1.314029	0.700202
Cl63	Cl	-0.873190	-1.234576	0.315935
Cl64	Cl	-0.539463	-0.945395	0.619132
Cl65	Cl	-0.327274	-1.422917	1.194112
Cl66	Cl	-0.528602	-1.163194	1.179119
H67	H	-0.546263	-1.140439	1.015617
H68	H	-0.538692	-1.150234	0.845240
Cl69	Cl	-0.302560	-0.748360	0.347802
Cl70	Cl	-0.988724	-1.088251	0.446398
H71	H	-0.905010	-1.423362	0.557544
H72	H	-0.550721	-0.611550	0.632047
Cl73	Cl	-0.582518	-0.801238	0.668443
