data_functionalizedCrystal
_audit_creation_method	'MofGen! by Chris Wilmer'
_symmetry_space_group_name_H-M	'P1'
_symmetry_Int_Tables_number	1
_symmetry_cell_setting	triclinic
loop_
_symmetry_equiv_pos_as_xyz
  x,y,z
_cell_length_a	19.188933
_cell_length_b	19.188930
_cell_length_c	9.130313
_cell_angle_alpha	89.993647
_cell_angle_beta	90.001191
_cell_angle_gamma	83.145175
loop_
_atom_site_label
_atom_site_type_symbol
_atom_site_fract_x
_atom_site_fract_y
_atom_site_fract_z
O1	O	0.926140	0.087171	-0.121767
O2	O	1.426140	0.587171	0.378233
O3	O	0.722829	0.098904	-0.121783
O4	O	1.222829	0.598904	0.378217
O5	O	0.830352	-0.008618	-0.121746
O6	O	1.330352	0.491382	0.378254
O7	O	0.818617	0.194693	-0.121804
O8	O	1.318617	0.694693	0.378196
O9	O	0.830350	-0.008615	0.121853
O10	O	1.330350	0.491385	0.621853
O11	O	0.722828	0.098907	0.121816
O12	O	1.222828	0.598907	0.621816
O13	O	0.926139	0.087174	0.121832
O14	O	1.426139	0.587174	0.621832
Cu15	Cu	0.824483	0.093041	0.144067
Cu16	Cu	1.324483	0.593041	0.644067
Cu17	Cu	0.824485	0.093037	-0.144017
Cu18	Cu	1.324485	0.593037	0.355983
O19	O	0.818616	0.194696	0.121795
O20	O	1.318616	0.694696	0.621795
C21	C	0.696817	0.098525	0.000015
C22	C	1.196817	0.598525	0.500015
C23	C	0.619313	0.097384	0.000010
C24	C	1.119313	0.597384	0.500010
C25	C	0.066058	0.089237	-0.132757
C26	C	0.566058	0.589237	0.367243
C27	C	0.138882	0.090305	-0.132763
C28	C	0.638882	0.590305	0.367237
C29	C	0.175299	0.090844	0.000022
C30	C	0.675299	0.590844	0.500022
C31	C	0.138887	0.090297	0.132823
C32	C	0.638887	0.590297	0.632823
C33	C	0.066065	0.089222	0.132825
C34	C	0.566065	0.589222	0.632825
N35	N	0.284318	0.132264	0.098848
N36	N	0.784318	0.632264	0.598848
N37	N	0.353496	0.133287	0.098837
N38	N	0.853496	0.633287	0.598837
C39	C	0.394707	0.094082	0.000023
C40	C	0.894707	0.594082	0.500023
N41	N	0.364127	0.053825	-0.098801
N42	N	0.864127	0.553825	0.401199
N43	N	0.294942	0.052805	-0.098794
N44	N	0.794942	0.552805	0.401206
C45	C	0.254262	0.092009	0.000034
C46	C	0.754262	0.592009	0.500034
C47	C	0.510075	0.095782	-0.132776
C48	C	1.010075	0.595782	0.367224
C49	C	0.582901	0.096846	-0.132776
C50	C	1.082901	0.596846	0.367224
C51	C	0.582904	0.096845	0.132814
C52	C	1.082904	0.596845	0.632814
C53	C	0.510080	0.095774	0.132810
C54	C	1.010080	0.595774	0.632810
C55	C	0.473669	0.095246	0.000012
C56	C	0.973669	0.595246	0.500012
C57	C	0.829971	-0.034628	0.000058
C58	C	1.329971	0.465372	0.500058
C59	C	0.828830	-0.112132	0.000070
C60	C	1.328830	0.387868	0.500070
C61	C	0.891921	-0.157056	0.000082
C62	C	1.391921	0.342944	0.500082
C63	C	0.890849	-0.229880	0.000059
C64	C	1.390849	0.270120	0.500059
C65	C	0.826683	-0.257777	0.000053
C66	C	1.326683	0.242223	0.500053
C67	C	0.763584	-0.212843	0.000032
C68	C	1.263584	0.287157	0.500032
C69	C	0.764658	-0.140021	0.000041
C70	C	1.264658	0.359979	0.500041
N71	N	0.777635	-0.365781	0.082950
N72	N	1.277635	0.134219	0.582950
N73	N	0.776620	-0.434960	0.082945
N74	N	1.276620	0.065040	0.582945
C75	C	0.823445	-0.477185	0.000023
C76	C	1.323445	0.022815	0.500023
N77	N	0.871335	-0.447620	-0.082875
N78	N	1.371335	0.052380	0.417125
N79	N	0.872352	-0.378436	-0.082864
N80	N	1.372352	0.121564	0.417136
C81	C	0.825512	-0.336739	0.000042
C82	C	1.325512	0.163261	0.500042
C83	C	0.885378	-0.601073	0.000007
C84	C	1.385378	-0.101073	0.500007
C85	C	0.884304	-0.673898	-0.000026
C86	C	1.384304	-0.173898	0.499974
C87	C	0.757037	-0.656860	-0.000037
C88	C	1.257037	-0.156860	0.499963
C89	C	0.758113	-0.584037	-0.000019
C90	C	1.258113	-0.084037	0.499981
C91	C	0.822286	-0.556148	0.000010
C92	C	1.322286	-0.056148	0.500010
C93	C	0.952150	0.087553	0.000031
C94	C	1.452150	0.587553	0.500031
C95	C	1.029655	0.088694	0.000026
C96	C	1.529655	0.588694	0.500026
C97	C	0.818997	0.220705	-0.000012
C98	C	1.318997	0.720705	0.499988
C99	C	0.820137	0.298210	-0.000034
C100	C	1.320137	0.798210	0.499966
N101	N	0.824487	0.093042	0.346689
N102	N	1.324487	0.593042	0.846689
N103	N	0.824486	0.093030	-0.346640
N104	N	1.324486	0.593030	0.153360
C105	C	0.872110	0.045448	0.423357
C106	C	1.372110	0.545448	0.923357
C107	C	0.872108	0.045439	0.576694
C108	C	1.372108	0.545439	1.076694
C109	C	0.776858	0.140627	0.576681
C110	C	1.276858	0.640627	1.076681
C111	C	0.776857	0.140631	0.423347
C112	C	1.276857	0.640631	0.923347
C113	C	0.927104	-0.009506	0.423366
C114	C	1.427104	0.490494	0.923366
C115	C	0.927102	-0.009514	0.576703
C116	C	1.427102	0.490486	1.076703
H117	H	0.480439	0.095334	0.240937
H118	H	0.980439	0.595334	0.740937
H119	H	0.738073	0.179380	0.360925
H120	H	1.238073	0.679380	0.860925
H121	H	0.944175	-0.134354	0.000101
H122	H	1.444175	0.365646	0.500101
H123	H	0.910734	-0.060034	0.624263
H124	H	1.410734	0.439966	1.124263
H125	H	0.915813	-0.063037	0.381761
H126	H	1.415813	0.436963	0.881761
C127	C	0.960252	-0.279304	0.000082
C128	C	1.460252	0.220696	0.500082
H129	H	0.998623	-0.252265	0.000110
H130	H	1.498623	0.247735	0.500110
H131	H	0.962483	-0.308063	-0.084864
H132	H	1.462483	0.191937	0.415136
H133	H	0.962469	-0.308069	0.085043
H134	H	1.462469	0.191931	0.585043
C135	C	0.724474	0.192974	0.661009
C136	C	1.224474	0.692974	1.161009
H137	H	0.731296	0.186158	0.763310
H138	H	1.231296	0.686158	1.263310
H139	H	0.677902	0.185507	0.635876
H140	H	1.177902	0.685507	1.135876
H141	H	0.731915	0.239557	0.635878
H142	H	1.231915	0.739557	1.135878
C143	C	0.693004	-0.243527	0.000031
C144	C	1.193004	0.256473	0.500031
H145	H	0.701400	-0.293332	0.000043
H146	H	1.201400	0.206668	0.500043
H147	H	0.667034	-0.228088	-0.084918
H148	H	1.167034	0.271912	0.415082
H149	H	0.667036	-0.228098	0.084989
H150	H	1.167036	0.271902	0.584989
C151	C	0.995321	0.012655	0.359106
C152	C	1.495321	0.512655	0.859106
H153	H	1.025701	0.022518	0.436594
H154	H	1.525701	0.522518	0.936594
H155	H	0.984550	0.053437	0.300536
H156	H	1.484550	0.553437	0.800536
H157	H	1.017803	-0.024327	0.300557
H158	H	1.517803	0.475673	0.800557
C159	C	0.999396	0.005797	0.632935
C160	C	1.499396	0.505797	1.132935
H161	H	1.029126	0.012107	0.552008
H162	H	1.529126	0.512107	1.052008
H163	H	1.019714	-0.032510	0.690738
H164	H	1.519714	0.467490	1.190738
H165	H	0.993944	0.047254	0.690735
H166	H	1.493944	0.547254	1.190735
H167	H	0.036418	0.088804	-0.240893
H168	H	0.536418	0.588804	0.259107
C169	C	0.470020	0.095205	-0.278845
C170	C	0.970020	0.595205	0.221155
H171	H	0.502135	0.095674	-0.357930
H172	H	1.002135	0.595674	0.142070
H173	H	0.436168	0.135496	-0.284361
H174	H	0.936168	0.635496	0.215639
H175	H	0.447057	0.054079	-0.284367
H176	H	0.947057	0.554079	0.215633
C177	C	0.178937	0.090906	-0.278826
C178	C	0.678937	0.590906	0.221174
H179	H	0.227523	0.091617	-0.259805
H180	H	0.727523	0.591617	0.240195
H181	H	0.161553	0.131437	-0.333391
H182	H	0.661553	0.631437	0.166609
H183	H	0.172455	0.050020	-0.333385
H184	H	0.672455	0.550020	0.166615
C185	C	0.178941	0.090893	0.278882
C186	C	0.678941	0.590893	0.778882
H187	H	0.227525	0.091618	0.259864
H188	H	0.727525	0.591618	0.759864
H189	H	0.172460	0.050010	0.333455
H190	H	0.672460	0.550010	0.833455
H191	H	0.161555	0.131427	0.333431
H192	H	0.661555	0.631427	0.833431
H193	H	0.713280	-0.103444	0.000032
H194	H	1.213280	0.396556	0.500032
C195	C	0.622945	0.097444	-0.278846
C196	C	1.122945	0.597444	0.221154
H197	H	0.590827	0.096983	-0.357929
H198	H	1.090827	0.596983	0.142071
H199	H	0.656802	0.057157	-0.284371
H200	H	1.156802	0.557157	0.215629
H201	H	0.645903	0.138574	-0.284363
H202	H	1.145903	0.638574	0.215637
H203	H	0.937631	-0.578365	0.000024
H204	H	1.437631	-0.078365	0.500024
H205	H	0.935682	-0.710475	-0.000024
H206	H	1.435682	-0.210475	0.499976
C207	C	0.686455	-0.687538	-0.000048
C208	C	1.186455	-0.187538	0.499952
H209	H	0.694851	-0.737343	-0.000046
H210	H	1.194851	-0.237343	0.499954
H211	H	0.660487	-0.672095	-0.084997
H212	H	1.160487	-0.172095	0.415003
H213	H	0.660487	-0.672112	0.084910
H214	H	1.160487	-0.172112	0.584910
H215	H	0.612553	0.097281	0.240930
H216	H	1.112553	0.597281	0.740930
H217	H	0.706738	-0.547459	-0.000021
H218	H	1.206738	-0.047459	0.499979
H219	H	0.036425	0.088782	0.240957
H220	H	0.536425	0.588782	0.740957
