data_functionalizedCrystal
_audit_creation_method	'MofGen! by Chris Wilmer'
_symmetry_space_group_name_H-M	'P1'
_symmetry_Int_Tables_number	1
_symmetry_cell_setting	triclinic
loop_
_symmetry_equiv_pos_as_xyz
  x,y,z
_cell_length_a	10.654550
_cell_length_b	9.130313
_cell_length_c	10.654550
_cell_angle_alpha	89.995631
_cell_angle_beta	84.484931
_cell_angle_gamma	89.999724
loop_
_atom_site_label
_atom_site_type_symbol
_atom_site_fract_x
_atom_site_fract_y
_atom_site_fract_z
O1	O	-1.667839	0.121690	-0.176399
O2	O	-1.302361	0.121716	-0.193205
O3	O	-1.493503	0.121693	-0.002063
O4	O	-1.476697	0.121713	-0.367541
O5	O	-1.493490	-0.121906	-0.002057
O6	O	-1.302348	-0.121882	-0.193199
O7	O	-1.667826	-0.121909	-0.176393
Cu8	Cu	-1.485086	-0.144138	-0.184796
Cu9	Cu	-1.485101	0.143946	-0.184802
O10	O	-1.476684	-0.121886	-0.367535
C11	C	-1.255556	-0.000080	-0.191968
C12	C	-1.116113	-0.000070	-0.188276
N13	N	-1.485084	-0.346761	-0.184790
C14	C	-1.492263	-0.000105	0.044738
C15	C	-1.488571	-0.000103	0.184181
C16	C	-1.714631	-0.000110	-0.177630
C17	C	-1.854074	-0.000110	-0.181322
C18	C	-1.036628	-0.000068	-0.300818
C19	C	-0.905607	-0.000093	-0.297341
C20	C	-0.933570	-0.000117	-0.068772
C21	C	-1.064588	-0.000101	-0.072250
C22	C	-1.569751	-0.423423	-0.100188
C23	C	-1.569763	-0.576760	-0.100189
C24	C	-1.400437	-0.576759	-0.269404
C25	C	-1.400420	-0.423425	-0.269396
N26	N	-1.485113	0.346568	-0.184798
C27	C	-1.477925	-0.000084	-0.414336
C28	C	-1.481616	-0.000077	-0.553779
C29	C	-1.601112	-0.000111	0.263667
C30	C	-1.597636	-0.000092	0.394688
C31	C	-1.369066	-0.000065	0.366725
C32	C	-1.372544	-0.000073	0.235706
H33	H	-1.078574	-0.000053	-0.395294
C34	C	-1.728744	-0.000128	0.206995
N35	N	-1.824881	-0.000134	0.164313
C36	C	-1.307333	-0.339092	-0.362528
N37	N	-1.237242	-0.275572	-0.432690
H38	H	-1.129309	-0.000107	0.019401
C39	C	-1.662873	-0.339098	-0.007109
N40	N	-1.733012	-0.275589	0.063005
H41	H	-1.689279	-0.000096	0.459401
C42	C	-1.662893	-0.661081	-0.007110
N43	N	-1.733038	-0.724591	0.063006
H44	H	-1.280893	-0.000062	0.170985
C45	C	-1.307310	-0.661104	-0.362463
N46	N	-1.237164	-0.724631	-0.432557
C47	C	-1.241444	-0.000060	0.423415
N48	N	-1.145315	-0.000068	0.466113
H49	H	-0.840894	-0.000095	-0.388984
H50	H	-0.891602	-0.000151	0.025693
