data_functionalizedCrystal
_audit_creation_method	'MofGen! by Chris Wilmer'
_symmetry_space_group_name_H-M	'P1'
_symmetry_Int_Tables_number	1
_symmetry_cell_setting	triclinic
loop_
_symmetry_equiv_pos_as_xyz
  x,y,z
_cell_length_a	14.044220
_cell_length_b	14.044220
_cell_length_c	13.101039
_cell_angle_alpha	86.340132
_cell_angle_beta	86.332523
_cell_angle_gamma	86.811122
loop_
_atom_site_label
_atom_site_type_symbol
_atom_site_fract_x
_atom_site_fract_y
_atom_site_fract_z
O1	O	0.225348	-1.281968	0.085109
O2	O	0.725348	-0.781968	0.585109
O3	O	0.217041	-1.005298	0.085135
O4	O	0.717041	-0.505298	0.585135
O5	O	0.082860	-1.139480	0.085112
O6	O	0.582860	-0.639480	0.585112
O7	O	0.359530	-1.147787	0.085132
O8	O	0.859530	-0.647787	0.585132
O9	O	0.092504	-1.129854	-0.085316
O10	O	0.592504	-0.629854	0.414684
O11	O	0.226686	-0.995673	-0.085293
O12	O	0.726686	-0.495673	0.414707
O13	O	0.234993	-1.272343	-0.085319
O14	O	0.734993	-0.772343	0.414681
Zn15	Zn	0.232371	-1.132479	-0.112365
Zn16	Zn	0.732371	-0.632479	0.387635
Zn17	Zn	0.219663	-1.145162	0.112181
Zn18	Zn	0.719663	-0.645162	0.612181
O19	O	0.369175	-1.138161	-0.085296
O20	O	0.869175	-0.638161	0.414704
C21	C	0.052060	-1.131031	-0.000102
C22	C	0.552060	-0.631031	0.499898
C23	C	-0.054083	-1.120187	-0.000102
C24	C	0.445917	-0.620187	0.499898
C25	C	0.218228	-0.964864	-0.000076
C26	C	0.718228	-0.464864	0.499924
C27	C	0.207383	-0.858722	-0.000066
C28	C	0.707383	-0.358722	0.499934
C29	C	0.233806	-1.312777	-0.000106
C30	C	0.733806	-0.812777	0.499894
C31	C	0.244651	-1.418920	-0.000109
C32	C	0.744651	-0.918920	0.499891
C33	C	-0.248421	-1.100362	-0.000086
C34	C	0.251579	-0.600362	0.499914
C35	C	-0.299551	-1.177276	-0.000090
C36	C	0.200449	-0.677276	0.499910
C37	C	-0.407688	-1.166245	-0.000080
C38	C	0.092312	-0.666245	0.499920
C39	C	-0.140275	-1.111391	-0.000095
C40	C	0.359725	-0.611391	0.499905
C41	C	0.399974	-1.146610	-0.000080
C42	C	0.899974	-0.646610	0.499920
C43	C	0.506116	-1.157455	-0.000073
C44	C	1.006116	-0.657455	0.499927
N45	N	0.241043	-1.123831	-0.265612
N46	N	0.741043	-0.623831	0.234388
C47	C	0.187558	-0.664383	-0.000088
C48	C	0.687558	-0.164383	0.499912
C49	C	0.264472	-0.613253	-0.000087
C50	C	0.764472	-0.113253	0.499913
C51	C	0.253441	-0.505116	-0.000099
C52	C	0.753441	-0.005116	0.499901
C53	C	0.198587	-0.772529	-0.000076
C54	C	0.698587	-0.272529	0.499924
C55	C	0.252851	-1.112065	-0.474653
C56	C	0.752851	-0.612065	0.025347
C57	C	0.199179	-1.165580	-0.525538
C58	C	0.699179	-0.665580	-0.025538
C59	C	0.205749	-1.159034	-0.641855
C60	C	0.705749	-0.659034	-0.141855
C61	C	0.246282	-1.118610	-0.358325
C62	C	0.746282	-0.618610	0.141675
N63	N	0.210984	-1.153817	0.265428
N64	N	0.710984	-0.653817	0.765428
H65	H	-0.262115	-1.251413	-0.000028
H66	H	0.237885	-0.751413	0.499972
H67	H	0.338605	-0.650693	-0.000077
H68	H	0.838605	-0.150693	0.499923
C69	C	0.087416	-0.613812	-0.000089
C70	C	0.587416	-0.113812	0.499911
H71	H	0.093047	-0.546714	-0.000085
H72	H	0.593047	-0.046714	0.499915
H73	H	0.057067	-0.628404	-0.059516
H74	H	0.557067	-0.128404	0.440484
H75	H	0.050359	-0.635103	0.059356
H76	H	0.550359	-0.135103	0.559356
H77	H	0.148295	-1.216314	-0.481744
H78	H	0.648295	-0.716314	0.018256
C79	C	0.321568	-1.043511	-0.533802
C80	C	0.821568	-0.543511	-0.033802
H81	H	0.354372	-1.010781	-0.486582
H82	H	0.854372	-0.510781	0.013418
H83	H	0.366503	-1.078945	-0.575668
H84	H	0.866503	-0.578945	-0.075668
H85	H	0.286208	-0.998493	-0.575645
H86	H	0.786208	-0.498493	-0.075645
C87	C	-0.298992	-1.000220	-0.000085
C88	C	0.201008	-0.500220	0.499915
H89	H	-0.366090	-1.005851	-0.000091
H90	H	0.133910	-0.505851	0.499909
H91	H	-0.284409	-0.969864	0.059344
H92	H	0.215591	-0.469864	0.559344
H93	H	-0.277691	-0.963170	-0.059528
H94	H	0.222309	-0.463170	0.440472
