data_functionalizedCrystal
_audit_creation_method	'MofGen! by Chris Wilmer'
_symmetry_space_group_name_H-M	'P1'
_symmetry_Int_Tables_number	1
_symmetry_cell_setting	triclinic
loop_
_symmetry_equiv_pos_as_xyz
  x,y,z
_cell_length_a	6.817900
_cell_length_b	19.452420
_cell_length_c	19.453114
_cell_angle_alpha	96.328802
_cell_angle_beta	101.709288
_cell_angle_gamma	101.696715
loop_
_atom_site_label
_atom_site_type_symbol
_atom_site_fract_x
_atom_site_fract_y
_atom_site_fract_z
V1	V	-3.997947	-0.097915	-0.219345
O2	O	-3.995100	0.003953	-0.214816
O3	O	-3.940917	-0.193426	-0.218185
O4	O	-3.940968	-0.096739	-0.314854
O5	O	-3.995048	-0.093403	-0.117478
V6	V	-4.483804	-0.085692	-0.207120
O7	O	-4.254084	-0.124729	-0.246163
O8	O	-4.677865	-0.058878	-0.180302
O9	O	-4.317628	0.009819	-0.208280
O10	O	-4.604048	-0.187560	-0.211649
O11	O	-4.604099	-0.090204	-0.308987
O12	O	-4.317576	-0.086868	-0.111611
C13	C	-3.784096	-0.216699	-0.214813
C14	C	-3.818697	-0.294782	-0.214501
C15	C	-3.801490	-0.321196	-0.149986
C16	C	-3.834075	-0.394562	-0.149672
C17	C	-3.883827	-0.441511	-0.213874
C18	C	-3.901045	-0.415090	-0.278397
C19	C	-3.868480	-0.341726	-0.278711
N20	N	-3.846563	-0.562110	-0.259091
N21	N	-3.877492	-0.631802	-0.258789
C22	C	-3.981949	-0.662553	-0.212935
N23	N	-4.054279	-0.620977	-0.167383
N24	N	-4.023337	-0.551278	-0.167682
C25	C	-3.919143	-0.521063	-0.213542
C26	C	-4.000075	-0.768518	-0.148075
C27	C	-4.032674	-0.841885	-0.147764
C28	C	-4.099624	-0.862412	-0.276491
C29	C	-4.067045	-0.789046	-0.276801
C30	C	-4.017262	-0.742102	-0.212591
C31	C	-3.784160	-0.093365	-0.338123
C32	C	-3.818800	-0.093035	-0.416204
C33	C	-4.016538	-0.096406	-0.456473
C34	C	-4.049086	-0.096097	-0.529838
C35	C	-3.883893	-0.092431	-0.562934
C36	C	-3.686126	-0.089055	-0.522655
C37	C	-3.653579	-0.089358	-0.449290
N38	N	-3.820798	-0.129525	-0.681855
N39	N	-3.851729	-0.129240	-0.751549
C40	C	-3.981942	-0.091517	-0.783979
N41	N	-4.080090	-0.054101	-0.744084
N42	N	-4.049164	-0.054390	-0.674384
C43	C	-3.919164	-0.092102	-0.642486
C44	C	-4.214984	-0.094552	-0.903800
C45	C	-4.247523	-0.094238	-0.977166
C46	C	-3.884560	-0.087203	-0.969983
C47	C	-3.852023	-0.087510	-0.896617
C48	C	-4.017244	-0.091188	-0.863531
C49	C	-4.137790	0.033088	-0.211650
C50	C	-4.082427	0.111171	-0.211967
C51	C	-4.137726	-0.090245	-0.088339
C52	C	-4.082325	-0.090570	-0.010257
H53	H	-3.882500	-0.320222	-0.331248
H54	H	-4.349516	-0.097544	-0.876859
O55	O	-3.753242	-0.275698	-0.087553
C56	C	-3.744988	-0.314748	-0.030542
H57	H	-3.841047	-0.371292	-0.050408
H58	H	-3.808795	-0.288273	0.012513
H59	H	-3.578452	-0.316257	-0.007629
H60	H	-3.492552	-0.086607	-0.416502
H61	H	-4.151076	-0.099398	-0.429538
O62	O	-4.241088	-0.099253	-0.568973
C63	C	-4.239043	-0.038154	-0.601904
H64	H	-4.104069	0.006499	-0.570953
H65	H	-4.389272	-0.020749	-0.602643
H66	H	-4.222139	-0.050806	-0.658744
O67	O	-3.723841	-0.083607	-1.002006
C68	C	-3.542338	-0.080720	-0.950730
H69	H	-3.560727	-0.059616	-0.895923
H70	H	-3.407009	-0.043894	-0.963953
H71	H	-3.512506	-0.136314	-0.950849
O72	O	-3.660083	-0.084269	-0.857395
C73	C	-3.666802	-0.085369	-0.785552
H74	H	-3.806613	-0.066030	-0.775036
H75	H	-3.520652	-0.049014	-0.749903
H76	H	-3.678573	-0.141949	-0.773625
O77	O	-4.147675	-0.907935	-0.338898
C78	C	-3.987654	-0.892876	-0.374780
H79	H	-3.897006	-0.835560	-0.355593
H80	H	-4.055942	-0.900518	-0.434421
H81	H	-3.880621	-0.930371	-0.363341
O82	O	-4.439574	-0.097603	-1.016374
C83	C	-4.501039	-0.158794	-1.068760
H84	H	-4.358939	-0.176075	-1.079884
H85	H	-4.593595	-0.146316	-1.119678
H86	H	-4.600286	-0.203469	-1.049082
O87	O	-3.817722	-0.420272	-0.087025
C88	C	-4.006933	-0.465503	-0.086334
H89	H	-4.136639	-0.451587	-0.125278
H90	H	-4.035536	-0.458402	-0.030524
H91	H	-4.001628	-0.523094	-0.102642
H92	H	-4.081043	-0.767540	-0.329335
O93	O	-3.949646	-0.460768	-0.340723
C94	C	-4.142913	-0.507200	-0.347742
H95	H	-4.176200	-0.510409	-0.292928
H96	H	-4.141202	-0.562371	-0.374009
H97	H	-4.267614	-0.486367	-0.381964
H98	H	-3.959538	-0.730294	-0.095792
H99	H	-4.018672	-0.863389	-0.095226
H100	H	-3.551625	-0.086068	-0.549606
