data_functionalizedCrystal
_audit_creation_method	'MofGen! by Chris Wilmer'
_symmetry_space_group_name_H-M	'P1'
_symmetry_Int_Tables_number	1
_symmetry_cell_setting	triclinic
loop_
_symmetry_equiv_pos_as_xyz
  x,y,z
_cell_length_a	12.759401
_cell_length_b	14.908178
_cell_length_c	12.759393
_cell_angle_alpha	93.331280
_cell_angle_beta	90.020938
_cell_angle_gamma	93.315511
loop_
_atom_site_label
_atom_site_type_symbol
_atom_site_fract_x
_atom_site_fract_y
_atom_site_fract_z
Zn1	Zn	1.582110	-0.359109	0.569852
Zn2	Zn	1.571850	-0.510006	0.384017
Zn3	Zn	1.406405	-0.359157	0.394184
Zn4	Zn	1.396254	-0.509943	0.559658
O5	O	1.489155	-0.434554	0.476928
O6	O	1.727769	-0.379132	0.545212
O7	O	1.549858	-0.490042	0.238341
O8	O	1.438255	-0.232895	0.426008
O9	O	1.720231	-0.489996	0.408679
O10	O	1.567344	-0.232860	0.555071
O11	O	1.428306	-0.379214	0.245811
O12	O	1.258038	-0.379153	0.416123
O13	O	1.420953	-0.489888	0.708035
O14	O	1.250580	-0.489935	0.537697
O15	O	1.557501	-0.379071	0.715524
O16	O	1.540015	-0.636253	0.398795
O17	O	1.411005	-0.636207	0.527838
C18	C	1.216188	-0.434543	0.476908
C19	C	1.099410	-0.434560	0.476923
C20	C	1.473323	-0.668967	0.461130
C21	C	1.466647	-0.769249	0.454407
C22	C	1.040686	-0.492332	0.540114
C23	C	0.930962	-0.492335	0.540135
C24	C	0.938695	-0.376792	0.413763
C25	C	1.048418	-0.376785	0.413749
C26	C	1.588420	-0.957505	0.576310
C27	C	1.582150	-1.051729	0.569996
C28	C	1.447834	-1.051925	0.435472
C29	C	1.454103	-0.957700	0.441786
C30	C	1.524400	-0.910494	0.512206
C31	C	1.530674	-0.816267	0.518513
C32	C	1.396353	-0.816465	0.383995
C33	C	1.390083	-0.910689	0.377681
C34	C	1.763187	-0.434566	0.476949
C35	C	1.879963	-0.434571	0.476957
C36	C	1.489239	-0.434467	0.750967
C37	C	1.489275	-0.434430	0.867746
C38	C	1.505076	-0.199226	0.492810
C39	C	1.511861	-0.098943	0.499579
C40	C	1.489135	-0.434575	0.203959
C41	C	1.489320	-0.434358	0.087198
C42	C	1.560381	-0.376719	0.926510
C43	C	1.560401	-0.376680	1.036237
C44	C	1.418206	-0.492072	1.028426
C45	C	1.418182	-0.492106	0.918701
H46	H	1.082201	-0.539373	0.591557
H47	H	0.883154	-0.539377	0.591593
H48	H	1.618267	-0.329753	0.885026
O49	O	1.321746	-0.956649	0.309416
C50	C	1.172783	-1.063111	0.288007
C51	C	1.250118	-1.011136	0.365434
H52	H	1.114838	-1.107161	0.333269
H53	H	1.218058	-1.107285	0.230179
H54	H	1.128155	-1.013306	0.243248
H55	H	1.294766	-1.060875	0.410266
H56	H	1.204783	-0.966948	0.423194
H57	H	0.897164	-0.329755	0.362328
H58	H	1.344226	-0.778177	0.331794
O59	O	1.105309	-0.320634	0.352263
C60	C	1.101412	-0.205993	0.226968
C61	C	1.036855	-0.269551	0.296524
H62	H	1.046096	-0.164663	0.181902
H63	H	1.149937	-0.247312	0.169093
H64	H	1.156012	-0.158904	0.278482
H65	H	0.982198	-0.316653	0.245094
H66	H	0.988400	-0.228176	0.354406
H67	H	1.587916	-0.777832	0.575850
O68	O	1.656725	-0.911782	0.644802
C69	C	1.789333	-0.921528	0.777520
C70	C	1.712008	-0.973419	0.700014
H71	H	1.834066	-0.971339	0.822164
H72	H	1.744047	-0.877443	0.835435
H73	H	1.847186	-0.877377	0.732278
H74	H	1.654137	-1.017620	0.745167
H75	H	1.757364	-1.017447	0.642100
H76	H	1.360327	-0.539031	1.069927
H77	H	1.618301	-0.329684	1.084078
H78	H	1.634277	-1.090002	0.622202
H79	H	1.390597	-1.090377	0.378144
O80	O	1.349068	-0.548257	0.861767
C81	C	1.207992	-0.662670	0.865592
C82	C	1.286220	-0.599147	0.930195
H83	H	1.157144	-0.703818	0.920889
H84	H	1.252969	-0.709924	0.811068
H85	H	1.155897	-0.621243	0.816982
H86	H	1.338334	-0.640502	0.978867
H87	H	1.241177	-0.551891	0.984652
