data_functionalizedCrystal
_audit_creation_method	'MofGen! by Chris Wilmer'
_symmetry_space_group_name_H-M	'P1'
_symmetry_Int_Tables_number	1
_symmetry_cell_setting	triclinic
loop_
_symmetry_equiv_pos_as_xyz
  x,y,z
_cell_length_a	10.654550
_cell_length_b	9.482900
_cell_length_c	11.026607
_cell_angle_alpha	101.400185
_cell_angle_beta	96.535460
_cell_angle_gamma	80.615899
loop_
_atom_site_label
_atom_site_type_symbol
_atom_site_fract_x
_atom_site_fract_y
_atom_site_fract_z
O1	O	1.720232	-0.121015	0.151877
O2	O	1.358282	-0.120991	0.168150
O3	O	1.509258	-0.120996	-0.016891
O4	O	1.569256	-0.121010	0.336918
O5	O	1.478626	0.120798	0.020847
O6	O	1.327650	0.120802	0.205888
O7	O	1.689599	0.120779	0.189615
Cu8	Cu	1.505828	0.142868	0.201198
Cu9	Cu	1.542054	-0.143080	0.156568
O10	O	1.538623	0.120783	0.374656
C11	C	1.295908	-0.000091	0.185825
C12	C	1.155688	-0.000082	0.182253
N13	N	1.480357	0.343989	0.232587
N14	N	1.567532	-0.344201	0.125169
C15	C	1.099855	-0.000108	0.291197
C16	C	0.968107	-0.000133	0.287828
C17	C	0.948036	-0.000113	0.066558
C18	C	1.079781	-0.000077	0.069931
C19	C	1.175762	-0.000113	0.403519
C20	C	1.119930	-0.000140	0.512473
C21	C	0.988182	-0.000165	0.509103
C22	C	0.912266	-0.000163	0.396780
C23	C	1.751974	-0.000124	0.171940
C24	C	1.892195	-0.000143	0.175511
C25	C	1.482874	-0.000100	-0.043326
C26	C	1.449880	-0.000103	-0.178318
C27	C	1.534531	0.416187	0.165820
C28	C	1.513350	0.583605	0.191946
C29	C	1.540984	-0.000111	-0.251358
C30	C	1.506885	-0.000114	-0.390880
C31	C	1.565008	-0.000116	0.401091
C32	C	1.598003	-0.000122	0.536081
H33	H	1.283040	-0.000099	0.406274
H34	H	1.644225	-0.000109	-0.210598
F35	F	1.371932	-0.000119	-0.444145
H36	H	0.804985	-0.000161	0.394049
H37	H	0.886218	-0.000135	-0.024894
H38	H	1.701266	-0.000238	-0.423184
F39	F	1.139205	-0.000048	-0.046020
F40	F	0.928763	-0.000180	0.625061
H41	H	1.451280	0.645731	0.268450
F42	F	1.200724	-0.000128	0.632010
F43	F	1.615378	0.334982	0.065605
F44	F	1.314933	-0.000108	-0.231589
H45	H	1.629592	0.593672	0.048655
H46	H	1.418290	0.406121	0.309087
