data_functionalizedCrystal
_audit_creation_method	'MofGen! by Chris Wilmer'
_symmetry_space_group_name_H-M	'P1'
_symmetry_Int_Tables_number	1
_symmetry_cell_setting	triclinic
loop_
_symmetry_equiv_pos_as_xyz
  x,y,z
_cell_length_a	18.215407
_cell_length_b	16.625545
_cell_length_c	18.215399
_cell_angle_alpha	89.973113
_cell_angle_beta	89.982632
_cell_angle_gamma	90.023001
loop_
_atom_site_label
_atom_site_type_symbol
_atom_site_fract_x
_atom_site_fract_y
_atom_site_fract_z
Zn1	Zn	1.125068	-0.321065	-0.416073
Zn2	Zn	1.625068	0.178935	0.083927
Zn3	Zn	1.124975	-0.455905	-0.293009
Zn4	Zn	1.624975	0.044095	0.206991
Zn5	Zn	1.002001	-0.321084	-0.293026
Zn6	Zn	1.502001	0.178916	0.206974
Zn7	Zn	1.001965	-0.455853	-0.416039
Zn8	Zn	1.501965	0.044147	0.083961
O9	O	1.063503	-0.388477	-0.354537
O10	O	1.563503	0.111523	0.145463
O11	O	1.228040	-0.338965	-0.399755
O12	O	1.728040	0.161035	0.100245
O13	O	1.108639	-0.438051	-0.190027
O14	O	1.608639	0.061949	0.309973
O15	O	1.018380	-0.208249	-0.309369
O16	O	1.518380	0.291751	0.190631
O17	O	1.227972	-0.438032	-0.309341
O18	O	1.727972	0.061968	0.190659
O19	O	1.108797	-0.208235	-0.399772
O20	O	1.608797	0.291765	0.100228
O21	O	1.018290	-0.338998	-0.190039
O22	O	1.518290	0.161002	0.309961
O23	O	0.899012	-0.338948	-0.309336
O24	O	1.399012	0.161052	0.190664
O25	O	1.018319	-0.437943	-0.519028
O26	O	1.518319	0.062057	-0.019028
O27	O	0.898986	-0.437962	-0.399714
O28	O	1.398986	0.062038	0.100286
O29	O	1.108763	-0.338915	-0.519053
O30	O	1.608763	0.161085	-0.019053
O31	O	1.108604	-0.568731	-0.309308
O32	O	1.608604	-0.068731	0.190692
O33	O	1.018229	-0.568693	-0.399698
O34	O	1.518229	-0.068693	0.100302
C35	C	0.872296	-0.388452	-0.354524
C36	C	1.372296	0.111548	0.145476
C37	C	0.790497	-0.388461	-0.354536
C38	C	1.290497	0.111539	0.145464
C39	C	0.602338	-0.336983	-0.401689
C40	C	1.102338	0.163017	0.098311
C41	C	0.525479	-0.336990	-0.401691
C42	C	1.025479	0.163010	0.098309
C43	C	0.525419	-0.439993	-0.307397
C44	C	1.025419	0.060007	0.192603
C45	C	0.602276	-0.439982	-0.307392
C46	C	1.102276	0.060018	0.192608
C47	C	0.640734	-0.388478	-0.354542
C48	C	1.140734	0.111522	0.145458
C49	C	0.487018	-0.388496	-0.354550
C50	C	0.987018	0.111504	0.145450
C51	C	0.403684	-0.388504	-0.354552
C52	C	0.903684	0.111496	0.145448
C53	C	0.724073	-0.388469	-0.354539
C54	C	1.224073	0.111531	0.145461
C55	C	1.063423	-0.597968	-0.354513
C56	C	1.563423	-0.097968	0.145487
C57	C	1.063456	-0.687589	-0.354528
C58	C	1.563456	-0.187589	0.145472
C59	C	1.063484	-0.760371	-0.354543
C60	C	1.563484	-0.260371	0.145457
C61	C	1.063527	-0.851680	-0.354559
C62	C	1.563527	-0.351680	0.145441
C63	C	1.063565	-0.924456	-0.354568
C64	C	1.563565	-0.424456	0.145432
C65	C	1.063607	-1.015770	-0.354583
C66	C	1.563607	-0.515770	0.145417
C67	C	1.255455	-0.388502	-0.354550
C68	C	1.755455	0.111498	0.145450
C69	C	1.337254	-0.388513	-0.354556
C70	C	1.837254	0.111487	0.145444
C71	C	1.063547	-0.388421	-0.546490
C72	C	1.563547	0.111579	-0.046490
C73	C	1.063567	-0.388398	-0.628289
C74	C	1.563567	0.111602	-0.128289
C75	C	1.063603	-0.178168	-0.354576
C76	C	1.563603	0.321832	0.145424
C77	C	1.063646	-0.088547	-0.354593
C78	C	1.563646	0.411453	0.145407
C79	C	1.110677	-0.336785	-0.816497
C80	C	1.610677	0.163215	-0.316497
C81	C	1.110686	-0.336762	-0.893355
C82	C	1.610686	0.163238	-0.393355
C83	C	1.016508	-0.439885	-0.893318
C84	C	1.516508	0.060115	-0.393318
C85	C	1.016496	-0.439904	-0.816461
C86	C	1.516496	0.060096	-0.316461
C87	C	1.063585	-0.388355	-0.778052
C88	C	1.563585	0.111645	-0.278052
C89	C	1.063606	-0.388313	-0.931768
C90	C	1.563606	0.111687	-0.431768
C91	C	1.063615	-0.388288	-1.015102
C92	C	1.563615	0.111712	-0.515102
C93	C	1.063575	-0.388379	-0.694713
C94	C	1.563575	0.111621	-0.194713
C95	C	1.063500	-0.388474	-0.163330
C96	C	1.563500	0.111526	0.336670
C97	C	1.063624	-0.388271	-0.081532
C98	C	1.563624	0.111729	0.418468
H99	H	0.633539	-0.481916	-0.268995
H100	H	1.133539	0.018084	0.231005
H101	H	0.494098	-0.481927	-0.269010
H102	H	0.994098	0.018073	0.230990
C103	C	1.162467	-0.280077	-0.774246
C104	C	1.662467	0.219923	-0.274246
C105	C	1.214264	-0.223347	-0.816538
C106	C	1.714264	0.276653	-0.316538
C107	C	1.266054	-0.166634	-0.774290
C108	C	1.766054	0.333366	-0.274290
C109	C	1.266046	-0.166651	-0.689750
C110	C	1.766046	0.333349	-0.189750
C111	C	1.214247	-0.223383	-0.647453
C112	C	1.714247	0.276617	-0.147453
C113	C	1.162458	-0.280096	-0.689701
C114	C	1.662458	0.219904	-0.189701
H115	H	1.214272	-0.223332	-0.879124
H116	H	1.714272	0.276668	-0.379124
H117	H	1.304399	-0.124638	-0.805601
H118	H	1.804399	0.375362	-0.305601
H119	H	1.304384	-0.124669	-0.658475
H120	H	1.804384	0.375331	-0.158475
H121	H	1.214240	-0.223398	-0.584867
H122	H	1.714240	0.276602	-0.084867
H123	H	1.124113	-0.322093	-0.658390
H124	H	1.624113	0.177907	-0.158390
H125	H	0.494221	-0.295057	-0.440082
H126	H	0.994221	0.204943	0.059918
C127	C	1.162491	-0.280035	-0.935644
C128	C	1.662491	0.219965	-0.435644
C129	C	1.246148	-0.286629	-0.925089
C130	C	1.746148	0.213371	-0.425089
C131	C	1.297954	-0.229898	-0.967377
C132	C	1.797954	0.270102	-0.467377
C133	C	1.266102	-0.166573	-1.020219
C134	C	1.766102	0.333427	-0.520219
C135	C	1.182441	-0.159976	-1.030775
C136	C	1.682441	0.340024	-0.530775
C137	C	1.130635	-0.216707	-0.988488
C138	C	1.630635	0.283293	-0.488488
H139	H	1.269730	-0.333509	-0.885971
H140	H	1.769730	0.166491	-0.385971
H141	H	1.359886	-0.234782	-0.959562
H142	H	1.859886	0.265218	-0.459562
H143	H	1.304452	-0.124577	-1.051522
H144	H	1.804452	0.375423	-0.551522
H145	H	1.158859	-0.113096	-1.069894
H146	H	1.658859	0.386904	-0.569894
H147	H	1.068703	-0.211823	-0.996303
H148	H	1.568703	0.288177	-0.496303
C149	C	0.964723	-0.496593	-0.935576
C150	C	1.464723	0.003407	-0.435576
C151	C	0.996604	-0.559883	-0.988401
C152	C	1.496604	-0.059883	-0.488401
C153	C	0.944823	-0.616595	-1.030659
C154	C	1.444823	-0.116595	-0.530659
C155	C	0.861160	-0.610017	-1.020093
C156	C	1.361160	-0.110017	-0.520093
C157	C	0.829275	-0.546725	-0.967266
C158	C	1.329275	-0.046725	-0.467266
C159	C	0.881056	-0.490013	-0.925008
C160	C	1.381056	0.009987	-0.425008
H161	H	1.058540	-0.564754	-0.996224
H162	H	1.558540	-0.064754	-0.496224
H163	H	0.968427	-0.663448	-1.069765
H164	H	1.468427	-0.163448	-0.569765
H165	H	0.822828	-0.651999	-1.051376
H166	H	1.322828	-0.151999	-0.551376
H167	H	0.767339	-0.541853	-0.959443
H168	H	1.267339	-0.041853	-0.459443
H169	H	0.857452	-0.443160	-0.885902
H170	H	1.357452	0.056840	-0.385902
C171	C	0.644642	-0.280324	-0.453546
C172	C	1.144642	0.219676	0.046454
C173	C	0.602404	-0.223678	-0.505404
C174	C	1.102404	0.276322	-0.005404
C175	C	0.644705	-0.167015	-0.557261
C176	C	1.144705	0.332985	-0.057261
C177	C	0.729245	-0.166999	-0.557261
C178	C	1.229245	0.333001	-0.057261
C179	C	0.771489	-0.223648	-0.505401
C180	C	1.271489	0.276352	-0.005401
C181	C	0.729187	-0.280310	-0.453544
C182	C	1.229187	0.219690	0.046456
H183	H	0.539818	-0.223687	-0.505406
H184	H	1.039818	0.276313	-0.005406
H185	H	0.613434	-0.125080	-0.595651
H186	H	1.113434	0.374920	-0.095651
H187	H	0.760560	-0.125054	-0.595649
H188	H	1.260560	0.374946	-0.095649
H189	H	0.834075	-0.223638	-0.505399
H190	H	1.334075	0.276362	-0.005399
H191	H	0.760459	-0.322246	-0.415154
H192	H	1.260459	0.177754	0.084846
C193	C	0.964691	-0.496636	-0.774166
C194	C	1.464691	0.003364	-0.274166
C195	C	0.912902	-0.553345	-0.816411
C196	C	1.412902	-0.053345	-0.316411
C197	C	0.861098	-0.610071	-0.774115
C198	C	1.361098	-0.110071	-0.274115
C199	C	0.861083	-0.610087	-0.689575
C200	C	1.361083	-0.110087	-0.189575
C201	C	0.912875	-0.553376	-0.647326
C202	C	1.412875	-0.053376	-0.147326
C203	C	0.964679	-0.496650	-0.689621
C204	C	1.464679	0.003350	-0.189621
H205	H	0.912911	-0.553334	-0.878996
H206	H	1.412911	-0.053334	-0.378996
H207	H	0.822758	-0.652052	-0.805391
H208	H	1.322758	-0.152052	-0.305391
H209	H	0.822735	-0.652079	-0.658265
H210	H	1.322735	-0.152079	-0.158265
H211	H	0.912866	-0.553387	-0.584740
H212	H	1.412866	-0.053387	-0.084740
H213	H	1.003018	-0.454669	-0.658345
H214	H	1.503018	0.045331	-0.158345
