data_functionalizedCrystal
_audit_creation_method	'MofGen! by Chris Wilmer'
_symmetry_space_group_name_H-M	'P1'
_symmetry_Int_Tables_number	1
_symmetry_cell_setting	triclinic
loop_
_symmetry_equiv_pos_as_xyz
  x,y,z
_cell_length_a	14.044191
_cell_length_b	17.019370
_cell_length_c	12.503572
_cell_angle_alpha	97.387854
_cell_angle_beta	86.162165
_cell_angle_gamma	88.281856
loop_
_atom_site_label
_atom_site_type_symbol
_atom_site_fract_x
_atom_site_fract_y
_atom_site_fract_z
O1	O	1.261861	0.186817	-0.071996
O2	O	1.595194	0.520150	0.261338
O3	O	1.928527	0.853483	0.594671
O4	O	0.985940	0.179918	-0.072647
O5	O	1.319274	0.513252	0.260686
O6	O	1.652607	0.846585	0.594020
O7	O	1.132249	0.068582	-0.082927
O8	O	1.465582	0.401916	0.250407
O9	O	1.798916	0.735249	0.583740
O10	O	1.115552	0.298153	-0.061716
O11	O	1.448885	0.631486	0.271617
O12	O	1.782219	0.964819	0.604951
O13	O	1.121246	0.076971	0.096490
O14	O	1.454579	0.410304	0.429823
O15	O	1.787912	0.743637	0.763156
O16	O	0.974937	0.188307	0.106769
O17	O	1.308270	0.521640	0.440103
O18	O	1.641604	0.854973	0.773436
O19	O	1.250857	0.195205	0.107421
O20	O	1.584191	0.528538	0.440754
O21	O	1.917524	0.861872	0.774087
Cu22	Cu	1.111892	0.192522	0.123477
Cu23	Cu	1.445226	0.525855	0.456811
Cu24	Cu	1.778559	0.859188	0.790144
Cu25	Cu	1.124905	0.182602	-0.088703
Cu26	Cu	1.458239	0.515935	0.244630
Cu27	Cu	1.791572	0.849268	0.577963
O28	O	1.104549	0.306541	0.117700
O29	O	1.437882	0.639874	0.451034
O30	O	1.771215	0.973208	0.784367
C31	C	0.945145	0.181095	0.016780
C32	C	1.278479	0.514428	0.350114
C33	C	1.611812	0.847762	0.683447
C34	C	0.839983	0.172094	0.015943
C35	C	1.173316	0.505427	0.349277
C36	C	1.506650	0.838761	0.682610
C37	C	0.589364	0.219474	0.020332
C38	C	0.922697	0.552807	0.353665
C39	C	1.256030	0.886141	0.686998
C40	C	0.647440	0.155652	0.014433
C41	C	0.980774	0.488986	0.347766
C42	C	1.314107	0.822319	0.681100
C43	C	0.754581	0.164803	0.015274
C44	C	1.087914	0.498136	0.348607
C45	C	1.421247	0.831469	0.681940
C46	C	0.482213	0.210325	0.019491
C47	C	0.815546	0.543658	0.352825
C48	C	1.148880	0.876992	0.686158
C49	C	1.126331	0.043219	0.004048
C50	C	1.459664	0.376552	0.337382
C51	C	1.792998	0.709885	0.670715
C52	C	1.125079	-0.044854	-0.004096
C53	C	1.458412	0.288479	0.329237
C54	C	1.791746	0.621812	0.662570
C55	C	1.118491	-0.081666	0.089872
C56	C	1.451824	0.251667	0.423206
C57	C	1.785158	0.585000	0.756539
C58	C	1.117321	-0.164421	0.082210
C59	C	1.450655	0.168912	0.415544
C60	C	1.783988	0.502245	0.748877
C61	C	1.122733	-0.210363	-0.019422
C62	C	1.456066	0.122971	0.313912
C63	C	1.789400	0.456304	0.647245
C64	C	1.129324	-0.173545	-0.113397
C65	C	1.462658	0.159788	0.219936
C66	C	1.795991	0.493121	0.553269
C67	C	1.130501	-0.090792	-0.105734
C68	C	1.463834	0.242541	0.227599
C69	C	1.797168	0.575875	0.560932
C70	C	1.119487	-0.460452	-0.047452
C71	C	1.452820	-0.127119	0.285881
C72	C	1.786154	0.206214	0.619215
C73	C	1.118307	-0.543211	-0.055108
C74	C	1.451641	-0.209877	0.278225
C75	C	1.784974	0.123456	0.611559
C76	C	1.106306	-0.534081	0.140500
C77	C	1.439639	-0.200748	0.473834
C78	C	1.772973	0.132586	0.807167
C79	C	1.107477	-0.451327	0.148155
C80	C	1.440811	-0.117993	0.481488
C81	C	1.774144	0.215340	0.814821
C82	C	1.114074	-0.414517	0.054179
C83	C	1.447407	-0.081183	0.387512
C84	C	1.780740	0.252150	0.720846
C85	C	1.121534	-0.294951	-0.027256
C86	C	1.454868	0.038382	0.306077
C87	C	1.788201	0.371715	0.639411
C88	C	1.115279	-0.329930	0.062014
C89	C	1.448612	0.003404	0.395348
C90	C	1.781946	0.336737	0.728681
C91	C	1.291652	0.194028	0.017991
C92	C	1.624986	0.527362	0.351324
C93	C	1.958319	0.860695	0.684658
C94	C	1.396815	0.203029	0.018821
C95	C	1.730149	0.536362	0.352154
C96	C	2.063482	0.869695	0.685488
C97	C	1.110467	0.331904	0.030723
C98	C	1.443800	0.665238	0.364056
C99	C	1.777133	0.998571	0.697390
C100	C	1.111719	0.419977	0.038861
C101	C	1.445053	0.753311	0.372194
C102	C	1.778386	1.086644	0.705527
N103	N	1.102747	0.199499	0.272714
N104	N	1.436080	0.532832	0.606047
N105	N	1.769414	0.866166	0.939380
N106	N	1.134058	0.175619	-0.237941
N107	N	1.467392	0.508952	0.095393
N108	N	1.800725	0.842285	0.428726
C109	C	1.089293	0.209770	0.492777
C110	C	1.422627	0.543103	0.826111
C111	C	1.755960	0.876436	1.159444
C112	C	1.147509	0.165350	0.542003
C113	C	1.480842	0.498684	0.875336
C114	C	1.814176	0.832017	1.208670
C115	C	1.140023	0.171065	0.664454
C116	C	1.473356	0.504398	0.997787
C117	C	1.806690	0.837732	1.331121
C118	C	1.096778	0.204056	0.370315
C119	C	1.430111	0.537389	0.703649
C120	C	1.763444	0.870722	1.036982
H121	H	0.616701	0.094137	0.008674
H122	H	0.950034	0.427470	0.342007
H123	H	1.283367	0.760803	0.675340
C124	C	0.630897	0.302568	0.027998
C125	C	0.964230	0.635902	0.361331
C126	C	1.297563	0.969235	0.694665
N127	N	0.662191	0.365154	0.033768
N128	N	0.995524	0.698488	0.367101
N129	N	1.328858	1.031821	0.700434
H130	H	1.135866	-0.060821	-0.182254
H131	H	1.469200	0.272512	0.151079
H132	H	1.802533	0.605845	0.484413
H133	H	1.114068	-0.044266	0.172632
H134	H	1.447402	0.289067	0.505965
H135	H	1.780735	0.622401	0.839299
H136	H	1.110878	-0.292521	0.144762
H137	H	1.444211	0.040812	0.478096
H138	H	1.777544	0.374146	0.811429
H139	H	1.033836	0.252087	0.542592
H140	H	1.367169	0.585421	0.875925
H141	H	1.700502	0.918754	1.209259
H142	H	1.111961	-0.194390	0.158730
H143	H	1.445294	0.138944	0.492063
H144	H	1.778627	0.472277	0.825396
H145	H	1.202971	0.123031	0.492183
H146	H	1.536305	0.456364	0.825516
H147	H	1.869638	0.789698	1.158850
C148	C	1.099056	-0.574579	0.243867
C149	C	1.432389	-0.241246	0.577200
C150	C	1.765723	0.092087	0.910533
N151	N	1.093598	-0.605083	0.321726
N152	N	1.426931	-0.271749	0.655060
N153	N	1.760265	0.061584	0.988393
C154	C	1.101522	-0.400797	0.259958
C155	C	1.434855	-0.067464	0.593291
C156	C	1.768189	0.265870	0.926624
N157	N	1.097032	-0.362738	0.344169
N158	N	1.430366	-0.029404	0.677503
N159	N	1.763699	0.303929	1.010836
C160	C	1.124224	-0.593744	-0.166916
C161	C	1.457557	-0.260410	0.166418
C162	C	1.790890	0.072923	0.499751
N163	N	1.128664	-0.631804	-0.251125
N164	N	1.461997	-0.298471	0.082208
N165	N	1.795331	0.034863	0.415542
H166	H	1.124857	-0.430492	-0.123974
H167	H	1.458190	-0.097158	0.209359
H168	H	1.791523	0.236175	0.542693
C169	C	1.135277	-0.224084	-0.225194
C170	C	1.468610	0.109250	0.108139
C171	C	1.801944	0.442583	0.441473
N172	N	1.139756	-0.262148	-0.309401
N173	N	1.473090	0.071185	0.023932
N174	N	1.806423	0.404518	0.357265
C175	C	1.127478	-0.345494	-0.139049
C176	C	1.460811	-0.012161	0.194285
C177	C	1.794144	0.321172	0.527618
N178	N	1.131954	-0.383566	-0.223251
N179	N	1.465287	-0.050233	0.110082
N180	N	1.798620	0.283100	0.443416
