data_functionalizedCrystal
_audit_creation_method	'MofGen! by Chris Wilmer'
_symmetry_space_group_name_H-M	'P1'
_symmetry_Int_Tables_number	1
_symmetry_cell_setting	triclinic
loop_
_symmetry_equiv_pos_as_xyz
  x,y,z
_cell_length_a	10.654562
_cell_length_b	23.532407
_cell_length_c	9.730223
_cell_angle_alpha	89.994043
_cell_angle_beta	89.996961
_cell_angle_gamma	83.669390
loop_
_atom_site_label
_atom_site_type_symbol
_atom_site_fract_x
_atom_site_fract_y
_atom_site_fract_z
O1	O	1.665290	0.080017	-0.114396
O2	O	1.299572	0.087630	-0.114380
O3	O	1.493459	0.000964	-0.114363
O4	O	1.471402	0.166683	-0.114413
O5	O	1.493457	0.000966	0.114217
O6	O	1.299570	0.087632	0.114200
O7	O	1.665287	0.080019	0.114184
Zn8	Zn	1.482428	0.083826	0.150484
Zn9	Zn	1.482431	0.083823	-0.150680
O10	O	1.471400	0.166685	0.114167
C11	C	1.252791	0.087070	-0.000088
C12	C	1.113401	0.085393	-0.000081
C13	C	1.047894	0.084612	0.124507
C14	C	0.916922	0.083041	0.124485
C15	C	0.916975	0.083035	-0.124725
C16	C	1.047946	0.084602	-0.124701
C17	C	1.113350	0.085404	0.249128
C18	C	1.047842	0.084624	0.373727
C19	C	0.916870	0.083053	0.373704
C20	C	0.851405	0.082262	0.249083
C21	C	1.492896	-0.020255	-0.000070
C22	C	1.491207	-0.083483	-0.000059
C23	C	1.595354	-0.481905	-0.000139
C24	C	1.593785	-0.541316	-0.000149
O25	O	1.690330	-0.577430	-0.000204
N26	N	1.478520	-0.564696	-0.000143
C27	C	1.364815	-0.528661	-0.000141
O28	O	1.266628	-0.554002	-0.000138
C29	C	1.366385	-0.469252	-0.000141
C30	C	1.481658	-0.445876	-0.000133
C31	C	1.710618	-0.458529	-0.000133
C32	C	1.712186	-0.399122	-0.000120
C33	C	1.598490	-0.363093	-0.000113
C34	C	1.483227	-0.386469	-0.000120
C35	C	1.252682	-0.433218	-0.000148
C36	C	1.254262	-0.373806	-0.000149
C37	C	1.369535	-0.350430	-0.000141
C38	C	1.371099	-0.291033	-0.000100
N39	N	1.486365	-0.267654	-0.000106
C40	C	1.600060	-0.303683	-0.000113
C41	C	1.361527	-0.653425	-0.000145
C42	C	1.359955	-0.712833	-0.000135
C43	C	1.588926	-0.725484	-0.000146
C44	C	1.590496	-0.666075	-0.000146
C45	C	1.476792	-0.630046	-0.000151
C46	C	1.603345	-0.178925	-0.000084
C47	C	1.604903	-0.119513	-0.000066
C48	C	1.375933	-0.106867	-0.000062
C49	C	1.374374	-0.166274	-0.000074
C50	C	1.488091	-0.202302	-0.000089
O51	O	1.274605	-0.254885	-0.000051
O52	O	1.698231	-0.278334	-0.000133
C53	C	1.712068	0.080578	-0.000111
C54	C	1.851458	0.082255	-0.000127
C55	C	1.471963	0.187904	-0.000129
C56	C	1.473652	0.251132	-0.000149
N57	N	1.482435	0.083827	0.356020
N58	N	1.482434	0.083817	-0.356216
C59	C	1.568310	0.045465	0.427954
C60	C	1.568307	0.045458	0.571837
C61	C	1.396550	0.122181	0.571840
C62	C	1.396548	0.122185	0.427960
C63	C	1.654197	0.007107	0.356014
C64	C	1.740080	-0.031258	0.427948
C65	C	1.740076	-0.031265	0.571831
C66	C	1.654191	0.007093	0.643780
H67	H	0.863662	0.082392	-0.226186
O68	O	1.823614	-0.068553	0.641496
C69	C	1.899391	-0.102416	0.547142
H70	H	1.900512	-0.079056	0.444579
H71	H	1.999781	-0.110678	0.588708
H72	H	1.859159	-0.144894	0.531840
O73	O	1.111384	0.085390	-0.245847
C74	C	1.025532	0.084348	-0.355846
H75	H	0.926743	0.101226	-0.319343
H76	H	1.055085	0.112402	-0.442987
H77	H	1.025346	0.038576	-0.394155
O78	O	1.702502	-0.643396	-0.000395
C79	C	1.771774	-0.661775	-0.118763
H80	H	1.704352	-0.674399	-0.201501
H81	H	1.824744	-0.625577	-0.158509
H82	H	1.842238	-0.700208	-0.091998
O83	O	1.823410	-0.068484	0.357850
C84	C	1.804958	-0.060273	0.215432
H85	H	1.757515	-0.015186	0.195764
H86	H	1.900117	-0.066239	0.160722
H87	H	1.742323	-0.092755	0.174646
O88	O	1.654384	0.007025	0.783549
C89	C	1.748567	-0.035075	0.831617
H90	H	1.823500	-0.044685	0.748705
H91	H	1.794106	-0.018845	0.927880
H92	H	1.704256	-0.075736	0.857136
O93	O	1.313255	0.159422	0.641940
C94	C	1.331653	0.151183	0.784358
H95	H	1.431753	0.130321	0.804000
H96	H	1.317142	0.194250	0.839038
H97	H	1.260941	0.122318	0.825199
H98	H	1.326620	0.153423	0.369391
H99	H	1.698776	-0.100484	-0.000056
H100	H	1.280509	-0.185308	-0.000042
O101	O	1.240606	0.086826	0.249229
C102	C	1.299166	0.038128	0.317646
H103	H	1.234052	0.002813	0.315449
H104	H	1.391777	0.022650	0.263990
H105	H	1.319023	0.049544	0.428819
H106	H	1.101154	0.085263	0.475188
H107	H	0.744759	0.080981	0.249075
H108	H	0.863539	0.082413	0.475158
H109	H	1.161668	-0.344473	-0.000155
H110	H	1.695944	-0.208253	-0.000102
H111	H	1.654210	0.007111	0.238858
O112	O	1.824274	-0.376513	-0.000184
C113	C	1.924274	-0.421063	-0.000160
H114	H	1.889575	-0.461551	-0.043434
H115	H	2.004801	-0.408326	-0.066529
H116	H	1.959309	-0.429335	0.109498
O117	O	1.248011	-0.735565	0.000113
C118	C	1.240253	-0.769571	0.118470
H119	H	1.305693	-0.755269	0.201218
H120	H	1.138979	-0.764648	0.158207
H121	H	1.269810	-0.816295	0.091694
H122	H	1.158814	-0.452240	-0.000163
H123	H	1.283365	-0.077521	-0.000052
H124	H	1.681503	-0.754831	-0.000157
O125	O	1.821040	-0.493546	-0.000380
C126	C	1.826998	-0.528297	-0.118743
H127	H	1.762501	-0.506807	-0.201491
H128	H	1.928238	-0.534554	-0.158475
H129	H	1.795074	-0.571628	-0.091976
H130	H	1.268929	-0.624093	-0.000137
