data_functionalizedCrystal
_audit_creation_method	'MofGen! by Chris Wilmer'
_symmetry_space_group_name_H-M	'P1'
_symmetry_Int_Tables_number	1
_symmetry_cell_setting	triclinic
loop_
_symmetry_equiv_pos_as_xyz
  x,y,z
_cell_length_a	23.532407
_cell_length_b	15.625711
_cell_length_c	22.010155
_cell_angle_alpha	71.943796
_cell_angle_beta	89.997120
_cell_angle_gamma	96.415829
loop_
_atom_site_label
_atom_site_type_symbol
_atom_site_fract_x
_atom_site_fract_y
_atom_site_fract_z
O1	O	0.074447	-1.195336	0.212697
O2	O	0.574447	-0.695336	0.712697
O3	O	0.083282	-0.932830	0.154888
O4	O	0.583282	-0.432830	0.654888
O5	O	-0.004032	-1.071999	0.185547
O6	O	0.495968	-0.571999	0.685547
O7	O	0.161761	-1.056167	0.182038
O8	O	0.661761	-0.556167	0.682038
O9	O	-0.004021	-1.071958	0.286588
O10	O	0.495979	-0.571958	0.786588
O11	O	0.083293	-0.932790	0.255929
O12	O	0.583293	-0.432790	0.755929
O13	O	0.074457	-1.195295	0.313739
O14	O	0.574457	-0.695295	0.813739
Cu15	Cu	0.078876	-1.064039	0.294060
Cu16	Cu	0.578876	-0.564039	0.794060
Cu17	Cu	0.078864	-1.064086	0.174567
Cu18	Cu	0.578864	-0.564086	0.674567
O19	O	0.161771	-1.056127	0.283080
O20	O	0.661771	-0.556127	0.783080
C21	C	0.082883	-0.899232	0.198014
C22	C	0.582883	-0.399232	0.698014
C23	C	0.081672	-0.799181	0.175981
C24	C	0.581672	-0.299181	0.675981
C25	C	0.077748	-0.469921	0.378832
C26	C	0.577748	0.030079	0.878832
C27	C	0.076621	-0.375905	0.358100
C28	C	0.576621	0.124095	0.858100
C29	C	0.076611	-0.375996	0.247959
C30	C	0.576611	0.124004	0.747959
C31	C	0.077740	-0.470013	0.268681
C32	C	0.577740	0.029987	0.768681
C33	C	0.078308	-0.516968	0.334119
C34	C	0.578308	-0.016968	0.834119
C35	C	0.078301	-0.517060	0.223968
C36	C	0.578301	-0.017060	0.723968
C37	C	0.079427	-0.611070	0.244689
C38	C	0.579427	-0.111070	0.744689
C39	C	0.079993	-0.658032	0.310124
C40	C	0.579993	-0.158032	0.810124
C41	C	0.079435	-0.610978	0.354840
C42	C	0.579435	-0.110978	0.854840
C43	C	0.077729	-0.470104	0.158532
C44	C	0.577729	0.029896	0.658532
C45	C	0.078289	-0.517151	0.113818
C46	C	0.578289	-0.017151	0.613818
C47	C	0.079419	-0.611161	0.134539
C48	C	0.579419	-0.111161	0.634539
C49	C	0.079986	-0.658124	0.199973
C50	C	0.579986	-0.158124	0.699973
C51	C	0.079978	-0.658216	0.089823
C52	C	0.579978	-0.158216	0.589823
C53	C	0.081104	-0.752225	0.110544
C54	C	0.581104	-0.252225	0.610544
C55	C	0.081112	-0.752133	0.220695
C56	C	0.581112	-0.252133	0.720695
C57	C	-0.025244	-1.071575	0.235980
C58	C	0.474756	-0.571575	0.735980
C59	C	-0.088467	-1.070363	0.235718
C60	C	0.411533	-0.570363	0.735718
C61	C	-0.487237	-1.145118	0.252147
C62	C	0.012763	-0.645118	0.752147
C63	C	-0.546642	-1.143992	0.251895
C64	C	-0.046642	-0.643992	0.751895
O65	O	-0.583079	-1.213290	0.267133
O66	O	-0.083079	-0.713290	0.767133
N67	N	-0.569637	-1.061256	0.233675
N68	N	-0.069637	-0.561256	0.733675
C69	C	-0.533222	-0.979641	0.215701
C70	C	-0.033222	-0.479641	0.715701
O71	O	-0.558236	-0.909164	0.200180
O72	O	-0.058236	-0.409164	0.700180
C73	C	-0.473818	-0.980768	0.215949
C74	C	0.026182	-0.480768	0.715949
C75	C	-0.450827	-1.063509	0.234176
C76	C	0.049173	-0.563509	0.734176
C77	C	-0.464246	-1.227852	0.270372
C78	C	0.035754	-0.727852	0.770372
C79	C	-0.404845	-1.228978	0.270626
C80	C	0.095155	-0.728978	0.770626
C81	C	-0.368435	-1.147369	0.252655
C82	C	0.131565	-0.647369	0.752655
C83	C	-0.391426	-1.064635	0.234430
C84	C	0.108574	-0.564635	0.734430
C85	C	-0.437405	-0.899154	0.197971
C86	C	0.062595	-0.399154	0.697971
C87	C	-0.377997	-0.900288	0.198220
C88	C	0.122003	-0.400288	0.698220
C89	C	-0.355007	-0.983029	0.216447
C90	C	0.144993	-0.483029	0.716447
C91	C	-0.295615	-0.984151	0.216712
C92	C	0.204385	-0.484151	0.716712
N93	N	-0.272621	-1.066887	0.234932
N94	N	0.227379	-0.566887	0.734932
C95	C	-0.309031	-1.148496	0.252903
C96	C	0.190969	-0.648496	0.752903
C97	C	-0.657975	-0.977281	0.215179
C98	C	-0.157975	-0.477281	0.715179
C99	C	-0.717378	-0.976153	0.214935
C100	C	-0.217378	-0.476153	0.714935
C101	C	-0.730794	-1.140504	0.251128
C102	C	-0.230794	-0.640504	0.751128
C103	C	-0.671390	-1.141631	0.251377
C104	C	-0.171390	-0.641631	0.751377
C105	C	-0.634981	-1.060016	0.233399
C106	C	-0.134981	-0.560016	0.733399
C107	C	-0.184284	-1.150854	0.253435
C108	C	0.315716	-0.650854	0.753435
C109	C	-0.124877	-1.151972	0.253689
C110	C	0.375123	-0.651972	0.753689
C111	C	-0.111466	-0.987621	0.217493
C112	C	0.388534	-0.487621	0.717493
C113	C	-0.170868	-0.986502	0.217242
C114	C	0.329132	-0.486502	0.717242
C115	C	-0.207276	-1.068126	0.235212
C116	C	0.292724	-0.568126	0.735212
O117	O	-0.259144	-0.914890	0.201479
O118	O	0.240856	-0.414890	0.701479
O119	O	-0.284009	-1.218961	0.268414
O120	O	0.215991	-0.718961	0.768414
C121	C	0.182984	-1.056550	0.232645
C122	C	0.682984	-0.556550	0.732645
C123	C	0.246207	-1.057762	0.232903
C124	C	0.746207	-0.557762	0.732903
C125	C	0.074852	-0.228894	0.270620
C126	C	0.574852	0.271106	0.770620
C127	C	0.076051	-0.328948	0.292677
C128	C	0.576051	0.171052	0.792677
N129	N	0.078884	-1.064012	0.378107
N130	N	0.578884	-0.564012	0.878107
N131	N	0.078851	-1.064121	0.090522
N132	N	0.578851	-0.564121	0.590522
C133	C	0.044251	-1.009712	0.658758
C134	C	0.544251	-0.509712	1.158758
C135	C	0.044253	-1.009704	0.595149
C136	C	0.544253	-0.509704	1.095149
O137	O	0.014808	-0.963501	0.552081
O138	O	0.514808	-0.463501	1.052081
N139	N	0.078866	-1.064047	0.575299
N140	N	0.578866	-0.564047	1.075299
C141	C	0.113475	-1.118410	0.619063
C142	C	0.613475	-0.618410	1.119063
O143	O	0.142916	-1.164633	0.596338
O144	O	0.642916	-0.664633	1.096338
C145	C	0.113469	-1.118422	0.682672
C146	C	0.613469	-0.618422	1.182672
C147	C	0.078858	-1.064068	0.702517
C148	C	0.578858	-0.564068	1.202517
C149	C	0.009642	-0.955363	0.678604
C150	C	0.509642	-0.455363	1.178604
C151	C	0.009641	-0.955370	0.742209
C152	C	0.509641	-0.455370	1.242209
C153	C	0.044248	-1.009726	0.785968
C154	C	0.544248	-0.509726	1.285968
C155	C	0.078856	-1.064075	0.766122
C156	C	0.578856	-0.564075	1.266122
C157	C	0.148074	-1.172788	0.726436
C158	C	0.648074	-0.672788	1.226436
C159	C	0.148064	-1.172796	0.790049
C160	C	0.648064	-0.672796	1.290049
C161	C	0.113453	-1.118442	0.809894
C162	C	0.613453	-0.618442	1.309894
C163	C	0.113462	-1.118437	0.873485
C164	C	0.613462	-0.618437	1.373485
N165	N	0.078849	-1.064094	0.893336
N166	N	0.578849	-0.564094	1.393336
C167	C	0.044242	-1.009738	0.849577
C168	C	0.544242	-0.509738	1.349577
C169	C	0.113484	-1.118381	0.485479
C170	C	0.613484	-0.618381	0.985479
C171	C	0.113494	-1.118365	0.421870
C172	C	0.613494	-0.618365	0.921870
C173	C	0.044271	-1.009660	0.397961
C174	C	0.544271	-0.509660	0.897961
C175	C	0.044265	-1.009672	0.461570
C176	C	0.544265	-0.509672	0.961570
C177	C	0.078871	-1.064037	0.505329
C178	C	0.578871	-0.564037	1.005329
C179	C	0.044241	-1.009756	0.983152
C180	C	0.544241	-0.509756	1.483152
C181	C	0.044244	-1.009765	1.046763
C182	C	0.544244	-0.509765	1.546763
C183	C	0.113464	-1.118473	1.070668
C184	C	0.613464	-0.618473	1.570668
C185	C	0.113463	-1.118461	1.007062
C186	C	0.613463	-0.618461	1.507062
C187	C	0.078847	-1.064100	0.963305
C188	C	0.578847	-0.564100	1.463305
O189	O	0.142890	-1.164619	0.916589
O190	O	0.642890	-0.664619	1.416589
O191	O	0.014800	-0.963531	0.872313
O192	O	0.514800	-0.463531	1.372313
H193	H	0.081563	-0.790531	0.074134
H194	H	0.581563	-0.290531	0.574134
Cl195	Cl	0.078469	-0.528956	0.461097
Cl196	Cl	0.578469	-0.028956	0.961097
H197	H	0.076179	-0.337600	0.394516
H198	H	0.576179	0.162400	0.894516
H199	H	0.081583	-0.790365	0.273980
H200	H	0.581583	-0.290365	0.773980
Cl201	Cl	-0.095978	-1.255997	0.276604
Cl202	Cl	0.404022	-0.755997	0.776604
Cl203	Cl	0.156999	-1.186725	0.540484
Cl204	Cl	0.656999	-0.686725	1.040484
H205	H	0.079906	-0.649210	0.408125
H206	H	0.579906	-0.149210	0.908125
H207	H	0.141655	-1.162707	0.990901
H208	H	0.641655	-0.662707	1.490901
H209	H	0.080910	-0.734581	0.326994
H210	H	0.580910	-0.234581	0.826994
Cl211	Cl	0.075878	-0.316962	0.165699
Cl212	Cl	0.575878	0.183038	0.665699
Cl213	Cl	0.156971	-1.186798	1.125689
Cl214	Cl	0.656971	-0.686798	1.625689
H215	H	0.176245	-1.217070	0.825677
H216	H	0.676245	-0.717070	1.325677
Cl217	Cl	-0.033876	-0.887039	0.767148
Cl218	Cl	0.466124	-0.387039	1.267148
H219	H	-0.213921	-1.217320	0.268066
H220	H	0.286079	-0.717320	0.768066
H221	H	0.176257	-1.217051	0.710291
H222	H	0.676257	-0.717051	1.210291
H223	H	-0.386131	-1.296354	0.285466
H224	H	0.113869	-0.796354	0.785466
Cl225	Cl	0.076295	-0.351922	0.132483
Cl226	Cl	0.576295	0.148078	0.632483
Cl227	Cl	0.077556	-0.458117	0.031558
Cl228	Cl	0.577556	0.041883	0.531558
H229	H	0.079510	-0.619972	0.036544
H230	H	0.579510	-0.119972	0.536544
Cl231	Cl	-0.466293	-0.795130	0.175051
Cl232	Cl	0.033707	-0.295130	0.675051
H233	H	-0.493885	-1.294312	0.285005
H234	H	0.006115	-0.794312	0.785005
Cl235	Cl	-0.065683	-0.885033	0.194901
Cl236	Cl	0.434317	-0.385033	0.694901
H237	H	-0.652676	-1.209006	0.266218
H238	H	-0.152676	-0.709006	0.766218
H239	H	-0.760450	-1.206954	0.265759
H240	H	-0.260450	-0.706954	0.765759
Cl241	Cl	-0.746273	-0.872131	0.192032
Cl242	Cl	-0.246273	-0.372131	0.692032
H243	H	0.016054	-0.965490	0.947532
H244	H	0.516054	-0.465490	1.447532
H245	H	-0.348355	-0.833826	0.183579
H246	H	0.151645	-0.333826	0.683579
H247	H	0.016060	-0.965499	1.062916
H248	H	0.516060	-0.465499	1.562916
Cl249	Cl	-0.612209	-0.874668	0.192583
Cl250	Cl	-0.112209	-0.374668	0.692583
Cl251	Cl	-0.033864	-0.887011	0.623601
Cl252	Cl	0.466136	-0.387011	1.123601
Cl253	Cl	-0.199771	-0.882484	0.194339
Cl254	Cl	0.300229	-0.382484	0.694339
H255	H	0.016082	-0.965412	0.477722
H256	H	0.516082	-0.465412	0.977722
H257	H	0.016092	-0.965400	0.362320
H258	H	0.516092	-0.465400	0.862320
Cl259	Cl	0.157018	-1.186680	0.396927
Cl260	Cl	0.657018	-0.686680	0.896927
