data_functionalizedCrystal
_audit_creation_method	'MofGen! by Chris Wilmer'
_symmetry_space_group_name_H-M	'P1'
_symmetry_Int_Tables_number	1
_symmetry_cell_setting	triclinic
loop_
_symmetry_equiv_pos_as_xyz
  x,y,z
_cell_length_a	19.077142
_cell_length_b	19.077068
_cell_length_c	19.076919
_cell_angle_alpha	85.529249
_cell_angle_beta	89.925643
_cell_angle_gamma	90.114550
loop_
_atom_site_label
_atom_site_type_symbol
_atom_site_fract_x
_atom_site_fract_y
_atom_site_fract_z
Zn1	Zn	-1.044046	0.340467	-0.453535
Zn2	Zn	-0.544046	0.840467	0.046465
Zn3	Zn	-1.043960	0.453617	-0.340376
Zn4	Zn	-0.543960	0.953617	0.159624
Zn5	Zn	-0.931658	0.331038	-0.330962
Zn6	Zn	-0.431658	0.831038	0.169038
Zn7	Zn	-0.921799	0.453191	-0.453108
Zn8	Zn	-0.421799	0.953191	0.046892
O9	O	-0.985366	0.394578	-0.394495
O10	O	-0.485366	0.894578	0.105505
O11	O	-1.142194	0.359601	-0.442642
O12	O	-0.642194	0.859601	0.057358
O13	O	-1.033152	0.433589	-0.240651
O14	O	-0.533152	0.933589	0.259349
O15	O	-0.950729	0.233814	-0.343461
O16	O	-0.450729	0.733814	0.156539
O17	O	-1.142130	0.442732	-0.359505
O18	O	-0.642130	0.942732	0.140495
O19	O	-1.033300	0.240742	-0.433514
O20	O	-0.533300	0.740742	0.066486
O21	O	-0.950645	0.343531	-0.233735
O22	O	-0.450645	0.843531	0.266265
O23	O	-0.832191	0.343117	-0.343047
O24	O	-0.332191	0.843117	0.156953
O25	O	-0.933926	0.442005	-0.551640
O26	O	-0.433926	0.942005	-0.051640
O27	O	-0.824948	0.432862	-0.432787
O28	O	-0.324948	0.932862	0.067213
O29	O	-1.023740	0.359188	-0.551954
O30	O	-0.523740	0.859188	-0.051954
O31	O	-1.023592	0.552035	-0.359091
O32	O	-0.523592	1.052035	0.140909
O33	O	-0.933842	0.551722	-0.441915
O34	O	-0.433842	1.051722	0.058085
C35	C	-0.803118	0.386921	-0.386849
C36	C	-0.303118	0.886921	0.113151
C37	C	-0.725150	0.383663	-0.383596
C38	C	-0.225150	0.883663	0.116404
C39	C	-0.684768	0.428922	-0.428722
C40	C	-0.184768	0.928922	0.071278
C41	C	-0.611509	0.425852	-0.425668
C42	C	-0.111509	0.925852	0.074332
C43	C	-0.578633	0.377525	-0.377484
C44	C	-0.078633	0.877525	0.122516
C45	C	-0.619021	0.332260	-0.332356
C46	C	-0.119021	0.832260	0.167644
C47	C	-0.692278	0.335328	-0.335414
C48	C	-0.192278	0.835328	0.164586
C49	C	-0.359939	0.363329	-0.363338
C50	C	0.140061	0.863329	0.136662
C51	C	-0.286676	0.360266	-0.360282
C52	C	0.213324	0.860266	0.139718
C53	C	-0.279169	0.453858	-0.453596
C54	C	0.220831	0.953858	0.046404
C55	C	-0.352428	0.456924	-0.456647
C56	C	0.147572	0.956924	0.043353
C57	C	-0.392810	0.411657	-0.411521
C58	C	0.107190	0.911657	0.088479
N59	N	-0.503751	0.374386	-0.374359
N60	N	-0.003751	0.874386	0.125641
N61	N	-0.467691	0.414792	-0.414650
N62	N	0.032309	0.914792	0.085350
C63	C	-0.977656	0.577413	-0.401494
C64	C	-0.477656	1.077413	0.098506
C65	C	-0.974421	0.655634	-0.404515
C66	C	-0.474421	1.155634	0.095485
C67	C	-0.977743	0.401601	-0.578045
C68	C	-0.477743	0.901601	-0.078045
C69	C	-0.974495	0.404593	-0.656263
C70	C	-0.474495	0.904593	-0.156263
C71	C	-0.168326	0.402262	-0.402163
C72	C	0.331674	0.902262	0.097837
C73	C	-0.246294	0.405526	-0.405409
C74	C	0.253706	0.905526	0.094591
C75	C	-0.993124	0.211031	-0.387485
C76	C	-0.493124	0.711031	0.112515
C77	C	-0.996430	0.132814	-0.384498
C78	C	-0.496430	0.632814	0.115502
C79	C	-1.019663	0.692526	-0.362850
C80	C	-0.519663	1.192526	0.137150
C81	C	-1.016624	0.766023	-0.365696
C82	C	-0.516624	1.266023	0.134304
C83	C	-0.968340	0.802628	-0.410202
C84	C	-0.468340	1.302628	0.089798
C85	C	-0.923096	0.765732	-0.451871
C86	C	-0.423096	1.265732	0.048129
C87	C	-0.926139	0.692236	-0.449029
C88	C	-0.426139	1.192236	0.050971
C89	C	-0.954229	1.022422	-0.423325
C90	C	-0.454229	1.522422	0.076675
C91	C	-0.951188	1.095922	-0.426162
C92	C	-0.451188	1.595922	0.073838
C93	C	-1.044718	1.096209	-0.339988
C94	C	-0.544718	1.596209	0.160012
C95	C	-1.047753	1.022711	-0.337147
C96	C	-0.547753	1.522711	0.162853
C97	C	-1.002512	0.985822	-0.378818
C98	C	-0.502512	1.485822	0.121182
N99	N	-0.965231	0.877754	-0.413109
N100	N	-0.465231	1.377754	0.086891
N101	N	-1.005625	0.910697	-0.375914
N102	N	-0.505625	1.410697	0.124086
C103	C	-1.019728	0.362883	-0.693174
C104	C	-0.519728	0.862883	-0.193174
C105	C	-1.016667	0.365691	-0.766668
C106	C	-0.516667	0.865691	-0.266668
C107	C	-0.968376	0.410215	-0.803249
C108	C	-0.468376	0.910215	-0.303249
C109	C	-0.923138	0.451927	-0.766332
C110	C	-0.423138	0.951927	-0.266332
C111	C	-0.926196	0.449114	-0.692840
C112	C	-0.426196	0.949114	-0.192840
C113	C	-0.954214	0.423248	-1.023031
C114	C	-0.454214	0.923248	-0.523031
C115	C	-0.951161	0.426060	-1.096528
C116	C	-0.451161	0.926060	-0.596528
C117	C	-1.044689	0.339822	-1.096859
C118	C	-0.544689	0.839822	-0.596859
C119	C	-1.047745	0.337016	-1.023365
C120	C	-0.547745	0.837016	-0.523365
C121	C	-1.002505	0.378726	-0.986454
C122	C	-0.502505	0.878726	-0.486454
N123	N	-0.965248	0.413089	-0.878372
N124	N	-0.465248	0.913089	-0.378372
N125	N	-1.005630	0.375848	-0.911333
N126	N	-0.505630	0.875848	-0.411333
C127	C	-0.993001	0.387534	-0.211659
C128	C	-0.493001	0.887534	0.288341
C129	C	-0.996394	0.384349	-0.133440
C130	C	-0.496394	0.884349	0.366560
H131	H	-0.379190	0.496279	-0.495882
H132	H	0.120810	0.996279	0.004118
N133	N	-0.401184	0.317108	-0.317232
N134	N	0.098816	0.817108	0.182768
N135	N	-0.442875	0.341795	-0.275000
N136	N	0.057125	0.841795	0.225000
H137	H	-0.472008	0.309151	-0.242433
H138	H	0.027992	0.809151	0.257567
N139	N	-0.901855	1.133303	-0.471624
N140	N	-0.401855	1.633303	0.028376
N141	N	-0.861462	1.100359	-0.508824
N142	N	-0.361462	1.600359	-0.008824
H143	H	-0.826619	1.126758	-0.540928
H144	H	-0.326619	1.626758	-0.040928
N145	N	-0.570249	0.472092	-0.471745
N146	N	-0.070249	0.972092	0.028255
N147	N	-0.504842	0.469353	-0.469006
N148	N	-0.004842	0.969353	0.030994
H149	H	-0.475701	0.502014	-0.501547
H150	H	0.024299	1.002014	-0.001547
H151	H	-0.889356	0.483072	-0.662787
H152	H	-0.389356	0.983072	-0.162787
H153	H	-0.592248	0.292908	-0.293126
H154	H	-0.092248	0.792908	0.206874
N155	N	-0.253083	0.310896	-0.311071
N156	N	0.246917	0.810896	0.188929
N157	N	-0.187674	0.308169	-0.308349
N158	N	0.312326	0.808169	0.191651
H159	H	-0.163947	0.273305	-0.273594
H160	H	0.336053	0.773305	0.226406
H161	H	-0.917390	0.992392	-0.457254
H162	H	-0.417390	1.492392	0.042746
N163	N	-1.090902	0.297213	-1.134550
N164	N	-0.590902	0.797213	-0.634550
N165	N	-1.155773	0.304282	-1.129237
N166	N	-0.655773	0.804282	-0.629237
H167	H	-1.188412	0.274184	-1.155854
H168	H	-0.688412	0.774184	-0.655854
N169	N	-0.873775	0.803132	-0.497324
N170	N	-0.373775	1.303132	0.002676
N171	N	-0.828427	0.841367	-0.472238
N172	N	-0.328427	1.341367	0.027762
H173	H	-0.793591	0.867782	-0.504338
H174	H	-0.293591	1.367782	-0.004338
N175	N	-0.879925	0.654561	-0.491597
N176	N	-0.379925	1.154561	0.008403
N177	N	-0.836818	0.687250	-0.531334
N178	N	-0.336818	1.187250	-0.031334
H179	H	-0.804179	0.660644	-0.561402
H180	H	-0.304179	1.160644	-0.061402
N181	N	-1.097074	0.291525	-0.986015
N182	N	-0.597074	0.791525	-0.486015
N183	N	-1.094827	0.226710	-0.991552
N184	N	-0.594827	0.726710	-0.491552
H185	H	-1.129668	0.194581	-0.965176
H186	H	-0.629668	0.694581	-0.465176
N187	N	-0.733520	0.289084	-0.289320
N188	N	-0.233520	0.789084	0.210680
N189	N	-0.704161	0.245935	-0.246304
N190	N	-0.204161	0.745935	0.253696
H191	H	-0.733286	0.213270	-0.213751
H192	H	-0.233286	0.713270	0.286249
H193	H	-0.246283	0.490710	-0.490335
H194	H	0.253717	0.990710	0.009665
N195	N	-0.873809	0.497398	-0.803707
N196	N	-0.373809	0.997398	-0.303707
N197	N	-0.871084	0.499905	-0.869325
N198	N	-0.371084	0.999905	-0.369325
H199	H	-0.836245	0.532020	-0.895721
H200	H	-0.336245	1.032020	-0.395721
H201	H	-1.059053	0.326629	-0.663395
H202	H	-0.559053	0.826629	-0.163395
H203	H	-1.053502	0.331728	-0.796718
H204	H	-0.553502	0.831728	-0.296718
N205	N	-0.901804	0.471522	-1.133884
N206	N	-0.401804	0.971522	-0.633884
N207	N	-0.861400	0.508743	-1.100920
N208	N	-0.361400	1.008743	-0.600920
H209	H	-0.826536	0.540841	-1.127301
H210	H	-0.326536	1.040841	-0.627301
H211	H	-0.711529	0.468278	-0.467956
H212	H	-0.211529	0.968278	0.032044
N213	N	-1.068984	0.655149	-0.317378
N214	N	-0.568984	1.155149	0.182622
N215	N	-1.109374	0.688099	-0.280182
N216	N	-0.609374	1.188099	0.219818
H217	H	-1.144209	0.661704	-0.248066
H218	H	-0.644209	1.161704	0.251934
N219	N	-0.907999	0.465857	-0.985345
N220	N	-0.407999	0.965857	-0.485345
N221	N	-0.864888	0.505608	-1.018018
N222	N	-0.364888	1.005608	-0.518018
H223	H	-0.832247	0.535703	-0.991400
H224	H	-0.332247	1.035703	-0.491400
N225	N	-1.062853	0.803696	-0.323143
N226	N	-0.562853	1.303696	0.176857
N227	N	-1.105964	0.771005	-0.283412
N228	N	-0.605964	1.271005	0.216588
H229	H	-1.138619	0.797611	-0.253360
H230	H	-0.638619	1.297611	0.246640
H231	H	-1.087070	0.992909	-0.300906
H232	H	-0.587070	1.492909	0.199094
N233	N	-1.090940	1.133890	-0.297436
N234	N	-0.590940	1.633890	0.202564
N235	N	-1.155808	1.128521	-0.304553
N236	N	-0.655808	1.628521	0.195447
H237	H	-1.188457	1.155132	-0.274499
H238	H	-0.688457	1.655132	0.225501
