data_functionalizedCrystal
_audit_creation_method	'MofGen! by Chris Wilmer'
_symmetry_space_group_name_H-M	'P1'
_symmetry_Int_Tables_number	1
_symmetry_cell_setting	triclinic
loop_
_symmetry_equiv_pos_as_xyz
  x,y,z
_cell_length_a	15.944545
_cell_length_b	15.944493
_cell_length_c	10.268362
_cell_angle_alpha	90.000590
_cell_angle_beta	89.998200
_cell_angle_gamma	83.485608
loop_
_atom_site_label
_atom_site_type_symbol
_atom_site_fract_x
_atom_site_fract_y
_atom_site_fract_z
O1	O	1.114505	0.108311	-0.108199
O2	O	0.869952	0.121673	-0.108218
O3	O	0.998932	-0.007287	-0.108219
O4	O	0.985525	0.237270	-0.108198
O5	O	0.998921	-0.007292	0.108382
O6	O	0.869941	0.121667	0.108383
O7	O	1.114494	0.108305	0.108402
Cu8	Cu	0.992216	0.114986	0.128170
Cu9	Cu	0.992229	0.114992	-0.127986
O10	O	0.985514	0.237265	0.108403
C11	C	0.838652	0.121116	0.000080
C12	C	0.745406	0.119456	0.000072
C13	C	0.474791	0.034560	0.000078
C14	C	0.525359	0.075487	0.106880
C15	C	0.409764	0.113535	0.000094
C16	C	0.525350	0.075514	-0.106671
C17	C	0.574677	0.116440	0.000081
C18	C	0.459103	0.154441	0.106984
C19	C	0.459091	0.154456	-0.106663
C20	C	0.509626	0.195442	0.000165
C21	C	0.314762	0.111859	0.000102
C22	C	0.669676	0.118122	0.000081
C23	C	0.998378	-0.038584	0.000076
C24	C	0.996735	-0.131833	0.000059
C25	C	1.072656	-0.367594	0.000090
C26	C	1.031721	-0.418159	-0.106708
C27	C	0.993691	-0.302554	0.000075
C28	C	1.031691	-0.418140	0.106843
C29	C	0.990757	-0.467463	0.000096
C30	C	0.952777	-0.351890	-0.106811
C31	C	0.952759	-0.351868	0.106836
C32	C	0.911766	-0.402400	0.000012
C33	C	0.995384	-0.207554	0.000062
C34	C	0.989058	-0.562460	0.000100
C35	C	1.145793	0.108862	0.000101
C36	C	1.239039	0.110522	0.000101
C37	C	0.986067	0.268562	0.000105
C38	C	0.987710	0.361811	0.000113
N39	N	0.992213	0.114981	0.308336
N40	N	0.992239	0.114990	-0.308151
C41	C	0.992225	0.114990	0.574006
C42	C	0.992216	0.114988	0.426168
H43	H	1.140674	-0.351967	-0.000012
N44	N	0.454042	-0.055520	0.000198
H45	H	0.479194	-0.085664	-0.079636
H46	H	0.478270	-0.085194	0.080998
H47	H	0.430282	0.187768	0.197373
N48	N	0.563675	0.031323	-0.226263
H49	H	0.517695	0.009663	-0.280124
H50	H	0.593181	0.072358	-0.279672
N51	N	1.075892	-0.456504	-0.226302
H52	H	1.136631	-0.444140	-0.226221
H53	H	1.073891	-0.519587	-0.225768
N54	N	0.530121	0.285605	0.000230
H55	H	0.505776	0.315322	0.080930
H56	H	0.593394	0.286174	-0.000588
H57	H	0.843695	-0.417864	-0.000051
H58	H	0.919435	-0.322909	0.197125
N59	N	0.908632	-0.313721	-0.226538
H60	H	0.910052	-0.250555	-0.225826
H61	H	0.938243	-0.338505	-0.307040
N62	N	1.075871	-0.456466	0.226438
H63	H	1.136608	-0.444095	0.226341
H64	H	1.046605	-0.431400	0.307033
H65	H	0.430143	0.187782	-0.196954
N66	N	0.563667	0.031318	0.226496
H67	H	0.551284	-0.029415	0.226419
H68	H	0.626753	0.033300	0.226000
