data_functionalizedCrystal
_audit_creation_method	'MofGen! by Chris Wilmer'
_symmetry_space_group_name_H-M	'P1'
_symmetry_Int_Tables_number	1
_symmetry_cell_setting	triclinic
loop_
_symmetry_equiv_pos_as_xyz
  x,y,z
_cell_length_a	11.792254
_cell_length_b	14.519709
_cell_length_c	10.868271
_cell_angle_alpha	89.993918
_cell_angle_beta	89.995741
_cell_angle_gamma	83.939371
loop_
_atom_site_label
_atom_site_type_symbol
_atom_site_fract_x
_atom_site_fract_y
_atom_site_fract_z
O1	O	1.506199	0.126460	-0.102324
O2	O	1.839532	0.459793	0.231009
O3	O	2.172865	0.793127	0.564343
O4	O	1.175787	0.139475	-0.102327
O5	O	1.509121	0.472808	0.231006
O6	O	1.842454	0.806142	0.564340
O7	O	1.349754	-0.001238	-0.102314
O8	O	1.683087	0.332095	0.231019
O9	O	2.016420	0.665428	0.564352
O10	O	1.332233	0.267174	-0.102337
O11	O	1.665566	0.600507	0.230997
O12	O	1.998899	0.933840	0.564330
O13	O	1.349739	-0.001244	0.102330
O14	O	1.683073	0.332089	0.435664
O15	O	2.016406	0.665423	0.768997
O16	O	1.175773	0.139470	0.102318
O17	O	1.509106	0.472803	0.435651
O18	O	1.842440	0.806136	0.768984
O19	O	1.506184	0.126455	0.102321
O20	O	1.839518	0.459788	0.435654
O21	O	2.172851	0.793121	0.768987
Zn22	Zn	1.340977	0.132961	0.134811
Zn23	Zn	1.674310	0.466294	0.468144
Zn24	Zn	2.007643	0.799628	0.801478
Zn25	Zn	1.340995	0.132968	-0.134817
Zn26	Zn	1.674329	0.466302	0.198516
Zn27	Zn	2.007662	0.799635	0.531849
O28	O	1.332218	0.267168	0.102308
O29	O	1.665552	0.600501	0.435641
O30	O	1.998885	0.933835	0.768975
C31	C	1.133494	0.138652	-0.000005
C32	C	1.466827	0.471986	0.333328
C33	C	1.800161	0.805319	0.666662
C34	C	1.007495	0.136199	-0.000006
C35	C	1.340828	0.469532	0.333328
C36	C	1.674161	0.802865	0.666661
C37	C	0.905169	0.134205	-0.000011
C38	C	1.238503	0.467538	0.333322
C39	C	1.571836	0.800871	0.666656
C40	C	0.776796	0.131711	-0.000011
C41	C	1.110130	0.465045	0.333322
C42	C	1.443463	0.798378	0.666655
C43	C	1.348930	-0.035604	0.000008
C44	C	1.682263	0.297729	0.333341
C45	C	2.015596	0.631063	0.666675
C46	C	1.346483	-0.137994	0.000009
C47	C	1.679816	0.195339	0.333342
C48	C	2.013150	0.528672	0.666675
C49	C	1.337475	-0.512923	-0.000023
C50	C	1.670808	-0.179590	0.333310
C51	C	2.004142	0.153743	0.666643
C52	C	1.339976	-0.408606	-0.000014
C53	C	1.673310	-0.075273	0.333319
C54	C	2.006643	0.258060	0.666653
C55	C	1.341979	-0.325462	-0.000006
C56	C	1.675312	0.007871	0.333327
C57	C	2.008645	0.341204	0.666661
C58	C	1.344481	-0.221138	0.000001
C59	C	1.677814	0.112195	0.333334
C60	C	2.011147	0.445528	0.666668
C61	C	1.548478	0.127277	-0.000004
C62	C	1.881811	0.460610	0.333329
C63	C	2.215144	0.793944	0.666663
C64	C	1.674477	0.129731	-0.000011
C65	C	2.007811	0.463064	0.333322
C66	C	2.341144	0.796398	0.666655
C67	C	1.333042	0.301534	-0.000017
C68	C	1.666375	0.634867	0.333316
C69	C	1.999709	0.968200	0.666649
C70	C	1.335489	0.403924	-0.000026
C71	C	1.668822	0.737257	0.333307
C72	C	2.002156	1.070591	0.666641
N73	N	1.340972	0.132956	0.318825
N74	N	1.674305	0.466289	0.652158
N75	N	2.007639	0.799622	0.985492
N76	N	1.341009	0.132967	-0.318831
N77	N	1.674342	0.466300	0.014502
N78	N	2.007676	0.799633	0.347835
C79	C	1.340989	0.132967	0.569831
C80	C	1.674323	0.466300	0.903164
C81	C	2.007656	0.799633	1.236498
C82	C	1.340976	0.132963	0.430153
C83	C	1.674309	0.466296	0.763487
C84	C	2.007643	0.799630	1.096820
