data_functionalizedCrystal
_audit_creation_method	'MofGen! by Chris Wilmer'
_symmetry_space_group_name_H-M	'P1'
_symmetry_Int_Tables_number	1
_symmetry_cell_setting	triclinic
loop_
_symmetry_equiv_pos_as_xyz
  x,y,z
_cell_length_a	19.121102
_cell_length_b	21.295417
_cell_length_c	19.120904
_cell_angle_alpha	87.591662
_cell_angle_beta	89.911827
_cell_angle_gamma	87.584620
loop_
_atom_site_label
_atom_site_type_symbol
_atom_site_fract_x
_atom_site_fract_y
_atom_site_fract_z
Zn1	Zn	1.054814	-0.307921	0.442032
Zn2	Zn	1.059724	-0.408895	0.324785
Zn3	Zn	0.942584	-0.298967	0.319816
Zn4	Zn	0.937535	-0.408472	0.436987
O5	O	0.998664	-0.356064	0.380905
O6	O	1.153571	-0.325239	0.430669
O7	O	1.048352	-0.390743	0.226021
O8	O	0.957530	-0.212069	0.336060
O9	O	1.157177	-0.399425	0.344528
O10	O	1.039985	-0.218647	0.425851
O11	O	0.962291	-0.309980	0.222371
O12	O	0.843809	-0.309569	0.331169
O13	O	0.948925	-0.398703	0.535761
O14	O	0.840100	-0.390022	0.417254
O15	O	1.035089	-0.324829	0.539467
O16	O	1.043456	-0.496925	0.339637
O17	O	0.953685	-0.496614	0.422072
C18	C	0.816517	-0.348778	0.373125
C19	C	0.738593	-0.345677	0.369814
C20	C	0.700074	-0.386166	0.413007
C21	C	0.626856	-0.383244	0.409899
C22	C	0.592158	-0.339836	0.363593
C23	C	0.630682	-0.299344	0.320398
C24	C	0.703899	-0.302263	0.323510
C25	C	0.371187	-0.328921	0.351961
C26	C	0.297965	-0.326006	0.348850
C27	C	0.294144	-0.409906	0.438353
C28	C	0.367362	-0.412824	0.441458
C29	C	0.405880	-0.372329	0.398265
C30	C	0.517318	-0.336850	0.360413
C31	C	0.480719	-0.375313	0.401449
C32	C	0.998574	-0.519610	0.380862
C33	C	0.998599	-0.589580	0.380870
C34	C	1.045380	-0.622590	0.337994
C35	C	1.045413	-0.688335	0.338011
C36	C	0.998651	-0.721065	0.380897
C37	C	0.951865	-0.688046	0.423781
C38	C	0.951839	-0.622304	0.423768
N39	N	0.937094	-0.822078	0.383622
N40	N	0.937121	-0.884530	0.383630
C41	C	0.998728	-0.919144	0.380940
N42	N	1.060308	-0.888946	0.378228
N43	N	1.060281	-0.826487	0.378215
C44	C	0.998674	-0.792352	0.380916
C45	C	1.045548	-1.023443	0.338080
C46	C	1.045581	-1.089189	0.338103
C47	C	0.952028	-1.088899	0.423869
C48	C	0.952001	-1.023154	0.423850
C49	C	0.998760	-0.990430	0.380953
C50	C	1.181523	-0.363378	0.388716
C51	C	1.259446	-0.366495	0.392044
C52	C	0.990896	-0.362718	0.563763
C53	C	0.987586	-0.365553	0.641686
C54	C	0.998773	-0.191880	0.380964
C55	C	0.998820	-0.121914	0.380989
C56	C	1.006442	-0.349392	0.198761
C57	C	1.009889	-0.346384	0.120844
C58	C	1.030890	-0.328425	0.680225
C59	C	1.027771	-0.331086	0.753441
C60	C	0.981351	-0.370880	0.788118
C61	C	0.938043	-0.408010	0.749573
C62	C	0.941159	-0.405345	0.676358
C63	C	0.969696	-0.380849	1.009084
C64	C	0.966585	-0.383513	1.082305
C65	C	1.056312	-0.306588	1.086168
C66	C	1.059427	-0.303929	1.012951
C67	C	1.016116	-0.341056	0.974413
C68	C	0.978164	-0.373603	0.862957
C69	C	1.019300	-0.338330	0.899575
H70	H	0.735260	-0.269289	0.288341
H71	H	1.083510	-0.715218	0.303097
H72	H	0.508972	-0.410653	0.439154
C73	C	0.479143	-0.289106	0.309476
C74	C	0.427543	-0.238837	0.337826
C75	C	0.389364	-0.191093	0.286892
C76	C	0.402784	-0.193618	0.207609
C77	C	0.454386	-0.243889	0.179255
C78	C	0.492566	-0.291633	0.230189
H79	H	0.417607	-0.236966	0.396520
H80	H	0.351164	-0.153878	0.307881
H81	H	0.374521	-0.158274	0.169904
H82	H	0.464323	-0.245760	0.120561
H83	H	0.530765	-0.328848	0.209200
C84	C	1.075407	-0.290248	0.795838
C85	C	1.042923	-0.241443	0.844888
C86	C	1.090561	-0.200603	0.887286
C87	C	1.170683	-0.208569	0.880633
C88	C	1.203172	-0.257377	0.831580
C89	C	1.155534	-0.298216	0.789183
H90	H	0.983607	-0.235544	0.849815
H91	H	1.066510	-0.164473	0.923598
H92	H	1.205948	-0.178337	0.912019
H93	H	1.262487	-0.263275	0.826654
H94	H	1.179585	-0.334347	0.752871
C95	C	0.251773	-0.454445	0.485867
C96	C	0.289939	-0.502191	0.536803
C97	C	0.247569	-0.546730	0.584323
C98	C	0.167033	-0.543522	0.580906
C99	C	0.128863	-0.495774	0.529968
C100	C	0.171233	-0.451235	0.482449
H101	H	0.349560	-0.504567	0.539335
H102	H	0.275826	-0.582076	0.622030
H103	H	0.135669	-0.576492	0.616082
H104	H	0.069242	-0.493397	0.527436
H105	H	0.142977	-0.415889	0.444741
H106	H	0.940372	-0.406006	0.891199
H107	H	1.068692	-0.296022	0.651997
C108	C	0.900426	-0.724046	0.470956
C109	C	0.900450	-0.796361	0.470970
C110	C	0.849012	-0.832360	0.518150
C111	C	0.797551	-0.796045	0.565316
C112	C	0.797525	-0.723727	0.565303
C113	C	0.848963	-0.687728	0.518123
H114	H	0.938547	-0.823247	0.436054
H115	H	0.849031	-0.885895	0.518159
H116	H	0.759473	-0.822694	0.600241
H117	H	0.759429	-0.696841	0.600220
H118	H	0.848944	-0.634193	0.518114
H119	H	1.083625	-0.996798	0.303153
C120	C	0.915542	-0.427309	1.120452
C121	C	0.867917	-0.468164	1.078064
C122	C	0.816890	-0.511970	1.116212
C123	C	0.813488	-0.514921	1.196747
C124	C	0.861114	-0.474064	1.239139
C125	C	0.912141	-0.430258	1.200991
H126	H	0.870435	-0.465981	1.018443
H127	H	0.781635	-0.542215	1.084830
H128	H	0.775715	-0.547348	1.224986
H129	H	0.858597	-0.476247	1.298760
H130	H	0.947397	-0.400014	1.232373
C131	C	0.592520	-0.251589	0.269463
C132	C	0.605958	-0.254108	0.190182
C133	C	0.567799	-0.206352	0.139246
C134	C	0.516203	-0.156077	0.167591
C135	C	0.502763	-0.153557	0.246875
C136	C	0.540922	-0.201313	0.297812
H137	H	0.644155	-0.291326	0.169196
H138	H	0.577749	-0.208219	0.080554
H139	H	0.487956	-0.120726	0.129884
H140	H	0.464566	-0.116339	0.267861
H141	H	0.530972	-0.199446	0.356504
H142	H	0.269716	-0.290651	0.311147
C143	C	0.584488	-0.427786	0.457412
C144	C	0.594766	-0.499525	0.451963
C145	C	0.552400	-0.544068	0.499481
C146	C	0.499756	-0.516872	0.552447
C147	C	0.489476	-0.445130	0.557898
C148	C	0.531842	-0.400586	0.510381
H149	H	0.633739	-0.519660	0.412753
H150	H	0.560011	-0.597177	0.495445
H151	H	0.468394	-0.549846	0.587622
H152	H	0.450503	-0.424995	0.597109
H153	H	0.524231	-0.347478	0.514417
C154	C	0.900588	-1.124892	0.471045
C155	C	0.821137	-1.112525	0.461855
C156	C	0.769698	-1.148522	0.509036
C157	C	0.797709	-1.196885	0.565408
C158	C	0.877165	-1.209254	0.574600
C159	C	0.928604	-1.173257	0.527419
H160	H	0.800398	-1.076722	0.420123
H161	H	0.710880	-1.139365	0.502231
H162	H	0.759631	-1.223531	0.600334
H163	H	0.897904	-1.245057	0.616332
H164	H	0.987422	-1.182414	0.534225
H165	H	0.402539	-0.295952	0.316785
H166	H	1.083456	-0.595949	0.303066
H167	H	0.913743	-0.595426	0.458684
H168	H	1.083681	-1.116065	0.303189
H169	H	0.913904	-0.996275	0.458761
H170	H	1.097229	-0.271526	0.984722
H171	H	1.091573	-0.276360	1.117553
C172	C	0.922047	-0.421693	0.966713
C173	C	0.841927	-0.413727	0.973401
C174	C	0.794270	-0.454574	0.931033
C175	C	0.826733	-0.503387	0.881979
C176	C	0.906857	-0.511355	0.875289
C177	C	0.954514	-0.470508	0.917657
H178	H	0.817893	-0.377591	1.009716
H179	H	0.734957	-0.448675	0.935985
H180	H	0.791454	-0.533624	0.850616
H181	H	0.930891	-0.547491	0.838974
H182	H	1.013827	-0.476407	0.912704
C183	C	0.893528	-0.446188	0.633959
C184	C	0.813405	-0.438231	0.640616
C185	C	0.765771	-0.479073	0.598217
C186	C	0.798260	-0.527872	0.549161
C187	C	0.878387	-0.535831	0.542502
C188	C	0.926021	-0.494989	0.584902
H189	H	0.789351	-0.402105	0.676932
H190	H	0.706455	-0.473181	0.603147
H191	H	0.762998	-0.558106	0.517775
H192	H	0.902441	-0.571957	0.506187
H193	H	0.985336	-0.500881	0.579972
H194	H	0.728320	-0.421515	0.450712
H195	H	1.057092	-0.305927	0.871338
H196	H	0.395608	-0.448173	0.479164
H197	H	0.900244	-0.440409	0.777813
