data_functionalizedCrystal
_audit_creation_method	'MofGen! by Chris Wilmer'
_symmetry_space_group_name_H-M	'P1'
_symmetry_Int_Tables_number	1
_symmetry_cell_setting	triclinic
loop_
_symmetry_equiv_pos_as_xyz
  x,y,z
_cell_length_a	27.732048
_cell_length_b	14.519731
_cell_length_c	13.596369
_cell_angle_alpha	89.994584
_cell_angle_beta	89.989067
_cell_angle_gamma	83.165754
loop_
_atom_site_label
_atom_site_type_symbol
_atom_site_fract_x
_atom_site_fract_y
_atom_site_fract_z
O1	O	0.063411	1.222753	-0.081805
O2	O	0.070862	0.954149	-0.081807
O3	O	-0.003220	1.096793	-0.081787
O4	O	0.137493	1.080109	-0.081825
O5	O	-0.003224	1.096779	0.081796
O6	O	0.070858	0.954135	0.081775
O7	O	0.063407	1.222739	0.081778
Zn8	Zn	0.067132	1.088435	0.107749
Zn9	Zn	0.067137	1.088453	-0.107778
O10	O	0.137489	1.080095	0.081758
C11	C	0.070511	0.919789	-0.000016
C12	C	0.069465	0.817427	-0.000016
C13	C	0.068615	0.734297	-0.000020
C14	C	0.067553	0.630007	-0.000020
C15	C	0.066710	0.546883	-0.000020
C16	C	0.065647	0.442586	-0.000022
C17	C	-0.021231	1.096436	0.000007
C18	C	-0.074890	1.095382	0.000015
C19	C	-0.413331	1.173036	-0.000035
C20	C	-0.615010	1.169123	-0.000048
O21	O	-0.645923	1.240132	-0.000091
N22	N	-0.634541	1.084541	-0.000048
C23	C	-0.603649	1.000931	-0.000051
O24	O	-0.624890	0.928899	-0.000062
C25	C	-0.401972	1.004845	-0.000045
C26	C	-0.382444	1.089432	-0.000035
C27	C	-0.393802	1.257616	-0.000026
C28	C	-0.343386	1.258594	-0.000017
C29	C	-0.312498	1.174990	-0.000017
C30	C	-0.332027	1.090410	-0.000026
C31	C	-0.371081	0.921236	-0.000055
C32	C	-0.320659	0.922222	-0.000055
C33	C	-0.301131	1.006809	-0.000046
C34	C	-0.250723	1.007784	-0.000017
N35	N	-0.231191	1.092366	-0.000017
C36	C	-0.262079	1.175969	-0.000017
C37	C	-0.709533	0.998882	-0.000053
C38	C	-0.759953	0.997903	-0.000053
C39	C	-0.771309	1.166096	-0.000052
C40	C	-0.720889	1.167073	-0.000045
C41	C	-0.690002	1.083464	-0.000053
C42	C	-0.156200	1.178015	0.000002
C43	C	-0.105778	1.178985	0.000015
C44	C	-0.094426	1.010793	0.000009
C45	C	-0.144843	1.009823	0.000001
C46	C	-0.175729	1.093441	-0.000006
O47	O	-0.219781	0.936812	0.000014
O48	O	-0.240829	1.247991	-0.000029
C49	C	-0.463748	1.172058	-0.000043
C50	C	-0.483277	1.087478	-0.000052
C51	C	-0.452389	1.003874	-0.000052
C52	C	-0.533696	1.086499	-0.000052
C53	C	-0.564584	1.170102	-0.000052
C54	C	-0.545052	1.254685	-0.000052
C55	C	-0.494636	1.255662	-0.000043
C56	C	-0.471921	0.919292	-0.000052
C57	C	-0.522338	0.918322	-0.000060
C58	C	-0.553225	1.001925	-0.000060
C59	C	0.155500	1.080452	-0.000038
C60	C	0.209160	1.081507	-0.000053
C61	C	0.063758	1.257099	-0.000015
C62	C	0.064804	1.359462	-0.000021
N63	N	0.067128	1.088429	0.254841
N64	N	0.067137	1.088467	-0.254870
C65	C	0.067138	1.088452	0.656132
C66	C	0.067137	1.088443	0.544481
C67	C	0.067133	1.088441	0.455490
C68	C	0.067132	1.088431	0.343832
H69	H	-0.089881	1.247869	0.000026
H70	H	-0.069268	0.942726	0.000012
O71	O	-0.543394	0.827078	-0.000064
H72	H	-0.583644	0.840432	-0.000063
H73	H	-0.181342	1.246105	-0.000007
O74	O	-0.781010	0.906666	-0.000050
H75	H	-0.803711	0.902183	0.066628
O76	O	-0.473575	1.346895	-0.000052
H77	H	-0.503530	1.404857	-0.000066
H78	H	-0.796467	1.234169	-0.000051
H79	H	-0.684389	0.930793	-0.000059
H80	H	-0.327491	1.327474	-0.000013
O81	O	-0.427110	1.347801	-0.000014
H82	H	-0.450347	1.351409	-0.066688
O83	O	-0.699830	1.258308	-0.000054
H84	H	-0.712240	1.298445	0.066615
H85	H	-0.386972	0.852356	-0.000069
H86	H	-0.446776	0.851211	-0.000054
H87	H	-0.295513	0.854135	-0.000064
H88	H	-0.160744	0.940945	0.000020
O89	O	-0.578371	1.344860	-0.000052
H90	H	-0.616710	1.329959	-0.000065
