data_functionalizedCrystal
_audit_creation_method	'MofGen! by Chris Wilmer'
_symmetry_space_group_name_H-M	'P1'
_symmetry_Int_Tables_number	1
_symmetry_cell_setting	triclinic
loop_
_symmetry_equiv_pos_as_xyz
  x,y,z
_cell_length_a	16.992694
_cell_length_b	9.198806
_cell_length_c	10.723024
_cell_angle_alpha	89.997988
_cell_angle_beta	92.431954
_cell_angle_gamma	89.998351
loop_
_atom_site_label
_atom_site_type_symbol
_atom_site_fract_x
_atom_site_fract_y
_atom_site_fract_z
O1	O	1.041815	0.120704	-0.264729
O2	O	1.541815	0.620704	0.235271
O3	O	0.813514	0.120747	-0.261825
O4	O	1.313514	0.620747	0.238175
O5	O	0.932930	0.120719	-0.082154
O6	O	1.432930	0.620719	0.417846
O7	O	0.922398	0.120732	-0.444400
O8	O	1.422398	0.620732	0.055600
O9	O	0.932921	-0.121066	-0.082153
O10	O	1.432921	0.378934	0.417847
O11	O	0.813504	-0.121038	-0.261823
O12	O	1.313504	0.378962	0.238177
O13	O	1.041805	-0.121081	-0.264728
O14	O	1.541805	0.378919	0.235272
Cu15	Cu	0.927654	-0.143136	-0.263275
Cu16	Cu	1.427654	0.356864	0.236725
Cu17	Cu	0.927665	0.142803	-0.263277
Cu18	Cu	1.427665	0.642803	0.236723
O19	O	0.922389	-0.121053	-0.444398
O20	O	1.422389	0.378947	0.055602
C21	C	0.784276	-0.000140	-0.258088
C22	C	1.284276	0.499860	0.241912
C23	C	0.697172	-0.000123	-0.246940
C24	C	1.197172	0.499877	0.253060
N25	N	0.927652	-0.344250	-0.263274
N26	N	1.427652	0.155750	0.236726
C27	C	0.647510	-0.000121	-0.354500
C28	C	1.147510	0.499879	0.145500
C29	C	0.565667	-0.000141	-0.344018
C30	C	1.065667	0.499859	0.155982
C31	C	0.533488	-0.000154	-0.225975
C32	C	1.033488	0.499846	0.274025
C33	C	0.583156	-0.000161	-0.118407
C34	C	1.083156	0.499839	0.381593
C35	C	0.664998	-0.000151	-0.128890
C36	C	1.164998	0.499849	0.371110
C37	C	0.289657	-0.000194	-0.182527
C38	C	0.789657	0.499806	0.317473
C39	C	0.207809	-0.000200	-0.172052
C40	C	0.707809	0.499800	0.327948
C41	C	0.190326	-0.000183	-0.397665
C42	C	0.690326	0.499817	0.102335
C43	C	0.272169	-0.000164	-0.408137
C44	C	0.772169	0.499836	0.091863
C45	C	0.321830	-0.000179	-0.300569
C46	C	0.821830	0.499821	0.199431
N47	N	0.449832	-0.000170	-0.215258
N48	N	0.949832	0.499830	0.284742
N49	N	0.405485	-0.000173	-0.311287
N50	N	0.905485	0.499827	0.188713
C51	C	0.977791	-0.416459	-0.187484
C52	C	1.477791	0.083541	0.312516
C53	C	0.977804	-0.583871	-0.187481
C54	C	1.477804	-0.083871	0.312519
C55	C	1.071043	-0.000191	-0.268465
C56	C	1.571043	0.499809	0.231535
C57	C	1.158147	-0.000197	-0.279612
C58	C	1.658147	0.499803	0.220388
C59	C	0.932159	-0.000171	-0.035588
C60	C	1.432159	0.499829	0.464412
C61	C	0.929866	-0.000166	0.103164
C62	C	1.429866	0.499834	0.603164
N63	N	0.927674	0.343917	-0.263269
N64	N	1.427674	0.843917	0.236731
C65	C	0.923160	-0.000159	-0.490965
C66	C	1.423160	0.499841	0.009035
C67	C	0.925453	-0.000155	-0.629716
C68	C	1.425453	0.499845	-0.129716
C69	C	0.996685	-0.000176	0.172393
C70	C	1.496685	0.499824	0.672393
C71	C	0.994317	-0.000171	0.315800
C72	C	1.494317	0.499829	0.815800
H73	H	0.673704	-0.000109	-0.450624
H74	H	1.173704	0.499891	0.049376
H75	H	0.525235	-0.000137	-0.431606
H76	H	1.025235	0.499863	0.068394
H77	H	0.884731	-0.406368	-0.328154
H78	H	1.384731	0.093632	0.171846
Br79	Br	1.049361	-0.687361	-0.079335
Br80	Br	1.549361	-0.187361	0.420665
Br81	Br	0.539485	-0.000193	0.041797
Br82	Br	1.039485	0.499807	0.541797
H83	H	1.055645	-0.000196	0.125494
H84	H	1.555645	0.499804	0.625494
H85	H	0.149883	-0.000174	-0.485240
H86	H	0.649883	0.499826	0.014760
H87	H	0.884748	-0.593996	-0.328165
H88	H	1.384748	-0.093996	0.171835
Br89	Br	1.089664	-0.000203	0.414975
Br90	Br	1.589664	0.499797	0.914975
Br91	Br	0.164137	-0.000248	-0.011840
Br92	Br	0.664137	0.499752	0.488160
H93	H	0.705432	-0.000152	-0.041303
H94	H	1.205432	0.499848	0.458697
H95	H	0.868248	-0.000156	0.310784
H96	H	1.368248	0.499844	0.810784
Br97	Br	0.357044	-0.000218	-0.036540
Br98	Br	0.857044	0.499782	0.463460
Br99	Br	0.831590	-0.000126	0.181318
Br100	Br	1.331590	0.499874	0.681318
H101	H	0.298363	-0.000137	-0.504261
H102	H	0.798363	0.499863	-0.004261
H103	H	1.020706	-0.354343	-0.122594
H104	H	1.520706	0.145657	0.377406
