data_functionalizedCrystal
_audit_creation_method	'MofGen! by Chris Wilmer'
_symmetry_space_group_name_H-M	'P1'
_symmetry_Int_Tables_number	1
_symmetry_cell_setting	triclinic
loop_
_symmetry_equiv_pos_as_xyz
  x,y,z
_cell_length_a	14.971490
_cell_length_b	13.448316
_cell_length_c	14.971486
_cell_angle_alpha	90.006811
_cell_angle_beta	96.385112
_cell_angle_gamma	89.990907
loop_
_atom_site_label
_atom_site_type_symbol
_atom_site_fract_x
_atom_site_fract_y
_atom_site_fract_z
O1	O	-1.186945	0.082746	0.116581
O2	O	-0.926546	0.082736	0.130536
O3	O	-1.063725	0.082734	-0.006642
O4	O	-1.049766	0.082748	0.253758
O5	O	-1.063708	-0.082649	-0.006650
O6	O	-0.926528	-0.082647	0.130527
O7	O	-1.186928	-0.082638	0.116572
Cu8	Cu	-1.056727	-0.097743	0.123549
Cu9	Cu	-1.056747	0.097842	0.123559
O10	O	-1.049749	-0.082636	0.253750
C11	C	-0.893212	0.000043	0.129907
C12	C	-0.793915	0.000039	0.128035
N13	N	-1.056719	-0.235308	0.123541
C14	C	-0.366219	0.090209	0.119962
C15	C	-0.459519	0.090206	0.121718
C16	C	-0.506156	0.000052	0.122597
C17	C	-0.459488	-0.090105	0.121711
C18	C	-0.366190	-0.090101	0.119948
C19	C	-0.653950	-0.090106	0.125387
C20	C	-0.747254	-0.090111	0.127152
C21	C	-0.747279	0.090200	0.127157
C22	C	-0.653981	0.090204	0.125394
C23	C	-0.607320	0.000047	0.124510
C24	C	-1.117481	-0.287349	0.062824
C25	C	-1.117486	-0.391452	0.062823
C26	C	-1.056734	-0.443512	0.123545
C27	C	-0.995965	-0.391464	0.184265
C28	C	-0.995956	-0.287362	0.184261
C29	C	-0.995990	-0.608444	0.184271
C30	C	-0.996000	-0.712552	0.184277
C31	C	-1.117520	-0.712534	0.062834
C32	C	-1.117511	-0.608432	0.062830
C33	C	-1.056744	-0.556391	0.123551
C34	C	-0.220261	0.000055	0.117202
C35	C	-0.319558	0.000059	0.119078
C36	C	-1.063092	0.000043	-0.039971
C37	C	-1.061221	0.000044	-0.139268
N38	N	-1.056762	0.235406	0.123560
C39	C	-1.141810	0.000046	-0.196492
C40	C	-1.140047	0.000056	-0.289791
C41	C	-1.057694	0.000056	-0.325865
C42	C	-0.977099	0.000057	-0.268633
C43	C	-0.978863	0.000054	-0.175336
C44	C	-0.973428	0.000061	-0.463096
C45	C	-0.971663	0.000062	-0.556400
C46	C	-1.134612	0.000062	-0.577552
C47	C	-1.136376	0.000059	-0.484254
C48	C	-1.055780	0.000058	-0.427029
C49	C	-1.050382	0.000058	0.287079
C50	C	-1.052252	0.000064	0.386376
H51	H	-0.328254	0.163622	0.119252
H52	H	-1.166962	-0.433824	0.013382
O53	O	-1.216318	0.000191	-0.449106
C54	C	-1.222229	0.085856	-0.395780
H55	H	-1.151758	0.114410	-0.372619
H56	H	-1.261763	0.145836	-0.436948
C57	C	-1.357031	0.024768	-0.341651
C58	C	-1.270476	0.059833	-0.313198
H59	H	-1.386795	0.008718	-0.290713
H60	H	-1.353051	-0.032945	-0.377581
H61	H	-1.389964	0.074757	-0.375959
H62	H	-1.237541	0.009840	-0.278901
H63	H	-1.274452	0.117537	-0.277261
O64	O	-0.891745	0.000024	-0.591592
C65	C	-0.907475	0.000045	-0.686210
H66	H	-0.977248	-0.031271	-0.708040
H67	H	-0.903131	0.079388	-0.712179
C68	C	-0.750578	-0.026345	-0.698182
C69	C	-0.836272	-0.064816	-0.724995
H70	H	-0.706655	-0.066350	-0.722108
H71	H	-0.739979	-0.026356	-0.634436
H72	H	-0.746970	0.039774	-0.719825
H73	H	-0.839882	-0.130928	-0.703342
H74	H	-0.846870	-0.064818	-0.788738
O75	O	-1.218270	-0.000073	-0.345473
C76	C	-1.222124	-0.085733	-0.400074
H77	H	-1.151118	-0.114290	-0.404868
H78	H	-1.263005	-0.145714	-0.369352
C79	C	-1.354237	-0.024628	-0.488854
C80	C	-1.267026	-0.059697	-0.494748
H81	H	-1.381938	-0.008571	-0.547253
H82	H	-1.351643	0.033081	-0.452066
H83	H	-1.388293	-0.074618	-0.463249
H84	H	-1.232969	-0.009703	-0.520343
H85	H	-1.269615	-0.117397	-0.531543
O86	O	-1.176531	-0.236936	0.003752
C87	C	-1.230175	-0.305198	-0.049824
H88	H	-1.193509	-0.379415	-0.050891
H89	H	-1.296648	-0.316245	-0.020669
C90	C	-1.293542	-0.173430	-0.144978
C91	C	-1.248505	-0.264583	-0.146295
H92	H	-1.304853	-0.148376	-0.204485
H93	H	-1.257404	-0.127440	-0.108882
H94	H	-1.348931	-0.182649	-0.120679
H95	H	-1.193113	-0.255361	-0.170584
H96	H	-1.284635	-0.310571	-0.182398
H97	H	-0.946477	-0.244991	0.233702
O98	O	-0.792539	0.177808	0.128166
C99	C	-0.759687	0.232669	0.205133
H100	H	-0.727013	0.179923	0.258752
H101	H	-0.707809	0.288880	0.186615
C102	C	-0.878150	0.352702	0.175938
C103	C	-0.838025	0.287917	0.241796
H104	H	-0.926471	0.386786	0.198552
H105	H	-0.900281	0.315744	0.124082
H106	H	-0.834909	0.399535	0.160512
H107	H	-0.881263	0.241078	0.257213
H108	H	-0.815903	0.324869	0.293656
H109	H	-0.785222	-0.163522	0.127873
O110	O	-0.608755	-0.177773	0.124571
C111	C	-0.669924	-0.257347	0.125705
H112	H	-0.732761	-0.230917	0.155257
H113	H	-0.689150	-0.285078	0.054190
C114	C	-0.548708	-0.374975	0.147336
C115	C	-0.625883	-0.342515	0.183638
H116	H	-0.521542	-0.427513	0.183068
H117	H	-0.507497	-0.321366	0.146568
H118	H	-0.564741	-0.398077	0.087741
H119	H	-0.609848	-0.319403	0.243228
H120	H	-0.667091	-0.396123	0.184418
O121	O	-1.176560	-0.558013	0.003761
C122	C	-1.230211	-0.626266	-0.049819
H123	H	-1.193551	-0.700487	-0.050892
H124	H	-1.296684	-0.637310	-0.020663
C125	C	-1.293570	-0.494485	-0.144962
C126	C	-1.248540	-0.585642	-0.146287
H127	H	-1.304880	-0.469425	-0.204468
H128	H	-1.257427	-0.448501	-0.108863
H129	H	-1.348959	-0.503700	-0.120662
H130	H	-1.193148	-0.576423	-0.170577
H131	H	-1.284674	-0.631624	-0.182393
O132	O	-1.212822	0.000119	-0.633263
C133	C	-1.193610	0.000105	-0.723346
H134	H	-1.123353	0.031414	-0.726992
H135	H	-1.196965	-0.079234	-0.750339
C136	C	-1.349288	0.026519	-0.775878
C137	C	-1.263001	0.064981	-0.780358
H138	H	-1.392093	0.066533	-0.811048
H139	H	-1.362233	0.026524	-0.715188
H140	H	-1.352071	-0.039596	-0.798371
H141	H	-1.260216	0.131090	-0.757854
H142	H	-1.250057	0.064988	-0.841046
H143	H	-0.907798	0.000062	-0.416505
H144	H	-0.328199	-0.163510	0.119239
O145	O	-0.937052	-0.557933	0.243380
C146	C	-0.951672	-0.583369	0.331949
H147	H	-1.023284	-0.611968	0.332504
H148	H	-0.902129	-0.643803	0.358144
C149	C	-0.849879	-0.455758	0.391883
C150	C	-0.937836	-0.490876	0.392565
H151	H	-0.841341	-0.398707	0.429276
H152	H	-0.840026	-0.438624	0.332213
H153	H	-0.808603	-0.506128	0.413710
H154	H	-0.979110	-0.440511	0.370728
H155	H	-0.947696	-0.508000	0.452233
H156	H	-0.497468	-0.163509	0.122421
O157	O	-1.221832	0.000224	-0.161496
C158	C	-1.270979	0.085869	-0.190739
H159	H	-1.222827	0.145733	-0.210189
H160	H	-1.320755	0.066509	-0.251493
C161	C	-1.381614	0.051186	-0.090449
C162	C	-1.322472	0.124714	-0.114331
H163	H	-1.413381	0.075145	-0.043319
H164	H	-1.348505	-0.006518	-0.070749
H165	H	-1.423085	0.035059	-0.141084
H166	H	-1.280996	0.140830	-0.063700
H167	H	-1.355576	0.182421	-0.134020
H168	H	-0.497508	0.163615	0.122432
O169	O	-0.608593	0.177713	0.124421
C170	C	-0.564693	0.183109	0.045984
H171	H	-0.554061	0.104831	0.019912
H172	H	-0.607690	0.227597	-0.007538
C173	C	-0.486079	0.330788	0.099848
C174	C	-0.473014	0.234645	0.067829
H175	H	-0.429529	0.362582	0.113321
H176	H	-0.515657	0.327156	0.152691
H177	H	-0.521913	0.367849	0.055241
H178	H	-0.437191	0.197582	0.112441
H179	H	-0.443427	0.238272	0.014994
O180	O	-0.897156	0.000191	-0.303779
C181	C	-0.891261	0.085856	-0.357088
H182	H	-0.961738	0.114415	-0.380246
H183	H	-0.851741	0.145833	-0.315907
C184	C	-0.756444	0.024760	-0.411224
C185	C	-0.843006	0.059831	-0.439673
H186	H	-0.726675	0.008709	-0.462165
H187	H	-0.760413	-0.032953	-0.375307
H188	H	-0.723522	0.074747	-0.376906
H189	H	-0.875929	0.009840	-0.473981
H190	H	-0.839041	0.117535	-0.475598
H191	H	-0.946528	-0.754934	0.233722
O192	O	-0.900520	0.000183	-0.119835
C193	C	-0.850547	0.085850	-0.136174
H194	H	-0.872435	0.114405	-0.206920
H195	H	-0.862844	0.145829	-0.085127
C196	C	-0.722897	0.024762	-0.040520
C197	C	-0.749775	0.059829	-0.127415
H198	H	-0.660736	0.008714	-0.035113
H199	H	-0.756565	-0.032952	-0.029509
H200	H	-0.733152	0.074750	0.002009
H201	H	-0.739530	0.009837	-0.169942
H202	H	-0.716103	0.117534	-0.138433
H203	H	-1.166999	-0.754912	0.013392
H204	H	-0.946495	-0.433857	0.233703
