data_functionalizedCrystal
_audit_creation_method	'MofGen! by Chris Wilmer'
_symmetry_space_group_name_H-M	'P1'
_symmetry_Int_Tables_number	1
_symmetry_cell_setting	triclinic
loop_
_symmetry_equiv_pos_as_xyz
  x,y,z
_cell_length_a	6.817900
_cell_length_b	11.353959
_cell_length_c	16.255661
_cell_angle_alpha	105.295386
_cell_angle_beta	103.488922
_cell_angle_gamma	107.526623
loop_
_atom_site_label
_atom_site_type_symbol
_atom_site_fract_x
_atom_site_fract_y
_atom_site_fract_z
V1	V	-4.067278	-0.182068	-0.290700
O2	O	-4.012483	0.007662	-0.257719
O3	O	-4.058467	-0.359964	-0.315110
O4	O	-4.018322	-0.179745	-0.405441
O5	O	-4.052905	-0.173806	-0.166763
V6	V	-4.545848	-0.159318	-0.272669
O7	O	-4.339401	-0.231972	-0.330252
O8	O	-4.723923	-0.109413	-0.233118
O9	O	-4.331453	0.018579	-0.248260
O10	O	-4.718040	-0.349047	-0.305651
O11	O	-4.677618	-0.167580	-0.396607
O12	O	-4.371598	-0.161641	-0.157929
C13	C	-3.913116	-0.403317	-0.317336
C14	C	-3.987195	-0.548752	-0.338058
C15	C	-3.977973	-0.595542	-0.270984
C16	C	-4.054536	-0.745857	-0.292400
C17	C	-3.861907	-0.173427	-0.432561
C18	C	-3.903426	-0.172704	-0.526535
C19	C	-3.812059	-0.164074	-0.748082
C20	C	-3.993295	-0.275466	-0.833973
C21	C	-3.979508	-0.171350	-0.698584
C22	C	-3.872279	-0.058682	-0.780143
C23	C	-4.052983	-0.170035	-0.864774
C24	C	-4.160248	-0.282842	-0.783260
C25	C	-4.039149	-0.065959	-0.729400
C26	C	-4.220528	-0.177383	-0.815276
C27	C	-3.937176	-0.172108	-0.602847
C28	C	-4.095335	-0.169287	-0.960513
C29	C	-4.140147	0.061924	-0.246033
C30	C	-4.045307	0.207358	-0.225316
C31	C	-4.191356	-0.167963	-0.130805
C32	C	-4.129074	-0.168679	-0.036829
H33	H	-3.639084	-0.158591	-0.718794
O34	O	-3.970315	-0.381024	-0.887758
C35	C	-3.755345	-0.373677	-0.853238
H36	H	-3.642024	-0.266608	-0.809905
H37	H	-3.697994	-0.410557	-0.911905
H38	H	-3.752187	-0.437923	-0.809992
O39	O	-4.061632	0.039614	-0.675392
C40	C	-4.023708	0.036731	-0.587027
H41	H	-4.053854	-0.068876	-0.589913
H42	H	-4.139346	0.072622	-0.556695
H43	H	-3.847264	0.104114	-0.543018
O44	O	-3.900728	-0.510711	-0.183514
C45	C	-3.716153	-0.526072	-0.134426
H46	H	-3.721125	-0.628591	-0.169667
H47	H	-3.717047	-0.514669	-0.062721
H48	H	-3.561038	-0.447380	-0.131195
H49	H	-4.281594	-0.377679	-0.783768
H50	H	-4.393660	-0.183041	-0.844456
O51	O	-4.131546	-0.830991	-0.379777
C52	C	-4.190884	-0.962121	-0.381710
H53	H	-4.098339	-0.962007	-0.313511
H54	H	-4.147972	-1.022718	-0.437591
H55	H	-4.374318	-1.007674	-0.395591
O56	O	-3.727233	0.054313	-0.779588
C57	C	-3.512699	0.060863	-0.745293
H58	H	-3.509821	-0.002636	-0.701505
H59	H	-3.398182	0.167924	-0.702557
H60	H	-3.456616	0.022600	-0.804082
O61	O	-3.968499	-0.707571	-0.137928
C62	C	-4.100087	-0.633768	-0.126867
H63	H	-4.186495	-0.632036	-0.195357
H64	H	-3.993107	-0.528167	-0.078148
H65	H	-4.227059	-0.681421	-0.098151
O66	O	-4.064546	-0.633851	-0.425455
C67	C	-4.281896	-0.720345	-0.446409
H68	H	-4.311803	-0.726302	-0.381216
H69	H	-4.310415	-0.823095	-0.492900
H70	H	-4.399223	-0.681583	-0.482056
