data_functionalizedCrystal
_audit_creation_method	'MofGen! by Chris Wilmer'
_symmetry_space_group_name_H-M	'P1'
_symmetry_Int_Tables_number	1
_symmetry_cell_setting	triclinic
loop_
_symmetry_equiv_pos_as_xyz
  x,y,z
_cell_length_a	16.625547
_cell_length_b	14.909229
_cell_length_c	14.908308
_cell_angle_alpha	96.748174
_cell_angle_beta	86.726217
_cell_angle_gamma	93.261674
loop_
_atom_site_label
_atom_site_type_symbol
_atom_site_fract_x
_atom_site_fract_y
_atom_site_fract_z
Zn1	Zn	1.225219	0.389848	0.532733
Zn2	Zn	1.725219	0.889848	1.032733
Zn3	Zn	1.239814	0.532481	0.390125
Zn4	Zn	1.739814	1.032481	0.890125
Zn5	Zn	1.097746	0.381151	0.381378
Zn6	Zn	1.597746	0.881151	0.881378
Zn7	Zn	1.097679	0.541152	0.541423
Zn8	Zn	1.597679	1.041152	1.041423
O9	O	1.165114	0.461158	0.461415
O10	O	1.665114	0.961158	0.961415
O11	O	1.339987	0.408780	0.513840
O12	O	1.839987	0.908780	1.013840
O13	O	1.227104	0.505138	0.262304
O14	O	1.727104	1.005138	0.762304
O15	O	1.108576	0.255651	0.394158
O16	O	1.608576	0.755651	0.894158
O17	O	1.350709	0.513572	0.409067
O18	O	1.850709	1.013572	0.909067
O19	O	1.202230	0.262041	0.505358
O20	O	1.702230	0.762041	1.005358
O21	O	1.122728	0.393956	0.255877
O22	O	1.622728	0.893956	0.755877
O23	O	0.984905	0.402364	0.402585
O24	O	1.484905	0.902364	0.902585
O25	O	1.108461	0.528350	0.666931
O26	O	1.608461	1.028350	1.166931
O27	O	0.984856	0.519916	0.520169
O28	O	1.484856	1.019916	1.020169
O29	O	1.202165	0.417188	0.660547
O30	O	1.702165	0.917188	1.160547
O31	O	1.227039	0.660285	0.417493
O32	O	1.727039	1.160285	0.917493
O33	O	1.122613	0.666655	0.528651
O34	O	1.622613	1.166655	1.028651
C35	C	0.955625	0.461138	0.461371
C36	C	1.455625	0.961138	0.961371
C37	C	0.866004	0.461152	0.461375
C38	C	1.366004	0.961152	0.961375
C39	C	0.793221	0.461155	0.461386
C40	C	1.293221	0.961155	0.961386
C41	C	0.701912	0.461161	0.461409
C42	C	1.201912	0.961161	0.961409
C43	C	0.629135	0.461171	0.461433
C44	C	1.129135	0.961171	0.961433
C45	C	0.537820	0.461178	0.461455
C46	C	1.037820	0.961178	0.961455
C47	C	1.176423	0.696311	0.474984
C48	C	1.676423	1.196311	0.974984
C49	C	1.181334	0.796912	0.480819
C50	C	1.681334	1.296912	0.980819
C51	C	1.093138	0.979445	0.375886
C52	C	1.593138	1.479445	0.875886
C53	C	1.097749	1.073969	0.381365
C54	C	1.597749	1.573969	0.881365
C55	C	1.195171	1.080484	0.497253
C56	C	1.695171	1.580484	0.997253
C57	C	1.190560	0.985960	0.491773
C58	C	1.690560	1.485960	0.991773
C59	C	1.139541	0.935444	0.431089
C60	C	1.639541	1.435444	0.931089
C61	C	1.134926	0.840919	0.425614
C62	C	1.634926	1.340919	0.925614
C63	C	1.232351	0.847436	0.541497
C64	C	1.732351	1.347436	1.041497
C65	C	1.236962	0.941959	0.546976
C66	C	1.736962	1.441959	1.046976
C67	C	1.375422	0.461179	0.461459
C68	C	1.875422	0.961179	0.961459
C69	C	1.465043	0.461188	0.461478
C70	C	1.965043	0.961188	0.961478
C71	C	1.153677	0.474707	0.697499
C72	C	1.653677	0.974707	1.197499
C73	C	1.148804	0.480480	0.798104
C74	C	1.648804	0.980480	1.298104
C75	C	1.153735	1.225089	0.447821
C76	C	1.653735	1.725089	0.947821
C77	C	1.148763	1.124491	0.442048
C78	C	1.648763	1.624491	0.942048
C79	C	1.176550	0.447597	0.226245
C80	C	1.676550	0.947597	0.726245
C81	C	1.181568	0.441568	0.125626
C82	C	1.681568	0.941568	0.625626
C83	C	1.237215	0.375555	0.980504
C84	C	1.737215	0.875555	1.480504
C85	C	1.232638	0.380977	1.075031
C86	C	1.732638	0.880977	1.575031
C87	C	1.135069	0.496740	1.081687
C88	C	1.635069	0.996740	1.581687
C89	C	1.139646	0.491318	0.987160
C90	C	1.639646	0.991318	1.487160
C91	C	1.190722	0.430725	0.936572
C92	C	1.690722	0.930725	1.436572
C93	C	1.195302	0.425308	0.842043
C94	C	1.695302	0.925308	1.342043
C95	C	1.097729	0.541066	0.848701
C96	C	1.597729	1.041066	1.348701
C97	C	1.093152	0.546488	0.943228
C98	C	1.593152	1.046488	1.443228
H99	H	1.093381	0.799790	0.376204
H100	H	1.593381	1.299790	0.876204
H101	H	1.270496	0.336050	1.110797
H102	H	1.770496	0.836050	1.610797
H103	H	1.236892	0.375971	0.800855
H104	H	1.736892	0.875971	1.300855
O105	O	1.043424	0.605249	0.992326
O106	O	1.543424	1.105249	1.492326
C107	C	0.963233	0.584162	0.968055
C108	C	1.463233	1.084162	1.468055
H109	H	0.956941	0.510367	0.937900
H110	H	1.456941	1.010367	1.437900
H111	H	0.947150	0.629540	0.915978
H112	H	1.447150	1.129540	1.415978
C113	C	0.913587	0.690150	1.089658
C114	C	1.413587	1.190150	1.589658
C115	C	0.905859	0.599512	1.052629
C116	C	1.405859	1.099512	1.552629
H117	H	0.878195	0.699622	1.141826
H118	H	1.378195	1.199622	1.641826
H119	H	0.967614	0.704360	1.106009
H120	H	1.467614	1.204360	1.606009
H121	H	0.900186	0.727955	1.046253
H122	H	1.400186	1.227955	1.546253
H123	H	0.919269	0.561710	1.096030
H124	H	1.419269	1.061710	1.596030
H125	H	0.851833	0.585296	1.036288
H126	H	1.351833	1.085296	1.536288
H127	H	1.278807	0.326222	0.939314
H128	H	1.778807	0.826222	1.439314
O129	O	1.043686	0.930269	0.316894
O130	O	1.543686	1.430269	0.816894
C131	C	1.089794	0.872234	0.255297
C132	C	1.589794	1.372234	0.755297
H133	H	1.148633	0.859840	0.286460
H134	H	1.648633	1.359840	0.786460
H135	H	1.103726	0.904829	0.190343
H136	H	1.603726	1.404829	0.690343
C137	C	0.969592	0.796773	0.195385
C138	C	1.469592	1.296773	0.695385
C139	C	1.041856	0.781545	0.233662
C140	C	1.541856	1.281545	0.733662
H141	H	0.940021	0.740833	0.182035
H142	H	1.440021	1.240833	0.682035
H143	H	0.938527	0.835874	0.236881
H144	H	1.438527	1.335874	0.736881
H145	H	0.981212	0.823938	0.141261
H146	H	1.481212	1.323938	0.641261
H147	H	1.030234	0.754391	0.287791
H148	H	1.530234	1.254391	0.787791
H149	H	1.072917	0.742437	0.192175
H150	H	1.572917	1.242437	0.692175
H151	H	1.093485	0.546072	1.122893
H152	H	1.593485	1.046072	1.622893
H153	H	1.278503	0.983102	0.596382
H154	H	1.778503	1.483102	1.096382
H155	H	1.270133	0.811600	0.586449
H156	H	1.770133	1.311600	1.086449
H157	H	1.059873	0.585992	0.812921
H158	H	1.559873	1.085992	1.312921
H159	H	1.236714	1.121630	0.546653
H160	H	1.736714	1.621630	1.046653
O161	O	1.052590	1.116570	0.327707
O162	O	1.552590	1.616570	0.827707
C163	C	1.006590	1.051709	0.272956
C164	C	1.506590	1.551709	0.772956
H165	H	0.998687	0.986446	0.306119
H166	H	1.498687	1.486446	0.806119
H167	H	1.039009	1.037711	0.203666
H168	H	1.539009	1.537711	0.703666
C169	C	0.932932	1.168084	0.221220
C170	C	1.432932	1.668084	0.721220
C171	C	0.923219	1.087929	0.261956
C172	C	1.423219	1.587929	0.761956
H173	H	0.881506	1.190427	0.214430
H174	H	1.381506	1.690427	0.714430
H175	H	0.963925	1.211783	0.258104
H176	H	1.463925	1.711783	0.758104
H177	H	0.959950	1.156408	0.163482
H178	H	1.459950	1.656408	0.663482
H179	H	0.896211	1.099608	0.319697
H180	H	1.396211	1.599608	0.819697
H181	H	0.892220	1.044233	0.225081
H182	H	1.392220	1.544233	0.725081
