data_functionalizedCrystal
_audit_creation_method	'MofGen! by Chris Wilmer'
_symmetry_space_group_name_H-M	'P1'
_symmetry_Int_Tables_number	1
_symmetry_cell_setting	triclinic
loop_
_symmetry_equiv_pos_as_xyz
  x,y,z
_cell_length_a	8.597340
_cell_length_b	14.044220
_cell_length_c	7.681481
_cell_angle_alpha	83.732834
_cell_angle_beta	103.474906
_cell_angle_gamma	89.223217
loop_
_atom_site_label
_atom_site_type_symbol
_atom_site_fract_x
_atom_site_fract_y
_atom_site_fract_z
O1	O	2.118483	0.131085	0.174978
O2	O	1.656570	0.146188	0.104893
O3	O	1.880595	0.000651	0.138901
O4	O	1.894458	0.276622	0.140969
O5	O	1.908163	-0.017303	0.435943
O6	O	1.684138	0.128234	0.401935
O7	O	2.146051	0.113131	0.472020
Zn8	Zn	1.919472	0.117832	0.484140
Zn9	Zn	1.883150	0.141487	0.092773
O10	O	1.922026	0.258668	0.438012
C11	C	1.610882	0.136589	0.244391
C12	C	1.433673	0.134725	0.217504
C13	C	1.888309	-0.043640	0.286502
C14	C	1.870204	-0.148866	0.283757
C15	C	1.837101	-0.341524	0.278709
C16	C	1.965512	-0.399161	0.298187
C17	C	1.947093	-0.506363	0.295378
C18	C	1.855517	-0.234312	0.281517
C19	C	2.191739	0.122730	0.332518
C20	C	2.368947	0.124595	0.359393
C21	C	1.914312	0.302959	0.290407
C22	C	1.932416	0.408185	0.293140
N23	N	1.944272	0.101688	0.751239
N24	N	1.858361	0.157624	-0.174324
H25	H	1.353507	0.141973	0.075440
O26	O	2.060460	0.026063	0.868493
H27	H	2.183161	0.040230	0.851807
H28	H	1.770662	0.214717	0.737166
O29	O	1.475107	0.114996	0.547572
H30	H	1.602303	0.118022	0.539879
O31	O	2.129469	-0.357892	0.323096
H32	H	2.118402	-0.278947	0.321446
H33	H	1.713342	-0.372689	0.259927
