data_functionalizedCrystal
_audit_creation_method	'MofGen! by Chris Wilmer'
_symmetry_space_group_name_H-M	'P1'
_symmetry_Int_Tables_number	1
_symmetry_cell_setting	triclinic
loop_
_symmetry_equiv_pos_as_xyz
  x,y,z
_cell_length_a	19.077105
_cell_length_b	16.120484
_cell_length_c	19.077174
_cell_angle_alpha	95.281307
_cell_angle_beta	85.483752
_cell_angle_gamma	90.738523
loop_
_atom_site_label
_atom_site_type_symbol
_atom_site_fract_x
_atom_site_fract_y
_atom_site_fract_z
Zn1	Zn	1.077028	-0.405078	-0.458497
Zn2	Zn	1.577028	0.094922	0.041503
Zn3	Zn	1.066713	-0.538658	-0.346101
Zn4	Zn	1.566713	-0.038658	0.153899
Zn5	Zn	0.954893	-0.393424	-0.335415
Zn6	Zn	1.454893	0.106576	0.164585
Zn7	Zn	0.953609	-0.538603	-0.459216
Zn8	Zn	1.453609	-0.038603	0.040784
O9	O	1.013061	-0.468941	-0.399807
O10	O	1.513061	0.031059	0.100193
O11	O	1.174108	-0.427698	-0.447758
O12	O	1.674108	0.072302	0.052242
O13	O	1.048100	-0.514538	-0.245834
O14	O	1.548100	-0.014538	0.254166
O15	O	0.975948	-0.278308	-0.346969
O16	O	1.475948	0.221692	0.153031
O17	O	1.166530	-0.525838	-0.365181
O18	O	1.666530	-0.025838	0.134819
O19	O	1.065680	-0.286870	-0.437397
O20	O	1.565680	0.213130	0.062603
O21	O	0.965946	-0.407835	-0.237983
O22	O	1.465946	0.092165	0.262017
O23	O	0.856274	-0.407782	-0.347667
O24	O	1.356274	0.092218	0.152333
O25	O	0.973761	-0.525745	-0.557970
O26	O	1.473761	-0.025745	-0.057970
O27	O	0.855331	-0.514445	-0.438623
O28	O	1.355331	-0.014445	0.061377
O29	O	1.064436	-0.427645	-0.557441
O30	O	1.564436	0.072355	-0.057441
O31	O	1.046856	-0.655312	-0.365879
O32	O	1.546856	-0.155312	0.134121
O33	O	0.963759	-0.655272	-0.448984
O34	O	1.463759	-0.155272	0.051016
C35	C	0.830276	-0.459844	-0.392064
C36	C	1.330276	0.040156	0.107936
C37	C	0.752080	-0.455973	-0.388769
C38	C	1.252080	0.044027	0.111231
C39	C	0.714864	-0.509765	-0.434509
C40	C	1.214864	-0.009765	0.065491
C41	C	0.641391	-0.506117	-0.431416
C42	C	1.141391	-0.006117	0.068584
C43	C	0.605135	-0.448680	-0.382579
C44	C	1.105135	0.051320	0.117421
C45	C	0.642355	-0.394883	-0.336836
C46	C	1.142355	0.105117	0.163164
C47	C	0.715827	-0.398527	-0.339933
C48	C	1.215827	0.101473	0.160067
C49	C	0.385448	-0.431813	-0.368249
C50	C	0.885448	0.068187	0.131751
C51	C	0.311971	-0.428174	-0.365154
C52	C	0.811971	0.071826	0.134846
C53	C	0.311012	-0.539408	-0.459734
C54	C	0.811012	-0.039408	0.040266
C55	C	0.384485	-0.543051	-0.462824
C56	C	0.884485	-0.043051	0.037176
C57	C	0.421700	-0.489250	-0.417085
C58	C	0.921700	0.010750	0.082915
N59	N	0.530033	-0.444952	-0.379414
N60	N	1.030033	0.055048	0.120586
N61	N	0.496800	-0.492975	-0.420253
N62	N	0.996800	0.007025	0.079747
C63	C	1.004068	-0.685543	-0.408685
C64	C	1.504068	-0.185543	0.091315
C65	C	1.000287	-0.778211	-0.412510
C66	C	1.500287	-0.278211	0.087490
C67	C	0.993387	-0.947877	-0.419507
C68	C	1.493387	-0.447877	0.080493
C69	C	1.032861	-0.989171	-0.380125
C70	C	1.532861	-0.489171	0.119875
C71	C	1.029022	-1.083579	-0.384018
C72	C	1.529022	-0.583579	0.115982
C73	C	0.997225	-0.853460	-0.415614
C74	C	1.497225	-0.353460	0.084386
C75	C	1.196559	-0.478074	-0.407581
C76	C	1.696559	0.021926	0.092419
C77	C	1.274755	-0.481966	-0.410894
C78	C	1.774755	0.018034	0.089106
C79	C	1.020106	-0.477989	-0.584053
C80	C	1.520106	0.022011	-0.084053
C81	C	1.023108	-0.481845	-0.662568
C82	C	1.523108	0.018155	-0.162568
C83	C	1.022108	-0.251494	-0.390911
C84	C	1.522108	0.248506	0.109089
C85	C	1.025963	-0.158832	-0.387120
C86	C	1.525963	0.341168	0.112880
C87	C	0.981747	-0.428103	-0.695366
C88	C	1.481747	0.071897	-0.195366
C89	C	0.984565	-0.431733	-0.769139
C90	C	1.484565	0.068267	-0.269139
C91	C	1.028748	-0.489101	-0.810112
C92	C	1.528748	0.010899	-0.310112
C93	C	1.070110	-0.542848	-0.777309
C94	C	1.570110	-0.042848	-0.277309
C95	C	1.067288	-0.539222	-0.703537
C96	C	1.567288	-0.039222	-0.203537
C97	C	1.041771	-0.505907	-1.031184
C98	C	1.541771	-0.005907	-0.531184
C99	C	1.044591	-0.509528	-1.104961
C100	C	1.544591	-0.009528	-0.604961
C101	C	0.959044	-0.398413	-1.096786
C102	C	1.459044	0.101587	-0.596786
C103	C	0.956230	-0.394788	-1.023013
C104	C	1.456230	0.105212	-0.523013
C105	C	0.997589	-0.448538	-0.990216
C106	C	1.497589	0.051462	-0.490216
N107	N	1.031631	-0.492811	-0.885520
N108	N	1.531631	0.007189	-0.385520
N109	N	0.994702	-0.444832	-0.914810
N110	N	1.494702	0.055168	-0.414810
C111	C	1.006086	-0.459870	-0.216277
C112	C	1.506086	0.040130	0.283723
C113	C	1.003230	-0.455786	-0.137759
C114	C	1.503230	0.044214	0.362241
H115	H	0.611094	-0.549920	-0.468662
H116	H	1.111094	-0.049920	0.031338
C117	C	1.082390	-0.941150	-0.330606
C118	C	1.582390	-0.441150	0.169394
H119	H	1.078493	-0.883076	-0.334439
H120	H	1.578493	-0.383076	0.165561
H121	H	1.129489	-0.958160	-0.343535
H122	H	1.629489	-0.458160	0.156465
H123	H	1.069724	-0.952578	-0.283281
H124	H	1.569724	-0.452578	0.216719
C125	C	0.943837	-0.995891	-0.468999
C126	C	1.443837	-0.495891	0.031001
H127	H	0.919575	-0.957570	-0.493201
H128	H	1.419575	-0.457570	0.006799
H129	H	0.910819	-1.027060	-0.442027
H130	H	1.410819	-0.527060	0.057973
H131	H	0.970553	-1.032664	-0.502313
H132	H	1.470553	-0.532664	-0.002313
C133	C	0.602478	-0.331701	-0.283117
C134	C	1.102478	0.168299	0.216883
H135	H	0.635168	-0.300181	-0.256324
H136	H	1.135168	0.199819	0.243676
H137	H	0.571311	-0.360597	-0.252390
H138	H	1.071311	0.139403	0.247610
H139	H	0.576364	-0.295332	-0.307499
H140	H	1.076364	0.204668	0.192501
H141	H	0.746127	-0.354720	-0.302690
H142	H	1.246127	0.145280	0.197310
C143	C	0.424364	-0.606259	-0.516519
C144	C	0.924364	-0.106259	-0.016519
H145	H	0.473450	-0.600739	-0.511799
H146	H	0.973450	-0.100739	-0.011799
H147	H	0.414666	-0.595916	-0.563006
H148	H	0.914666	-0.095916	-0.063006
H149	H	0.409583	-0.661134	-0.507857
H150	H	0.909583	-0.161134	-0.007857
H151	H	0.945773	-0.381383	-0.662010
H152	H	1.445773	0.118617	-0.162010
H153	H	0.950882	-0.387973	-0.795840
H154	H	1.450882	0.112027	-0.295840
C155	C	0.754743	-0.572949	-0.488225
C156	C	1.254743	-0.072949	0.011775
H157	H	0.803831	-0.567424	-0.483515
H158	H	1.303831	-0.067424	0.016485
H159	H	0.745032	-0.562575	-0.534701
H160	H	1.245032	-0.062575	-0.034701
H161	H	0.739975	-0.627836	-0.479588
H162	H	1.239975	-0.127836	0.020412
H163	H	0.920249	-0.348075	-0.989657
H164	H	1.420249	0.151925	-0.489657
H165	H	1.106081	-0.589563	-0.810675
H166	H	1.606081	-0.089563	-0.310675
C167	C	1.087276	-0.565018	-0.995117
C168	C	1.587276	-0.065018	-0.495117
H169	H	1.114000	-0.599693	-1.030086
H170	H	1.614000	-0.099693	-0.530086
H171	H	1.057759	-0.598593	-0.966682
H172	H	1.557759	-0.098593	-0.466682
H173	H	1.118157	-0.533229	-0.966336
H174	H	1.618157	-0.033229	-0.466336
H175	H	1.100974	-0.582978	-0.676834
H176	H	1.600974	-0.082978	-0.176834
H177	H	0.280704	-0.583208	-0.496974
H178	H	0.780704	-0.083208	0.003026
C179	C	0.913544	-0.339302	-1.132864
C180	C	1.413544	0.160698	-0.632864
H181	H	0.921546	-0.349682	-1.182668
H182	H	1.421546	0.150318	-0.682668
H183	H	0.925703	-0.283205	-1.118921
H184	H	1.425703	0.216795	-0.618921
H185	H	0.865304	-0.348568	-1.119269
H186	H	1.365304	0.151432	-0.619269
C187	C	0.272090	-0.364986	-0.311435
C188	C	0.772090	0.135014	0.188565
H189	H	0.304776	-0.333461	-0.284642
H190	H	0.804776	0.166539	0.215358
H191	H	0.240923	-0.393883	-0.280707
H192	H	0.740923	0.106117	0.219293
H193	H	0.245974	-0.328623	-0.335821
H194	H	0.745974	0.171377	0.164179
H195	H	1.080573	-0.556245	-1.138320
H196	H	1.580573	-0.056245	-0.638320
H197	H	0.415739	-0.388011	-0.330999
H198	H	0.915739	0.111989	0.169001
