data_functionalizedCrystal
_audit_creation_method	'MofGen! by Chris Wilmer'
_symmetry_space_group_name_H-M	'P1'
_symmetry_Int_Tables_number	1
_symmetry_cell_setting	triclinic
loop_
_symmetry_equiv_pos_as_xyz
  x,y,z
_cell_length_a	16.704494
_cell_length_b	16.704379
_cell_length_c	20.016444
_cell_angle_alpha	57.657605
_cell_angle_beta	90.001999
_cell_angle_gamma	54.473503
loop_
_atom_site_label
_atom_site_type_symbol
_atom_site_fract_x
_atom_site_fract_y
_atom_site_fract_z
Zr1	Zr	0.748791	0.864465	-0.107975
O2	O	0.598510	1.061766	-0.233047
O3	O	0.804564	0.677663	-0.061563
O4	O	0.790561	0.859834	-0.212582
O5	O	0.612521	0.879587	0.027918
O6	O	0.931016	0.844239	-0.205618
O7	O	0.612513	0.879594	-0.082028
O8	O	0.956064	0.518368	0.064527
O9	O	0.587473	1.205458	-0.242228
O10	O	0.921447	0.738971	-0.046322
O11	O	0.816633	0.750603	0.030532
O12	O	0.800146	0.965087	-0.147273
O13	O	0.695332	0.976719	-0.070418
Zr14	Zr	0.972813	0.839581	0.078482
Zr15	Zr	0.972801	0.839593	-0.096869
Zr16	Zr	0.748804	0.864453	0.067376
Zr17	Zr	0.731187	1.093638	-0.122616
Zr18	Zr	0.990417	0.610408	0.093124
O19	O	0.917041	1.026383	0.032070
O20	O	0.917023	1.026401	-0.217256
O21	O	0.598528	1.061748	0.016279
O22	O	1.123094	0.642280	0.203555
O23	O	1.123076	0.642298	-0.045772
O24	O	0.804582	0.677645	0.187764
O25	O	1.109083	0.824459	-0.057410
O26	O	0.931044	0.844212	0.183089
O27	O	0.790589	0.859807	0.176126
O28	O	1.109091	0.824452	0.052536
O29	O	0.765530	1.185688	-0.233400
O30	O	0.956074	0.518358	0.203908
O31	O	1.134132	0.498588	0.212735
O32	O	1.134122	0.498598	0.073355
O33	O	0.587483	1.205448	-0.102847
O34	O	0.765540	1.185678	-0.094019
O35	O	0.921458	0.738959	0.117780
O36	O	1.026272	0.727327	0.040926
O37	O	0.904972	0.953443	-0.060025
O38	O	0.800158	0.965075	0.016830
C39	C	0.882822	0.565363	0.003568
C40	C	0.890295	0.468073	0.009784
C41	C	0.580601	0.883134	-0.028638
C42	C	0.485503	0.893693	-0.033352
C43	C	0.984258	0.243207	0.087997
C44	C	0.977261	0.334600	0.082166
C45	C	0.810323	0.510153	-0.056773
C46	C	0.817320	0.418760	-0.050941
C47	C	0.904290	0.285287	0.021447
C48	C	0.911282	0.193893	0.027280
C49	C	0.744349	0.369446	-0.111661
C50	C	0.737352	0.460839	-0.117492
C51	C	0.433451	0.677448	0.063202
C52	C	0.344102	0.687363	0.058774
C53	C	0.217453	0.923437	-0.046629
C54	C	0.306803	0.913522	-0.042202
C55	C	0.414801	0.790523	0.012715
C56	C	0.504152	0.780610	0.017136
C57	C	0.377502	1.016682	-0.088262
C58	C	0.288152	1.026597	-0.092689
C59	C	1.141004	0.820912	-0.000855
C60	C	1.236102	0.810353	0.003860
C61	C	0.860786	0.852038	-0.234084
C62	C	0.860781	0.852044	-0.308525
C63	C	0.838783	1.138683	-0.033061
C64	C	0.831309	1.235973	-0.039276
C65	C	0.797483	0.970058	-0.532474
C66	C	0.797492	0.970051	-0.602415
C67	C	0.924129	0.733979	-0.497009
C68	C	0.924126	0.733986	-0.427070
C69	C	0.860796	0.852030	-0.444807
C70	C	0.860808	0.852017	-0.584686
C71	C	0.860818	0.852009	-0.660518
C72	C	0.860787	0.852037	-0.368970
C73	C	0.860818	0.852008	0.204591
C74	C	0.860824	0.852003	0.279032
C75	C	1.163024	0.534252	0.017460
C76	C	1.265595	0.426403	0.028390
C77	C	0.882838	0.565348	0.222906
C78	C	0.890317	0.468053	0.303563
C79	C	1.163039	0.534237	0.236797
C80	C	1.265616	0.426383	0.322169
C81	C	0.558565	1.169810	-0.266290
C82	C	0.455988	1.277663	-0.351661
C83	C	0.558581	1.169794	-0.046952
C84	C	0.456010	1.277643	-0.057883
C85	C	0.838767	1.138698	-0.252398
C86	C	0.831288	1.235993	-0.333055
C87	C	1.259045	0.381835	-0.012027
C88	C	1.355412	0.280513	-0.001774
C89	C	1.458328	0.223756	0.048901
C90	C	1.464875	0.268334	0.089319
C91	C	1.368509	0.369660	0.079060
C92	C	0.948547	0.416284	0.386990
C93	C	0.955569	0.324878	0.462781
C94	C	0.904367	0.285236	0.455144
C95	C	0.846129	0.337015	0.371708
C96	C	0.839101	0.428426	0.295918
C97	C	1.368508	0.369660	0.322143
C98	C	1.464897	0.268332	0.402352
C99	C	1.458392	0.223722	0.482585
C100	C	1.355489	0.280454	0.482608
C101	C	1.259102	0.381787	0.402400
C102	C	0.353095	1.334397	-0.351636
C103	C	0.256704	1.435754	-0.431847
C104	C	0.263209	1.480369	-0.512081
C105	C	0.366113	1.423630	-0.512103
C106	C	0.462501	1.322282	-0.431894
C107	C	0.462558	1.322221	-0.017474
C108	C	0.366190	1.423568	-0.027747
C109	C	0.263273	1.480328	-0.078425
C110	C	0.256727	1.435746	-0.118839
C111	C	0.353094	1.334407	-0.108570
C112	C	0.882503	1.275605	-0.325389
C113	C	0.875497	1.367010	-0.401166
C114	C	0.817270	1.418808	-0.484609
C115	C	0.766054	1.379187	-0.492273
C116	C	0.773066	1.287777	-0.416496
H117	H	0.982094	0.085216	0.086224
H118	H	0.666546	0.569522	-0.176429
H119	H	1.042380	0.300327	0.136358
H120	H	0.371542	1.459849	0.005168
H121	H	0.546279	1.276090	-0.431924
N122	N	0.911953	0.186640	0.536893
H123	H	0.956617	0.159863	0.590901
H124	H	0.948895	0.107390	0.543244
H125	H	1.548677	0.222150	0.402318
H126	H	0.521387	0.577298	0.107922
H127	H	0.745937	1.066161	-0.673796
H128	H	0.718645	1.421375	-0.560222
H129	H	0.129510	1.023575	-0.091327
H130	H	0.184814	1.562844	-0.086779
H131	H	0.975689	0.637867	-0.355681
N132	N	0.145722	1.496954	-0.173479
H133	H	0.099148	1.593109	-0.224399
H134	H	0.107555	1.485319	-0.135050
H135	H	1.175327	0.427959	0.402433
N136	N	0.658083	0.414842	-0.183442
H137	H	0.675707	0.336694	-0.168765
H138	H	0.657616	0.465011	-0.242082
N139	N	0.145733	1.496911	-0.431798
H140	H	0.107437	1.485399	-0.459855
H141	H	0.099246	1.593036	-0.466697
H142	H	0.359296	0.595286	0.099887
N143	N	0.346023	1.286331	-0.152157
H144	H	0.266201	1.337671	-0.185815
H145	H	0.387753	1.190716	-0.105249
N146	N	0.171670	1.159253	-0.151910
H147	H	0.117896	1.148378	-0.147053
H148	H	0.159632	1.209063	-0.215342
H149	H	0.739523	0.618836	-0.115712
H150	H	0.347779	1.298078	-0.286314
H151	H	0.745916	1.066176	-0.546921
N152	N	0.159246	1.589666	-0.598590
H153	H	0.153362	1.665538	-0.637109
H154	H	0.093140	1.618718	-0.586319
H155	H	0.546349	1.276014	0.023798
N156	N	0.620635	0.647955	0.076358
H157	H	0.618887	0.577828	0.107671
H158	H	0.660468	0.638700	0.121682
N159	N	1.375544	0.417773	0.235614
H160	H	1.298876	0.490576	0.184798
H161	H	1.420427	0.343573	0.235553
N162	N	1.348333	0.232432	-0.045358
H163	H	1.424992	0.159634	-0.031178
H164	H	1.303437	0.306647	-0.111672
N165	N	0.790914	0.294245	0.363478
H166	H	0.804216	0.228474	0.424155
H167	H	0.822562	0.253183	0.336402
N168	N	1.018400	0.269021	0.552769
H169	H	0.967009	0.290504	0.580201
H170	H	1.049776	0.308017	0.546033
N171	N	0.373111	1.471758	-0.598647
H172	H	0.417927	1.397641	-0.598797
H173	H	0.409637	1.505327	-0.605630
N174	N	1.003766	0.459039	0.395242
H175	H	0.990486	0.524804	0.334575
H176	H	1.085648	0.380728	0.434432
N177	N	0.357379	1.138652	-0.142727
H178	H	0.430368	1.113712	-0.131593
H179	H	0.314111	1.191936	-0.125326
N180	N	0.992431	0.606666	-0.477881
H181	H	0.982825	0.624569	-0.535490
H182	H	0.967456	0.560968	-0.445252
N183	N	0.776225	0.484329	0.205929
H184	H	0.744839	0.445361	0.212598
H185	H	0.827628	0.462888	0.178500
N186	N	1.562358	0.114427	0.569092
H187	H	1.628523	0.085267	0.556893
H188	H	1.568139	0.038634	0.607568
N189	N	1.348481	0.232331	0.569149
H190	H	1.425161	0.159527	0.619950
H191	H	1.311890	0.198844	0.576094
N192	N	1.078059	0.099248	0.166065
H193	H	1.070358	0.047737	0.159659
H194	H	1.076074	0.081028	0.222664
N195	N	0.945308	1.219750	-0.235397
H196	H	0.976687	1.258721	-0.242052
H197	H	1.007362	1.121876	-0.195922
H198	H	0.811567	1.493239	-0.546305
N199	N	1.575880	0.207112	0.143973
H200	H	1.635925	0.136158	0.144336
H201	H	1.587079	0.168315	0.206703
H202	H	0.917203	1.399259	-0.394910
N203	N	0.717821	1.245060	-0.424770
H204	H	0.679872	1.291752	-0.489132
H205	H	0.661584	1.267086	-0.401369
H206	H	1.175254	0.428045	-0.053301
H207	H	1.536787	0.141249	0.057248
N208	N	1.375581	0.417721	0.122660
H209	H	1.455403	0.366381	0.156318
H210	H	1.342129	0.405647	0.165023
