data_functionalizedCrystal
_audit_creation_method	'MofGen! by Chris Wilmer'
_symmetry_space_group_name_H-M	'P1'
_symmetry_Int_Tables_number	1
_symmetry_cell_setting	triclinic
loop_
_symmetry_equiv_pos_as_xyz
  x,y,z
_cell_length_a	17.699083
_cell_length_b	10.868271
_cell_length_c	17.699083
_cell_angle_alpha	90.005832
_cell_angle_beta	96.716985
_cell_angle_gamma	90.001072
loop_
_atom_site_label
_atom_site_type_symbol
_atom_site_fract_x
_atom_site_fract_y
_atom_site_fract_z
O1	O	1.004076	-0.102152	-0.095711
O2	O	0.783698	-0.102193	-0.108164
O3	O	0.900113	-0.102161	0.008252
O4	O	0.887661	-0.102185	-0.212127
O5	O	0.900102	0.102484	0.008255
O6	O	0.783687	0.102452	-0.108160
O7	O	1.004065	0.102492	-0.095707
Zn8	Zn	0.893874	0.134964	-0.101933
Zn9	Zn	0.893889	-0.134664	-0.101938
O10	O	0.887650	0.102460	-0.212123
C11	C	0.755495	0.000124	-0.107716
C12	C	0.671477	0.000109	-0.106377
N13	N	0.893870	0.318978	-0.101929
C14	C	0.622856	0.000102	-0.174710
C15	C	0.543913	0.000118	-0.173448
C16	C	0.513592	0.000133	-0.103852
C17	C	0.562219	0.000143	-0.035513
C18	C	0.641161	0.000136	-0.036776
C19	C	0.243856	0.000174	-0.030418
C20	C	0.164908	0.000178	-0.029160
C21	C	0.146608	0.000156	-0.167090
C22	C	0.225550	0.000149	-0.168353
C23	C	0.274170	0.000166	-0.100015
C24	C	0.359769	0.000151	-0.101384
C25	C	0.427995	0.000139	-0.102481
C26	C	0.893880	0.569984	-0.101939
C27	C	0.893872	0.430306	-0.101936
C28	C	1.032268	0.000173	-0.096156
C29	C	1.116286	0.000180	-0.097494
C30	C	0.899662	0.000162	0.036451
C31	C	0.898323	0.000162	0.120469
N32	N	0.893892	0.681322	-0.101939
C33	C	0.888102	0.000135	-0.240322
C34	C	0.889440	0.000127	-0.324340
C35	C	0.966656	0.000176	0.169090
C36	C	0.965394	0.000165	0.248033
C37	C	0.895798	0.000149	0.278354
C38	C	0.827459	0.000131	0.229727
C39	C	0.828722	0.000133	0.150785
C40	C	0.822364	0.000120	0.548090
C41	C	0.821106	0.000121	0.627038
C42	C	0.959036	0.000152	0.645338
C43	C	0.960299	0.000154	0.566396
C44	C	0.891961	0.000130	0.517776
C45	C	0.893330	0.000140	0.432177
C46	C	0.894427	0.000148	0.363951
H47	H	0.647537	0.000090	-0.231384
H48	H	0.250232	0.000132	-0.225025
H49	H	0.764429	0.000110	0.651721
H50	H	1.014680	0.000166	0.684934
H51	H	0.766718	0.000100	0.508512
H52	H	0.107012	0.000149	-0.222734
H53	H	0.283434	0.000189	0.025228
H54	H	1.016971	0.000174	0.541714
H55	H	1.023330	0.000198	0.144409
H56	H	1.021038	0.000180	0.287618
H57	H	0.140225	0.000191	0.027517
H58	H	0.770792	0.000109	0.254420
H59	H	0.537526	0.000173	0.021154
H60	H	0.680748	0.000141	0.018868
H61	H	0.773078	0.000121	0.111198
H62	H	0.504328	0.000111	-0.229092
