data_functionalizedCrystal
_audit_creation_method	'MofGen! by Chris Wilmer'
_symmetry_space_group_name_H-M	'P1'
_symmetry_Int_Tables_number	1
_symmetry_cell_setting	triclinic
loop_
_symmetry_equiv_pos_as_xyz
  x,y,z
_cell_length_a	18.050590
_cell_length_b	18.050589
_cell_length_c	14.908308
_cell_angle_alpha	86.730698
_cell_angle_beta	86.705717
_cell_angle_gamma	90.017386
loop_
_atom_site_label
_atom_site_type_symbol
_atom_site_fract_x
_atom_site_fract_y
_atom_site_fract_z
Zn1	Zn	1.111098	-0.320072	0.509744
Zn2	Zn	1.444431	0.013262	0.843077
Zn3	Zn	1.777764	0.346595	1.176410
Zn4	Zn	1.118169	-0.437108	0.358894
Zn5	Zn	1.451502	-0.103775	0.692227
Zn6	Zn	1.784835	0.229559	1.025560
Zn7	Zn	0.994075	-0.312915	0.358941
Zn8	Zn	1.327408	0.020418	0.692274
Zn9	Zn	1.660741	0.353751	1.025607
Zn10	Zn	0.986865	-0.444201	0.509746
Zn11	Zn	1.320198	-0.110868	0.843079
Zn12	Zn	1.653532	0.222466	1.176413
O13	O	1.052552	-0.378574	0.434331
O14	O	1.385885	-0.045241	0.767664
O15	O	1.719218	0.288093	1.100998
O16	O	1.215961	-0.335623	0.489712
O17	O	1.549295	-0.002290	0.823046
O18	O	1.882628	0.331043	1.156379
O19	O	1.107684	-0.414670	0.232656
O20	O	1.441017	-0.081337	0.565990
O21	O	1.774350	0.251996	0.899323
O22	O	1.009656	-0.209941	0.378964
O23	O	1.342990	0.123392	0.712297
O24	O	1.676323	0.456726	1.045630
O25	O	1.221156	-0.421610	0.378884
O26	O	1.554489	-0.088276	0.712217
O27	O	1.887823	0.245057	1.045550
O28	O	1.095633	-0.215199	0.489758
O29	O	1.428966	0.118135	0.823091
O30	O	1.762299	0.451468	1.156425
O31	O	1.016513	-0.323426	0.232691
O32	O	1.349846	0.009907	0.566024
O33	O	1.683179	0.343240	0.899357
O34	O	0.889193	-0.330304	0.378966
O35	O	1.222526	0.003029	0.712299
O36	O	1.555860	0.336363	1.045633
O37	O	0.997368	-0.433698	0.635989
O38	O	1.330702	-0.100365	0.969323
O39	O	1.664035	0.232968	1.302656
O40	O	0.883896	-0.426759	0.489762
O41	O	1.217229	-0.093426	0.823095
O42	O	1.550562	0.239908	1.156429
O43	O	1.088642	-0.342501	0.635988
O44	O	1.421975	-0.009168	0.969321
O45	O	1.755308	0.324165	1.302654
O46	O	1.100693	-0.541973	0.378886
O47	O	1.434026	-0.208639	0.712219
O48	O	1.767359	0.124694	1.045553
O49	O	1.004224	-0.547184	0.489716
O50	O	1.337558	-0.213851	0.823050
O51	O	1.670891	0.119483	1.156383
C52	C	0.859598	-0.378525	0.434370
C53	C	1.192931	-0.045192	0.767703
C54	C	1.526264	0.288142	1.101036
C55	C	0.777050	-0.378523	0.434408
C56	C	1.110383	-0.045190	0.767741
C57	C	1.443717	0.288144	1.101075
C58	C	0.574747	-0.431111	0.494516
C59	C	0.908080	-0.097777	0.827849
C60	C	1.241414	0.235556	1.161182
C61	C	0.524301	-0.364447	0.516709
C62	C	0.857634	-0.031114	0.850043
C63	C	1.190967	0.302219	1.183376
C64	C	0.625922	-0.378563	0.434364
C65	C	0.959255	-0.045229	0.767697
C66	C	1.292588	0.288104	1.101030
C67	C	0.529287	-0.445265	0.412169
C68	C	0.862620	-0.111931	0.745503
C69	C	1.195953	0.221402	1.078836
C70	C	0.479939	-0.378607	0.434323
C71	C	0.813272	-0.045273	0.767656
C72	C	1.146605	0.288060	1.100990
C73	C	0.576560	-0.311865	0.456601
C74	C	0.909894	0.021468	0.789934
C75	C	1.243227	0.354802	1.123267
C76	C	0.581553	-0.392726	0.352022
C77	C	0.914886	-0.059393	0.685355
C78	C	1.248219	0.273940	1.018689
C79	C	0.531130	-0.326015	0.374185
C80	C	0.864463	0.007319	0.707518
C81	C	1.197796	0.340652	1.040851
C82	C	0.710019	-0.378538	0.434390
C83	C	1.043352	-0.045205	0.767723
C84	C	1.376685	0.288128	1.101056
C85	C	0.395843	-0.378623	0.434297
C86	C	0.729177	-0.045290	0.767630
C87	C	1.062510	0.288043	1.100964
C88	C	1.052463	-0.571525	0.434316
C89	C	1.385796	-0.238192	0.767649
C90	C	1.719129	0.095141	1.100983
C91	C	1.052491	-0.654072	0.434340
C92	C	1.385824	-0.320739	0.767673
C93	C	1.719158	0.012594	1.101006
C94	C	1.000081	-0.856383	0.494588
C95	C	1.333415	-0.523049	0.827922
C96	C	1.666748	-0.189716	1.161255
C97	C	0.985891	-0.901913	0.412273
C98	C	1.319224	-0.568580	0.745606
C99	C	1.652557	-0.235247	1.078940
C100	C	1.052563	-0.805203	0.434352
C101	C	1.385897	-0.471870	0.767685
C102	C	1.719230	-0.138537	1.101018
C103	C	1.066790	-0.906755	0.516676
C104	C	1.400124	-0.573421	0.850009
C105	C	1.733457	-0.240088	1.183343
C106	C	1.052632	-0.951189	0.434370
C107	C	1.385965	-0.617856	0.767703
C108	C	1.719298	-0.284523	1.101037
C109	C	1.038339	-0.849645	0.351993
C110	C	1.371672	-0.516311	0.685326
C111	C	1.705006	-0.182978	1.018659
C112	C	1.119268	-0.854484	0.456451
C113	C	1.452601	-0.521151	0.789785
C114	C	1.785934	-0.187818	1.123118
C115	C	1.105105	-0.899990	0.374079
C116	C	1.438439	-0.566657	0.707413
C117	C	1.771772	-0.233323	1.040746
C118	C	1.052522	-0.721105	0.434342
C119	C	1.385856	-0.387771	0.767675
C120	C	1.719189	-0.054438	1.101009
C121	C	1.052673	-1.035286	0.434370
C122	C	1.386007	-0.701952	0.767704
C123	C	1.719340	-0.368619	1.101037
C124	C	1.246259	-0.378624	0.434292
C125	C	1.579592	-0.045290	0.767626
C126	C	1.912926	0.288043	1.100959
C127	C	1.328805	-0.378645	0.434276
C128	C	1.662139	-0.045311	0.767609
C129	C	1.995472	0.288022	1.100943
C130	C	1.041412	-0.389689	0.669637
C131	C	1.374745	-0.056356	1.002971
C132	C	1.708079	0.276977	1.336304
C133	C	1.036665	-0.394426	0.769911
C134	C	1.369998	-0.061093	1.103244
C135	C	1.703332	0.272241	1.436577
C136	C	1.052660	-0.184870	0.434366
C137	C	1.385993	0.148463	0.767699
C138	C	1.719327	0.481797	1.101032
C139	C	1.052706	-0.102325	0.434381
C140	C	1.386040	0.231008	0.767714
C141	C	1.719373	0.564342	1.101047
C142	C	1.063690	-0.367448	0.199940
C143	C	1.397024	-0.034115	0.533273
C144	C	1.730357	0.299218	0.866607
C145	C	1.068581	-0.362503	0.099667
C146	C	1.401915	-0.029169	0.433000
C147	C	1.735248	0.304164	0.766334
C148	C	1.122786	-0.308346	0.958335
C149	C	1.456119	0.024988	1.291669
C150	C	1.789452	0.358321	1.625002
C151	C	1.118328	-0.312794	1.052551
C152	C	1.451661	0.020540	1.385885
C153	C	1.784994	0.353873	1.719218
C154	C	1.023288	-0.407766	1.052560
C155	C	1.356621	-0.074432	1.385894
C156	C	1.689955	0.258901	1.719227
C157	C	1.027746	-0.403318	0.958344
C158	C	1.361079	-0.069984	1.291678
C159	C	1.694413	0.263349	1.625011
C160	C	1.077497	-0.353607	0.911235
C161	C	1.410831	-0.020273	1.244569
C162	C	1.744164	0.313060	1.577902
C163	C	1.081958	-0.349163	0.817018
C164	C	1.415292	-0.015830	1.150351
C165	C	1.748625	0.317504	1.483684
C166	C	0.986915	-0.444131	0.817028
C167	C	1.320249	-0.110797	1.150362
C168	C	1.653582	0.222536	1.483695
C169	C	0.982457	-0.448579	0.911244
C170	C	1.315791	-0.115245	1.244578
C171	C	1.649124	0.218088	1.577911
H172	H	0.499282	-0.352481	0.586327
H173	H	0.832615	-0.019147	0.919660
H174	H	1.165949	0.314186	1.252993
Br175	Br	0.606822	-0.505063	0.579388
Br176	Br	0.940156	-0.171730	0.912721
Br177	Br	1.273489	0.161603	1.246054
H178	H	1.078797	-0.931712	0.586290
H179	H	1.412130	-0.598378	0.919623
H180	H	1.745463	-0.265045	1.252956
Br181	Br	0.499279	-0.251903	0.289369
Br182	Br	0.832612	0.081430	0.622702
Br183	Br	1.165946	0.414763	0.956035
H184	H	0.597267	-0.255461	0.475434
H185	H	0.930601	0.077872	0.808767
H186	H	1.263934	0.411205	1.142101
Br187	Br	0.494612	-0.539251	0.380908
Br188	Br	0.827945	-0.205918	0.714242
Br189	Br	1.161279	0.127416	1.047575
Br190	Br	1.190313	-0.240894	0.894397
Br191	Br	1.523647	0.092439	1.227730
Br192	Br	1.856980	0.425772	1.561064
H193	H	1.149520	-0.919092	0.323088
H194	H	1.482853	-0.585758	0.656422
H195	H	1.816186	-0.252425	0.989755
H196	H	0.950040	-0.480988	0.778669
H197	H	1.283373	-0.147654	1.112003
H198	H	1.616707	0.185679	1.445336
Br199	Br	1.179790	-0.251362	1.116471
Br200	Br	1.513124	0.081971	1.449804
Br201	Br	1.846457	0.415304	1.783138
H202	H	0.955641	-0.837138	0.545456
H203	H	1.288974	-0.503805	0.878790
H204	H	1.622307	-0.170471	1.212123
Br205	Br	0.914939	-0.516037	0.975186
Br206	Br	1.248272	-0.182704	1.308519
Br207	Br	1.581606	0.150629	1.641853
H208	H	1.026267	-0.824776	0.282360
H209	H	1.359601	-0.491443	0.615694
H210	H	1.692934	-0.158110	0.949027
H211	H	0.606587	-0.404714	0.282425
H212	H	0.939920	-0.071381	0.615758
H213	H	1.273253	0.261952	0.949092
Br214	Br	0.955767	-0.475217	1.116509
Br215	Br	1.289100	-0.141884	1.449843
Br216	Br	1.622433	0.191450	1.783176
Br217	Br	0.891921	-0.936690	0.381117
Br218	Br	1.225254	-0.603357	0.714451
Br219	Br	1.558587	-0.270024	1.047784
Br220	Br	1.213212	-0.819679	0.487642
Br221	Br	1.546545	-0.486345	0.820975
Br222	Br	1.879878	-0.153012	1.154309
Br223	Br	1.149480	-0.281703	0.753084
Br224	Br	1.482814	0.051630	1.086417
Br225	Br	1.816147	0.384963	1.419750
