data_functionalizedCrystal
_audit_creation_method	'MofGen! by Chris Wilmer'
_symmetry_space_group_name_H-M	'P1'
_symmetry_Int_Tables_number	1
_symmetry_cell_setting	triclinic
loop_
_symmetry_equiv_pos_as_xyz
  x,y,z
_cell_length_a	12.759401
_cell_length_b	12.759400
_cell_length_c	12.759393
_cell_angle_alpha	89.969553
_cell_angle_beta	89.981433
_cell_angle_gamma	90.012209
loop_
_atom_site_label
_atom_site_type_symbol
_atom_site_fract_x
_atom_site_fract_y
_atom_site_fract_z
Zn1	Zn	1.606267	-0.418231	-0.593991
Zn2	Zn	1.606166	-0.593950	-0.418315
Zn3	Zn	1.430569	-0.418283	-0.418331
Zn4	Zn	1.430562	-0.593866	-0.593956
O5	O	1.518391	-0.506082	-0.506148
O6	O	1.753274	-0.441554	-0.570696
O7	O	1.582833	-0.570704	-0.271296
O8	O	1.453920	-0.271255	-0.441654
O9	O	1.753200	-0.570654	-0.441627
O10	O	1.583005	-0.271217	-0.570711
O11	O	1.453822	-0.441642	-0.271307
O12	O	1.283547	-0.441560	-0.441620
O13	O	1.453909	-0.570511	-0.740982
O14	O	1.283542	-0.570561	-0.570651
O15	O	1.582998	-0.441473	-0.741008
O16	O	1.582826	-0.740960	-0.441593
O17	O	1.453811	-0.740898	-0.570636
C18	C	1.245423	-0.506058	-0.506134
C19	C	1.128647	-0.506072	-0.506152
C20	C	1.518336	-0.779050	-0.506132
C21	C	1.518408	-0.895826	-0.506160
C22	C	1.073816	-0.438977	-0.573463
C23	C	0.964092	-0.438997	-0.573469
C24	C	0.964039	-0.573217	-0.438853
C25	C	1.073761	-0.573191	-0.438841
C26	C	1.128702	-0.371858	-0.640774
C27	C	1.073872	-0.304758	-0.708090
C28	C	0.964148	-0.304778	-0.708097
C29	C	0.909254	-0.371899	-0.640787
C30	C	1.585589	-0.950589	-0.573415
C31	C	1.585638	-1.060313	-0.573441
C32	C	1.451322	-1.060502	-0.438947
C33	C	1.451269	-0.950780	-0.438927
C34	C	1.652728	-0.895635	-0.640647
C35	C	1.719915	-0.950398	-0.707907
C36	C	1.719964	-1.060122	-0.707933
C37	C	1.652826	-1.115083	-0.640699
C38	C	1.792424	-0.506108	-0.506164
C39	C	1.909201	-0.506119	-0.506170
C40	C	1.518464	-0.505976	-0.780182
C41	C	1.518496	-0.505931	-0.896959
C42	C	1.518475	-0.232049	-0.506188
C43	C	1.518510	-0.115272	-0.506205
C44	C	1.585722	-0.438735	-0.951836
C45	C	1.585747	-0.438697	-1.061560
C46	C	1.451316	-0.573061	-1.061520
C47	C	1.451287	-0.573093	-0.951798
C48	C	1.663337	-0.361164	-0.951860
C49	C	1.663362	-0.361126	-1.061584
C50	C	1.518378	-0.506112	-0.233181
C51	C	1.518550	-0.505861	-0.116405
H52	H	1.218045	-0.371834	-0.640776
H53	H	1.740610	-0.390334	-0.917824
H54	H	1.774662	-1.104707	-0.762707
H55	H	1.641566	-0.279799	-0.922102
O56	O	1.785011	-0.897059	-0.773369
C57	C	1.762022	-0.923827	-0.878066
H58	H	1.678101	-0.954043	-0.883303
H59	H	1.818364	-0.987456	-0.905592
C60	C	1.877235	-0.789184	-0.941740
C61	C	1.774159	-0.826288	-0.948174
H62	H	1.884726	-0.729020	-0.984988
H63	H	1.892727	-0.771152	-0.871204
H64	H	1.924175	-0.842218	-0.964677
H65	H	1.727222	-0.773259	-0.925224
H66	H	1.758659	-0.844309	-1.018707
O67	O	1.386063	-1.114004	-0.373780
C68	C	1.318188	-1.177459	-0.433549
H69	H	1.355208	-1.193812	-0.513204
H70	H	1.240302	-1.135222	-0.445017
C71	C	1.253784	-1.261653	-0.277912
C72	C	1.299256	-1.281746	-0.375743
H73	H	1.242100	-1.325981	-0.242254
H74	H	1.299509	-1.218900	-0.237644
H75	H	1.188883	-1.226453	-0.287483
H76	H	1.364160	-1.316934	-0.366171
H77	H	1.253541	-1.324508	-0.416008
O78	O	1.385974	-0.897739	-0.373502
C79	C	1.326711	-0.969768	-0.314180
H80	H	1.369784	-1.047954	-0.310579
H81	H	1.246909	-0.981471	-0.352598
C82	C	1.258687	-0.830996	-0.206771
C83	C	1.311595	-0.927023	-0.202341
H84	H	1.249358	-0.804628	-0.137785
H85	H	1.298610	-0.782468	-0.246740
H86	H	1.192191	-0.840762	-0.238791
H87	H	1.378094	-0.917254	-0.170334
H88	H	1.271683	-0.975549	-0.162364
O89	O	1.385934	-0.638450	-0.898652
C90	C	1.326601	-0.697695	-0.970586
H91	H	1.369659	-0.701333	-1.048798
H92	H	1.246836	-0.659186	-0.982270
C93	C	1.258489	-0.805047	-0.831669
C94	C	1.311378	-0.809523	-0.927727
H95	H	1.249093	-0.874026	-0.805231
H96	H	1.298459	-0.765131	-0.783204
H97	H	1.192024	-0.772952	-0.841418
H98	H	1.377846	-0.841605	-0.917974
H99	H	1.271418	-0.849447	-0.976189
H100	H	1.396595	-0.627739	-1.106183
H101	H	1.634247	-0.283816	-1.095630
H102	H	1.652698	-0.806292	-0.640632
O103	O	1.127353	-0.239658	-0.773435
C104	C	1.235955	-0.254007	-0.758980
H105	H	1.250926	-0.335042	-0.724431
H106	H	1.267071	-0.191616	-0.703137
C107	C	1.273939	-0.144965	-0.907730
C108	C	1.292328	-0.244498	-0.865304
H109	H	1.308715	-0.139095	-0.973313
H110	H	1.200772	-0.135294	-0.917466
H111	H	1.299870	-0.092984	-0.861184
H112	H	1.266385	-0.296476	-0.911843
H113	H	1.365492	-0.254178	-0.855577
O114	O	0.910932	-0.239711	-0.773631
C115	C	0.937807	-0.262780	-0.878298
H116	H	0.967969	-0.346713	-0.883451
H117	H	1.001510	-0.206475	-0.905855
C118	C	0.803323	-0.147571	-0.942120
C119	C	0.840360	-0.250662	-0.948449
H120	H	0.743215	-0.140092	-0.985394
H121	H	0.785218	-0.132025	-0.871604
H122	H	0.856417	-0.100662	-0.965081
H123	H	0.787271	-0.297568	-0.925475
H124	H	0.858453	-0.266216	-1.018963
O125	O	0.910671	-0.638532	-0.373630
C126	C	0.847213	-0.706456	-0.433340
H127	H	0.880319	-0.713032	-0.516070
H128	H	0.764058	-0.673996	-0.437025
C129	C	0.804846	-0.807539	-0.280218
C130	C	0.845511	-0.815623	-0.381827
H131	H	0.803791	-0.874878	-0.248441
H132	H	0.847595	-0.761776	-0.239988
H133	H	0.735553	-0.780485	-0.283303
H134	H	0.914806	-0.842664	-0.378739
H135	H	0.802773	-0.861394	-0.422054
O136	O	1.760398	-0.387313	-1.097075
C137	C	1.787175	-0.487964	-1.060127
H138	H	1.712706	-0.533342	-1.040610
H139	H	1.837479	-0.480349	-0.986697
C140	C	1.940533	-0.491164	-1.169297
C141	C	1.849068	-0.546902	-1.145333
H142	H	1.978716	-0.527519	-1.221853
H143	H	1.922496	-0.423352	-1.194187
H144	H	1.982440	-0.484822	-1.108097
H145	H	1.807157	-0.553231	-1.206528
H146	H	1.867100	-0.614717	-1.120455
H147	H	0.819909	-0.371887	-0.640775
H148	H	1.652859	-1.204428	-0.640737
H149	H	1.118405	-0.627826	-0.384032
