data_functionalizedCrystal
_audit_creation_method	'MofGen! by Chris Wilmer'
_symmetry_space_group_name_H-M	'P1'
_symmetry_Int_Tables_number	1
_symmetry_cell_setting	triclinic
loop_
_symmetry_equiv_pos_as_xyz
  x,y,z
_cell_length_a	19.188930
_cell_length_b	23.532407
_cell_length_c	22.610064
_cell_angle_alpha	90.006598
_cell_angle_beta	89.984572
_cell_angle_gamma	82.996728
loop_
_atom_site_label
_atom_site_type_symbol
_atom_site_fract_x
_atom_site_fract_y
_atom_site_fract_z
O1	O	0.925917	0.071088	-0.049381
O2	O	0.722575	0.080659	-0.049341
O3	O	0.830378	-0.007045	-0.049351
O4	O	0.818114	0.158792	-0.049370
O5	O	0.830371	-0.007022	0.049018
O6	O	0.722568	0.080683	0.049028
O7	O	0.925910	0.071111	0.048989
Zn8	Zn	0.824238	0.075901	0.064627
Zn9	Zn	0.824247	0.075870	-0.064979
O10	O	0.818107	0.158816	0.048999
C11	C	0.696561	0.080361	-0.000151
C12	C	0.619060	0.079431	-0.000135
C13	C	0.573972	0.130893	-0.000151
C14	C	0.501151	0.130019	-0.000157
C15	C	0.473421	0.077679	-0.000160
C16	C	0.518519	0.026211	-0.000141
C17	C	0.591339	0.027086	-0.000129
N18	N	0.365571	0.037665	-0.033659
N19	N	0.296395	0.036836	-0.033672
C20	C	0.254021	0.075038	-0.000196
N21	N	0.283435	0.114108	0.033286
N22	N	0.352617	0.114938	0.033296
C23	C	0.394462	0.076724	-0.000173
C24	C	0.129971	0.125556	-0.000217
C25	C	0.057149	0.124680	-0.000220
C26	C	0.074519	0.020870	-0.000210
C27	C	0.147340	0.021748	-0.000202
C28	C	0.175061	0.074092	-0.000208
C29	C	0.830062	-0.028250	-0.000165
C30	C	0.829123	-0.091469	-0.000160
C31	C	0.887029	-0.490449	-0.000204
C32	C	0.886157	-0.549851	-0.000208
O33	O	0.939837	-0.586482	-0.000241
N34	N	0.822068	-0.572613	-0.000195
C35	C	0.758848	-0.535970	-0.000184
O36	O	0.704255	-0.560786	-0.000174
C37	C	0.759721	-0.476569	-0.000184
C38	C	0.823814	-0.453810	-0.000191
C39	C	0.951117	-0.467690	-0.000212
C40	C	0.951989	-0.408292	-0.000206
C41	C	0.888773	-0.371653	-0.000193
C42	C	0.824685	-0.394412	-0.000185
C43	C	0.696501	-0.439927	-0.000177
C44	C	0.697379	-0.380523	-0.000177
C45	C	0.761472	-0.357764	-0.000184
C46	C	0.762342	-0.298376	-0.000167
N47	N	0.826430	-0.275614	-0.000180
C48	C	0.889646	-0.312252	-0.000193
C49	C	0.757019	-0.660717	-0.000185
C50	C	0.756146	-0.720116	-0.000181
C51	C	0.883455	-0.733993	-0.000206
C52	C	0.884328	-0.674592	-0.000206
C53	C	0.821108	-0.637954	-0.000198
C54	C	0.891472	-0.187512	-0.000181
C55	C	0.892339	-0.128108	-0.000173
C56	C	0.765029	-0.114236	-0.000151
C57	C	0.764163	-0.173635	-0.000156
C58	C	0.827390	-0.210272	-0.000173
O59	O	0.708690	-0.261711	-0.000137
O60	O	0.944230	-0.287428	-0.000211
C61	C	0.951923	0.071410	-0.000203
C62	C	1.029425	0.072340	-0.000222
C63	C	0.818423	0.180021	-0.000189
C64	C	0.819362	0.243240	-0.000197
N65	N	0.824236	0.075922	0.153079
C66	C	0.776486	0.114713	0.437932
C67	C	0.776484	0.114718	0.376012
O68	O	0.735864	0.147722	0.343997
N69	N	0.824232	0.075901	0.345031
C70	C	0.871980	0.037073	0.375974
O71	O	0.912592	0.004056	0.343937
C72	C	0.871978	0.037065	0.437893
C73	C	0.824232	0.075889	0.468870
C74	C	0.728744	0.153533	0.468909
C75	C	0.728747	0.153529	0.530825
C76	C	0.776493	0.114705	0.561763
C77	C	0.824235	0.075885	0.530786
C78	C	0.919722	-0.001765	0.468834
C79	C	0.919715	-0.001769	0.530757
C80	C	0.871970	0.037054	0.561735
C81	C	0.871984	0.037056	0.623640
N82	N	0.824236	0.075873	0.654620
C83	C	0.776491	0.114698	0.623682
C84	C	0.871979	0.037090	0.245941
C85	C	0.871985	0.037099	0.184023
C86	C	0.776488	0.114744	0.184065
C87	C	0.776486	0.114737	0.245984
C88	C	0.824232	0.075907	0.276921
C89	C	0.776501	0.114686	0.753709
C90	C	0.776511	0.114680	0.815630
C91	C	0.872004	0.037033	0.815583
C92	C	0.871998	0.037041	0.753667
C93	C	0.824240	0.075870	0.722732
O94	O	0.912582	0.004067	0.655694
O95	O	0.735879	0.147704	0.655726
N96	N	0.824256	0.075856	0.846569
H97	H	0.020438	0.166588	-0.000229
H98	H	0.958600	-0.033379	0.443621
H99	H	0.711973	-0.192165	-0.000134
F100	F	0.195328	-0.033026	-0.000189
F101	F	0.159477	0.181265	-0.000220
F102	F	0.689727	-0.621728	-0.000171
H103	H	0.051943	-0.021745	-0.000250
H104	H	0.958595	-0.033391	0.555944
H105	H	0.644310	-0.458446	-0.000175
F106	F	0.677922	0.194858	0.435991
H107	H	0.645897	-0.350694	-0.000172
H108	H	0.944533	-0.109581	-0.000177
F109	F	0.725692	0.156004	0.848596
H110	H	0.737612	0.146303	0.728529
H111	H	0.910883	0.005433	0.728445
H112	H	0.713561	-0.084394	-0.000138
H113	H	0.942958	-0.217335	-0.000197
F114	F	0.677927	0.194847	0.563787
H115	H	0.464433	0.171926	-0.000168
F116	F	0.725669	0.156057	0.278946
H117	H	1.004180	-0.389768	-0.000214
F118	F	1.018406	-0.506676	-0.000226
F119	F	0.725672	0.156063	0.151126
H120	H	0.936518	-0.656067	-0.000213
F121	F	0.950735	-0.772998	-0.000223
H122	H	0.495937	-0.016404	-0.000152
F123	F	0.922811	-0.004215	0.151061
H124	H	0.910864	0.005471	0.271127
F125	F	0.603470	0.186603	-0.000156
H126	H	0.628050	-0.014822	-0.000117
F127	F	0.687930	-0.744331	-0.000163
H128	H	0.910880	0.005425	0.840782
