data_functionalizedCrystal
_audit_creation_method	'MofGen! by Chris Wilmer'
_symmetry_space_group_name_H-M	'P1'
_symmetry_Int_Tables_number	1
_symmetry_cell_setting	triclinic
loop_
_symmetry_equiv_pos_as_xyz
  x,y,z
_cell_length_a	19.188930
_cell_length_b	17.699083
_cell_length_c	16.176319
_cell_angle_alpha	89.992304
_cell_angle_beta	89.978701
_cell_angle_gamma	83.213897
loop_
_atom_site_label
_atom_site_type_symbol
_atom_site_fract_x
_atom_site_fract_y
_atom_site_fract_z
O1	O	0.926253	0.094493	-0.069014
O2	O	0.722956	0.107214	-0.068957
O3	O	0.830349	-0.009343	-0.068980
O4	O	0.818861	0.211050	-0.068991
O5	O	0.830334	-0.009351	0.068513
O6	O	0.722942	0.107206	0.068536
O7	O	0.926239	0.094486	0.068479
Cu8	Cu	0.824589	0.100845	0.081062
Cu9	Cu	0.824606	0.100854	-0.081540
O10	O	0.818847	0.211043	0.068502
C11	C	0.829930	-0.037543	-0.000233
C12	C	0.828695	-0.121560	-0.000233
C13	C	0.696938	0.106798	-0.000204
C14	C	0.619432	0.105561	-0.000182
C15	C	0.891732	-0.170264	-0.000249
C16	C	0.890567	-0.249206	-0.000256
C17	C	0.826365	-0.279442	-0.000241
C18	C	0.763323	-0.230732	-0.000227
C19	C	0.764489	-0.151791	-0.000226
C20	C	0.758623	-0.549089	-0.000232
C21	C	0.757463	-0.628035	-0.000231
C22	C	0.884702	-0.646503	-0.000262
C23	C	0.885867	-0.567563	-0.000261
C24	C	0.822826	-0.518859	-0.000252
C25	C	0.824089	-0.433262	-0.000246
C26	C	0.825101	-0.365038	-0.000241
C27	C	0.574584	0.173953	-0.000198
C28	C	0.501759	0.172791	-0.000207
C29	C	0.473785	0.103234	-0.000216
C30	C	0.518642	0.034833	-0.000195
C31	C	0.591465	0.035997	-0.000178
N32	N	0.365750	0.050069	-0.047042
N33	N	0.296570	0.048968	-0.047060
C34	C	0.254372	0.099724	-0.000267
N35	N	0.283966	0.151634	0.046535
N36	N	0.353152	0.152737	0.046550
C37	C	0.394821	0.101965	-0.000235
C38	C	0.130559	0.166861	-0.000292
C39	C	0.057733	0.165696	-0.000296
C40	C	0.074617	0.027736	-0.000292
C41	C	0.147442	0.028903	-0.000280
C42	C	0.175408	0.098467	-0.000284
C43	C	0.952258	0.094902	-0.000276
C44	C	1.029763	0.096138	-0.000304
C45	C	0.819266	0.239243	-0.000247
C46	C	0.820500	0.323259	-0.000253
N47	N	0.824582	0.100839	0.195427
N48	N	0.824619	0.100855	-0.195905
C49	C	0.872149	0.049248	0.238681
C50	C	0.872153	0.049248	0.325228
C51	C	0.824592	0.100841	0.368520
C52	C	0.777019	0.152434	0.325259
C53	C	0.777013	0.152431	0.238714
C54	C	0.777043	0.152448	0.674288
C55	C	0.777054	0.152449	0.760839
C56	C	0.872183	0.049265	0.760802
C57	C	0.872177	0.049262	0.674256
C58	C	0.824602	0.100852	0.631004
C59	C	0.824598	0.100851	0.537160
C60	C	0.824599	0.100846	0.462362
H61	H	0.944012	-0.145652	-0.000256
Cl62	Cl	0.679371	-0.487872	-0.000222
H63	H	0.936033	-0.686167	-0.000274
H64	H	0.153330	0.223504	-0.000283
Cl65	Cl	0.039456	-0.059709	-0.000294
H66	H	0.705179	-0.652650	-0.000217
H67	H	0.738307	0.194456	0.639078
Cl68	Cl	0.969818	-0.310431	-0.000274
H69	H	0.738278	0.194440	0.203497
Cl70	Cl	0.717257	0.217314	0.815262
H71	H	0.910885	0.007238	0.360445
H72	H	0.938147	-0.542949	-0.000270
H73	H	0.738290	0.194440	0.360512
H74	H	0.711049	-0.255356	-0.000219
H75	H	0.465238	0.228486	-0.000218
Cl76	Cl	0.931972	-0.015599	0.619836
Cl77	Cl	0.685239	-0.090563	-0.000208
Cl78	Cl	0.609738	0.261405	-0.000199
Cl79	Cl	0.001352	0.251683	-0.000312
H80	H	0.910882	0.007238	0.203439
Cl81	Cl	0.483475	-0.052610	-0.000202
Cl82	Cl	0.203824	-0.057081	-0.000264
Cl83	Cl	0.931990	-0.015595	0.815181
H84	H	0.627981	-0.019698	-0.000165
