data_functionalizedCrystal
_audit_creation_method	'MofGen! by Chris Wilmer'
_symmetry_space_group_name_H-M	'P1'
_symmetry_Int_Tables_number	1
_symmetry_cell_setting	triclinic
loop_
_symmetry_equiv_pos_as_xyz
  x,y,z
_cell_length_a	15.944564
_cell_length_b	15.944499
_cell_length_c	15.021413
_cell_angle_alpha	90.007263
_cell_angle_beta	90.002828
_cell_angle_gamma	96.509228
loop_
_atom_site_label
_atom_site_type_symbol
_atom_site_fract_x
_atom_site_fract_y
_atom_site_fract_z
O1	O	-1.114502	0.108374	-0.073933
O2	O	-0.869951	0.121720	-0.073954
O3	O	-0.998928	-0.007230	-0.073944
O4	O	-0.985526	0.237325	-0.073943
O5	O	-0.998907	-0.007212	0.074120
O6	O	-0.869931	0.121738	0.074110
O7	O	-1.114482	0.108393	0.074131
Zn8	Zn	-0.992203	0.115068	0.097629
Zn9	Zn	-0.992230	0.115044	-0.097452
O10	O	-0.985505	0.237343	0.074122
C11	C	-0.838648	0.121173	0.000075
C12	C	-0.745402	0.119506	0.000067
C13	C	-0.998369	-0.038516	0.000085
C14	C	-0.996724	-0.131764	0.000079
C15	C	-0.530562	0.035590	0.000083
C16	C	-0.469546	0.074542	-0.072920
C17	C	-0.574678	0.116491	0.000077
C18	C	-0.469548	0.074579	0.073060
C19	C	-0.409767	0.113573	0.000091
C20	C	-0.514889	0.155465	-0.072986
C21	C	-0.514898	0.155491	0.073059
C22	C	-0.453898	0.194501	0.000038
C23	C	-0.669679	0.118170	0.000068
C24	C	-0.314767	0.111900	0.000094
C25	C	-1.071655	-0.423297	0.000090
C26	C	-1.032694	-0.362264	0.073093
C27	C	-0.990747	-0.467401	0.000088
C28	C	-1.032692	-0.362289	-0.072886
C29	C	-0.993688	-0.302492	0.000082
C30	C	-0.951763	-0.407597	0.073152
C31	C	-0.951773	-0.407627	-0.072893
C32	C	-0.912753	-0.346612	0.000128
C33	C	-0.989056	-0.562401	0.000093
C34	C	-0.995374	-0.207493	0.000084
C35	C	-0.145787	0.108928	0.000100
C36	C	-0.239037	0.110560	0.000103
C37	C	-0.986064	0.268628	0.000090
C38	C	-0.987709	0.361877	0.000091
N39	N	-0.992191	0.115084	0.230767
N40	N	-0.992249	0.115021	-0.230589
C41	C	-0.932543	0.174683	0.470446
C42	C	-1.008440	0.190994	0.529787
C43	C	-0.992212	0.115063	0.412374
C44	C	-0.916336	0.098771	0.529774
C45	C	-0.992226	0.115045	0.587798
C46	C	-1.068147	0.131412	0.470409
C47	C	-0.975993	0.039157	0.470391
C48	C	-1.051945	0.055435	0.529705
C49	C	-0.992203	0.115076	0.311316
C50	C	-0.992244	0.115032	0.688853
H51	H	-0.563908	-0.031548	-0.000007
N52	N	-0.442923	0.029214	-0.154676
H53	H	-0.471093	-0.030805	-0.154624
H54	H	-0.379610	0.028971	-0.154314
N55	N	-0.823737	-0.302659	0.000166
H56	H	-0.793288	-0.319120	0.055328
H57	H	-0.825418	-0.239532	-0.000390
H58	H	-0.962239	-0.025008	0.444281
H59	H	-0.852163	0.085000	0.555853
H60	H	-0.534879	0.189650	-0.134772
H61	H	-0.917589	-0.427749	-0.134619
N62	N	-0.409951	0.283520	-0.000009
H63	H	-0.426423	0.313952	-0.055175
H64	H	-0.346824	0.281842	0.000549
H65	H	-0.449459	0.040354	0.134776
H66	H	-0.917562	-0.427572	0.134935
H67	H	-1.102466	0.005006	0.555561
N68	N	-1.078044	-0.335693	-0.154633
H69	H	-1.138058	-0.363877	-0.154560
H70	H	-1.048035	-0.352999	-0.209730
N71	N	-0.541519	0.200813	0.154813
H72	H	-0.525207	0.170212	0.209932
H73	H	-0.604697	0.202089	0.153832
H74	H	-1.022171	0.255179	0.555876
H75	H	-1.138801	-0.456624	0.000166
H76	H	-0.882134	0.225142	0.444426
H77	H	-1.132334	0.145261	0.444441
N78	N	-1.078009	-0.335626	0.154847
H79	H	-1.138026	-0.363801	0.154796
H80	H	-1.078257	-0.272313	0.154477
