data_functionalizedCrystal
_audit_creation_method	'MofGen! by Chris Wilmer'
_symmetry_space_group_name_H-M	'P1'
_symmetry_Int_Tables_number	1
_symmetry_cell_setting	triclinic
loop_
_symmetry_equiv_pos_as_xyz
  x,y,z
_cell_length_a	10.723024
_cell_length_b	17.038272
_cell_length_c	9.198806
_cell_angle_alpha	89.996565
_cell_angle_beta	89.996352
_cell_angle_gamma	87.789713
loop_
_atom_site_label
_atom_site_type_symbol
_atom_site_fract_x
_atom_site_fract_y
_atom_site_fract_z
O1	O	1.667337	0.109720	-0.120885
O2	O	1.305156	0.120222	-0.120890
O3	O	1.484094	0.001144	-0.120876
O4	O	1.488399	0.228799	-0.120899
O5	O	1.484079	0.001144	0.120909
O6	O	1.305141	0.120222	0.120895
O7	O	1.667322	0.109720	0.120900
Cu8	Cu	1.486230	0.114971	0.142975
Cu9	Cu	1.486248	0.114971	-0.142964
O10	O	1.488384	0.228798	0.120886
C11	C	1.258578	0.119458	0.000002
C12	C	1.119813	0.117171	0.000000
C13	C	1.050993	0.183801	-0.000007
C14	C	0.907571	0.181440	-0.000009
C15	C	1.480171	-0.028006	0.000016
C16	C	1.468489	-0.114864	0.000016
C17	C	1.575744	-0.164385	0.000019
C18	C	1.564760	-0.245996	0.000005
C19	C	1.446520	-0.278084	-0.000002
C20	C	1.339256	-0.228557	-0.000009
C21	C	1.350241	-0.146947	-0.000006
C22	C	1.407711	-0.524057	-0.000022
C23	C	1.396734	-0.605673	-0.000021
C24	C	1.622239	-0.623107	-0.000010
C25	C	1.633214	-0.541495	0.000002
C26	C	1.525950	-0.491974	-0.000013
C27	C	1.435289	-0.361504	-0.000011
C28	C	1.537182	-0.408556	-0.000014
C29	C	1.713900	0.110484	0.000005
C30	C	1.852666	0.112771	-0.000003
C31	C	1.492307	0.257948	-0.000009
C32	C	1.503989	0.344806	-0.000018
N33	N	1.486226	0.114970	0.344089
N34	N	1.486261	0.114966	-0.344078
C35	C	1.561337	0.064752	0.416291
C36	C	1.561356	0.064749	0.583704
H37	H	1.072552	0.058378	-0.000031
H38	H	1.098254	0.242594	-0.000005
C39	C	0.854725	0.302093	-0.124321
C40	C	0.827722	0.258447	-0.000023
H41	H	0.805420	0.349633	-0.124332
H42	H	0.940620	0.313781	-0.124307
H43	H	0.836426	0.272466	-0.208624
H44	H	0.846030	0.288072	0.084280
H45	H	0.741807	0.246760	-0.000024
C46	C	1.007934	0.032711	-0.124285
C47	C	0.932509	0.035761	0.000005
H48	H	1.057237	-0.014830	-0.124273
H49	H	0.956767	0.034787	-0.208584
H50	H	1.060966	0.076102	-0.124275
H51	H	0.879470	-0.007628	-0.000011
H52	H	0.983681	0.033677	0.084326
H53	H	1.672028	-0.138265	0.000033
C54	C	1.788762	-0.255031	0.000050
C55	C	1.682660	-0.300430	0.000025
H56	H	1.861549	-0.288638	0.000072
H57	H	1.788371	-0.222837	-0.084259
H58	H	1.788330	-0.222838	0.084373
H59	H	1.683087	-0.332619	-0.084304
H60	H	1.683051	-0.332638	0.084343
H61	H	1.421931	0.157959	0.406212
C62	C	1.855014	-0.566928	0.000011
C63	C	1.763188	-0.506226	0.000012
H64	H	1.935254	-0.545152	0.000016
H65	H	1.846028	-0.598400	0.084317
H66	H	1.846044	-0.598391	-0.084316
H67	H	1.772153	-0.474765	0.084345
H68	H	1.772178	-0.474741	-0.084302
C69	C	1.619679	-0.070326	0.630837
C70	C	1.648168	0.006703	0.667513
H71	H	1.673280	-0.106161	0.682574
H72	H	1.535397	-0.079130	0.655736
H73	H	1.631059	-0.077930	0.529326
H74	H	1.636779	0.014309	0.769022
H75	H	1.732470	0.015511	0.642623
C76	C	1.174923	-0.580247	-0.000077
C77	C	1.266754	-0.640946	-0.000052
H78	H	1.094685	-0.602025	-0.000106
H79	H	1.183873	-0.548783	0.084236
H80	H	1.183922	-0.548774	-0.084396
H81	H	1.257760	-0.672415	0.084273
H82	H	1.257799	-0.672423	-0.084374
H83	H	1.262902	-0.106627	-0.000008
C84	C	1.471041	0.221210	0.484583
C85	C	1.399445	0.173013	0.572119
H86	H	1.417442	0.257042	0.432834
H87	H	1.526076	0.249576	0.543951
H88	H	1.518147	0.189698	0.417579
H89	H	1.352346	0.204525	0.639131
H90	H	1.344388	0.144645	0.512746
H91	H	1.242982	-0.254689	-0.000024
C92	C	1.289237	-0.422169	0.124257
C93	C	1.289814	-0.469625	-0.000029
H94	H	1.216453	-0.388559	0.124244
H95	H	1.289625	-0.454369	0.208559
H96	H	1.361235	-0.391384	0.124242
H97	H	1.217820	-0.500415	-0.000009
H98	H	1.289414	-0.437421	-0.084353
C99	C	1.772395	0.019728	0.369185
C100	C	1.648163	0.006710	0.332483
H101	H	1.826005	-0.016110	0.317465
H102	H	1.791686	0.071984	0.344282
H103	H	1.783751	0.012124	0.470699
H104	H	1.636805	0.014319	0.230970
H105	H	1.628866	-0.045558	0.357376
H106	H	1.709567	-0.663435	-0.000001
H107	H	1.633453	-0.382426	-0.000040
H108	H	1.339017	-0.387640	-0.000014
