data_functionalizedCrystal
_audit_creation_method	'MofGen! by Chris Wilmer'
_symmetry_space_group_name_H-M	'P1'
_symmetry_Int_Tables_number	1
_symmetry_cell_setting	triclinic
loop_
_symmetry_equiv_pos_as_xyz
  x,y,z
_cell_length_a	17.699083
_cell_length_b	14.519709
_cell_length_c	16.176319
_cell_angle_alpha	89.992256
_cell_angle_beta	89.998611
_cell_angle_gamma	83.481580
loop_
_atom_site_label
_atom_site_type_symbol
_atom_site_fract_x
_atom_site_fract_y
_atom_site_fract_z
O1	O	1.004413	0.116624	-0.068632
O2	O	0.784078	0.131798	-0.068660
O3	O	0.900087	-0.010052	-0.068638
O4	O	0.888403	0.258474	-0.068654
O5	O	0.900071	-0.010061	0.068855
O6	O	0.784062	0.131789	0.068833
O7	O	1.004397	0.116615	0.068861
Cu8	Cu	0.894228	0.124201	0.081401
Cu9	Cu	0.894247	0.124212	-0.081200
O10	O	0.888387	0.258465	0.068839
C11	C	0.755871	0.131249	0.000083
C12	C	0.671848	0.129618	0.000073
C13	C	0.623466	0.212881	0.000068
C14	C	0.544518	0.211343	0.000079
C15	C	0.513954	0.126541	0.000089
C16	C	0.562343	0.043272	0.000096
C17	C	0.641289	0.044811	0.000091
C18	C	0.243962	0.037064	0.000117
C19	C	0.165010	0.035531	0.000119
C20	C	0.147191	0.203596	0.000105
C21	C	0.226137	0.205135	0.000100
C22	C	0.274519	0.121866	0.000112
C23	C	0.360123	0.123535	0.000102
C24	C	0.428352	0.124872	0.000093
C25	C	0.899534	-0.044414	0.000109
C26	C	0.897903	-0.146789	0.000109
C27	C	0.891896	-0.521659	0.000087
C28	C	0.893564	-0.417358	0.000093
C29	C	0.894899	-0.334227	0.000099
C30	C	0.896568	-0.229920	0.000104
C31	C	1.032603	0.117164	0.000116
C32	C	1.116626	0.118795	0.000121
C33	C	0.888940	0.292827	0.000090
C34	C	0.890572	0.395202	0.000085
N35	N	0.894220	0.124193	0.195767
N36	N	0.894260	0.124213	-0.195565
C37	C	0.945604	0.061408	0.239040
C38	C	0.945608	0.061407	0.325588
C39	C	0.894231	0.124196	0.368859
C40	C	0.842841	0.186985	0.325579
C41	C	0.842834	0.186981	0.239034
C42	C	0.842867	0.187002	0.674608
C43	C	0.842879	0.187003	0.761159
C44	C	0.945641	0.061428	0.761161
C45	C	0.945634	0.061424	0.674616
C46	C	0.894242	0.124209	0.631343
C47	C	0.894237	0.124208	0.537499
C48	C	0.894238	0.124202	0.462702
H49	H	0.251017	0.274189	0.000088
O50	O	0.497486	0.292198	0.000213
C51	C	0.451274	0.296332	0.071412
H52	H	0.480125	0.249116	0.121192
H53	H	0.393838	0.272584	0.055321
C54	C	0.403976	0.454701	0.042540
C55	C	0.439414	0.396715	0.103683
H56	H	0.396656	0.516622	0.062444
H57	H	0.435107	0.451915	-0.005431
H58	H	0.356116	0.434900	0.029136
H59	H	0.487276	0.416509	0.117078
H60	H	0.408290	0.399506	0.151656
H61	H	0.648344	0.281937	0.000060
H62	H	0.680683	-0.022990	0.000095
H63	H	0.800990	0.238106	0.203801
O64	O	0.995542	0.000324	0.197138
C65	C	1.040908	-0.055077	0.253896
H66	H	1.009881	-0.056067	0.315592
H67	H	1.097169	-0.025218	0.263089
C68	C	1.094481	-0.153377	0.144359
C69	C	1.056371	-0.154599	0.220134
H70	H	1.104023	-0.214765	0.123533
H71	H	1.063920	-0.116050	0.106120
H72	H	1.141361	-0.128489	0.152031
H73	H	1.009487	-0.179475	0.212460
H74	H	1.086924	-0.191932	0.258372
H75	H	0.140129	-0.033529	0.000128
H76	H	0.107789	0.271397	0.000100
H77	H	0.283346	-0.030739	0.000127
H78	H	0.801023	0.238125	0.639382
O79	O	0.532531	-0.039025	0.000070
C80	C	0.452476	-0.022531	0.000092
H81	H	0.434033	0.049480	-0.025944
H82	H	0.430495	-0.026954	0.066056
C83	C	0.442284	-0.184261	-0.021842
C84	C	0.419632	-0.095818	-0.053827
H85	H	0.422023	-0.229469	-0.055098
H86	H	0.496218	-0.195374	-0.021854
H87	H	0.423965	-0.187933	0.033127
H88	H	0.437959	-0.092143	-0.108791
H89	H	0.365700	-0.084706	-0.053826
H90	H	0.987473	0.010298	0.639387
H91	H	0.987449	0.010281	0.360821
O92	O	0.995525	0.000301	0.803108
C93	C	0.983088	-0.090973	0.781987
H94	H	0.953913	-0.090813	0.719152
H95	H	0.945380	-0.119435	0.830702
C96	C	1.095684	-0.152642	0.855165
C97	C	1.059857	-0.152447	0.777986
H98	H	1.143038	-0.190564	0.852701
H99	H	1.104062	-0.091149	0.869398
H100	H	1.064253	-0.176358	0.895753
H101	H	1.091283	-0.128720	0.737402
H102	H	1.051486	-0.213937	0.763746
H103	H	0.801038	0.238136	0.796389
H104	H	0.801004	0.238106	0.360816
