data_functionalizedCrystal
_audit_creation_method	'MofGen! by Chris Wilmer'
_symmetry_space_group_name_H-M	'P1'
_symmetry_Int_Tables_number	1
_symmetry_cell_setting	triclinic
loop_
_symmetry_equiv_pos_as_xyz
  x,y,z
_cell_length_a	14.519731
_cell_length_b	19.188940
_cell_length_c	12.996460
_cell_angle_alpha	89.993415
_cell_angle_beta	89.994327
_cell_angle_gamma	83.418784
loop_
_atom_site_label
_atom_site_type_symbol
_atom_site_fract_x
_atom_site_fract_y
_atom_site_fract_z
O1	O	1.223292	0.091595	-0.085570
O2	O	1.723292	0.591595	0.414430
O3	O	0.954751	0.102357	-0.085572
O4	O	1.454751	0.602357	0.414428
O5	O	1.096766	-0.004651	-0.085563
O6	O	1.596766	0.495349	0.414437
O7	O	1.081277	0.198603	-0.085579
O8	O	1.581277	0.698603	0.414421
O9	O	1.096752	-0.004657	0.085571
O10	O	1.596752	0.495343	0.585571
O11	O	0.954737	0.102351	0.085562
O12	O	1.454737	0.602351	0.585562
O13	O	1.223277	0.091589	0.085564
O14	O	1.723277	0.591589	0.585564
Cu15	Cu	1.089005	0.096970	0.101189
Cu16	Cu	1.589005	0.596970	0.601189
Cu17	Cu	1.089023	0.096977	-0.101197
Cu18	Cu	1.589023	0.596977	0.398803
O19	O	1.081262	0.198597	0.085555
O20	O	1.581262	0.698597	0.585555
C21	C	0.920388	0.101850	-0.000005
C22	C	1.420388	0.601850	0.499995
C23	C	0.818017	0.100339	-0.000005
C24	C	1.318017	0.600339	0.499995
C25	C	0.734880	0.099111	-0.000010
C26	C	1.234880	0.599111	0.499990
C27	C	0.630581	0.097577	-0.000010
C28	C	1.130581	0.597577	0.499990
C29	C	0.547449	0.096359	-0.000010
C30	C	1.047449	0.596359	0.499990
C31	C	0.443143	0.094825	-0.000012
C32	C	0.943143	0.594825	0.499988
C33	C	1.096256	-0.030667	0.000004
C34	C	1.596256	0.469333	0.500004
C35	C	1.094746	-0.108176	0.000003
C36	C	1.594746	0.391824	0.500003
C37	C	1.083993	-0.661478	0.093264
C38	C	1.583993	-0.161478	0.593264
C39	C	1.085402	-0.588648	0.093270
C40	C	1.585402	-0.088648	0.593270
C41	C	1.086119	-0.552223	-0.000014
C42	C	1.586119	-0.052223	0.499986
C43	C	1.085403	-0.588631	-0.093311
C44	C	1.585403	-0.088631	0.406689
C45	C	1.083985	-0.661458	-0.093314
C46	C	1.583985	-0.161458	0.406686
N47	N	1.140829	-0.442998	-0.069447
N48	N	1.640829	0.057002	0.430553
N49	N	1.142178	-0.373816	-0.069438
N50	N	1.642178	0.126184	0.430562
C51	C	1.090390	-0.332798	-0.000011
C52	C	1.590390	0.167202	0.499989
N53	N	1.037213	-0.363578	0.069423
N54	N	1.537213	0.136422	0.569423
N55	N	1.035868	-0.432767	0.069416
N56	N	1.535868	0.067233	0.569416
C57	C	1.087656	-0.473254	-0.000021
C58	C	1.587656	0.026746	0.499979
C59	C	1.092627	-0.217428	0.093286
C60	C	1.592627	0.282572	0.593286
C61	C	1.094030	-0.144597	0.093288
C62	C	1.594030	0.355403	0.593288
C63	C	1.094041	-0.144582	-0.093295
C64	C	1.594041	0.355418	0.406705
C65	C	1.092628	-0.217411	-0.093294
C66	C	1.592628	0.282589	0.406706
C67	C	1.091926	-0.253830	-0.000001
C68	C	1.591926	0.246170	0.499999
C69	C	1.257641	0.092096	-0.000005
C70	C	1.757641	0.592096	0.499995
C71	C	1.360012	0.093607	-0.000012
C72	C	1.860012	0.593607	0.499988
C73	C	1.081772	0.224613	-0.000014
C74	C	1.581772	0.724613	0.499986
C75	C	1.083283	0.302123	-0.000020
C76	C	1.583283	0.802123	0.499980
N77	N	1.089000	0.096964	0.243536
N78	N	1.589000	0.596964	0.743536
N79	N	1.089036	0.096977	-0.243544
N80	N	1.589036	0.596977	0.256456
C81	C	1.089022	0.096977	0.663350
C82	C	1.589022	0.596977	1.163350
C83	C	1.089013	0.096976	0.546545
C84	C	1.589013	0.596976	1.046545
C85	C	1.089011	0.096971	0.453447
C86	C	1.589011	0.596971	0.953447
C87	C	1.089002	0.096969	0.336634
C88	C	1.589002	0.596969	0.836634
H89	H	1.085964	-0.559004	0.169235
H90	H	1.585964	-0.059004	0.669235
H91	H	1.083405	-0.691094	-0.169279
H92	H	1.583405	-0.191094	0.330721
N93	N	1.083216	-0.700747	0.193891
N94	N	1.583216	-0.200747	0.693891
H95	H	1.025470	-0.725376	0.198050
H96	H	1.525470	-0.225376	0.698050
H97	H	1.139818	-0.736514	0.197997
H98	H	1.639818	-0.236514	0.697997
H99	H	1.094607	-0.114961	0.169254
H100	H	1.594607	0.385039	0.669254
H101	H	1.092048	-0.247082	0.169251
H102	H	1.592048	0.252918	0.669251
N103	N	1.094801	-0.105304	-0.193911
N104	N	1.594801	0.394696	0.306089
H105	H	1.095804	-0.053644	-0.179756
H106	H	1.595804	0.446356	0.320244
H107	H	1.151710	-0.123612	-0.234656
H108	H	1.651710	0.376388	0.265344
H109	H	1.085983	-0.558968	-0.169263
H110	H	1.585983	-0.058968	0.330737
N111	N	1.091947	-0.256684	-0.193909
N112	N	1.591947	0.243316	0.306091
H113	H	1.092642	-0.222563	-0.253005
H114	H	1.592642	0.277437	0.246995
H115	H	1.148542	-0.292463	-0.197912
H116	H	1.648542	0.207537	0.302088
