data_functionalizedCrystal
_audit_creation_method	'MofGen! by Chris Wilmer'
_symmetry_space_group_name_H-M	'P1'
_symmetry_Int_Tables_number	1
_symmetry_cell_setting	triclinic
loop_
_symmetry_equiv_pos_as_xyz
  x,y,z
_cell_length_a	10.654550
_cell_length_b	14.519709
_cell_length_c	9.130313
_cell_angle_alpha	89.997798
_cell_angle_beta	89.996220
_cell_angle_gamma	84.082524
loop_
_atom_site_label
_atom_site_type_symbol
_atom_site_fract_x
_atom_site_fract_y
_atom_site_fract_z
O1	O	1.666589	0.129528	-0.121923
O2	O	1.300991	0.141869	-0.121900
O3	O	1.493483	0.001510	-0.121899
O4	O	1.474097	0.269887	-0.121924
O5	O	1.493481	0.001514	0.121700
O6	O	1.300989	0.141873	0.121699
O7	O	1.666586	0.129532	0.121676
Cu8	Cu	1.483787	0.135703	0.143930
Cu9	Cu	1.483790	0.135698	-0.144154
O10	O	1.474094	0.269891	0.121675
C11	C	1.254201	0.140965	-0.000098
C12	C	1.114784	0.138254	-0.000088
C13	C	1.034504	0.220895	-0.000117
C14	C	0.903507	0.218342	-0.000143
C15	C	0.933085	0.050500	-0.000116
C16	C	1.064078	0.053054	-0.000080
C17	C	1.017426	0.317797	-0.000139
C18	C	0.886430	0.315244	-0.000164
C19	C	1.492579	-0.032852	-0.000099
C20	C	1.489871	-0.135247	-0.000098
C21	C	1.479904	-0.510195	-0.000136
C22	C	1.482672	-0.405873	-0.000125
C23	C	1.484887	-0.322725	-0.000116
C24	C	1.487656	-0.218396	-0.000108
C25	C	1.713377	0.130436	-0.000130
C26	C	1.852794	0.133147	-0.000149
C27	C	1.474999	0.304253	-0.000128
C28	C	1.477707	0.406648	-0.000139
N29	N	1.483795	0.135705	0.346552
N30	N	1.483793	0.135688	-0.346777
C31	C	1.569052	0.073576	0.423205
C32	C	1.569048	0.073565	0.576542
C33	C	1.398527	0.197821	0.576560
C34	C	1.398525	0.197827	0.423226
C35	C	1.667505	0.001840	0.423195
C36	C	1.667502	0.001829	0.576532
H37	H	0.844347	0.351754	-0.102121
C38	C	1.805619	0.122042	0.406409
C39	C	1.790311	0.032171	0.359001
H40	H	1.881438	0.140768	0.366793
H41	H	1.736047	0.163252	0.374271
H42	H	1.809773	0.123049	0.510319
H43	H	1.786147	0.031165	0.255091
H44	H	1.859900	-0.009051	0.391131
C45	C	0.917235	0.383352	0.235057
C46	C	0.824380	0.354781	0.141796
H47	H	0.878923	0.407763	0.322690
H48	H	0.976478	0.331932	0.257898
H49	H	0.959262	0.429750	0.187835
H50	H	0.782359	0.308378	0.189013
H51	H	0.765115	0.406207	0.118957
C52	C	0.962924	0.384207	-0.235387
C53	C	1.065173	0.359454	-0.142111
H54	H	0.992404	0.409927	-0.323031
H55	H	0.922148	0.330834	-0.258206
H56	H	0.904885	0.428661	-0.188188
H57	H	1.123207	0.314995	-0.189306
H58	H	1.105969	0.412834	-0.119294
C59	C	1.278012	-0.017557	0.000000
C60	C	1.152326	-0.037787	-0.000035
H61	H	1.332490	-0.073642	0.000037
H62	H	1.293421	0.017328	-0.084946
H63	H	1.293368	0.017350	0.084951
H64	H	1.136967	-0.072688	-0.084991
H65	H	1.136911	-0.072687	0.084921
H66	H	1.329102	0.248398	0.639004
H67	H	1.637633	-0.065157	0.624088
C68	C	0.745412	-0.027941	-0.000158
C69	C	0.877344	-0.043149	-0.000121
H70	H	0.711005	-0.085759	-0.000172
H71	H	0.717857	0.006116	0.084777
H72	H	0.717901	0.006121	-0.085120
H73	H	0.904856	-0.077206	0.084847
H74	H	0.904910	-0.077221	-0.085065
H75	H	1.329091	0.248409	0.360817
C76	C	1.622455	-0.151887	0.486293
C77	C	1.639467	-0.093846	0.367006
H78	H	1.605137	-0.210954	0.451600
H79	H	1.696970	-0.158400	0.544075
H80	H	1.553703	-0.125673	0.544090
H81	H	1.708225	-0.120056	0.309214
H82	H	1.564943	-0.087335	0.309200
C83	C	1.850942	-0.050979	0.717902
C84	C	1.797576	0.023158	0.632722
H85	H	1.931243	-0.037812	0.752583
H86	H	1.797408	-0.059760	0.798805
H87	H	1.860385	-0.105641	0.660072
H88	H	1.788124	0.077819	0.690555
H89	H	1.851123	0.031950	0.551807
H90	H	1.046392	0.355697	0.101809
