data_functionalizedCrystal
_audit_creation_method	'MofGen! by Chris Wilmer'
_symmetry_space_group_name_H-M	'P1'
_symmetry_Int_Tables_number	1
_symmetry_cell_setting	triclinic
loop_
_symmetry_equiv_pos_as_xyz
  x,y,z
_cell_length_a	12.645330
_cell_length_b	12.827893
_cell_length_c	12.827885
_cell_angle_alpha	89.980728
_cell_angle_beta	89.971022
_cell_angle_gamma	90.017662
loop_
_atom_site_label
_atom_site_type_symbol
_atom_site_fract_x
_atom_site_fract_y
_atom_site_fract_z
Zn1	Zn	-0.421989	1.597653	-0.590855
Zn2	Zn	-0.088656	1.930986	-0.257521
Zn3	Zn	0.244678	2.264320	0.075812
Zn4	Zn	-0.599290	1.597540	-0.416117
Zn5	Zn	-0.265956	1.930873	-0.082784
Zn6	Zn	0.067377	2.264207	0.250549
Zn7	Zn	-0.422040	1.422894	-0.416128
Zn8	Zn	-0.088707	1.756228	-0.082795
Zn9	Zn	0.244626	2.089561	0.250539
Zn10	Zn	-0.599211	1.422873	-0.590817
Zn11	Zn	-0.265877	1.756206	-0.257484
Zn12	Zn	0.067456	2.089539	0.075849
O13	O	-0.510632	1.510240	-0.503479
O14	O	-0.177299	1.843573	-0.170146
O15	O	0.156034	2.176907	0.163187
O16	O	-0.445520	1.743874	-0.567686
O17	O	-0.112186	2.077207	-0.234353
O18	O	0.221147	2.410541	0.098980
O19	O	-0.575832	1.574335	-0.269883
O20	O	-0.242498	1.907668	0.063451
O21	O	0.090835	2.241001	0.396784
O22	O	-0.273686	1.446133	-0.439326
O23	O	0.059647	1.779466	-0.105993
O24	O	0.392980	2.112799	0.227341
O25	O	-0.575782	1.743791	-0.439308
O26	O	-0.242448	2.077124	-0.105974
O27	O	0.090885	2.410458	0.227359
O28	O	-0.273648	1.574527	-0.567697
O29	O	0.059685	1.907860	-0.234364
O30	O	0.393018	2.241194	0.098970
O31	O	-0.445608	1.446023	-0.269891
O32	O	-0.112274	1.779357	0.063443
O33	O	0.221059	2.112690	0.396776
O34	O	-0.445531	1.276655	-0.439290
O35	O	-0.112198	1.609989	-0.105957
O36	O	0.221136	1.943322	0.227377
O37	O	-0.575647	1.446096	-0.737058
O38	O	-0.242314	1.779429	-0.403725
O39	O	0.091019	2.112762	-0.070392
O40	O	-0.575697	1.276639	-0.567633
O41	O	-0.242364	1.609973	-0.234300
O42	O	0.090969	1.943306	0.099033
O43	O	-0.445443	1.574506	-0.737086
O44	O	-0.112110	1.907839	-0.403752
O45	O	0.221224	2.241173	-0.070419
O46	O	-0.747626	1.574314	-0.439271
O47	O	-0.414293	1.907647	-0.105938
O48	O	-0.080960	2.240980	0.227395
O49	O	-0.747568	1.445986	-0.567623
O50	O	-0.414235	1.779320	-0.234289
O51	O	-0.080902	2.112653	0.099044
C52	C	-0.510612	1.238730	-0.503459
C53	C	-0.177279	1.572063	-0.170126
C54	C	0.156055	1.905397	0.163207
C55	C	-0.510629	1.122577	-0.503476
C56	C	-0.177295	1.455910	-0.170142
C57	C	0.156038	1.789244	0.163191
C58	C	-0.786062	1.510164	-0.503465
C59	C	-0.452729	1.843497	-0.170131
C60	C	-0.119395	2.176830	0.163202
C61	C	-0.903892	1.510227	-0.503493
C62	C	-0.570559	1.843560	-0.170160
C63	C	-0.237225	2.176893	0.163173
C64	C	-0.446152	0.950728	-0.440098
C65	C	-0.112818	1.284062	-0.106765
C66	C	0.220515	1.617395	0.226568
C67	C	-0.446133	1.070779	-0.440080
C68	C	-0.112800	1.404112	-0.106747
C69	C	0.220534	1.737445	0.226587
C70	C	-1.071464	1.429829	-0.584488
C71	C	-0.738130	1.763162	-0.251155
C72	C	-0.404797	2.096495	0.082179
C73	C	-0.948904	1.429418	-0.584228
C74	C	-0.615571	1.762751	-0.250894
C75	C	-0.282238	2.096084	0.082439
C76	C	-0.948494	1.480414	-0.393362
C77	C	-0.615161	1.813747	-0.060029
C78	C	-0.281828	2.147081	0.273304
C79	C	-1.071093	1.479923	-0.393854
C80	C	-0.737759	1.813257	-0.060521
C81	C	-0.404426	2.146590	0.272813
C82	C	-1.070979	1.620929	-0.531736
C83	C	-0.737646	1.954262	-0.198403
C84	C	-0.404313	2.287596	0.134930
C85	C	-0.948372	1.620251	-0.534144
C86	C	-0.615039	1.953584	-0.200811
C87	C	-0.281706	2.286917	0.132522
C88	C	-0.234127	1.510345	-0.503517
C89	C	0.099206	1.843678	-0.170184
C90	C	0.432540	2.177012	0.163150
C91	C	-0.116297	1.510390	-0.503533
C92	C	0.217036	1.843723	-0.170200
C93	C	0.550370	2.177056	0.163134
C94	C	-0.510531	1.510311	-0.776050
C95	C	-0.177197	1.843644	-0.442716
C96	C	0.156136	2.176978	-0.109383
C97	C	-0.510487	1.510341	-0.892203
C98	C	-0.177154	1.843675	-0.558870
C99	C	0.156179	2.177008	-0.225536
C100	C	-0.510654	1.782810	-0.503500
C101	C	-0.177320	2.116143	-0.170167
C102	C	0.156013	2.449477	0.163167
C103	C	-0.510663	1.898963	-0.503509
C104	C	-0.177329	2.232296	-0.170175
C105	C	0.156004	2.565630	0.163158
C106	C	-0.574844	1.446853	-1.064018
C107	C	-0.241510	1.780186	-0.730685
C108	C	0.091823	2.113520	-0.397352
C109	C	-0.574890	1.446820	-0.943968
C110	C	-0.241557	1.780154	-0.610635
C111	C	0.091777	2.113487	-0.277301
C112	C	-0.510657	1.510229	-0.231969
C113	C	-0.177324	1.843563	0.101364
C114	C	0.156009	2.176896	0.434697
C115	C	-0.510402	1.510401	-0.115817
C116	C	-0.177069	1.843735	0.217517
C117	C	0.156265	2.177068	0.550850
H118	H	-0.390932	0.906169	-0.385828
H119	H	-0.057598	1.239503	-0.052494
H120	H	0.275735	1.572836	0.280839
Br121	Br	-1.122377	1.666259	-0.663312
Br122	Br	-0.789044	1.999592	-0.329979
Br123	Br	-0.455710	2.332925	0.003355
H124	H	-1.102366	1.348392	-0.566042
H125	H	-0.769032	1.681726	-0.232709
H126	H	-0.435699	2.015059	0.100625
Br127	Br	-0.899781	1.657728	-0.669236
Br128	Br	-0.566448	1.991061	-0.335903
Br129	Br	-0.233115	2.324395	-0.002569
H130	H	-0.917885	1.400452	-0.369038
H131	H	-0.584551	1.733785	-0.035705
H132	H	-0.251218	2.067118	0.297629
H133	H	-0.390906	1.115295	-0.385788
H134	H	-0.057573	1.448629	-0.052455
H135	H	0.275760	1.781962	0.280878
Br136	Br	-0.897284	1.725568	-0.443034
Br137	Br	-0.563951	2.058901	-0.109701
Br138	Br	-0.230618	2.392234	0.223633
H139	H	-0.565865	1.078067	-0.557763
H140	H	-0.232532	1.411400	-0.224430
H141	H	0.100802	1.744734	0.108903
Br142	Br	-0.602690	0.973220	-0.593984
Br143	Br	-0.269357	1.306553	-0.260651
Br144	Br	0.063976	1.639886	0.072682
Br145	Br	-0.418489	1.601038	-1.041608
Br146	Br	-0.085156	1.934372	-0.708274
Br147	Br	0.248178	2.267705	-0.374941
H148	H	-0.918744	1.448070	-0.665889
H149	H	-0.585411	1.781403	-0.332556
H150	H	-0.252078	2.114737	0.000778
H151	H	-0.919671	1.347469	-0.565543
H152	H	-0.586338	1.680802	-0.232210
H153	H	-0.253004	2.014136	0.101124
Br154	Br	-1.120477	1.460624	-0.721049
Br155	Br	-0.787143	1.793957	-0.387715
Br156	Br	-0.453810	2.127291	-0.054382
H157	H	-1.099786	1.399118	-0.369962
H158	H	-0.766452	1.732452	-0.036628
H159	H	-0.433119	2.065785	0.296705
H160	H	-1.100754	1.536054	-0.331479
H161	H	-0.767421	1.869388	0.001854
H162	H	-0.434088	2.202721	0.335187
Br163	Br	-1.119323	1.720972	-0.433479
Br164	Br	-0.785989	2.054305	-0.100145
Br165	Br	-0.452656	2.387638	0.233188
Br166	Br	-0.899910	1.575110	-0.290076
Br167	Br	-0.566576	1.908443	0.043258
Br168	Br	-0.233243	2.241777	0.376591
H169	H	-0.629977	1.392468	-1.108549
H170	H	-0.296644	1.725801	-0.775216
H171	H	0.036689	2.059135	-0.441882
H172	H	-0.630065	1.392418	-0.899423
H173	H	-0.296732	1.725751	-0.566089
H174	H	0.036602	2.059085	-0.232756
H175	H	-0.455317	1.564754	-0.936741
H176	H	-0.121984	1.898087	-0.603408
H177	H	0.211350	2.231420	-0.270075
