data_functionalizedCrystal
_audit_creation_method	'MofGen! by Chris Wilmer'
_symmetry_space_group_name_H-M	'P1'
_symmetry_Int_Tables_number	1
_symmetry_cell_setting	triclinic
loop_
_symmetry_equiv_pos_as_xyz
  x,y,z
_cell_length_a	16.625548
_cell_length_b	12.759400
_cell_length_c	12.759393
_cell_angle_alpha	90.031564
_cell_angle_beta	89.978332
_cell_angle_gamma	89.984247
loop_
_atom_site_label
_atom_site_type_symbol
_atom_site_fract_x
_atom_site_fract_y
_atom_site_fract_z
Zn1	Zn	1.232733	0.418174	-0.594070
Zn2	Zn	1.232652	0.593893	-0.418390
Zn3	Zn	1.097892	0.418232	-0.418400
Zn4	Zn	1.097883	0.593815	-0.594022
O5	O	1.165290	0.506029	-0.506221
O6	O	1.345554	0.441492	-0.570782
O7	O	1.214745	0.570648	-0.271371
O8	O	1.115817	0.271203	-0.441727
O9	O	1.345495	0.570592	-0.441711
O10	O	1.214883	0.271161	-0.570791
O11	O	1.115738	0.441591	-0.271378
O12	O	0.985059	0.441515	-0.441680
O13	O	1.115802	0.570459	-0.741050
O14	O	0.985052	0.570515	-0.570709
O15	O	1.214875	0.441417	-0.741085
O16	O	1.214737	0.740904	-0.441664
O17	O	1.115723	0.740847	-0.570700
C18	C	0.955799	0.506014	-0.506191
C19	C	0.866178	0.506033	-0.506204
C20	C	1.165242	0.778996	-0.506199
C21	C	1.165295	0.895773	-0.506225
C22	C	1.165346	0.505923	-0.780254
C23	C	1.165371	0.505878	-0.897031
C24	C	0.538002	0.506039	-0.506249
C25	C	0.629311	0.506035	-0.506233
C26	C	0.702087	0.506037	-0.506225
C27	C	0.793402	0.506031	-0.506211
C28	C	1.375599	0.506045	-0.506251
C29	C	1.465220	0.506051	-0.506264
C30	C	1.165360	0.231995	-0.506266
C31	C	1.165390	0.115219	-0.506285
C32	C	1.216909	0.950630	-0.439110
C33	C	1.216959	1.060354	-0.439142
C34	C	1.113774	1.060354	-0.573407
C35	C	1.113729	0.950632	-0.573379
C36	C	1.268476	0.895770	-0.371955
C37	C	1.320093	0.950627	-0.304834
C38	C	1.320142	1.060351	-0.304867
C39	C	1.268575	1.115218	-0.372020
C40	C	1.216965	0.438679	-0.951913
C41	C	1.216984	0.438641	-1.061637
C42	C	1.113812	0.573010	-1.061587
C43	C	1.113789	0.573041	-0.951865
C44	C	1.268546	0.371515	-0.897079
C45	C	1.320146	0.304311	-0.951961
C46	C	1.320165	0.304273	-1.061685
C47	C	1.268585	0.371439	-1.116527
C48	C	1.165280	0.506058	-0.233253
C49	C	1.165412	0.505808	-0.116477
H50	H	1.268439	0.806428	-0.371918
H51	H	1.362082	0.905949	-0.250166
H52	H	1.071701	0.905967	-0.628031
H53	H	1.362177	1.105013	-0.250221
C54	C	1.057048	1.120705	-0.647265
C55	C	1.057094	1.241394	-0.647294
C56	C	1.000365	1.301743	-0.721152
C57	C	0.943590	1.241402	-0.794980
C58	C	0.943542	1.120706	-0.794954
C59	C	1.000271	1.060357	-0.721096
H60	H	1.099124	1.286069	-0.592640
H61	H	1.000401	1.391091	-0.721171
H62	H	0.901596	1.286076	-0.849654
H63	H	0.901512	1.076032	-0.849608
H64	H	1.000235	0.971009	-0.721077
H65	H	1.268625	1.204563	-0.372049
C66	C	1.057083	0.646895	-1.121910
C67	C	1.057110	0.646866	-1.242600
C68	C	1.000382	0.720756	-1.302922
C69	C	0.943628	0.794676	-1.242553
C70	C	0.943598	0.794708	-1.121856
C71	C	1.000326	0.720818	-1.061535
H72	H	1.099125	0.592143	-1.287295
H73	H	1.000404	0.720732	-1.392270
H74	H	0.901634	0.849374	-1.287207
H75	H	0.901583	0.849430	-1.077162
H76	H	1.000304	0.720842	-0.972187
H77	H	1.362135	0.249621	-0.907302
H78	H	1.268538	0.371540	-0.807736
H79	H	1.362174	0.249546	-1.106367
H80	H	1.268595	0.371390	-1.205872
H81	H	1.071764	0.627744	-0.907179
