data_functionalizedCrystal
_audit_creation_method	'MofGen! by Chris Wilmer'
_symmetry_space_group_name_H-M	'P1'
_symmetry_Int_Tables_number	1
_symmetry_cell_setting	triclinic
loop_
_symmetry_equiv_pos_as_xyz
  x,y,z
_cell_length_a	12.594516
_cell_length_b	12.759401
_cell_length_c	12.759393
_cell_angle_alpha	89.979062
_cell_angle_beta	89.971950
_cell_angle_gamma	90.017577
loop_
_atom_site_label
_atom_site_type_symbol
_atom_site_fract_x
_atom_site_fract_y
_atom_site_fract_z
Zn1	Zn	-0.423647	1.606257	-0.594038
Zn2	Zn	-0.601663	1.606143	-0.418366
Zn3	Zn	-0.423704	1.430555	-0.418373
Zn4	Zn	-0.601589	1.430543	-0.594003
O5	O	-0.512651	1.518375	-0.506195
O6	O	-0.447269	1.753263	-0.570746
O7	O	-0.578111	1.582809	-0.271345
O8	O	-0.274751	1.453915	-0.441693
O9	O	-0.578056	1.753179	-0.441680
O10	O	-0.274709	1.583002	-0.570754
O11	O	-0.447365	1.453805	-0.271351
O12	O	-0.447293	1.283533	-0.441659
O13	O	-0.577930	1.453894	-0.741029
O14	O	-0.577985	1.283524	-0.570694
O15	O	-0.447197	1.582990	-0.741054
O16	O	-0.750599	1.582797	-0.441646
O17	O	-0.750545	1.453784	-0.570686
C18	C	-0.512638	1.245407	-0.506174
C19	C	-0.512658	1.128631	-0.506190
C20	C	-0.580812	1.073791	-0.573272
C21	C	-0.580817	0.964067	-0.573293
C22	C	-0.444509	0.964031	-0.439140
C23	C	-0.444500	1.073753	-0.439125
C24	C	-0.789192	1.518306	-0.506185
C25	C	-0.907497	1.518372	-0.506215
C26	C	-0.976759	1.448195	-0.576351
C27	C	-1.047629	1.422594	-0.480484
C28	C	-1.047427	1.544069	-0.602099
C29	C	-0.976808	1.492721	-0.410297
C30	C	-0.976600	1.614240	-0.531977
C31	C	-1.047438	1.588675	-0.436044
C32	C	-0.235030	1.518472	-0.506228
C33	C	-0.116725	1.518514	-0.506242
C34	C	-0.512665	1.792408	-0.506216
C35	C	-0.512671	1.909184	-0.506226
C36	C	-0.512549	1.518453	-0.780228
C37	C	-0.512505	1.518487	-0.897005
C38	C	-0.444422	1.585712	-0.951882
C39	C	-0.444376	1.585730	-1.061606
C40	C	-0.580506	1.451294	-1.061567
C41	C	-0.580546	1.451272	-0.951844
C42	C	-0.512676	1.518357	-0.233228
C43	C	-0.512420	1.518527	-0.116451
H44	H	-0.389018	0.919337	-0.384537
H45	H	-0.636313	0.919422	-0.627920
O46	O	-0.646752	1.386064	-1.114725
C47	C	-0.752846	1.408998	-1.087922
H48	H	-0.755083	1.449366	-1.008261
H49	H	-0.788677	1.463015	-1.149677
C50	C	-0.814569	1.256971	-1.180671
C51	C	-0.817316	1.306543	-1.082826
H52	H	-0.854339	1.193773	-1.177532
H53	H	-0.743092	1.241521	-1.198733
H54	H	-0.844426	1.301996	-1.232123
H55	H	-0.787448	1.261524	-1.031378
H56	H	-0.888791	1.321983	-1.064755
O57	O	-0.378440	1.127146	-0.373904
C58	C	-0.438953	1.190548	-0.305922
H59	H	-0.519659	1.206982	-0.342839
H60	H	-0.450553	1.148225	-0.228047
C61	C	-0.281236	1.274596	-0.241647
C62	C	-0.380359	1.294787	-0.286993
H63	H	-0.245092	1.338894	-0.229966
H64	H	-0.240467	1.231879	-0.287445
H65	H	-0.290918	1.239324	-0.176757
H66	H	-0.370676	1.330047	-0.351888
H67	H	-0.421126	1.337514	-0.241206
O68	O	-0.939776	1.377133	-0.646888
C69	C	-0.975996	1.276239	-0.619354
H70	H	-0.995908	1.274316	-0.532209
H71	H	-1.050059	1.256564	-0.666772
C72	C	-0.864159	1.197564	-0.749975
C73	C	-0.888607	1.195201	-0.642940
H74	H	-0.810256	1.147574	-0.764528
H75	H	-0.839759	1.265538	-0.768529
H76	H	-0.925885	1.181171	-0.789478
H77	H	-0.826884	1.211607	-0.603440
H78	H	-0.912994	1.127227	-0.624380
H79	H	-0.389016	1.640440	-0.907235
H80	H	-1.078276	1.648082	-0.376676
O81	O	-1.084257	1.569998	-0.698870
C82	C	-0.997775	1.587112	-0.766974
H83	H	-0.924297	1.607935	-0.719170
H84	H	-0.981816	1.512932	-0.814196
C85	C	-1.114369	1.652307	-0.900869
C86	C	-1.024124	1.677891	-0.842155
H87	H	-1.130623	1.708300	-0.947248
H88	H	-1.172635	1.640773	-0.854988
H89	H	-1.101059	1.590488	-0.940211
H90	H	-1.037441	1.739701	-0.802805
H91	H	-0.965862	1.689437	-0.888032
O92	O	-0.378208	1.651134	-1.114751
C93	C	-0.318146	1.710430	-1.042815
H94	H	-0.361775	1.714035	-0.964599
H95	H	-0.237309	1.671988	-1.031146
C96	C	-0.249214	1.817834	-1.181726
C97	C	-0.302805	1.822269	-1.085661
H98	H	-0.239746	1.886821	-1.208155
H99	H	-0.289675	1.777883	-1.230191
H100	H	-0.181856	1.785794	-1.171988
H101	H	-0.370166	1.854297	-1.095402
H102	H	-0.262354	1.862229	-1.037198
H103	H	-0.635987	1.396521	-0.907162
H104	H	-1.078851	1.341587	-0.458716
O105	O	-0.939396	1.710826	-0.558180
C106	C	-0.975332	1.737554	-0.659353
H107	H	-0.995261	1.663093	-0.704616
H108	H	-1.049327	1.788578	-0.652777
C109	C	-0.863237	1.889862	-0.662015
C110	C	-0.887705	1.798407	-0.717611
H111	H	-0.809187	1.927403	-0.697952
H112	H	-0.839028	1.871858	-0.593852
H113	H	-0.924906	1.932369	-0.656540
H114	H	-0.826040	1.755896	-0.723075
H115	H	-0.911901	1.816406	-0.785777
H116	H	-0.636308	1.118469	-0.627883
H117	H	-0.945916	1.470950	-0.329198
