data_functionalizedCrystal
_audit_creation_method	'MofGen! by Chris Wilmer'
_symmetry_space_group_name_H-M	'P1'
_symmetry_Int_Tables_number	1
_symmetry_cell_setting	triclinic
loop_
_symmetry_equiv_pos_as_xyz
  x,y,z
_cell_length_a	10.654534
_cell_length_b	9.130313
_cell_length_c	10.654551
_cell_angle_alpha	90.000991
_cell_angle_beta	84.481833
_cell_angle_gamma	89.998954
loop_
_atom_site_label
_atom_site_type_symbol
_atom_site_fract_x
_atom_site_fract_y
_atom_site_fract_z
O1	O	-1.667846	0.121819	-0.176298
O2	O	-1.167846	0.621819	0.323702
O3	O	-1.302365	0.121815	-0.193125
O4	O	-0.802365	0.621815	0.306875
O5	O	-1.493508	0.121816	-0.001972
O6	O	-0.993508	0.621816	0.498028
O7	O	-1.476703	0.121818	-0.367451
O8	O	-0.976703	0.621818	0.132549
O9	O	-1.493506	-0.121783	-0.001977
O10	O	-0.993506	0.378217	0.498023
O11	O	-1.302363	-0.121784	-0.193130
O12	O	-0.802363	0.378216	0.306870
O13	O	-1.667844	-0.121780	-0.176303
O14	O	-1.167844	0.378220	0.323697
Cu15	Cu	-1.485103	-0.144024	-0.184717
Cu16	Cu	-0.985103	0.355976	0.315283
Cu17	Cu	-1.485106	0.144060	-0.184711
Cu18	Cu	-0.985106	0.644060	0.315289
O19	O	-1.476701	-0.121781	-0.367456
O20	O	-0.976701	0.378219	0.132544
C21	C	-1.255566	0.000015	-0.191896
C22	C	-0.755566	0.500015	0.308104
C23	C	-1.116122	0.000014	-0.188212
C24	C	-0.616122	0.500014	0.311788
C25	C	-1.050615	-0.132774	-0.186481
C26	C	-0.550615	0.367226	0.313519
C27	C	-0.919595	-0.132778	-0.182999
C28	C	-0.419595	0.367222	0.317001
C29	C	-0.919598	0.132807	-0.182985
C30	C	-0.419598	0.632807	0.317015
C31	C	-1.050617	0.132809	-0.186458
C32	C	-0.550617	0.632809	0.313542
N33	N	-1.485110	-0.346647	-0.184721
N34	N	-0.985110	0.153353	0.315279
C35	C	-1.569770	-0.423299	-0.100107
C36	C	-1.069770	0.076701	0.399893
C37	C	-1.569767	-0.576635	-0.100092
C38	C	-1.069767	-0.076635	0.399908
C39	C	-1.400439	-0.576655	-0.269315
C40	C	-0.900439	-0.076655	0.230685
C41	C	-1.400438	-0.423321	-0.269323
C42	C	-0.900438	0.076679	0.230677
C43	C	-1.667534	-0.423288	-0.002411
C44	C	-1.167534	0.076712	0.497589
C45	C	-1.667531	-0.576625	-0.002396
C46	C	-1.167531	-0.076625	0.497604
C47	C	-0.714642	0.000017	-0.177542
C48	C	-0.214642	0.500017	0.322458
C49	C	-0.854083	0.000009	-0.181257
C50	C	-0.354083	0.500009	0.318743
C51	C	-1.492273	0.000019	0.044824
C52	C	-0.992273	0.500019	0.544824
C53	C	-1.488581	0.000027	0.184267
C54	C	-0.988581	0.500027	0.684267
N55	N	-1.485109	0.346682	-0.184697
N56	N	-0.985109	0.846682	0.315303
C57	C	-1.486849	0.132815	0.249773
C58	C	-0.986849	0.632815	0.749773
C59	C	-1.483369	0.132818	0.380793
C60	C	-0.983369	0.632818	0.880793
C61	C	-1.483358	-0.132767	0.380789
C62	C	-0.983358	0.367233	0.880789
C63	C	-1.486829	-0.132768	0.249771
C64	C	-0.986829	0.367232	0.749771
C65	C	-1.477936	0.000022	0.585749
C66	C	-0.977936	0.500022	1.085749
C67	C	-1.481630	0.000031	0.446306
C68	C	-0.981630	0.500031	0.946306
H69	H	-1.103945	-0.240905	-0.187909
H70	H	-0.603945	0.259095	0.312091
H71	H	-1.764043	-0.618241	-0.023909
H72	H	-1.264043	-0.118241	0.476091
H73	H	-1.488272	0.240946	0.196443
H74	H	-0.988272	0.740946	0.696443
H75	H	-1.331490	-0.360913	-0.338211
H76	H	-0.831490	0.139087	0.161789
H77	H	-0.866266	-0.240907	-0.181589
H78	H	-0.366266	0.259093	0.318411
H79	H	-1.103954	0.240948	-0.187864
H80	H	-0.603954	0.740948	0.312136
Cl81	Cl	-1.293999	-0.673055	-0.375667
Cl82	Cl	-0.793999	-0.173055	0.124333
H83	H	-1.758719	-0.375729	-0.032994
H84	H	-1.258719	0.124271	0.467006
Cl85	Cl	-1.481156	-0.299700	0.463146
Cl86	Cl	-0.981156	0.200300	0.963146
Cl87	Cl	-1.488991	-0.299715	0.167411
Cl88	Cl	-0.988991	0.200285	0.667411
Cl89	Cl	-1.634427	-0.359020	0.146620
Cl90	Cl	-1.134427	0.140980	0.646620
Cl91	Cl	-0.837245	0.299740	-0.180748
Cl92	Cl	-0.337245	0.799740	0.319252
H93	H	-1.637017	-0.624173	0.088825
H94	H	-1.137017	-0.124173	0.588825
Cl95	Cl	-1.481189	0.299759	0.463139
Cl96	Cl	-0.981189	0.799759	0.963139
