data_functionalizedCrystal
_audit_creation_method	'MofGen! by Chris Wilmer'
_symmetry_space_group_name_H-M	'P1'
_symmetry_Int_Tables_number	1
_symmetry_cell_setting	triclinic
loop_
_symmetry_equiv_pos_as_xyz
  x,y,z
_cell_length_a	10.723024
_cell_length_b	14.421503
_cell_length_c	10.723024
_cell_angle_alpha	90.005502
_cell_angle_beta	95.532131
_cell_angle_gamma	90.007403
loop_
_atom_site_label
_atom_site_type_symbol
_atom_site_fract_x
_atom_site_fract_y
_atom_site_fract_z
O1	O	1.657196	0.077103	-0.175010
O2	O	1.294044	0.077106	-0.191763
O3	O	1.483996	0.077101	-0.001811
O4	O	1.467243	0.077108	-0.364963
O5	O	1.483965	-0.077122	-0.001839
O6	O	1.294012	-0.077117	-0.191792
O7	O	1.657164	-0.077120	-0.175038
Cu8	Cu	1.475585	-0.091201	-0.183418
Cu9	Cu	1.475623	0.091186	-0.183384
O10	O	1.467212	-0.077115	-0.364991
C11	C	1.247528	-0.000005	-0.190558
C12	C	1.108974	-0.000004	-0.186911
N13	N	1.475568	-0.219482	-0.183440
C14	C	1.033991	-0.000002	-0.293198
C15	C	0.890788	-0.000000	-0.289431
C16	C	1.387718	-0.469133	-0.271235
C17	C	1.500687	-0.530936	-0.296421
C18	C	1.475598	-0.408643	-0.183411
C19	C	1.362659	-0.530934	-0.158254
C20	C	1.475617	-0.591365	-0.183385
C21	C	1.588625	-0.469086	-0.208654
C22	C	1.450522	-0.469078	-0.070437
C23	C	1.563572	-0.530853	-0.095576
C24	C	1.475586	-0.303382	-0.183429
C25	C	1.475643	-0.696624	-0.183366
C26	C	1.703680	-0.000007	-0.176243
C27	C	1.842234	-0.000002	-0.179891
C28	C	1.482762	-0.000010	0.044675
C29	C	1.479114	-0.000006	0.183229
N30	N	1.475650	0.219468	-0.183352
C31	C	1.468447	-0.000003	-0.411477
C32	C	1.472094	0.000000	-0.550031
C33	C	1.585401	-0.000006	0.258212
C34	C	1.581634	-0.000002	0.401415
H35	H	1.075814	-0.000005	-0.386984
H36	H	1.672624	-0.000006	0.465848
C37	C	1.529235	-0.567234	-0.423686
C38	C	1.638788	-0.620567	-0.409714
C39	C	1.665122	-0.654008	-0.526926
H40	H	1.461502	-0.604478	-0.458397
H41	H	1.540541	-0.516490	-0.477959
H42	H	1.627474	-0.671304	-0.355460
H43	H	1.706544	-0.583343	-0.375024
H44	H	1.676428	-0.603264	-0.581200
H45	H	1.597382	-0.691249	-0.561628
H46	H	1.739461	-0.690191	-0.517464
C47	C	1.235232	-0.566974	-0.129802
C48	C	1.155580	-0.491975	-0.113240
C49	C	1.038189	-0.525135	-0.087021
H50	H	1.200414	-0.604138	-0.197571
H51	H	1.244450	-0.603169	-0.055460
H52	H	1.146359	-0.455796	-0.187573
H53	H	1.190358	-0.454804	-0.045467
H54	H	1.047407	-0.561329	-0.012679
H55	H	1.003383	-0.562299	-0.154794
H56	H	0.984134	-0.474254	-0.075769
H57	H	0.826355	0.000006	-0.380421
H58	H	1.067152	0.000018	-0.093125
H59	H	1.684165	-0.442032	-0.230034
H60	H	1.381099	-0.000007	0.385544
H61	H	1.637979	-0.557783	-0.021292
C62	C	0.928278	0.000141	-0.058649
C63	C	1.003862	0.079474	-0.054077
C64	C	1.083162	0.079631	0.057584
H65	H	0.879395	0.000187	0.010665
H66	H	0.979703	-0.053612	-0.055331
H67	H	0.952443	0.133213	-0.057382
H68	H	1.052771	0.079444	-0.123365
H69	H	1.134586	0.025878	0.060901
H70	H	1.034269	0.079675	0.126888
H71	H	1.134462	0.133452	0.060695
H72	H	1.429259	-0.441886	0.025061
C73	C	1.288885	-0.433036	-0.370530
C74	C	1.315752	-0.464363	-0.488603
C75	C	1.224753	-0.431117	-0.580106
H76	H	1.208758	-0.455099	-0.353628
H77	H	1.289076	-0.367164	-0.369422
H78	H	1.315549	-0.530222	-0.489708
H79	H	1.395864	-0.442303	-0.505544
H80	H	1.224944	-0.365244	-0.578998
H81	H	1.144631	-0.453182	-0.563192
H82	H	1.242976	-0.452360	-0.660229
C83	C	1.710497	0.000187	0.202528
C84	C	1.778217	0.079545	0.242483
C85	C	1.893456	0.079762	0.191201
H86	H	1.756768	-0.053530	0.229472
H87	H	1.696457	0.000237	0.113683
H88	H	1.792261	0.079486	0.331308
H89	H	1.731984	0.133275	0.215540
H90	H	1.879415	0.079812	0.102357
H91	H	1.939715	0.026041	0.218149
H92	H	1.939412	0.133609	0.218294
H93	H	1.385328	0.000001	0.225051
