data_functionalizedCrystal
_audit_creation_method	'MofGen! by Chris Wilmer'
_symmetry_space_group_name_H-M	'P1'
_symmetry_Int_Tables_number	1
_symmetry_cell_setting	triclinic
loop_
_symmetry_equiv_pos_as_xyz
  x,y,z
_cell_length_a	9.065218
_cell_length_b	23.532407
_cell_length_c	8.140239
_cell_angle_alpha	89.991844
_cell_angle_beta	89.997198
_cell_angle_gamma	83.932281
loop_
_atom_site_label
_atom_site_type_symbol
_atom_site_fract_x
_atom_site_fract_y
_atom_site_fract_z
O1	O	1.956283	0.083497	-0.136637
O2	O	1.526661	0.090346	-0.136641
O3	O	1.754427	0.004085	-0.136609
O4	O	1.728517	0.169758	-0.136670
O5	O	1.754415	0.004084	0.136618
O6	O	1.526649	0.090345	0.136586
O7	O	1.956271	0.083496	0.136590
Zn8	Zn	1.741458	0.086921	0.179968
Zn9	Zn	1.741474	0.086922	-0.180020
O10	O	1.728504	0.169757	0.136558
C11	C	1.471701	0.089687	-0.000028
C12	C	1.307955	0.087719	-0.000028
C13	C	1.753761	-0.017136	0.000009
C14	C	1.751778	-0.080368	0.000021
C15	C	1.874123	-0.478573	-0.000068
C16	C	1.872280	-0.537986	-0.000080
O17	O	1.985695	-0.573898	-0.000140
N18	N	1.736873	-0.561607	-0.000080
C19	C	1.603300	-0.525810	-0.000085
O20	O	1.487956	-0.551356	-0.000087
C21	C	1.605144	-0.466397	-0.000084
C22	C	1.740560	-0.442780	-0.000067
C23	C	2.009527	-0.454955	-0.000053
C24	C	2.011370	-0.395546	-0.000037
C25	C	1.877807	-0.359753	-0.000037
C26	C	1.742402	-0.383371	-0.000052
C27	C	1.471573	-0.430601	-0.000100
C28	C	1.473429	-0.371185	-0.000100
C29	C	1.608845	-0.347568	-0.000084
C30	C	1.610682	-0.288169	-0.000035
N31	N	1.746089	-0.264548	-0.000035
C32	C	1.879651	-0.300341	-0.000036
C33	C	1.599437	-0.650581	-0.000089
C34	C	1.597591	-0.709992	-0.000078
C35	C	1.866571	-0.722165	-0.000077
C36	C	1.868416	-0.662752	-0.000076
C37	C	1.734844	-0.626960	-0.000089
C38	C	1.883510	-0.175576	-0.000002
C39	C	1.885340	-0.116160	0.000021
C40	C	1.616360	-0.103993	0.000011
C41	C	1.614529	-0.163403	-0.000003
C42	C	1.748116	-0.199194	-0.000015
O43	O	1.497326	-0.252222	0.000018
O44	O	1.994976	-0.274786	-0.000055
C45	C	2.011231	0.084155	-0.000027
C46	C	2.174977	0.086123	-0.000038
C47	C	1.729170	0.190979	-0.000064
C48	C	1.731154	0.254210	-0.000087
N49	N	1.741457	0.086919	0.425651
N50	N	1.741486	0.086919	-0.425703
H51	H	1.995617	-0.096935	0.000038
C52	C	2.154441	-0.493878	0.000206
C53	C	2.161226	-0.528358	0.140757
C54	C	2.294698	-0.564222	0.141053
H55	H	2.235458	-0.471367	0.000297
H56	H	2.159346	-0.517338	-0.095023
H57	H	2.156335	-0.504901	0.235962
H58	H	2.080240	-0.550882	0.140696
H59	H	2.299603	-0.587683	0.045823
H60	H	2.375705	-0.541706	0.141139
H61	H	2.299314	-0.587625	0.236406
H62	H	1.361303	-0.449820	-0.000123
C63	C	2.028434	-0.214495	0.000251
C64	C	2.035218	-0.248980	0.140794
C65	C	2.168688	-0.284844	0.141083
H66	H	2.109452	-0.191984	0.000349
H67	H	2.033339	-0.237953	-0.094984
H68	H	2.030327	-0.225525	0.236004
H69	H	1.954230	-0.271502	0.140726
H70	H	2.173593	-0.308302	0.045848
H71	H	2.249696	-0.262329	0.141177
H72	H	2.173303	-0.308249	0.236431
C73	C	2.158291	-0.369833	-0.000301
C74	C	2.167203	-0.336064	-0.140851
C75	C	2.302525	-0.312368	-0.141148
H76	H	2.237684	-0.399607	-0.000394
H77	H	2.164633	-0.346883	0.094929
H78	H	2.160875	-0.359013	-0.236056
H79	H	2.087841	-0.306281	-0.140788
H80	H	2.308867	-0.289418	-0.045918
H81	H	2.381907	-0.342145	-0.141236
H82	H	2.308584	-0.289449	-0.236501
C83	C	1.454449	-0.611696	-0.000416
C84	C	1.447618	-0.577233	-0.141003
C85	C	1.314071	-0.541414	-0.141374
H86	H	1.449425	-0.588218	0.094755
H87	H	1.373509	-0.634257	-0.000502
H88	H	1.528536	-0.554674	-0.140901
H89	H	1.452617	-0.600695	-0.236196
H90	H	1.233131	-0.563975	-0.141460
H91	H	1.309059	-0.517940	-0.046197
H92	H	1.309413	-0.518031	-0.236767
H93	H	1.364656	-0.342046	-0.000113
C94	C	2.015591	-0.637223	-0.000161
C95	C	2.132154	-0.681292	-0.000200
C96	C	2.267757	-0.657801	-0.000307
H97	H	2.022119	-0.614310	0.095088
H98	H	2.021989	-0.614314	-0.095485
H99	H	2.125759	-0.704192	0.095114
H100	H	2.125675	-0.704209	-0.095443
H101	H	2.274155	-0.634891	-0.095631
H102	H	2.274270	-0.634888	0.094944
H103	H	2.346861	-0.687697	-0.000349
C104	C	1.467357	-0.188938	-0.000101
C105	C	1.350785	-0.144873	-0.000134
C106	C	1.215188	-0.168370	-0.000268
H107	H	1.460821	-0.211866	0.095137
H108	H	1.460978	-0.211834	-0.095436
H109	H	1.357161	-0.121987	0.095191
H110	H	1.357272	-0.121942	-0.095365
H111	H	1.208809	-0.191266	-0.095603
H112	H	1.208667	-0.191297	0.094972
H113	H	1.136078	-0.138476	-0.000306
C114	C	1.471403	-0.065097	-0.000335
C115	C	1.464624	-0.030636	-0.140925
C116	C	1.331103	0.005198	-0.141324
H117	H	1.466383	-0.041618	0.094834
H118	H	1.390440	-0.087647	-0.000436
H119	H	1.545564	-0.008088	-0.140809
H120	H	1.469618	-0.054099	-0.236116
H121	H	1.250141	-0.017352	-0.141425
H122	H	1.326095	0.028673	-0.046149
H123	H	1.326480	0.028580	-0.236719
H124	H	1.487322	-0.729215	-0.000063
C125	C	2.011544	-0.761059	-0.000437
C126	C	2.018344	-0.795501	-0.141038
C127	C	2.151869	-0.831333	-0.141439
H128	H	2.016557	-0.784550	0.094724
H129	H	2.092502	-0.738507	-0.000525
H130	H	1.937408	-0.818051	-0.140935
H131	H	2.013356	-0.772025	-0.236222
H132	H	2.232827	-0.808780	-0.141527
H133	H	2.156870	-0.854820	-0.046272
H134	H	2.156507	-0.854702	-0.236842
