data_functionalizedCrystal
_audit_creation_method	'MofGen! by Chris Wilmer'
_symmetry_space_group_name_H-M	'P1'
_symmetry_Int_Tables_number	1
_symmetry_cell_setting	triclinic
loop_
_symmetry_equiv_pos_as_xyz
  x,y,z
_cell_length_a	31.640172
_cell_length_b	31.640171
_cell_length_c	14.809374
_cell_angle_alpha	67.418007
_cell_angle_beta	90.004769
_cell_angle_gamma	59.979319
loop_
_atom_site_label
_atom_site_type_symbol
_atom_site_fract_x
_atom_site_fract_y
_atom_site_fract_z
Zr1	Zr	0.412535	0.451606	-0.108073
O2	O	0.351777	0.526281	-0.239460
O3	O	0.431188	0.367551	-0.067763
O4	O	0.439994	0.438071	-0.239390
O5	O	0.335994	0.469708	0.067512
O6	O	0.509550	0.438064	-0.239372
O7	O	0.342971	0.455761	-0.067833
O8	O	0.493797	0.311916	0.067637
O9	O	0.351747	0.595856	-0.239498
O10	O	0.491019	0.405592	-0.050597
O11	O	0.433903	0.416006	0.050396
O12	O	0.444271	0.499035	-0.151673
O13	O	0.387155	0.509448	-0.050680
Zr14	Zr	0.512341	0.473839	0.107815
Zr15	Zr	0.523469	0.451595	-0.108044
Zr16	Zr	0.401407	0.473850	0.107787
Zr17	Zr	0.412486	0.562569	-0.108133
Zr18	Zr	0.512390	0.362875	0.107875
O19	O	0.493688	0.557894	0.067505
O20	O	0.509511	0.526265	-0.239419
O21	O	0.335954	0.557909	0.067464
O22	O	0.573099	0.399163	0.239203
O23	O	0.588922	0.367535	-0.067722
O24	O	0.415365	0.399179	0.239162
O25	O	0.588883	0.455736	-0.067770
O26	O	0.484882	0.487373	0.239132
O27	O	0.415326	0.487380	0.239114
O28	O	0.581905	0.469683	0.067575
O29	O	0.439924	0.595847	-0.239475
O30	O	0.484952	0.329597	0.239217
O31	O	0.573130	0.329588	0.239240
O32	O	0.581975	0.311907	0.067660
O33	O	0.342901	0.613537	-0.067918
O34	O	0.431079	0.613528	-0.067895
O35	O	0.480605	0.426409	0.151415
O36	O	0.537721	0.415996	0.050422
O37	O	0.490973	0.509438	-0.050653
O38	O	0.433857	0.519852	0.050340
C39	C	0.462500	0.323923	-0.000054
C40	C	0.462521	0.276816	-0.000029
C41	C	0.496935	-0.090079	0.074458
C42	C	0.496978	0.086880	0.074514
O43	O	0.526330	0.083679	0.137936
N44	N	0.462490	0.139674	-0.000074
C45	C	0.427991	0.148227	-0.074685
O46	O	0.398662	0.197191	-0.138132
C47	C	0.427951	-0.028732	-0.074744
C48	C	0.462438	-0.081525	-0.000145
C49	C	0.531419	-0.142869	0.149050
C50	C	0.531406	-0.187106	0.149039
C51	C	0.496909	-0.178552	0.074435
C52	C	0.462425	-0.125761	-0.000157
C53	C	0.393455	-0.020179	-0.149359
C54	C	0.393449	-0.064424	-0.149368
C55	C	0.427936	-0.117217	-0.074769
C56	C	0.427915	-0.161444	-0.074772
N57	N	0.462403	-0.214237	-0.000184
C58	C	0.496900	-0.222791	0.074420
C59	C	0.428014	0.241131	-0.074648
C60	C	0.428024	0.285370	-0.074633
C61	C	0.497011	0.224020	0.074566
C62	C	0.496999	0.179780	0.074554
C63	C	0.462502	0.188337	-0.000060
C64	C	0.496870	-0.315689	0.074391
C65	C	0.496853	-0.359926	0.074375
C66	C	0.427867	-0.298573	-0.074826
C67	C	0.427883	-0.254339	-0.074808
C68	C	0.462388	-0.262901	-0.000195
O69	O	0.398581	-0.158284	-0.138167
O70	O	0.526232	-0.271761	0.137844
C71	C	0.496948	-0.045843	0.074470
C72	C	0.462464	0.006948	-0.000122
C73	C	0.427966	0.015502	-0.074726
C74	C	0.462473	0.051188	-0.000107
C75	C	0.496970	0.042634	0.074497
C76	C	0.531458	-0.010160	0.149085
C77	C	0.531445	-0.054397	0.149073
C78	C	0.393479	0.068296	-0.149314
C79	C	0.393494	0.112530	-0.149296
C80	C	0.427991	0.103976	-0.074692
C81	C	0.323677	0.462736	-0.000165
C82	C	0.276582	0.462741	-0.000177
C83	C	0.008975	0.413943	0.052652
C84	C	-0.168012	0.413934	0.052672
O85	O	-0.170146	0.372456	0.097580
N86	N	-0.214543	0.462710	-0.000090
C87	C	-0.216827	0.511491	-0.052855
O88	O	-0.260467	0.552978	-0.097723
C89	C	-0.039842	0.511500	-0.052869
C90	C	0.006689	0.462720	-0.000112
C91	C	0.055504	0.365167	0.105406
C92	C	0.099748	0.365169	0.105396
C93	C	0.097462	0.413947	0.052632
C94	C	0.050933	0.462722	-0.000122
C95	C	-0.042127	0.560281	-0.105627
C96	C	0.002124	0.560279	-0.105624
C97	C	0.048655	0.511500	-0.052867
C98	C	0.092891	0.511502	-0.052895
N99	N	0.139423	0.462726	-0.000133
C100	C	0.141708	0.413949	0.052630
C101	C	-0.309745	0.511483	-0.052846
C102	C	-0.353992	0.511481	-0.052844
C103	C	-0.305173	0.413924	0.052685
C104	C	-0.260926	0.413926	0.052676
C105	C	-0.263214	0.462708	-0.000084
C106	C	0.234622	0.413957	0.052605
C107	C	0.278868	0.413963	0.052586
C108	C	0.230045	0.511520	-0.052938
C109	C	0.185803	0.511514	-0.052924
C110	C	0.188095	0.462728	-0.000146
O111	O	0.095064	0.552960	-0.097770
O112	O	0.185351	0.372470	0.097510
C113	C	-0.035269	0.413940	0.052662
C114	C	-0.081799	0.462716	-0.000092
C115	C	-0.084084	0.511493	-0.052855
C116	C	-0.126045	0.462714	-0.000090
C117	C	-0.123759	0.413936	0.052674
C118	C	-0.077228	0.365161	0.105436
C119	C	-0.032984	0.365163	0.105426
C120	C	-0.130616	0.560269	-0.105617
C121	C	-0.174857	0.560263	-0.105604
C122	C	-0.172572	0.511485	-0.052840
C123	C	0.601200	0.462708	-0.000093
C124	C	0.648294	0.462704	-0.000081
C125	C	0.476358	0.434898	-0.270136
C126	C	0.481082	0.425455	-0.361774
C127	C	0.462376	0.601521	-0.000204
C128	C	0.462355	0.648628	-0.000229
C129	C	0.459998	0.467599	-0.452770
C130	C	0.464881	0.457840	-0.547484
C131	C	0.448518	0.490546	0.269879
C132	C	0.443794	0.499989	0.361517
C133	C	0.601261	0.323909	-0.000018
C134	C	0.648376	0.276798	0.000019
C135	C	0.448580	0.351747	0.269953
C136	C	0.443876	0.314083	0.361617
C137	C	0.587341	0.351733	0.269989
C138	C	0.629732	0.314065	0.361665
C139	C	0.337535	0.573711	-0.270247
C140	C	0.295144	0.611379	-0.361923
C141	C	0.323615	0.601535	-0.000240
C142	C	0.276500	0.648646	-0.000277
C143	C	0.476296	0.573697	-0.270211
C144	C	0.481000	0.611361	-0.361874
C145	C	0.646125	0.249242	-0.052703
C146	C	0.690392	0.204980	-0.052688
C147	C	0.736909	0.188271	0.000056
C148	C	0.739159	0.215831	0.052780
C149	C	0.694893	0.260095	0.052759
C150	C	0.466045	0.301827	0.457403
C151	C	0.461623	0.266445	0.543539
C152	C	0.435036	0.243317	0.533886
C153	C	0.412864	0.255576	0.438089
C154	C	0.417283	0.290960	0.351956
C155	C	0.679458	0.290939	0.351999
C156	C	0.719294	0.255551	0.438130
C157	C	0.709402	0.243286	0.533925
C158	C	0.659671	0.266416	0.543589
C159	C	0.619837	0.301806	0.457459
C160	C	0.245418	0.634510	-0.352257
C161	C	0.205582	0.669912	-0.438388
C162	C	0.215474	0.682180	-0.534183
C163	C	0.265205	0.659047	-0.543847
C164	C	0.305039	0.623649	-0.457717
C165	C	0.278752	0.676206	0.052437
C166	C	0.234486	0.720478	0.052398
C167	C	0.187969	0.737188	-0.000350
C168	C	0.185718	0.709626	-0.053070
C169	C	0.229984	0.665357	-0.053036
C170	C	0.507591	0.634479	-0.352189
C171	C	0.512020	0.669863	-0.438308
C172	C	0.489854	0.682132	-0.534112
C173	C	0.463262	0.659009	-0.543795
C174	C	0.458837	0.623623	-0.457677
H175	H	0.525081	0.136797	0.135299
H176	H	0.524967	-0.322668	0.135148
H177	H	0.228143	0.642919	-0.095959
O178	O	0.687959	0.175257	-0.109553
H179	H	0.664917	0.158229	-0.079059
H180	H	0.438336	0.510904	-0.460555
H181	H	0.147838	0.723238	-0.096015
O182	O	0.784653	0.140528	0.000081
H183	H	0.782936	0.103599	0.033097
H184	H	0.487695	0.320656	0.465282
O185	O	0.531506	0.621244	-0.248863
H186	H	0.550746	0.643261	-0.256613
O187	O	0.151948	0.694845	-0.427945
H188	H	0.145288	0.719305	-0.386119
H189	H	0.687522	0.300920	0.274006
O190	O	0.789332	0.197804	0.109678
H191	H	0.819730	0.162391	0.100839
O192	O	0.275866	0.672282	-0.647175
H193	H	0.317137	0.650256	-0.639439
H194	H	0.486549	0.414531	-0.539692
O195	O	0.415090	0.557360	-0.648823
H196	H	0.415754	0.556024	-0.572811
H197	H	0.579349	0.320631	0.465343
H198	H	0.479681	0.256468	0.621532
O199	O	0.752369	0.205108	0.626821
H200	H	0.788607	0.191085	0.603996
H201	H	0.493461	0.710947	-0.604227
H202	H	0.524936	-0.402913	0.135127
O203	O	0.509780	0.368088	-0.351444
H204	H	0.509108	0.369426	-0.427458
H205	H	0.608253	0.262844	-0.095667
H206	H	0.365358	-0.057451	-0.210132
H207	H	-0.391875	0.551201	-0.095817
O208	O	0.172507	0.720366	-0.627079
H209	H	0.136269	0.734386	-0.604254
O210	O	0.430150	0.598696	-0.468143
H211	H	0.455630	0.553650	-0.431421
H212	H	0.696733	0.282527	0.095698
O213	O	0.430281	0.205142	0.626791
H214	H	0.450172	0.200501	0.695016
O215	O	-0.210742	0.361313	0.109586
H216	H	-0.186544	0.353230	0.056358
H217	H	0.391217	0.236739	0.430245
O218	O	-0.000367	0.612902	-0.162618
H219	H	0.021489	0.609471	-0.220902
O220	O	0.358671	0.598717	-0.468156
H221	H	0.384715	0.572049	-0.392178
H222	H	0.151929	0.773235	-0.000369
H223	H	0.365376	0.022800	-0.210112
O224	O	-0.302710	0.361312	0.109604
H225	H	-0.341296	0.369512	0.100743
O226	O	0.393455	0.304095	0.248643
H227	H	0.374259	0.282032	0.256412
H228	H	0.236328	0.742912	0.095333
O229	O	0.772929	0.230601	0.427697
H230	H	0.773111	0.245069	0.346613
O231	O	0.328922	0.658195	0.109315
H232	H	0.323044	0.684808	0.145944
H233	H	0.651624	0.256424	0.621597
O234	O	0.540700	0.694798	-0.427844
H235	H	0.540063	0.721461	-0.503817
H236	H	0.237354	0.624524	-0.274264
H237	H	0.445216	0.669004	-0.621810
H238	H	0.559490	-0.230089	0.209782
H239	H	0.559513	-0.149844	0.209803
H240	H	0.399935	0.328355	-0.135367
O241	O	0.534225	0.214799	0.155021
H242	H	0.513590	0.237561	0.198010
O243	O	0.390804	0.250363	-0.155126
H244	H	0.351974	0.277629	-0.151466
O245	O	0.390687	-0.197394	-0.155263
H246	H	0.366698	-0.198881	-0.207143
H247	H	0.399779	-0.291616	-0.135564
O248	O	0.568651	-0.111335	0.229524
H249	H	0.562905	-0.113479	0.304716
O250	O	0.568670	-0.019380	0.229540
H251	H	0.548034	0.003386	0.272523
O252	O	0.356298	0.169469	-0.229772
H253	H	0.317460	0.179761	-0.226148
O254	O	0.356267	0.077526	-0.229779
H255	H	0.332288	0.121671	-0.281631
H256	H	0.316755	0.374239	0.095551
H257	H	0.137632	0.325448	0.148351
O258	O	0.237099	0.361337	0.109515
H259	H	0.254432	0.343687	0.190565
O260	O	0.057975	0.312552	0.162307
H261	H	0.097767	0.278640	0.198974
H262	H	-0.311616	0.551209	-0.095817
H263	H	-0.080008	0.600003	-0.148587
H264	H	0.228193	0.551233	-0.095900
O265	O	0.135613	0.564123	-0.109827
H266	H	0.141459	0.598042	-0.146514
H267	H	0.004900	0.325442	0.148388
H268	H	-0.075374	0.325444	0.148391
H269	H	-0.212743	0.599987	-0.148575
H270	H	-0.132484	0.599990	-0.148586
