data_functionalizedCrystal
_audit_creation_method	'MofGen! by Chris Wilmer'
_symmetry_space_group_name_H-M	'P1'
_symmetry_Int_Tables_number	1
_symmetry_cell_setting	triclinic
loop_
_symmetry_equiv_pos_as_xyz
  x,y,z
_cell_length_a	18.050591
_cell_length_b	29.839131
_cell_length_c	18.050582
_cell_angle_alpha	89.966163
_cell_angle_beta	89.978183
_cell_angle_gamma	90.031233
loop_
_atom_site_label
_atom_site_type_symbol
_atom_site_fract_x
_atom_site_fract_y
_atom_site_fract_z
Zn1	Zn	1.135263	-0.178927	-0.419977
Zn2	Zn	1.635263	0.321073	0.080023
Zn3	Zn	1.135156	-0.254050	-0.295764
Zn4	Zn	1.635156	0.245950	0.204236
Zn5	Zn	1.011080	-0.178929	-0.295788
Zn6	Zn	1.511080	0.321071	0.204212
Zn7	Zn	1.011015	-0.254025	-0.419899
Zn8	Zn	1.511015	0.245975	0.080101
O9	O	1.073129	-0.216483	-0.357857
O10	O	1.573129	0.283517	0.142143
O11	O	1.239173	-0.188901	-0.403522
O12	O	1.739173	0.311099	0.096478
O13	O	1.118680	-0.244096	-0.191843
O14	O	1.618680	0.255904	0.308157
O15	O	1.027625	-0.116062	-0.312304
O16	O	1.527625	0.383938	0.187696
O17	O	1.239095	-0.244094	-0.312263
O18	O	1.739095	0.255906	0.187737
O19	O	1.118862	-0.116060	-0.403545
O20	O	1.618862	0.383940	0.096455
O21	O	1.027522	-0.188906	-0.191860
O22	O	1.527522	0.311094	0.308140
O23	O	0.907147	-0.188882	-0.312229
O24	O	1.407147	0.311118	0.187771
O25	O	1.027514	-0.244052	-0.523834
O26	O	1.527514	0.255948	-0.023834
O27	O	0.907099	-0.244054	-0.403413
O28	O	1.407099	0.255946	0.096587
O29	O	1.118798	-0.188877	-0.523891
O30	O	1.618798	0.311123	-0.023891
O31	O	1.118617	-0.316914	-0.312188
O32	O	1.618617	0.183086	0.187812
O33	O	1.027411	-0.316895	-0.403390
O34	O	1.527411	0.183105	0.096610
C35	C	0.880176	-0.216466	-0.357816
C36	C	1.380176	0.283534	0.142184
C37	C	0.797631	-0.216470	-0.357816
C38	C	1.297631	0.283530	0.142184
C39	C	1.073015	-0.333205	-0.357794
C40	C	1.573015	0.166795	0.142206
C41	C	1.073035	-0.383140	-0.357793
C42	C	1.573035	0.116860	0.142207
C43	C	0.598185	-0.186432	-0.308344
C44	C	1.098185	0.313568	0.191656
C45	C	0.548756	-0.227408	-0.290056
C46	C	1.048756	0.272592	0.209944
C47	C	0.646500	-0.216483	-0.357850
C48	C	1.146500	0.283517	0.142150
C49	C	0.548847	-0.175522	-0.376136
C50	C	1.048847	0.324478	0.123864
C51	C	0.500515	-0.216493	-0.357881
C52	C	1.000515	0.283507	0.142119
C53	C	0.598159	-0.257480	-0.339526
C54	C	1.098159	0.242520	0.160474
C55	C	0.598254	-0.205567	-0.425638
C56	C	1.098254	0.294433	0.074362
C57	C	0.548848	-0.246571	-0.407375
C58	C	1.048848	0.253429	0.092625
C59	C	0.730599	-0.216477	-0.357830
C60	C	1.230599	0.283523	0.142170
C61	C	0.416419	-0.216504	-0.357901
C62	C	0.916419	0.283496	0.142099
C63	C	1.120625	-0.692747	-0.405434
C64	C	1.620625	-0.192747	0.094566
C65	C	1.120706	-0.880420	-0.405479
C66	C	1.620706	-0.380420	0.094521
O67	O	1.161058	-0.904654	-0.445939
O68	O	1.661058	-0.404654	0.054061
N69	N	1.073255	-0.903925	-0.357940
N70	N	1.573255	-0.403925	0.142060
C71	C	1.025777	-0.880508	-0.310389
C72	C	1.525777	-0.380508	0.189611
O73	O	0.985413	-0.904806	-0.269961
O74	O	1.485413	-0.404806	0.230039
C75	C	1.025693	-0.692836	-0.310349
C76	C	1.525693	-0.192836	0.189651
C77	C	1.073152	-0.669334	-0.357886
C78	C	1.573152	-0.169334	0.142114
C79	C	1.168080	-0.669245	-0.452968
C80	C	1.668080	-0.169245	0.047032
C81	C	1.168062	-0.622329	-0.452953
C82	C	1.668062	-0.122329	0.047047
C83	C	1.120590	-0.598916	-0.405405
C84	C	1.620590	-0.098916	0.094595
C85	C	1.073135	-0.622418	-0.357871
C86	C	1.573135	-0.122418	0.142129
C87	C	0.978212	-0.669420	-0.262803
C88	C	1.478212	-0.169420	0.237197
C89	C	0.978194	-0.622499	-0.262799
C90	C	1.478194	-0.122499	0.237201
C91	C	1.025653	-0.598997	-0.310335
C92	C	1.525653	-0.098997	0.189665
C93	C	1.025644	-0.552090	-0.310309
C94	C	1.525644	-0.052090	0.189691
N95	N	1.073095	-0.528585	-0.357848
N96	N	1.573095	-0.028585	0.142152
C97	C	1.120568	-0.551998	-0.405396
C98	C	1.620568	-0.051998	0.094604
C99	C	1.025825	-0.979039	-0.310413
C100	C	1.525825	-0.479039	0.189587
C101	C	1.025847	-1.025957	-0.310422
C102	C	1.525847	-0.525957	0.189578
C103	C	1.120775	-1.025865	-0.405512
C104	C	1.620775	-0.525865	0.094488
C105	C	1.120756	-0.978947	-0.405499
C106	C	1.620756	-0.478947	0.094501
C107	C	1.073276	-0.955534	-0.357952
C108	C	1.573276	-0.455534	0.142048
C109	C	1.120527	-0.453473	-0.405362
C110	C	1.620527	0.046527	0.094638
C111	C	1.120508	-0.406553	-0.405341
C112	C	1.620508	0.093447	0.094659
C113	C	1.025577	-0.406648	-0.310253
C114	C	1.525577	0.093352	0.189747
C115	C	1.025599	-0.453564	-0.310271
C116	C	1.525599	0.046436	0.189729
C117	C	1.073077	-0.476975	-0.357831
C118	C	1.573077	0.023025	0.142169
O119	O	0.985307	-0.527826	-0.269876
O120	O	1.485307	-0.027826	0.230124
O121	O	1.160914	-0.527692	-0.445830
O122	O	1.660914	-0.027692	0.054170
C123	C	1.120643	-0.739663	-0.405448
C124	C	1.620643	-0.239663	0.094552
C125	C	1.073188	-0.763165	-0.357915
C126	C	1.573188	-0.263165	0.142085
C127	C	1.025715	-0.739751	-0.310367
C128	C	1.525715	-0.239751	0.189633
C129	C	1.073210	-0.810083	-0.357924
C130	C	1.573210	-0.310083	0.142076
C131	C	1.120682	-0.833496	-0.405472
C132	C	1.620682	-0.333496	0.094528
C133	C	1.168133	-0.809991	-0.453011
C134	C	1.668133	-0.309991	0.046989
C135	C	1.168116	-0.763076	-0.452997
C136	C	1.668116	-0.263076	0.047003
C137	C	0.978264	-0.763256	-0.262828
C138	C	1.478264	-0.263256	0.237172
C139	C	0.978286	-0.810172	-0.262845
C140	C	1.478286	-0.310172	0.237155
C141	C	1.025759	-0.833585	-0.310394
C142	C	1.525759	-0.333585	0.189606
C143	C	1.266834	-0.216500	-0.357899
C144	C	1.766834	0.283500	0.142101
C145	C	1.349380	-0.216507	-0.357916
C146	C	1.849380	0.283493	0.142084
C147	C	1.073161	-0.216461	-0.551563
C148	C	1.573161	0.283539	-0.051563
C149	C	1.073174	-0.216452	-0.634109
C150	C	1.573174	0.283548	-0.134109
C151	C	1.073263	-0.099304	-0.357936
C152	C	1.573263	0.400696	0.142064
C153	C	1.073320	-0.049370	-0.357970
C154	C	1.573320	0.450630	0.142030
C155	C	1.023580	-0.246407	-0.882903
C156	C	1.523580	0.253593	-0.382903
C157	C	1.005448	-0.205430	-0.833526
C158	C	1.505448	0.294570	-0.333526
C159	C	1.073237	-0.216386	-0.931229
C160	C	1.573237	0.283614	-0.431229
C161	C	1.091303	-0.257394	-0.833525
C162	C	1.591303	0.242606	-0.333525
C163	C	1.073205	-0.216421	-0.785244
C164	C	1.573205	0.283579	-0.285244
C165	C	1.055070	-0.175387	-0.882939
C166	C	1.555070	0.324613	-0.382939
C167	C	1.140957	-0.227378	-0.882942
C168	C	1.640957	0.272622	-0.382942
C169	C	1.122850	-0.186373	-0.833587
C170	C	1.622850	0.313627	-0.333587
C171	C	1.073254	-0.216367	-1.015328
C172	C	1.573254	0.283633	-0.515328
C173	C	1.073188	-0.216435	-0.701147
C174	C	1.573188	0.283565	-0.201147
C175	C	1.073139	-0.216472	-0.164905
C176	C	1.573139	0.283528	0.335095
C177	C	1.073270	-0.216354	-0.082360
C178	C	1.573270	0.283646	0.417640
H179	H	0.619847	-0.161046	-0.266434
H180	H	1.119847	0.338954	0.233566
Cl181	Cl	1.229372	-0.241733	-0.916484
Cl182	Cl	1.729372	0.258267	-0.416484
Cl183	Cl	0.631459	-0.310985	-0.315562
Cl184	Cl	1.131459	0.189015	0.184438
Cl185	Cl	1.031355	-0.121851	-0.916305
Cl186	Cl	1.531355	0.378149	-0.416305
H187	H	0.527322	-0.272018	-0.449253
H188	H	1.027322	0.227982	0.050747
H189	H	0.948165	-0.196145	-0.811820
H190	H	1.448165	0.303855	-0.311820
H191	H	1.206706	-0.603197	-0.491664
H192	H	1.706706	-0.103197	0.008336
Cl193	Cl	1.187665	-0.147156	-0.800362
Cl194	Cl	1.687665	0.352844	-0.300362
Cl195	Cl	0.515188	-0.241674	-0.201569
Cl196	Cl	1.015188	0.258326	0.298431
H197	H	1.159183	-0.472528	-0.444095
H198	H	1.659183	0.027472	0.055905
Cl199	Cl	0.918500	-0.593069	-0.203021
Cl200	Cl	1.418500	-0.093069	0.296979
H201	H	1.106598	-0.292059	-0.811820
H202	H	1.606598	0.207941	-0.311820
H203	H	0.620013	-0.196314	-0.482934
H204	H	1.120013	0.303686	0.017066
H205	H	0.527146	-0.140882	-0.391565
H206	H	1.027146	0.359118	0.108435
Cl207	Cl	1.180176	-0.377010	-0.465105
Cl208	Cl	1.680176	0.122990	0.034895
H209	H	1.206738	-0.688303	-0.491691
H210	H	1.706738	-0.188303	0.008309
Cl211	Cl	0.958722	-0.285532	-0.916342
Cl212	Cl	1.458722	0.214468	-0.416342
Cl213	Cl	1.180420	-0.949406	-0.465263
Cl214	Cl	1.680420	-0.449406	0.034737
H215	H	1.159430	-1.044936	-0.444227
H216	H	1.659430	-0.544936	0.055773
H217	H	0.987209	-1.045088	-0.271704
H218	H	1.487209	-0.545088	0.228296
Cl219	Cl	0.918541	-0.698954	-0.203041
Cl220	Cl	1.418541	-0.198954	0.296959
Cl221	Cl	0.965945	-0.483110	-0.250500
Cl222	Cl	1.465945	0.016890	0.249500
Cl223	Cl	0.966127	-0.949613	-0.250635
Cl224	Cl	1.466127	-0.449613	0.249365
Cl225	Cl	0.918619	-0.839711	-0.203076
Cl226	Cl	1.418619	-0.339711	0.296924
H227	H	0.986927	-0.387578	-0.271538
H228	H	1.486927	0.112422	0.228462
H229	H	1.206761	-0.743944	-0.491706
H230	H	1.706761	-0.243944	0.008294
H231	H	1.206790	-0.829063	-0.491724
H232	H	1.706790	-0.329063	0.008276
Cl233	Cl	0.918574	-0.733829	-0.203050
Cl234	Cl	1.418574	-0.233829	0.296950
