data_functionalizedCrystal
_audit_creation_method	'MofGen! by Chris Wilmer'
_symmetry_space_group_name_H-M	'P1'
_symmetry_Int_Tables_number	1
_symmetry_cell_setting	triclinic
loop_
_symmetry_equiv_pos_as_xyz
  x,y,z
_cell_length_a	23.532407
_cell_length_b	23.532407
_cell_length_c	9.730217
_cell_angle_alpha	89.992119
_cell_angle_beta	90.003937
_cell_angle_gamma	82.848678
loop_
_atom_site_label
_atom_site_type_symbol
_atom_site_fract_x
_atom_site_fract_y
_atom_site_fract_z
O1	O	0.755257	0.069134	-0.114132
O2	O	1.255257	0.569134	0.385868
O3	O	0.589394	0.079137	-0.114175
O4	O	1.089394	0.579137	0.385825
O5	O	0.677327	-0.008796	-0.114127
O6	O	1.177327	0.491204	0.385873
O7	O	0.667324	0.157067	-0.114180
O8	O	1.167324	0.657067	0.385820
O9	O	0.677324	-0.008797	0.114453
O10	O	1.177324	0.491203	0.614453
O11	O	0.589391	0.079136	0.114405
O12	O	1.089391	0.579136	0.614405
O13	O	0.755254	0.069133	0.114448
O14	O	1.255254	0.569133	0.614448
Zn15	Zn	0.672322	0.074135	0.150719
Zn16	Zn	1.172322	0.574135	0.650719
Zn17	Zn	0.672326	0.074136	-0.150445
Zn18	Zn	1.172326	0.574136	0.349555
O19	O	0.667321	0.157066	0.114400
O20	O	1.167321	0.657066	0.614400
C21	C	0.568176	0.078882	0.000110
C22	C	1.068176	0.578882	0.500110
C23	C	0.504959	0.078116	0.000095
C24	C	1.004959	0.578116	0.500095
C25	C	0.105856	0.125350	0.000143
C26	C	0.605856	0.625350	0.500143
C27	C	0.046456	0.124638	0.000151
C28	C	0.546456	0.624638	0.500151
O29	O	0.009711	0.168424	0.000187
O30	O	0.509711	0.668424	0.500187
N31	N	0.023830	0.072362	0.000166
N32	N	0.523830	0.572362	0.500166
C33	C	0.060607	0.020794	0.000185
C34	C	0.560607	0.520794	0.500185
O35	O	0.035908	-0.023737	0.000200
O36	O	0.535908	0.476263	0.500200
C37	C	0.120006	0.021506	0.000187
C38	C	0.620006	0.521506	0.500187
C39	C	0.142629	0.073785	0.000158
C40	C	0.642629	0.573785	0.500158
C41	C	0.128479	0.177625	0.000116
C42	C	0.628479	0.677625	0.500116
C43	C	0.187876	0.178336	0.000105
C44	C	0.687876	0.678336	0.500105
C45	C	0.224649	0.126772	0.000120
C46	C	0.724649	0.626772	0.500120
C47	C	0.202025	0.074496	0.000147
C48	C	0.702025	0.574496	0.500147
C49	C	0.156783	-0.030062	0.000216
C50	C	0.656783	0.469938	0.500216
C51	C	0.216185	-0.029345	0.000218
C52	C	0.716185	0.470655	0.500218
C53	C	0.238808	0.022934	0.000190
C54	C	0.738808	0.522934	0.500190
C55	C	0.298194	0.023643	0.000151
C56	C	0.798194	0.523643	0.500151
N57	N	0.320820	0.075920	0.000137
N58	N	0.820820	0.575920	0.500137
C59	C	0.284048	0.127484	0.000121
C60	C	0.784048	0.627484	0.500121
C61	C	-0.064135	0.019302	0.000185
C62	C	0.435865	0.519302	0.500185
C63	C	-0.123533	0.018589	0.000174
C64	C	0.376467	0.518589	0.500174
C65	C	-0.137680	0.122434	0.000143
C66	C	0.362320	0.622434	0.500143
C67	C	-0.078281	0.123146	0.000144
C68	C	0.421719	0.623146	0.500144
C69	C	-0.041509	0.071578	0.000171
C70	C	0.458491	0.571578	0.500171
C71	C	0.408784	0.128974	0.000097
C72	C	0.908784	0.628974	0.500097
C73	C	0.468186	0.129680	0.000080
C74	C	0.968186	0.629680	0.500080
C75	C	0.482329	0.025836	0.000119
C76	C	0.982329	0.525836	0.500119
C77	C	0.422932	0.025129	0.000128
C78	C	0.922932	0.525129	0.500128
C79	C	0.386160	0.076702	0.000122
C80	C	0.886160	0.576702	0.500122
O81	O	0.334974	-0.020119	0.000121
O82	O	0.834974	0.479881	0.500121
O83	O	0.308755	0.172007	0.000125
O84	O	0.808755	0.672007	0.500125
C85	C	0.677071	-0.030013	0.000167
C86	C	1.177071	0.469987	0.500167
C87	C	0.676305	-0.093230	0.000177
C88	C	1.176305	0.406770	0.500177
C89	C	0.723539	-0.492333	0.000114
C90	C	1.223539	0.007667	0.500114
C91	C	0.722827	-0.551733	0.000103
C92	C	1.222827	-0.051733	0.500103
O93	O	0.766613	-0.588478	0.000063
O94	O	1.266613	-0.088478	0.500063
N95	N	0.670551	-0.574359	0.000091
N96	N	1.170551	-0.074359	0.500091
C97	C	0.618983	-0.537582	0.000075
C98	C	1.118983	-0.037582	0.500075
O99	O	0.574452	-0.562281	0.000062
O100	O	1.074452	-0.062281	0.500062
C101	C	0.619695	-0.478182	0.000076
C102	C	1.119695	0.021818	0.500076
C103	C	0.671974	-0.455560	0.000102
C104	C	1.171974	0.044440	0.500102
C105	C	0.775814	-0.469710	0.000138
C106	C	1.275814	0.030290	0.500138
C107	C	0.776525	-0.410313	0.000152
C108	C	1.276525	0.089687	0.500152
C109	C	0.724961	-0.373540	0.000140
C110	C	1.224961	0.126460	0.500140
C111	C	0.672685	-0.396164	0.000115
C112	C	1.172685	0.103836	0.500115
C113	C	0.568127	-0.441406	0.000050
C114	C	1.068127	0.058594	0.500050
C115	C	0.568844	-0.382004	0.000050
C116	C	1.068844	0.117996	0.500050
C117	C	0.621123	-0.359381	0.000076
C118	C	1.121123	0.140619	0.500076
C119	C	0.621832	-0.299995	0.000117
C120	C	1.121832	0.200005	0.500117
N121	N	0.674109	-0.277368	0.000129
N122	N	1.174109	0.222632	0.500129
C123	C	0.725673	-0.314141	0.000141
C124	C	1.225673	0.185859	0.500141
C125	C	0.617491	-0.662324	0.000071
C126	C	1.117491	-0.162324	0.500071
C127	C	0.616778	-0.721722	0.000080
C128	C	1.116778	-0.221722	0.500080
C129	C	0.720623	-0.735869	0.000105
C130	C	1.220623	-0.235869	0.500105
C131	C	0.721335	-0.676470	0.000106
C132	C	1.221335	-0.176470	0.500106
C133	C	0.669767	-0.639698	0.000083
C134	C	1.169767	-0.139698	0.500083
C135	C	0.727163	-0.189405	0.000170
C136	C	1.227163	0.310595	0.500170
C137	C	0.727869	-0.130003	0.000188
C138	C	1.227869	0.369997	0.500188
C139	C	0.624025	-0.115860	0.000156
C140	C	1.124025	0.384140	0.500156
C141	C	0.623318	-0.175257	0.000144
C142	C	1.123318	0.324743	0.500144
C143	C	0.674891	-0.212029	0.000146
C144	C	1.174891	0.287971	0.500146
O145	O	0.578070	-0.263215	0.000151
O146	O	1.078070	0.236785	0.500151
O147	O	0.770196	-0.289433	0.000135
O148	O	1.270196	0.210567	0.500135
C149	C	0.776472	0.069388	0.000160
C150	C	1.276472	0.569388	0.500160
C151	C	0.839689	0.070154	0.000166
C152	C	1.339689	0.570154	0.500166
C153	C	0.667577	0.178283	0.000104
C154	C	1.167577	0.678283	0.500104
C155	C	0.668343	0.241500	0.000084
C156	C	1.168343	0.741500	0.500084
N157	N	0.672324	0.074133	0.356255
N158	N	1.172324	0.574133	0.856255
N159	N	0.672329	0.074132	-0.355982
N160	N	1.172329	0.574132	0.144018
C161	C	0.750220	-0.003709	0.356288
C162	C	1.250220	0.496291	0.856288
C163	C	0.789172	-0.042629	0.428244
C164	C	1.289172	0.457371	0.928244
C165	C	0.789178	-0.042630	0.572124
C166	C	1.289178	0.457370	1.072124
C167	C	0.750227	-0.003707	0.644051
C168	C	1.250227	0.496293	1.144051
C169	C	0.711275	0.035213	0.572095
C170	C	1.211275	0.535213	1.072095
C171	C	0.711274	0.035210	0.428211
C172	C	1.211274	0.535210	0.928211
C173	C	0.633377	0.113052	0.572062
C174	C	1.133377	0.613052	1.072062
C175	C	0.633373	0.113056	0.428182
C176	C	1.133373	0.613056	0.928182
C177	C	0.594425	0.151974	0.643989
C178	C	1.094425	0.651974	1.143989
C179	C	0.555475	0.190898	0.572032
C180	C	1.055475	0.690898	1.072032
C181	C	0.555471	0.190897	0.428144
C182	C	1.055471	0.690897	0.928144
C183	C	0.594421	0.151976	0.356226
C184	C	1.094421	0.651976	0.856226
H185	H	0.486602	0.172255	0.000056
H186	H	0.986602	0.672255	0.500056
H187	H	0.378852	0.170970	0.000096
H188	H	0.878852	0.670970	0.500096
H189	H	0.820894	-0.074323	0.630711
H190	H	1.320894	0.425677	1.130711
C191	C	0.783892	-0.229845	0.000184
C192	C	1.283892	0.270155	0.500184
H193	H	0.815123	-0.207856	0.000213
H194	H	1.315123	0.292144	0.500213
H195	H	0.785782	-0.253306	-0.079527
H196	H	1.285782	0.246694	0.420473
H197	H	0.785772	-0.253314	0.079905
H198	H	1.285772	0.246686	0.579905
C199	C	0.750224	-0.003713	0.802314
C200	C	1.250224	0.496287	1.302314
H201	H	0.721446	0.025037	0.834845
H202	H	1.221446	0.525037	1.334845
H203	H	0.786575	0.003896	0.834879
H204	H	1.286575	0.503896	1.334879
H205	H	0.742635	-0.040079	0.834857
H206	H	1.242635	0.459921	1.334857
C207	C	-0.148414	-0.038916	0.000181
C208	C	0.351586	0.461084	0.500181
H209	H	-0.189057	-0.031961	0.000171
H210	H	0.310943	0.468039	0.500171
H211	H	-0.135767	-0.060136	0.079893
H212	H	0.364233	0.439864	0.579893
H213	H	-0.135774	-0.060128	-0.079539
H214	H	0.364226	0.439872	0.420461
H215	H	0.770444	-0.111587	0.000213
H216	H	1.270444	0.388413	0.500213
H217	H	0.763906	-0.658056	0.000126
H218	H	1.263906	-0.158056	0.500126
H219	H	0.594429	0.151970	0.761143
H220	H	1.094429	0.651970	1.261143
C221	C	0.256634	-0.086070	0.000245
C222	C	0.756634	0.413930	0.500245
H223	H	0.295252	-0.078163	0.000246
H224	H	0.795252	0.421837	0.500246
H225	H	0.249801	-0.107522	-0.079453
H226	H	0.749801	0.392478	0.420547
H227	H	0.249809	-0.107516	0.079979
H228	H	0.749809	0.392484	0.579979
C229	C	0.088038	0.234351	0.000087
C230	C	0.588038	0.734351	0.500087
H231	H	0.110027	0.265581	0.000060
H232	H	0.610027	0.765581	0.500060
H233	H	0.064570	0.236242	0.079790
H234	H	0.564570	0.736242	0.579790
H235	H	0.064574	0.236232	-0.079641
H236	H	0.564574	0.736232	0.420359
C237	C	0.834033	-0.385436	0.000154
C238	C	1.334033	0.114564	0.500154
H239	H	0.864637	-0.415850	0.000143
H240	H	1.364637	0.084150	0.500143
H241	H	0.836478	-0.362563	0.079862
H242	H	1.336478	0.137437	0.579862
H243	H	0.836469	-0.362557	-0.079570
H244	H	1.336469	0.137443	0.420430
C245	C	0.512117	-0.341557	0.000030
C246	C	1.012117	0.158443	0.500030
H247	H	0.480883	-0.363542	0.000024
H248	H	0.980883	0.136458	0.500024
H249	H	0.510237	-0.318084	-0.079676
H250	H	1.010237	0.181916	0.420324
H251	H	0.510233	-0.318099	0.079756
H252	H	1.010233	0.181901	0.579756
H253	H	0.523750	0.222588	0.369564
H254	H	1.023750	0.722588	0.869564
H255	H	0.523761	0.222583	0.630604
H256	H	1.023761	0.722583	1.130604
H257	H	0.138375	-0.072634	0.000240
H258	H	0.638375	0.427366	0.500240
C259	C	0.398045	-0.032377	0.000145
C260	C	0.898045	0.467623	0.500145
H261	H	0.428456	-0.062984	0.000156
H262	H	0.928456	0.437016	0.500156
H263	H	0.375160	-0.034814	-0.079556
H264	H	0.875160	0.465186	0.420444
H265	H	0.375176	-0.034813	0.079876
H266	H	0.875176	0.465187	0.579876
H267	H	0.512280	-0.016146	0.000126
H268	H	1.012280	0.483854	0.500126
C269	C	0.559271	-0.746601	0.000062
C270	C	1.059271	-0.246601	0.500062
H271	H	0.528666	-0.716188	0.000047
H272	H	1.028666	-0.216188	0.500047
H273	H	0.556829	-0.769486	0.079765
H274	H	1.056829	-0.269486	0.579765
H275	H	0.556835	-0.769468	-0.079667
H276	H	1.056835	-0.269468	0.420333
H277	H	0.817806	-0.499645	0.000143
H278	H	1.317806	0.000355	0.500143
C279	C	0.777344	-0.776327	0.000092
C280	C	1.277344	-0.276327	0.500092
H281	H	0.769428	-0.814942	0.000069
H282	H	1.269428	-0.314942	0.500069
H283	H	0.798801	-0.769513	0.079802
H284	H	1.298801	-0.269513	0.579802
H285	H	0.798789	-0.769493	-0.079629
H286	H	1.298789	-0.269493	0.420371
C287	C	0.510618	-0.466278	0.000010
C288	C	1.010618	0.033722	0.500010
H289	H	0.480016	-0.435863	-0.000015
H290	H	0.980016	0.064137	0.499985
H291	H	0.508171	-0.489162	0.079712
H292	H	1.008171	0.010838	0.579712
H293	H	0.508184	-0.489146	-0.079720
H294	H	1.008184	0.010854	0.420280
C295	C	0.212753	0.235844	0.000100
C296	C	0.712753	0.735844	0.500100
H297	H	0.182339	0.266448	0.000109
H298	H	0.682339	0.766448	0.500109
H299	H	0.235629	0.238291	-0.079606
H300	H	0.735629	0.738291	0.420394
H301	H	0.235629	0.238279	0.079826
H302	H	0.735629	0.738279	0.579826
C303	C	-0.053402	0.180653	0.000125
C304	C	0.446598	0.680653	0.500125
H305	H	-0.083814	0.211258	0.000122
H306	H	0.416186	0.711258	0.500122
H307	H	-0.030525	0.183093	-0.079583
H308	H	0.469475	0.683093	0.420417
H309	H	-0.030525	0.183091	0.079849
H310	H	0.469475	0.683091	0.579849
H311	H	0.575496	-0.632386	0.000064
H312	H	1.075496	-0.132386	0.500064
C313	C	0.565812	-0.200144	0.000112
C314	C	1.065812	0.299856	0.500112
H315	H	0.535205	-0.169733	0.000098
H316	H	1.035205	0.330267	0.500098
H317	H	0.563369	-0.223034	0.079806
H318	H	1.063369	0.276966	0.579806
H319	H	0.563382	-0.223008	-0.079625
H320	H	1.063382	0.276992	0.420375
C321	C	0.567309	-0.075403	0.000135
C322	C	1.067309	0.424597	0.500135
H323	H	0.575225	-0.036789	0.000129
H324	H	1.075225	0.463211	0.500129
H325	H	0.545851	-0.082232	0.079831
H326	H	1.045851	0.417768	0.579831
H327	H	0.545864	-0.082224	-0.079600
H328	H	1.045864	0.417776	0.420400
H329	H	0.750224	-0.003708	0.239134
H330	H	1.250224	0.496292	0.739134
H331	H	0.820885	-0.074321	0.369669
H332	H	1.320885	0.425679	0.869669
H333	H	-0.167632	0.164421	0.000136
H334	H	0.332368	0.664421	0.500136
C335	C	-0.023690	-0.037426	0.000185
C336	C	0.476310	0.462574	0.500185
H337	H	-0.045677	-0.068658	0.000179
H338	H	0.454323	0.431342	0.500179
H339	H	-0.000219	-0.039315	0.079891
H340	H	0.499781	0.460685	0.579891
H341	H	-0.000230	-0.039306	-0.079541
H342	H	0.499770	0.460694	0.420459
C343	C	0.594418	0.151973	0.197962
C344	C	1.094418	0.651973	0.697962
H345	H	0.623191	0.123216	0.165437
H346	H	1.123191	0.623216	0.665437
H347	H	0.601997	0.188334	0.165392
H348	H	1.101997	0.688334	0.665392
H349	H	0.558063	0.144352	0.165419
H350	H	1.058063	0.644352	0.665419
