data_functionalizedCrystal
_audit_creation_method	'MofGen! by Chris Wilmer'
_symmetry_space_group_name_H-M	'P1'
_symmetry_Int_Tables_number	1
_symmetry_cell_setting	triclinic
loop_
_symmetry_equiv_pos_as_xyz
  x,y,z
_cell_length_a	16.992694
_cell_length_b	14.044220
_cell_length_c	16.053802
_cell_angle_alpha	92.799619
_cell_angle_beta	87.249047
_cell_angle_gamma	91.928550
loop_
_atom_site_label
_atom_site_type_symbol
_atom_site_fract_x
_atom_site_fract_y
_atom_site_fract_z
O1	O	1.057564	0.198305	-0.069327
O2	O	0.829125	0.196087	-0.069352
O3	O	0.939916	0.058952	-0.069331
O4	O	0.946774	0.335440	-0.069347
O5	O	0.933815	0.066468	0.069526
O6	O	0.823025	0.203602	0.069506
O7	O	1.051464	0.205821	0.069531
Zn8	Zn	0.936276	0.205905	0.091565
Zn9	Zn	0.944313	0.196003	-0.091386
O10	O	0.940673	0.342955	0.069511
C11	C	0.796663	0.196993	0.000074
C12	C	0.709024	0.188484	0.000065
C13	C	0.933863	0.027168	0.000098
C14	C	0.924909	-0.078736	0.000098
C15	C	0.664526	0.270580	0.000061
C16	C	0.582179	0.262581	0.000073
C17	C	0.544333	0.172483	0.000083
C18	C	0.588837	0.090381	0.000090
C19	C	0.671182	0.098382	0.000084
C20	C	0.298414	0.139322	0.000107
C21	C	0.216063	0.131327	0.000111
C22	C	0.209412	0.303528	0.000096
C23	C	0.291759	0.311521	0.000085
C24	C	0.336255	0.229419	0.000096
N25	N	0.460161	0.164304	0.000093
N26	N	0.420425	0.237599	0.000092
C27	C	0.908540	-0.272638	0.000084
C28	C	0.972046	-0.325460	0.000088
C29	C	0.962938	-0.433354	0.000080
C30	C	0.917647	-0.164734	0.000091
C31	C	1.083926	0.204915	0.000103
C32	C	1.171565	0.213424	0.000107
C33	C	0.946726	0.374740	0.000080
C34	C	0.955680	0.480643	0.000074
N35	N	0.930796	0.212662	0.216425
N36	N	0.949799	0.189239	-0.216245
C37	C	0.977958	0.154335	0.260127
C38	C	0.974132	0.159071	0.347533
C39	C	0.923149	0.222140	0.391235
C40	C	0.875982	0.280470	0.347526
C41	C	0.879804	0.275728	0.260122
C42	C	0.906453	0.242827	0.652642
C43	C	0.902637	0.247566	0.740052
C44	C	1.000787	0.126165	0.740053
C45	C	1.004608	0.121433	0.652647
C46	C	0.957438	0.179759	0.608946
N47	N	0.919240	0.226985	0.480578
N48	N	0.961343	0.174909	0.519604
H49	H	0.695334	0.343947	0.000052
C50	C	0.160458	0.393835	0.000094
N51	N	0.123586	0.461858	0.000098
H52	H	1.039190	0.078678	0.775642
C53	C	1.025994	0.094881	0.395602
N54	N	1.065051	0.046521	0.431807
C55	C	1.034044	0.084952	0.212063
N56	N	1.076286	0.032688	0.175863
C57	C	0.547202	-0.008728	0.000102
N58	N	0.515844	-0.083379	0.000108
C59	C	0.846546	0.316948	0.788123
N60	N	0.804301	0.369203	0.824329
H61	H	0.707411	0.031530	0.000086
C62	C	1.060689	0.052046	0.604581
N63	N	1.102931	-0.000216	0.568378
H64	H	0.847335	-0.308444	0.000075
H65	H	0.868047	0.290320	0.617067
C66	C	0.819891	0.349838	0.395602
N67	N	0.777642	0.402087	0.431811
H68	H	0.841398	0.323224	0.224540
H69	H	0.545952	0.329433	0.000069
H70	H	0.322568	0.384887	0.000067
C71	C	0.347350	0.049006	0.000114
N72	N	0.384212	-0.019025	0.000118
C73	C	0.174434	0.032209	0.000121
N74	N	0.143079	-0.042444	0.000127
C75	C	1.054738	-0.277087	0.000109
N76	N	1.117019	-0.240647	0.000129
