data_functionalizedCrystal
_audit_creation_method	'MofGen! by Chris Wilmer'
_symmetry_space_group_name_H-M	'P1'
_symmetry_Int_Tables_number	1
_symmetry_cell_setting	triclinic
loop_
_symmetry_equiv_pos_as_xyz
  x,y,z
_cell_length_a	12.759401
_cell_length_b	21.295417
_cell_length_c	21.295411
_cell_angle_alpha	89.971282
_cell_angle_beta	89.986764
_cell_angle_gamma	90.030668
loop_
_atom_site_label
_atom_site_type_symbol
_atom_site_fract_x
_atom_site_fract_y
_atom_site_fract_z
Zn1	Zn	1.606085	-0.250634	-0.355857
Zn2	Zn	2.106085	0.249366	0.144143
Zn3	Zn	1.605947	-0.355899	-0.250583
Zn4	Zn	2.105947	0.144101	0.249417
Zn5	Zn	1.430404	-0.250648	-0.250608
Zn6	Zn	1.930404	0.249352	0.249392
Zn7	Zn	1.430328	-0.355870	-0.355821
Zn8	Zn	1.930328	0.144130	0.144179
O9	O	1.518191	-0.303263	-0.303217
O10	O	2.018191	0.196737	0.196783
O11	O	1.753088	-0.264604	-0.341897
O12	O	2.253088	0.235396	0.158103
O13	O	1.582635	-0.341955	-0.162497
O14	O	2.082635	0.158045	0.337503
O15	O	1.453798	-0.162557	-0.264596
O16	O	1.953798	0.337443	0.235404
O17	O	1.752987	-0.341942	-0.264553
O18	O	2.252987	0.158058	0.235447
O19	O	1.582870	-0.162547	-0.341922
O20	O	2.082870	0.337453	0.158078
O21	O	1.453664	-0.264628	-0.162516
O22	O	1.953664	0.235372	0.337484
O23	O	1.283372	-0.264599	-0.264560
O24	O	1.783372	0.235401	0.235440
O25	O	1.453668	-0.341892	-0.443915
O26	O	1.953668	0.158108	0.056085
O27	O	1.283317	-0.341906	-0.341859
O28	O	1.783317	0.158094	0.158141
O29	O	1.582797	-0.264576	-0.443942
O30	O	2.082797	0.235424	0.056058
O31	O	1.582562	-0.443985	-0.264517
O32	O	2.082562	0.056015	0.235483
O33	O	1.453534	-0.443963	-0.341834
O34	O	1.953534	0.056037	0.158166
C35	C	1.245224	-0.303251	-0.303209
C36	C	1.745224	0.196749	0.196791
C37	C	1.128447	-0.303261	-0.303220
C38	C	1.628447	0.196739	0.196780
C39	C	1.073583	-0.343579	-0.343403
C40	C	1.573583	0.156421	0.156597
C41	C	0.963859	-0.343587	-0.343410
C42	C	1.463859	0.156413	0.156590
C43	C	0.963872	-0.262958	-0.263045
C44	C	1.463872	0.237042	0.236955
C45	C	1.073594	-0.262947	-0.263042
C46	C	1.573594	0.237053	0.236958
C47	C	1.128436	-0.383893	-0.383581
C48	C	1.628436	0.116107	0.116419
C49	C	1.073572	-0.424215	-0.423767
C50	C	1.573572	0.075785	0.076233
C51	C	0.963848	-0.424223	-0.423773
C52	C	1.463848	0.075777	0.076227
C53	C	0.908988	-0.383909	-0.383595
C54	C	1.408988	0.116091	0.116405
C55	C	1.518053	-0.466815	-0.303182
C56	C	2.018053	0.033185	0.196818
C57	C	1.518090	-0.536783	-0.303189
C58	C	2.018090	-0.036783	0.196811
C59	C	1.585335	-0.569640	-0.262971
C60	C	2.085335	-0.069640	0.237029
C61	C	1.585384	-0.635382	-0.262985
C62	C	2.085384	-0.135382	0.237015
C63	C	1.518170	-0.668265	-0.303210
C64	C	2.018170	-0.168265	0.196790
C65	C	1.450921	-0.635400	-0.343436
C66	C	1.950921	-0.135400	0.156564
C67	C	1.450881	-0.569659	-0.343425
C68	C	1.950881	-0.069659	0.156575
N69	N	1.426262	-0.771531	-0.308006
N70	N	1.926262	-0.271531	0.191994
N71	N	1.426303	-0.833983	-0.308013
N72	N	1.926303	-0.333983	0.191987
C73	C	1.518288	-0.866340	-0.303246
C74	C	2.018288	-0.366340	0.196754
N75	N	1.610232	-0.833886	-0.298461
N76	N	2.110232	-0.333886	0.201539
N77	N	1.610190	-0.771429	-0.298451
N78	N	2.110190	-0.271429	0.201549
C79	C	1.518206	-0.739550	-0.303227
C80	C	2.018206	-0.239550	0.196773
C81	C	1.585591	-0.970482	-0.263042
C82	C	2.085591	-0.470482	0.236958
C83	C	1.585642	-1.036226	-0.263060
C84	C	2.085642	-0.536226	0.236940
C85	C	1.451170	-1.036243	-0.343508
C86	C	1.951170	-0.536243	0.156492
C87	C	1.451129	-0.970500	-0.343493
C88	C	1.951129	-0.470500	0.156507
C89	C	1.518338	-0.937624	-0.303256
C90	C	2.018338	-0.437624	0.196744
C91	C	1.792224	-0.303275	-0.303226
C92	C	2.292224	0.196725	0.196774
C93	C	1.909001	-0.303280	-0.303230
C94	C	2.409001	0.196720	0.196770
C95	C	1.518239	-0.303229	-0.467408
C96	C	2.018239	0.196771	0.032592
C97	C	1.518260	-0.303215	-0.537376
C98	C	2.018260	0.196785	-0.037376
C99	C	1.518358	-0.139073	-0.303266
C100	C	2.018358	0.360927	0.196734
C101	C	1.518429	-0.069104	-0.303287
C102	C	2.018429	0.430896	0.196713
C103	C	1.585533	-0.343349	-1.036825
C104	C	2.085533	0.156651	-0.536825
C105	C	1.585514	-0.343369	-0.971082
C106	C	2.085514	0.156631	-0.471082
C107	C	1.518359	-0.303117	-0.938215
C108	C	2.018359	0.196883	-0.438215
C109	C	1.451200	-0.262853	-0.971097
C110	C	1.951200	0.237147	-0.471097
C111	C	1.451213	-0.262838	-1.036838
C112	C	1.951213	0.237162	-0.536838
N113	N	1.510334	-0.248037	-0.835010
N114	N	2.010334	0.251963	-0.335010
N115	N	1.510328	-0.248053	-0.772559
N116	N	2.010328	0.251947	-0.272559
C117	C	1.518313	-0.303159	-0.740141
C118	C	2.018313	0.196841	-0.240141
N119	N	1.526326	-0.358251	-0.772533
N120	N	2.026326	0.141749	-0.272533
N121	N	1.526338	-0.358234	-0.834990
N122	N	2.026338	0.141766	-0.334990
C123	C	1.518337	-0.303128	-0.866930
C124	C	2.018337	0.196872	-0.366930
C125	C	1.585443	-0.343446	-0.635982
C126	C	2.085443	0.156554	-0.135982
C127	C	1.585416	-0.343467	-0.570238
C128	C	2.085416	0.156533	-0.070238
C129	C	1.451108	-0.262945	-0.570254
C130	C	1.951108	0.237055	-0.070254
C131	C	1.451129	-0.262930	-0.635996
C132	C	1.951129	0.237070	-0.135996
C133	C	1.518302	-0.303179	-0.668856
C134	C	2.018302	0.196821	-0.168856
C135	C	1.518203	-0.303251	-0.139666
C136	C	2.018203	0.196749	0.360334
C137	C	1.518386	-0.303088	-0.069698
C138	C	2.018386	0.196912	0.430302
H139	H	0.919181	-0.457050	-0.456499
H140	H	1.419181	0.042950	0.043501
N141	N	1.382525	-1.069833	-0.384598
N142	N	1.882525	-0.569833	0.115402
N143	N	1.382571	-1.128530	-0.384605
N144	N	1.882571	-0.628530	0.115395
H145	H	1.334091	-1.152258	-0.413627
H146	H	1.834091	-0.652258	0.086373
H147	H	1.217779	-0.383892	-0.383579
H148	H	1.717779	0.116108	0.116421
H149	H	1.396521	-0.230080	-0.944332
H150	H	1.896521	0.269920	-0.444332
N151	N	1.382201	-0.536084	-0.384509
N152	N	1.882201	-0.036084	0.115491
N153	N	1.419107	-0.499352	-0.424632
N154	N	1.919107	0.000648	0.075368
H155	H	1.370602	-0.475638	-0.453648
H156	H	1.870602	0.024362	0.046352
H157	H	1.396534	-0.230052	-1.063603
H158	H	1.896534	0.269948	-0.563603
N159	N	1.654147	-0.384463	-1.070386
N160	N	2.154147	0.115537	-0.570386
N161	N	1.751096	-0.380294	-1.063052
N162	N	2.251096	0.119706	-0.563052
H163	H	1.799554	-0.409333	-1.086756
H164	H	2.299554	0.090667	-0.586756
H165	H	1.640136	-0.376221	-0.662738
H166	H	2.140136	0.123779	-0.162738
H167	H	1.396427	-0.230173	-0.543494
H168	H	1.896427	0.269827	-0.043494
N169	N	1.654109	-0.384502	-0.937503
N170	N	2.154109	0.115498	-0.437503
N171	N	1.714074	-0.420436	-0.966850
N172	N	2.214074	0.079564	-0.466850
H173	H	1.762521	-0.449487	-0.943137
H174	H	2.262521	0.050513	-0.443137
H175	H	1.396197	-0.662178	-0.376189
H176	H	1.896197	-0.162178	0.123811
N177	N	1.654006	-0.384605	-0.536666
N178	N	2.154006	0.115395	-0.036666
N179	N	1.713969	-0.420537	-0.566017
N180	N	2.213969	0.079463	-0.066017
H181	H	1.762412	-0.449592	-0.542307
H182	H	2.262412	0.050408	-0.042307
H183	H	1.396455	-0.230142	-0.662762
H184	H	1.896455	0.269858	-0.162762
N185	N	0.907837	-0.221795	-0.221994
N186	N	1.407837	0.278205	0.278006
N187	N	0.920060	-0.225892	-0.163900
N188	N	1.420060	0.274108	0.336100
H189	H	0.880486	-0.196822	-0.134904
H190	H	1.380486	0.303178	0.365096
N191	N	1.654238	-0.936882	-0.221953
N192	N	2.154238	-0.436882	0.278047
N193	N	1.617297	-0.900243	-0.181815
N194	N	2.117297	-0.400243	0.318185
H195	H	1.665781	-0.876512	-0.152798
H196	H	2.165781	-0.376512	0.347202
N197	N	1.129627	-0.221753	-0.222001
N198	N	1.629627	0.278247	0.277999
N199	N	1.080642	-0.185762	-0.186131
N200	N	1.580642	0.314238	0.313869
H201	H	1.120215	-0.156664	-0.157148
H202	H	1.620215	0.343336	0.342852
H203	H	1.118247	-0.457032	-0.456483
H204	H	1.618247	0.042968	0.043517
H205	H	1.396368	-0.943746	-0.376240
H206	H	1.896368	-0.443746	0.123760
H207	H	1.640063	-0.542874	-0.230209
H208	H	2.140063	-0.042874	0.269791
N209	N	1.654075	-0.668944	-0.221893
N210	N	2.154075	-0.168944	0.278107
N211	N	1.714072	-0.639583	-0.185970
N212	N	2.214072	-0.139583	0.314030
H213	H	1.762581	-0.663284	-0.156946
H214	H	2.262581	-0.163284	0.343054
H215	H	0.819643	-0.383914	-0.383609
H216	H	1.319643	0.116086	0.116391
H217	H	1.640407	-1.062977	-0.230311
H218	H	2.140407	-0.562977	0.269689
