data_functionalizedCrystal
_audit_creation_method	'MofGen! by Chris Wilmer'
_symmetry_space_group_name_H-M	'P1'
_symmetry_Int_Tables_number	1
_symmetry_cell_setting	triclinic
loop_
_symmetry_equiv_pos_as_xyz
  x,y,z
_cell_length_a	30.700619
_cell_length_b	30.706268
_cell_length_c	30.700862
_cell_angle_alpha	89.994898
_cell_angle_beta	120.003825
_cell_angle_gamma	60.017066
loop_
_atom_site_label
_atom_site_type_symbol
_atom_site_fract_x
_atom_site_fract_y
_atom_site_fract_z
O1	O	-0.384273	-0.298748	-0.012961
O2	O	-0.295065	-0.235418	0.012894
O3	O	-0.384254	-0.235426	-0.076300
O4	O	-0.295084	-0.298740	0.076234
O5	O	-0.311829	-0.307843	-0.076300
O6	O	-0.222640	-0.307836	0.012895
O7	O	-0.311848	-0.371165	-0.012960
Cu8	Cu	-0.260631	-0.346112	-0.000033
Cu9	Cu	-0.346282	-0.260471	-0.000033
O10	O	-0.222659	-0.371157	0.076234
C11	C	-0.071428	-0.110289	0.039193
C12	C	-0.097375	-0.057886	0.039561
C13	C	0.007449	-0.110291	0.039190
C14	C	-0.018619	-0.057888	0.039558
C15	C	-0.071399	-0.031441	0.039191
C16	C	-0.018647	-0.136616	0.039560
C17	C	-0.133920	-0.238007	0.024918
C18	C	-0.162793	-0.262999	0.020882
C19	C	-0.216757	-0.236055	0.018855
C20	C	-0.248073	-0.263147	0.014469
C21	C	-0.241843	-0.184120	0.020870
C22	C	-0.212966	-0.159134	0.024913
C23	C	-0.159001	-0.186080	0.026937
C24	C	-0.213376	0.158702	0.024909
C25	C	-0.242396	0.212548	0.020871
C26	C	-0.217465	0.239562	0.018840
C27	C	-0.248929	0.297946	0.014454
C28	C	-0.163506	0.212721	0.020855
C29	C	-0.134481	0.158875	0.024902
C30	C	-0.159425	0.131869	0.026926
C31	C	0.183332	-0.238015	0.024908
C32	C	0.233146	-0.263007	0.020863
C33	C	0.258150	-0.236065	0.018835
C34	C	0.312160	-0.263159	0.014446
C35	C	0.233336	-0.184132	0.020847
C36	C	0.183521	-0.159142	0.024890
C37	C	0.158526	-0.186091	0.026925
C38	C	-0.127695	-0.158982	0.031316
C39	C	-0.102738	-0.137383	0.034809
C40	C	0.061459	-0.137387	0.034804
C41	C	0.104512	-0.158988	0.031309
C42	C	-0.102868	0.026943	0.034805
C43	C	-0.127952	0.073482	0.031310
C44	C	-0.469721	-0.371843	-0.018852
C45	C	-0.523470	-0.344976	-0.015155
C46	C	-0.443650	-0.424245	-0.019221
C47	C	-0.390844	-0.371838	-0.018847
C48	C	-0.360259	-0.344966	-0.015145
C49	C	-0.364893	-0.424240	-0.019217
C50	C	-0.390868	-0.450688	-0.018851
C51	C	-0.360307	-0.508123	-0.015153
C52	C	-0.443627	-0.345514	-0.019217
C53	C	-0.535700	-0.110301	-0.503939
C54	C	-0.588474	-0.057901	-0.530273
C55	C	-0.535700	-0.110301	-0.425063
C56	C	-0.588474	-0.057901	-0.451517
C57	C	-0.614553	-0.031457	-0.503938
C58	C	-0.509741	-0.136626	-0.451518
C59	C	-0.393694	-0.238013	-0.552104
C60	C	-0.364662	-0.263004	-0.576930
C61	C	-0.389580	-0.236063	-0.628876
C62	C	-0.358098	-0.263153	-0.655794
C63	C	-0.443534	-0.184130	-0.655997
C64	C	-0.472565	-0.159145	-0.631173
C65	C	-0.447643	-0.186090	-0.579224
C66	C	-0.790426	0.158678	-0.631700
C67	C	-0.840238	0.212523	-0.656701
C68	C	-0.865224	0.239536	-0.629751
C69	C	-0.919227	0.297918	-0.656850
C70	C	-0.840399	0.212697	-0.577798
C71	C	-0.790596	0.158853	-0.552801
C72	C	-0.765610	0.131847	-0.579759
C73	C	-0.393693	-0.238014	-0.234854
C74	C	-0.364657	-0.263003	-0.180986
C75	C	-0.389574	-0.236062	-0.153964
C76	C	-0.358092	-0.263153	-0.095557
C77	C	-0.443523	-0.184131	-0.180811
C78	C	-0.472555	-0.159144	-0.234676
C79	C	-0.447638	-0.186093	-0.261695
C80	C	-0.479124	-0.158992	-0.552308
C81	C	-0.504218	-0.137394	-0.530854
C82	C	-0.504218	-0.137395	-0.366658
C83	C	-0.479124	-0.158992	-0.320103
C84	C	-0.668555	0.026926	-0.531042
C85	C	-0.711602	0.073462	-0.552648
O86	O	0.456495	-0.371178	-0.012971
O87	O	0.329833	-0.307851	0.012878
O88	O	0.329828	-0.307860	-0.076314
O89	O	0.456500	-0.371170	0.076221
O90	O	0.329854	-0.235441	-0.076316
O91	O	0.329859	-0.235432	0.012876
O92	O	0.456522	-0.298759	-0.012973
Cu93	Cu	0.393193	-0.260483	-0.000048
Cu94	Cu	0.393161	-0.346127	-0.000046
O95	O	0.456526	-0.298750	0.076219
O96	O	-0.311895	0.469676	-0.012971
O97	O	-0.222758	0.317198	0.012878
O98	O	-0.311921	0.406350	-0.076314
O99	O	-0.222732	0.380524	0.076221
O100	O	-0.384367	0.406351	-0.076312
O101	O	-0.295204	0.317199	0.012880
O102	O	-0.384341	0.469678	-0.012969
Cu103	Cu	-0.346387	0.393439	-0.000044
Cu104	Cu	-0.260712	0.393437	-0.000047
O105	O	-0.295178	0.380526	0.076223
O106	O	-1.063546	0.469643	-0.692448
O107	O	-0.936904	0.317169	-0.629110
O108	O	-0.936878	0.406330	-0.629103
O109	O	-1.063572	0.380482	-0.692454
O110	O	-0.936880	0.406332	-0.701549
O111	O	-0.936906	0.317171	-0.701556
O112	O	-1.063548	0.469645	-0.764894
Cu113	Cu	-1.000227	0.393408	-0.739840
Cu114	Cu	-1.000225	0.393406	-0.654164
O115	O	-1.063574	0.380484	-0.764900
O116	O	-0.295081	-0.298743	-0.764558
O117	O	-0.384254	-0.235425	-0.701218
O118	O	-0.295064	-0.235419	-0.701212
O119	O	-0.384271	-0.298749	-0.764564
O120	O	-0.222641	-0.307835	-0.628767
O121	O	-0.311831	-0.307841	-0.628772
O122	O	-0.222658	-0.371159	-0.692112
Cu123	Cu	-0.260632	-0.346112	-0.653827
Cu124	Cu	-0.346280	-0.260472	-0.739503
O125	O	-0.311848	-0.371165	-0.692118
C126	C	-0.137255	-0.450670	0.234773
C127	C	-0.083515	-0.508104	0.261650
C128	C	-0.163333	-0.424227	0.261108
C129	C	-0.216109	-0.371825	0.155898
C130	C	-0.246679	-0.344957	0.098442
C131	C	-0.242067	-0.345501	0.182353
C132	C	-0.216108	-0.371826	0.234774
C133	C	-0.246677	-0.344959	0.261653
C134	C	-0.163334	-0.424226	0.182352
C135	C	0.609167	-0.371831	0.234761
C136	C	0.639757	-0.344961	0.261640
C137	C	0.635115	-0.424231	0.261097
C138	C	0.530286	-0.371834	0.155885
C139	C	0.476535	-0.344967	0.098428
C140	C	0.556353	-0.424234	0.182340
C141	C	0.609137	-0.450677	0.234761
C142	C	0.639694	-0.508111	0.261640
C143	C	0.556384	-0.345507	0.182340
C144	C	-0.216186	0.374674	0.234759
C145	C	-0.246763	0.378377	0.261638
C146	C	-0.163398	0.374312	0.261092
C147	C	-0.216185	0.374660	0.155884
C148	C	-0.246760	0.378346	0.098429
C149	C	-0.163397	0.374297	0.182337
C150	C	-0.137312	0.374675	0.234756
C151	C	-0.083555	0.378379	0.261632
C152	C	-0.242152	0.374296	0.182340
C153	C	-0.071428	-0.031827	-0.503958
C154	C	-0.097406	-0.058273	-0.530293
C155	C	0.007424	-0.110670	-0.425081
C156	C	-0.018674	-0.136997	-0.451536
C157	C	-0.071458	-0.110674	-0.503957
C158	C	-0.018644	-0.058270	-0.451536
C159	C	-0.133803	0.158310	-0.552125
C160	C	-0.162649	0.212155	-0.576952
C161	C	-0.216616	0.239164	-0.628899
C162	C	-0.247900	0.297548	-0.655818
C163	C	-0.241733	0.212324	-0.656020
C164	C	-0.212883	0.158481	-0.631195
C165	C	-0.158916	0.131475	-0.579245
C166	C	-0.213529	-0.158827	-0.631721
C167	C	-0.242579	-0.183645	-0.656722
C168	C	-0.217676	-0.235569	-0.629772
C169	C	-0.249173	-0.262480	-0.656871
C170	C	-0.163714	-0.262677	-0.577817
C171	C	-0.134659	-0.237863	-0.552821
C172	C	-0.159576	-0.185933	-0.579778
C173	C	0.183347	-0.158808	-0.234870
C174	C	0.233165	-0.183620	-0.181002
C175	C	0.258141	-0.235546	-0.153980
C176	C	0.312154	-0.262451	-0.095572
C177	C	0.233296	-0.262656	-0.180826
C178	C	0.183478	-0.237841	-0.234692
C179	C	0.158511	-0.185917	-0.261712
C180	C	-0.127640	0.073092	-0.552329
C181	C	-0.102708	0.026555	-0.530874
C182	C	0.061437	-0.137573	-0.366675
C183	C	0.104493	-0.159017	-0.320120
C184	C	-0.102959	-0.137581	-0.531061
C185	C	-0.128070	-0.159028	-0.552668
O186	O	0.704795	-0.682787	0.298776
O187	O	0.615657	-0.530312	0.235430
O188	O	0.704815	-0.619473	0.235430
O189	O	0.615637	-0.593627	0.298776
O190	O	0.777264	-0.619468	0.307875
O191	O	0.688106	-0.530308	0.307875
O192	O	0.777244	-0.682782	0.371221
Cu193	Cu	0.739291	-0.606545	0.346163
Cu194	Cu	0.653610	-0.606550	0.260488
O195	O	0.688086	-0.593622	0.371221
C196	C	-0.614368	0.432569	-0.503942
C197	C	-0.588281	0.432931	-0.530278
C198	C	-0.535494	0.432583	-0.425070
C199	C	-0.509527	0.432945	-0.451525
C200	C	-0.535492	0.432567	-0.503945
C201	C	-0.588283	0.432947	-0.451522
C202	C	-0.790301	0.418287	-0.552099
C203	C	-0.840129	0.414247	-0.576923
C204	C	-0.865123	0.412211	-0.628869
C205	C	-0.919144	0.407820	-0.655784
C206	C	-0.840289	0.414220	-0.655990
C207	C	-0.790469	0.418267	-0.631168
C208	C	-0.765475	0.420301	-0.579220
C209	C	-0.473048	0.418264	-0.631707
C210	C	-0.444185	0.414222	-0.656708
C211	C	-0.390212	0.412198	-0.629760
C212	C	-0.358907	0.407808	-0.656859
C213	C	-0.365108	0.414223	-0.577808
C214	C	-0.393976	0.418274	-0.552811
C215	C	-0.447948	0.420291	-0.579766
C216	C	-0.473057	0.418345	-0.234863
C217	C	-0.444191	0.414312	-0.180996
C218	C	-0.390218	0.412290	-0.153976
C219	C	-0.358915	0.407915	-0.095570
C220	C	-0.365112	0.414296	-0.180823
C221	C	-0.393978	0.418327	-0.234688
C222	C	-0.447955	0.420356	-0.261705
C223	C	-0.711450	0.424684	-0.552308
C224	C	-0.668389	0.428180	-0.530855
C225	C	-0.504195	0.428210	-0.366666
C226	C	-0.479249	0.424726	-0.320111
C227	C	-0.504192	0.428177	-0.531049
C228	C	-0.479244	0.424679	-0.552655
H229	H	0.162982	-0.259961	0.026565
Cl230	Cl	-0.244500	-0.093850	0.027448
Cl231	Cl	-0.622179	-0.025125	-0.596774
Cl232	Cl	-0.244455	0.124743	-0.665289
Cl233	Cl	0.700688	-0.457008	0.327596
Cl234	Cl	-0.362418	0.420822	-0.487507
H235	H	-0.465490	-0.445477	-0.019816
Cl236	Cl	-0.444182	-0.203100	-0.418728
Cl237	Cl	0.015031	-0.203088	0.040467
H238	H	-0.233687	0.136716	0.026560
H239	H	0.253388	-0.161542	-0.159147
H240	H	-0.464635	0.412675	-0.159140
Cl241	Cl	-0.129646	-0.457009	0.327602
Cl242	Cl	0.522609	-0.457004	0.149561
H243	H	-0.286329	0.234397	0.019230
H244	H	-0.143201	0.234715	0.019209
H245	H	-0.090722	-0.259939	-0.510522
H246	H	-0.322419	-0.445469	-0.019805
Cl247	Cl	-0.296836	-0.328285	-0.147240
Cl248	Cl	-0.622144	-0.025107	-0.418712
H249	H	-0.465446	-0.302459	-0.019806
H250	H	-0.373398	-0.259959	-0.256849
Cl251	Cl	-0.362358	-0.271887	-0.486797
Cl252	Cl	-0.307736	0.373379	0.149548
H253	H	-0.284534	-0.302447	0.161112
Cl254	Cl	-0.065960	0.124363	-0.486820
Cl255	Cl	-0.296838	-0.328285	-0.542835
H256	H	-0.463819	-0.162199	-0.698292
H257	H	-0.141566	0.373723	0.304164
H258	H	-0.141506	-0.445458	0.161115
H259	H	0.003150	-0.180054	-0.430296
Cl260	Cl	0.264334	-0.328292	0.018329
H261	H	-0.139885	-0.037039	-0.573363
Cl262	Cl	-0.540389	-0.093865	-0.665267
H263	H	-0.770088	0.136692	-0.653654
Cl264	Cl	0.522704	-0.279037	0.149545
H265	H	-0.141568	0.373702	0.161094
Cl266	Cl	-0.131075	0.245892	-0.542857
H267	H	-0.463809	-0.162192	-0.158805
H268	H	-0.089980	-0.259953	0.026565
H269	H	0.003194	-0.037034	-0.430299
Cl270	Cl	0.151958	-0.093531	-0.268837
Cl271	Cl	-0.309570	0.246277	-0.721323
Cl272	Cl	-0.244849	-0.093547	-0.665610
H273	H	-0.286517	-0.161569	-0.699021
Cl274	Cl	-0.132400	-0.327955	-0.543936
H275	H	0.163253	-0.259918	-0.256547
Cl276	Cl	-0.362415	0.420852	-0.268435
H277	H	0.253638	-0.304940	-0.158823
H278	H	-0.467045	0.433537	-0.430283
Cl279	Cl	-0.622014	0.433878	-0.596788
Cl280	Cl	-0.131258	-0.328283	0.018345
Cl281	Cl	-0.621984	0.433861	-0.418727
H282	H	-0.517010	0.420000	-0.256859
Cl283	Cl	-0.758887	0.420848	-0.486798
Cl284	Cl	-0.540376	-0.093862	-0.268422
Cl285	Cl	-0.871341	0.411718	-0.542827
Cl286	Cl	-0.871711	0.411660	-0.721289
Cl287	Cl	-0.759256	0.420795	-0.665263
H288	H	-0.321165	0.412581	-0.555868
H289	H	-0.516995	0.419910	-0.653659
H290	H	-0.464628	0.412573	-0.699006
H291	H	-0.321161	0.412647	-0.158820
H292	H	-0.090547	0.137025	0.026545
H293	H	0.003226	-0.036660	0.040154
Cl294	Cl	-0.871439	0.246257	-0.722007
H295	H	-0.139843	-0.036657	0.040159
H296	H	-0.285779	-0.162188	0.019224
H297	H	0.253699	-0.162195	0.019197
Cl298	Cl	0.152334	-0.093858	0.027426
H299	H	-0.770389	0.137005	-0.510503
Cl300	Cl	-0.871814	0.246650	-0.543918
