data_functionalizedCrystal
_audit_creation_method	'MofGen! by Chris Wilmer'
_symmetry_space_group_name_H-M	'P1'
_symmetry_Int_Tables_number	1
_symmetry_cell_setting	triclinic
loop_
_symmetry_equiv_pos_as_xyz
  x,y,z
_cell_length_a	19.188930
_cell_length_b	15.944551
_cell_length_c	14.421503
_cell_angle_alpha	89.996660
_cell_angle_beta	90.021481
_cell_angle_gamma	83.321759
loop_
_atom_site_label
_atom_site_type_symbol
_atom_site_fract_x
_atom_site_fract_y
_atom_site_fract_z
O1	O	-0.926420	-0.104854	-0.077412
O2	O	-0.593087	0.228479	0.255922
O3	O	-0.259754	0.561812	0.589255
O4	O	-0.723145	-0.118971	-0.077348
O5	O	-0.389812	0.214362	0.255985
O6	O	-0.056479	0.547696	0.589318
O7	O	-0.830334	0.010383	-0.077374
O8	O	-0.497000	0.343716	0.255960
O9	O	-0.163667	0.677050	0.589293
O10	O	-0.819232	-0.234208	-0.077387
O11	O	-0.485898	0.099125	0.255947
O12	O	-0.152565	0.432458	0.589280
O13	O	-0.830316	0.010364	0.076850
O14	O	-0.496983	0.343697	0.410183
O15	O	-0.163649	0.677030	0.743517
O16	O	-0.723128	-0.118990	0.076875
O17	O	-0.389794	0.214343	0.410208
O18	O	-0.056461	0.547676	0.743542
O19	O	-0.926402	-0.104874	0.076812
O20	O	-0.593069	0.228460	0.410145
O21	O	-0.259736	0.561793	0.743478
Cu22	Cu	-0.824763	-0.111934	0.090925
Cu23	Cu	-0.491430	0.221400	0.424258
Cu24	Cu	-0.158097	0.554733	0.757592
Cu25	Cu	-0.824784	-0.111911	-0.091462
Cu26	Cu	-0.491451	0.221422	0.241871
Cu27	Cu	-0.158118	0.554756	0.575205
O28	O	-0.819214	-0.234228	0.076837
O29	O	-0.485881	0.099106	0.410170
O30	O	-0.152547	0.432439	0.743503
C31	C	-0.829864	0.041666	-0.000261
C32	C	-0.496531	0.374999	0.333072
C33	C	-0.163197	0.708332	0.666405
C34	C	-0.828482	0.134906	-0.000261
C35	C	-0.495149	0.468240	0.333073
C36	C	-0.161816	0.801573	0.666406
C37	C	-0.697124	-0.118524	-0.000229
C38	C	-0.363791	0.214810	0.333105
C39	C	-0.030458	0.548143	0.666438
C40	C	-0.619616	-0.117151	-0.000204
C41	C	-0.286283	0.216182	0.333129
C42	C	0.047050	0.549515	0.666462
C43	C	-0.952423	-0.105321	-0.000310
C44	C	-0.619090	0.228012	0.333023
C45	C	-0.285757	0.561346	0.666356
C46	C	-1.029932	-0.106693	-0.000341
C47	C	-0.696598	0.226640	0.332993
C48	C	-0.363265	0.559973	0.666326
C49	C	-0.574889	-0.193052	-0.000223
C50	C	-0.241555	0.140281	0.333110
C51	C	0.091778	0.473615	0.666444
C52	C	-0.502061	-0.191763	-0.000233
C53	C	-0.168728	0.141571	0.333100
C54	C	0.164605	0.474904	0.666434
C55	C	-0.473965	-0.114568	-0.000243
C56	C	-0.140632	0.218765	0.333090
C57	C	0.192701	0.552098	0.666424
C58	C	-0.518703	-0.038658	-0.000219
C59	C	-0.185369	0.294676	0.333114
C60	C	0.147964	0.628009	0.666448
C61	C	-0.591528	-0.039949	-0.000200
C62	C	-0.258195	0.293384	0.333134
C63	C	0.075138	0.626717	0.666467
N64	N	-0.365839	-0.055556	-0.052766
N65	N	-0.032505	0.277777	0.280567
N66	N	0.300828	0.611110	0.613901
N67	N	-0.296657	-0.054335	-0.052787
N68	N	0.036677	0.278998	0.280547
N69	N	0.370010	0.612332	0.613880
C70	C	-0.254547	-0.110673	-0.000300
C71	C	0.078787	0.222661	0.333034
C72	C	0.412120	0.555994	0.666367
N73	N	-0.284230	-0.168291	0.052197
N74	N	0.049103	0.165042	0.385530
N75	N	0.382437	0.498375	0.718864
N76	N	-0.353418	-0.169515	0.052213
N77	N	-0.020085	0.163818	0.385547
N78	N	0.313249	0.497151	0.718880
C79	C	-0.394999	-0.113160	-0.000263
C80	C	-0.061666	0.220174	0.333070
C81	C	0.271668	0.553507	0.666403
C82	C	-0.130851	-0.185181	-0.000328
C83	C	0.202483	0.148153	0.333005
C84	C	0.535816	0.481486	0.666339
C85	C	-0.058023	-0.183888	-0.000332
C86	C	0.275311	0.149445	0.333001
C87	C	0.608644	0.482778	0.666334
C88	C	-0.074666	-0.030781	-0.000328
C89	C	0.258668	0.302552	0.333006
C90	C	0.592001	0.635885	0.666339
C91	C	-0.147492	-0.032076	-0.000314
C92	C	0.185841	0.301257	0.333019
C93	C	0.519174	0.634591	0.666353
C94	C	-0.175580	-0.109278	-0.000319
C95	C	0.157753	0.224055	0.333015
C96	C	0.491087	0.557389	0.666348
C97	C	-0.819684	-0.265510	-0.000277
C98	C	-0.486350	0.067823	0.333056
C99	C	-0.153017	0.401157	0.666389
C100	C	-0.821066	-0.358751	-0.000284
C101	C	-0.487732	-0.025418	0.333049
C102	C	-0.154399	0.307916	0.666382
N103	N	-0.824754	-0.111949	0.219206
N104	N	-0.491420	0.221384	0.552540
N105	N	-0.158087	0.554718	0.885873
C106	C	-0.758739	0.349502	-0.000252
C107	C	-0.425406	0.682836	0.333082
C108	C	-0.092073	1.016169	0.666415
C109	C	-0.791117	0.410631	0.075780
C110	C	-0.457783	0.743964	0.409113
C111	C	-0.124450	1.077298	0.742446
C112	C	-0.825983	0.305623	-0.000267
C113	C	-0.492649	0.638956	0.333066
C114	C	-0.159316	0.972290	0.666400
C115	C	-0.791150	0.410634	-0.076272
C116	C	-0.457817	0.743967	0.257061
C117	C	-0.124484	1.077300	0.590394
C118	C	-0.823563	0.470527	-0.000277
C119	C	-0.490230	0.803860	0.333056
C120	C	-0.156896	1.137193	0.666390
C121	C	-0.858379	0.365524	0.075827
C122	C	-0.525045	0.698857	0.409161
C123	C	-0.191712	1.032190	0.742494
C124	C	-0.858403	0.365520	-0.076293
C125	C	-0.525069	0.698853	0.257040
C126	C	-0.191736	1.032186	0.590373
C127	C	-0.890829	0.426631	-0.000243
C128	C	-0.557496	0.759965	0.333090
C129	C	-0.224162	1.093298	0.666423
C130	C	-0.827374	0.210626	-0.000260
C131	C	-0.494041	0.543959	0.333073
C132	C	-0.160708	0.877292	0.666406
C133	C	-0.822176	0.565522	-0.000277
C134	C	-0.488843	0.898856	0.333056
C135	C	-0.155510	1.232189	0.666390
N136	N	-0.824800	-0.111889	-0.219743
N137	N	-0.491466	0.221445	0.113590
N138	N	-0.158133	0.554778	0.446923
C139	C	-0.775181	-0.171736	0.468872
C140	C	-0.441848	0.161598	0.802205
C141	C	-0.108514	0.494931	1.135538
C142	C	-0.838271	-0.187807	0.530653
C143	C	-0.504937	0.145526	0.863987
C144	C	-0.171604	0.478860	1.197320
C145	C	-0.824771	-0.111929	0.408368
C146	C	-0.491437	0.221404	0.741701
C147	C	-0.158104	0.554738	1.075034
C148	C	-0.761697	-0.095877	0.530680
C149	C	-0.428364	0.237456	0.864013
C150	C	-0.095031	0.570789	1.197347
C151	C	-0.824781	-0.111912	0.591089
C152	C	-0.491448	0.221422	0.924423
C153	C	-0.158115	0.554755	1.257756
C154	C	-0.887892	-0.128038	0.468789
C155	C	-0.554559	0.205295	0.802122
C156	C	-0.221226	0.538629	1.135455
C157	C	-0.811277	-0.036076	0.468810
C158	C	-0.477944	0.297258	0.802143
C159	C	-0.144611	0.630591	1.135477
C160	C	-0.874413	-0.052114	0.530564
C161	C	-0.541079	0.281219	0.863897
C162	C	-0.207746	0.614552	1.197230
C163	C	-0.824764	-0.111941	0.303107
C164	C	-0.491430	0.221392	0.636440
C165	C	-0.158097	0.554725	0.969773
C166	C	-0.824796	-0.111899	0.696348
C167	C	-0.491463	0.221435	1.029681
C168	C	-0.158129	0.554768	1.363015
H169	H	-0.597753	-0.255916	-0.000228
H170	H	-0.264419	0.077418	0.333105
H171	H	0.068914	0.410751	0.666438
H172	H	-0.799834	0.028044	0.441624
H173	H	-0.466501	0.361377	0.774957
H174	H	-0.133168	0.694710	1.108291
H175	H	-0.941248	-0.141684	0.441717
H176	H	-0.607915	0.191650	0.775051
H177	H	-0.274582	0.524983	1.108384
H178	H	-0.708353	-0.082309	0.557868
H179	H	-0.375019	0.251024	0.891201
H180	H	-0.041686	0.584358	1.224534
H181	H	-0.916399	-0.001527	0.557482
H182	H	-0.583066	0.331806	0.890815
H183	H	-0.249733	0.665139	1.224148
H184	H	-0.627946	0.021860	-0.000185
H185	H	-0.294613	0.355194	0.333148
H186	H	0.038720	0.688527	0.666482
H187	H	-0.733287	-0.222352	0.441784
H188	H	-0.399954	0.110981	0.775117
H189	H	-0.066621	0.444314	1.108450
H190	H	-0.849694	-0.251947	0.557818
H191	H	-0.516360	0.081386	0.891151
H192	H	-0.183027	0.414720	1.224484
H193	H	-0.021605	-0.245698	-0.000342
H194	H	0.311728	0.087635	0.332991
H195	H	0.645061	0.420968	0.666325
H196	H	-0.051791	0.032072	-0.000393
H197	H	0.281543	0.365405	0.332940
H198	H	0.614876	0.698739	0.666273
H199	H	-0.702924	0.315986	-0.000158
H200	H	-0.369591	0.649319	0.333175
H201	H	-0.036257	0.982652	0.666508
H202	H	-0.762708	0.430612	-0.140555
H203	H	-0.429374	0.763945	0.192778
H204	H	-0.096041	1.097279	0.526112
H205	H	-0.495822	0.024194	-0.000240
H206	H	-0.162489	0.357528	0.333093
H207	H	0.170844	0.690861	0.666427
H208	H	-0.886788	0.345632	0.140176
H209	H	-0.553455	0.678965	0.473509
H210	H	-0.220122	1.012298	0.806843
H211	H	-0.153721	-0.248043	-0.000318
H212	H	0.179612	0.085290	0.333015
H213	H	0.512946	0.418623	0.666349
H214	H	-0.465637	-0.253572	-0.000246
H215	H	-0.132304	0.079761	0.333088
H216	H	0.201030	0.413095	0.666421
H217	H	-0.762668	0.430625	0.140076
H218	H	-0.429335	0.763958	0.473409
H219	H	-0.096001	1.097292	0.806742
H220	H	-0.183911	0.029731	-0.000304
H221	H	0.149423	0.363064	0.333029
H222	H	0.482756	0.696398	0.666363
H223	H	-0.946693	0.459999	-0.000218
H224	H	-0.613360	0.793332	0.333116
H225	H	-0.280026	1.126666	0.666449
H226	H	-0.886827	0.345504	-0.140592
H227	H	-0.553494	0.678837	0.192741
H228	H	-0.220160	1.012170	0.526074
