data_functionalizedCrystal
_audit_creation_method	'MofGen! by Chris Wilmer'
_symmetry_space_group_name_H-M	'P1'
_symmetry_Int_Tables_number	1
_symmetry_cell_setting	triclinic
loop_
_symmetry_equiv_pos_as_xyz
  x,y,z
_cell_length_a	16.109301
_cell_length_b	16.109301
_cell_length_c	15.186229
_cell_angle_alpha	89.994833
_cell_angle_beta	89.999362
_cell_angle_gamma	83.461481
loop_
_atom_site_label
_atom_site_type_symbol
_atom_site_fract_x
_atom_site_fract_y
_atom_site_fract_z
O1	O	1.103131	0.106866	-0.073176
O2	O	0.861069	0.120165	-0.073190
O3	O	0.988749	-0.007515	-0.073174
O4	O	0.975450	0.234547	-0.073192
O5	O	0.988741	-0.007517	0.073284
O6	O	0.861060	0.120164	0.073267
O7	O	1.103122	0.106864	0.073282
Zn8	Zn	0.982090	0.113514	0.096528
Zn9	Zn	0.982101	0.113516	-0.096436
O10	O	0.975441	0.234545	0.073265
C11	C	0.830090	0.119626	0.000037
C12	C	0.737794	0.118011	0.000032
C13	C	0.515522	0.190018	0.000036
C14	C	0.428801	0.188494	0.000042
C15	C	0.448676	0.037006	0.000050
C16	C	0.535394	0.038530	0.000051
C17	C	0.568815	0.115039	0.000039
C18	C	0.395376	0.111990	0.000045
C19	C	0.301350	0.110337	0.000051
C20	C	0.662847	0.116693	0.000035
C21	C	0.988206	-0.038491	0.000056
C22	C	0.986591	-0.130786	0.000057
C23	C	1.058599	-0.353059	0.000047
C24	C	1.057075	-0.439779	0.000040
C25	C	0.905586	-0.419905	0.000034
C26	C	0.907111	-0.333186	0.000035
C27	C	0.983620	-0.299766	0.000046
C28	C	0.980571	-0.473205	0.000038
C29	C	0.978918	-0.567231	0.000030
C30	C	0.985273	-0.205734	0.000052
C31	C	1.134101	0.107404	0.000053
C32	C	1.226397	0.109019	0.000052
C33	C	0.975984	0.265521	0.000034
C34	C	0.977600	0.357816	0.000027
N35	N	0.982088	0.113511	0.228220
N36	N	0.982109	0.113512	-0.228129
C37	C	1.038644	0.056994	0.453950
C38	C	1.038647	0.056992	0.546140
C39	C	0.925547	0.170032	0.546135
C40	C	0.925541	0.170030	0.453947
C41	C	0.982094	0.113511	0.407857
C42	C	0.982103	0.113512	0.592235
C43	C	0.982105	0.113510	0.692191
C44	C	0.982091	0.113512	0.307894
H45	H	0.421454	-0.025285	0.000065
O46	O	0.376914	0.261252	0.000071
C47	C	0.293206	0.243505	0.000053
H48	H	0.289900	0.178204	0.027789
H49	H	0.253903	0.291302	0.042567
H50	H	0.268127	0.246661	-0.070211
O51	O	0.587051	-0.034386	0.000013
C52	C	0.538960	-0.102241	0.000038
H53	H	0.474231	-0.081127	-0.027693
H54	H	0.570970	-0.154772	-0.042479
H55	H	0.532792	-0.125696	0.070302
O56	O	0.870503	0.224851	0.590871
C57	C	0.788208	0.211323	0.568338
H58	H	0.787821	0.144757	0.543003
H59	H	0.746487	0.220873	0.628969
H60	H	0.763770	0.257399	0.514825
O61	O	1.132989	-0.320731	0.000008
C62	C	1.198839	-0.386369	0.000026
H63	H	1.175544	-0.445269	-0.027699
H64	H	1.252252	-0.368261	-0.042498
H65	H	1.221970	-0.398654	0.070288
H66	H	1.118130	-0.483168	0.000039
H67	H	0.846050	-0.289792	0.000032
O68	O	1.093442	0.002021	0.409101
C69	C	1.048898	-0.049294	0.355831
H70	H	0.983851	-0.016167	0.342001
H71	H	1.083598	-0.062495	0.291012
H72	H	1.043227	-0.110716	0.391404
O73	O	0.831342	-0.452510	0.000071
C74	C	0.846072	-0.540478	0.000051
H75	H	0.910958	-0.560864	0.027779
H76	H	0.797119	-0.567092	0.042573
H77	H	0.842048	-0.564612	-0.070211
O78	O	0.870721	0.224972	0.409070
C79	C	0.915229	0.276287	0.355751
H80	H	0.980292	0.243190	0.341941
H81	H	0.880522	0.289428	0.290924
H82	H	0.920862	0.337738	0.391269
O83	O	1.093662	0.002061	0.590779
C84	C	1.143557	-0.047836	0.530326
H85	H	1.144481	-0.013747	0.464609
H86	H	1.209955	-0.060500	0.556959
H87	H	1.116582	-0.109607	0.520529
H88	H	0.542730	0.252317	0.000034
