data_functionalizedCrystal
_audit_creation_method	'MofGen! by Chris Wilmer'
_symmetry_space_group_name_H-M	'P1'
_symmetry_Int_Tables_number	1
_symmetry_cell_setting	triclinic
loop_
_symmetry_equiv_pos_as_xyz
  x,y,z
_cell_length_a	19.077105
_cell_length_b	16.625545
_cell_length_c	19.076919
_cell_angle_alpha	87.727920
_cell_angle_beta	89.923776
_cell_angle_gamma	87.721938
loop_
_atom_site_label
_atom_site_type_symbol
_atom_site_fract_x
_atom_site_fract_y
_atom_site_fract_z
Zn1	Zn	1.058264	-0.390077	0.440420
Zn2	Zn	1.558264	0.109923	0.940420
Zn3	Zn	1.062901	-0.519720	0.322913
Zn4	Zn	1.562901	-0.019720	0.822913
Zn5	Zn	0.945482	-0.379275	0.318213
Zn6	Zn	1.445482	0.120725	0.818213
Zn7	Zn	0.940723	-0.519233	0.435666
Zn8	Zn	1.440723	-0.019233	0.935666
O9	O	1.001842	-0.452076	0.379303
O10	O	1.501842	0.047924	0.879303
O11	O	1.157211	-0.411998	0.428789
O12	O	1.657211	0.088002	0.928789
O13	O	1.051258	-0.496772	0.223959
O14	O	1.551258	0.003228	0.723959
O15	O	0.960493	-0.267879	0.334446
O16	O	1.460493	0.232121	0.834446
O17	O	1.160618	-0.507246	0.342457
O18	O	1.660618	-0.007246	0.842457
O19	O	1.043354	-0.275815	0.424231
O20	O	1.543354	0.224185	0.924231
O21	O	0.964990	-0.393588	0.220505
O22	O	1.464990	0.106412	0.720505
O23	O	0.846519	-0.393117	0.329837
O24	O	1.346519	0.106883	0.829837
O25	O	0.952383	-0.506417	0.534628
O26	O	1.452383	-0.006417	1.034628
O27	O	0.843023	-0.495944	0.416129
O28	O	1.343023	0.004056	0.916129
O29	O	1.038739	-0.411526	0.538120
O30	O	1.538739	0.088474	1.038120
O31	O	1.046644	-0.632484	0.337848
O32	O	1.546644	-0.132484	0.837848
O33	O	0.956880	-0.632127	0.420687
O34	O	1.456880	-0.132127	0.920687
C35	C	0.819274	-0.443306	0.371957
C36	C	1.319274	0.056694	0.871957
C37	C	0.741170	-0.439574	0.368832
C38	C	1.241170	0.060426	0.868832
C39	C	0.702678	-0.491432	0.412220
C40	C	1.202678	0.008568	0.912220
C41	C	0.629291	-0.487915	0.409287
C42	C	1.129291	0.012085	0.909287
C43	C	0.594397	-0.432544	0.362960
C44	C	1.094397	0.067456	0.862960
C45	C	0.632895	-0.380681	0.319570
C46	C	1.132895	0.119319	0.819570
C47	C	0.706281	-0.384194	0.322508
C48	C	1.206281	0.115806	0.822508
C49	C	0.375110	-0.416283	0.349368
C50	C	0.875110	0.083717	0.849368
C51	C	0.301719	-0.412775	0.346432
C52	C	0.801719	0.087225	0.846432
C53	C	0.298120	-0.520009	0.436150
C54	C	0.798120	-0.020009	0.936150
C55	C	0.371507	-0.523521	0.439080
C56	C	0.871507	-0.023521	0.939080
C57	C	0.409999	-0.471655	0.395693
C58	C	0.909999	0.028345	0.895693
N59	N	0.519384	-0.428950	0.359959
N60	N	1.019384	0.071050	0.859959
N61	N	0.485011	-0.475246	0.398698
N62	N	0.985011	0.024754	0.898698
C63	C	1.001767	-0.661562	0.379278
C64	C	1.501767	-0.161562	0.879278
C65	C	1.001798	-0.751186	0.379293
C66	C	1.501798	-0.251186	0.879293
C67	C	1.001825	-0.823970	0.379308
C68	C	1.501825	-0.323970	0.879308
C69	C	1.001865	-0.915281	0.379325
C70	C	1.501865	-0.415281	0.879325
C71	C	1.001901	-0.988060	0.379336
C72	C	1.501901	-0.488060	0.879336
C73	C	1.001941	-1.079376	0.379352
C74	C	1.501941	-0.579376	0.879352
C75	C	1.185123	-0.460881	0.386678
C76	C	1.685123	0.039119	0.886678
C77	C	1.263227	-0.464633	0.389820
C78	C	1.763227	0.035367	0.889820
C79	C	0.994513	-0.460122	0.562583
C80	C	1.494513	0.039878	1.062583
C81	C	0.991389	-0.463551	0.640686
C82	C	1.491389	0.036449	1.140686
C83	C	1.001937	-0.241773	0.379344
C84	C	1.501937	0.258227	0.879344
C85	C	1.001977	-0.152155	0.379362
C86	C	1.501977	0.347845	0.879362
C87	C	1.009184	-0.444005	0.196737
C88	C	1.509184	0.055995	0.696737
C89	C	1.012444	-0.440355	0.118640
C90	C	1.512444	0.059645	0.618640
C91	C	1.034881	-0.415760	0.679199
C92	C	1.534881	0.084240	1.179199
C93	C	1.031938	-0.418978	0.752584
C94	C	1.531938	0.081022	1.252584
C95	C	0.985506	-0.469993	0.787457
C96	C	1.485506	0.030007	1.287457
C97	C	0.942010	-0.517786	0.748939
C98	C	1.442010	-0.017786	1.248939
C99	C	0.944950	-0.514563	0.675554
C100	C	1.444950	-0.014563	1.175554
C101	C	0.971888	-0.484926	1.006738
C102	C	1.471888	0.015074	1.506738
C103	C	0.968952	-0.488147	1.080128
C104	C	1.468952	0.011853	1.580128
C105	C	1.058880	-0.389338	1.083768
C106	C	1.558880	0.110662	1.583768
C107	C	1.061819	-0.386123	1.010382
C108	C	1.561819	0.113877	1.510382
C109	C	1.018320	-0.433913	0.971871
C110	C	1.518320	0.066087	1.471871
N111	N	0.982498	-0.473285	0.862469
N112	N	1.482498	0.026715	1.362469
N113	N	1.021325	-0.430615	0.896860
N114	N	1.521325	0.069385	1.396860
H115	H	1.072693	-0.374221	0.650811
H116	H	1.572693	0.125779	1.150811
O117	O	0.416617	-0.360345	0.302568
O118	O	0.916617	0.139655	0.802568
H119	H	0.473509	-0.372079	0.312396
H120	H	0.973509	0.127921	0.812396
O121	O	0.918862	-0.543162	1.117746
O122	O	1.418862	-0.043162	1.617746
H123	H	0.931436	-0.606405	1.104133
H124	H	1.431436	-0.106405	1.604133
H125	H	0.604479	-0.335593	0.281853
H126	H	1.104479	0.164407	0.781853
O127	O	0.891927	-0.572805	0.786552
O128	O	1.391927	-0.072805	1.286552
H129	H	0.862173	-0.605490	0.747440
H130	H	1.362173	-0.105490	1.247440
H131	H	1.094293	-0.350428	1.115132
H132	H	1.594293	0.149572	1.615132
O133	O	0.587776	-0.543995	0.455949
O134	O	1.087776	-0.043995	0.955949
H135	H	0.624371	-0.583149	0.488600
H136	H	1.124371	-0.083149	0.988600
O137	O	0.924938	-0.536425	0.965203
O138	O	1.424938	-0.036425	1.465203
H139	H	0.892150	-0.572428	1.001782
H140	H	1.392150	-0.072428	1.501782
O141	O	0.256627	-0.575990	0.482926
O142	O	0.756627	-0.075990	0.982926
H143	H	0.268523	-0.565394	0.538667
H144	H	0.768523	-0.065394	1.038667
O145	O	0.409143	-0.583236	0.489053
O146	O	0.909143	-0.083236	0.989053
H147	H	0.370046	-0.618700	0.518737
H148	H	0.870046	-0.118700	1.018737
O149	O	0.264080	-0.353045	0.296469
O150	O	0.764080	0.146955	0.796469
H151	H	0.303173	-0.317563	0.266797
H152	H	0.803173	0.182437	0.766797
O153	O	0.740312	-0.551141	0.462198
O154	O	1.240312	-0.051141	0.962198
H155	H	0.774989	-0.592332	0.432033
H156	H	1.274989	-0.092332	0.932033
H157	H	0.737620	-0.341962	0.287180
H158	H	1.237620	0.158038	0.787180
H159	H	1.067355	-0.380063	0.783938
H160	H	1.567355	0.119937	1.283938
O161	O	1.111902	-0.331104	0.972769
O162	O	1.611902	0.168896	1.472769
H163	H	1.141649	-0.298408	1.011879
H164	H	1.641649	0.201592	1.511879
O165	O	0.898033	-0.566097	0.634010
O166	O	1.398033	-0.066097	1.134010
H167	H	0.865252	-0.602114	0.670586
H168	H	1.365252	-0.102114	1.170586
