data_functionalizedCrystal
_audit_creation_method	'MofGen! by Chris Wilmer'
_symmetry_space_group_name_H-M	'P1'
_symmetry_Int_Tables_number	1
_symmetry_cell_setting	triclinic
loop_
_symmetry_equiv_pos_as_xyz
  x,y,z
_cell_length_a	10.654545
_cell_length_b	13.262508
_cell_length_c	9.130313
_cell_angle_alpha	105.913806
_cell_angle_beta	89.996934
_cell_angle_gamma	84.458219
loop_
_atom_site_label
_atom_site_type_symbol
_atom_site_fract_x
_atom_site_fract_y
_atom_site_fract_z
O1	O	1.667075	0.147399	-0.063062
O2	O	1.301522	0.161450	-0.057470
O3	O	1.493497	0.001704	-0.121099
O4	O	1.475100	0.307146	0.000567
O5	O	1.493484	0.001699	0.122498
O6	O	1.301509	0.161445	0.186127
O7	O	1.667062	0.147395	0.180535
Cu8	Cu	1.484284	0.154419	0.205573
Cu9	Cu	1.484300	0.154425	-0.082508
O10	O	1.475086	0.307141	0.244164
C11	C	1.254723	0.160417	0.063917
C12	C	1.115296	0.157333	0.062686
C13	C	1.049791	0.155879	0.194894
C14	C	0.918787	0.152964	0.193733
C15	C	0.918802	0.152962	-0.071853
C16	C	1.049805	0.155870	-0.070694
C17	C	1.492461	-0.037409	-0.014883
C18	C	1.489376	-0.153946	-0.061313
C19	C	1.480645	-0.482469	0.338965
C20	C	1.483534	-0.372975	0.382590
C21	C	1.484995	-0.318213	0.271618
C22	C	1.483566	-0.372954	0.117014
C23	C	1.480668	-0.482457	0.073385
C24	C	1.485017	-0.318201	0.006038
C25	C	1.483589	-0.372943	-0.148566
C26	C	1.480692	-0.482435	-0.192187
C27	C	1.479230	-0.537198	-0.081216
C28	C	1.487916	-0.208698	0.049667
C29	C	1.487938	-0.208687	-0.215913
C30	C	1.485050	-0.318180	-0.259538
C31	C	1.713861	0.148428	0.059145
C32	C	1.853288	0.151511	0.060366
C33	C	1.476123	0.346254	0.137945
C34	C	1.479208	0.462791	0.184365
N35	N	1.484282	0.154415	0.408194
N36	N	1.484311	0.154421	-0.285133
C37	C	1.569318	0.083709	0.456683
C38	C	1.569330	0.083710	0.610020
C39	C	1.399267	0.225130	0.666369
C40	C	1.399250	0.225124	0.513033
H41	H	1.489068	-0.164137	0.175547
H42	H	1.330037	0.282702	0.751744
O43	O	1.113225	0.157238	0.324559
C44	C	1.027307	0.155353	0.441007
H45	H	0.938955	0.120113	0.388035
H46	H	1.000627	0.239099	0.515199
C47	C	1.197358	0.131054	0.604604
C48	C	1.088847	0.087762	0.539543
H49	H	1.235319	0.089365	0.665391
H50	H	1.255244	0.132328	0.526154
H51	H	1.175110	0.200841	0.666420
H52	H	1.111098	0.017982	0.477713
H53	H	1.030966	0.086475	0.617986
H54	H	1.487345	-0.229058	0.307147
H55	H	1.484710	-0.328414	0.508468
H56	H	1.476885	-0.626357	-0.116728
H57	H	1.479517	-0.527002	-0.318076
O58	O	1.316596	0.293914	0.466190
C59	C	1.241534	0.356313	0.591596
H60	H	1.293036	0.357910	0.701523
H61	H	1.148073	0.321505	0.594064
C62	C	1.152965	0.467378	0.441738
C63	C	1.216226	0.469346	0.576753
H64	H	1.137348	0.537100	0.432581
H65	H	1.203532	0.425336	0.357248
H66	H	1.075088	0.438366	0.443811
H67	H	1.294107	0.498344	0.574670
H68	H	1.165671	0.511395	0.661243
O69	O	1.651708	0.014932	0.354677
C70	C	1.584065	-0.050362	0.240073
H71	H	1.486036	-0.009281	0.233446
H72	H	1.575078	-0.127967	0.268326
C73	C	1.775137	-0.122801	0.093811
C74	C	1.654739	-0.072341	0.085663
H75	H	1.818734	-0.136364	-0.001436
H76	H	1.820711	-0.078815	0.171024
H77	H	1.767631	-0.187467	0.117361
H78	H	1.662248	-0.007671	0.062132
H79	H	1.609168	-0.116317	0.008442
O80	O	1.489134	-0.155390	-0.323606
C81	C	1.382125	-0.081005	-0.301891
H82	H	1.346391	-0.060892	-0.178568
H83	H	1.304922	-0.115469	-0.381075
C84	C	1.461685	-0.005066	-0.489262
C85	C	1.417802	0.019644	-0.337791
H86	H	1.483689	0.057018	-0.511413
H87	H	1.533777	-0.055183	-0.503897
H88	H	1.397341	-0.033788	-0.555230
H89	H	1.482150	0.048353	-0.271826
H90	H	1.345721	0.069768	-0.323146
H91	H	0.865459	0.151781	0.301389
H92	H	1.103140	0.157051	-0.178360
O93	O	0.855293	0.151699	-0.201439
C94	C	0.873529	0.243167	-0.245767
H95	H	0.964062	0.275523	-0.195122
H96	H	0.790169	0.305076	-0.202691
C97	C	0.772568	0.176006	-0.482992
C98	C	0.883767	0.215741	-0.420800
H99	H	0.778878	0.159091	-0.590960
H100	H	0.760277	0.114383	-0.453127
H101	H	0.703112	0.227603	-0.447081
H102	H	0.953218	0.164140	-0.456696
H103	H	0.896070	0.277355	-0.450676
O104	O	1.652057	0.014990	0.656880
C105	C	1.727076	-0.047436	0.531453
H106	H	1.728702	-0.004391	0.439294
H107	H	1.685902	-0.125728	0.483973
C108	C	1.860447	-0.120882	0.696265
C109	C	1.862453	-0.068009	0.583079
H110	H	1.943953	-0.133577	0.728110
H111	H	1.809903	-0.078828	0.780768
H112	H	1.826130	-0.186119	0.656683
H113	H	1.896754	-0.002767	0.622668
H114	H	1.913006	-0.110053	0.498584
H115	H	1.479447	-0.527065	0.429302
H116	H	1.483886	-0.362766	-0.385419
