data_functionalizedCrystal
_audit_creation_method	'MofGen! by Chris Wilmer'
_symmetry_space_group_name_H-M	'P1'
_symmetry_Int_Tables_number	1
_symmetry_cell_setting	triclinic
loop_
_symmetry_equiv_pos_as_xyz
  x,y,z
_cell_length_a	13.897449
_cell_length_b	16.120444
_cell_length_c	13.897441
_cell_angle_alpha	87.133622
_cell_angle_beta	90.020733
_cell_angle_gamma	92.927816
loop_
_atom_site_label
_atom_site_type_symbol
_atom_site_fract_x
_atom_site_fract_y
_atom_site_fract_z
Zn1	Zn	1.455175	-0.331853	0.564829
Zn2	Zn	1.446864	-0.471285	0.411701
Zn3	Zn	1.293862	-0.331893	0.403549
Zn4	Zn	1.285645	-0.471230	0.572950
O5	O	1.370386	-0.401565	0.488257
O6	O	1.589054	-0.350355	0.544528
O7	O	1.426529	-0.452834	0.275640
O8	O	1.322178	-0.215222	0.418133
O9	O	1.582948	-0.452796	0.432026
O10	O	1.440694	-0.215192	0.536624
O11	O	1.314119	-0.350423	0.269651
O12	O	1.157791	-0.350370	0.426008
O13	O	1.308172	-0.452702	0.706852
O14	O	1.151753	-0.452741	0.550466
O15	O	1.432726	-0.350302	0.700885
O16	O	1.418561	-0.587944	0.439902
O17	O	1.300114	-0.587904	0.558371
C18	C	1.119773	-0.401554	0.488235
C19	C	1.012558	-0.401570	0.488249
C20	C	0.816263	-0.401573	0.488275
C21	C	0.925495	-0.401568	0.488258
C22	C	1.357570	-0.618174	0.500923
C23	C	1.352175	-0.710840	0.506374
C24	C	1.398608	-0.921783	0.460189
C25	C	1.342344	-0.880497	0.516336
C26	C	1.347816	-0.786091	0.510791
C27	C	1.393137	-1.016197	0.465732
C28	C	1.621979	-0.401577	0.488281
C29	C	1.729192	-0.401582	0.488291
C30	C	1.370459	-0.401492	0.739846
C31	C	1.370490	-0.401460	0.847058
C32	C	1.383279	-0.184111	0.475563
C33	C	1.388773	-0.091445	0.470154
C34	C	1.370373	-0.401579	0.237644
C35	C	1.370543	-0.401375	0.130418
C36	C	1.370520	-0.401404	1.043350
C37	C	1.370500	-0.401438	0.934120
H38	H	1.290065	-0.916052	0.568569
O39	O	1.460884	-0.879245	0.397895
C40	C	1.523241	-0.744991	0.335575
C41	C	1.452660	-0.793073	0.406150
H42	H	1.516631	-0.675313	0.342239
H43	H	1.505366	-0.762053	0.258743
H44	H	1.600037	-0.762019	0.353544
H45	H	1.375840	-0.776071	0.388269
H46	H	1.470618	-0.776007	0.482961
