data_functionalizedCrystal
_audit_creation_method	'MofGen! by Chris Wilmer'
_symmetry_space_group_name_H-M	'P1'
_symmetry_Int_Tables_number	1
_symmetry_cell_setting	triclinic
loop_
_symmetry_equiv_pos_as_xyz
  x,y,z
_cell_length_a	10.686220
_cell_length_b	17.639306
_cell_length_c	10.686203
_cell_angle_alpha	83.979671
_cell_angle_beta	89.652027
_cell_angle_gamma	82.235924
loop_
_atom_site_label
_atom_site_type_symbol
_atom_site_fract_x
_atom_site_fract_y
_atom_site_fract_z
Zn1	Zn	2.068757	-0.326130	0.448692
Zn2	Zn	2.036847	-0.187411	0.617392
Zn3	Zn	1.817830	-0.206932	0.429540
Zn4	Zn	1.874548	-0.324615	0.674065
O5	O	1.949495	-0.261272	0.542422
O6	O	2.237460	-0.300192	0.455367
O7	O	1.970703	-0.082696	0.560740
O8	O	1.840733	-0.231548	0.259144
O9	O	2.214017	-0.198277	0.579311
O10	O	2.025088	-0.319122	0.273215
O11	O	1.809792	-0.097038	0.422726
O12	O	1.652417	-0.230079	0.477679
O13	O	1.937401	-0.432120	0.675902
O14	O	1.694088	-0.316540	0.657331
O15	O	2.080086	-0.433233	0.510321
O16	O	2.025700	-0.196808	0.797846
O17	O	1.906460	-0.297611	0.839484
C18	C	1.628412	-0.275264	0.571578
C19	C	1.491059	-0.281266	0.584086
C20	C	2.018630	-0.461278	0.601569
C21	C	2.048090	-0.546508	0.626774
C22	C	1.726137	-0.864176	0.350438
C23	C	1.753849	-0.944260	0.374146
C24	C	1.921389	-0.929307	0.517845
C25	C	1.893694	-0.849220	0.494145
C26	C	1.796066	-0.816661	0.410441
C27	C	1.963624	-0.801705	0.554148
C28	C	1.935927	-0.721625	0.530455
C29	C	1.838301	-0.689059	0.446758
C30	C	1.768369	-0.736581	0.386748
C31	C	2.061245	-0.834266	0.637858
C32	C	2.131175	-0.786751	0.697861
C33	C	2.103484	-0.706669	0.674161
C34	C	2.005858	-0.674103	0.590465
C35	C	2.173416	-0.659148	0.734171
C36	C	2.145719	-0.579067	0.710478
C37	C	1.978161	-0.594023	0.566771
C38	C	2.271833	-0.247226	0.513154
C39	C	2.409194	-0.241240	0.500681
C40	C	1.968812	-0.244942	0.863508
C41	C	1.977197	-0.237976	1.000867
C42	C	1.880696	-0.062046	0.483409
C43	C	1.851453	0.023177	0.457835
C44	C	1.930134	-0.277690	1.220088
C45	C	1.921860	-0.284708	1.082738
H46	H	1.898674	-0.567512	0.498598
H47	H	2.030981	-0.192630	1.035861
H48	H	1.456062	-0.320124	0.665072
O49	O	1.451145	-0.194943	0.404115
C50	C	1.630883	-0.146488	0.303255
C51	C	1.583538	-0.198963	0.412659
H52	H	1.737923	-0.149709	0.310140
H53	H	1.604352	-0.166213	0.209894
H54	H	1.585398	-0.084645	0.308786
H55	H	1.628997	-0.260820	0.407248
H56	H	1.610051	-0.179174	0.505974
H57	H	1.815744	-0.623852	0.427478
H58	H	1.688883	-0.710069	0.318574
O59	O	1.631221	-0.832667	0.269134
C60	C	1.467996	-0.855942	0.129036
C61	C	1.575430	-0.891728	0.221094
H62	H	1.422875	-0.903676	0.090149
H63	H	1.393741	-0.818409	0.180512
H64	H	1.507901	-0.819239	0.048221
H65	H	1.535639	-0.928467	0.301929
H66	H	1.649667	-0.929216	0.169526
H67	H	1.696901	-0.982946	0.325272
H68	H	1.868069	-0.330047	1.047749
H69	H	2.083796	-0.899473	0.657143
O70	O	2.016215	-0.961065	0.599073
C71	C	2.133090	-1.077804	0.699327
C72	C	2.025684	-1.041943	0.607287
H73	H	2.140763	-1.143198	0.706017
H74	H	2.226036	-1.058874	0.663924
H75	H	2.111926	-1.057878	0.796257
H76	H	2.046727	-1.061851	0.510330
H77	H	1.932772	-1.060870	0.642795
H78	H	2.210660	-0.813272	0.766017
H79	H	2.252896	-0.685670	0.802332
H80	H	2.202678	-0.540379	0.759320
