data_functionalizedCrystal
_audit_creation_method	'MofGen! by Chris Wilmer'
_symmetry_space_group_name_H-M	'P1'
_symmetry_Int_Tables_number	1
_symmetry_cell_setting	triclinic
loop_
_symmetry_equiv_pos_as_xyz
  x,y,z
_cell_length_a	18.101398
_cell_length_b	25.639240
_cell_length_c	18.101390
_cell_angle_alpha	89.957963
_cell_angle_beta	89.987205
_cell_angle_gamma	90.030910
loop_
_atom_site_label
_atom_site_type_symbol
_atom_site_fract_x
_atom_site_fract_y
_atom_site_fract_z
Zn1	Zn	1.132101	-0.208157	-0.418594
Zn2	Zn	1.632101	0.291843	0.081406
Zn3	Zn	1.131997	-0.295600	-0.294733
Zn4	Zn	1.631997	0.204400	0.205267
Zn5	Zn	1.008263	-0.208178	-0.294777
Zn6	Zn	1.508263	0.291822	0.205223
Zn7	Zn	1.008207	-0.295561	-0.418543
Zn8	Zn	1.508207	0.204439	0.081457
O9	O	1.070142	-0.251874	-0.356662
O10	O	1.570142	0.248126	0.143338
O11	O	1.235720	-0.219765	-0.402167
O12	O	1.735720	0.280235	0.097833
O13	O	1.115563	-0.284029	-0.191106
O14	O	1.615563	0.215971	0.308894
O15	O	1.024758	-0.135010	-0.311241
O16	O	1.524758	0.364990	0.188759
O17	O	1.235643	-0.284009	-0.311166
O18	O	1.735643	0.215991	0.188834
O19	O	1.115741	-0.134995	-0.402209
O20	O	1.615741	0.365005	0.097791
O21	O	1.024657	-0.219800	-0.191138
O22	O	1.524657	0.280200	0.308862
O23	O	0.904623	-0.219762	-0.311192
O24	O	1.404623	0.280238	0.188808
O25	O	1.024662	-0.283941	-0.522183
O26	O	1.524662	0.216059	-0.022183
O27	O	0.904582	-0.283961	-0.402122
O28	O	1.404582	0.216039	0.097878
O29	O	1.115687	-0.219726	-0.522220
O30	O	1.615687	0.280274	-0.022220
O31	O	1.115509	-0.368760	-0.311116
O32	O	1.615509	0.131240	0.188884
O33	O	1.024561	-0.368731	-0.402079
O34	O	1.524561	0.131269	0.097921
C35	C	0.877732	-0.251860	-0.356657
C36	C	1.377732	0.248140	0.143343
C37	C	0.795418	-0.251866	-0.356672
C38	C	1.295418	0.248134	0.143328
C39	C	1.070037	-0.387717	-0.356604
C40	C	1.570037	0.112283	0.143396
C41	C	1.070060	-0.445831	-0.356604
C42	C	1.570060	0.054169	0.143396
C43	C	0.644709	-0.251876	-0.356671
C44	C	1.144709	0.248124	0.143329
C45	C	0.613354	-0.292331	-0.413793
C46	C	1.113354	0.207669	0.086207
C47	C	0.527736	-0.292494	-0.413624
C48	C	1.027736	0.207506	0.086376
C49	C	0.496327	-0.251885	-0.356671
C50	C	0.996327	0.248115	0.143329
C51	C	0.527381	-0.266593	-0.278526
C52	C	1.027381	0.233407	0.221474
C53	C	0.613026	-0.266882	-0.278856
C54	C	1.113026	0.233118	0.221144
C55	C	0.613190	-0.196613	-0.377011
C56	C	1.113190	0.303387	0.122989
C57	C	0.527539	-0.196915	-0.378732
C58	C	1.027539	0.303085	0.121268
C59	C	0.412467	-0.251890	-0.356666
C60	C	0.912467	0.248110	0.143334
C61	C	0.728569	-0.251873	-0.356670
C62	C	1.228569	0.248127	0.143330
C63	C	1.117541	-0.806147	-0.404114
C64	C	1.617541	-0.306147	0.095886
C65	C	1.117562	-0.860751	-0.404129
C66	C	1.617562	-0.360751	0.095871
O67	O	1.157807	-0.888949	-0.444465
O68	O	1.657807	-0.388949	0.055535
N69	N	1.070245	-0.888113	-0.356733
N70	N	1.570245	-0.388113	0.143267
C71	C	1.022897	-0.860868	-0.309324
C72	C	1.522897	-0.360868	0.190676
O73	O	0.982651	-0.889155	-0.269012
O74	O	1.482651	-0.389155	0.230988
C75	C	1.022872	-0.806264	-0.309314
C76	C	1.522872	-0.306264	0.190686
C77	C	1.070198	-0.778905	-0.356707
C78	C	1.570198	-0.278905	0.143293
C79	C	1.164862	-0.778788	-0.451505
C80	C	1.664862	-0.278788	0.048495
C81	C	1.164841	-0.724188	-0.451488
C82	C	1.664841	-0.224188	0.048512
C83	C	1.117498	-0.696946	-0.404082
C84	C	1.617498	-0.196946	0.095918
C85	C	1.070177	-0.724305	-0.356691
C86	C	1.570177	-0.224305	0.143309
C87	C	0.975521	-0.779020	-0.261909
C88	C	1.475521	-0.279020	0.238091
C89	C	0.975500	-0.724413	-0.261903
C90	C	1.475500	-0.224413	0.238097
C91	C	1.022826	-0.697054	-0.309297
C92	C	1.522826	-0.197054	0.190703
C93	C	1.022813	-0.642463	-0.309268
C94	C	1.522813	-0.142463	0.190732
N95	N	1.070131	-0.615101	-0.356664
N96	N	1.570131	-0.115101	0.143336
C97	C	1.117473	-0.642343	-0.404071
C98	C	1.617473	-0.142343	0.095929
C99	C	1.022952	-0.975538	-0.309352
C100	C	1.522952	-0.475538	0.190648
C101	C	1.022981	-1.030140	-0.309358
C102	C	1.522981	-0.530140	0.190642
C103	C	1.117645	-1.030021	-0.404164
C104	C	1.617645	-0.530021	0.095836
C105	C	1.117620	-0.975417	-0.404153
C106	C	1.617620	-0.475417	0.095847
C107	C	1.070270	-0.948177	-0.356747
C108	C	1.570270	-0.448177	0.143253
C109	C	1.117426	-0.527678	-0.404033
C110	C	1.617426	-0.027678	0.095967
C111	C	1.117403	-0.473072	-0.404010
C112	C	1.617403	0.026928	0.095990
C113	C	1.022736	-0.473197	-0.309207
C114	C	1.522736	0.026803	0.190793
C115	C	1.022762	-0.527798	-0.309227
C116	C	1.522762	-0.027798	0.190773
C117	C	1.070109	-0.555037	-0.356646
C118	C	1.570109	-0.055037	0.143354
O119	O	0.982587	-0.614231	-0.268955
O120	O	1.482587	-0.114231	0.231045
O121	O	1.157705	-0.614049	-0.444383
O122	O	1.657705	-0.114049	0.055617
C123	C	1.263304	-0.251889	-0.356667
C124	C	1.763304	0.248111	0.143333
C125	C	1.345618	-0.251895	-0.356670
C126	C	1.845618	0.248105	0.143330
C127	C	1.070180	-0.251827	-0.549824
C128	C	1.570180	0.248173	-0.049824
C129	C	1.070196	-0.251806	-0.632138
C130	C	1.570196	0.248194	-0.132138
C131	C	1.070267	-0.115501	-0.356736
C132	C	1.570267	0.384499	0.143264
C133	C	1.070321	-0.057387	-0.356768
C134	C	1.570321	0.442613	0.143232
C135	C	1.070222	-0.251790	-0.782846
C136	C	1.570222	0.248210	-0.282846
C137	C	1.127494	-0.211384	-0.814224
C138	C	1.627494	0.288616	-0.314224
C139	C	1.127734	-0.211493	-0.899842
C140	C	1.627734	0.288507	-0.399842
C141	C	1.070248	-0.251773	-0.931229
C142	C	1.570248	0.248227	-0.431229
C143	C	1.091122	-0.306920	-0.900104
C144	C	1.591122	0.193080	-0.400104
C145	C	1.091522	-0.306696	-0.814459
C146	C	1.591522	0.193304	-0.314459
C147	C	0.991938	-0.237527	-0.814413
C148	C	1.491938	0.262473	-0.314413
C149	C	0.992373	-0.236301	-0.900065
C150	C	1.492373	0.263699	-0.400065
C151	C	1.070262	-0.251767	-1.015088
C152	C	1.570262	0.248233	-0.515088
C153	C	1.070211	-0.251800	-0.698987
C154	C	1.570211	0.248200	-0.198987
C155	C	1.070147	-0.251884	-0.164251
C156	C	1.570147	0.248116	0.335749
C157	C	1.070275	-0.251757	-0.081937
C158	C	1.570275	0.248243	0.418063
H159	H	0.506740	-0.283319	-0.471557
H160	H	1.006740	0.216681	0.028443
H161	H	1.156156	-0.953145	-0.442746
H162	H	1.656156	-0.453145	0.057254
H163	H	1.114693	-0.170609	-0.920889
H164	H	1.614693	0.329391	-0.420889
F165	F	0.641440	-0.345552	-0.396370
F166	F	1.141440	0.154448	0.103630
F167	F	0.499591	-0.155436	-0.328367
F168	F	0.999591	0.344564	0.171633
H169	H	0.984231	-0.550074	-0.270629
H170	H	1.484231	-0.050074	0.229371
F171	F	0.640322	-0.280488	-0.489750
F172	F	1.140322	0.219512	0.010250
H173	H	1.114611	-0.170374	-0.793662
H174	H	1.614611	0.329626	-0.293662
F175	F	0.971788	-0.183255	-0.926660
F176	F	1.471788	0.316745	-0.426660
H177	H	0.984396	-0.953361	-0.270742
H178	H	1.484396	-0.453361	0.229258
H179	H	1.155944	-0.450799	-0.442604
H180	H	1.655944	0.049201	0.057396
H181	H	0.633469	-0.166474	-0.335411
H182	H	1.133469	0.333526	0.164589
H183	H	0.632967	-0.307271	-0.261666
H184	H	1.132967	0.192729	0.238334
F185	F	0.936165	-0.275984	-0.787875
F186	F	1.436165	0.224016	-0.287875
F187	F	1.038280	-0.347341	-0.926671
F188	F	1.538280	0.152659	-0.426671
F189	F	0.641453	-0.179050	-0.450239
F190	F	1.141453	0.320950	0.049761
F191	F	1.202887	-0.223596	-0.786105
F192	F	1.702887	0.276404	-0.286105
F193	F	0.501015	-0.182412	-0.453903
F194	F	1.001015	0.317588	0.046097
F195	F	1.167819	-0.556660	-0.454500
F196	F	1.667819	-0.056660	0.045500
H197	H	0.633767	-0.238675	-0.234834
H198	H	1.133767	0.261325	0.265166
F199	F	1.215208	-0.695077	-0.501936
F200	F	1.715208	-0.195077	-0.001936
F201	F	1.168031	-1.059023	-0.454620
F202	F	1.668031	-0.559023	0.045380
H203	H	1.203414	-0.800963	-0.490113
H204	H	1.703414	-0.300963	0.009887
H205	H	1.185749	-0.220944	-0.920331
H206	H	1.685749	0.279056	-0.420331
H207	H	0.984451	-1.052411	-0.270757
H208	H	1.484451	-0.552411	0.229243
F209	F	0.967017	-0.185863	-0.786216
F210	F	1.467017	0.314137	-0.286216
H211	H	1.148739	-0.318761	-0.794482
H212	H	1.648739	0.181239	-0.294482
F213	F	0.500907	-0.346025	-0.396000
F214	F	1.000907	0.153975	0.104000
F215	F	0.972354	-0.444195	-0.258755
F216	F	1.472354	0.055805	0.241245
F217	F	0.500791	-0.229262	-0.221365
F218	F	1.000791	0.270738	0.278635
F219	F	0.925148	-0.808125	-0.211467
F220	F	1.425148	-0.308125	0.288533
H221	H	1.051590	-0.337827	-0.793698
H222	H	1.551590	0.162173	-0.293698
F223	F	0.499301	-0.318808	-0.255670
F224	F	0.999301	0.181192	0.244330
F225	F	0.925101	-0.695424	-0.211446
F226	F	1.425101	-0.195424	0.288554
F227	F	1.165095	-0.322958	-0.928136
F228	F	1.665095	0.177042	-0.428136
F229	F	0.933652	-0.271937	-0.927988
F230	F	1.433652	0.228063	-0.427988
