data_functionalizedCrystal
_audit_creation_method	'MofGen! by Chris Wilmer'
_symmetry_space_group_name_H-M	'P1'
_symmetry_Int_Tables_number	1
_symmetry_cell_setting	triclinic
loop_
_symmetry_equiv_pos_as_xyz
  x,y,z
_cell_length_a	18.050591
_cell_length_b	13.032721
_cell_length_c	13.032268
_cell_angle_alpha	103.289627
_cell_angle_beta	97.156847
_cell_angle_gamma	97.201340
loop_
_atom_site_label
_atom_site_type_symbol
_atom_site_fract_x
_atom_site_fract_y
_atom_site_fract_z
Zn1	Zn	1.031220	-0.499207	-0.654387
Zn2	Zn	1.531220	0.000793	-0.154387
Zn3	Zn	1.031139	-0.654292	-0.499335
Zn4	Zn	1.531139	-0.154292	0.000665
Zn5	Zn	0.925098	-0.476689	-0.476788
Zn6	Zn	1.425098	0.023311	0.023212
Zn7	Zn	0.888950	-0.676748	-0.676851
Zn8	Zn	1.388950	-0.176748	-0.176851
O9	O	0.969102	-0.576734	-0.576840
O10	O	1.469102	-0.076734	-0.076840
O11	O	1.135128	-0.519805	-0.633854
O12	O	1.635128	-0.019805	-0.133854
O13	O	1.032166	-0.611910	-0.347727
O14	O	1.532166	-0.111910	0.152273
O15	O	0.954337	-0.331048	-0.481509
O16	O	1.454337	0.168952	0.018491
O17	O	1.135069	-0.633745	-0.519938
O18	O	1.635069	-0.133745	-0.019938
O19	O	1.032304	-0.347592	-0.611991
O20	O	1.532304	0.152408	-0.111991
O21	O	0.954258	-0.481427	-0.331161
O22	O	1.454258	0.018573	0.168839
O23	O	0.816383	-0.503202	-0.503292
O24	O	1.316383	-0.003202	-0.003292
O25	O	0.892729	-0.672019	-0.822488
O26	O	1.392729	-0.172019	-0.322488
O27	O	0.789826	-0.650184	-0.650278
O28	O	1.289826	-0.150184	-0.150278
O29	O	0.997254	-0.541581	-0.805984
O30	O	1.497254	-0.041581	-0.305984
O31	O	0.997115	-0.805899	-0.541720
O32	O	1.497115	-0.305899	-0.041720
O33	O	0.892650	-0.822398	-0.672141
O34	O	1.392650	-0.322398	-0.172141
C35	C	0.940969	-0.852689	-0.611838
C36	C	1.440969	-0.352689	-0.111838
C37	C	0.928998	-0.970749	-0.626846
C38	C	1.428998	-0.470749	-0.126846
C39	C	0.776159	-0.576687	-0.576776
C40	C	1.276159	-0.076687	-0.076776
C41	C	0.693613	-0.576696	-0.576778
C42	C	1.193613	-0.076696	-0.076778
C43	C	0.975384	-1.015191	-0.569055
C44	C	1.475384	-0.515191	-0.069055
C45	C	0.963013	-1.137212	-0.584565
C46	C	1.463013	-0.637212	-0.084565
C47	C	0.508574	-0.496705	-0.497000
C48	C	1.008574	0.003295	0.003000
C49	C	0.451966	-0.590267	-0.483163
C50	C	0.951966	-0.090267	0.016837
C51	C	0.542474	-0.576734	-0.576830
C52	C	1.042474	-0.076734	-0.076830
C53	C	0.451997	-0.483206	-0.590668
C54	C	0.951997	0.016794	-0.090668
C55	C	0.396482	-0.576762	-0.576877
C56	C	0.896482	-0.076762	-0.076877
C57	C	0.486954	-0.670340	-0.562949
C58	C	0.986954	-0.170340	-0.062949
C59	C	0.486991	-0.563220	-0.670491
C60	C	0.986991	-0.063220	-0.170491
C61	C	0.430395	-0.656853	-0.656699
C62	C	0.930395	-0.156853	-0.156699
C63	C	0.626577	-0.576716	-0.576800
C64	C	1.126577	-0.076716	-0.076800
C65	C	0.312380	-0.576791	-0.576909
C66	C	0.812380	-0.076791	-0.076909
C67	C	1.162797	-0.576782	-0.576905
C68	C	1.662797	-0.076782	-0.076905
C69	C	1.245338	-0.576803	-0.576932
C70	C	1.745338	-0.076803	-0.076932
C71	C	0.940968	-0.611817	-0.853849
C72	C	1.440968	-0.111817	-0.353849
C73	C	0.928979	-0.626767	-0.971893
C74	C	1.428979	-0.126767	-0.471893
C75	C	0.997362	-0.299704	-0.541729
C76	C	1.497362	0.200296	-0.041729
C77	C	1.009405	-0.181651	-0.526767
C78	C	1.509405	0.318349	-0.026767
C79	C	0.975351	-0.568893	-1.016355
C80	C	1.475351	-0.068893	-0.516355
C81	C	0.962961	-0.584344	-1.138360
C82	C	1.462961	-0.084344	-0.638360
C83	C	0.997176	-0.541712	-0.300900
C84	C	1.497176	-0.041712	0.199100
C85	C	1.009339	-0.526462	-0.182818
C86	C	1.509339	-0.026462	0.317182
H87	H	1.024258	-0.962908	-0.508100
H88	H	1.524258	-0.462908	-0.008100
C89	C	0.896931	-0.666736	-1.208938
C90	C	1.396931	-0.166736	-0.708938
H91	H	0.869441	-0.701037	-1.165221
H92	H	1.369441	-0.201037	-0.665221
H93	H	0.916252	-0.718460	-1.258083
H94	H	1.416252	-0.218460	-0.758083
H95	H	0.864354	-0.631531	-1.247040
H96	H	1.364354	-0.131531	-0.747040
C97	C	1.075368	-0.444069	-1.112237
C98	C	1.575368	0.055931	-0.612237
H99	H	1.075038	-0.444496	-1.039496
H100	H	1.575038	0.055504	-0.539496
H101	H	1.069954	-0.374984	-1.121315
H102	H	1.569954	0.125016	-0.621315
H103	H	1.121852	-0.461913	-1.132348
H104	H	1.621852	0.038087	-0.632348
H105	H	0.914141	-1.189495	-0.645532
H106	H	1.414141	-0.689495	-0.145532
C107	C	0.862977	-1.041368	-0.709201
C108	C	1.362977	-0.541368	-0.209201
H109	H	0.835482	-0.997663	-0.743453
H110	H	1.335482	-0.497663	-0.243453
H111	H	0.830411	-1.079546	-0.674000
H112	H	1.330411	-0.579546	-0.174000
H113	H	0.882311	-1.090453	-0.760976
H114	H	1.382311	-0.590453	-0.260976
H115	H	1.058282	-1.129370	-0.465807
H116	H	1.558282	-0.629370	0.034193
C117	C	0.554315	-0.405360	-0.405730
C118	C	1.054315	0.094640	0.094270
H119	H	0.542483	-0.415155	-0.339254
H120	H	1.042483	0.084845	0.160746
H121	H	0.541858	-0.338998	-0.414889
H122	H	1.041858	0.161002	0.085111
H123	H	0.606829	-0.405594	-0.406731
H124	H	1.106829	0.094406	0.093269
C125	C	0.430852	-0.605736	-0.376196
C126	C	0.930852	-0.105736	0.123804
H127	H	0.457983	-0.548807	-0.319530
H128	H	0.957983	-0.048807	0.180470
H129	H	0.443460	-0.671637	-0.365831
H130	H	0.943460	-0.171637	0.134169
H131	H	0.378085	-0.606282	-0.377230
H132	H	0.878085	-0.106282	0.122770
H133	H	0.880102	-0.687745	-1.024150
H134	H	1.380102	-0.187745	-0.524150
H135	H	0.502460	-0.749460	-0.551175
H136	H	1.002460	-0.249460	-0.051175
H137	H	0.396668	-0.724612	-0.724238
H138	H	0.896668	-0.224612	-0.224238
H139	H	0.502638	-0.551736	-0.749648
H140	H	1.002638	-0.051736	-0.249648
H141	H	0.436371	-0.404105	-0.602319
H142	H	0.936371	0.095895	-0.102319
C143	C	1.041377	-0.486508	-0.945769
C144	C	1.541377	0.013492	-0.445769
H145	H	1.041046	-0.486937	-0.873028
H146	H	1.541046	0.013063	-0.373028
H147	H	1.035965	-0.417421	-0.954844
H148	H	1.535965	0.082579	-0.454844
H149	H	1.087861	-0.504354	-0.965880
H150	H	1.587861	-0.004354	-0.465880
