data_functionalizedCrystal
_audit_creation_method	'MofGen! by Chris Wilmer'
_symmetry_space_group_name_H-M	'P1'
_symmetry_Int_Tables_number	1
_symmetry_cell_setting	triclinic
loop_
_symmetry_equiv_pos_as_xyz
  x,y,z
_cell_length_a	16.992694
_cell_length_b	13.339070
_cell_length_c	15.455313
_cell_angle_alpha	93.394339
_cell_angle_beta	87.142206
_cell_angle_gamma	103.148759
loop_
_atom_site_label
_atom_site_type_symbol
_atom_site_fract_x
_atom_site_fract_y
_atom_site_fract_z
O1	O	1.090408	0.214131	-0.072012
O2	O	1.590408	0.714131	0.427988
O3	O	0.861603	0.211734	-0.072038
O4	O	1.361603	0.711734	0.427962
O5	O	0.949746	0.063546	-0.072026
O6	O	1.449746	0.563546	0.427974
O7	O	1.002265	0.362319	-0.072025
O8	O	1.502265	0.862319	0.427975
O9	O	0.944697	0.071983	0.072236
O10	O	1.444697	0.571983	0.572236
O11	O	0.856554	0.220171	0.072223
O12	O	1.356554	0.720171	0.572223
O13	O	1.085360	0.222568	0.072249
O14	O	1.585360	0.722568	0.572249
Cu15	Cu	0.970496	0.222140	0.085408
Cu16	Cu	1.470496	0.722140	0.585408
Cu17	Cu	0.976466	0.212163	-0.085197
Cu18	Cu	1.476466	0.712163	0.414803
O19	O	0.997216	0.370756	0.072237
O20	O	1.497216	0.870756	0.572237
C21	C	0.829195	0.212871	0.000089
C22	C	1.329195	0.712871	0.500089
C23	C	0.740151	0.203676	0.000079
C24	C	1.240151	0.703676	0.500079
C25	C	0.709211	0.292390	0.000080
C26	C	1.209211	0.792390	0.500080
C27	C	0.625543	0.283745	0.000092
C28	C	1.125543	0.783745	0.500092
C29	C	0.572817	0.186386	0.000097
C30	C	1.072817	0.686386	0.500097
C31	C	0.603762	0.097666	0.000099
C32	C	1.103762	0.597666	0.500099
C33	C	0.687429	0.106311	0.000093
C34	C	1.187429	0.606311	0.500093
C35	C	0.321423	0.150552	0.000120
C36	C	0.821423	0.650552	0.500120
C37	C	0.237751	0.141912	0.000123
C38	C	0.737751	0.641912	0.500123
C39	C	0.259538	0.327993	0.000118
C40	C	0.759538	0.827993	0.500118
C41	C	0.343205	0.336630	0.000107
C42	C	0.843205	0.836630	0.500107
C43	C	0.374143	0.247910	0.000114
C44	C	0.874143	0.747910	0.500114
N45	N	0.487295	0.177547	0.000107
N46	N	0.987295	0.677547	0.500107
N47	N	0.459663	0.256750	0.000110
N48	N	0.959663	0.756750	0.500110
C49	C	0.938350	0.029358	0.000103
C50	C	1.438350	0.529358	0.500103
C51	C	0.911906	-0.085082	0.000097
C52	C	1.411906	0.414918	0.500097
C53	C	1.117519	-0.433251	0.000120
C54	C	1.617519	0.066749	0.500120
C55	C	1.142367	-0.325728	0.000131
C56	C	1.642367	0.174272	0.500131
C57	C	1.084754	-0.265562	0.000122
C58	C	1.584754	0.234438	0.500122
C59	C	1.002289	-0.312927	0.000103
C60	C	1.502289	0.187073	0.500103
C61	C	0.977439	-0.420460	0.000099
C62	C	1.477439	0.079540	0.500099
C63	C	0.944673	-0.252771	0.000101
C64	C	1.444673	0.247229	0.500101
C65	C	0.862209	-0.300136	0.000081
C66	C	1.362209	0.199864	0.500081
C67	C	0.837363	-0.407658	0.000077
C68	C	1.337363	0.092342	0.500077
C69	C	0.894976	-0.467825	0.000086
C70	C	1.394976	0.032175	0.500086
C71	C	0.969524	-0.145238	0.000105
C72	C	1.469524	0.354762	0.500105
C73	C	0.829443	-0.132447	0.000083
C74	C	1.329443	0.367553	0.500083
C75	C	0.804596	-0.239969	0.000072
C76	C	1.304596	0.260031	0.500072
C77	C	1.117767	0.221431	0.000120
C78	C	1.617767	0.721431	0.500120
C79	C	1.206811	0.230626	0.000124
C80	C	1.706811	0.730626	0.500124
C81	C	1.008612	0.404944	0.000106
C82	C	1.508612	0.904944	0.500106
C83	C	1.035056	0.519384	0.000107
C84	C	1.535056	1.019384	0.500107
N85	N	0.966302	0.229157	0.205403
N86	N	1.466302	0.729157	0.705403
N87	N	0.980664	0.205137	-0.205192
N88	N	1.480664	0.705137	0.294808
C89	C	1.003772	0.166228	0.250803
C90	C	1.503772	0.666228	0.750803
C91	C	1.000610	0.171545	0.341610
C92	C	1.500610	0.671545	0.841610
C93	C	0.959983	0.239798	0.387017
C94	C	1.459983	0.739798	0.887017
C95	C	0.922508	0.302729	0.341611
C96	C	1.422508	0.802729	0.841611
C97	C	0.925665	0.297406	0.250805
C98	C	1.425665	0.797406	0.750805
C99	C	0.946347	0.262746	0.658596
C100	C	1.446347	0.762746	1.158596
C101	C	0.943195	0.268067	0.749408
C102	C	1.443195	0.768067	1.249408
C103	C	1.021296	0.136880	0.749401
C104	C	1.521296	0.636880	1.249401
C105	C	1.024454	0.131568	0.658594
C106	C	1.524454	0.631568	1.158594
C107	C	0.986976	0.194496	0.613196
C108	C	1.486976	0.694496	1.113196
N109	N	0.956752	0.245237	0.479836
N110	N	1.456752	0.745237	0.979836
N111	N	0.990202	0.189051	0.520378
N112	N	1.490202	0.689051	1.020378
H113	H	0.346601	0.078309	0.000126
H114	H	0.846601	0.578309	0.500126
C115	C	0.225503	0.425576	0.000123
C116	C	0.725503	0.925576	0.500123
H117	H	0.168124	0.406488	0.000134
H118	H	0.668124	0.906488	0.500134
H119	H	0.245443	0.462282	-0.050183
H120	H	0.745443	0.962282	0.449817
H121	H	0.241938	0.468158	0.050437
H122	H	0.741938	0.968158	0.550437
C123	C	1.048469	0.091160	0.200860
C124	C	1.548469	0.591160	0.700860
H125	H	1.044993	0.097009	0.140276
H126	H	1.544993	0.597009	0.640276
H127	H	1.024340	0.022598	0.215746
H128	H	1.524340	0.522598	0.715746
H129	H	1.103661	0.107576	0.215738
H130	H	1.603661	0.607576	0.715738
C131	C	0.545767	-0.009428	0.000102
C132	C	1.045767	0.490572	0.500102
H133	H	0.491506	-0.001873	0.000097
H134	H	0.991506	0.498127	0.500097
H135	H	0.553248	-0.043298	0.050408
H136	H	1.053248	0.456702	0.550408
H137	H	0.556760	-0.049178	-0.050212
H138	H	1.056760	0.450822	0.449788
H139	H	0.712618	0.034071	0.000092
H140	H	1.212618	0.534071	0.500092
C141	C	1.233069	-0.273634	0.000143
C142	C	1.733069	0.226366	0.500143
H143	H	1.263823	-0.324864	0.000138
H144	H	1.763823	0.175136	0.500138
H145	H	1.243916	-0.229012	0.050450
H146	H	1.743916	0.270988	0.550450
H147	H	1.247433	-0.234897	-0.050170
H148	H	1.747433	0.265103	0.449830
H149	H	0.194822	0.062627	0.000126
H150	H	0.694822	0.562627	0.500126
H151	H	0.782529	-0.083459	0.000080
H152	H	1.282529	0.416541	0.500080
C153	C	0.713889	-0.292074	0.000052
C154	C	1.213889	0.207926	0.500052
H155	H	0.683132	-0.240849	0.000040
H156	H	1.183132	0.259151	0.500040
H157	H	0.699519	-0.330820	0.050354
H158	H	1.199519	0.169180	0.550354
H159	H	0.703054	-0.336690	-0.050266
H160	H	1.203054	0.163310	0.449734
H161	H	1.164418	-0.482247	0.000134
H162	H	1.664418	0.017753	0.500134
C163	C	0.905151	0.331990	0.608666
C164	C	1.405151	0.831990	1.108666
H165	H	0.912845	0.319049	0.548082
H166	H	1.412845	0.819049	1.048082
H167	H	0.928265	0.402287	0.623550
H168	H	1.428265	0.902287	1.123550
H169	H	0.848922	0.317346	0.623551
H170	H	1.348922	0.817346	1.123551
C171	C	1.062510	0.067654	0.799336
C172	C	1.562510	0.567654	1.299336
H173	H	1.087161	0.026248	0.759288
H174	H	1.587161	0.526248	1.259288
H175	H	1.023239	0.024524	0.834767
H176	H	1.523239	0.524524	1.334767
H177	H	1.102569	0.109486	0.834751
H178	H	1.602569	0.609486	1.334751
H179	H	0.889423	0.358298	0.378586
H180	H	1.389423	0.858298	0.878586
H181	H	1.031120	0.120303	0.378574
H182	H	1.531120	0.620303	0.878574
H183	H	1.036667	-0.106684	0.000121
H184	H	1.536667	0.393316	0.500121
C185	C	0.867645	-0.586101	0.000079
C186	C	1.367645	-0.086101	0.500079
H187	H	0.913769	-0.615145	0.000089
H188	H	1.413769	-0.115145	0.500089
H189	H	0.837917	-0.611004	-0.050231
H190	H	1.337917	-0.111004	0.449769
H191	H	0.834398	-0.605122	0.050389
H192	H	1.334398	-0.105122	0.550389
H193	H	0.895152	0.348649	0.213842
H194	H	1.395152	0.848649	0.713842
H195	H	0.770215	-0.446220	0.000068
H196	H	1.270215	0.053780	0.500068
C197	C	0.898448	0.343089	0.799354
C198	C	1.398448	0.843089	1.299354
H199	H	0.876558	0.379782	0.759312
H200	H	1.376558	0.879782	1.259312
H201	H	0.935218	0.390395	0.834792
H202	H	1.435218	0.890395	1.334792
H203	H	0.855937	0.305348	0.834763
H204	H	1.355937	0.805348	1.334763
H205	H	1.057536	0.075991	0.621626
H206	H	1.557536	0.575991	1.121626
H207	H	0.600356	0.355985	0.000092
H208	H	1.100356	0.855985	0.500092
H209	H	0.752136	0.371670	0.000076
H210	H	1.252136	0.871670	0.500076
H211	H	1.104990	-0.178013	0.000131
H212	H	1.604990	0.321987	0.500131
H213	H	0.386130	0.415910	0.000093
H214	H	0.886130	0.915910	0.500093
