data_functionalizedCrystal
_audit_creation_method	'MofGen! by Chris Wilmer'
_symmetry_space_group_name_H-M	'P1'
_symmetry_Int_Tables_number	1
_symmetry_cell_setting	triclinic
loop_
_symmetry_equiv_pos_as_xyz
  x,y,z
_cell_length_a	27.732048
_cell_length_b	27.732048
_cell_length_c	26.809956
_cell_angle_alpha	90.009578
_cell_angle_beta	90.010552
_cell_angle_gamma	82.642655
loop_
_atom_site_label
_atom_site_type_symbol
_atom_site_fract_x
_atom_site_fract_y
_atom_site_fract_z
O1	O	0.640935	0.057516	0.041421
O2	O	0.974269	0.390849	0.374754
O3	O	1.307602	0.724183	0.708087
O4	O	0.500142	0.066261	0.041436
O5	O	0.833475	0.399595	0.374770
O6	O	1.166809	0.732928	0.708103
O7	O	0.574911	-0.008508	0.041419
O8	O	0.908245	0.324825	0.374752
O9	O	1.241578	0.658159	0.708085
O10	O	0.566166	0.132285	0.041439
O11	O	0.899499	0.465619	0.374772
O12	O	1.232833	0.798952	0.708105
O13	O	0.574889	-0.008508	-0.041541
O14	O	0.908222	0.324825	0.291793
O15	O	1.241555	0.658159	0.625126
O16	O	0.500119	0.066261	-0.041523
O17	O	0.833452	0.399595	0.291811
O18	O	1.166786	0.732928	0.625144
O19	O	0.640912	0.057516	-0.041539
O20	O	0.974246	0.390849	0.291795
O21	O	1.307579	0.724183	0.625128
Zn22	Zn	0.570512	0.061889	-0.054702
Zn23	Zn	0.903845	0.395222	0.278631
Zn24	Zn	1.237179	0.728555	0.611964
Zn25	Zn	0.570542	0.061889	0.054600
Zn26	Zn	0.903876	0.395222	0.387933
Zn27	Zn	1.237209	0.728555	0.721267
O28	O	0.566143	0.132285	-0.041521
O29	O	0.899476	0.465619	0.291813
O30	O	1.232810	0.798952	0.625146
C31	C	0.482124	0.066078	-0.000041
C32	C	0.815457	0.399411	0.333292
C33	C	1.148790	0.732744	0.666625
C34	C	0.428469	0.065525	-0.000036
C35	C	0.761802	0.398858	0.333298
C36	C	1.095135	0.732192	0.666631
C37	C	0.089654	0.106229	-0.000051
C38	C	0.422987	0.439562	0.333282
C39	C	0.756320	0.772895	0.666615
C40	C	-0.112006	0.104178	-0.000056
C41	C	0.221327	0.437511	0.333277
C42	C	0.554661	0.770844	0.666610
O43	O	-0.143262	0.141398	-0.000073
O44	O	0.190072	0.474732	0.333261
O45	O	0.523405	0.808065	0.666594
N46	N	-0.131130	0.059843	-0.000062
N47	N	0.202204	0.393176	0.333272
N48	N	0.535537	0.726509	0.666605
C49	C	-0.099835	0.016017	-0.000069
C50	C	0.233498	0.349350	0.333264
C51	C	0.566832	0.682684	0.666598
O52	O	-0.120728	-0.021740	-0.000079
O53	O	0.212605	0.311593	0.333254
O54	O	0.545938	0.644927	0.666588
C55	C	0.101824	0.018068	-0.000068
C56	C	0.435157	0.351402	0.333265
C57	C	0.768490	0.684735	0.666599
C58	C	0.120944	0.062407	-0.000057
C59	C	0.454278	0.395740	0.333276
C60	C	0.787611	0.729073	0.666609
C61	C	0.108775	0.150563	-0.000042
C62	C	0.442108	0.483897	0.333292
C63	C	0.775442	0.817230	0.666625
C64	C	0.159187	0.151075	-0.000038
C65	C	0.492520	0.484409	0.333296
C66	C	0.825853	0.817742	0.666629
C67	C	0.190477	0.107253	-0.000044
C68	C	0.523811	0.440587	0.333290
C69	C	0.857144	0.773920	0.666623
C70	C	0.171356	0.062919	-0.000054
C71	C	0.504690	0.396252	0.333280
C72	C	0.838023	0.729585	0.666613
C73	C	0.133117	-0.025757	-0.000079
C74	C	0.466451	0.307577	0.333254
C75	C	0.799784	0.640910	0.666588
C76	C	0.183535	-0.025240	-0.000080
C77	C	0.516868	0.308094	0.333253
C78	C	0.850201	0.641427	0.666587
C79	C	0.202655	0.019098	-0.000069
C80	C	0.535989	0.352432	0.333264
C81	C	0.869322	0.685765	0.666597
C82	C	0.253059	0.019609	-0.000056
C83	C	0.586392	0.352942	0.333278
C84	C	0.919725	0.686276	0.666611
N85	N	0.272183	0.063944	-0.000050
N86	N	0.605516	0.397277	0.333283
N87	N	0.938849	0.730611	0.666616
C88	C	0.240892	0.107766	-0.000044
C89	C	0.574225	0.441100	0.333289
C90	C	0.907559	0.774433	0.666622
C91	C	-0.205709	0.014943	-0.000069
C92	C	0.127624	0.348276	0.333265
C93	C	0.460957	0.681610	0.666598
C94	C	-0.256124	0.014430	-0.000068
C95	C	0.077210	0.347763	0.333265
C96	C	0.410543	0.681097	0.666599
C97	C	-0.268291	0.102591	-0.000056
C98	C	0.065042	0.435924	0.333277
C99	C	0.398376	0.769258	0.666610
C100	C	-0.217876	0.103104	-0.000053
C101	C	0.115458	0.436437	0.333280
C102	C	0.448791	0.769770	0.666613
C103	C	-0.186585	0.059278	-0.000063
C104	C	0.146748	0.392612	0.333270
C105	C	0.480081	0.725945	0.666603
C106	C	0.346761	0.108839	-0.000036
C107	C	0.680094	0.442172	0.333298
C108	C	1.013428	0.775505	0.666631
C109	C	0.397178	0.109347	-0.000030
C110	C	0.730511	0.442681	0.333304
C111	C	1.063845	0.776014	0.666637
C112	C	0.409341	0.021186	-0.000044
C113	C	0.742674	0.354520	0.333289
C114	C	1.076008	0.687853	0.666622
C115	C	0.358929	0.020678	-0.000048
C116	C	0.692262	0.354011	0.333286
C117	C	1.025595	0.687344	0.666619
C118	C	0.327639	0.064508	-0.000045
C119	C	0.660973	0.397841	0.333288
C120	C	0.994306	0.731175	0.666622
O121	O	0.284343	-0.017592	-0.000045
O122	O	0.617676	0.315741	0.333288
O123	O	0.951009	0.649075	0.666622
O124	O	0.261794	0.145518	-0.000045
O125	O	0.595128	0.478851	0.333288
O126	O	0.928461	0.812184	0.666621
C127	C	0.039242	0.105716	-0.000055
C128	C	0.372575	0.439050	0.333278
C129	C	0.705908	0.772383	0.666611
C130	C	0.020120	0.061382	-0.000065
C131	C	0.353454	0.394715	0.333268
C132	C	0.686787	0.728049	0.666601
C133	C	0.051411	0.017560	-0.000071
C134	C	0.384744	0.350893	0.333262
C135	C	0.718078	0.684226	0.666595
C136	C	-0.030294	0.060869	-0.000065
C137	C	0.303039	0.394202	0.333269
C138	C	0.636373	0.727536	0.666602
C139	C	-0.061585	0.104691	-0.000059
C140	C	0.271749	0.438025	0.333275
C141	C	0.605082	0.771358	0.666608
C142	C	-0.042461	0.149026	-0.000053
C143	C	0.290872	0.482360	0.333280
C144	C	0.624206	0.815693	0.666613
C145	C	0.007951	0.149539	-0.000049
C146	C	0.341284	0.482872	0.333284
C147	C	0.674618	0.816205	0.666617
C148	C	0.032287	-0.026775	-0.000077
C149	C	0.365621	0.306558	0.333257
C150	C	0.698954	0.639891	0.666590
C151	C	-0.018125	-0.027284	-0.000080
C152	C	0.315208	0.306049	0.333253
C153	C	0.648541	0.639383	0.666587
C154	C	-0.049416	0.016538	-0.000074
C155	C	0.283917	0.349871	0.333259
C156	C	0.617251	0.683205	0.666593
C157	C	0.574716	-0.026515	-0.000062
C158	C	0.908050	0.306818	0.333271
C159	C	1.241383	0.640152	0.666604
C160	C	0.574164	-0.080170	-0.000066
C161	C	0.907497	0.253163	0.333267
C162	C	1.240830	0.586497	0.666600
C163	C	0.614867	-0.418985	-0.000045
C164	C	0.948201	-0.085652	0.333288
C165	C	1.281534	0.247682	0.666621
C166	C	0.612816	-0.620645	-0.000038
C167	C	0.946150	-0.287311	0.333295
C168	C	1.279483	0.046022	0.666628
O169	O	0.650037	-0.651900	-0.000021
O170	O	0.983370	-0.318567	0.333313
O171	O	1.316704	0.014766	0.666646
N172	N	0.568481	-0.639768	-0.000034
N173	N	0.901814	-0.306435	0.333300
N174	N	1.235148	0.026898	0.666633
C175	C	0.524656	-0.608474	-0.000028
C176	C	0.857989	-0.275140	0.333306
C177	C	1.191322	0.058193	0.666639
O178	O	0.486899	-0.629367	-0.000019
O179	O	0.820232	-0.296033	0.333315
O180	O	1.153565	0.037300	0.666648
C181	C	0.526707	-0.406815	-0.000031
C182	C	0.860040	-0.073482	0.333302
C183	C	1.193374	0.259852	0.666635
C184	C	0.571045	-0.387694	-0.000041
C185	C	0.904378	-0.054361	0.333292
C186	C	1.237712	0.278972	0.666626
C187	C	0.659202	-0.399864	-0.000054
C188	C	0.992535	-0.066530	0.333279
C189	C	1.325868	0.266803	0.666612
C190	C	0.659714	-0.349452	-0.000059
C191	C	0.993047	-0.016118	0.333274
C192	C	1.326381	0.317215	0.666608
C193	C	0.615892	-0.318161	-0.000054
C194	C	0.949225	0.015172	0.333279
C195	C	1.282559	0.348506	0.666612
C196	C	0.571557	-0.337282	-0.000045
C197	C	0.904891	-0.003949	0.333288
C198	C	1.238224	0.329384	0.666621
C199	C	0.482882	-0.375521	-0.000022
C200	C	0.816215	-0.042188	0.333312
C201	C	1.149549	0.291145	0.666645
C202	C	0.483399	-0.325104	-0.000021
C203	C	0.816732	0.008229	0.333312
C204	C	1.150066	0.341563	0.666645
C205	C	0.527737	-0.305983	-0.000031
C206	C	0.861070	0.027350	0.333302
C207	C	1.194404	0.360683	0.666636
C208	C	0.528247	-0.255580	-0.000045
C209	C	0.861581	0.077754	0.333288
C210	C	1.194914	0.411087	0.666621
N211	N	0.572583	-0.236456	-0.000050
N212	N	0.905916	0.096877	0.333283
N213	N	1.239249	0.430211	0.666617
C214	C	0.616405	-0.267747	-0.000054
C215	C	0.949738	0.065587	0.333279
C216	C	1.283072	0.398920	0.666612
C217	C	0.523582	-0.714348	-0.000027
C218	C	0.856915	-0.381014	0.333307
C219	C	1.190248	-0.047681	0.666640
C220	C	0.523069	-0.764762	-0.000027
C221	C	0.856402	-0.431429	0.333307
C222	C	1.189735	-0.098096	0.666640
C223	C	0.611230	-0.776930	-0.000036
C224	C	0.944563	-0.443596	0.333297
C225	C	1.277896	-0.110263	0.666630
C226	C	0.611742	-0.726514	-0.000040
C227	C	0.945075	-0.393181	0.333293
C228	C	1.278409	-0.059848	0.666627
C229	C	0.567917	-0.695224	-0.000031
C230	C	0.901250	-0.361891	0.333302
C231	C	1.234583	-0.028557	0.666635
C232	C	0.617477	-0.161878	-0.000064
C233	C	0.950811	0.171456	0.333269
C234	C	1.284144	0.504789	0.666602
C235	C	0.617986	-0.111461	-0.000071
C236	C	0.951319	0.221873	0.333262
C237	C	1.284652	0.555206	0.666596
C238	C	0.529825	-0.099298	-0.000059
C239	C	0.863158	0.234036	0.333275
C240	C	1.196492	0.567369	0.666608
C241	C	0.529316	-0.149710	-0.000055
C242	C	0.862650	0.183623	0.333279
C243	C	1.195983	0.516957	0.666612
C244	C	0.573147	-0.180999	-0.000056
C245	C	0.906480	0.152334	0.333277
C246	C	1.239813	0.485667	0.666611
O247	O	0.491047	-0.224296	-0.000057
O248	O	0.824380	0.109038	0.333276
O249	O	1.157713	0.442371	0.666609
O250	O	0.654156	-0.246844	-0.000053
O251	O	0.987490	0.086489	0.333281
O252	O	1.320823	0.419823	0.666614
C253	C	0.614355	-0.469397	-0.000041
C254	C	0.947688	-0.136064	0.333292
C255	C	1.281022	0.197270	0.666626
C256	C	0.570021	-0.488518	-0.000032
C257	C	0.903354	-0.155185	0.333301
C258	C	1.236687	0.178148	0.666635
C259	C	0.526198	-0.457228	-0.000027
C260	C	0.859532	-0.123894	0.333306
C261	C	1.192865	0.209439	0.666639
C262	C	0.569508	-0.538933	-0.000032
C263	C	0.902841	-0.205599	0.333301
C264	C	1.236174	0.127734	0.666635
C265	C	0.613330	-0.570223	-0.000036
C266	C	0.946663	-0.236890	0.333297
C267	C	1.279996	0.096443	0.666630
C268	C	0.657665	-0.551100	-0.000041
C269	C	0.990998	-0.217766	0.333292
C270	C	1.324332	0.115567	0.666626
C271	C	0.658177	-0.500688	-0.000045
C272	C	0.991511	-0.167354	0.333288
C273	C	1.324844	0.165979	0.666621
C274	C	0.481863	-0.476351	-0.000023
C275	C	0.815197	-0.143018	0.333310
C276	C	1.148530	0.190315	0.666644
C277	C	0.481355	-0.526764	-0.000019
C278	C	0.814688	-0.193430	0.333314
C279	C	1.148021	0.139903	0.666648
C280	C	0.525177	-0.558054	-0.000023
C281	C	0.858510	-0.224721	0.333310
C282	C	1.191843	0.108612	0.666643
C283	C	0.658931	0.057699	-0.000060
C284	C	0.992264	0.391033	0.333274
C285	C	1.325598	0.724366	0.666607
C286	C	0.712586	0.058252	-0.000062
C287	C	1.045919	0.391586	0.333271
C288	C	1.379252	0.724919	0.666605
C289	C	0.566338	0.150292	-0.000039
C290	C	0.899671	0.483626	0.333295
C291	C	1.233005	0.816959	0.666628
C292	C	0.566891	0.203947	-0.000031
C293	C	0.900224	0.537280	0.333302
C294	C	1.233557	0.870614	0.666635
N295	N	0.570495	0.061888	-0.129298
N296	N	0.903828	0.395222	0.204035
N297	N	1.237162	0.728555	0.537368
C298	C	0.599633	0.090999	-0.473923
C299	C	0.932966	0.424333	-0.140590
C300	C	1.266299	0.757666	0.192743
C301	C	0.599648	0.090999	-0.682801
C302	C	0.932982	0.424332	-0.349468
C303	C	1.266315	0.757666	-0.016134
O304	O	0.624410	0.115745	-0.709804
O305	O	0.957743	0.449078	-0.376471
O306	O	1.291076	0.782412	-0.043138
N307	N	0.570554	0.061884	-0.708925
N308	N	0.903887	0.395217	-0.375592
N309	N	1.237221	0.728550	-0.042259
C310	C	0.541456	0.032764	-0.682827
C311	C	0.874789	0.366097	-0.349494
C312	C	1.208122	0.699431	-0.016160
O313	O	0.516713	0.007996	-0.709840
O314	O	0.850046	0.341329	-0.376507
O315	O	1.183380	0.674663	-0.043173
C316	C	0.541443	0.032762	-0.473950
C317	C	0.874776	0.366095	-0.140617
C318	C	1.208110	0.699429	0.192717
C319	C	0.570536	0.061883	-0.447829
C320	C	0.903869	0.395216	-0.114495
C321	C	1.237202	0.728550	0.218838
C322	C	0.628724	0.120117	-0.447802
C323	C	0.962057	0.453451	-0.114469
C324	C	1.295390	0.786784	0.218865
C325	C	0.628717	0.120119	-0.395586
C326	C	0.962051	0.453453	-0.062252
C327	C	1.295384	0.786786	0.271081
C328	C	0.599620	0.091003	-0.369491
C329	C	0.932954	0.424336	-0.036158
C330	C	1.266287	0.757670	0.297176
C331	C	0.570530	0.061885	-0.395612
C332	C	0.903863	0.395218	-0.062279
C333	C	1.237196	0.728552	0.271054
C334	C	0.512348	0.003640	-0.447853
C335	C	0.845681	0.336974	-0.114519
C336	C	1.179014	0.670307	0.218814
C337	C	0.512348	0.003641	-0.395630
C338	C	0.845681	0.336975	-0.062297
C339	C	1.179015	0.670308	0.271036
C340	C	0.541441	0.032762	-0.369509
C341	C	0.874774	0.366096	-0.036175
C342	C	1.208108	0.699429	0.297158
C343	C	0.541426	0.032770	-0.317301
C344	C	0.874760	0.366104	0.016032
C345	C	1.208093	0.699437	0.349365
N346	N	0.570521	0.061886	-0.291177
N347	N	0.903854	0.395219	0.042156
N348	N	1.237188	0.728552	0.375490
C349	C	0.599618	0.091002	-0.317272
C350	C	0.932951	0.424335	0.016061
C351	C	1.266285	0.757669	0.349395
C352	C	0.541464	0.032768	-0.792490
C353	C	0.874797	0.366101	-0.459157
C354	C	1.208130	0.699434	-0.125824
C355	C	0.541466	0.032769	-0.844709
C356	C	0.874799	0.366102	-0.511376
C357	C	1.208133	0.699435	-0.178042
C358	C	0.599660	0.091003	-0.844680
C359	C	0.932993	0.424336	-0.511346
C360	C	1.266326	0.757670	-0.178013
C361	C	0.599654	0.091004	-0.792460
C362	C	0.932988	0.424338	-0.459127
C363	C	1.266321	0.757671	-0.125793
C364	C	0.570558	0.061883	-0.766366
C365	C	0.903892	0.395216	-0.433033
C366	C	1.237225	0.728550	-0.099699
C367	C	0.599602	0.091004	-0.207614
C368	C	0.932936	0.424337	0.125719
C369	C	1.266269	0.757671	0.459053
C370	C	0.599592	0.091005	-0.155393
C371	C	0.932925	0.424338	0.177940
C372	C	1.266259	0.757671	0.511274
C373	C	0.541401	0.032769	-0.155427
C374	C	0.874734	0.366102	0.177906
C375	C	1.208067	0.699435	0.511240
C376	C	0.541409	0.032769	-0.207643
C377	C	0.874742	0.366103	0.125690
C378	C	1.208076	0.699436	0.459023
C379	C	0.570514	0.061889	-0.233735
C380	C	0.903847	0.395222	0.099598
C381	C	1.237180	0.728555	0.432931
O382	O	0.516682	0.008033	-0.290266
O383	O	0.850016	0.341367	0.043067
O384	O	1.183349	0.674700	0.376401
O385	O	0.624365	0.115758	-0.290250
O386	O	0.957698	0.449092	0.043083
O387	O	1.291032	0.782425	0.376417
C388	C	0.599639	0.090998	-0.526140
C389	C	0.932972	0.424331	-0.192806
C390	C	1.266306	0.757664	0.140527
C391	C	0.570548	0.061879	-0.552261
C392	C	0.903881	0.395213	-0.218928
C393	C	1.237215	0.728546	0.114405
C394	C	0.541451	0.032763	-0.526166
C395	C	0.874784	0.366096	-0.192833
C396	C	1.208118	0.699430	0.140500
C397	C	0.570551	0.061880	-0.604480
C398	C	0.903884	0.395214	-0.271147
C399	C	1.237217	0.728547	0.062186
C400	C	0.599648	0.090997	-0.630575
C401	C	0.932981	0.424330	-0.297242
C402	C	1.266314	0.757663	0.036092
C403	C	0.628742	0.120112	-0.604451
C404	C	0.962076	0.453445	-0.271117
C405	C	1.295409	0.786779	0.062216
C406	C	0.628736	0.120114	-0.552235
C407	C	0.962069	0.453447	-0.218901
C408	C	1.295403	0.786781	0.114432
C409	C	0.512357	0.003648	-0.552291
C410	C	0.845690	0.336981	-0.218957
C411	C	1.179023	0.670315	0.114376
C412	C	0.512365	0.003649	-0.604507
C413	C	0.845698	0.336982	-0.271174
C414	C	1.179031	0.670315	0.062160
C415	C	0.541462	0.032765	-0.630602
C416	C	0.874795	0.366098	-0.297268
C417	C	1.208128	0.699432	0.036065
N418	N	0.570563	0.061885	0.129196
N419	N	0.903896	0.395218	0.462529
N420	N	1.237230	0.728552	0.795863
H421	H	-0.271687	-0.021674	-0.000069
H422	H	0.061646	0.311659	0.333264
H423	H	0.394980	0.644992	0.666598
H424	H	-0.067947	0.184708	-0.000046
H425	H	0.265386	0.518041	0.333287
H426	H	0.598720	0.851375	0.666620
Cl427	Cl	0.183216	0.206818	-0.000028
Cl428	Cl	0.516550	0.540151	0.333305
Cl429	Cl	0.849883	0.873485	0.666639
Cl430	Cl	0.636232	0.127612	-0.759627
Cl431	Cl	0.969565	0.460946	-0.426294
Cl432	Cl	1.302898	0.794279	-0.092960
Cl433	Cl	0.031981	0.205281	-0.000037
Cl434	Cl	0.365314	0.538614	0.333296
Cl435	Cl	0.698647	0.871948	0.666630
H436	H	0.653168	-0.187348	-0.000063
H437	H	0.986501	0.145985	0.333270
H438	H	1.319835	0.479319	0.666603
H439	H	0.652410	0.143830	-0.374322
H440	H	0.985743	0.477164	-0.040989
H441	H	1.319077	0.810497	0.292345
H442	H	0.623283	0.114721	-0.134127
H443	H	0.956616	0.448054	0.199206
H444	H	1.289950	0.781387	0.532539
H445	H	0.117558	-0.061861	-0.000088
H446	H	0.450892	0.271472	0.333245
H447	H	0.784225	0.604805	0.666579
H448	H	0.447710	-0.299629	-0.000014
H449	H	0.781043	0.033704	0.333320
H450	H	1.114377	0.367037	0.666653
Cl451	Cl	0.071617	-0.081872	-0.000084
Cl452	Cl	0.404951	0.251461	0.333249
Cl453	Cl	0.738284	0.584794	0.666582
H454	H	0.488669	-0.020064	-0.625771
H455	H	0.822002	0.313270	-0.292437
H456	H	1.155336	0.646603	0.040896
Cl457	Cl	0.473577	-0.173748	-0.000052
Cl458	Cl	0.806910	0.159585	0.333281
Cl459	Cl	1.140243	0.492918	0.666615
H460	H	0.083302	0.186251	-0.000038
H461	H	0.416636	0.519584	0.333295
H462	H	0.749969	0.852917	0.666628
Cl463	Cl	0.474737	-0.059952	-0.000052
Cl464	Cl	0.808071	0.273382	0.333281
Cl465	Cl	1.141404	0.606715	0.666615
H466	H	0.445246	-0.542327	-0.000015
H467	H	0.778580	-0.208993	0.333318
H468	H	1.111913	0.124340	0.666651
Cl469	Cl	-0.193844	0.158845	-0.000042
Cl470	Cl	0.139490	0.492178	0.333292
Cl471	Cl	0.472823	0.825511	0.666625
Cl472	Cl	0.475772	-0.032975	-0.362830
Cl473	Cl	0.809105	0.300359	-0.029496
Cl474	Cl	1.142438	0.633692	0.303837
Cl475	Cl	-0.307637	0.157681	-0.000051
Cl476	Cl	0.025696	0.491015	0.333283
Cl477	Cl	0.359030	0.824348	0.666616
H478	H	0.412743	0.145454	-0.000021
H479	H	0.746076	0.478787	0.333313
H480	H	1.079410	0.812121	0.666646
Cl481	Cl	-0.042156	-0.083029	-0.000087
Cl482	Cl	0.291178	0.250304	0.333247
Cl483	Cl	0.624511	0.583637	0.666580
Cl484	Cl	0.673729	-0.087427	-0.000082
Cl485	Cl	1.007063	0.245907	0.333251
Cl486	Cl	1.340396	0.579240	0.666585
Cl487	Cl	0.665309	0.156728	-0.519404
Cl488	Cl	0.998642	0.490061	-0.186071
Cl489	Cl	1.331976	0.823395	0.147263
H490	H	-0.180236	-0.020747	-0.000077
H491	H	0.153097	0.312586	0.333256
H492	H	0.486430	0.645920	0.666590
H493	H	0.652420	0.143828	-0.469043
H494	H	0.985754	0.477161	-0.135709
H495	H	1.319087	0.810494	0.197624
Cl496	Cl	0.426766	-0.437021	-0.000016
Cl497	Cl	0.760100	-0.103688	0.333317
Cl498	Cl	1.093433	0.229645	0.666650
Cl499	Cl	0.475765	-0.032951	-0.519494
Cl500	Cl	0.809099	0.300382	-0.186161
Cl501	Cl	1.142432	0.633715	0.147173
Cl502	Cl	0.222868	-0.080338	-0.000094
Cl503	Cl	0.556201	0.252995	0.333240
Cl504	Cl	0.889535	0.586329	0.666573
H505	H	0.623350	0.114713	-0.865935
H506	H	0.956683	0.448046	-0.532602
H507	H	1.290016	0.781379	-0.199268
Cl508	Cl	0.504823	-0.003832	-0.122612
Cl509	Cl	0.838156	0.329501	0.210721
Cl510	Cl	1.171490	0.662834	0.544054
Cl511	Cl	0.307434	0.163940	-0.000032
Cl512	Cl	0.640767	0.497274	0.333302
Cl513	Cl	0.974100	0.830607	0.666635
Cl514	Cl	0.713920	-0.476658	-0.000053
Cl515	Cl	1.047253	-0.143325	0.333280
Cl516	Cl	1.380586	0.190009	0.666614
H517	H	0.434827	-0.014492	-0.000047
H518	H	0.768160	0.318841	0.333286
H519	H	1.101494	0.652174	0.666619
H520	H	0.695819	-0.333889	-0.000065
H521	H	1.029152	-0.000555	0.333269
H522	H	1.362485	0.332778	0.666602
H523	H	0.646911	-0.802415	-0.000040
H524	H	0.980245	-0.469082	0.333293
H525	H	1.313578	-0.135749	0.666626
Cl526	Cl	0.714300	-0.439193	-0.000061
Cl527	Cl	1.047634	-0.105859	0.333272
Cl528	Cl	1.380967	0.227474	0.666606
H529	H	0.517770	0.009061	-0.865973
H530	H	0.851103	0.342395	-0.532640
H531	H	1.184437	0.675728	-0.199306
H532	H	0.517713	0.009063	-0.228912
H533	H	0.851046	0.342396	0.104421
H534	H	1.184380	0.675730	0.437754
Cl535	Cl	0.667483	-0.702482	-0.000051
Cl536	Cl	1.000817	-0.369149	0.333282
Cl537	Cl	1.334150	-0.035816	0.666615
H538	H	0.343360	-0.015426	-0.000049
H539	H	0.676693	0.317907	0.333285
H540	H	1.010027	0.651241	0.666618
H541	H	0.693347	-0.576585	-0.000047
H542	H	1.026680	-0.243252	0.333287
H543	H	1.360013	0.090081	0.666620
H544	H	0.487892	-0.688875	-0.000020
H545	H	0.821225	-0.355542	0.333313
H546	H	1.154558	-0.022208	0.666647
Cl547	Cl	0.467327	-0.788793	-0.000024
Cl548	Cl	0.800660	-0.455460	0.333309
Cl549	Cl	1.133994	-0.122127	0.666642
Cl550	Cl	0.427139	-0.399546	-0.000006
Cl551	Cl	0.760472	-0.066213	0.333327
Cl552	Cl	1.093806	0.267121	0.666660
Cl553	Cl	0.504872	-0.003836	-0.759694
Cl554	Cl	0.838205	0.329497	-0.426360
Cl555	Cl	1.171539	0.662831	-0.093027
H556	H	0.623303	0.114715	-0.228852
H557	H	0.956636	0.448048	0.104481
H558	H	1.289969	0.781382	0.437815
Cl559	Cl	0.475772	-0.032972	-0.480678
Cl560	Cl	0.809105	0.300362	-0.147345
Cl561	Cl	1.142438	0.633695	0.185988
Cl562	Cl	0.665319	0.156717	-0.637266
Cl563	Cl	0.998653	0.490050	-0.303932
Cl564	Cl	1.331986	0.823383	0.029401
