data_functionalizedCrystal
_audit_creation_method	'MofGen! by Chris Wilmer'
_symmetry_space_group_name_H-M	'P1'
_symmetry_Int_Tables_number	1
_symmetry_cell_setting	triclinic
loop_
_symmetry_equiv_pos_as_xyz
  x,y,z
_cell_length_a	17.699083
_cell_length_b	15.021413
_cell_length_c	17.699092
_cell_angle_alpha	89.994305
_cell_angle_beta	83.284691
_cell_angle_gamma	90.001270
loop_
_atom_site_label
_atom_site_type_symbol
_atom_site_fract_x
_atom_site_fract_y
_atom_site_fract_z
O1	O	1.004083	0.073904	0.095701
O2	O	1.504083	0.573904	0.595701
O3	O	0.783705	0.073933	0.108153
O4	O	1.283705	0.573933	0.608153
O5	O	0.900117	0.073915	-0.008262
O6	O	1.400117	0.573915	0.491738
O7	O	0.887671	0.073921	0.212116
O8	O	1.387671	0.573921	0.712116
O9	O	0.900098	-0.074149	-0.008245
O10	O	1.400098	0.425851	0.491755
O11	O	0.783686	-0.074132	0.108170
O12	O	1.283686	0.425868	0.608170
O13	O	1.004064	-0.074160	0.095717
O14	O	1.504064	0.425840	0.595717
Zn15	Zn	0.893872	-0.097654	0.101946
Zn16	Zn	1.393872	0.402346	0.601946
Zn17	Zn	0.893897	0.097427	0.101924
Zn18	Zn	1.393897	0.597427	0.601924
O19	O	0.887652	-0.074143	0.212132
O20	O	1.387652	0.425857	0.712132
C21	C	0.755499	-0.000096	0.107715
C22	C	1.255499	0.499904	0.607715
C23	C	0.671480	-0.000085	0.106377
C24	C	1.171480	0.499915	0.606377
N25	N	0.893861	-0.230792	0.101961
N26	N	1.393861	0.269208	0.601961
C27	C	0.622862	-0.000083	0.174710
C28	C	1.122862	0.499917	0.674710
C29	C	0.543918	-0.000095	0.173448
C30	C	1.043918	0.499905	0.673448
C31	C	0.513595	-0.000101	0.103851
C32	C	1.013595	0.499899	0.603851
C33	C	0.562220	-0.000106	0.035513
C34	C	1.062220	0.499894	0.535513
C35	C	0.641162	-0.000100	0.036776
C36	C	1.141162	0.499900	0.536776
C37	C	0.243857	-0.000128	0.030418
C38	C	0.743857	0.499872	0.530418
C39	C	0.164909	-0.000130	0.029160
C40	C	0.664909	0.499870	0.529160
C41	C	0.146613	-0.000122	0.167089
C42	C	0.646613	0.499878	0.667089
C43	C	0.225555	-0.000117	0.168352
C44	C	0.725555	0.499883	0.668352
C45	C	0.274173	-0.000126	0.100014
C46	C	0.774173	0.499874	0.600014
C47	C	0.359772	-0.000115	0.101384
C48	C	0.859772	0.499885	0.601384
C49	C	0.427998	-0.000106	0.102481
C50	C	0.927998	0.499894	0.602481
C51	C	0.840024	-0.470467	0.155766
C52	C	1.340024	0.029533	0.655766
C53	C	0.908388	-0.529810	0.170330
C54	C	1.408388	-0.029810	0.670330
C55	C	0.893881	-0.412399	0.101942
C56	C	1.393881	0.087601	0.601942
C57	C	0.825535	-0.529797	0.087395
C58	C	1.325535	-0.029797	0.587395
C59	C	0.893893	-0.587823	0.101925
C60	C	1.393893	-0.087823	0.601925
C61	C	0.962279	-0.470435	0.116540
C62	C	1.462279	0.029565	0.616540
C63	C	0.879381	-0.470417	0.033575
C64	C	1.379381	0.029583	0.533575
C65	C	0.947795	-0.529734	0.048110
C66	C	1.447795	-0.029734	0.548110
C67	C	0.893872	-0.311341	0.101953
C68	C	1.393872	0.188659	0.601953
C69	C	0.893909	-0.688878	0.101913
C70	C	1.393909	-0.188878	0.601913
C71	C	1.032271	-0.000130	0.096155
C72	C	1.532271	0.499870	0.596155
C73	C	1.116289	-0.000135	0.097494
C74	C	1.616289	0.499865	0.597494
C75	C	0.899661	-0.000115	-0.036450
C76	C	1.399661	0.499885	0.463550
C77	C	0.898319	-0.000111	-0.120468
C78	C	1.398319	0.499889	0.379532
N79	N	0.893914	0.230564	0.101904
N80	N	1.393914	0.730564	0.601904
C81	C	0.897701	0.080600	-0.159945
C82	C	1.397701	0.580600	0.340055
C83	C	0.896436	0.080601	-0.238888
C84	C	1.396436	0.580601	0.261112
C85	C	0.895795	-0.000109	-0.278353
C86	C	1.395795	0.499891	0.221647
C87	C	0.896411	-0.080827	-0.238871
C88	C	1.396411	0.419173	0.261129
C89	C	0.897671	-0.080827	-0.159929
C90	C	1.397671	0.419173	0.340071
C91	C	0.891331	-0.080827	-0.557236
C92	C	1.391331	0.419173	-0.057236
C93	C	0.890073	-0.080821	-0.636184
C94	C	1.390073	0.419179	-0.136184
C95	C	0.890096	0.080601	-0.636195
C96	C	1.390096	0.580601	-0.136195
C97	C	0.891356	0.080601	-0.557253
C98	C	1.391356	0.580601	-0.057253
C99	C	0.891968	-0.000116	-0.517777
C100	C	1.391968	0.499884	-0.017777
C101	C	0.893338	-0.000116	-0.432178
C102	C	1.393338	0.499884	0.067822
C103	C	0.894430	-0.000110	-0.363952
C104	C	1.394430	0.499890	0.136048
C105	C	0.888109	-0.000110	0.240321
C106	C	1.388109	0.499890	0.740321
C107	C	0.889450	-0.000109	0.324339
C108	C	1.389450	0.499891	0.824339
H109	H	0.647544	-0.000077	0.231383
H110	H	1.147544	0.499923	0.731383
F111	F	0.895720	-0.166725	-0.280874
F112	F	1.395720	0.333275	0.219126
H113	H	0.895936	0.146324	-0.271026
H114	H	1.395936	0.646324	0.228974
H115	H	1.020095	-0.444470	0.128906
H116	H	1.520095	0.055530	0.628906
F117	F	0.492177	-0.000089	0.246177
F118	F	0.992177	0.499911	0.746177
H119	H	0.250239	-0.000107	0.225025
H120	H	0.750239	0.499893	0.725025
H121	H	0.889549	-0.146549	-0.668315
H122	H	1.389549	0.353451	-0.168315
F123	F	0.295591	-0.000137	-0.042314
F124	F	0.795591	0.499863	0.457686
F125	F	1.007395	-0.563539	-0.011397
F126	F	1.507395	-0.063539	0.488603
F127	F	0.529947	-0.000118	-0.038557
F128	F	1.029947	0.499882	0.461443
F129	F	0.780555	-0.436450	0.215306
F130	F	1.280555	0.063550	0.715306
F131	F	0.692906	-0.000105	-0.035953
F132	F	1.192906	0.499895	0.464047
F133	F	0.749983	-0.563882	0.071320
F134	F	1.249983	-0.063882	0.571320
F135	F	0.891972	-0.166733	-0.515232
F136	F	1.391972	0.333267	-0.015232
F137	F	0.898328	-0.166730	-0.117915
F138	F	1.398328	0.333270	0.382085
F139	F	0.863309	-0.436289	-0.041962
F140	F	1.363309	0.063711	0.458038
F141	F	0.924434	-0.563910	0.245889
F142	F	1.424434	-0.063910	0.745889
H143	H	0.898228	0.146324	-0.127818
H144	H	1.398228	0.646324	0.372182
H145	H	0.889594	0.146324	-0.668345
H146	H	1.389594	0.646324	-0.168345
F147	F	0.094864	-0.000116	0.239821
F148	F	0.594864	0.499884	0.739821
F149	F	0.132640	-0.000138	-0.044918
F150	F	0.632640	0.499862	0.455082
H151	H	0.891882	0.146323	-0.525124
H152	H	1.391882	0.646323	-0.025124
