data_functionalizedCrystal
_audit_creation_method	'MofGen! by Chris Wilmer'
_symmetry_space_group_name_H-M	'P1'
_symmetry_Int_Tables_number	1
_symmetry_cell_setting	triclinic
loop_
_symmetry_equiv_pos_as_xyz
  x,y,z
_cell_length_a	10.489716
_cell_length_b	10.489716
_cell_length_c	14.185569
_cell_angle_alpha	76.713535
_cell_angle_beta	103.290217
_cell_angle_gamma	84.529136
loop_
_atom_site_label
_atom_site_type_symbol
_atom_site_fract_x
_atom_site_fract_y
_atom_site_fract_z
O1	O	1.665390	0.208472	-0.083399
O2	O	1.294188	0.225399	-0.083402
O3	O	1.488250	0.031336	-0.083404
O4	O	1.471327	0.402535	-0.083397
O5	O	1.545578	-0.025985	0.083430
O6	O	1.351515	0.168077	0.083432
O7	O	1.722718	0.151151	0.083435
Cu8	Cu	1.542351	0.154380	0.098667
Cu9	Cu	1.474554	0.222170	-0.098634
O10	O	1.528655	0.345213	0.083437
C11	C	1.275319	0.195467	0.000015
C12	C	1.133688	0.191662	0.000013
C13	C	1.036004	0.310668	0.000013
C14	C	0.986930	0.219520	0.082274
C15	C	0.930416	0.276006	-0.082211
C16	C	1.086503	0.100540	0.082342
C17	C	1.029969	0.157069	-0.082217
C18	C	0.980951	0.065826	0.000064
C19	C	1.515641	-0.044856	0.000010
C20	C	1.511834	-0.186483	0.000001
C21	C	1.630843	-0.284171	0.000011
C22	C	1.539693	-0.333264	-0.082245
C23	C	1.596186	-0.389743	0.082240
C24	C	1.420710	-0.233688	-0.082323
C25	C	1.477246	-0.290186	0.082236
C26	C	1.386001	-0.339224	-0.000040
C27	C	1.741585	0.181084	0.000016
C28	C	1.883214	0.184890	0.000011
C29	C	1.501263	0.421406	0.000021
C30	C	1.505069	0.563036	0.000023
N31	N	1.590045	0.106700	0.237437
N32	N	1.426870	0.269840	-0.237404
C33	C	1.286745	0.409868	0.605091
C34	C	1.322881	0.373760	0.710112
C35	C	1.494760	0.201982	0.710071
C36	C	1.458633	0.238072	0.605048
C37	C	1.354626	0.342017	0.552566
C38	C	1.526514	0.170221	0.552523
C39	C	1.490395	0.206313	0.447509
C40	C	1.386395	0.310256	0.395019
C41	C	1.318507	0.378109	0.447552
C42	C	1.630527	0.066282	0.605006
C43	C	1.698409	-0.001569	0.552482
C44	C	1.662283	0.034516	0.447466
C45	C	1.558283	0.138460	0.394976
C46	C	1.730171	-0.033337	0.394933
C47	C	1.694052	0.002755	0.289919
C48	C	1.522164	0.174551	0.289962
H49	H	0.863034	0.350159	-0.151746
H50	H	1.670343	-0.457112	0.151779
H51	H	0.967341	0.245862	0.151821
H52	H	1.814864	-0.117961	0.437678
H53	H	1.734329	-0.259475	-0.000072
Cl54	Cl	1.829159	-0.132236	0.618466
Cl55	Cl	1.226043	-0.376913	-0.000105
Cl56	Cl	1.190312	-0.013904	0.189824
Cl57	Cl	1.060256	0.116474	-0.189597
Cl58	Cl	1.580359	-0.363540	-0.189611
H59	H	1.450950	-0.270558	0.151781
H60	H	1.233805	0.462742	0.404819
Cl61	Cl	1.391395	0.305216	0.223981
H62	H	0.956546	-0.037782	0.000110
H63	H	1.356992	0.339644	0.309510
Cl64	Cl	1.155976	0.540532	0.539109
H65	H	1.267596	0.429024	0.752872
Cl66	Cl	1.306259	-0.129900	-0.189812
Cl67	Cl	1.625510	0.071315	0.776055
Cl68	Cl	1.779396	-0.082543	0.223886
Cl69	Cl	1.074136	0.470442	0.000135
Cl70	Cl	1.675936	0.020920	0.737026
