data_functionalizedCrystal
_audit_creation_method	'MofGen! by Chris Wilmer'
_symmetry_space_group_name_H-M	'P1'
_symmetry_Int_Tables_number	1
_symmetry_cell_setting	triclinic
loop_
_symmetry_equiv_pos_as_xyz
  x,y,z
_cell_length_a	19.805407
_cell_length_b	19.805405
_cell_length_c	19.805399
_cell_angle_alpha	90.027486
_cell_angle_beta	89.980427
_cell_angle_gamma	89.972273
loop_
_atom_site_label
_atom_site_type_symbol
_atom_site_fract_x
_atom_site_fract_y
_atom_site_fract_z
Zn1	Zn	1.034729	0.269479	-0.382720
Zn2	Zn	1.534729	0.769479	0.117280
Zn3	Zn	1.034642	0.382667	-0.269532
Zn4	Zn	1.534642	0.882667	0.230468
Zn5	Zn	0.921544	0.269498	-0.269545
Zn6	Zn	1.421544	0.769498	0.230455
Zn7	Zn	0.921505	0.382631	-0.382679
Zn8	Zn	1.421505	0.882631	0.117321
O9	O	0.978105	0.326069	-0.326119
O10	O	1.478105	0.826069	0.173881
O11	O	1.129434	0.284501	-0.367717
O12	O	1.629434	0.784501	0.132283
O13	O	1.019619	0.367678	-0.174817
O14	O	1.519619	0.867678	0.325183
O15	O	0.936611	0.174778	-0.284580
O16	O	1.436611	0.674778	0.215420
O17	O	1.129370	0.367660	-0.284559
O18	O	1.629370	0.867660	0.215441
O19	O	1.019768	0.174765	-0.367730
O20	O	1.519768	0.674765	0.132270
O21	O	0.936526	0.284533	-0.174826
O22	O	1.436526	0.784533	0.325174
O23	O	0.826822	0.284498	-0.284540
O24	O	1.326822	0.784498	0.215460
O25	O	0.936545	0.367598	-0.477401
O26	O	1.436545	0.867598	0.022599
O27	O	0.826794	0.367617	-0.367659
O28	O	1.326794	0.867617	0.132341
O29	O	1.019730	0.284466	-0.477431
O30	O	1.519730	0.784466	0.022569
O31	O	1.019581	0.477379	-0.284519
O32	O	1.519581	0.977379	0.215481
O33	O	0.936460	0.477353	-0.367647
O34	O	1.436460	0.977353	0.132353
C35	C	0.802249	0.326056	-0.326097
C36	C	1.302249	0.826056	0.173903
C37	C	0.727017	0.326067	-0.326104
C38	C	1.227017	0.826067	0.173896
C39	C	0.691676	0.369412	-0.369314
C40	C	1.191676	0.869412	0.130686
C41	C	0.620987	0.369413	-0.369323
C42	C	1.120987	0.869413	0.130677
C43	C	0.585642	0.326072	-0.326119
C44	C	1.085642	0.826072	0.173881
C45	C	0.620988	0.282722	-0.282907
C46	C	1.120988	0.782722	0.217093
C47	C	0.691675	0.282718	-0.282901
C48	C	1.191675	0.782718	0.217099
C49	C	0.335915	0.282737	-0.282929
C50	C	0.835915	0.782737	0.217071
C51	C	0.265222	0.282746	-0.282937
C52	C	0.765222	0.782746	0.217063
C53	C	0.265227	0.369432	-0.369351
C54	C	0.765227	0.869432	0.130649
C55	C	0.335914	0.369428	-0.369346
C56	C	0.835914	0.869428	0.130654
C57	C	0.371254	0.326076	-0.326137
C58	C	0.871254	0.826076	0.173863
C59	C	0.447903	0.326074	-0.326128
C60	C	0.947903	0.826074	0.173872
C61	C	0.508994	0.326076	-0.326124
C62	C	1.008994	0.826076	0.173876
C63	C	0.978025	0.501925	-0.326092
C64	C	1.478025	1.001925	0.173908
C65	C	0.978053	0.577157	-0.326103
C66	C	1.478053	1.077157	0.173897
C67	C	1.021375	0.612492	-0.282864
C68	C	1.521375	1.112492	0.217136
C69	C	1.021402	0.683181	-0.282881
C70	C	1.521402	1.183181	0.217119
C71	C	0.978103	0.718532	-0.326134
C72	C	1.478103	1.218532	0.173866
C73	C	0.934779	0.683192	-0.369378
C74	C	1.434779	1.183192	0.130622
C75	C	0.934755	0.612505	-0.369363
C76	C	1.434755	1.112505	0.130637
C77	C	0.934872	0.968265	-0.369437
C78	C	1.434872	1.468265	0.130563
C79	C	0.934897	1.038957	-0.369446
C80	C	1.434897	1.538957	0.130554
C81	C	1.021518	1.038941	-0.282955
C82	C	1.521518	1.538941	0.217045
C83	C	1.021495	0.968254	-0.282941
C84	C	1.521495	1.468254	0.217059
C85	C	0.978174	0.932920	-0.326186
C86	C	1.478174	1.432920	0.173814
C87	C	0.978146	0.856271	-0.326168
C88	C	1.478146	1.356271	0.173832
C89	C	0.978127	0.795179	-0.326150
C90	C	1.478127	1.295179	0.173850
C91	C	1.154648	0.326082	-0.326141
C92	C	1.654648	0.826082	0.173859
C93	C	1.229880	0.326088	-0.326151
C94	C	1.729880	0.826088	0.173849
C95	C	0.978143	0.326026	-0.502662
C96	C	1.478143	0.826026	-0.002662
C97	C	0.978159	0.326008	-0.577894
C98	C	1.478159	0.826008	-0.077894
C99	C	0.978198	1.149526	-0.326169
C100	C	1.478198	1.649526	0.173831
C101	C	0.978223	1.074294	-0.326211
C102	C	1.478223	1.574294	0.173789
C103	C	1.021475	0.282719	-0.613255
C104	C	1.521475	0.782719	-0.113255
C105	C	1.021482	0.282699	-0.683943
C106	C	1.521482	0.782699	-0.183943
C107	C	0.978176	0.325973	-0.719269
C108	C	1.478176	0.825973	-0.219269
C109	C	0.934856	0.369264	-0.683903
C110	C	1.434856	0.869264	-0.183903
C111	C	0.934846	0.369279	-0.613216
C112	C	1.434846	0.869279	-0.113216
C113	C	0.934894	0.369201	-0.968977
C114	C	1.434894	0.869201	-0.468977
C115	C	0.934908	0.369183	-1.039669
C116	C	1.434908	0.869183	-0.539669
C117	C	1.021530	0.282620	-1.039704
C118	C	1.521530	0.782620	-0.539704
C119	C	1.021520	0.282636	-0.969017
C120	C	1.521520	0.782636	-0.469017
C121	C	0.978197	0.325924	-0.933657
C122	C	1.478197	0.825924	-0.433657
C123	C	0.978189	0.325944	-0.857008
C124	C	1.478189	0.825944	-0.357008
C125	C	0.978187	0.325957	-0.795917
C126	C	1.478187	0.825957	-0.295917
C127	C	0.978106	0.326062	-0.150263
C128	C	1.478106	0.826062	0.349737
C129	C	0.978221	0.325890	-0.075031
C130	C	1.478221	0.825890	0.424969
H131	H	0.720449	0.247418	-0.247719
H132	H	1.220449	0.747418	0.252281
O133	O	0.892815	0.934025	-0.411530
O134	O	1.392815	1.434025	0.088470
C135	C	0.907576	0.951231	-0.479009
C136	C	1.407576	1.451231	0.020991
H137	H	0.933619	1.002529	-0.480446
H138	H	1.433619	1.502529	0.019554
H139	H	0.942338	0.911400	-0.501839
H140	H	1.442338	1.411400	-0.001839
C141	C	0.809576	0.891532	-0.518171
C142	C	1.309576	1.391532	-0.018171
C143	C	0.841557	0.954539	-0.519937
C144	C	1.341557	1.454539	-0.019937
H145	H	0.768853	0.893570	-0.543419
H146	H	1.268853	1.393570	-0.043419
H147	H	0.799632	0.879938	-0.472710
H148	H	1.299632	1.379938	0.027290
H149	H	0.838551	0.858346	-0.537196
H150	H	1.338551	1.358346	-0.037196
H151	H	0.812585	0.987722	-0.500905
H152	H	1.312585	1.487722	-0.000905
H153	H	0.851495	0.966140	-0.565396
H154	H	1.351495	1.466140	-0.065396
H155	H	0.899567	0.404523	-0.584426
H156	H	1.399567	0.904523	-0.084426
O157	O	0.892725	0.411322	-0.718112
O158	O	1.392725	0.911322	-0.218112
C159	C	0.854502	0.449546	-0.671741
C160	C	1.354502	0.949546	-0.171741
H161	H	0.852165	0.421832	-0.621360
H162	H	1.352165	0.921832	-0.121360
H163	H	0.879260	0.500954	-0.664213
H164	H	1.379260	1.000954	-0.164213
C165	C	0.785335	0.493331	-0.761192
C166	C	1.285335	0.993331	-0.261192
C167	C	0.782460	0.459289	-0.699315
C168	C	1.282460	0.959289	-0.199315
H169	H	0.740897	0.499345	-0.778201
H170	H	1.240897	0.999345	-0.278201
H171	H	0.811087	0.467582	-0.792434
H172	H	1.311087	0.967582	-0.292434
H173	H	0.805969	0.536168	-0.754910
H174	H	1.305969	1.036168	-0.254910
H175	H	0.761834	0.416451	-0.705599
H176	H	1.261834	0.916451	-0.205599
H177	H	0.756702	0.485032	-0.668075
H178	H	1.256702	0.985032	-0.168075
O179	O	0.230860	0.240739	-0.240889
O180	O	0.730860	0.740739	0.259111
C181	C	0.189932	0.279224	-0.197116
C182	C	0.689932	0.779224	0.302884
H183	H	0.211214	0.332525	-0.192843
H184	H	0.711214	0.832525	0.307157
H185	H	0.136366	0.281589	-0.218037
H186	H	0.636366	0.781589	0.281963
C187	C	0.162698	0.180604	-0.132058
C188	C	0.662698	0.680604	0.367942
C189	C	0.188840	0.246067	-0.126805
C190	C	0.688840	0.746067	0.373195
H191	H	0.162021	0.160150	-0.088688
H192	H	0.662021	0.660150	0.411312
H193	H	0.190269	0.154675	-0.161550
H194	H	0.690269	0.654675	0.338450
H195	H	0.118061	0.182583	-0.149495
H196	H	0.618061	0.682583	0.350505
H197	H	0.233478	0.244086	-0.109377
H198	H	0.733478	0.744086	0.390623
H199	H	0.161275	0.271995	-0.097309
H200	H	0.661275	0.771995	0.402691
O201	O	1.063555	0.240654	-0.934597
O202	O	1.563555	0.740654	-0.434597
C203	C	1.054240	0.249933	-0.864624
C204	C	1.554240	0.749933	-0.364624
H205	H	1.032057	0.302174	-0.854949
H206	H	1.532057	0.802174	-0.354949
H207	H	1.018201	0.209796	-0.844577
H208	H	1.518201	0.709796	-0.344577
C209	C	1.149961	0.179556	-0.840221
C210	C	1.649961	0.679556	-0.340221
C211	C	1.122721	0.243721	-0.828338
C212	C	1.622721	0.743721	-0.328338
H213	H	1.192202	0.175721	-0.817837
H214	H	1.692202	0.675721	-0.317837
H215	H	1.156236	0.173302	-0.887363
H216	H	1.656236	0.673302	-0.387363
H217	H	1.119922	0.146115	-0.823515
H218	H	1.619922	0.646115	-0.323515
H219	H	1.152756	0.277160	-0.845052
H220	H	1.652756	0.777160	-0.345052
H221	H	1.116453	0.249981	-0.781198
H222	H	1.616453	0.749981	-0.281198
O223	O	0.725903	0.411535	-0.411348
O224	O	1.225903	0.911535	0.088652
C225	C	0.679548	0.449803	-0.449477
C226	C	1.179548	0.949803	0.050523
H227	H	0.629173	0.422085	-0.451872
H228	H	1.129173	0.922085	0.048128
H229	H	0.671998	0.501178	-0.424601
H230	H	1.171998	1.001178	0.075399
C231	C	0.769031	0.493693	-0.518553
C232	C	1.269031	0.993693	-0.018553
C233	C	0.707161	0.459647	-0.521500
C234	C	1.207161	0.959647	-0.021500
H235	H	0.786065	0.499768	-0.562980
H236	H	1.286065	0.999768	-0.062980
H237	H	0.800263	0.467914	-0.492864
H238	H	1.300263	0.967914	0.007136
H239	H	0.762731	0.536502	-0.497820
H240	H	1.262731	1.036502	0.002180
H241	H	0.713464	0.416836	-0.542225
H242	H	1.213464	0.916836	-0.042225
H243	H	0.675932	0.485419	-0.547195
H244	H	1.175932	0.985419	-0.047195
O245	O	0.586630	0.411426	-0.411368
O246	O	1.086630	0.911426	0.088632
C247	C	0.545766	0.372960	-0.455154
C248	C	1.045766	0.872960	0.044846
H249	H	0.567089	0.319654	-0.459432
H250	H	1.067089	0.819654	0.040568
H251	H	0.492183	0.370605	-0.434240
H252	H	0.992183	0.870605	0.065760
C253	C	0.518515	0.471598	-0.520199
C254	C	1.018515	0.971598	-0.020199
C255	C	0.544708	0.406129	-0.525458
C256	C	1.044708	0.906129	-0.025458
H257	H	0.517859	0.492059	-0.563565
H258	H	1.017859	0.992059	-0.063565
H259	H	0.546044	0.497515	-0.490698
H260	H	1.046044	0.997515	0.009302
H261	H	0.473865	0.469627	-0.502768
H262	H	0.973865	0.969627	-0.002768
H263	H	0.589359	0.408101	-0.542880
H264	H	1.089359	0.908101	-0.042880
H265	H	0.517186	0.380213	-0.554964
H266	H	1.017186	0.880213	-0.054964
O267	O	1.063448	0.240646	-0.578869
O268	O	1.563448	0.740646	-0.078869
C269	C	1.024928	0.196925	-0.537999
C270	C	1.524928	0.696925	-0.037999
H271	H	0.973621	0.220798	-0.527390
H272	H	1.473621	0.720798	-0.027390
H273	H	1.017519	0.146761	-0.565255
H274	H	1.517519	0.646761	-0.065255
C275	C	1.125183	0.155359	-0.483895
C276	C	1.625183	0.655359	0.016105
C277	C	1.062169	0.184683	-0.470860
C278	C	1.562169	0.684683	0.029140
H279	H	1.148156	0.147805	-0.442482
H280	H	1.648156	0.647805	0.057518
H281	H	1.151135	0.184813	-0.511432
H282	H	1.651135	0.684813	-0.011432
H283	H	1.119000	0.113559	-0.506611
H284	H	1.619000	0.613559	-0.006611
H285	H	1.068353	0.226486	-0.448153
H286	H	1.568353	0.726486	0.051847
H287	H	1.036219	0.155236	-0.443318
H288	H	1.536219	0.655236	0.056682
O289	O	0.892771	0.411240	-1.073881
O290	O	1.392771	0.911240	-0.573881
C291	C	0.854542	0.449462	-1.027515
C292	C	1.354542	0.949462	-0.527515
H293	H	0.852205	0.421751	-0.977133
H294	H	1.352205	0.921751	-0.477133
H295	H	0.879292	0.500874	-1.019989
H296	H	1.379292	1.000874	-0.519989
C297	C	0.785375	0.493233	-1.116973
C298	C	1.285375	0.993233	-0.616973
C299	C	0.782500	0.459195	-1.055094
C300	C	1.282500	0.959195	-0.555094
H301	H	0.740936	0.499239	-1.133985
H302	H	1.240936	0.999239	-0.633985
H303	H	0.811132	0.467484	-1.148212
H304	H	1.311132	0.967484	-0.648212
H305	H	0.806003	0.536072	-1.110693
H306	H	1.306003	1.036072	-0.610693
H307	H	0.761880	0.416353	-1.061377
H308	H	1.261880	0.916353	-0.561377
H309	H	0.756737	0.484937	-1.023857
H310	H	1.256737	0.984937	-0.523857
H311	H	0.364680	0.247442	-0.247741
H312	H	0.864680	0.747442	0.252259
O313	O	0.586551	0.240680	-0.240963
O314	O	1.086551	0.740680	0.259037
C315	C	0.516581	0.249965	-0.250244
C316	C	1.016581	0.749965	0.249756
H317	H	0.506913	0.302231	-0.272314
H318	H	1.006913	0.802231	0.227686
H319	H	0.496555	0.209869	-0.286366
H320	H	0.996555	0.709869	0.213634
C321	C	0.492137	0.179473	-0.154669
C322	C	0.992137	0.679473	0.345331
C323	C	0.480262	0.243670	-0.181770
C324	C	0.980262	0.743670	0.318230
H325	H	0.469733	0.175587	-0.112432
H326	H	0.969733	0.675587	0.387568
H327	H	0.539277	0.173215	-0.148417
H328	H	1.039277	0.673215	0.351583
H329	H	0.475449	0.146067	-0.184777
H330	H	0.975449	0.646067	0.315223
H331	H	0.496958	0.277074	-0.151667
H332	H	0.996958	0.777074	0.348333
H333	H	0.433125	0.249933	-0.188016
H334	H	0.933125	0.749933	0.311984
H335	H	0.364689	0.404723	-0.404525
H336	H	0.864689	0.904723	0.095475
H337	H	0.236444	0.404729	-0.404537
H338	H	0.736444	0.904729	0.095463
H339	H	0.899628	0.404459	-0.940195
H340	H	1.399628	0.904459	-0.440195
H341	H	1.056631	0.583713	-0.247640
H342	H	1.556631	1.083713	0.252360
H343	H	1.056755	0.247450	-0.712731
H344	H	1.556755	0.747450	-0.212731
H345	H	1.056679	0.711948	-0.247672
H346	H	1.556679	1.211948	0.252328
H347	H	1.056751	0.939473	-0.247718
H348	H	1.556751	1.439473	0.252282
H349	H	0.899638	1.067739	-0.404673
H350	H	1.399638	1.567739	0.095327
O351	O	0.892697	0.717426	-0.411459
O352	O	1.392697	1.217426	0.088541
C353	C	0.854444	0.671077	-0.449609
C354	C	1.354444	1.171077	0.050391
H355	H	0.882150	0.620665	-0.451968
H356	H	1.382150	1.120665	0.048032
H357	H	0.803050	0.663617	-0.424774
H358	H	1.303050	1.163617	0.075226
C359	C	0.810627	0.760541	-0.518745
C360	C	1.310627	1.260541	-0.018745
C361	C	0.844659	0.698625	-0.521647
C362	C	1.344659	1.198625	-0.021647
H363	H	0.804588	0.777535	-0.563181
H364	H	1.304588	1.277535	-0.063181
H365	H	0.836396	0.791768	-0.493042
H366	H	1.336396	1.291768	0.006958
H367	H	0.767802	0.754316	-0.498047
H368	H	1.267802	1.254316	0.001953
H369	H	0.887485	0.704853	-0.542337
H370	H	1.387485	1.204853	-0.042337
H371	H	0.818896	0.667400	-0.547356
H372	H	1.318896	1.167400	-0.047356
H373	H	1.056803	0.247370	-1.068502
H374	H	1.556803	0.747370	-0.568502
H375	H	1.056795	1.067719	-0.247745
H376	H	1.556795	1.567719	0.252255
H377	H	0.899479	0.583735	-0.404573
H378	H	1.399479	1.083735	0.095427
