data_functionalizedCrystal
_audit_creation_method	'MofGen! by Chris Wilmer'
_symmetry_space_group_name_H-M	'P1'
_symmetry_Int_Tables_number	1
_symmetry_cell_setting	triclinic
loop_
_symmetry_equiv_pos_as_xyz
  x,y,z
_cell_length_a	27.435584
_cell_length_b	27.434948
_cell_length_c	27.431174
_cell_angle_alpha	60.005483
_cell_angle_beta	60.011353
_cell_angle_gamma	59.993028
loop_
_atom_site_label
_atom_site_type_symbol
_atom_site_fract_x
_atom_site_fract_y
_atom_site_fract_z
O1	O	0.067437	-0.712144	0.595551
O2	O	0.025356	-0.554453	0.479848
O3	O	0.125206	-0.654236	0.479781
O4	O	-0.032412	-0.612361	0.595618
O5	O	0.158328	-0.621117	0.512835
O6	O	0.058479	-0.521333	0.512902
O7	O	0.100560	-0.679025	0.628605
Zn8	Zn	0.084778	-0.594921	0.576001
Zn9	Zn	0.041138	-0.638557	0.532452
O10	O	0.000710	-0.579241	0.628672
N11	N	0.114563	-0.565144	0.605726
N12	N	0.011358	-0.668338	0.502727
C13	C	0.156385	-0.523520	0.904506
C14	C	0.413419	-0.523497	0.647322
C15	C	0.156253	-0.523488	0.647384
C16	C	0.156238	-0.266354	0.647407
C17	C	0.197637	-0.390463	0.688753
C18	C	0.197646	-0.482126	0.688741
C19	C	0.220575	-0.459215	0.711654
C20	C	0.320555	-0.441991	0.659023
C21	C	0.383051	-0.462825	0.638179
C22	C	0.383069	-0.563942	0.676737
C23	C	0.320575	-0.543107	0.697583
C24	C	0.212704	-0.359206	0.627313
C25	C	0.191849	-0.296705	0.606496
C26	C	0.140866	-0.296722	0.708562
C27	C	0.161721	-0.359223	0.729379
C28	C	0.136200	-0.467030	0.703858
C29	C	0.115361	-0.487857	0.683021
C30	C	0.217408	-0.538877	0.631968
C31	C	0.238249	-0.518050	0.652796
C32	C	0.136259	-0.467047	0.811668
C33	C	0.115461	-0.487892	0.874167
C34	C	0.217537	-0.538923	0.874131
C35	C	0.238333	-0.518080	0.811631
C36	C	0.197693	-0.482140	0.780401
C37	C	0.289320	-0.482131	0.688723
C38	C	0.132699	-0.546027	0.973247
C39	C	0.482158	-0.545613	0.624075
C40	C	0.132521	-0.546006	0.624886
C41	C	0.132917	-0.197607	0.625310
C42	C	-0.098217	-0.686189	0.484419
C43	C	-0.006438	-0.686322	0.392891
C44	C	-0.006621	-0.777944	0.484592
C45	C	-0.006606	-0.686315	0.484649
C46	C	-0.029470	-0.709193	0.461638
N47	N	0.538410	-0.565162	0.605628
O48	O	0.742647	-0.575135	0.458625
O49	O	0.742821	-0.691181	0.616169
O50	O	0.742757	-0.690917	0.516248
O51	O	0.742711	-0.575399	0.558546
O52	O	0.643472	-0.657878	0.549405
O53	O	0.643536	-0.658142	0.649326
O54	O	0.643362	-0.542096	0.491782
Zn55	Zn	0.627685	-0.594873	0.575818
Zn56	Zn	0.758498	-0.638404	0.532133
O57	O	0.643426	-0.542360	0.591702
N58	N	0.847774	-0.668115	0.502317
N59	N	0.114542	-0.141354	0.605766
O60	O	-0.032397	0.062987	0.595660
O61	O	0.125155	0.062987	0.479633
O62	O	0.025219	0.062974	0.479910
O63	O	0.067539	0.063001	0.595383
O64	O	0.058343	-0.036320	0.513009
O65	O	0.158279	-0.036306	0.512732
O66	O	0.000728	-0.036306	0.628759
Zn67	Zn	0.084763	-0.052071	0.576000
Zn68	Zn	0.041120	0.078752	0.532392
O69	O	0.100664	-0.036292	0.628482
N70	N	0.011333	0.168036	0.502628
N71	N	0.114782	-0.565197	1.029501
O72	O	0.104681	-0.712124	1.233827
O73	O	-0.011334	-0.554523	1.233839
O74	O	-0.011066	-0.654443	1.233797
O75	O	0.104414	-0.612204	1.233869
O76	O	0.022028	-0.621336	1.134509
O77	O	0.021760	-0.521417	1.134551
O78	O	0.137775	-0.679018	1.134539
Zn79	Zn	0.085022	-0.594961	1.118780
Zn80	Zn	0.041420	-0.638580	1.249597
O81	O	0.137508	-0.579098	1.134580
N82	N	0.011658	-0.668350	1.338876
C83	C	0.037974	-0.518023	0.480435
C84	C	0.161625	-0.641592	0.480351
C85	C	0.087941	-0.715455	0.628017
C86	C	-0.035710	-0.591885	0.628101
C87	C	0.693199	-0.690642	0.652596
C88	C	0.693122	-0.690315	0.528855
C89	C	0.692981	-0.542634	0.455356
C90	C	0.693062	-0.542961	0.579095
C91	C	0.161524	0.013463	0.480164
C92	C	0.037807	0.013324	0.480547
C93	C	-0.035683	0.013341	0.628188
C94	C	0.088076	0.013357	0.627845
C95	C	-0.010764	-0.518114	1.184196
C96	C	-0.010426	-0.641846	1.184125
C97	C	0.137205	-0.715426	1.184182
C98	C	0.136875	-0.591687	1.184231
H99	H	0.103160	-0.437777	0.786243
C100	C	0.025838	-0.456830	0.431340
C101	C	-0.035359	-0.407735	0.443452
C102	C	-0.047495	-0.346543	0.394356
C103	C	0.001565	-0.334446	0.333149
C104	C	0.062765	-0.383542	0.321034
C105	C	0.074902	-0.444734	0.370130
H106	H	-0.071680	-0.416689	0.488764
H107	H	-0.092800	-0.310199	0.403325
H108	H	-0.007419	-0.289147	0.296806
H109	H	0.099086	-0.374588	0.275722
H110	H	0.120207	-0.481079	0.361161
C111	C	-0.059973	-0.456968	1.184199
C112	C	-0.049128	-0.399893	1.132656
C113	C	-0.098337	-0.338747	1.132659
C114	C	-0.158391	-0.334676	1.184206
C115	C	-0.169238	-0.391753	1.235754
C116	C	-0.120029	-0.452899	1.235750
H117	H	-0.004671	-0.402905	1.094494
H118	H	-0.090307	-0.296495	1.094500
H119	H	-0.194818	-0.289412	1.184209
H120	H	-0.213695	-0.388741	1.273915
H121	H	-0.128059	-0.495151	1.273910
H122	H	-0.080982	-0.582959	0.664476
C123	C	0.693143	-0.739343	0.516632
C124	C	0.693212	-0.800593	0.565629
C125	C	0.693234	-0.849621	0.553405
C126	C	0.693186	-0.837399	0.492185
C127	C	0.693117	-0.776146	0.443183
C128	C	0.693096	-0.727118	0.455407
H129	H	0.693247	-0.809643	0.610952
H130	H	0.693285	-0.894964	0.589679
H131	H	0.693202	-0.873692	0.483136
H132	H	0.693082	-0.767096	0.397861
H133	H	0.693045	-0.681775	0.419133
C134	C	-0.059418	-0.654026	1.184037
C135	C	-0.120641	-0.604988	1.184000
C136	C	-0.169633	-0.617167	1.183912
C137	C	-0.157403	-0.678384	1.183863
C138	C	-0.096178	-0.727425	1.183900
C139	C	-0.047185	-0.715246	1.183988
H140	H	-0.129697	-0.559669	1.184036
H141	H	-0.214957	-0.580863	1.183884
H142	H	-0.193670	-0.687400	1.183798
H143	H	-0.087122	-0.772745	1.183864
H144	H	-0.001862	-0.751550	1.184016
H145	H	0.206679	0.013739	0.443646
C146	C	0.692908	-0.493410	0.394235
C147	C	0.692861	-0.432258	0.382314
C148	C	0.692788	-0.383034	0.321193
C149	C	0.692763	-0.394964	0.271993
C150	C	0.692810	-0.456119	0.283913
C151	C	0.692883	-0.505343	0.345034
H152	H	0.692880	-0.423424	0.418737
H153	H	0.692753	-0.337763	0.312370
H154	H	0.692709	-0.358526	0.226748
H155	H	0.692792	-0.464953	0.247490
H156	H	0.692919	-0.550614	0.353857
C157	C	0.693262	-0.739862	0.713720
C158	C	0.693282	-0.727931	0.762922
C159	C	0.693346	-0.777151	0.824046
C160	C	0.693388	-0.838302	0.835968
C161	C	0.693368	-0.850236	0.786765
C162	C	0.693305	-0.801016	0.725641
H163	H	0.693251	-0.682661	0.754097
H164	H	0.693361	-0.768316	0.860469
H165	H	0.693435	-0.874738	0.881216
H166	H	0.693400	-0.895506	0.795590
H167	H	0.693290	-0.809851	0.689218
H168	H	0.097136	0.013366	0.664120
H169	H	-0.080930	0.013340	0.664614
H170	H	0.206895	-0.650521	0.443974
H171	H	0.096930	-0.760753	0.664356
C172	C	0.185890	-0.579485	1.184250
C173	C	0.174854	-0.563011	1.235821
C174	C	0.223869	-0.550809	1.235840
C175	C	0.283920	-0.555081	1.184289
C176	C	0.294959	-0.571557	1.132715
C177	C	0.245944	-0.583758	1.132695
H178	H	0.130398	-0.559847	1.273985
H179	H	0.215698	-0.538613	1.274019
H180	H	0.320204	-0.546049	1.184304
H181	H	0.339415	-0.574720	1.094550
H182	H	0.254115	-0.595955	1.094516
H183	H	0.173631	-0.760687	1.184171
H184	H	0.065433	-0.475593	0.899616
H185	H	0.250633	-0.568176	0.899553
C186	C	0.693042	-0.493934	0.591318
C187	C	0.692974	-0.432685	0.542321
C188	C	0.692955	-0.383657	0.554544
C189	C	0.693003	-0.395880	0.615764
C190	C	0.693071	-0.457132	0.664766
C191	C	0.693091	-0.506160	0.652543
H192	H	0.692939	-0.423634	0.496998
H193	H	0.692904	-0.338314	0.518270
H194	H	0.692988	-0.359587	0.624812
H195	H	0.693107	-0.466183	0.710088
H196	H	0.693141	-0.551503	0.688817
C197	C	0.025574	0.013314	0.431537
C198	C	0.009101	-0.038251	0.442583
C199	C	-0.003132	-0.038261	0.393573
C200	C	0.001107	0.013295	0.333516
C201	C	0.017580	0.064864	0.322467
C202	C	0.029814	0.064874	0.371477
H203	H	0.005963	-0.076419	0.487044
H204	H	-0.015326	-0.076436	0.401753
H205	H	-0.007949	0.013288	0.297235
H206	H	0.020719	0.103032	0.278006
H207	H	0.042008	0.103049	0.363297
C208	C	0.305916	-0.534683	0.777238
C209	C	0.334248	-0.485276	0.734272
C210	C	0.401829	-0.501880	0.699880
C211	C	0.441078	-0.567891	0.708455
C212	C	0.412746	-0.617303	0.751424
C213	C	0.345165	-0.600699	0.785815
H214	H	0.305193	-0.436407	0.727922
H215	H	0.422802	-0.465302	0.668071
H216	H	0.491106	-0.580183	0.682996
H217	H	0.441801	-0.666173	0.757773
H218	H	0.324192	-0.637277	0.817624
H219	H	0.065328	-0.475552	0.695316
C220	C	0.091538	-0.427513	0.743394
C221	C	0.091812	-0.364077	0.722651
C222	C	0.047149	-0.324561	0.762191
C223	C	0.002212	-0.348481	0.822475
C224	C	0.001937	-0.411921	0.843222
C225	C	0.046599	-0.451437	0.803682
H226	H	0.125078	-0.346366	0.678022
H227	H	0.047353	-0.277599	0.746833
H228	H	-0.030849	-0.319229	0.851746
H229	H	-0.031329	-0.429631	0.887851
H230	H	0.046395	-0.498399	0.819040
C231	C	0.262077	-0.578392	0.592429
C232	C	0.307065	-0.638675	0.616321
C233	C	0.351737	-0.678188	0.576779
C234	C	0.351421	-0.657416	0.513344
C235	C	0.306431	-0.597130	0.489449
C236	C	0.261759	-0.557618	0.528992
H237	H	0.307300	-0.654054	0.663282
H238	H	0.385041	-0.722816	0.594468
H239	H	0.384490	-0.686666	0.484072
H240	H	0.306196	-0.581751	0.442488
H241	H	0.228455	-0.512989	0.511303
C242	C	0.305832	-0.534614	0.636179
C243	C	0.345131	-0.600610	0.654337
C244	C	0.412709	-0.617156	0.637724
C245	C	0.440988	-0.567708	0.602953
C246	C	0.401689	-0.501708	0.584793
C247	C	0.334111	-0.485161	0.601406
H248	H	0.324197	-0.637218	0.680079
H249	H	0.441800	-0.666014	0.651167
H250	H	0.491013	-0.579957	0.590654
H251	H	0.422623	-0.465099	0.559051
H252	H	0.305020	-0.436304	0.587963
H253	H	0.295144	-0.575796	0.721768
H254	H	0.408481	-0.430137	0.613993
C255	C	0.417455	-0.631016	0.686474
C256	C	0.486198	-0.653934	0.663541
C257	C	0.520583	-0.721007	0.673277
C258	C	0.486226	-0.765162	0.705945
C259	C	0.417479	-0.742246	0.728880
C260	C	0.383094	-0.675173	0.719144
H261	H	0.511635	-0.621246	0.639356
H262	H	0.571474	-0.737971	0.656299
H263	H	0.511680	-0.814814	0.713152
H264	H	0.392043	-0.774933	0.753065
H265	H	0.332204	-0.658209	0.736122
C266	C	0.286176	-0.374917	0.649279
C267	C	0.294740	-0.329474	0.585504
C268	C	0.260359	-0.262399	0.575759
C269	C	0.217414	-0.240768	0.629789
C270	C	0.208848	-0.286212	0.693567
C271	C	0.243229	-0.353287	0.703312
H272	H	0.326532	-0.345486	0.545505
H273	H	0.266701	-0.228758	0.528546
H274	H	0.191963	-0.191115	0.622575
H275	H	0.177056	-0.270200	0.733567
H276	H	0.236887	-0.386928	0.750526
H277	H	0.204115	-0.271255	0.556464
C278	C	0.252211	-0.393571	0.582627
C279	C	0.268776	-0.359188	0.515043
C280	C	0.308284	-0.393553	0.470354
C281	C	0.331227	-0.462301	0.493250
C282	C	0.314661	-0.496688	0.560838
C283	C	0.275153	-0.462323	0.605526
H284	H	0.251793	-0.308293	0.498091
H285	H	0.320547	-0.368097	0.420321
H286	H	0.360473	-0.487740	0.460169
H287	H	0.331645	-0.547583	0.577790
H288	H	0.262891	-0.487779	0.655559
H289	H	0.149444	-0.384673	0.779411
C290	C	0.101369	-0.262354	0.753248
C291	C	0.084811	-0.296735	0.820833
C292	C	0.045316	-0.262368	0.865519
C293	C	0.022379	-0.193620	0.842621
C294	C	0.038936	-0.159235	0.775033
C295	C	0.078432	-0.193602	0.730346
H296	H	0.101791	-0.347630	0.837787
H297	H	0.033059	-0.287822	0.915553
H298	H	-0.006858	-0.168180	0.875701
H299	H	0.021957	-0.108340	0.758079
H300	H	0.090689	-0.168148	0.680313
