data_functionalizedCrystal
_audit_creation_method	'MofGen! by Chris Wilmer'
_symmetry_space_group_name_H-M	'P1'
_symmetry_Int_Tables_number	1
_symmetry_cell_setting	triclinic
loop_
_symmetry_equiv_pos_as_xyz
  x,y,z
_cell_length_a	12.827893
_cell_length_b	16.959453
_cell_length_c	12.827885
_cell_angle_alpha	89.966028
_cell_angle_beta	89.980538
_cell_angle_gamma	90.019958
loop_
_atom_site_label
_atom_site_type_symbol
_atom_site_fract_x
_atom_site_fract_y
_atom_site_fract_z
Zn1	Zn	1.597638	-0.314644	-0.590818
Zn2	Zn	2.097638	0.185356	-0.090818
Zn3	Zn	1.597518	-0.446843	-0.416066
Zn4	Zn	2.097518	0.053157	0.083934
Zn5	Zn	1.422879	-0.314682	-0.416092
Zn6	Zn	1.922879	0.185318	0.083908
Zn7	Zn	1.422851	-0.446784	-0.590766
Zn8	Zn	1.922851	0.053216	-0.090766
O9	O	1.510221	-0.380738	-0.503435
O10	O	2.010221	0.119262	-0.003435
O11	O	1.743858	-0.332189	-0.567648
O12	O	2.243858	0.167811	-0.067648
O13	O	1.574313	-0.429352	-0.269833
O14	O	2.074313	0.070648	0.230167
O15	O	1.446123	-0.204066	-0.439303
O16	O	1.946123	0.295934	0.060697
O17	O	1.743770	-0.429315	-0.439258
O18	O	2.243770	0.070685	0.060742
O19	O	1.574518	-0.204038	-0.567673
O20	O	2.074518	0.295962	-0.067673
O21	O	1.446007	-0.332254	-0.269852
O22	O	1.946007	0.167746	0.230148
O23	O	1.276639	-0.332197	-0.439252
O24	O	1.776639	0.167803	0.060748
O25	O	1.446075	-0.429215	-0.737009
O26	O	1.946075	0.070785	-0.237009
O27	O	1.276619	-0.429252	-0.567584
O28	O	1.776619	0.070748	-0.067584
O29	O	1.574491	-0.332132	-0.737047
O30	O	2.074491	0.167868	-0.237047
O31	O	1.574286	-0.557446	-0.439207
O32	O	2.074286	-0.057446	0.060793
O33	O	1.445959	-0.557403	-0.567559
O34	O	1.945959	-0.057403	-0.067559
C35	C	1.238712	-0.380723	-0.503416
C36	C	1.738712	0.119277	-0.003416
C37	C	1.122558	-0.380736	-0.503432
C38	C	1.622558	0.119264	-0.003432
C39	C	1.070791	-0.428836	-0.566837
C40	C	1.570791	0.071164	-0.066837
C41	C	0.950741	-0.428850	-0.566855
C42	C	1.450741	0.071150	-0.066855
C43	C	1.510134	-0.586105	-0.503397
C44	C	2.010134	-0.086105	-0.003397
C45	C	1.510193	-0.673961	-0.503416
C46	C	2.010193	-0.173961	-0.003416
C47	C	1.577162	-1.045364	-0.570404
C48	C	2.077162	-0.545364	-0.070404
C49	C	1.443573	-1.045510	-0.436622
C50	C	1.943573	-0.545510	0.063378
C51	C	1.443534	-0.962964	-0.436598
C52	C	1.943534	-0.462964	0.063402
C53	C	1.510309	-0.921614	-0.503479
C54	C	2.010309	-0.421614	-0.003479
C55	C	1.577123	-0.962810	-0.570384
C56	C	2.077123	-0.462810	-0.070384
C57	C	1.376713	-0.921762	-0.369701
C58	C	1.876713	-0.421762	0.130299
C59	C	1.376671	-0.839211	-0.369675
C60	C	1.876671	-0.339211	0.130325
C61	C	1.443453	-0.797860	-0.436552
C62	C	1.943453	-0.297860	0.063448
C63	C	1.510270	-0.839061	-0.503459
C64	C	2.010270	-0.339061	-0.003459
C65	C	1.577046	-0.797711	-0.570341
C66	C	2.077046	-0.297711	-0.070341
C67	C	1.643869	-0.838910	-0.637243
C68	C	2.143869	-0.338910	-0.137243
C69	C	1.643905	-0.921459	-0.637261
C70	C	2.143905	-0.421459	-0.137261
C71	C	1.443417	-0.715311	-0.436534
C72	C	1.943417	-0.215311	0.063466
C73	C	1.577007	-0.715157	-0.570321
C74	C	2.077007	-0.215157	-0.070321
C75	C	1.782792	-0.380754	-0.503456
C76	C	2.282792	0.119246	-0.003456
C77	C	1.898945	-0.380761	-0.503465
C78	C	2.398945	0.119239	-0.003465
C79	C	1.510293	-0.380662	-0.776006
C80	C	2.010293	0.119338	-0.276006
C81	C	1.510324	-0.380630	-0.892159
C82	C	2.010324	0.119370	-0.392159
C83	C	1.510337	-0.174570	-0.503497
C84	C	2.010337	0.325430	-0.003497
C85	C	1.510387	-0.086714	-0.503523
C86	C	2.010387	0.413286	-0.003523
C87	C	1.446854	-0.332574	-0.943953
C88	C	1.946854	0.167426	-0.443953
C89	C	1.446885	-0.332539	-1.064004
C90	C	1.946885	0.167461	-0.564004
C91	C	1.510210	-0.380757	-0.231926
C92	C	2.010210	0.119243	0.268074
C93	C	1.510382	-0.380567	-0.115773
C94	C	2.010382	0.119433	0.384227
H95	H	0.943457	-0.339581	-0.449175
H96	H	1.443457	0.160419	0.050825
H97	H	1.078002	-0.339562	-0.449166
H98	H	1.578002	0.160438	0.050834
C99	C	1.583796	-0.436154	-1.055609
C100	C	2.083796	0.063846	-0.555609
N101	N	1.639091	-0.478023	-1.010286
N102	N	2.139091	0.021977	-0.510286
C103	C	1.650471	-0.669679	-0.643894
C104	C	2.150471	-0.169679	-0.143894
N105	N	1.705804	-0.635425	-0.699309
N106	N	2.205804	-0.135425	-0.199309
H107	H	1.115348	-0.470004	-0.621110
H108	H	1.615348	0.029996	-0.121110
H109	H	0.906222	-0.470034	-0.621135
H110	H	1.406222	0.029966	-0.121135
C111	C	1.373421	-0.277017	-0.883795
C112	C	1.873421	0.222983	-0.383795
N113	N	1.318113	-0.235167	-0.838485
N114	N	1.818113	0.264833	-0.338485
C115	C	1.717320	-0.793415	-0.710811
C116	C	2.217320	-0.293415	-0.210811
N117	N	1.772642	-0.759144	-0.766219
N118	N	2.272642	-0.259144	-0.266219
H119	H	1.392550	-0.291393	-1.108545
H120	H	1.892550	0.208607	-0.608545
C121	C	1.303389	-0.967252	-0.296014
C122	C	1.803389	-0.467252	0.203986
N123	N	1.248206	-1.001518	-0.240463
N124	N	1.748206	-0.501518	0.259537
C125	C	1.717398	-0.966784	-0.710854
C126	C	2.217398	-0.466784	-0.210854
N127	N	1.772750	-1.000926	-0.766286
N128	N	2.272750	-0.500926	-0.266286
H129	H	1.631571	-1.078912	-0.624872
H130	H	2.131571	-0.578912	-0.124872
C131	C	1.369918	-0.669996	-0.362944
C132	C	1.869918	-0.169996	0.137056
N133	N	1.314557	-0.635865	-0.307509
N134	N	1.814557	-0.135865	0.192491
H135	H	1.564684	-0.421748	-0.936693
H136	H	2.064684	0.078252	-0.436693
H137	H	1.389203	-1.079182	-0.382174
H138	H	1.889203	-0.579182	0.117826
H139	H	1.322261	-0.805672	-0.315199
H140	H	1.822261	-0.305672	0.184801
