data_functionalizedCrystal
_audit_creation_method	'MofGen! by Chris Wilmer'
_symmetry_space_group_name_H-M	'P1'
_symmetry_Int_Tables_number	1
_symmetry_cell_setting	triclinic
loop_
_symmetry_equiv_pos_as_xyz
  x,y,z
_cell_length_a	16.109302
_cell_length_b	16.109301
_cell_length_c	15.186229
_cell_angle_alpha	89.986602
_cell_angle_beta	90.009858
_cell_angle_gamma	96.538369
loop_
_atom_site_label
_atom_site_type_symbol
_atom_site_fract_x
_atom_site_fract_y
_atom_site_fract_z
O1	O	1.103135	-0.106878	0.073271
O2	O	1.603135	0.393122	0.573271
O3	O	0.861073	-0.120177	0.073264
O4	O	1.361073	0.379823	0.573264
O5	O	0.988753	0.007503	0.073259
O6	O	1.488753	0.507503	0.573259
O7	O	0.975454	-0.234559	0.073276
O8	O	1.475454	0.265441	0.573276
O9	O	0.988736	0.007524	-0.073198
O10	O	1.488736	0.507524	0.426802
O11	O	0.861055	-0.120156	-0.073193
O12	O	1.361055	0.379844	0.426807
O13	O	1.103117	-0.106858	-0.073186
O14	O	1.603117	0.393142	0.426814
Zn15	Zn	0.982084	-0.113504	-0.096443
Zn16	Zn	1.482084	0.386496	0.403557
Zn17	Zn	0.982106	-0.113531	0.096521
Zn18	Zn	1.482106	0.386469	0.596521
O19	O	0.975437	-0.234538	-0.073181
O20	O	1.475437	0.265462	0.426819
C21	C	0.830089	-0.119628	0.000035
C22	C	1.330089	0.380372	0.500035
C23	C	0.737794	-0.118013	0.000032
C24	C	1.237794	0.381987	0.500032
C25	C	0.525444	-0.114266	-0.079793
C26	C	1.025444	0.385734	0.420207
C27	C	0.438724	-0.112739	-0.079790
C28	C	0.938724	0.387261	0.420210
C29	C	0.438753	-0.112766	0.079885
C30	C	0.938753	0.387234	0.579885
C31	C	0.525472	-0.114287	0.079881
C32	C	1.025472	0.385713	0.579881
C33	C	0.568815	-0.115041	0.000039
C34	C	1.068815	0.384959	0.500039
C35	C	0.395375	-0.111994	0.000046
C36	C	0.895375	0.388006	0.500046
C37	C	0.301350	-0.110338	0.000050
C38	C	0.801350	0.389662	0.500050
C39	C	0.662847	-0.116695	0.000035
C40	C	1.162847	0.383305	0.500035
C41	C	0.988206	0.038488	0.000030
C42	C	1.488206	0.538488	0.500030
C43	C	0.986591	0.130784	0.000028
C44	C	1.486591	0.630784	0.500028
C45	C	1.134101	-0.107407	0.000045
C46	C	1.634101	0.392593	0.500045
C47	C	1.226396	-0.109022	0.000054
C48	C	1.726396	0.390978	0.500054
N49	N	0.982074	-0.113485	-0.228136
N50	N	1.482074	0.386515	0.271864
C51	C	0.975984	-0.265523	0.000050
C52	C	1.475984	0.234477	0.500050
C53	C	0.977599	-0.357819	0.000057
C54	C	1.477599	0.142181	0.500057
C55	C	1.058599	0.353056	0.000044
C56	C	1.558599	0.853056	0.500044
C57	C	1.057074	0.439776	0.000052
C58	C	1.557074	0.939776	0.500052
C59	C	0.905586	0.419902	0.000044
C60	C	1.405586	0.919902	0.500044
C61	C	0.907111	0.333184	0.000043
C62	C	1.407111	0.833184	0.500043
C63	C	0.983620	0.299763	0.000039
C64	C	1.483620	0.799763	0.500039
C65	C	0.980571	0.473202	0.000047
C66	C	1.480571	0.973202	0.500047
C67	C	0.978918	0.567228	0.000055
C68	C	1.478918	1.067228	0.500055
C69	C	0.985273	0.205731	0.000033
C70	C	1.485273	0.705731	0.500033
C71	C	0.931693	-0.063082	-0.546093
C72	C	1.431693	0.436918	-0.046093
C73	C	0.931686	-0.063070	-0.453903
C74	C	1.431686	0.436930	0.046097
C75	C	1.032509	-0.163949	-0.453835
C76	C	1.532509	0.336051	0.046165
C77	C	1.032520	-0.163956	-0.546023
C78	C	1.532520	0.336044	-0.046023
C79	C	0.982107	-0.113524	-0.592150
C80	C	1.482107	0.386476	-0.092150
C81	C	0.982089	-0.113505	-0.407772
C82	C	1.482089	0.386495	0.092228
C83	C	0.982082	-0.113492	-0.307816
C84	C	1.482082	0.386508	0.192184
C85	C	0.982116	-0.113535	-0.692112
C86	C	1.482116	0.386465	-0.192112
N87	N	0.982123	-0.113543	0.228214
N88	N	1.482123	0.386457	0.728214
H89	H	0.403453	-0.112153	0.144890
H90	H	0.903453	0.387847	0.644890
H91	H	1.120897	0.325848	0.000043
H92	H	1.620897	0.825848	0.500043
O93	O	0.572188	-0.115080	-0.165908
O94	O	1.072188	0.384920	0.334092
H95	H	0.619131	-0.059145	-0.169734
H96	H	1.119131	0.440855	0.330266
O97	O	0.877332	-0.008651	-0.404216
O98	O	1.377332	0.491349	0.095784
H99	H	0.832642	-0.048482	-0.362196
H100	H	1.332642	0.451518	0.137804
O101	O	1.086870	-0.218355	-0.404086
O102	O	1.586870	0.281645	0.095914
H103	H	1.078385	-0.209885	-0.332244
H104	H	1.578385	0.290115	0.167756
H105	H	1.118130	0.483165	0.000058
H106	H	1.618130	0.983165	0.500058
O107	O	0.391918	-0.112132	-0.165899
O108	O	0.891918	0.387868	0.334101
H109	H	0.324325	-0.111021	-0.152487
H110	H	0.824325	0.388979	0.347513
O111	O	0.572261	-0.115126	0.165990
O112	O	1.072261	0.384874	0.665990
H113	H	0.527553	-0.114359	0.221510
H114	H	1.027553	0.385641	0.721510
H115	H	0.846050	0.289790	0.000041
H116	H	1.346050	0.789790	0.500041
O117	O	0.823067	0.455948	0.000030
O118	O	1.323067	0.955948	0.500030
H119	H	0.834602	0.525202	0.000019
H120	H	1.334602	1.025202	0.500019
O121	O	0.877346	-0.008667	-0.595848
O122	O	1.377346	0.491333	-0.095848
H123	H	0.842301	0.026422	-0.548330
H124	H	1.342301	0.526422	-0.048330
O125	O	1.086896	-0.218365	-0.595710
O126	O	1.586896	0.281635	-0.095710
H127	H	1.121940	-0.253442	-0.548149
H128	H	1.621940	0.246558	-0.048149
