data_functionalizedCrystal
_audit_creation_method	'MofGen! by Chris Wilmer'
_symmetry_space_group_name_H-M	'P1'
_symmetry_Int_Tables_number	1
_symmetry_cell_setting	triclinic
loop_
_symmetry_equiv_pos_as_xyz
  x,y,z
_cell_length_a	14.519709
_cell_length_b	14.519731
_cell_length_c	13.596369
_cell_angle_alpha	90.005416
_cell_angle_beta	90.006934
_cell_angle_gamma	83.684499
loop_
_atom_site_label
_atom_site_type_symbol
_atom_site_fract_x
_atom_site_fract_y
_atom_site_fract_z
O1	O	0.120986	1.223856	0.081796
O2	O	0.370986	1.473856	0.331796
O3	O	0.620986	1.723856	0.581796
O4	O	0.870986	1.973856	0.831796
O5	O	0.135202	0.955382	0.081797
O6	O	0.385202	1.205382	0.331797
O7	O	0.635202	1.455382	0.581797
O8	O	0.885202	1.705382	0.831797
O9	O	-0.006144	1.096737	0.081788
O10	O	0.243856	1.346737	0.331788
O11	O	0.493856	1.596737	0.581788
O12	O	0.743856	1.846737	0.831788
O13	O	0.262332	1.082501	0.081805
O14	O	0.512332	1.332501	0.331805
O15	O	0.762332	1.582501	0.581805
O16	O	1.012332	1.832501	0.831805
O17	O	-0.006151	1.096723	-0.081795
O18	O	0.243849	1.346723	0.168205
O19	O	0.493849	1.596723	0.418205
O20	O	0.743849	1.846723	0.668205
O21	O	0.135195	0.955368	-0.081785
O22	O	0.385195	1.205368	0.168215
O23	O	0.635195	1.455368	0.418215
O24	O	0.885195	1.705368	0.668215
O25	O	0.120979	1.223842	-0.081787
O26	O	0.370979	1.473842	0.168213
O27	O	0.620979	1.723842	0.418213
O28	O	0.870979	1.973842	0.668213
Zn29	Zn	0.128086	1.089603	-0.107759
Zn30	Zn	0.378086	1.339603	0.142241
Zn31	Zn	0.628086	1.589603	0.392241
Zn32	Zn	0.878086	1.839603	0.642241
Zn33	Zn	0.128096	1.089621	0.107769
Zn34	Zn	0.378096	1.339621	0.357769
Zn35	Zn	0.628096	1.589621	0.607769
Zn36	Zn	0.878096	1.839621	0.857769
O37	O	0.262325	1.082487	-0.081777
O38	O	0.512325	1.332487	0.168223
O39	O	0.762325	1.582487	0.418223
O40	O	1.012325	1.832487	0.668223
C41	C	0.134532	0.921016	0.000006
C42	C	0.384532	1.171016	0.250006
C43	C	0.634532	1.421016	0.500006
C44	C	0.884532	1.671016	0.750006
C45	C	0.132536	0.818635	0.000007
C46	C	0.382536	1.068635	0.250007
C47	C	0.632536	1.318635	0.500007
C48	C	0.882536	1.568635	0.750007
C49	C	0.130915	0.735491	0.000010
C50	C	0.380915	0.985491	0.250010
C51	C	0.630915	1.235491	0.500010
C52	C	0.880915	1.485491	0.750010
C53	C	0.128888	0.631182	0.000011
C54	C	0.378888	0.881182	0.250011
C55	C	0.628888	1.131182	0.500011
C56	C	0.878888	1.381182	0.750011
C57	C	0.127280	0.548043	0.000010
C58	C	0.377280	0.798043	0.250010
C59	C	0.627280	1.048043	0.500010
C60	C	0.877280	1.298043	0.750010
C61	C	0.125253	0.443728	0.000012
C62	C	0.375253	0.693728	0.250012
C63	C	0.625253	0.943728	0.500012
C64	C	0.875253	1.193728	0.750012
C65	C	-0.040507	1.096067	-0.000004
C66	C	0.209493	1.346067	0.249996
C67	C	0.459493	1.596067	0.499996
C68	C	0.709493	1.846067	0.749996
C69	C	-0.142889	1.094079	-0.000005
C70	C	0.107111	1.344079	0.249995
C71	C	0.357111	1.594079	0.499995
C72	C	0.607111	1.844079	0.749995
C73	C	-0.517785	1.086759	0.000021
C74	C	-0.267785	1.336759	0.250021
C75	C	-0.017785	1.586759	0.500021
C76	C	0.232215	1.836759	0.750021
C77	C	-0.413477	1.088792	0.000014
C78	C	-0.163477	1.338792	0.250014
C79	C	0.086523	1.588792	0.500014
C80	C	0.336523	1.838792	0.750014
C81	C	-0.330340	1.090419	0.000007
C82	C	-0.080340	1.340419	0.250007
C83	C	0.169660	1.590419	0.500007
C84	C	0.419660	1.840419	0.750007
C85	C	-0.226025	1.092452	0.000002
C86	C	0.023975	1.342452	0.250002
C87	C	0.273975	1.592452	0.500002
C88	C	0.523975	1.842452	0.750002
C89	C	0.296688	1.083157	0.000016
C90	C	0.546688	1.333157	0.250016
C91	C	0.796688	1.583157	0.500016
C92	C	1.046688	1.833157	0.750016
C93	C	0.399070	1.085146	0.000023
C94	C	0.649070	1.335146	0.250023
C95	C	0.899070	1.585146	0.500023
C96	C	1.149070	1.835146	0.750023
C97	C	0.121649	1.258209	0.000006
C98	C	0.371649	1.508209	0.250006
C99	C	0.621649	1.758209	0.500006
C100	C	0.871649	2.008209	0.750006
C101	C	0.123645	1.360589	0.000012
C102	C	0.373645	1.610589	0.250012
C103	C	0.623645	1.860589	0.500012
C104	C	0.873645	2.110589	0.750012
N105	N	0.128078	1.089597	-0.254851
N106	N	0.378078	1.339597	-0.004851
N107	N	0.628078	1.589597	0.245149
N108	N	0.878078	1.839597	0.495149
C109	C	0.128096	1.089620	-0.656141
C110	C	0.378096	1.339620	-0.406141
C111	C	0.628096	1.589620	-0.156141
C112	C	0.878096	1.839620	0.093859
C113	C	0.128095	1.089611	-0.544490
C114	C	0.378095	1.339611	-0.294490
C115	C	0.628095	1.589611	-0.044490
C116	C	0.878095	1.839611	0.205510
C117	C	0.128088	1.089609	-0.455500
C118	C	0.378088	1.339609	-0.205500
C119	C	0.628088	1.589609	0.044500
C120	C	0.878088	1.839609	0.294500
C121	C	0.128085	1.089599	-0.343841
C122	C	0.378085	1.339599	-0.093841
C123	C	0.628085	1.589599	0.156159
C124	C	0.878085	1.839599	0.406159
N125	N	0.128096	1.089635	0.254861
N126	N	0.378096	1.339635	0.504861
N127	N	0.628096	1.589635	0.754861
N128	N	0.878096	1.839635	1.004861
