data_functionalizedCrystal
_audit_creation_method	'MofGen! by Chris Wilmer'
_symmetry_space_group_name_H-M	'P1'
_symmetry_Int_Tables_number	1
_symmetry_cell_setting	triclinic
loop_
_symmetry_equiv_pos_as_xyz
  x,y,z
_cell_length_a	12.759395
_cell_length_b	12.827892
_cell_length_c	12.827885
_cell_angle_alpha	90.029786
_cell_angle_beta	89.981133
_cell_angle_gamma	89.983071
loop_
_atom_site_label
_atom_site_type_symbol
_atom_site_fract_x
_atom_site_fract_y
_atom_site_fract_z
Zn1	Zn	1.606247	0.415940	-0.590837
Zn2	Zn	1.606140	0.590717	-0.416098
Zn3	Zn	1.430550	0.415995	-0.416112
Zn4	Zn	1.430535	0.590644	-0.590799
O5	O	1.518368	0.503324	-0.503462
O6	O	1.753254	0.439131	-0.567668
O7	O	1.582809	0.567594	-0.269864
O8	O	1.453907	0.269752	-0.439312
O9	O	1.753175	0.567540	-0.439287
O10	O	1.582991	0.269711	-0.567682
O11	O	1.453804	0.439226	-0.269874
O12	O	1.283527	0.439156	-0.439275
O13	O	1.453882	0.567415	-0.737040
O14	O	1.283516	0.567469	-0.567616
O15	O	1.582976	0.439061	-0.737068
O16	O	1.582795	0.736943	-0.439250
O17	O	1.453779	0.736890	-0.567602
C18	C	1.245400	0.503311	-0.503444
C19	C	1.128624	0.503331	-0.503461
C20	C	1.518302	0.774834	-0.503443
C21	C	1.518370	0.890987	-0.503470
C22	C	1.518439	0.503224	-0.776032
C23	C	1.518470	0.503181	-0.892185
C24	C	1.128651	0.637160	-0.636887
C25	C	1.073804	0.704083	-0.703602
C26	C	0.964082	0.704096	-0.703615
C27	C	0.909205	0.637176	-0.636907
C28	C	0.964052	0.570253	-0.570191
C29	C	1.073777	0.570250	-0.570183
C30	C	0.964025	0.436420	-0.436772
C31	C	1.073747	0.436411	-0.436753
C32	C	0.909148	0.369501	-0.370064
C33	C	0.963995	0.302582	-0.303341
C34	C	1.073724	0.302573	-0.303331
C35	C	1.128594	0.369489	-0.370037
C36	C	1.792401	0.503337	-0.503480
C37	C	1.909178	0.503343	-0.503488
C38	C	1.518463	0.230754	-0.503503
C39	C	1.518503	0.114601	-0.503521
C40	C	1.582287	0.942764	-0.440028
C41	C	1.582359	1.062814	-0.440054
C42	C	1.582357	0.439654	-0.943984
C43	C	1.582390	0.439609	-1.064034
C44	C	1.518357	0.503348	-0.231952
C45	C	1.518530	0.503097	-0.115799
H46	H	1.217992	0.637164	-0.636875
H47	H	0.819864	0.637183	-0.636933
C48	C	1.656146	0.882597	-0.366623
H49	H	1.696262	0.930649	-0.326828
H50	H	1.615920	0.840084	-0.321085
H51	H	1.701841	0.839952	-0.406675
C52	C	1.444648	0.576592	-1.055642
H53	H	1.404597	0.616427	-1.103692
H54	H	1.398908	0.536608	-1.013055
H55	H	1.484870	0.622105	-1.013070
C56	C	1.656282	1.122957	-0.366672
H57	H	1.646636	1.195754	-0.376320
H58	H	1.640950	1.105184	-0.296426
H59	H	1.726875	1.105051	-0.382012
H60	H	1.118374	0.248068	-0.249009
H61	H	1.118497	0.758566	-0.757916
C62	C	0.788458	0.369518	-0.370073
H63	H	0.763650	0.418966	-0.419351
H64	H	0.763651	0.302110	-0.388266
H65	H	0.763614	0.387511	-0.302599
C66	C	0.903748	0.777662	-0.777046
H67	H	0.952140	0.817505	-0.816783
H68	H	0.860995	0.737705	-0.822635
H69	H	0.860898	0.823165	-0.737026
H70	H	0.919306	0.248096	-0.249038
H71	H	1.463774	1.070082	-0.557835
H72	H	1.463792	0.557527	-0.936715
C73	C	1.249284	0.369478	-0.370024
H74	H	1.274093	0.320043	-0.320734
H75	H	1.274137	0.351497	-0.437491
H76	H	1.274081	0.436894	-0.351820
C77	C	1.444515	0.951153	-0.576879
H78	H	1.404410	0.903102	-0.616685
H79	H	1.398826	0.993807	-0.536839
H80	H	1.484753	0.993658	-0.622422
C81	C	1.656218	0.366227	-0.883838
H82	H	1.646512	0.375896	-0.811041
H83	H	1.640893	0.295989	-0.901683
H84	H	1.726828	0.381512	-0.901676
C85	C	1.656287	0.366137	-1.124203
H86	H	1.646612	0.375742	-1.196997
H87	H	1.726882	0.381426	-1.106366
H88	H	1.640942	0.295908	-1.106380
