data_functionalizedCrystal
_audit_creation_method	'MofGen! by Chris Wilmer'
_symmetry_space_group_name_H-M	'P1'
_symmetry_Int_Tables_number	1
_symmetry_cell_setting	triclinic
loop_
_symmetry_equiv_pos_as_xyz
  x,y,z
_cell_length_a	14.971486
_cell_length_b	12.837942
_cell_length_c	11.295660
_cell_angle_alpha	85.465035
_cell_angle_beta	94.104437
_cell_angle_gamma	89.221535
loop_
_atom_site_label
_atom_site_type_symbol
_atom_site_fract_x
_atom_site_fract_y
_atom_site_fract_z
O1	O	1.192915	0.142062	-0.098884
O2	O	0.933877	0.158244	-0.098917
O3	O	1.057652	-0.000757	-0.098894
O4	O	1.069139	0.301063	-0.098907
O5	O	1.068496	-0.014700	0.099153
O6	O	0.944721	0.144301	0.099130
O7	O	1.203759	0.128120	0.099162
Cu8	Cu	1.075230	0.134938	0.117229
Cu9	Cu	1.062406	0.151426	-0.116984
O10	O	1.079983	0.287121	0.099140
C11	C	0.905913	0.150549	0.000103
C12	C	0.806432	0.148382	0.000090
C13	C	0.757082	0.241790	0.000088
C14	C	0.663611	0.239745	0.000106
C15	C	0.619492	0.144292	0.000118
C16	C	0.668849	0.050876	0.000124
C17	C	0.762319	0.052922	0.000114
C18	C	0.474029	0.046620	0.000140
C19	C	0.380553	0.044574	0.000147
C20	C	0.375322	0.233444	0.000132
C21	C	0.468791	0.235489	0.000122
C22	C	0.518142	0.142073	0.000126
C23	C	1.059194	-0.046354	0.000128
C24	C	1.047619	-0.161445	0.000125
C25	C	1.186761	-0.402230	0.000117
C26	C	1.175890	-0.510370	0.000114
C27	C	1.015007	-0.485864	0.000106
C28	C	1.025878	-0.377725	0.000110
C29	C	1.111758	-0.335912	0.000117
C30	C	1.122628	-0.227772	0.000129
C31	C	0.961745	-0.203268	0.000113
C32	C	0.950874	-0.311407	0.000109
C33	C	1.231723	0.135815	0.000140
C34	C	1.331203	0.137982	0.000145
C35	C	1.078442	0.332718	0.000115
C36	C	1.090016	0.447809	0.000110
N37	N	1.084256	0.123340	0.281962
C38	C	0.988300	0.246570	0.531288
C39	C	0.995141	0.237796	0.655949
C40	C	1.104783	0.097023	0.655948
C41	C	1.097942	0.105797	0.531287
C42	C	1.039698	0.180572	0.468961
C43	C	1.032853	0.189340	0.344298
C44	C	1.142499	0.048574	0.344299
C45	C	1.149340	0.039799	0.468960
N46	N	1.053380	0.163024	0.718283
H47	H	0.344634	-0.033152	0.000158
Br48	Br	0.541005	-0.080160	0.000151
Br49	Br	1.212247	-0.041008	0.259702
Br50	Br	0.816948	0.371342	0.000060
H51	H	0.504710	0.313216	0.000101
H52	H	0.945086	-0.519926	0.000088
H53	H	0.940869	0.307447	0.480541
H54	H	0.953289	0.291539	0.706692
H55	H	0.335136	0.309506	0.000134
H56	H	0.985425	0.250223	0.293553
H57	H	1.192556	-0.193731	0.000139
H58	H	0.900672	-0.149260	0.000122
Br59	Br	1.183838	-0.004437	0.740544
Br60	Br	1.277684	-0.600371	0.000106
H61	H	0.623434	0.315808	0.000102
Br62	Br	0.608975	-0.078670	0.000151
H63	H	1.256688	-0.368187	0.000135
Br64	Br	0.834328	-0.368161	0.000084
H65	H	0.802499	-0.023141	0.000115
Br66	Br	1.228387	-0.061672	0.553552
