data_functionalizedCrystal
_audit_creation_method	'MofGen! by Chris Wilmer'
_symmetry_space_group_name_H-M	'P1'
_symmetry_Int_Tables_number	1
_symmetry_cell_setting	triclinic
loop_
_symmetry_equiv_pos_as_xyz
  x,y,z
_cell_length_a	17.038272
_cell_length_b	27.731996
_cell_length_c	16.098538
_cell_angle_alpha	92.693548
_cell_angle_beta	87.069734
_cell_angle_gamma	86.866472
loop_
_atom_site_label
_atom_site_type_symbol
_atom_site_fract_x
_atom_site_fract_y
_atom_site_fract_z
O1	O	1.039633	0.102901	-0.069170
O2	O	1.539633	0.602901	0.430830
O3	O	0.812024	0.101234	-0.069195
O4	O	1.312024	0.601234	0.430805
O5	O	0.932918	0.031994	-0.069164
O6	O	1.432918	0.531994	0.430836
O7	O	0.918739	0.172141	-0.069201
O8	O	1.418739	0.672141	0.430799
O9	O	0.925856	0.036021	0.069347
O10	O	1.425856	0.536021	0.569347
O11	O	0.804962	0.105262	0.069316
O12	O	1.304962	0.605262	0.569316
O13	O	1.032572	0.106928	0.069341
O14	O	1.532572	0.606928	0.569341
Zn15	Zn	0.917646	0.106734	0.091320
Zn16	Zn	1.417646	0.606734	0.591320
Zn17	Zn	0.926950	0.101428	-0.091174
Zn18	Zn	1.426950	0.601428	0.408826
O19	O	0.911677	0.176169	0.069310
O20	O	1.411677	0.676169	0.569310
C21	C	0.779383	0.101733	0.000058
C22	C	1.279383	0.601733	0.500058
C23	C	0.692645	0.097212	0.000050
C24	C	1.192645	0.597212	0.500050
C25	C	0.929096	0.015987	0.000095
C26	C	1.429096	0.515987	0.500095
C27	C	0.928218	-0.037709	0.000103
C28	C	1.428218	0.462291	0.500103
C29	C	0.642035	0.138715	0.000039
C30	C	1.142035	0.638715	0.500039
C31	C	0.560534	0.134465	0.000052
C32	C	1.060534	0.634465	0.500052
C33	C	0.529646	0.088711	0.000069
C34	C	1.029646	0.588711	0.500069
C35	C	0.580262	0.047205	0.000082
C36	C	1.080262	0.547205	0.500082
C37	C	0.661761	0.051456	0.000075
C38	C	1.161761	0.551456	0.500075
C39	C	0.284066	0.073695	0.000095
C40	C	0.784066	0.573695	0.500095
C41	C	0.202561	0.069447	0.000099
C42	C	0.702561	0.569447	0.500099
C43	C	0.182839	0.156707	0.000071
C44	C	0.682839	0.656707	0.500071
C45	C	0.264340	0.160954	0.000059
C46	C	0.764340	0.660954	0.500059
C47	C	0.314949	0.119448	0.000077
C48	C	0.814949	0.619448	0.500077
C49	C	0.446340	0.084366	0.000079
C50	C	0.946340	0.584366	0.500079
C51	C	0.398253	0.123794	0.000072
C52	C	0.898253	0.623794	0.500072
C53	C	0.926549	-0.372875	-0.075441
C54	C	1.426549	0.127125	0.424559
C55	C	0.923218	-0.574686	-0.075456
C56	C	1.423218	-0.074686	0.424544
O57	O	0.926027	-0.602645	-0.139668
O58	O	1.426027	-0.102645	0.360332
N59	N	0.918955	-0.597726	0.000046
N60	N	1.418955	-0.097726	0.500046
C61	C	0.915519	-0.570311	0.075557
C62	C	1.415519	-0.070311	0.575557
O63	O	0.911808	-0.594539	0.139775
O64	O	1.411808	-0.094539	0.639775
C65	C	0.918844	-0.368500	0.075571
C66	C	1.418844	0.131500	0.575571
C67	C	0.923116	-0.345463	0.000064
C68	C	1.423116	0.154537	0.500064
C69	C	0.930819	-0.349837	-0.150941
C70	C	1.430819	0.150163	0.349059
C71	C	0.931656	-0.299387	-0.150937
C72	C	1.431656	0.200613	0.349063
C73	C	0.928223	-0.271976	-0.075432
C74	C	1.428223	0.228024	0.424568
C75	C	0.923953	-0.295013	0.000069
C76	C	1.423953	0.204987	0.500069
C77	C	0.915403	-0.341086	0.151081
C78	C	1.415403	0.158914	0.651081
C79	C	0.916233	-0.290630	0.151078
C80	C	1.416233	0.209370	0.651078
C81	C	0.920504	-0.267592	0.075571
C82	C	1.420504	0.232408	0.575571
C83	C	0.921357	-0.217152	0.075578
C84	C	1.421357	0.282848	0.575578
N85	N	0.925620	-0.194111	0.000077
N86	N	1.425620	0.305889	0.500077
C87	C	0.929053	-0.221523	-0.075428
C88	C	1.429053	0.278477	0.424572
C89	C	0.913775	-0.676264	0.075544
C90	C	1.413775	-0.176264	0.575544
C91	C	0.912945	-0.726717	0.075541
C92	C	1.412945	-0.226717	0.575541
C93	C	0.920642	-0.731088	-0.075472
C94	C	1.420642	-0.231088	0.424528
C95	C	0.921478	-0.680635	-0.075468
C96	C	1.421478	-0.180635	0.424532
C97	C	0.918038	-0.653224	0.000042
C98	C	1.418038	-0.153224	0.500042
C99	C	0.930811	-0.115575	-0.075413
C100	C	1.430811	0.384425	0.424587
C101	C	0.931651	-0.065121	-0.075402
C102	C	1.431651	0.434879	0.424598
C103	C	0.923949	-0.060754	0.075610
C104	C	1.423949	0.439246	0.575610
C105	C	0.923113	-0.111204	0.075600
C106	C	1.423113	0.388796	0.575600
C107	C	0.926542	-0.138613	0.000081
C108	C	1.426542	0.361387	0.500081
O109	O	0.918541	-0.189162	0.139757
O110	O	1.418541	0.310838	0.639757
O111	O	0.932746	-0.197286	-0.139637
O112	O	1.432746	0.302714	0.360363
C113	C	0.925712	-0.423324	-0.075445
C114	C	1.425712	0.076676	0.424555
C115	C	0.921442	-0.446362	0.000055
C116	C	1.421442	0.053638	0.500055
C117	C	0.918009	-0.418950	0.075560
C118	C	1.418009	0.081050	0.575560
C119	C	0.920612	-0.496815	0.000052
C120	C	1.420612	0.003185	0.500052
C121	C	0.924045	-0.524226	-0.075453
C122	C	1.424045	-0.024226	0.424547
C123	C	0.928308	-0.501186	-0.150955
C124	C	1.428308	-0.001186	0.349045
C125	C	0.929145	-0.450736	-0.150950
C126	C	1.429145	0.049264	0.349050
C127	C	0.913745	-0.441991	0.151062
C128	C	1.413745	0.058009	0.651062
C129	C	0.912910	-0.492441	0.151051
C130	C	1.412910	0.007559	0.651051
C131	C	0.916343	-0.519853	0.075546
C132	C	1.416343	-0.019853	0.575546
C133	C	1.065213	0.106430	0.000086
C134	C	1.565213	0.606430	0.500086
C135	C	1.151951	0.110950	0.000089
C136	C	1.651951	0.610950	0.500089
C137	C	0.915500	0.192175	0.000050
C138	C	1.415500	0.692175	0.500050
C139	C	0.916378	0.245871	0.000036
C140	C	1.416378	0.745871	0.500036
N141	N	0.911301	0.110356	0.215868
N142	N	1.411301	0.610356	0.715868
N143	N	0.933300	0.097803	-0.215722
N144	N	1.433300	0.597803	0.284278
C145	C	0.962632	0.080980	0.259466
C146	C	1.462632	0.580980	0.759466
C147	C	0.958201	0.083518	0.346654
C148	C	1.458201	0.583518	0.846654
C149	C	0.902443	0.115436	0.390242
C150	C	1.402443	0.615436	0.890242
C151	C	0.851107	0.144813	0.346638
C152	C	1.351107	0.644813	0.846638
C153	C	0.855534	0.142272	0.259451
C154	C	1.355534	0.642272	0.759451
C155	C	0.886392	0.124639	0.653488
C156	C	1.386392	0.624639	1.153488
C157	C	0.881970	0.127179	0.740680
C158	C	1.381970	0.627179	1.240680
C159	C	0.989064	0.065883	0.740690
C160	C	1.489064	0.565883	1.240690
C161	C	0.993490	0.063347	0.653502
C162	C	1.493490	0.563347	1.153502
C163	C	0.942151	0.092722	0.609906
C164	C	1.442151	0.592722	1.109906
C165	C	0.897914	0.118032	0.479362
C166	C	1.397914	0.618032	0.979362
C167	C	0.946676	0.090123	0.520787
C168	C	1.446676	0.590123	1.020787
H169	H	0.667177	0.175972	0.000025
H170	H	1.167177	0.675972	0.500025
N171	N	0.546957	-0.002146	0.000096
N172	N	1.046957	0.497854	0.500096
H173	H	0.562843	-0.018986	0.051448
H174	H	1.062843	0.481014	0.551448
H175	H	0.487655	0.001495	0.000064
H176	H	0.987655	0.501495	0.500064
H177	H	0.910977	-0.653950	0.137037
H178	H	1.410977	-0.153950	0.637037
H179	H	0.702967	0.017660	0.000083
H180	H	1.202967	0.517660	0.500083
N181	N	0.338652	0.028932	0.000099
N182	N	0.838652	0.528932	0.500099
H183	H	0.370295	0.030242	0.051443
H184	H	0.870295	0.530242	0.551443
H185	H	0.306668	-0.000675	0.000073
H186	H	0.806668	0.499325	0.500073
N187	N	0.505942	0.179231	0.000135
N188	N	1.005942	0.679231	0.500135
H189	H	0.537875	0.208861	0.000148
H190	H	1.037875	0.708861	0.500148
H191	H	0.474261	0.177910	-0.051179
H192	H	0.974261	0.677910	0.448821
H193	H	0.421180	0.047114	0.000117
H194	H	0.921180	0.547114	0.500117
H195	H	0.933612	-0.372151	-0.212430
H196	H	1.433612	0.127849	0.287570
H197	H	0.999998	0.059597	0.382151
H198	H	1.499998	0.559597	0.882151
H199	H	0.921158	-0.038426	0.137084
H200	H	1.421158	0.461574	0.637084
N201	N	0.932026	-0.530761	-0.232389
N202	N	1.432026	-0.030761	0.267611
H203	H	0.982319	-0.524869	-0.265385
H204	H	1.482319	-0.024869	0.234615
H205	H	0.930820	-0.566204	-0.220847
H206	H	1.430820	-0.066204	0.279153
N207	N	0.924347	-0.760659	-0.156912
N208	N	1.424347	-0.260659	0.343088
H209	H	0.923172	-0.796115	-0.145449
H210	H	1.423172	-0.296115	0.354551
H211	H	0.877708	-0.750869	-0.189884
H212	H	1.377708	-0.250869	0.310116
N213	N	0.910051	-0.412433	0.232507
N214	N	1.410051	0.087567	0.732507
H215	H	0.958688	-0.393334	0.235879
H216	H	1.458688	0.106666	0.735879
H217	H	0.861738	-0.389500	0.235833
H218	H	1.361738	0.110500	0.735833
N219	N	0.908344	-0.751560	0.156981
N220	N	1.408344	-0.251560	0.656981
H221	H	0.908339	-0.787682	0.145530
H222	H	1.408339	-0.287682	0.645530
H223	H	0.955270	-0.743711	0.189957
H224	H	1.455270	-0.243711	0.689957
H225	H	1.038893	0.037357	0.618015
H226	H	1.538893	0.537357	1.118015
N227	N	0.837787	0.152460	0.526385
N228	N	1.337787	0.652460	1.026385
H229	H	0.847134	0.186681	0.511200
H230	H	1.347134	0.686681	1.011200
H231	H	0.783189	0.144117	0.511212
H232	H	1.283189	0.644117	1.011212
N233	N	0.933728	-0.425901	-0.232399
N234	N	1.433728	0.074099	0.267601
H235	H	0.885780	-0.403142	-0.235768
H236	H	1.385780	0.096858	0.264232
H237	H	0.982731	-0.407019	-0.235737
H238	H	1.482731	0.092981	0.264263
N239	N	0.431567	0.173140	0.000043
N240	N	0.931567	0.673140	0.500043
H241	H	0.387142	0.198790	0.000033
H242	H	0.887142	0.698790	0.500033
H243	H	0.462343	0.178300	0.051386
H244	H	0.962343	0.678300	0.551386
H245	H	0.935131	-0.046367	-0.136891
H246	H	1.435131	0.453633	0.363109
H247	H	0.177416	0.032187	0.000113
H248	H	0.677416	0.532187	0.500113
N249	N	0.934531	-0.145135	-0.156863
N250	N	1.434531	0.354865	0.343137
H251	H	0.937372	-0.122879	-0.204685
H252	H	1.437372	0.377121	0.295315
H253	H	0.982821	-0.168086	-0.160134
H254	H	1.482821	0.331914	0.339866
H255	H	0.935131	-0.280635	-0.212422
H256	H	1.435131	0.219365	0.287578
H257	H	0.924955	-0.661882	-0.136952
H258	H	1.424955	-0.161882	0.363048
H259	H	0.911926	-0.359834	0.212566
H260	H	1.411926	0.140166	0.712566
H261	H	0.913420	-0.268313	0.212569
H262	H	1.413420	0.231687	0.712569
H263	H	1.030861	0.041966	0.776195
H264	H	1.530861	0.541966	1.276195
N265	N	0.918520	-0.136056	0.157036
N266	N	1.418520	0.363944	0.657036
H267	H	0.916476	-0.111033	0.204868
H268	H	1.416476	0.388967	0.704868
H269	H	0.869541	-0.154961	0.160319
H270	H	1.369541	0.345039	0.660319
H271	H	0.836562	0.153172	0.776166
H272	H	1.336562	0.653172	1.276166
H273	H	0.844591	0.148559	0.617998
H274	H	1.344591	0.648559	1.117998
H275	H	1.008040	0.054991	0.223982
H276	H	1.508040	0.554991	0.723982
N277	N	0.297655	0.210302	0.000025
N278	N	0.797655	0.710302	0.500025
H279	H	0.253226	0.235950	0.000016
H280	H	0.753226	0.735950	0.500016
H281	H	0.328435	0.215465	0.051364
H282	H	0.828435	0.715465	0.551364
N283	N	0.128255	0.201472	0.000054
N284	N	0.628255	0.701472	0.500054
H285	H	0.071939	0.191839	0.000061
H286	H	0.571939	0.691839	0.500061
H287	H	0.135585	0.222760	0.051395
H288	H	0.635585	0.722760	0.551395
N289	N	0.908300	-0.517287	0.232494
N290	N	1.408300	-0.017287	0.732494
H291	H	0.956238	-0.540052	0.235874
H292	H	1.456238	-0.040052	0.735874
H293	H	0.906223	-0.492232	0.280276
H294	H	1.406223	0.007768	0.780276
H295	H	0.805703	0.170799	0.382132
H296	H	1.305703	0.670799	0.882132
N297	N	0.800167	0.173954	0.212423
N298	N	1.300167	0.673954	0.712423
H299	H	0.764172	0.194559	0.253264
H300	H	1.264172	0.694559	0.753264
H301	H	0.831650	0.195499	0.176232
H302	H	1.331650	0.695499	0.676232
H303	H	0.992072	0.064134	0.485295
H304	H	1.492072	0.564134	0.985295
