data_functionalizedCrystal
_audit_creation_method	'MofGen! by Chris Wilmer'
_symmetry_space_group_name_H-M	'P1'
_symmetry_Int_Tables_number	1
_symmetry_cell_setting	triclinic
loop_
_symmetry_equiv_pos_as_xyz
  x,y,z
_cell_length_a	19.077105
_cell_length_b	19.121063
_cell_length_c	19.076919
_cell_angle_alpha	85.393653
_cell_angle_beta	89.923776
_cell_angle_gamma	90.263052
loop_
_atom_site_label
_atom_site_type_symbol
_atom_site_fract_x
_atom_site_fract_y
_atom_site_fract_z
Zn1	Zn	1.043169	-0.339734	0.454309
Zn2	Zn	1.042790	-0.452646	0.341419
Zn3	Zn	0.930805	-0.330327	0.331718
Zn4	Zn	0.920631	-0.452222	0.454155
O5	O	0.984349	-0.393732	0.395400
O6	O	1.141268	-0.358826	0.443459
O7	O	1.032035	-0.432660	0.241647
O8	O	0.950127	-0.233307	0.343985
O9	O	1.140989	-0.441782	0.360519
O10	O	1.032681	-0.240219	0.434052
O11	O	0.949760	-0.342793	0.234520
O12	O	0.831307	-0.342382	0.343835
O13	O	0.932786	-0.441060	0.552660
O14	O	0.823831	-0.431938	0.433788
O15	O	1.022815	-0.358416	0.552774
O16	O	1.022169	-0.550857	0.360369
O17	O	0.932419	-0.550546	0.443195
C18	C	0.802120	-0.386094	0.387742
C19	C	0.724160	-0.382844	0.384484
C20	C	0.976167	-0.576182	0.402834
C21	C	0.972730	-0.654239	0.406041
C22	C	0.683661	-0.428009	0.429719
C23	C	0.610410	-0.424946	0.426660
C24	C	0.577659	-0.376721	0.378362
C25	C	0.618164	-0.331551	0.333125
C26	C	0.691414	-0.334611	0.336188
C27	C	0.359002	-0.362559	0.364190
C28	C	0.285746	-0.359503	0.361130
C29	C	0.277998	-0.452898	0.454666
C30	C	0.351249	-0.455957	0.457722
C31	C	0.391747	-0.410784	0.412487
N32	N	0.502785	-0.373590	0.375233
N33	N	0.466620	-0.413912	0.415620
C34	C	1.017877	-0.691052	0.364463
C35	C	1.014648	-0.764395	0.367483
C36	C	0.966269	-0.800923	0.412078
C37	C	0.921120	-0.764105	0.453660
C38	C	0.924353	-0.690764	0.450644
C39	C	0.954173	-1.022359	0.423346
C40	C	0.950942	-1.095705	0.426358
C41	C	1.044471	-1.095990	0.340181
C42	C	1.047697	-1.022647	0.337165
C43	C	1.002551	-0.985836	0.378750
C44	C	0.962966	-0.875891	0.415164
C45	C	1.005857	-0.910869	0.375667
C46	C	1.167289	-0.401401	0.403088
C47	C	1.245247	-0.404669	0.406365
C48	C	0.976708	-0.400740	0.578967
C49	C	0.973452	-0.403726	0.657192
C50	C	0.992581	-0.210571	0.387953
C51	C	0.996089	-0.132518	0.384780
C52	C	0.992003	-0.386702	0.212547
C53	C	0.995403	-0.383524	0.134320
C54	C	1.018793	-0.362103	0.694003
C55	C	1.015725	-0.364906	0.767503
C56	C	0.967319	-0.409336	0.804192
C57	C	0.921973	-0.450962	0.767376
C58	C	0.925038	-0.448154	0.693877
C59	C	0.953123	-0.422342	1.024005
C60	C	0.950063	-0.425148	1.097510
C61	C	1.043814	-0.339090	1.097632
C62	C	1.046877	-0.336290	1.024131
C63	C	1.001529	-0.377913	0.987321
N64	N	0.964183	-0.412204	0.879321
N65	N	1.004662	-0.375041	0.912193
H66	H	0.710321	-0.467281	0.469046
H67	H	0.377909	-0.495228	0.497049
C68	C	0.909743	-0.916079	0.464209
N69	N	0.869654	-0.946351	0.501149
C70	C	0.903236	-0.468126	0.983524
N71	N	0.865657	-0.502612	0.953030
H72	H	0.724388	-0.297829	0.299356
C73	C	1.065605	-0.319117	0.807992
N74	N	1.103177	-0.284627	0.838487
H75	H	0.882558	-0.487135	0.797254
H76	H	0.245016	-0.489674	0.491494
H77	H	1.045250	-0.881126	0.339361
C78	C	0.867901	-0.804289	0.502713
N79	N	0.827811	-0.834554	0.539657
H80	H	0.259084	-0.320225	0.321804
H81	H	0.391967	-0.325781	0.327352
C82	C	1.072043	-0.313224	0.653652
N83	N	1.112150	-0.276405	0.623261
H84	H	1.086296	-0.300112	0.994264
H85	H	0.591493	-0.292282	0.293803
H86	H	1.057269	-0.661315	0.328146
H87	H	1.087091	-0.992907	0.300852
H88	H	1.051411	-0.794364	0.333625
C89	C	1.094131	-1.136488	0.294443
N90	N	1.131538	-1.166992	0.259992
H91	H	0.911554	-1.125446	0.462685
C92	C	0.565864	-0.474644	0.476410
N93	N	0.532312	-0.512084	0.513879
H94	H	0.917412	-0.992393	0.457205
H95	H	1.080733	-0.305203	1.127610
H96	H	0.910642	-0.461330	1.127379
C97	C	0.875161	-0.493945	0.653386
N98	N	0.837590	-0.528435	0.622888
C99	C	0.874688	-0.650270	0.496383
N100	N	0.837281	-0.619772	0.530838
