data_functionalizedCrystal
_audit_creation_method	'MofGen! by Chris Wilmer'
_symmetry_space_group_name_H-M	'P1'
_symmetry_Int_Tables_number	1
_symmetry_cell_setting	triclinic
loop_
_symmetry_equiv_pos_as_xyz
  x,y,z
_cell_length_a	19.288864
_cell_length_b	10.540539
_cell_length_c	18.366186
_cell_angle_alpha	89.995944
_cell_angle_beta	89.977106
_cell_angle_gamma	83.830869
loop_
_atom_site_label
_atom_site_type_symbol
_atom_site_fract_x
_atom_site_fract_y
_atom_site_fract_z
O1	O	0.922409	0.158345	-0.060780
O2	O	1.422409	0.658345	0.439220
O3	O	0.720291	0.179705	-0.060730
O4	O	1.220291	0.679705	0.439270
O5	O	0.825961	-0.015784	-0.060755
O6	O	1.325961	0.484216	0.439245
O7	O	0.816739	0.353834	-0.060755
O8	O	1.316739	0.853834	0.439245
O9	O	0.825943	-0.015794	0.060344
O10	O	1.325943	0.484206	0.560344
O11	O	0.720273	0.179696	0.060370
O12	O	1.220273	0.679696	0.560370
O13	O	0.922391	0.158335	0.060319
O14	O	1.422391	0.658335	0.560319
Zn15	Zn	0.821329	0.169014	0.079572
Zn16	Zn	1.321329	0.669014	0.579572
Zn17	Zn	0.821353	0.169027	-0.079982
Zn18	Zn	1.321353	0.669027	0.420018
O19	O	0.816721	0.353825	0.060345
O20	O	1.316721	0.853825	0.560345
C21	C	0.694401	0.179013	-0.000174
C22	C	1.194401	0.679013	0.499826
C23	C	0.617284	0.176950	-0.000155
C24	C	1.117284	0.676950	0.499845
C25	C	0.825261	-0.063076	-0.000207
C26	C	1.325261	0.436924	0.499793
C27	C	0.823192	-0.203978	-0.000210
C28	C	1.323192	0.296022	0.499790
C29	C	0.573353	0.291654	-0.000166
C30	C	1.073353	0.791654	0.499834
C31	C	0.500893	0.289716	-0.000174
C32	C	1.000893	0.789716	0.499826
C33	C	0.472367	0.173067	-0.000185
C34	C	0.972367	0.673067	0.499815
C35	C	0.516308	0.058347	-0.000170
C36	C	1.016308	0.558347	0.499830
C37	C	0.588766	0.060289	-0.000155
C38	C	1.088766	0.560289	0.499845
C39	C	0.363499	0.081371	-0.042637
C40	C	0.863499	0.581371	0.457363
C41	C	0.291042	0.079434	-0.042656
C42	C	0.791042	0.579434	0.457344
C43	C	0.248881	0.167074	-0.000230
C44	C	0.748881	0.667074	0.499770
C45	C	0.279186	0.256671	0.042208
C46	C	0.779186	0.756671	0.542208
C47	C	0.351644	0.258613	0.042223
C48	C	0.851644	0.758613	0.542223
C49	C	0.393799	0.170949	-0.000202
C50	C	0.893799	0.670949	0.499798
C51	C	0.126381	0.279684	-0.000249
C52	C	0.626381	0.779684	0.499751
C53	C	0.053919	0.277741	-0.000252
C54	C	0.553919	0.777741	0.499748
C55	C	0.069336	0.046369	-0.000255
C56	C	0.569336	0.546369	0.499745
C57	C	0.141795	0.048315	-0.000244
C58	C	0.641795	0.548315	0.499756
C59	C	0.170313	0.164976	-0.000245
C60	C	0.670313	0.664976	0.499755
C61	C	0.743903	-0.385638	-0.000462
C62	C	1.243903	0.114362	0.499538
C63	C	0.746000	-0.239067	-0.000190
C64	C	1.246000	0.260933	0.499810
C65	C	0.860329	-0.266469	0.068934
C66	C	1.360329	0.233531	0.568934
C67	C	0.857695	-0.412955	0.068993
C68	C	1.357695	0.087045	0.568993
C69	C	0.859285	-0.413498	-0.068720
C70	C	1.359285	0.086502	0.431280
C71	C	0.859996	-0.266531	-0.069634
C72	C	1.359996	0.233469	0.430366
C73	C	0.948281	0.159027	-0.000238
C74	C	1.448281	0.659027	0.499762
C75	C	1.025399	0.161091	-0.000262
C76	C	1.525399	0.661091	0.499738
C77	C	0.817422	0.401117	-0.000206
C78	C	1.317422	0.901117	0.499794
C79	C	0.819491	0.542019	-0.000207
C80	C	1.319491	1.042019	0.499793
N81	N	0.821318	0.169005	0.188463
N82	N	1.321318	0.669005	0.688463
N83	N	0.821370	0.169026	-0.188873
N84	N	1.321370	0.669026	0.311127
C85	C	0.868124	0.082484	0.226552
C86	C	1.368124	0.582484	0.726552
C87	C	0.868129	0.082479	0.302780
C88	C	1.368129	0.582479	0.802780
C89	C	0.821333	0.169015	0.340915
C90	C	1.321333	0.669015	0.840915
C91	C	0.774518	0.255542	0.302817
C92	C	1.274518	0.755542	0.802817
C93	C	0.774510	0.255537	0.226591
C94	C	1.274510	0.755537	0.726591
C95	C	0.812807	0.284670	0.461677
C96	C	1.312807	0.784670	0.961677
C97	C	0.812820	0.284677	0.537902
C98	C	1.312820	0.784677	1.037902
C99	C	0.821353	0.169031	0.576023
C100	C	1.321353	0.669031	1.076023
C101	C	0.829889	0.053374	0.537909
C102	C	1.329889	0.553374	1.037909
C103	C	0.829881	0.053368	0.461683
C104	C	1.329881	0.553368	0.961683
C105	C	0.821336	0.169030	0.423570
C106	C	1.321336	0.669030	0.923570
C107	C	0.868167	0.082497	0.696767
C108	C	1.368167	0.582497	1.196767
C109	C	0.868167	0.082490	0.772996
C110	C	1.368167	0.582490	1.272996
C111	C	0.774559	0.255565	0.773032
C112	C	1.274559	0.755565	1.273032
C113	C	0.774556	0.255561	0.696804
C114	C	1.274556	0.755561	1.196804
C115	C	0.821364	0.169029	0.658676
C116	C	1.321364	0.669029	1.158676
H117	H	0.596567	0.386649	-0.000167
H118	H	1.096567	0.886649	0.499833
H119	H	0.913209	-0.462161	0.072117
H120	H	1.413209	0.037839	0.572117
H121	H	0.465117	0.383125	-0.000181
H122	H	0.965117	0.883125	0.499819
H123	H	0.736445	0.326019	0.665790
H124	H	1.236445	0.826019	1.165790
H125	H	0.149601	0.374676	-0.000238
H126	H	0.649601	0.874676	0.499762
H127	H	0.906236	0.012022	0.195510
H128	H	1.406236	0.512022	0.695510
H129	H	0.397822	0.010002	-0.077190
H130	H	0.897822	0.510002	0.422810
H131	H	0.834310	-0.444490	-0.121128
H132	H	1.334310	0.055510	0.378872
H133	H	0.713527	-0.415173	0.048859
H134	H	1.213527	0.084827	0.548859
H135	H	0.906280	0.012028	0.804009
H136	H	1.406280	0.512028	1.304009
H137	H	0.018151	0.371151	-0.000257
H138	H	0.518151	0.871151	0.499743
H139	H	0.917016	-0.245379	0.071492
H140	H	1.417016	0.254621	0.571492
H141	H	0.906279	0.012034	0.665722
H142	H	1.406279	0.512034	1.165722
H143	H	0.716778	-0.195808	-0.049755
H144	H	1.216778	0.304192	0.450245
H145	H	0.736455	0.326019	0.804082
H146	H	1.236455	0.826019	1.304082
H147	H	0.493077	-0.036629	-0.000189
H148	H	0.993077	0.463371	0.499811
H149	H	0.376315	0.331563	0.076779
H150	H	0.876315	0.831563	0.576779
H151	H	0.906245	0.012021	0.333798
H152	H	1.406245	0.512021	0.833798
H153	H	0.624535	-0.033120	-0.000146
H154	H	1.124535	0.466880	0.499854
H155	H	0.244859	0.328035	0.076756
H156	H	0.744859	0.828035	0.576756
H157	H	0.834516	-0.223299	0.120403
H158	H	1.334516	0.276701	0.620403
H159	H	0.805874	0.378852	0.568928
H160	H	1.305874	0.878852	1.068928
H161	H	0.832823	-0.225063	-0.120785
H162	H	1.332823	0.274937	0.379215
H163	H	0.830233	-0.440547	0.120694
H164	H	1.330233	0.059453	0.620694
H165	H	0.916275	-0.243564	-0.073824
H166	H	1.416275	0.256436	0.426176
H167	H	0.836830	-0.040804	0.430654
H168	H	1.336830	0.459196	0.930654
H169	H	0.046111	-0.048609	-0.000310
H170	H	0.546111	0.451391	0.499690
H171	H	0.915040	-0.461966	-0.069199
H172	H	1.415040	0.038034	0.430801
H173	H	0.713418	-0.413555	-0.050046
H174	H	1.213418	0.086445	0.449954
H175	H	0.177565	-0.045090	-0.000239
H176	H	0.677565	0.454910	0.499761
H177	H	0.266374	0.006484	-0.077214
H178	H	0.766374	0.506484	0.422786
H179	H	0.736415	0.326000	0.333871
H180	H	1.236415	0.826000	0.833871
H181	H	0.716558	-0.196659	0.049472
H182	H	1.216558	0.303341	0.549472
H183	H	0.836838	-0.040796	0.568945
H184	H	1.336838	0.459204	1.068945
H185	H	0.805846	0.378848	0.430646
H186	H	1.305846	0.878848	0.930646
H187	H	0.736394	0.325993	0.195578
H188	H	1.236394	0.825993	0.695578
