data_functionalizedCrystal
_audit_creation_method	'MofGen! by Chris Wilmer'
_symmetry_space_group_name_H-M	'P1'
_symmetry_Int_Tables_number	1
_symmetry_cell_setting	triclinic
loop_
_symmetry_equiv_pos_as_xyz
  x,y,z
_cell_length_a	12.837942
_cell_length_b	11.026607
_cell_length_c	10.065875
_cell_angle_alpha	100.697662
_cell_angle_beta	99.723749
_cell_angle_gamma	78.292522
loop_
_atom_site_label
_atom_site_type_symbol
_atom_site_fract_x
_atom_site_fract_y
_atom_site_fract_z
O1	O	0.431471	-1.677813	-0.113501
O2	O	0.380952	-1.318665	-0.113502
O3	O	0.253824	-1.490274	-0.113493
O4	O	0.558600	-1.506204	-0.113509
O5	O	0.278190	-1.457565	0.113494
O6	O	0.405318	-1.285956	0.113485
O7	O	0.455838	-1.645104	0.113486
Zn8	Zn	0.434446	-1.460337	0.149525
Zn9	Zn	0.402343	-1.503433	-0.149540
O10	O	0.582966	-1.473495	0.113478
C11	C	0.383815	-1.256022	-0.000008
C12	C	0.356032	-1.118096	-0.000008
C13	C	0.226382	-1.468539	0.000000
C14	C	0.108310	-1.452492	-0.000002
N15	N	0.456357	-1.430934	0.353629
C16	C	-0.096651	-1.645414	-0.000030
C17	C	-0.207590	-1.630342	-0.000032
C18	C	-0.224509	-1.407280	-0.000019
C19	C	-0.113570	-1.422351	-0.000017
C20	C	-0.049645	-1.541422	-0.000020
C21	C	0.061297	-1.556491	-0.000008
C22	C	0.044375	-1.333431	-0.000004
C23	C	-0.066563	-1.318359	-0.000007
C24	C	0.610407	-1.495231	-0.000018
C25	C	0.728478	-1.511279	-0.000025
C26	C	0.452974	-1.707748	-0.000010
C27	C	0.480756	-1.845676	-0.000019
C28	C	0.432745	-1.053161	-0.000013
C29	C	0.404032	-0.910607	-0.000014
N30	N	0.380426	-1.532844	-0.353644
C31	C	0.409958	-1.493194	0.421411
C32	C	0.426831	-1.470575	0.578577
H33	H	0.113344	-1.653444	-0.000006
H34	H	0.082660	-1.248752	0.000015
H35	H	-0.245858	-1.715025	-0.000045
Cl36	Cl	-0.016281	-1.795093	-0.000001
Cl37	Cl	-0.304893	-1.257609	-0.000055
H38	H	0.317088	-0.860672	-0.000044
Cl39	Cl	-0.146937	-1.168681	-0.000014
Cl40	Cl	0.566969	-1.130261	-0.000017
Cl41	Cl	0.614989	-0.922765	-0.000007
H42	H	0.328202	-1.602892	0.588039
H43	H	0.269094	-1.068156	-0.000039
Cl44	Cl	0.329050	-1.601039	0.331376
Cl45	Cl	0.507447	-1.362412	0.668608
H46	H	0.508568	-1.360881	0.411952
