data_functionalizedCrystal
_audit_creation_method	'MofGen! by Chris Wilmer'
_symmetry_space_group_name_H-M	'P1'
_symmetry_Int_Tables_number	1
_symmetry_cell_setting	triclinic
loop_
_symmetry_equiv_pos_as_xyz
  x,y,z
_cell_length_a	6.817900
_cell_length_b	11.353959
_cell_length_c	12.200737
_cell_angle_alpha	103.765814
_cell_angle_beta	107.141108
_cell_angle_gamma	107.526623
loop_
_atom_site_label
_atom_site_type_symbol
_atom_site_fract_x
_atom_site_fract_y
_atom_site_fract_z
V1	V	-4.112920	-0.181240	-0.393861
O2	O	-4.052947	0.008395	-0.349176
O3	O	-4.107941	-0.359067	-0.426933
O4	O	-4.081980	-0.178590	-0.549320
O5	O	-4.079088	-0.173331	-0.225942
V6	V	-4.588659	-0.158542	-0.369432
O7	O	-4.391253	-0.231032	-0.447449
O8	O	-4.760524	-0.108750	-0.315844
O9	O	-4.370432	0.019285	-0.336360
O10	O	-4.766030	-0.348177	-0.414117
O11	O	-4.739888	-0.166451	-0.537352
O12	O	-4.396393	-0.161192	-0.213973
C13	C	-3.962940	-0.402413	-0.429949
C14	C	-4.040273	-0.547790	-0.458025
C15	C	-3.929822	-0.172196	-0.586064
C16	C	-3.986096	-0.171205	-0.713388
C17	C	-4.020519	-0.594771	-0.367148
C18	C	-4.100445	-0.745025	-0.396164
C19	C	-4.031793	-0.170400	-0.816788
C20	C	-4.089137	-0.169384	-0.946507
C21	C	-4.178776	0.062624	-0.333343
C22	C	-4.080683	0.208000	-0.305274
C23	C	-4.211893	-0.167591	-0.177224
C24	C	-4.134857	-0.168574	-0.049898
H25	H	-4.176536	-0.816037	-0.495456
H26	H	-4.004607	-0.720991	-0.205982
H27	H	-4.116362	-0.618805	-0.557310
H28	H	-3.944448	-0.523756	-0.267864
