data_functionalizedCrystal
_audit_creation_method	'MofGen! by Chris Wilmer'
_symmetry_space_group_name_H-M	'P1'
_symmetry_Int_Tables_number	1
_symmetry_cell_setting	triclinic
loop_
_symmetry_equiv_pos_as_xyz
  x,y,z
_cell_length_a	14.971506
_cell_length_b	14.971486
_cell_length_c	13.448316
_cell_angle_alpha	90.001801
_cell_angle_beta	90.005023
_cell_angle_gamma	83.618258
loop_
_atom_site_label
_atom_site_type_symbol
_atom_site_fract_x
_atom_site_fract_y
_atom_site_fract_z
O1	O	-0.116564	-1.186956	-0.082574
O2	O	-0.130522	-0.926557	-0.082601
O3	O	0.006656	-1.063726	-0.082584
O4	O	-0.253742	-1.049786	-0.082591
O5	O	0.006664	-1.063709	0.082800
O6	O	-0.130514	-0.926539	0.082783
O7	O	-0.116555	-1.186939	0.082810
Cu8	Cu	-0.123534	-1.056737	0.097897
Cu9	Cu	-0.123544	-1.056758	-0.097688
O10	O	-0.253733	-1.049769	0.082793
C11	C	-0.129894	-0.893223	0.000088
C12	C	-0.128023	-0.793926	0.000078
C13	C	0.039984	-1.063091	0.000106
C14	C	0.139281	-1.061213	0.000102
C15	C	-0.117184	-1.220272	0.000119
C16	C	-0.119054	-1.319569	0.000123
C17	C	-0.287062	-1.050404	0.000101
C18	C	-0.386358	-1.052282	0.000099
C19	C	0.577563	-1.134631	0.000110
C20	C	0.484263	-1.136389	0.000117
C21	C	0.427043	-1.055796	0.000105
C22	C	0.463127	-0.973441	0.000097
C23	C	0.556426	-0.971685	0.000097
C24	C	0.268664	-0.977108	0.000093
C25	C	0.175359	-0.978864	0.000091
C26	C	0.196501	-1.141812	0.000113
C27	C	0.289800	-1.140055	0.000113
C28	C	0.325878	-1.057700	0.000103
N29	N	-0.123526	-1.056730	0.235462
C30	C	-0.208612	-0.736707	0.000077
C31	C	-0.206849	-0.643407	0.000092
C32	C	-0.124496	-0.607329	0.000100
C33	C	-0.043901	-0.664556	0.000104
C34	C	-0.045665	-0.757853	0.000096
C35	C	-0.040230	-0.470093	0.000118
C36	C	-0.038466	-0.376789	0.000124
C37	C	-0.201414	-0.355647	0.000113
C38	C	-0.203178	-0.448944	0.000106
C39	C	-0.122582	-0.506165	0.000107
N40	N	-0.123544	-1.056773	-0.235252
C41	C	-0.062809	-1.117487	0.287509
C42	C	-0.062808	-1.117493	0.391613
C43	C	-0.123530	-1.056744	0.443666
C44	C	-0.184250	-0.995980	0.391611
C45	C	-0.184246	-0.995971	0.287510
C46	C	-0.184256	-0.996005	0.608591
C47	C	-0.184262	-0.996015	0.712700
C48	C	-0.062818	-1.117527	0.712694
C49	C	-0.062814	-1.117518	0.608593
C50	C	-0.123536	-1.056754	0.556545
H51	H	0.624146	-1.200259	0.000111
C52	C	-0.290069	-0.292712	0.000117
H53	H	-0.339367	-0.327562	0.000099
H54	H	-0.292770	-0.255881	0.057794
H55	H	-0.292767	-0.255875	-0.057559
H56	H	-0.233687	-0.946495	0.245134
C57	C	-0.295496	-0.580469	0.000088
H58	H	-0.344794	-0.615319	0.000069
H59	H	-0.298197	-0.543638	0.057765
H60	H	-0.298194	-0.543632	-0.057589
H61	H	-0.233707	-0.946547	0.755077
C62	C	0.444580	-1.226972	0.000117
H63	H	0.492020	-1.274718	0.000110
H64	H	0.408627	-1.231046	0.057789
H65	H	0.408621	-1.231045	-0.057564
H66	H	0.028593	-0.347417	0.000132
C67	C	0.003976	-1.184367	0.769937
H68	H	0.040132	-1.220553	0.724026
H69	H	0.041267	-1.152162	0.810558
H70	H	-0.028273	-1.221636	0.810535
C71	C	0.156820	-1.232401	0.000138
H72	H	0.093060	-1.221908	0.000150
H73	H	0.176444	-1.265600	-0.057529
H74	H	0.176461	-1.265575	0.057824
C75	C	0.042979	-0.820799	0.000096
H76	H	0.030135	-0.881530	0.000100
H77	H	0.076745	-0.809854	-0.057573
H78	H	0.076742	-0.809853	0.057781
C79	C	-0.251018	-0.929130	0.448863
H80	H	-0.287165	-0.892930	0.402952
H81	H	-0.288319	-0.961320	0.489478
H82	H	-0.218749	-0.891875	0.489467
C83	C	0.112419	-0.890215	0.000083
H84	H	0.147266	-0.840916	0.000090
H85	H	0.075582	-0.887520	-0.057592
H86	H	0.075587	-0.887513	0.057761
H87	H	-0.013366	-1.166959	0.245134
H88	H	0.336387	-1.205681	0.000116
C89	C	0.308349	-0.886519	0.000071
H90	H	0.260910	-0.838772	0.000051
H91	H	0.344312	-0.882430	0.057740
H92	H	0.344298	-0.882464	-0.057614
H93	H	0.025399	-0.516680	0.000121
C94	C	0.596117	-0.881103	0.000084
H95	H	0.659877	-0.891599	0.000096
H96	H	0.576484	-0.847920	-0.057593
H97	H	0.576487	-0.847912	0.057760
C98	C	0.003973	-1.184334	0.448861
H99	H	0.040127	-1.220522	0.402950
H100	H	0.041265	-1.152133	0.489484
H101	H	-0.028280	-1.221603	0.489457
H102	H	-0.275673	-0.766074	0.000069
H103	H	-0.270236	-0.478316	0.000089
H104	H	0.023152	-0.635173	0.000125
H105	H	0.416531	-0.907821	0.000093
H106	H	-0.013374	-1.166988	0.566211
H107	H	-0.233699	-0.946522	0.566217
