data_functionalizedCrystal
_audit_creation_method	'MofGen! by Chris Wilmer'
_symmetry_space_group_name_H-M	'P1'
_symmetry_Int_Tables_number	1
_symmetry_cell_setting	triclinic
loop_
_symmetry_equiv_pos_as_xyz
  x,y,z
_cell_length_a	10.489716
_cell_length_b	10.489741
_cell_length_c	11.804365
_cell_angle_alpha	101.953620
_cell_angle_beta	78.030793
_cell_angle_gamma	84.534155
loop_
_atom_site_label
_atom_site_type_symbol
_atom_site_fract_x
_atom_site_fract_y
_atom_site_fract_z
O1	O	1.719603	0.154300	-0.099016
O2	O	1.348405	0.171225	-0.099021
O3	O	1.542448	-0.022834	-0.099011
O4	O	1.525559	0.348359	-0.099026
O5	O	1.491364	0.028202	0.099042
O6	O	1.297320	0.222261	0.099033
O7	O	1.668518	0.205337	0.099037
Cu8	Cu	1.478255	0.218459	0.117119
Cu9	Cu	1.538668	0.158102	-0.117102
O10	O	1.474474	0.399396	0.099028
C11	C	1.275330	0.195471	0.000005
C12	C	1.133700	0.191666	0.000004
C13	C	1.515630	-0.044848	0.000015
C14	C	1.511814	-0.186478	0.000012
C15	C	1.036028	0.310668	-0.000004
C16	C	0.933492	0.272950	0.097655
C17	C	0.983864	0.222604	-0.097610
C18	C	1.033009	0.154018	0.097743
C19	C	1.083409	0.103666	-0.097610
C20	C	0.980916	0.065866	0.000072
C21	C	1.388350	-0.254609	0.000002
C22	C	1.421487	-0.321573	0.097654
C23	C	1.471882	-0.371866	-0.097612
C24	C	1.544980	-0.251555	0.097744
C25	C	1.595381	-0.301861	-0.097609
C26	C	1.628601	-0.368791	0.000067
C27	C	1.741593	0.181090	0.000008
C28	C	1.883226	0.184893	0.000002
C29	C	1.501293	0.421408	-0.000001
C30	C	1.505112	0.563036	-0.000007
N31	N	1.435772	0.260910	0.281857
N32	N	1.581161	0.115642	-0.281841
C33	C	1.683176	0.013677	0.655818
C34	C	1.715313	-0.018442	0.531158
C35	C	1.645430	0.051393	0.468827
C36	C	1.543406	0.153353	0.531168
C37	C	1.511273	0.185483	0.655840
C38	C	1.473527	0.223198	0.468849
C39	C	1.371503	0.325158	0.531190
C40	C	1.339375	0.357282	0.655850
C41	C	1.409258	0.287447	0.718181
C42	C	1.505660	0.191069	0.344176
C43	C	1.333756	0.362874	0.344198
C44	C	1.301620	0.394993	0.468858
H45	H	1.060674	0.414207	0.000084
C46	C	1.228530	0.467991	0.723321
C47	C	1.174183	0.522254	0.642059
C48	C	1.072062	0.624230	0.704167
H49	H	1.262221	0.534187	0.771945
H50	H	1.162414	0.434150	0.771942
H51	H	1.240288	0.556096	0.593459
H52	H	1.140465	0.456092	0.593432
H53	H	1.005945	0.590389	0.752787
H54	H	1.105764	0.690416	0.752789
H55	H	1.035167	0.661052	0.649040
C56	C	1.759003	-0.062380	0.723346
C57	C	1.745008	-0.195747	0.693019
C58	C	1.814855	-0.265860	0.755194
H59	H	1.725331	-0.028809	0.806536
H60	H	1.849563	-0.053060	0.702884
H61	H	1.654466	-0.205060	0.713489
H62	H	1.778686	-0.229356	0.609839
H63	H	1.905416	-0.256540	0.734732
H64	H	1.781177	-0.232279	0.838381
H65	H	1.805379	-0.356359	0.734617
C66	C	1.323230	-0.334489	0.207630
C67	C	1.197603	-0.276294	0.207169
C68	C	1.107047	-0.288176	0.308447
H69	H	1.348211	-0.291492	0.277061
H70	H	1.322023	-0.425033	0.207200
H71	H	1.198814	-0.185766	0.207611
H72	H	1.172581	-0.319277	0.137761
H73	H	1.105840	-0.378721	0.308017
H74	H	1.132041	-0.245180	0.377871
H75	H	1.021798	-0.248704	0.308143
H76	H	1.055008	0.125106	0.180387
H77	H	0.956471	-0.037710	0.000133
C78	C	1.825619	-0.129616	0.463553
C79	C	1.775004	-0.226678	0.392248
C80	C	1.876458	-0.329280	0.330044
H81	H	1.862429	-0.166695	0.518576
H82	H	1.891959	-0.096294	0.414682
H83	H	1.708687	-0.259999	0.441115
H84	H	1.738204	-0.189641	0.337203
H85	H	1.942798	-0.295957	0.281173
H86	H	1.913261	-0.366347	0.385076
H87	H	1.842133	-0.395142	0.281649
C88	C	0.846952	0.368398	0.207585
C89	C	0.768196	0.461482	0.172651
C90	C	0.688452	0.549428	0.273877
H91	H	0.900840	0.412006	0.253956
H92	H	0.792369	0.321300	0.253569
H93	H	0.822773	0.508574	0.126686
H94	H	0.714282	0.417912	0.126293
H95	H	0.633870	0.502331	0.319862
H96	H	0.742351	0.593026	0.320242
H97	H	0.634999	0.612588	0.250189
H98	H	1.383089	0.313594	0.819690
C99	C	1.430854	-0.441525	-0.207839
C100	C	1.520861	-0.430641	-0.309848
C101	C	1.483109	-0.494802	-0.411404
H102	H	1.345512	-0.402089	-0.207885
H103	H	1.429558	-0.531883	-0.207496
H104	H	1.522143	-0.340300	-0.310192
H105	H	1.606209	-0.470083	-0.309842
H106	H	1.481812	-0.585159	-0.411061
H107	H	1.397765	-0.455360	-0.411438
H108	H	1.544178	-0.487436	-0.480629
C109	C	1.169773	0.008556	-0.207836
C110	C	1.145443	0.045049	-0.309810
C111	C	1.224997	-0.042514	-0.411381
H112	H	1.150230	-0.078170	-0.208704
H113	H	1.259795	0.011151	-0.206703
H114	H	1.055442	0.042441	-0.310943
H115	H	1.164994	0.131761	-0.308981
H116	H	1.315018	-0.039920	-0.410248
H117	H	1.205447	-0.129235	-0.412238
H118	H	1.208509	-0.017759	-0.480582
H119	H	1.588728	0.108053	0.293429
C120	C	0.954446	0.261455	-0.207660
C121	C	0.981796	0.389599	-0.207209
C122	C	0.954740	0.425434	-0.308573
H123	H	0.864212	0.258067	-0.207365
H124	H	1.007800	0.202231	-0.277026
H125	H	0.928442	0.448807	-0.137861
H126	H	1.072024	0.393020	-0.207522
H127	H	1.008094	0.366210	-0.377940
H128	H	0.864506	0.422038	-0.308270
H129	H	0.973304	0.512377	-0.308287
C130	C	1.680437	0.016752	0.333480
C131	C	1.717943	0.126644	0.292218
C132	C	1.750220	0.094769	0.167539
H133	H	1.606098	-0.008728	0.305142
H134	H	1.751252	-0.053927	0.305233
H135	H	1.647135	0.197301	0.320453
H136	H	1.792291	0.152140	0.320524
H137	H	1.821035	0.024090	0.139292
H138	H	1.675875	0.069287	0.139212
H139	H	1.775683	0.169320	0.139527
H140	H	1.286812	-0.204924	0.000099
H141	H	1.575858	-0.199430	0.180394
H142	H	1.730191	-0.418210	0.000122
H143	H	1.218550	0.478012	0.519632
H144	H	1.668873	-0.292096	-0.180169
H145	H	1.276854	0.419742	0.293449
