data_functionalizedCrystal
_audit_creation_method	'MofGen! by Chris Wilmer'
_symmetry_space_group_name_H-M	'P1'
_symmetry_Int_Tables_number	1
_symmetry_cell_setting	triclinic
loop_
_symmetry_equiv_pos_as_xyz
  x,y,z
_cell_length_a	19.805407
_cell_length_b	10.686285
_cell_length_c	19.805399
_cell_angle_alpha	85.610534
_cell_angle_beta	89.975799
_cell_angle_gamma	85.630402
loop_
_atom_site_label
_atom_site_type_symbol
_atom_site_fract_x
_atom_site_fract_y
_atom_site_fract_z
Zn1	Zn	1.055501	-0.502400	-0.362195
Zn2	Zn	1.064137	-0.713411	-0.240351
Zn3	Zn	0.942317	-0.502432	-0.249009
Zn4	Zn	0.950998	-0.713341	-0.353491
O5	O	1.003238	-0.607896	-0.301261
O6	O	1.151364	-0.530407	-0.346051
O7	O	1.047959	-0.685467	-0.146781
O8	O	0.950084	-0.325853	-0.271289
O9	O	1.157709	-0.685436	-0.256533
O10	O	1.033240	-0.325829	-0.354446
O11	O	0.958458	-0.530462	-0.153142
O12	O	0.848751	-0.530394	-0.262850
O13	O	0.964879	-0.685317	-0.449364
O14	O	0.855129	-0.685348	-0.339612
O15	O	1.041657	-0.530339	-0.455758
O16	O	1.056377	-0.889977	-0.248093
O17	O	0.973253	-0.889926	-0.331217
C18	C	0.827381	-0.607868	-0.301226
C19	C	0.752150	-0.607886	-0.301226
C20	C	0.293704	-0.688732	-0.341201
C21	C	0.364393	-0.688730	-0.341187
C22	C	0.396390	-0.607927	-0.301287
C23	C	0.357695	-0.527129	-0.261393
C24	C	0.287009	-0.527138	-0.261404
C25	C	0.642767	-0.527090	-0.261347
C26	C	0.713459	-0.527084	-0.261340
C27	C	0.720151	-0.688682	-0.341130
C28	C	0.649464	-0.688692	-0.341141
C29	C	0.610776	-0.607899	-0.301244
C30	C	0.534128	-0.607904	-0.301259
C31	C	0.473036	-0.607914	-0.301275
C32	C	1.016712	-0.935735	-0.287786
C33	C	1.022539	-1.075986	-0.282044
C34	C	1.179782	-0.607926	-0.301297
C35	C	1.255015	-0.607938	-0.301312
C36	C	1.003273	-0.607817	-0.477807
C37	C	1.003288	-0.607783	-0.553041
C38	C	0.989730	-0.278777	-0.314804
C39	C	0.983974	-0.138526	-0.320575
C40	C	1.043267	-0.527082	-0.591716
C41	C	1.043272	-0.527045	-0.662406
C42	C	1.003302	-0.607717	-0.694419
C43	C	0.963318	-0.688421	-0.655739
C44	C	0.963309	-0.688451	-0.585051
C45	C	0.963351	-0.688304	-0.940817
C46	C	0.963365	-0.688271	-1.011511
C47	C	1.043314	-0.526898	-1.018172
C48	C	1.043306	-0.526928	-0.947484
C49	C	1.003320	-0.607627	-0.908810
C50	C	1.003313	-0.607664	-0.832160
C51	C	1.003311	-0.607687	-0.771068
C52	C	1.003239	-0.607884	-0.125406
C53	C	1.003341	-0.607563	-0.050187
H54	H	0.267657	-0.754525	-0.373696
H55	H	0.383753	-0.461343	-0.228902
H56	H	0.946500	-1.084775	-0.357958
Cl57	Cl	0.913046	-0.789904	-0.536430
H58	H	1.060011	-1.129745	-0.244654
H59	H	0.930771	-0.754101	-0.681810
Cl60	Cl	0.413028	-0.790308	-0.391334
Cl61	Cl	1.093558	-0.425512	-0.907242
Cl62	Cl	1.093522	-0.425666	-0.551477
Cl63	Cl	1.093566	-0.425644	-0.711021
Cl64	Cl	0.238370	-0.425570	-0.211252
Cl65	Cl	1.093581	-0.425441	-1.066795
H66	H	0.930813	-0.753966	-1.037574
Cl67	Cl	0.913083	-0.789755	-0.892208
H68	H	0.623416	-0.754486	-0.373634
H69	H	0.751660	-0.754471	-0.373613
H70	H	0.739508	-0.461279	-0.228848
H71	H	0.611276	-0.461309	-0.228858
