data_functionalizedCrystal
_audit_creation_method	'MofGen! by Chris Wilmer'
_symmetry_space_group_name_H-M	'P1'
_symmetry_Int_Tables_number	1
_symmetry_cell_setting	triclinic
loop_
_symmetry_equiv_pos_as_xyz
  x,y,z
_cell_length_a	21.295419
_cell_length_b	21.295418
_cell_length_c	21.295411
_cell_angle_alpha	90.017488
_cell_angle_beta	90.024539
_cell_angle_gamma	90.043188
loop_
_atom_site_label
_atom_site_type_symbol
_atom_site_fract_x
_atom_site_fract_y
_atom_site_fract_z
Zn1	Zn	0.962365	-0.250432	0.355929
Zn2	Zn	1.462365	0.249568	0.855929
Zn3	Zn	0.962271	-0.355684	0.250662
Zn4	Zn	1.462271	0.144316	0.750662
Zn5	Zn	0.857088	-0.250460	0.250674
Zn6	Zn	1.357088	0.249540	0.750674
Zn7	Zn	0.857061	-0.355695	0.355894
Zn8	Zn	1.357061	0.144305	0.855894
O9	O	0.909696	-0.303068	0.303290
O10	O	1.409696	0.196932	0.803290
O11	O	1.050442	-0.264378	0.341975
O12	O	1.550442	0.235622	0.841975
O13	O	0.948290	-0.341733	0.162575
O14	O	1.448290	0.158267	0.662575
O15	O	0.871104	-0.162367	0.264656
O16	O	1.371104	0.337633	0.764656
O17	O	1.050373	-0.341706	0.264636
O18	O	1.550373	0.158294	0.764636
O19	O	0.948450	-0.162347	0.341987
O20	O	1.448450	0.337653	0.841987
O21	O	0.871013	-0.264425	0.162583
O22	O	1.371013	0.235575	0.662583
O23	O	0.768995	-0.264436	0.264622
O24	O	1.268995	0.235564	0.764622
O25	O	0.871058	-0.341724	0.443988
O26	O	1.371058	0.158276	0.943988
O27	O	0.768975	-0.341751	0.341927
O28	O	1.268975	0.158249	0.841927
O29	O	0.948424	-0.264388	0.444014
O30	O	1.448424	0.235612	0.944014
O31	O	0.948264	-0.443775	0.264602
O32	O	1.448264	0.056225	0.764602
O33	O	0.870967	-0.443783	0.341915
O34	O	1.370967	0.056217	0.841915
C35	C	0.746145	-0.303098	0.303272
C36	C	1.246145	0.196902	0.803272
C37	C	0.676177	-0.303126	0.303280
C38	C	1.176177	0.196874	0.803280
C39	C	0.909620	-0.466619	0.303267
C40	C	1.409620	0.033381	0.803267
C41	C	0.909645	-0.536588	0.303278
C42	C	1.409645	-0.036588	0.803278
C43	C	0.643368	-0.262927	0.343613
C44	C	1.143368	0.237073	0.843613
C45	C	0.577626	-0.262910	0.343615
C46	C	1.077626	0.237090	0.843615
C47	C	0.544694	-0.303104	0.303291
C48	C	1.044694	0.196896	0.803291
C49	C	0.577510	-0.343305	0.262951
C50	C	1.077510	0.156695	0.762951
C51	C	0.643252	-0.343317	0.262945
C52	C	1.143252	0.156683	0.762945
N53	N	0.441421	-0.358181	0.298375
N54	N	0.941421	0.141819	0.798375
N55	N	0.378969	-0.358168	0.298385
N56	N	0.878969	0.141832	0.798385
C57	C	0.346619	-0.303071	0.303305
C58	C	0.846619	0.196929	0.803305
N59	N	0.379080	-0.247985	0.308228
N60	N	0.879080	0.252015	0.808228
N61	N	0.441537	-0.247999	0.308223
N62	N	0.941537	0.252001	0.808223
C63	C	0.473409	-0.303095	0.303293
C64	C	0.973409	0.196905	0.803293
C65	C	0.242525	-0.262850	0.343643
C66	C	0.742525	0.237150	0.843643
C67	C	0.176782	-0.262832	0.343641
C68	C	0.676782	0.237168	0.843641
C69	C	0.176668	-0.343233	0.262980
C70	C	0.676668	0.156767	0.762980
C71	C	0.242410	-0.343245	0.262978
C72	C	0.742410	0.156755	0.762978
C73	C	0.275335	-0.303055	0.303313
C74	C	0.775335	0.196945	0.803313
C75	C	0.950049	-1.035982	0.343637
C76	C	1.450049	-0.535982	0.843637
C77	C	0.950031	-0.970239	0.343627
C78	C	1.450031	-0.470239	0.843627
C79	C	0.909782	-0.937427	0.303329
C80	C	1.409782	-0.437427	0.803329
C81	C	0.869561	-0.970363	0.263027
C82	C	1.369561	-0.470363	0.763027
C83	C	0.869585	-1.036104	0.263034
C84	C	1.369585	-0.536104	0.763034
N85	N	0.854645	-0.834271	0.298439
N86	N	1.354645	-0.334271	0.798439
N87	N	0.854624	-0.771819	0.298436
N88	N	1.354624	-0.271819	0.798436
C89	C	0.909708	-0.739352	0.303306
C90	C	1.409708	-0.239352	0.803306
N91	N	0.964816	-0.771696	0.308191
N92	N	1.464816	-0.271696	0.808191
N93	N	0.964836	-0.834153	0.308197
N94	N	1.464836	-0.334153	0.808197
C95	C	0.909752	-0.866142	0.303317
C96	C	1.409752	-0.366142	0.803317
C97	C	0.949910	-0.635139	0.343591
C98	C	1.449910	-0.135139	0.843591
C99	C	0.949893	-0.569395	0.343577
C100	C	1.449893	-0.069395	0.843577
C101	C	0.869417	-0.569520	0.262981
C102	C	1.369417	-0.069520	0.762981
C103	C	0.869440	-0.635262	0.262992
C104	C	1.369440	-0.135262	0.762992
C105	C	0.909686	-0.668068	0.303300
C106	C	1.409686	-0.168068	0.803300
C107	C	1.073887	-0.303038	0.303308
C108	C	1.573887	0.196962	0.803308
C109	C	1.143855	-0.303025	0.303316
C110	C	1.643855	0.196975	0.803316
C111	C	0.909749	-0.303054	0.467480
C112	C	1.409749	0.196946	0.967480
C113	C	0.909771	-0.303049	0.537448
C114	C	1.409771	0.196951	1.037448
C115	C	0.909790	-0.138877	0.303327
C116	C	1.409790	0.361123	0.803327
C117	C	0.909830	-0.068909	0.303343
C118	C	1.409830	0.431091	0.803343
C119	C	0.909680	-0.303036	0.139738
C120	C	1.409680	0.196964	0.639738
C121	C	0.909780	-0.302864	0.069771
C122	C	1.409780	0.197136	0.569771
C123	C	0.950054	-0.262778	0.570330
C124	C	1.450054	0.237222	1.070330
C125	C	0.950053	-0.262751	0.636072
C126	C	1.450053	0.237249	1.136072
C127	C	0.909776	-0.303005	0.668931
C128	C	1.409776	0.196995	1.168931
C129	C	0.869485	-0.343279	0.636042
C130	C	1.369485	0.156721	1.136042
C131	C	0.869483	-0.343301	0.570301
C132	C	1.369483	0.156699	1.070301
N133	N	0.904921	-0.358075	0.772150
N134	N	1.404921	0.141925	1.272150
N135	N	0.904927	-0.358052	0.834602
N136	N	1.404927	0.141948	1.334602
C137	C	0.909780	-0.302942	0.867006
C138	C	1.409780	0.197058	1.367006
N139	N	0.914638	-0.247853	0.834599
N140	N	1.414638	0.252147	1.334599
N141	N	0.914636	-0.247876	0.772142
N142	N	1.414636	0.252124	1.272142
C143	C	0.909774	-0.302986	0.740216
C144	C	1.409774	0.197014	1.240216
C145	C	0.950064	-0.262638	0.971173
C146	C	1.450064	0.237362	1.471173
C147	C	0.950058	-0.262610	1.036916
C148	C	1.450058	0.237390	1.536916
C149	C	0.869494	-0.343143	1.036885
C150	C	1.369494	0.156857	1.536885
C151	C	0.869496	-0.343166	0.971142
C152	C	1.369496	0.156834	1.471142
C153	C	0.909784	-0.302914	0.938290
C154	C	1.409784	0.197086	1.438290
H155	H	0.670172	-0.230200	0.376456
H156	H	1.170172	0.269800	0.876456
H157	H	0.550693	-0.376030	0.230118
H158	H	1.050693	0.123970	0.730118
C159	C	0.278199	-0.219251	0.387530
C160	C	0.778199	0.280749	0.887530
C161	C	0.262212	-0.233035	0.449789
C162	C	0.762212	0.266965	0.949789
C163	C	0.295054	-0.192880	0.490235
C164	C	0.795054	0.307120	0.990235
H165	H	0.322061	-0.224979	0.381839
H166	H	0.822061	0.275021	0.881839
H167	H	0.267451	-0.176928	0.378431
H168	H	0.767451	0.323072	0.878431
H169	H	0.272965	-0.275347	0.458884
H170	H	0.772965	0.224653	0.958884
H171	H	0.218356	-0.227303	0.455500
H172	H	0.718356	0.272697	0.955500
H173	H	0.284306	-0.150558	0.481136
H174	H	0.784306	0.349442	0.981136
H175	H	0.338915	-0.198612	0.484537
H176	H	0.838915	0.301388	0.984537
H177	H	0.284207	-0.202223	0.532481
H178	H	0.784207	0.297777	1.032481
C179	C	0.993831	-0.219132	0.671861
C180	C	1.493831	0.280868	1.171861
C181	C	1.034144	-0.254763	0.709629
C182	C	1.534144	0.245237	1.209629
C183	C	1.074476	-0.214604	0.742610
C184	C	1.574476	0.285396	1.242610
H185	H	1.017884	-0.195149	0.642951
H186	H	1.517884	0.304851	1.142951
H187	H	0.969790	-0.191708	0.697536
H188	H	1.469790	0.308292	1.197536
H189	H	1.058183	-0.282176	0.683957
H190	H	1.558183	0.217824	1.183957
H191	H	1.010108	-0.278745	0.738551
H192	H	1.510108	0.221255	1.238551
H193	H	1.050435	-0.187180	0.768285
H194	H	1.550435	0.312820	1.268285
H195	H	1.098525	-0.190623	0.713696
H196	H	1.598525	0.309377	1.213696
H197	H	1.101829	-0.238774	0.768244
H198	H	1.601829	0.261226	1.268244
C199	C	0.825936	-0.934775	0.219173
C200	C	1.325936	-0.434775	0.719173
C201	C	0.839693	-0.950761	0.156903
C202	C	1.339693	-0.450761	0.656903
C203	C	0.799525	-0.917986	0.116484
C204	C	1.299525	-0.417986	0.616484
H205	H	0.783618	-0.945569	0.228263
H206	H	1.283618	-0.445569	0.728263
H207	H	0.831684	-0.890899	0.224898
H208	H	1.331684	-0.390899	0.724898
H209	H	0.833939	-0.994627	0.151181
H210	H	1.333939	-0.494627	0.651181
H211	H	0.882003	-0.939966	0.147793
H212	H	1.382003	-0.439966	0.647793
H213	H	0.805273	-0.874110	0.122209
H214	H	1.305273	-0.374110	0.622209
H215	H	0.757209	-0.928782	0.125579
H216	H	1.257209	-0.428782	0.625579
H217	H	0.808857	-0.928824	0.074229
H218	H	1.308857	-0.428824	0.574229
C219	C	0.825978	-1.071971	0.219314
C220	C	1.325978	-0.571971	0.719314
C221	C	0.834621	-1.136567	0.227938
C222	C	1.334621	-0.636567	0.727938
C223	C	0.794466	-1.169629	0.187670
C224	C	1.294466	-0.669629	0.687670
H225	H	0.783650	-1.061314	0.228446
H226	H	1.283650	-0.561314	0.728446
H227	H	0.835214	-1.061245	0.177011
H228	H	1.335214	-0.561245	0.677011
H229	H	0.825381	-1.147289	0.270231
H230	H	1.325381	-0.647289	0.770231
H231	H	0.876942	-1.147243	0.218802
H232	H	1.376942	-0.647243	0.718802
H233	H	0.803702	-1.158902	0.145368
H234	H	1.303702	-0.658902	0.645368
H235	H	0.752140	-1.158966	0.196806
H236	H	1.252140	-0.658966	0.696806
H237	H	0.800329	-1.213460	0.193512
H238	H	1.300329	-0.713460	0.693512
H239	H	0.836689	-0.376052	0.662800
H240	H	1.336689	0.123948	1.162800
C241	C	0.825726	-0.387100	0.534711
C242	C	1.325726	0.112900	1.034711
C243	C	0.790461	-0.422359	0.577554
C244	C	1.290461	0.077641	1.077554
C245	C	0.750154	-0.462722	0.544791
C246	C	1.250154	0.037278	1.044791
H247	H	0.798257	-0.363106	0.509047
H248	H	1.298257	0.136894	1.009047
H249	H	0.849780	-0.414566	0.509092
H250	H	1.349780	0.085434	1.009092
H251	H	0.766409	-0.394897	0.603162
H252	H	1.266409	0.105103	1.103162
H253	H	0.817914	-0.446366	0.603219
H254	H	1.317914	0.053634	1.103219
H255	H	0.774208	-0.490187	0.519172
H256	H	1.274208	0.009813	1.019172
H257	H	0.722689	-0.438723	0.519129
H258	H	1.222689	0.061277	1.019129
H259	H	0.726226	-0.486654	0.573855
H260	H	1.226226	0.013346	1.073855
C261	C	0.141079	-0.219287	0.387471
C262	C	0.641079	0.280713	0.887471
C263	C	0.103310	-0.254985	0.427742
C264	C	0.603310	0.245015	0.927742
C265	C	0.070406	-0.214892	0.468123
C266	C	0.570406	0.285108	0.968123
H267	H	0.170035	-0.195342	0.411551
H268	H	0.670035	0.304658	0.911551
H269	H	0.115412	-0.191825	0.363462
H270	H	0.615412	0.308175	0.863462
H271	H	0.128976	-0.282436	0.451749
H272	H	0.628976	0.217564	0.951749
H273	H	0.074343	-0.278929	0.403680
H274	H	0.574343	0.221071	0.903680
H275	H	0.044739	-0.187430	0.444114
H276	H	0.544739	0.312570	0.944114
H277	H	0.099366	-0.190949	0.492199
H278	H	0.599366	0.309051	0.992199
H279	H	0.044772	-0.239107	0.495448
H280	H	0.544772	0.260893	0.995448
H281	H	0.982860	-0.229813	1.063687
H282	H	1.482860	0.270187	1.563687
C283	C	0.678762	-0.387036	0.219132
C284	C	1.178762	0.112964	0.719132
C285	C	0.635855	-0.422243	0.183826
C286	C	1.135855	0.077757	0.683826
C287	C	0.668546	-0.462532	0.143467
C288	C	1.168546	0.037468	0.643467
H289	H	0.704422	-0.362991	0.191691
H290	H	1.204422	0.137009	0.691691
H291	H	0.704379	-0.414538	0.243150
H292	H	1.204379	0.085462	0.743150
H293	H	0.610250	-0.394745	0.159811
H294	H	1.110250	0.105255	0.659811
H295	H	0.610195	-0.446301	0.211251
H296	H	1.110195	0.053699	0.711251
H297	H	0.694162	-0.490034	0.167484
H298	H	1.194162	0.009966	0.667484
H299	H	0.694204	-0.438482	0.116030
H300	H	1.194204	0.061518	0.616030
H301	H	0.639438	-0.486429	0.119511
H302	H	1.139438	0.013571	0.619511
H303	H	0.550908	-0.230172	0.376458
H304	H	1.050908	0.269828	0.876458
C305	C	0.993667	-0.670648	0.387382
C306	C	1.493667	-0.170648	0.887382
C307	C	1.028898	-0.627736	0.422657
C308	C	1.528898	-0.127736	0.922657
C309	C	1.069214	-0.660422	0.463002
C310	C	1.569214	-0.160422	0.963002
H311	H	0.969641	-0.696304	0.414843
H312	H	1.469641	-0.196304	0.914843
H313	H	1.021153	-0.696267	0.363355
H314	H	1.521153	-0.196267	0.863355
H315	H	1.001416	-0.602128	0.446683
H316	H	1.501416	-0.102128	0.946683
H317	H	1.052936	-0.602079	0.395213
H318	H	1.552936	-0.102079	0.895213
H319	H	1.096700	-0.686041	0.438975
H320	H	1.596700	-0.186041	0.938975
H321	H	1.045184	-0.686077	0.490459
H322	H	1.545184	-0.186077	0.990459
H323	H	1.093128	-0.631311	0.486937
H324	H	1.593128	-0.131311	0.986937
C325	C	0.140808	-0.386850	0.219268
C326	C	0.640808	0.113150	0.719268
C327	C	0.076212	-0.378248	0.227915
C328	C	0.576212	0.121752	0.727915
C329	C	0.043155	-0.418423	0.187663
C330	C	0.543155	0.081577	0.687663
H331	H	0.151493	-0.377619	0.176962
H332	H	0.651493	0.122381	0.676962
H333	H	0.151512	-0.429174	0.228414
H334	H	0.651512	0.070826	0.728414
H335	H	0.065513	-0.335933	0.218766
H336	H	0.565513	0.164067	0.718766
H337	H	0.065508	-0.387483	0.270213
H338	H	0.565508	0.112517	0.770213
H339	H	0.053859	-0.460747	0.196808
H340	H	0.553859	0.039253	0.696808
H341	H	0.053846	-0.409189	0.145360
H342	H	0.553846	0.090811	0.645360
H343	H	-0.000677	-0.412596	0.193529
H344	H	0.499323	0.087404	0.693529
H345	H	0.836687	-0.662073	0.230183
H346	H	1.336687	-0.162073	0.730183
H347	H	0.836649	-0.542805	0.230167
H348	H	1.336649	-0.042805	0.730167
H349	H	0.836693	-0.375913	1.063638
H350	H	1.336693	0.124087	1.563638
C351	C	0.993461	-0.533563	0.387364
C352	C	1.493461	-0.033563	0.887364
C353	C	0.957781	-0.495829	0.427658
C354	C	1.457781	0.004171	0.927658
C355	C	0.997894	-0.462805	0.467998
C356	C	1.497894	0.037195	0.967998
H357	H	1.017444	-0.562447	0.411430
H358	H	1.517444	-0.062447	0.911430
H359	H	1.020886	-0.507862	0.363327
H360	H	1.520886	-0.007862	0.863327
H361	H	0.930366	-0.521528	0.451692
H362	H	1.430366	-0.021528	0.951692
H363	H	0.933799	-0.466933	0.403609
H364	H	1.433799	0.033067	0.903609
H365	H	1.025320	-0.437105	0.443962
H366	H	1.525320	0.062895	0.943962
H367	H	1.021876	-0.491694	0.492060
H368	H	1.521876	0.008306	0.992060
H369	H	0.973692	-0.437195	0.495338
H370	H	1.473692	0.062805	0.995338
C371	C	0.277921	-0.386965	0.219169
C372	C	0.777921	0.113035	0.719169
C373	C	0.235013	-0.422174	0.183865
C374	C	0.735013	0.077826	0.683865
C375	C	0.267702	-0.462461	0.143504
C376	C	0.767702	0.037539	0.643504
H377	H	0.303578	-0.362920	0.191726
H378	H	0.803578	0.137080	0.691726
H379	H	0.303540	-0.414467	0.243185
H380	H	0.803540	0.085533	0.743185
H381	H	0.209405	-0.394676	0.159851
H382	H	0.709405	0.105324	0.659851
H383	H	0.209355	-0.446232	0.211292
H384	H	0.709355	0.053768	0.711292
H385	H	0.293321	-0.489963	0.167520
H386	H	0.793321	0.010037	0.667520
H387	H	0.293358	-0.438411	0.116065
H388	H	0.793358	0.061589	0.616065
H389	H	0.238594	-0.486359	0.119550
H390	H	0.738594	0.013641	0.619550
C391	C	0.993710	-0.218958	0.534706
C392	C	1.493710	0.281042	1.034706
C393	C	0.980019	-0.156678	0.550693
C394	C	1.480019	0.343322	1.050693
C395	C	1.020215	-0.116288	0.517886
C396	C	1.520215	0.383712	1.017886
H397	H	1.036023	-0.228074	0.545472
H398	H	1.536023	0.271926	1.045472
H399	H	0.987941	-0.224685	0.490834
H400	H	1.487941	0.275315	0.990834
H401	H	0.985793	-0.150953	0.594555
H402	H	1.485793	0.349047	1.094555
H403	H	0.937713	-0.147542	0.539925
H404	H	1.437713	0.352458	1.039925
H405	H	1.014446	-0.122015	0.474014
H406	H	1.514446	0.377985	0.974014
H407	H	1.062525	-0.125409	0.528654
H408	H	1.562525	0.374591	1.028654
H409	H	1.010927	-0.074026	0.528724
H410	H	1.510927	0.425974	1.028724
H411	H	0.982865	-0.229859	0.944423
H412	H	1.482865	0.270141	1.444423
C413	C	0.825739	-0.386962	0.935552
C414	C	1.325739	0.113038	1.435552
C415	C	0.790475	-0.422221	0.978397
C416	C	1.290475	0.077779	1.478397
C417	C	0.750161	-0.462577	0.945634
C418	C	1.250161	0.037423	1.445634
H419	H	0.798269	-0.362964	0.909893
H420	H	1.298269	0.137036	1.409893
H421	H	0.849787	-0.414428	0.909929
H422	H	1.349787	0.085572	1.409929
H423	H	0.766428	-0.394758	1.004009
H424	H	1.266428	0.105242	1.504009
H425	H	0.817928	-0.446232	1.004057
H426	H	1.317928	0.053768	1.504057
H427	H	0.774209	-0.490044	0.920012
H428	H	1.274209	0.009956	1.420012
H429	H	0.722695	-0.438574	0.919977
H430	H	1.222695	0.061426	1.419977
H431	H	0.726234	-0.486509	0.974699
H432	H	1.226234	0.013491	1.474699
H433	H	0.982825	-1.062688	0.376454
H434	H	1.482825	-0.562688	0.876454
H435	H	0.982783	-0.943424	0.376440
H436	H	1.482783	-0.443424	0.876440
