data_functionalizedCrystal
_audit_creation_method	'MofGen! by Chris Wilmer'
_symmetry_space_group_name_H-M	'P1'
_symmetry_Int_Tables_number	1
_symmetry_cell_setting	triclinic
loop_
_symmetry_equiv_pos_as_xyz
  x,y,z
_cell_length_a	13.032831
_cell_length_b	13.032721
_cell_length_c	13.032268
_cell_angle_alpha	76.710373
_cell_angle_beta	89.113023
_cell_angle_gamma	90.902885
loop_
_atom_site_label
_atom_site_type_symbol
_atom_site_fract_x
_atom_site_fract_y
_atom_site_fract_z
Zn1	Zn	1.399428	-0.702884	0.857492
Zn2	Zn	1.732762	-0.369551	1.190825
Zn3	Zn	2.066095	-0.036217	1.524159
Zn4	Zn	1.399318	-0.857952	0.702424
Zn5	Zn	1.732652	-0.524619	1.035757
Zn6	Zn	2.065985	-0.191286	1.369090
Zn7	Zn	1.255414	-0.659406	0.658991
Zn8	Zn	1.588747	-0.326072	0.992324
Zn9	Zn	1.922080	0.007261	1.325658
Zn10	Zn	1.206359	-0.852325	0.851935
Zn11	Zn	1.539693	-0.518992	1.185268
Zn12	Zn	1.873026	-0.185658	1.518602
O13	O	1.315130	-0.768142	0.767710
O14	O	1.648463	-0.434808	1.101044
O15	O	1.981797	-0.101475	1.434377
O16	O	1.540438	-0.744005	0.857424
O17	O	1.873772	-0.410672	1.190757
O18	O	2.207105	-0.077338	1.524091
O19	O	1.400712	-0.815774	0.551018
O20	O	1.734046	-0.482441	0.884351
O21	O	2.067379	-0.149107	1.217685
O22	O	1.295093	-0.519539	0.669471
O23	O	1.628426	-0.186206	1.002805
O24	O	1.961760	0.147128	1.336138
O25	O	1.540357	-0.857933	0.743496
O26	O	1.873691	-0.524600	1.076829
O27	O	2.207024	-0.191266	1.410163
O28	O	1.400900	-0.551483	0.815309
O29	O	1.734233	-0.218149	1.148642
O30	O	2.067567	0.115184	1.481976
O31	O	1.294986	-0.669903	0.519108
O32	O	1.628320	-0.336569	0.852441
O33	O	1.961653	-0.003236	1.185775
O34	O	1.107882	-0.664446	0.664083
O35	O	1.441215	-0.331113	0.997417
O36	O	1.774549	0.002221	1.330750
O37	O	1.211487	-0.848342	0.998317
O38	O	1.544820	-0.515009	1.331650
O39	O	1.878154	-0.181676	1.664983
O40	O	1.071842	-0.806183	0.805839
O41	O	1.405175	-0.472850	1.139172
O42	O	1.738509	-0.139516	1.472505
O43	O	1.353334	-0.738549	1.002399
O44	O	1.686667	-0.405215	1.335732
O45	O	2.020001	-0.071882	1.669066
O46	O	1.353146	-1.002840	0.738108
O47	O	1.686480	-0.669507	1.071441
O48	O	2.019813	-0.336173	1.404775
O49	O	1.211380	-0.998706	0.847953
O50	O	1.544714	-0.665372	1.181287
O51	O	1.878047	-0.332039	1.514620
C52	C	1.053296	-0.729987	0.729646
C53	C	1.386629	-0.396653	1.062979
C54	C	1.719962	-0.063320	1.396312
C55	C	0.941275	-0.713692	0.713389
C56	C	1.274608	-0.380358	1.046722
C57	C	1.607941	-0.047025	1.380055
C58	C	0.873527	-0.776647	0.776195
C59	C	1.206860	-0.443313	1.109528
C60	C	1.540194	-0.109980	1.442862
C61	C	0.757747	-0.759806	0.759394
C62	C	1.091081	-0.426473	1.092728
C63	C	1.424414	-0.093140	1.426061
C64	C	1.276952	-1.038540	0.797167
C65	C	1.610286	-0.705207	1.130501
C66	C	1.943619	-0.371874	1.463834
C67	C	1.260707	-1.154235	0.809817
C68	C	1.594041	-0.820902	1.143151
C69	C	1.927374	-0.487569	1.476484
C70	C	1.323655	-1.207840	0.761163
C71	C	1.656989	-0.874507	1.094496
C72	C	1.990322	-0.541173	1.427830
C73	C	1.306867	-1.327417	0.774236
C74	C	1.640200	-0.994083	1.107569
C75	C	1.973533	-0.660750	1.440903
C76	C	1.577986	-0.806447	0.805925
C77	C	1.911320	-0.473113	1.139258
C78	C	2.244653	-0.139780	1.472591
C79	C	1.690000	-0.822770	0.822209
C80	C	2.023333	-0.489437	1.155543
C81	C	2.356667	-0.156103	1.488876
C82	C	1.276951	-0.797668	1.039178
C83	C	1.610284	-0.464334	1.372511
C84	C	1.943618	-0.131001	1.705844
C85	C	1.260681	-0.810250	1.154861
C86	C	1.594015	-0.476916	1.488194
C87	C	1.927348	-0.143583	1.821528
C88	C	1.353481	-0.496694	0.738165
C89	C	1.686814	-0.163360	1.071499
C90	C	2.020147	0.169973	1.404832
C91	C	1.369823	-0.381019	0.725575
C92	C	1.703157	-0.047685	1.058908
C93	C	2.036490	0.285648	1.392242
C94	C	1.353229	-0.738664	0.497299
C95	C	1.686562	-0.405331	0.830633
C96	C	2.019896	-0.071998	1.163966
C97	C	1.369735	-0.725817	0.381613
C98	C	1.703068	-0.392484	0.714947
C99	C	2.036402	-0.059151	1.048280
C100	C	1.323611	-0.761535	1.208456
C101	C	1.656944	-0.428202	1.541789
C102	C	1.990277	-0.094869	1.875123
C103	C	1.306797	-0.774538	1.328021
C104	C	1.640130	-0.441205	1.661354
C105	C	1.973463	-0.107872	1.994687
H106	H	0.717707	-0.889135	0.888428
H107	H	1.051041	-0.555802	1.221762
H108	H	1.384374	-0.222468	1.555095
H109	H	0.913561	-0.647322	0.647184
H110	H	1.246894	-0.313989	0.980517
H111	H	1.580228	0.019344	1.313850
H112	H	1.436153	-1.338392	0.674242
H113	H	1.769486	-1.005058	1.007576
H114	H	2.102819	-0.671725	1.340909
Br115	Br	1.196325	-1.398462	0.859812
Br116	Br	1.529658	-1.065129	1.193146
Br117	Br	1.862991	-0.731795	1.526479
H118	H	1.389932	-0.710199	1.165823
H119	H	1.723265	-0.376865	1.499156
H120	H	2.056598	-0.043532	1.832489
Br121	Br	1.480301	-0.640267	1.310578
Br122	Br	1.813635	-0.306934	1.643912
Br123	Br	2.146968	0.026399	1.977245
Br124	Br	0.711573	-0.649176	0.649040
Br125	Br	1.044907	-0.315842	0.982374
Br126	Br	1.378240	0.017491	1.315707
H127	H	1.240463	-0.825867	1.370647
H128	H	1.573796	-0.492533	1.703981
H129	H	1.907129	-0.159200	2.037314
H130	H	1.389980	-1.165210	0.709834
H131	H	1.723314	-0.831877	1.043167
H132	H	2.056647	-0.498543	1.376500
Br133	Br	1.150170	-1.225285	0.895390
Br134	Br	1.483503	-0.891951	1.228723
Br135	Br	1.816837	-0.558618	1.562057
H136	H	1.194352	-0.861574	1.197492
H137	H	1.527685	-0.528241	1.530825
H138	H	1.861018	-0.194908	1.864158
H139	H	0.901241	-0.843009	0.842407
H140	H	1.234574	-0.509675	1.175740
H141	H	1.567908	-0.176342	1.509074
