data_functionalizedCrystal
_audit_creation_method	'MofGen! by Chris Wilmer'
_symmetry_space_group_name_H-M	'P1'
_symmetry_Int_Tables_number	1
_symmetry_cell_setting	triclinic
loop_
_symmetry_equiv_pos_as_xyz
  x,y,z
_cell_length_a	14.971486
_cell_length_b	17.699083
_cell_length_c	14.048226
_cell_angle_alpha	89.992674
_cell_angle_beta	89.998499
_cell_angle_gamma	83.448572
loop_
_atom_site_label
_atom_site_type_symbol
_atom_site_fract_x
_atom_site_fract_y
_atom_site_fract_z
O1	O	1.186608	0.098633	-0.079053
O2	O	1.519941	0.431967	0.254280
O3	O	1.853275	0.765300	0.587614
O4	O	0.926167	0.110445	-0.079079
O5	O	1.259501	0.443778	0.254254
O6	O	1.592834	0.777111	0.587587
O7	O	1.063746	-0.005632	-0.079057
O8	O	1.397079	0.327701	0.254276
O9	O	1.730412	0.661035	0.587610
O10	O	1.049030	0.214710	-0.079075
O11	O	1.382363	0.548043	0.254258
O12	O	1.715696	0.881377	0.587591
O13	O	1.063729	-0.005639	0.079264
O14	O	1.397063	0.327694	0.412598
O15	O	1.730396	0.661028	0.745931
O16	O	0.926151	0.110438	0.079242
O17	O	1.259484	0.443771	0.412575
O18	O	1.592817	0.777104	0.745909
O19	O	1.186591	0.098626	0.079268
O20	O	1.519925	0.431960	0.412602
O21	O	1.853258	0.765293	0.745935
Zn22	Zn	1.056368	0.104531	0.104392
Zn23	Zn	1.389702	0.437864	0.437725
Zn24	Zn	1.723035	0.771198	0.771059
Zn25	Zn	1.056390	0.104540	-0.104203
Zn26	Zn	1.389724	0.437873	0.229130
Zn27	Zn	1.723057	0.771207	0.562464
O28	O	1.049013	0.214703	0.079246
O29	O	1.382346	0.548037	0.412579
O30	O	1.715680	0.881370	0.745913
C31	C	0.892836	0.109913	0.000078
C32	C	1.226169	0.443246	0.333411
C33	C	1.559503	0.776580	0.666745
C34	C	0.793544	0.108330	0.000068
C35	C	1.126878	0.441663	0.333402
C36	C	1.460211	0.774997	0.666735
C37	C	0.736085	0.176522	0.000064
C38	C	1.069418	0.509855	0.333397
C39	C	1.402751	0.843189	0.666731
C40	C	0.642790	0.175030	0.000078
C41	C	0.976124	0.508364	0.333412
C42	C	1.309457	0.841697	0.666745
C43	C	0.606958	0.105346	0.000090
C44	C	0.940291	0.438679	0.333424
C45	C	1.273624	0.772012	0.666757
C46	C	0.664425	0.037148	0.000097
C47	C	0.997758	0.370482	0.333431
C48	C	1.331091	0.703815	0.666764
C49	C	0.757717	0.038641	0.000090
C50	C	1.091051	0.371974	0.333423
C51	C	1.424384	0.705308	0.666757
C52	C	0.469973	0.034042	0.000111
C53	C	0.803306	0.367375	0.333444
C54	C	1.136640	0.700709	0.666777
C55	C	0.376674	0.032549	0.000117
C56	C	0.710007	0.365882	0.333450
C57	C	1.043341	0.699216	0.666783
C58	C	0.355046	0.170431	0.000099
C59	C	0.688379	0.503765	0.333433
C60	C	1.021713	0.837098	0.666766
C61	C	0.448339	0.171924	0.000092
C62	C	0.781672	0.505257	0.333425
C63	C	1.115005	0.838591	0.666758
C64	C	0.505799	0.103726	0.000097
C65	C	0.839133	0.437060	0.333431
C66	C	1.172466	0.770393	0.666764
C67	C	1.063210	-0.033834	0.000104
C68	C	1.396543	0.299499	0.333437
C69	C	1.729877	0.632833	0.666770
C70	C	1.061628	-0.117856	0.000104
C71	C	1.394962	0.215477	0.333437
C72	C	1.728295	0.548811	0.666771
C73	C	1.142384	-0.166278	0.000113
C74	C	1.475717	0.167055	0.333447
C75	C	1.809051	0.500389	0.666780
C76	C	1.140892	-0.245225	0.000105
C77	C	1.474225	0.088108	0.333438
C78	C	1.807559	0.421442	0.666771
C79	C	1.058644	-0.275748	0.000094
C80	C	1.391977	0.057585	0.333427
C81	C	1.725310	0.390918	0.666760
C82	C	0.977882	-0.227320	0.000081
C83	C	1.311215	0.106013	0.333415
C84	C	1.644549	0.439347	0.666748
C85	C	0.979375	-0.148374	0.000083
C86	C	1.312708	0.184959	0.333416
C87	C	1.646041	0.518292	0.666750
C88	C	0.971860	-0.545698	0.000073
C89	C	1.305194	-0.212364	0.333406
C90	C	1.638527	0.120969	0.666740
C91	C	0.970374	-0.624649	0.000074
C92	C	1.303707	-0.291316	0.333407
C93	C	1.637041	0.042017	0.666741
C94	C	1.133378	-0.642548	0.000095
C95	C	1.466711	-0.309215	0.333428
C96	C	1.800045	0.024118	0.666761
C97	C	1.134871	-0.563603	0.000096
C98	C	1.468204	-0.230270	0.333430
C99	C	1.801537	0.103064	0.666763
C100	C	1.054109	-0.515181	0.000079
C101	C	1.387443	-0.181848	0.333412
C102	C	1.720776	0.151485	0.666746
C103	C	1.055728	-0.429578	0.000087
C104	C	1.389061	-0.096245	0.333420
C105	C	1.722394	0.237088	0.666753
C106	C	1.057024	-0.361350	0.000093
C107	C	1.390358	-0.028017	0.333426
C108	C	1.723691	0.305317	0.666760
C109	C	1.219923	0.099158	0.000109
C110	C	1.553256	0.432491	0.333442
C111	C	1.886589	0.765825	0.666775
C112	C	1.319214	0.100741	0.000112
C113	C	1.652548	0.434074	0.333446
C114	C	1.985881	0.767408	0.666779
C115	C	1.049549	0.242905	0.000083
C116	C	1.382882	0.576238	0.333417
C117	C	1.716215	0.909572	0.666750
C118	C	1.051131	0.326927	0.000077
C119	C	1.384464	0.660260	0.333410
C120	C	1.717797	0.993594	0.666743
N121	N	1.056360	0.104524	0.246753
N122	N	1.389694	0.437858	0.580086
N123	N	1.723027	0.771191	0.913419
N124	N	1.056406	0.104541	-0.246564
N125	N	1.389739	0.437874	0.086770
N126	N	1.723072	0.771207	0.420103
C127	C	1.117299	0.053147	0.296581
C128	C	1.450632	0.386480	0.629914
C129	C	1.783966	0.719813	0.963247
C130	C	1.117305	0.053146	0.396238
C131	C	1.450638	0.386480	0.729572
C132	C	1.783972	0.719813	1.062905
C133	C	1.056376	0.104528	0.446066
C134	C	1.389709	0.437861	0.779400
C135	C	1.723043	0.771194	1.112733
C136	C	0.995431	0.155908	0.396231
C137	C	1.328764	0.489241	0.729565
C138	C	1.662097	0.822574	1.062898
C139	C	0.995421	0.155904	0.296576
C140	C	1.328754	0.489237	0.629909
C141	C	1.662088	0.822571	0.963242
C142	C	0.995456	0.155913	0.603946
C143	C	1.328790	0.489247	0.937279
C144	C	1.662123	0.822580	1.270612
C145	C	0.995467	0.155918	0.703608
C146	C	1.328800	0.489252	1.036942
C147	C	1.662134	0.822585	1.370275
C148	C	1.117340	0.053156	0.703608
C149	C	1.450674	0.386489	1.036942
C150	C	1.784007	0.719822	1.370275
C151	C	1.117331	0.053152	0.603953
C152	C	1.450664	0.386485	0.937286
C153	C	1.783997	0.719819	1.270619
C154	C	1.056386	0.104533	0.554125
C155	C	1.389720	0.437866	0.887458
C156	C	1.723053	0.771200	1.220791
H157	H	0.516756	-0.021492	0.000117
H158	H	0.850089	0.311841	0.333450
H159	H	1.183422	0.645175	0.666783
H160	H	1.209360	-0.141433	0.000128
H161	H	1.542693	0.191901	0.333462
H162	H	1.876027	0.525234	0.666795
H163	H	0.804501	-0.016888	0.000093
H164	H	1.137834	0.316445	0.333426
H165	H	1.471167	0.649779	0.666760
Cl166	Cl	0.619378	-0.050456	0.000118
Cl167	Cl	0.952711	0.282877	0.333452
Cl168	Cl	1.286044	0.616211	0.666785
H169	H	1.206652	-0.284648	0.000115
H170	H	1.539985	0.048686	0.333448
H171	H	1.873318	0.382019	0.666781
H172	H	0.903394	-0.649498	0.000067
H173	H	1.236727	-0.316164	0.333400
H174	H	1.570060	0.017169	0.666733
Cl175	Cl	1.238272	-0.525236	0.000107
Cl176	Cl	1.571606	-0.191902	0.333441
Cl177	Cl	1.904939	0.141431	0.666774
Cl178	Cl	0.918805	0.220493	0.233936
Cl179	Cl	1.252139	0.553827	0.567269
Cl180	Cl	1.585472	0.887160	0.900602
H181	H	1.199138	-0.681983	0.000104
H182	H	1.532471	-0.348650	0.333437
H183	H	1.865804	-0.015316	0.666771
H184	H	0.945816	0.197741	0.436807
H185	H	1.279150	0.531074	0.770140
H186	H	1.612483	0.864408	1.103474
H187	H	0.906099	-0.506282	0.000059
H188	H	1.239433	-0.172949	0.333392
H189	H	1.572766	0.160385	0.666726
H190	H	0.910914	-0.252178	0.000066
H191	H	1.244247	0.081155	0.333400
H192	H	1.577580	0.414489	0.666733
Cl193	Cl	1.193933	-0.011437	0.541310
Cl194	Cl	1.527266	0.321896	0.874643
Cl195	Cl	1.860599	0.655229	1.207976
H196	H	0.945826	0.197751	0.563379
H197	H	1.279159	0.531084	0.896712
H198	H	1.612493	0.864418	1.230046
H199	H	1.166963	0.011319	0.744184
H200	H	1.500296	0.344653	1.077517
H201	H	1.833630	0.677986	1.410851
H202	H	0.913615	-0.108949	0.000075
H203	H	1.246948	0.224384	0.333408
H204	H	1.580282	0.557718	0.666742
H205	H	1.166925	0.011310	0.436808
H206	H	1.500259	0.344644	0.770141
H207	H	1.833592	0.677977	1.103474
Cl208	Cl	0.781122	0.264131	0.000043
Cl209	Cl	1.114455	0.597464	0.333376
Cl210	Cl	1.447788	0.930798	0.666710
H211	H	1.166918	0.011309	0.256017
H212	H	1.500251	0.344643	0.589351
H213	H	1.833585	0.677976	0.922684
Cl214	Cl	0.918864	0.220513	0.766242
Cl215	Cl	1.252198	0.553847	1.099575
Cl216	Cl	1.585531	0.887180	1.432908
Cl217	Cl	0.493384	0.259529	0.000067
Cl218	Cl	0.826718	0.592862	0.333400
Cl219	Cl	1.160051	0.926195	0.666733
Cl220	Cl	0.570559	0.260761	0.000067
Cl221	Cl	0.903892	0.594095	0.333400
Cl222	Cl	1.237225	0.927428	0.666734
H223	H	0.308257	0.225960	0.000099
H224	H	0.641590	0.559293	0.333433
H225	H	0.974923	0.892627	0.666766
H226	H	0.347502	-0.024194	0.000127
H227	H	0.680836	0.309139	0.333461
H228	H	1.014169	0.642472	0.666794
