data_functionalizedCrystal
_audit_creation_method	'MofGen! by Chris Wilmer'
_symmetry_space_group_name_H-M	'P1'
_symmetry_Int_Tables_number	1
_symmetry_cell_setting	triclinic
loop_
_symmetry_equiv_pos_as_xyz
  x,y,z
_cell_length_a	11.792241
_cell_length_b	11.792254
_cell_length_c	14.586319
_cell_angle_alpha	89.996031
_cell_angle_beta	90.000696
_cell_angle_gamma	84.196007
loop_
_atom_site_label
_atom_site_type_symbol
_atom_site_fract_x
_atom_site_fract_y
_atom_site_fract_z
O1	O	1.506914	0.155566	-0.076152
O2	O	1.756914	0.405566	0.173848
O3	O	2.006914	0.655566	0.423848
O4	O	2.256914	0.905566	0.673848
O5	O	1.176574	0.171598	-0.076173
O6	O	1.426574	0.421598	0.173827
O7	O	1.676574	0.671598	0.423827
O8	O	1.926574	0.921598	0.673827
O9	O	1.349753	-0.001588	-0.076155
O10	O	1.599753	0.248412	0.173845
O11	O	1.849753	0.498412	0.423845
O12	O	2.099753	0.748412	0.673845
O13	O	1.333735	0.328752	-0.076169
O14	O	1.583735	0.578752	0.173831
O15	O	1.833735	0.828752	0.423831
O16	O	2.083735	1.078752	0.673831
O17	O	1.349741	-0.001590	0.076325
O18	O	1.599741	0.248410	0.326325
O19	O	1.849741	0.498410	0.576325
O20	O	2.099741	0.748410	0.826325
O21	O	1.176562	0.171596	0.076308
O22	O	1.426562	0.421596	0.326308
O23	O	1.676562	0.671596	0.576308
O24	O	1.926562	0.921596	0.826308
O25	O	1.506902	0.155563	0.076329
O26	O	1.756902	0.405563	0.326329
O27	O	2.006902	0.655563	0.576329
O28	O	2.256902	0.905563	0.826329
Cu29	Cu	1.341731	0.163579	0.090241
Cu30	Cu	1.591731	0.413579	0.340241
Cu31	Cu	1.841731	0.663579	0.590241
Cu32	Cu	2.091731	0.913579	0.840241
Cu33	Cu	1.341745	0.163582	-0.090085
Cu34	Cu	1.591745	0.413582	0.159915
Cu35	Cu	1.841745	0.663582	0.409915
Cu36	Cu	2.091745	0.913582	0.659915
O37	O	1.333723	0.328749	0.076311
O38	O	1.583723	0.578749	0.326311
O39	O	1.833723	0.828749	0.576311
O40	O	2.083723	1.078749	0.826311
C41	C	1.134277	0.170590	0.000065
C42	C	1.384277	0.420590	0.250065
C43	C	1.634277	0.670590	0.500065
C44	C	1.884277	0.920590	0.750065
C45	C	1.008263	0.167576	0.000057
C46	C	1.258263	0.417576	0.250057
C47	C	1.508263	0.667576	0.500057
C48	C	1.758263	0.917576	0.750057
C49	C	1.348738	-0.043880	0.000085
C50	C	1.598738	0.206120	0.250085
C51	C	1.848738	0.456120	0.500085
C52	C	2.098738	0.706120	0.750085
C53	C	1.345718	-0.169893	0.000084
C54	C	1.595718	0.080107	0.250084
C55	C	1.845718	0.330107	0.500084
C56	C	2.095718	0.580107	0.750084
C57	C	0.777551	0.162033	0.000083
C58	C	1.027551	0.412033	0.250083
C59	C	1.277551	0.662033	0.500083
C60	C	1.527551	0.912033	0.750083
C61	C	0.905936	0.165112	0.000069
C62	C	1.155936	0.415112	0.250069
C63	C	1.405936	0.665112	0.500069
C64	C	1.655936	0.915112	0.750069
C65	C	1.343264	-0.272229	0.000080
C66	C	1.593264	-0.022229	0.250080
C67	C	1.843264	0.227771	0.500080
C68	C	2.093264	0.477771	0.750080
C69	C	1.340196	-0.400616	0.000072
C70	C	1.590196	-0.150616	0.250072
C71	C	1.840196	0.099384	0.500072
C72	C	2.090196	0.349384	0.750072
C73	C	1.549199	0.156571	0.000089
C74	C	1.799199	0.406571	0.250089
C75	C	2.049199	0.656571	0.500089
C76	C	2.299199	0.906571	0.750089
C77	C	1.675213	0.159586	0.000091
C78	C	1.925213	0.409586	0.250091
C79	C	2.175213	0.659586	0.500091
C80	C	2.425213	0.909586	0.750091
C81	C	1.334738	0.371041	0.000069
C82	C	1.584738	0.621041	0.250069
C83	C	1.834738	0.871041	0.500069
C84	C	2.084738	1.121041	0.750069
C85	C	1.337758	0.497054	0.000064
C86	C	1.587758	0.747054	0.250064
C87	C	1.837758	0.997054	0.500064
C88	C	2.087758	1.247054	0.750064
N89	N	1.341729	0.163576	0.217073
N90	N	1.591729	0.413576	0.467073
N91	N	1.841729	0.663576	0.717073
N92	N	2.091729	0.913576	0.967073
N93	N	1.341756	0.163576	-0.216917
N94	N	1.591756	0.413576	0.033083
N95	N	1.841756	0.663576	0.283083
N96	N	2.091756	0.913576	0.533083
C97	C	1.418439	0.086915	0.452087
C98	C	1.668439	0.336915	0.702087
C99	C	1.918439	0.586915	0.952087
C100	C	2.168439	0.836915	1.202087
C101	C	1.418442	0.086913	0.548068
C102	C	1.668442	0.336913	0.798068
C103	C	1.918442	0.586913	1.048068
C104	C	2.168442	0.836913	1.298068
C105	C	1.265038	0.240240	0.548062
C106	C	1.515038	0.490240	0.798062
C107	C	1.765038	0.740240	1.048062
C108	C	2.015038	0.990240	1.298062
C109	C	1.265031	0.240237	0.452083
C110	C	1.515031	0.490237	0.702083
C111	C	1.765031	0.740237	0.952083
C112	C	2.015031	0.990237	1.202083
C113	C	1.341737	0.163576	0.404098
C114	C	1.591737	0.413576	0.654098
C115	C	1.841737	0.663576	0.904098
C116	C	2.091737	0.913576	1.154098
C117	C	1.341748	0.163577	0.596058
C118	C	1.591748	0.413577	0.846058
C119	C	1.841748	0.663577	1.096058
C120	C	2.091748	0.913577	1.346058
C121	C	1.341751	0.163574	0.700125
C122	C	1.591751	0.413574	0.950125
C123	C	1.841751	0.663574	1.200125
C124	C	2.091751	0.913574	1.450125
C125	C	1.341733	0.163576	0.300024
C126	C	1.591733	0.413576	0.550024
C127	C	1.841733	0.663576	0.800024
C128	C	2.091733	0.913576	1.050024
H129	H	1.480898	0.024488	0.587139
H130	H	1.730898	0.274488	0.837139
H131	H	1.980898	0.524488	1.087139
H132	H	2.230898	0.774488	1.337139
H133	H	1.202587	0.302658	0.587141
H134	H	1.452587	0.552658	0.837141
H135	H	1.702587	0.802658	1.087141
H136	H	1.952587	1.052658	1.337141
C137	C	1.113400	0.391810	0.461710
C138	C	1.363400	0.641810	0.711710
C139	C	1.613400	0.891810	0.961710
C140	C	1.863400	1.141810	1.211710
C141	C	1.180717	0.324512	0.399325
C142	C	1.430717	0.574512	0.649325
C143	C	1.680717	0.824512	0.899325
C144	C	1.930717	1.074512	1.149325
H145	H	1.061355	0.443837	0.429137
H146	H	1.311355	0.693837	0.679137
H147	H	1.561355	0.943837	0.929137
H148	H	1.811355	1.193837	1.179137
H149	H	1.072286	0.344295	0.499149
H150	H	1.322286	0.594295	0.749149
H151	H	1.572286	0.844295	0.999149
H152	H	1.822286	1.094295	1.249149
H153	H	1.160910	0.432956	0.499141
H154	H	1.410910	0.682956	0.749141
H155	H	1.660910	0.932956	0.999141
H156	H	1.910910	1.182956	1.249141
H157	H	1.133207	0.283360	0.361898
H158	H	1.383207	0.533360	0.611898
H159	H	1.633207	0.783360	0.861898
H160	H	1.883207	1.033360	1.111898
H161	H	1.221834	0.372034	0.361870
H162	H	1.471834	0.622034	0.611870
H163	H	1.721834	0.872034	0.861870
H164	H	1.971834	1.122034	1.111870
H165	H	1.480896	0.024492	0.413020
H166	H	1.730896	0.274492	0.663020
H167	H	1.980896	0.524492	0.913020
H168	H	2.230896	0.774492	1.163020
