data_functionalizedCrystal
_audit_creation_method	'MofGen! by Chris Wilmer'
_symmetry_space_group_name_H-M	'P1'
_symmetry_Int_Tables_number	1
_symmetry_cell_setting	triclinic
loop_
_symmetry_equiv_pos_as_xyz
  x,y,z
_cell_length_a	31.640172
_cell_length_b	20.919309
_cell_length_c	31.640172
_cell_angle_alpha	122.545934
_cell_angle_beta	89.986812
_cell_angle_gamma	62.590278
loop_
_atom_site_label
_atom_site_type_symbol
_atom_site_fract_x
_atom_site_fract_y
_atom_site_fract_z
Zr1	Zr	0.425209	0.700660	0.073423
Zr2	Zr	0.925209	1.200660	0.573423
O3	O	0.361152	0.834213	0.144346
O4	O	0.861152	1.334213	0.644346
O5	O	0.442462	0.567102	0.049300
O6	O	0.942462	1.067102	0.549300
O7	O	0.445894	0.700635	0.140899
O8	O	0.945894	1.200635	0.640899
O9	O	0.357725	0.700701	-0.016798
O10	O	0.857725	1.200701	0.483202
O11	O	0.515450	0.700622	0.140889
O12	O	1.015450	1.200622	0.640889
O13	O	0.357721	0.700680	0.052747
O14	O	0.857721	1.200680	0.552747
O15	O	0.509313	0.461756	-0.022964
O16	O	1.009313	0.961756	0.477036
O17	O	0.363863	0.939568	0.147055
O18	O	0.863863	1.439568	0.647055
O19	O	0.504610	0.622029	0.041882
O20	O	1.004610	1.122029	0.541882
O21	O	0.452704	0.622055	-0.010011
O22	O	0.952704	1.122055	0.489989
O23	O	0.456743	0.779273	0.097834
O24	O	0.956743	1.279273	0.597834
O25	O	0.404837	0.779299	0.045941
O26	O	0.904837	1.279299	0.545941
Zr27	Zr	0.536151	0.700674	-0.037508
Zr28	Zr	1.036151	1.200674	0.462492
Zr29	Zr	0.536144	0.700639	0.073408
Zr30	Zr	1.036144	1.200639	0.573408
Zr31	Zr	0.425216	0.700695	-0.037493
Zr32	Zr	0.925216	1.200695	0.462507
Zr33	Zr	0.429533	0.868689	0.077745
Zr34	Zr	0.929533	1.368689	0.577745
Zr35	Zr	0.531827	0.532645	-0.041829
Zr36	Zr	1.031827	1.032645	0.458171
O37	O	0.518897	0.834232	-0.013385
O38	O	1.018897	1.334232	0.486615
O39	O	0.518887	0.834183	0.144324
O40	O	1.018887	1.334183	0.644324
O41	O	0.361162	0.834262	-0.013363
O42	O	0.861162	1.334262	0.486637
O43	O	0.600208	0.567121	-0.108430
O44	O	1.100208	1.067121	0.391570
O45	O	0.600198	0.567072	0.049278
O46	O	1.100198	1.067072	0.549278
O47	O	0.442473	0.567151	-0.108408
O48	O	0.942473	1.067151	0.391592
O49	O	0.603634	0.700633	0.052713
O50	O	1.103634	1.200633	0.552713
O51	O	0.515466	0.700699	-0.104983
O52	O	1.015466	1.200699	0.395017
O53	O	0.445910	0.700712	-0.104973
O54	O	0.945910	1.200712	0.395027
O55	O	0.603639	0.700654	-0.016832
O56	O	1.103639	1.200654	0.483168
O57	O	0.452042	0.939551	0.147043
O58	O	0.952042	1.439551	0.647043
O59	O	0.509318	0.461783	-0.111127
O60	O	1.009318	0.961783	0.388873
O61	O	0.597497	0.461766	-0.111139
O62	O	1.097497	0.961766	0.388861
O63	O	0.597491	0.461739	-0.022976
O64	O	1.097491	0.961739	0.477024
O65	O	0.363869	0.939595	0.058892
O66	O	0.863869	1.439595	0.558892
O67	O	0.452047	0.939578	0.058879
O68	O	0.952047	1.439578	0.558879
O69	O	0.504616	0.622061	-0.061919
O70	O	1.004616	1.122061	0.438081
O71	O	0.556522	0.622035	-0.010025
O72	O	1.056522	1.122035	0.489975
O73	O	0.508656	0.779279	0.045927
O74	O	1.008656	1.279279	0.545927
O75	O	0.456750	0.779305	-0.005967
O76	O	0.956750	1.279305	0.494033
C77	C	0.475271	0.490488	0.012552
C78	C	0.975271	0.990488	0.512552
C79	C	0.473436	0.419155	0.010718
C80	C	0.973436	0.919155	0.510718
C81	C	0.499666	0.385630	0.036944
C82	C	0.999666	0.885630	0.536944
C83	C	0.497943	0.318600	0.035215
C84	C	0.997943	0.818600	0.535215
C85	C	0.469986	0.285102	0.007263
C86	C	0.969986	0.785102	0.507263
C87	C	0.443754	0.318631	-0.018966
C88	C	0.943754	0.818631	0.481034
C89	C	0.445481	0.385655	-0.017240
C90	C	0.945481	0.885655	0.482760
C91	C	0.463419	0.082731	0.000694
C92	C	0.963419	0.582731	0.500694
C93	C	0.461693	0.015704	-0.001028
C94	C	0.961693	0.515704	0.498972
C95	C	0.515883	0.015677	0.053152
C96	C	1.015883	0.515677	0.553152
C97	C	0.517605	0.082706	0.054878
C98	C	1.017605	0.582706	0.554878
C99	C	0.491376	0.116225	0.028647
C100	C	0.991376	0.616225	0.528647
C101	C	0.468222	0.216590	0.005497
C102	C	0.968222	0.716590	0.505497
C103	C	0.493142	0.184732	0.030410
C104	C	0.993142	0.684732	0.530410
C105	C	0.341917	0.700693	0.017977
C106	C	0.841917	1.200693	0.517977
C107	C	0.294823	0.700702	0.017983
C108	C	0.794823	1.200702	0.517983
C109	C	0.027801	0.618579	-0.011259
C110	C	0.527801	1.118579	0.488741
C111	C	-0.149184	0.618563	-0.011270
C112	C	0.350816	1.118563	0.488730
O113	O	-0.150821	0.548757	-0.036128
O114	O	0.349179	1.048757	0.463872
N115	N	-0.196300	0.700642	0.017937
N116	N	0.303700	1.200642	0.517937
C117	C	-0.199168	0.782731	0.047146
C118	C	0.300832	1.282731	0.547146
O119	O	-0.243304	0.852544	0.071984
O120	O	0.256696	1.352544	0.571984
C121	C	-0.022183	0.782746	0.047153
C122	C	0.477817	1.282746	0.547153
C123	C	0.024932	0.700661	0.017949
C124	C	0.524932	1.200661	0.517949
C125	C	0.074914	0.536501	-0.040462
C126	C	0.574914	1.036501	0.459538
C127	C	0.119157	0.536505	-0.040457
C128	C	0.619157	1.036505	0.459543
C129	C	0.116288	0.618588	-0.011249
C130	C	0.616288	1.118588	0.488751
C131	C	0.069175	0.700666	0.017954
C132	C	0.569175	1.200666	0.517954
C133	C	-0.025052	0.864834	0.076359
C134	C	0.474948	1.364834	0.576359
C135	C	0.019200	0.864830	0.076357
C136	C	0.519200	1.364830	0.576357
C137	C	0.066314	0.782746	0.047152
C138	C	0.566314	1.282746	0.547152
C139	C	0.110549	0.782753	0.047167
C140	C	0.610549	1.282753	0.547167
N141	N	0.157665	0.700674	0.017960
N142	N	0.657665	1.200674	0.517960
C143	C	0.160534	0.618592	-0.011248
C144	C	0.660534	1.118592	0.488752
C145	C	-0.292086	0.782718	0.047141
C146	C	0.207914	1.282718	0.547141
C147	C	-0.336332	0.782714	0.047140
C148	C	0.163668	1.282714	0.547140
C149	C	-0.286345	0.618546	-0.011277
C150	C	0.213655	1.118546	0.488723
C151	C	-0.242099	0.618550	-0.011272
C152	C	0.257901	1.118550	0.488728
C153	C	-0.244970	0.700638	0.017934
C154	C	0.255030	1.200638	0.517934
C155	C	0.253447	0.618608	-0.011234
C156	C	0.753447	1.118608	0.488766
C157	C	0.297692	0.618620	-0.011224
C158	C	0.797692	1.118620	0.488776
C159	C	0.247701	0.782788	0.047190
C160	C	0.747701	1.282788	0.547190
C161	C	0.203460	0.782776	0.047183
C162	C	0.703460	1.282776	0.547183
C163	C	0.206336	0.700679	0.017967
C164	C	0.706336	1.200679	0.517967
O165	O	0.112224	0.852523	0.072007
O166	O	0.612224	1.352523	0.572007
O167	O	0.204674	0.548789	-0.036091
O168	O	0.704674	1.048789	0.463909
C169	C	-0.016442	0.618574	-0.011264
C170	C	0.483558	1.118574	0.488736
C171	C	-0.063555	0.700652	0.017938
C172	C	0.436445	1.200652	0.517938
C173	C	-0.066424	0.782734	0.047146
C174	C	0.433576	1.282734	0.547146
C175	C	-0.107801	0.700648	0.017937
C176	C	0.392199	1.200648	0.517937
C177	C	-0.104932	0.618566	-0.011271
C178	C	0.395068	1.118566	0.488729
C179	C	-0.057817	0.536486	-0.040478
C180	C	0.442183	1.036486	0.459522
C181	C	-0.013573	0.536491	-0.040472
C182	C	0.486427	1.036491	0.459528
C183	C	-0.113540	0.864814	0.076353
C184	C	0.386460	1.364814	0.576353
C185	C	-0.157781	0.864802	0.076346
C186	C	0.342219	1.364802	0.576346
C187	C	-0.154912	0.782720	0.047138
C188	C	0.345088	1.282720	0.547138
C189	C	0.619443	0.700640	0.017939
C190	C	1.119443	1.200640	0.517939
C191	C	0.666537	0.700631	0.017932
C192	C	1.166537	1.200631	0.517932
C193	C	0.480671	0.700624	0.156697
C194	C	0.980671	1.200624	0.656697
C195	C	0.480668	0.700609	0.203784
C196	C	0.980668	1.200609	0.703784
C197	C	0.486088	0.910846	0.023363
C198	C	0.986088	1.410846	0.523363
C199	C	0.487924	0.982178	0.025198
C200	C	0.987924	1.482178	0.525198
C201	C	0.505667	0.618574	0.510883
C202	C	1.005667	1.118574	1.010883
C203	C	0.505662	0.618549	0.333884
C204	C	1.005662	1.118549	0.833884
O205	O	0.526927	0.548741	0.286161
O206	O	1.026927	1.048741	0.786161
N207	N	0.480675	0.700627	0.340956
N208	N	0.980675	1.200627	0.840956
C209	C	0.455691	0.782717	0.392283
C210	C	0.955691	1.282717	0.892283
O211	O	0.434442	0.852529	0.394238
O212	O	0.934442	1.352529	0.894238
C213	C	0.455699	0.782742	0.569281
C214	C	0.955699	1.282742	1.069281
C215	C	0.480684	0.700658	0.562205
C216	C	0.980684	1.200658	1.062205
C217	C	0.530650	0.536498	0.503809
C218	C	1.030650	1.036498	1.003809
C219	C	0.530649	0.536505	0.548056
C220	C	1.030649	1.036505	1.048056
C221	C	0.505665	0.618589	0.599378
C222	C	1.005665	1.118589	1.099378
C223	C	0.480682	0.700665	0.606452
C224	C	0.980682	1.200665	1.106452
C225	C	0.430718	0.864831	0.620607
C226	C	0.930718	1.364831	1.120607
C227	C	0.430724	0.864830	0.664857
C228	C	0.930724	1.364830	1.164857
C229	C	0.455708	0.782746	0.657780
C230	C	0.955708	1.282746	1.157780
C231	C	0.455697	0.782756	0.702021
C232	C	0.955697	1.282756	1.202021
N233	N	0.480684	0.700678	0.694949
N234	N	0.980684	1.200678	1.194949
C235	C	0.505668	0.618594	0.643627
C236	C	1.005668	1.118594	1.143627
C237	C	0.455687	0.782699	0.299355
C238	C	0.955687	1.282699	0.799355
C239	C	0.455684	0.782693	0.255106
C240	C	0.955684	1.282693	0.755106
C241	C	0.505656	0.618524	0.196709
C242	C	1.005656	1.118524	0.696709
C243	C	0.505656	0.618531	0.240959
C244	C	1.005656	1.118531	0.740959
C245	C	0.480674	0.700621	0.292282
C246	C	0.980674	1.200621	0.792282
C247	C	0.505663	0.618616	0.736552
C248	C	1.005663	1.118616	1.236552
C249	C	0.505658	0.618630	0.780806
C250	C	1.005658	1.118630	1.280806
C251	C	0.455688	0.782798	0.839199
C252	C	0.955688	1.282798	1.339199
C253	C	0.455691	0.782784	0.794949
C254	C	0.955691	1.282784	1.294949
C255	C	0.480682	0.700686	0.743624
C256	C	0.980682	1.200686	1.243624
O257	O	0.434448	0.852527	0.749759
O258	O	0.934448	1.352527	1.249759
O259	O	0.526923	0.548793	0.641684
O260	O	1.026923	1.048793	1.141684
C261	C	0.505669	0.618567	0.466635
C262	C	1.005669	1.118567	0.966635
C263	C	0.480686	0.700644	0.473710
C264	C	0.980686	1.200644	0.973710
C265	C	0.455702	0.782728	0.525032
C266	C	0.955702	1.282728	1.025032
C267	C	0.480683	0.700638	0.429461
C268	C	0.980683	1.200638	0.929461
C269	C	0.505667	0.618554	0.378139
C270	C	1.005667	1.118554	0.878139
C271	C	0.530654	0.536476	0.371066
C272	C	1.030654	1.036476	0.871066
C273	C	0.530652	0.536483	0.415314
C274	C	1.030652	1.036483	0.915314
C275	C	0.430715	0.864806	0.532104
C276	C	0.930715	1.364806	1.032104
C277	C	0.430718	0.864792	0.487854
C278	C	0.930718	1.364792	0.987854
C279	C	0.455702	0.782708	0.436532
C280	C	0.955702	1.282708	0.936532
C281	C	0.480684	0.700708	0.879218
C282	C	0.980684	1.200708	1.379218
C283	C	0.480674	0.700714	0.832128
C284	C	0.980674	1.200714	1.332128
C285	C	0.614034	0.490462	0.012533
C286	C	1.114034	0.990462	0.512533
C287	C	0.659293	0.419120	0.010692
C288	C	1.159293	0.919120	0.510692
C289	C	0.475280	0.490532	-0.126187
C290	C	0.975280	0.990532	0.373813
C291	C	0.473448	0.419214	-0.175108
C292	C	0.973448	0.919214	0.324892
C293	C	0.614043	0.490505	-0.126206
C294	C	1.114043	0.990505	0.373794
C295	C	0.659305	0.419178	-0.175134
C296	C	1.159305	0.919178	0.324866
C297	C	0.347317	0.910829	0.162121
C298	C	0.847317	1.410829	0.662121
C299	C	0.302055	0.982156	0.211049
C300	C	0.802055	1.482156	0.711049
C301	C	0.347326	0.910872	0.023382
C302	C	0.847326	1.410872	0.523382
C303	C	0.302067	0.982214	0.025223
C304	C	0.802067	1.482214	0.525223
C305	C	0.486079	0.910802	0.162102
C306	C	0.986079	1.410802	0.662102
C307	C	0.487912	0.982120	0.211023
C308	C	0.987912	1.482120	0.711023
C309	C	0.653449	0.385614	0.036928
C310	C	1.153449	0.885614	0.536928
C311	C	0.695971	0.318590	0.035209
C312	C	1.195971	0.818590	0.535209
C313	C	0.744336	0.285069	0.007250
C314	C	1.244336	0.785069	0.507250
C315	C	0.750179	0.318582	-0.018986
C316	C	1.250179	0.818582	0.481014
C317	C	0.707658	0.385609	-0.017263
C318	C	1.207658	0.885609	0.482737
C319	C	0.499685	0.385725	-0.225182
C320	C	0.999685	0.885725	0.274818
C321	C	0.497962	0.318724	-0.271153
C322	C	0.997962	0.818724	0.228847
C323	C	0.470003	0.285207	-0.267048
C324	C	0.970003	0.785207	0.232952
C325	C	0.443763	0.318702	-0.216969
C326	C	0.943763	0.818702	0.283031
C327	C	0.445484	0.385707	-0.170999
C328	C	0.945484	0.885707	0.329001
C329	C	0.707660	0.385669	-0.171023
C330	C	1.207660	0.885669	0.328977
C331	C	0.750193	0.318659	-0.216991
C332	C	1.250193	0.818659	0.283009
C333	C	0.744370	0.285155	-0.267070
C334	C	1.244370	0.785155	0.232930
C335	C	0.696011	0.318671	-0.271180
C336	C	1.196011	0.818671	0.228820
C337	C	0.653479	0.385684	-0.225212
C338	C	1.153479	0.885684	0.274788
C339	C	0.253700	1.015673	0.206939
C340	C	0.753700	1.515673	0.706939
C341	C	0.211168	1.082704	0.252907
C342	C	0.711168	1.582704	0.752907
C343	C	0.216990	1.116212	0.302986
C344	C	0.716990	1.616212	0.802986
C345	C	0.265350	1.082691	0.307096
C346	C	0.765350	1.582691	0.807096
C347	C	0.307882	1.015666	0.261128
C348	C	0.807882	1.515666	0.761128
C349	C	0.307911	1.015727	-0.001007
C350	C	0.807911	1.515727	0.498993
C351	C	0.265389	1.082769	0.000725
C352	C	0.765389	1.582769	0.500725
C353	C	0.217024	1.116293	0.028684
C354	C	0.717024	1.616293	0.528684
C355	C	0.211181	1.082777	0.054918
C356	C	0.711181	1.582777	0.554918
C357	C	0.253702	1.015740	0.053189
C358	C	0.753702	1.515740	0.553189
C359	C	0.515875	1.015616	0.206902
C360	C	1.015875	1.515616	0.706902
C361	C	0.517607	1.082617	0.252864
C362	C	1.017607	1.582617	0.752864
C363	C	0.491372	1.116128	0.302948
C364	C	0.991372	1.616128	0.802948
C365	C	0.463408	1.082626	0.307068
C366	C	0.963408	1.582626	0.807068
C367	C	0.461680	1.015620	0.261106
C368	C	0.961680	1.515620	0.761106
H369	H	0.522430	0.412903	0.059708
H370	H	1.022430	0.912903	0.559708
H371	H	0.438925	-0.011566	-0.023790
H372	H	0.938925	0.488434	0.476210
H373	H	0.347288	0.988437	-0.023779
H374	H	0.847288	1.488437	0.476221
H375	H	0.438907	0.988356	0.264469
H376	H	0.938907	1.488356	0.764469
Cl377	Cl	0.552760	1.124725	0.247673
Cl378	Cl	1.052760	1.624725	0.747673
H379	H	0.410374	0.931672	0.626380
H380	H	0.910374	1.431672	1.126380
H381	H	0.519302	0.291303	0.056570
H382	H	1.019302	0.791303	0.556570
Cl383	Cl	0.530955	0.276627	-0.334103
Cl384	Cl	1.030955	0.776627	0.165897
H385	H	0.492784	1.170688	0.340369
H386	H	0.992784	1.670688	0.840369
H387	H	0.157517	0.469664	-0.064236
H388	H	0.657517	0.969664	0.435764
H389	H	0.712423	0.412881	-0.038630
H390	H	1.212423	0.912881	0.461370
Cl391	Cl	0.244104	0.885972	0.083898
Cl392	Cl	0.744104	1.385972	0.583898
Cl393	Cl	0.430425	1.124771	0.370034
Cl394	Cl	0.930425	1.624771	0.870034
H395	H	0.410368	0.931639	0.493625
H396	H	0.910368	1.431639	0.993625
H397	H	-0.196143	0.931650	0.100133
H398	H	0.303857	1.431650	0.600133
H399	H	0.691277	0.291382	-0.311960
H400	H	1.191277	0.791382	0.188040
Cl401	Cl	0.412499	0.427793	-0.108051
Cl402	Cl	0.912499	0.927793	0.391949
H403	H	0.171795	1.109985	0.249551
H404	H	0.671795	1.609985	0.749551
H405	H	0.789563	0.291279	-0.041748
H406	H	1.289563	0.791279	0.458252
H407	H	0.712410	0.412938	-0.130250
H408	H	1.212410	0.912938	0.369750
H409	H	-0.294432	0.849568	0.070928
H410	H	0.205568	1.349568	0.570928
H411	H	0.171797	1.110082	0.077682
H412	H	0.671797	1.610082	0.577682
H413	H	0.347253	0.988377	0.264481
H414	H	0.847253	1.488377	0.764481
H415	H	0.537239	0.988342	0.166126
H416	H	1.037239	1.488342	0.666126
Cl417	Cl	0.592653	0.427744	0.072082
Cl418	Cl	1.092653	0.927744	0.572082
H419	H	0.522452	0.413007	-0.228534
H420	H	1.022452	0.913007	0.271466
Cl421	Cl	0.810982	0.276534	-0.211813
Cl422	Cl	1.310982	0.776534	0.288187
H423	H	0.537238	-0.011622	0.074508
H424	H	1.037238	0.488378	0.574508
H425	H	0.779007	0.230588	-0.304496
H426	H	1.279007	0.730588	0.195504
Cl427	Cl	0.537083	0.515405	0.672036
Cl428	Cl	1.037083	1.015405	1.172036
Cl429	Cl	0.424275	0.885908	0.363873
Cl430	Cl	0.924275	1.385908	0.863873
Cl431	Cl	0.552749	0.124818	0.090023
Cl432	Cl	1.052749	0.624818	0.590023
Cl433	Cl	0.562062	0.433308	0.539151
Cl434	Cl	1.062062	0.933308	1.039151
Cl435	Cl	0.467846	0.200970	-0.324845
Cl436	Cl	0.967846	0.700970	0.175155
H437	H	0.614107	0.412959	-0.228566
H438	H	1.114107	0.912959	0.271434
H439	H	0.182354	1.170787	0.340412
H440	H	0.682354	1.670787	0.840412
Cl441	Cl	0.430447	0.124858	-0.032285
Cl442	Cl	0.930447	0.624858	0.467715
H443	H	0.024786	0.469649	-0.064255
H444	H	0.524786	0.969649	0.435745
Cl445	Cl	0.163574	1.200567	0.030851
Cl446	Cl	0.663574	1.700567	0.530851
H447	H	0.420994	0.291347	-0.041728
H448	H	0.920994	0.791347	0.458272
H449	H	0.424120	0.412953	-0.038595
H450	H	0.924120	0.912953	0.461405
H451	H	0.248949	0.988396	0.166166
H452	H	0.748949	1.488396	0.666166
Cl453	Cl	0.528289	0.226842	0.065547
Cl454	Cl	1.028289	0.726842	0.565547
Cl455	Cl	0.424279	0.885984	0.903724
Cl456	Cl	0.924279	1.385984	1.403724
Cl457	Cl	0.272662	1.124821	0.370056
Cl458	Cl	0.772662	1.624821	0.870056
Cl459	Cl	0.433083	0.174462	-0.029649
Cl460	Cl	0.933083	0.674462	0.470351
H461	H	-0.115884	0.931657	0.100139
H462	H	0.384116	1.431657	0.600139
H463	H	0.270156	1.110047	-0.020641
H464	H	0.770156	1.610047	0.479359
Cl465	Cl	0.246347	0.973612	0.086164
Cl466	Cl	0.746347	1.473612	0.586164
Cl467	Cl	0.408619	0.276556	-0.211819
Cl468	Cl	0.908619	0.776556	0.288181
H469	H	0.336055	0.551774	-0.035008
H470	H	0.836055	1.051774	0.464992
H471	H	0.255796	0.551756	-0.035025
H472	H	0.755796	1.051756	0.464975
H473	H	0.077259	0.469655	-0.064249
H474	H	0.577259	0.969655	0.435751
H475	H	-0.203739	0.551709	-0.035058
H476	H	0.296261	1.051709	0.464942
Cl477	Cl	0.015584	0.968034	0.113075
Cl478	Cl	0.515584	1.468034	0.613075
Cl479	Cl	-0.282746	0.515356	-0.047996
Cl480	Cl	0.217254	1.015356	0.452004
Cl481	Cl	-0.395558	0.885911	0.083863
Cl482	Cl	0.104442	1.385911	0.583863
H483	H	0.165096	0.849616	0.070970
H484	H	0.665096	1.349616	0.570970
Cl485	Cl	-0.084273	0.968033	0.113071
Cl486	Cl	0.415727	1.468033	0.613071
H487	H	0.550997	0.469642	0.409545
H488	H	1.050997	0.969642	0.909545
Cl489	Cl	-0.054218	0.433298	-0.077194
Cl490	Cl	0.445782	0.933298	0.422806
H491	H	0.526003	0.551785	0.775038
H492	H	1.026003	1.051785	1.275038
H493	H	0.550997	0.469651	0.462022
H494	H	1.050997	0.969651	0.962022
H495	H	0.525998	0.551688	0.154914
H496	H	1.025998	1.051688	0.654914
Cl497	Cl	0.537067	0.515337	0.232057
Cl498	Cl	1.037067	1.015337	0.732057
H499	H	0.435333	0.849533	0.260874
H500	H	0.935333	1.349533	0.760874
H501	H	0.410380	0.931678	0.706646
H502	H	0.910380	1.431678	1.206646
H503	H	0.550994	0.469640	0.329271
H504	H	1.050994	0.969640	0.829271
Cl505	Cl	0.399302	0.968008	0.596620
Cl506	Cl	0.899302	1.468008	1.096620
Cl507	Cl	0.688614	0.276470	0.068191
Cl508	Cl	1.188614	0.776470	0.568191
Cl509	Cl	0.797787	0.200803	0.005089
Cl510	Cl	1.297787	0.700803	0.505089
Cl511	Cl	0.424289	0.885976	0.803845
Cl512	Cl	0.924289	1.385976	1.303845
