data_functionalizedCrystal
_audit_creation_method	'MofGen! by Chris Wilmer'
_symmetry_space_group_name_H-M	'P1'
_symmetry_Int_Tables_number	1
_symmetry_cell_setting	triclinic
loop_
_symmetry_equiv_pos_as_xyz
  x,y,z
_cell_length_a	19.288840
_cell_length_b	19.288868
_cell_length_c	15.500373
_cell_angle_alpha	93.183070
_cell_angle_beta	93.168729
_cell_angle_gamma	83.131872
loop_
_atom_site_label
_atom_site_type_symbol
_atom_site_fract_x
_atom_site_fract_y
_atom_site_fract_z
O1	O	0.918491	0.083687	-0.072085
O2	O	1.418491	0.583687	0.427915
O3	O	0.716229	0.095395	-0.072055
O4	O	1.216229	0.595395	0.427945
O5	O	0.823203	-0.011589	-0.072067
O6	O	1.323203	0.488411	0.427933
O7	O	0.811517	0.190672	-0.072074
O8	O	1.311517	0.690672	0.427926
O9	O	0.828922	-0.005849	0.071817
O10	O	1.328922	0.494151	0.571817
O11	O	0.721948	0.101136	0.071829
O12	O	1.221948	0.601136	0.571829
O13	O	0.924210	0.089427	0.071799
O14	O	1.424210	0.589427	0.571799
Cu15	Cu	0.823601	0.095806	0.084952
Cu16	Cu	1.323601	0.595806	0.584952
Cu17	Cu	0.816838	0.089017	-0.085208
Cu18	Cu	1.316838	0.589017	0.414792
O19	O	0.817235	0.196412	0.071810
O20	O	1.317235	0.696412	0.571810
C21	C	0.693212	0.097892	-0.000109
C22	C	1.193212	0.597892	0.499891
C23	C	0.616108	0.096770	-0.000098
C24	C	1.116108	0.596770	0.499902
C25	C	0.576787	0.093102	-0.078531
C26	C	1.076787	0.593102	0.421469
C27	C	0.504339	0.092040	-0.078542
C28	C	1.004339	0.592040	0.421458
C29	C	0.471218	0.094631	-0.000114
C30	C	0.971218	0.594631	0.499886
C31	C	0.510548	0.098304	0.078329
C32	C	1.010548	0.598304	0.578329
C33	C	0.582992	0.099373	0.078338
C34	C	1.082992	0.599373	0.578338
C35	C	0.364277	0.054651	0.059961
C36	C	0.864277	0.554651	0.559961
C37	C	0.291834	0.053577	0.059950
C38	C	0.791834	0.553577	0.559950
C39	C	0.247773	0.091337	-0.000137
C40	C	0.747773	0.591337	0.499863
C41	C	0.276165	0.130161	-0.060226
C42	C	0.776165	0.630161	0.439774
C43	C	0.348610	0.131230	-0.060218
C44	C	0.848610	0.631230	0.439782
C45	C	0.392664	0.093473	-0.000115
C46	C	0.892664	0.593473	0.499885
C47	C	0.129896	0.086517	-0.078587
C48	C	0.629896	0.586517	0.421413
C49	C	0.057447	0.085459	-0.078594
C50	C	0.557447	0.585459	0.421406
C51	C	0.063658	0.091717	0.078279
C52	C	0.563658	0.591717	0.578279
C53	C	0.136104	0.092782	0.078284
C54	C	0.636104	0.592782	0.578284
C55	C	0.169220	0.090178	-0.000151
C56	C	0.669220	0.590178	0.499849
C57	C	0.825686	-0.034596	-0.000125
C58	C	1.325686	0.465404	0.499875
C59	C	0.824556	-0.111699	-0.000127
C60	C	1.324556	0.388301	0.499873
C61	C	0.947227	0.086931	-0.000149
C62	C	1.447227	0.586931	0.499851
C63	C	1.024331	0.088052	-0.000166
C64	C	1.524331	0.588052	0.499834
N65	N	0.828363	0.100580	0.204633
N66	N	1.328363	0.600580	0.704633
C67	C	0.814752	0.219418	-0.000133
C68	C	1.314752	0.719418	0.499867
C69	C	0.815882	0.296521	-0.000137
C70	C	1.315882	0.796521	0.499863
C71	C	0.820916	0.848956	-0.078557
C72	C	1.320916	1.348956	0.421443
C73	C	0.819849	0.776510	-0.078560
C74	C	1.319849	1.276510	0.421440
C75	C	0.822437	0.743409	-0.000130
C76	C	1.322437	1.243409	0.499870
C77	C	0.826073	0.782764	0.078311
C78	C	1.326073	1.282764	0.578311
C79	C	0.827133	0.855210	0.078312
C80	C	1.327133	1.355210	0.578312
C81	C	0.863828	0.625578	0.059953
C82	C	1.363828	1.125578	0.559953
C83	C	0.862772	0.553133	0.059949
C84	C	1.362772	1.053133	0.559949
C85	C	0.819165	0.519963	-0.000130
C86	C	1.319165	1.019963	0.499870
C87	C	0.776622	0.559246	-0.060218
C88	C	1.276622	1.059246	0.439782
C89	C	0.777682	0.631691	-0.060217
C90	C	1.277682	1.131691	0.439783
C91	C	0.821287	0.664855	-0.000122
C92	C	1.321287	1.164855	0.499878
C93	C	0.814367	0.402063	-0.078568
C94	C	1.314367	0.902063	0.421432
C95	C	0.813296	0.329616	-0.078568
C96	C	1.313296	0.829616	0.421432
C97	C	0.819527	0.335872	0.078305
C98	C	1.319527	0.835872	0.578305
C99	C	0.820591	0.408318	0.078303
C100	C	1.320591	0.908318	0.578303
C101	C	0.818014	0.441409	-0.000136
C102	C	1.318014	0.941409	0.499864
N103	N	0.812081	0.084237	-0.204889
N104	N	1.312081	0.584237	0.295111
C105	C	0.788185	0.060371	0.249942
C106	C	1.288185	0.560371	0.749942
C107	C	0.791803	0.063989	0.340512
C108	C	1.291803	0.563989	0.840512
C109	C	0.835604	0.107814	0.385771
C110	C	1.335604	0.607814	0.885771
C111	C	0.875783	0.148028	0.340455
C112	C	1.375783	0.648028	0.840455
C113	C	0.872161	0.144412	0.249887
C114	C	1.372161	0.644412	0.749887
C115	C	0.848638	0.120836	0.659227
C116	C	1.348638	0.620836	1.159227
C117	C	0.852259	0.124447	0.749802
C118	C	1.352259	0.624447	1.249802
C119	C	0.768278	0.040409	0.749852
C120	C	1.268278	0.540409	1.249852
C121	C	0.764662	0.036794	0.659282
C122	C	1.264662	0.536794	1.159282
C123	C	0.804839	0.077011	0.613974
C124	C	1.304839	0.577011	1.113974
C125	C	0.839305	0.111512	0.478348
C126	C	1.339305	0.611512	0.978348
C127	C	0.801134	0.073316	0.521399
C128	C	1.301134	0.573316	1.021399
H129	H	0.818816	0.875894	-0.142428
H130	H	1.318816	1.375894	0.357572
C131	C	0.179361	0.096808	0.164562
C132	C	0.679361	0.596808	0.664562
H133	H	0.149262	0.098194	0.211270
H134	H	0.649262	0.598194	0.711270
H135	H	0.202321	0.137850	0.167826
H136	H	0.702321	0.637850	0.667826
H137	H	0.213180	0.056852	0.167825
H138	H	0.713180	0.556852	0.667825
C139	C	0.909566	0.509929	0.126042
C140	C	1.409566	1.009929	0.626042
H141	H	0.935679	0.540060	0.161833
H142	H	1.435679	1.040060	0.661833
H143	H	0.940690	0.476099	0.096291
H144	H	1.440690	0.976099	0.596291
H145	H	0.881194	0.486984	0.160792
H146	H	1.381194	0.986984	0.660792
H147	H	0.816881	0.744469	-0.142429
H148	H	1.316881	1.244469	0.357571
C149	C	0.911799	0.662061	0.126039
C150	C	1.411799	1.162061	0.626039
H151	H	0.906334	0.710833	0.117440
H152	H	1.406334	1.210833	0.617440
H153	H	0.959066	0.643489	0.118469
H154	H	1.459066	1.143489	0.618469
H155	H	0.899580	0.654375	0.182984
H156	H	1.399580	1.154375	0.682984
H157	H	0.156859	0.084405	-0.142454
H158	H	0.656859	0.584405	0.357546
H159	H	0.830094	0.887245	0.142181
H160	H	1.330094	1.387245	0.642181
H161	H	0.025432	0.082476	-0.142467
H162	H	0.525432	0.582476	0.357533
C163	C	0.412741	0.013114	0.126060
C164	C	0.912741	0.513114	0.626060
H165	H	0.459952	0.019316	0.117465
H166	H	0.959952	0.519316	0.617465
H167	H	0.406972	-0.035104	0.118497
H168	H	0.906972	0.464896	0.618497
H169	H	0.401203	0.029519	0.183000
H170	H	0.901203	0.529519	0.683000
H171	H	0.810329	0.297583	-0.142438
H172	H	1.310329	0.797583	0.357562
H173	H	0.735567	0.007668	0.786751
H174	H	1.235567	0.507668	1.286751
C175	C	0.379834	0.174031	-0.126209
C176	C	0.879834	0.674031	0.373791
H177	H	0.429287	0.169282	-0.117570
H178	H	0.929287	0.669282	0.382430
H179	H	0.361823	0.221880	-0.118548
H180	H	0.861823	0.721880	0.381452
H181	H	0.367661	0.157351	-0.183197
H182	H	0.867661	0.657351	0.316803
C183	C	0.822370	0.299474	0.164580
C184	C	1.322370	0.799474	0.664580
H185	H	0.824687	0.333286	0.211292
H186	H	1.324687	0.833286	0.711292
H187	H	0.862580	0.265914	0.167840
H188	H	1.362580	0.765914	0.667840
H189	H	0.781582	0.276773	0.167842
H190	H	1.281582	0.776773	0.667842
C191	C	0.474120	0.101155	0.164599
C192	C	0.974120	0.601155	0.664599
H193	H	0.507917	0.103499	0.211315
H194	H	1.007917	0.603499	0.711315
H195	H	0.451420	0.060372	0.167861
H196	H	0.951420	0.560372	0.667861
H197	H	0.440557	0.141370	0.167852
H198	H	0.940557	0.641370	0.667852
C199	C	0.626249	0.103397	0.164618
C200	C	1.126249	0.603397	0.664618
H201	H	0.596150	0.104784	0.211327
H202	H	1.096150	0.604784	0.711327
H203	H	0.649214	0.144437	0.167885
H204	H	1.149214	0.644437	0.667885
H205	H	0.660064	0.063439	0.167876
H206	H	1.160064	0.563439	0.667876
C207	C	0.887486	0.159716	0.528132
C208	C	1.387486	0.659716	1.028132
H209	H	0.910897	0.183150	0.488179
H210	H	1.410897	0.683150	0.988179
H211	H	0.920950	0.132578	0.563453
H212	H	1.420950	0.632578	1.063453
H213	H	0.860327	0.193171	0.563469
H214	H	1.360327	0.693171	1.063469
H215	H	0.743040	0.663673	-0.109141
H216	H	1.243040	1.163673	0.390859
H217	H	0.828177	0.755810	0.142170
H218	H	1.328177	1.255810	0.642170
H219	H	0.887928	0.160137	0.786649
H220	H	1.387928	0.660137	1.286649
H221	H	0.268724	0.021960	0.108874
H222	H	0.768724	0.521960	0.608874
C223	C	0.824599	0.451602	0.164574
C224	C	1.324599	0.951602	0.664574
H225	H	0.824853	0.499489	0.153342
H226	H	1.324853	0.999489	0.653342
H227	H	0.866200	0.435590	0.196802
H228	H	1.366200	0.935590	0.696802
H229	H	0.785202	0.446439	0.196800
H230	H	1.285202	0.946439	0.696800
H231	H	0.752520	0.024682	0.213099
H232	H	1.252520	0.524682	0.713099
H233	H	0.728997	0.001105	0.622438
H234	H	1.228997	0.501105	1.122438
H235	H	0.911444	0.183714	0.377312
H236	H	1.411444	0.683714	0.877312
C237	C	0.728650	0.522770	-0.126306
C238	C	1.228650	1.022770	0.373694
H239	H	0.734104	0.473999	-0.117697
H240	H	1.234104	0.973999	0.382303
H241	H	0.740866	0.530454	-0.183247
H242	H	1.240866	1.030454	0.316753
H243	H	0.681381	0.541345	-0.118732
H244	H	1.181381	1.041345	0.381268
H245	H	0.759086	0.031246	0.377399
H246	H	1.259086	0.531246	0.877399
C247	C	0.916356	0.188640	0.200043
C248	C	1.416356	0.688640	0.700043
H249	H	0.907920	0.180216	0.139622
H250	H	1.407920	0.680216	0.639622
H251	H	0.964513	0.176205	0.214859
H252	H	1.464513	0.676205	0.714859
H253	H	0.903886	0.236795	0.214888
H254	H	1.403886	0.736795	0.714888
H255	H	0.812265	0.429008	-0.142438
H256	H	1.312265	0.929008	0.357562
H257	H	0.881357	0.153580	0.622348
H258	H	1.381357	0.653580	1.122348
H259	H	0.765468	0.037637	0.484545
H260	H	1.265468	0.537637	0.984545
H261	H	0.240291	0.160911	-0.109152
H262	H	0.740291	0.660911	0.390848
H263	H	0.472318	0.089054	-0.142414
H264	H	0.972318	0.589054	0.357586
C265	C	0.613209	0.090248	-0.164806
C266	C	1.113209	0.590248	0.335194
H267	H	0.579409	0.087918	-0.211520
H268	H	1.079409	0.587918	0.288480
H269	H	0.646774	0.050041	-0.168066
H270	H	1.146774	0.550041	0.331934
H271	H	0.635905	0.131039	-0.168064
H272	H	1.135905	0.631039	0.331936
H273	H	0.036690	0.093831	0.142136
H274	H	0.536690	0.593831	0.642136
