data_functionalizedCrystal
_audit_creation_method	'MofGen! by Chris Wilmer'
_symmetry_space_group_name_H-M	'P1'
_symmetry_Int_Tables_number	1
_symmetry_cell_setting	triclinic
loop_
_symmetry_equiv_pos_as_xyz
  x,y,z
_cell_length_a	14.044191
_cell_length_b	12.503572
_cell_length_c	11.792241
_cell_angle_alpha	86.452757
_cell_angle_beta	88.692596
_cell_angle_gamma	93.837835
loop_
_atom_site_label
_atom_site_type_symbol
_atom_site_fract_x
_atom_site_fract_y
_atom_site_fract_z
O1	O	1.264548	0.089269	0.267796
O2	O	1.597881	0.422602	0.601129
O3	O	1.931214	0.755936	0.934462
O4	O	0.988528	0.089283	0.257907
O5	O	1.321861	0.422616	0.591241
O6	O	1.655195	0.755949	0.924574
O7	O	1.133235	0.089268	0.098311
O8	O	1.466569	0.422601	0.431644
O9	O	1.799902	0.755935	0.764977
O10	O	1.119840	0.089284	0.427393
O11	O	1.453173	0.422617	0.760726
O12	O	1.786507	0.755950	1.094059
O13	O	1.122353	-0.089373	0.110335
O14	O	1.455686	0.243960	0.443668
O15	O	1.789019	0.577294	0.777002
O16	O	0.977645	-0.089358	0.269932
O17	O	1.310978	0.243975	0.603265
O18	O	1.644312	0.577308	0.936598
O19	O	1.253665	-0.089372	0.279820
O20	O	1.586998	0.243961	0.613153
O21	O	1.920331	0.577295	0.946487
Cu22	Cu	1.114661	-0.105676	0.275974
Cu23	Cu	1.447995	0.227657	0.609307
Cu24	Cu	1.781328	0.560990	0.942641
Cu25	Cu	1.127531	0.105587	0.261754
Cu26	Cu	1.460865	0.438920	0.595087
Cu27	Cu	1.794198	0.772254	0.928420
O28	O	1.108957	-0.089357	0.439417
O29	O	1.442291	0.243976	0.772750
O30	O	1.775624	0.577309	1.106084
C31	C	0.947750	-0.000036	0.259594
C32	C	1.281083	0.333297	0.592927
C33	C	1.614417	0.666630	0.926261
C34	C	0.842458	-0.000031	0.246692
C35	C	1.175791	0.333302	0.580025
C36	C	1.509125	0.666635	0.913358
N37	N	1.105616	-0.254268	0.285976
N38	N	1.438949	0.079066	0.619309
N39	N	1.772283	0.412399	0.952642
C40	C	0.592520	-0.000039	0.314609
C41	C	0.925853	0.333295	0.647943
C42	C	1.259187	0.666628	0.981276
C43	C	0.649679	-0.000041	0.223123
C44	C	0.983012	0.333292	0.556456
C45	C	1.316345	0.666625	0.889789
C46	C	0.756951	-0.000036	0.236240
C47	C	1.090284	0.333298	0.569573
C48	C	1.423618	0.666631	0.902906
C49	C	0.485238	-0.000044	0.301494
C50	C	0.818571	0.333289	0.634828
C51	C	1.151905	0.666622	0.968161
C52	C	1.092310	-0.473382	0.300698
C53	C	1.425643	-0.140048	0.634031
C54	C	1.758977	0.193285	0.967365
C55	C	1.149887	-0.526715	0.237025
C56	C	1.483220	-0.193381	0.570358
C57	C	1.816554	0.139952	0.903691
C58	C	1.142483	-0.648637	0.245217
C59	C	1.475817	-0.315304	0.578550
C60	C	1.809150	0.018030	0.911883
C61	C	1.099713	-0.351448	0.292508
C62	C	1.433046	-0.018115	0.625841
C63	C	1.766379	0.315219	0.959174
C64	C	1.294443	-0.000051	0.278133
C65	C	1.627776	0.333283	0.611467
C66	C	1.961110	0.666616	0.944800
C67	C	1.399735	-0.000049	0.291035
C68	C	1.733069	0.333285	0.624369
C69	C	2.066402	0.666618	0.957702
C70	C	1.126953	-0.000052	0.061953
C71	C	1.460286	0.333281	0.395286
C72	C	1.793619	0.666615	0.728619
C73	C	1.124434	-0.000051	-0.064297
C74	C	1.457767	0.333282	0.269036
C75	C	1.791101	0.666616	0.602369
N76	N	1.136584	0.254178	0.251744
N77	N	1.469917	0.587512	0.585077
N78	N	1.803251	0.920845	0.918410
C79	C	1.119804	-0.000033	-0.295446
C80	C	1.453137	0.333301	0.037888
C81	C	1.786470	0.666634	0.371221
C82	C	1.122376	-0.000043	-0.166818
C83	C	1.455710	0.333291	0.166515
C84	C	1.789043	0.666624	0.499848
C85	C	1.115240	-0.000035	0.475775
C86	C	1.448574	0.333299	0.809108
C87	C	1.781907	0.666632	1.142441
C88	C	1.117759	-0.000029	0.602024
C89	C	1.451093	0.333304	0.935358
C90	C	1.784426	0.666638	1.268691
H91	H	0.618055	0.000030	0.134942
H92	H	0.951388	0.333364	0.468275
H93	H	1.284721	0.666697	0.801609
H94	H	1.037461	-0.519284	0.361359
H95	H	1.370794	-0.185950	0.694693
H96	H	1.704128	0.147383	1.028026
H97	H	0.624147	-0.000031	0.402778
H98	H	0.957481	0.333302	0.736111
H99	H	1.290814	0.666635	1.069444
H100	H	1.204741	-0.480807	0.176361
H101	H	1.538074	-0.147474	0.509694
H102	H	1.871407	0.185859	0.843028
