data_functionalizedCrystal
_audit_creation_method	'MofGen! by Chris Wilmer'
_symmetry_space_group_name_H-M	'P1'
_symmetry_Int_Tables_number	1
_symmetry_cell_setting	triclinic
loop_
_symmetry_equiv_pos_as_xyz
  x,y,z
_cell_length_a	15.297621
_cell_length_b	15.297327
_cell_length_c	16.625539
_cell_angle_alpha	80.352741
_cell_angle_beta	99.687197
_cell_angle_gamma	91.624289
loop_
_atom_site_label
_atom_site_type_symbol
_atom_site_fract_x
_atom_site_fract_y
_atom_site_fract_z
Zn1	Zn	-1.278684	0.580828	-0.743163
Zn2	Zn	-1.253219	0.727288	-0.627037
Zn3	Zn	-1.132204	0.555466	-0.581802
Zn4	Zn	-1.106827	0.701856	-0.735288
O5	O	-1.192733	0.641359	-0.671823
O6	O	-1.397873	0.621513	-0.749985
O7	O	-1.237129	0.704525	-0.508203
O8	O	-1.172913	0.436272	-0.587571
O9	O	-1.379164	0.729117	-0.664668
O10	O	-1.280531	0.454905	-0.706122
O11	O	-1.148221	0.578289	-0.474969
O12	O	-1.006271	0.553628	-0.579936
O13	O	-1.129661	0.685771	-0.849166
O14	O	-0.987626	0.661180	-0.692701
O15	O	-1.255923	0.596852	-0.854952
O16	O	-1.212522	0.846473	-0.657033
O17	O	-1.104969	0.827788	-0.736564
C18	C	-0.965168	0.601893	-0.630556
C19	C	-0.867810	0.585030	-0.612924
C20	C	-1.153252	0.868912	-0.700874
C21	C	-1.136442	0.966275	-0.713344
C22	C	-0.554583	0.761850	-0.797805
C23	C	-0.646054	0.777700	-0.814370
C24	C	-0.701498	0.729534	-0.764010
C25	C	-0.665461	0.665515	-0.697082
C26	C	-0.573981	0.649669	-0.680512
C27	C	-0.720895	0.617352	-0.646717
C28	C	-0.684859	0.553333	-0.579788
C29	C	-0.593387	0.537489	-0.563222
C30	C	-0.537943	0.585656	-0.613581
C31	C	-0.812376	0.633199	-0.663287
C32	C	-0.831773	0.521017	-0.545994
C33	C	-0.740302	0.505167	-0.529429
C34	C	-0.421189	0.680974	-0.713243
C35	C	-0.518546	0.697837	-0.730875
C36	C	-1.192802	0.641304	-0.882134
C37	C	-1.192831	0.641280	-0.971756
C38	C	-1.232393	0.412922	-0.642679
C39	C	-1.249294	0.315575	-0.630260
C40	C	-1.313240	1.279543	-0.583038
C41	C	-1.329033	1.188066	-0.571318
C42	C	-1.280887	1.132614	-0.606824
C43	C	-1.216944	1.168647	-0.654052
C44	C	-1.201144	1.260132	-0.665768
C45	C	-1.168791	1.113203	-0.689553
C46	C	-1.104848	1.149236	-0.736781
C47	C	-1.089051	1.240712	-0.748495
C48	C	-1.137198	1.296164	-0.712990
C49	C	-1.184591	1.021718	-0.677837
C50	C	-1.072495	1.002307	-0.760566
C51	C	-1.056702	1.093783	-0.772287
C52	C	-1.192888	0.641189	-1.299926
C53	C	-1.192869	0.641217	-1.208619
C54	C	-1.192860	0.641236	-1.135844
C55	C	-1.192840	0.641262	-1.044531
C56	C	-1.192727	0.641360	-0.462331
C57	C	-1.192910	0.641166	-0.372709
H58	H	-0.775977	0.742443	-0.777502
O59	O	-0.684925	0.846735	-0.886557
H60	H	-0.631008	0.877559	-0.918798
H61	H	-1.033289	0.957157	-0.789476
O62	O	-1.120166	1.394833	-0.725623
H63	H	-1.133683	1.421960	-0.792736
H64	H	-1.352428	1.324699	-0.554129
H65	H	-1.381095	1.158732	-0.532865
O66	O	-1.020079	1.279573	-0.799428
H67	H	-0.968325	1.313583	-0.760573
H68	H	-1.004638	1.123135	-0.810740
H69	H	-1.293749	1.058130	-0.597277
H70	H	-0.564048	0.485370	-0.508717
H71	H	-0.841707	0.685323	-0.717781
H72	H	-0.710948	0.453043	-0.474935
H73	H	-0.463460	0.572752	-0.600099
O74	O	-0.494798	0.813813	-0.852118
H75	H	-0.459928	0.767466	-0.880670
O76	O	-0.891560	0.469055	-0.491672
H77	H	-0.961224	0.490821	-0.514444
H78	H	-1.236654	0.992389	-0.639383
