data_functionalizedCrystal
_audit_creation_method	'MofGen! by Chris Wilmer'
_symmetry_space_group_name_H-M	'P1'
_symmetry_Int_Tables_number	1
_symmetry_cell_setting	triclinic
loop_
_symmetry_equiv_pos_as_xyz
  x,y,z
_cell_length_a	27.731994
_cell_length_b	27.732064
_cell_length_c	8.965430
_cell_angle_alpha	90.003865
_cell_angle_beta	89.991077
_cell_angle_gamma	97.364882
loop_
_atom_site_label
_atom_site_type_symbol
_atom_site_fract_x
_atom_site_fract_y
_atom_site_fract_z
O1	O	-0.057553	0.640911	-0.123747
O2	O	-0.066290	0.500117	-0.123805
O3	O	0.008477	0.574900	-0.123797
O4	O	-0.132320	0.566128	-0.123755
O5	O	0.008472	0.574894	0.124282
O6	O	-0.066295	0.500110	0.124274
O7	O	-0.057558	0.640904	0.124332
Cu8	Cu	-0.061927	0.570507	0.146954
Cu9	Cu	-0.061921	0.570514	-0.146428
O10	O	-0.132325	0.566121	0.124324
C11	C	-0.066108	0.482107	0.000227
C12	C	-0.065552	0.428453	0.000204
C13	C	-0.017584	0.051389	0.000274
C14	C	-0.019630	0.253049	0.000236
O15	O	0.017592	0.284309	0.000281
N16	N	-0.063966	0.272168	0.000243
C17	C	-0.107793	0.240868	0.000268
O18	O	-0.145550	0.261757	0.000288
C19	C	-0.105746	0.039209	0.000317
C20	C	-0.061407	0.020093	0.000296
C21	C	0.026751	0.032273	0.000255
C22	C	0.027262	-0.018139	0.000256
C23	C	-0.016562	-0.049435	0.000277
C24	C	-0.060896	-0.030319	0.000297
C25	C	-0.149572	0.007911	0.000354
C26	C	-0.149057	-0.042506	0.000370
C27	C	-0.104718	-0.061622	0.000348
C28	C	-0.104209	-0.112026	0.000320
N29	N	-0.059873	-0.131145	0.000313
C30	C	-0.016050	-0.099849	0.000292
C31	C	-0.108864	0.346743	0.000240
C32	C	-0.109376	0.397157	0.000225
C33	C	-0.021213	0.409334	0.000195
C34	C	-0.020702	0.358919	0.000200
C35	C	-0.064529	0.327624	0.000233
C36	C	-0.014980	-0.205719	0.000294
C37	C	-0.014473	-0.256136	0.000289
C38	C	-0.102635	-0.268308	0.000326
C39	C	-0.103142	-0.217896	0.000323
C40	C	-0.059311	-0.186602	0.000312
O41	O	-0.141411	-0.143314	0.000292
O42	O	0.021702	-0.120748	0.000305
C43	C	-0.018095	0.101801	0.000273
C44	C	-0.062430	0.120918	0.000293
C45	C	-0.106253	0.089622	0.000314
C46	C	-0.062941	0.171332	0.000278
C47	C	-0.019118	0.202628	0.000257
C48	C	0.025218	0.183509	0.000250
C49	C	0.025729	0.133097	0.000252
C50	C	-0.150589	0.108741	0.000320
C51	C	-0.151096	0.159154	0.000317
C52	C	-0.107273	0.190449	0.000296
C53	C	-0.150330	0.566304	0.000290
C54	C	-0.203986	0.566847	0.000307
C55	C	-0.536702	0.570266	-0.134985
C56	C	-0.738361	0.572327	-0.135006
O57	O	-0.764431	0.572617	-0.250013
N58	N	-0.763578	0.572580	0.000221
C59	C	-0.738378	0.572320	0.135463
O60	O	-0.764453	0.572587	0.250481
C61	C	-0.536720	0.570262	0.135482
C62	C	-0.511505	0.570005	0.000246
C63	C	-0.511488	0.570009	-0.270210
C64	C	-0.461077	0.569491	-0.270204
C65	C	-0.435880	0.569230	-0.134972
C66	C	-0.461094	0.569487	0.000253
C67	C	-0.511520	0.570006	0.270723
C68	C	-0.461102	0.569493	0.270716
C69	C	-0.435888	0.569235	0.135480
C70	C	-0.385486	0.568708	0.135491
N71	N	-0.360269	0.568455	0.000264
C72	C	-0.385465	0.568716	-0.134967
C73	C	-0.844251	0.573400	0.135443
C74	C	-0.894665	0.573913	0.135438
C75	C	-0.894645	0.573921	-0.135031
C76	C	-0.844230	0.573404	-0.135025
C77	C	-0.819033	0.573147	0.000216
C78	C	-0.279598	0.567628	-0.134943
C79	C	-0.229183	0.567108	-0.134925
C80	C	-0.229208	0.567103	0.135544
C81	C	-0.279619	0.567620	0.135526
C82	C	-0.304813	0.567884	0.000271
O83	O	-0.359384	0.568423	0.250437
O84	O	-0.359380	0.568460	-0.249969
C85	C	-0.587113	0.570784	-0.134992
C86	C	-0.612328	0.571041	0.000233
C87	C	-0.587131	0.570780	0.135465
C88	C	-0.662742	0.571554	0.000229
C89	C	-0.687939	0.571815	-0.135003
C90	C	-0.662721	0.571563	-0.270230
C91	C	-0.612310	0.571045	-0.270224
C92	C	-0.612349	0.571032	0.270692
C93	C	-0.662760	0.571550	0.270674
C94	C	-0.687957	0.571811	0.135442
C95	C	0.026482	0.574717	0.000234
C96	C	0.080138	0.574174	0.000207
C97	C	-0.057740	0.658914	0.000297
C98	C	-0.058296	0.712569	0.000310
N99	N	-0.061931	0.570505	0.353304
N100	N	-0.061914	0.570520	-0.352777
C101	C	-0.096497	0.535910	0.450606
C102	C	-0.105553	0.579519	0.550041
C103	C	-0.052879	0.526914	0.549996
C104	C	-0.071009	0.614136	0.450550
C105	C	-0.018315	0.561503	0.450496
C106	C	-0.027353	0.605144	0.549886
H107	H	0.062439	0.057749	0.000242
H108	H	-0.078702	0.651014	0.407051
C109	C	-0.198798	0.074319	0.000332
C110	C	-0.210580	0.037988	0.129152
C111	C	-0.258793	0.003567	0.129153
C112	C	-0.295222	0.005478	0.000334
C113	C	-0.283441	0.041811	-0.128495
C114	C	-0.235229	0.076231	-0.128496
H115	H	-0.183612	0.036572	0.224520
H116	H	-0.267514	-0.023329	0.224522
H117	H	-0.330912	-0.020002	0.000335
H118	H	-0.310409	0.043226	-0.223863
H119	H	-0.226507	0.103127	-0.223865
H120	H	-0.144555	0.321266	0.000265
H121	H	-0.184747	-0.067985	0.000404
H122	H	0.001888	0.634438	0.593205
C123	C	-0.136019	0.496424	0.391696
C124	C	-0.189782	0.498420	0.431038
C125	C	-0.229304	0.458937	0.372125
C126	C	-0.215063	0.417457	0.273870
C127	C	-0.161298	0.415459	0.234523
C128	C	-0.121776	0.454942	0.293436
H129	H	-0.200325	0.529127	0.503776
H130	H	-0.269104	0.460416	0.401253
H131	H	-0.244320	0.388229	0.230260
H132	H	-0.150754	0.384752	0.161785
H133	H	-0.081975	0.453463	0.264308
H134	H	-0.142431	0.587144	0.593765
C135	C	0.073425	0.217940	0.000231
C136	C	0.109865	0.216037	-0.128597
C137	C	0.158069	0.250470	-0.128607
C138	C	0.169832	0.286807	0.000213
C139	C	0.133391	0.288712	0.129051
C140	C	0.085187	0.254278	0.129060
H141	H	0.101159	0.189137	-0.223966
H142	H	0.185046	0.249060	-0.223982
H143	H	0.205516	0.312297	0.000206
H144	H	0.142097	0.315612	0.224419
H145	H	0.058210	0.255688	0.224435
C146	C	-0.042539	0.477105	0.608994
C147	C	0.005239	0.457572	0.567483
C148	C	0.015574	0.407761	0.626469
C149	C	-0.021870	0.377483	0.726967
C150	C	-0.069652	0.397016	0.768484
C151	C	-0.079987	0.446827	0.709497
H152	H	0.032960	0.479985	0.493084
H153	H	0.050945	0.393302	0.595736
H154	H	-0.014220	0.340610	0.770633
H155	H	-0.097373	0.374603	0.842883
H156	H	-0.115358	0.461287	0.740231
C157	C	0.031487	0.551185	0.391366
C158	C	0.077800	0.585315	0.432732
C159	C	0.127601	0.574991	0.373599
C160	C	0.131090	0.530537	0.273100
C161	C	0.084775	0.496404	0.231729
C162	C	0.034974	0.506728	0.290862
H163	H	0.075219	0.618225	0.507132
H164	H	0.161887	0.600258	0.404226
H165	H	0.167956	0.522894	0.229327
H166	H	0.087356	0.463494	0.157329
H167	H	0.000689	0.481461	0.260236
H168	H	-0.300152	0.567811	0.245647
H169	H	-0.185677	0.023466	0.000364
H170	H	0.021635	-0.271697	0.000268
H171	H	0.020712	-0.180244	0.000284
C172	C	-0.151912	-0.196862	0.000329
C173	C	-0.188210	-0.208814	0.129162
C174	C	-0.236979	-0.187782	0.129182
C175	C	-0.249451	-0.154798	0.000369
C176	C	-0.213152	-0.142844	-0.128473
C177	C	-0.164383	-0.163876	-0.128493
H178	H	-0.178978	-0.233232	0.224525
H179	H	-0.263850	-0.196631	0.224560
H180	H	-0.285553	-0.139229	0.000384
H181	H	-0.222383	-0.118426	-0.223836
H182	H	-0.137512	-0.155027	-0.223871
C183	C	-0.150839	-0.302741	0.000357
C184	C	-0.162608	-0.339083	-0.128443
C185	C	-0.210812	-0.373517	-0.128399
C186	C	-0.247246	-0.371609	0.000446
C187	C	-0.235477	-0.335264	0.129256
C188	C	-0.187273	-0.300830	0.129211
H189	H	-0.135637	-0.340498	-0.223831
H190	H	-0.219524	-0.400422	-0.223753
H191	H	-0.282929	-0.397099	0.000479
H192	H	-0.262448	-0.333850	0.224643
H193	H	-0.178562	-0.273926	0.224566
C194	C	0.074502	0.112074	0.000241
C195	C	0.086982	0.079098	0.129064
C196	C	0.135759	0.058080	0.129056
C197	C	0.172056	0.070038	0.000225
C198	C	0.159577	0.103016	-0.128607
C199	C	0.110801	0.124034	-0.128600
H200	H	0.060112	0.070245	0.224440
H201	H	0.144996	0.033668	0.224427
H202	H	0.208163	0.054480	0.000220
H203	H	0.186447	0.111870	-0.223984
H204	H	0.101563	0.148446	-0.223971
C205	C	0.076036	-0.039161	0.000247
C206	C	0.112327	-0.027192	0.129059
C207	C	0.161105	-0.048208	0.129054
C208	C	0.173592	-0.081193	0.000237
C209	C	0.137300	-0.093163	-0.128584
C210	C	0.088523	-0.072147	-0.128579
H211	H	0.103084	-0.002773	0.224425
H212	H	0.187970	-0.039346	0.224417
H213	H	0.209700	-0.096750	0.000234
H214	H	0.146543	-0.117582	-0.223951
H215	H	0.061657	-0.081009	-0.223942
H216	H	-0.187205	0.174712	0.000324
H217	H	0.015402	0.343358	0.000183
H218	H	0.014470	0.434824	0.000173
H219	H	-0.915169	0.574130	-0.245142
H220	H	-0.145481	0.412716	0.000222
H221	H	-0.208656	0.566897	-0.245055
H222	H	-0.300105	0.567844	-0.245081
H223	H	-0.531997	0.570223	-0.380338
H224	H	-0.440551	0.569285	-0.380327
H225	H	-0.915192	0.574114	0.245561
H226	H	-0.823704	0.573193	-0.245146
H227	H	-0.532040	0.570221	0.380847
H228	H	-0.823741	0.573190	0.245579
H229	H	-0.208684	0.566888	0.245646
H230	H	-0.440590	0.569284	0.380848
H231	H	-0.591785	0.570835	-0.380347
H232	H	-0.683246	0.571772	-0.380341
H233	H	-0.683286	0.571755	0.380808
H234	H	-0.591838	0.570821	0.380816
