data_functionalizedCrystal
_audit_creation_method	'MofGen! by Chris Wilmer'
_symmetry_space_group_name_H-M	'P1'
_symmetry_Int_Tables_number	1
_symmetry_cell_setting	triclinic
loop_
_symmetry_equiv_pos_as_xyz
  x,y,z
_cell_length_a	16.109318
_cell_length_b	19.188930
_cell_length_c	17.666332
_cell_angle_alpha	90.013385
_cell_angle_beta	89.997725
_cell_angle_gamma	83.306672
loop_
_atom_site_label
_atom_site_type_symbol
_atom_site_fract_x
_atom_site_fract_y
_atom_site_fract_z
O1	O	1.102821	0.089806	0.062894
O2	O	0.860724	0.100962	0.062910
O3	O	0.988759	-0.006255	0.062887
O4	O	0.974786	0.197023	0.062918
O5	O	0.988757	-0.006266	-0.063010
O6	O	0.860722	0.100951	-0.062986
O7	O	1.102819	0.089795	-0.063003
Cu8	Cu	0.981770	0.095372	-0.074490
Cu9	Cu	0.981773	0.095385	0.074398
O10	O	0.974784	0.197012	-0.062979
C11	C	0.829750	0.100503	-0.000036
C12	C	0.737460	0.099141	-0.000030
C13	C	0.438402	0.094751	0.068582
C14	C	0.525119	0.096026	0.068587
C15	C	0.525135	0.096004	-0.068673
C16	C	0.438421	0.094725	-0.068677
C17	C	0.395055	0.094102	-0.000047
C18	C	0.568487	0.096655	-0.000038
C19	C	0.662510	0.098037	-0.000034
C20	C	0.301027	0.092719	-0.000052
C21	C	0.988305	-0.032272	-0.000064
C22	C	0.986947	-0.109780	-0.000070
C23	C	1.062074	-0.154525	-0.000079
C24	C	1.060797	-0.227351	-0.000066
C25	C	0.984390	-0.255431	-0.000061
C26	C	0.909254	-0.210676	-0.000048
C27	C	0.910532	-0.137851	-0.000052
N28	N	0.925986	-0.363579	-0.042902
N29	N	0.924776	-0.432760	-0.042899
C30	C	0.980535	-0.474848	-0.000045
N31	N	1.037560	-0.445143	0.042796
N32	N	1.038772	-0.375955	0.042790
C33	C	0.982996	-0.334396	-0.000055
C34	C	1.054283	-0.598561	-0.000040
C35	C	1.053003	-0.671388	-0.000023
C36	C	0.901458	-0.654712	-0.000012
C37	C	0.902739	-0.581885	-0.000021
C38	C	0.979154	-0.553815	-0.000038
C39	C	1.133793	0.090255	-0.000055
C40	C	1.226083	0.091616	-0.000055
C41	C	0.975237	0.223030	-0.000027
C42	C	0.976596	0.300537	-0.000016
N43	N	0.981774	0.095362	-0.179209
N44	N	0.981775	0.095390	0.179117
C45	C	1.038579	0.047992	0.781157
C46	C	1.038577	0.047991	0.701909
C47	C	0.981778	0.095371	0.662299
C48	C	0.924962	0.142745	0.701942
C49	C	0.924960	0.142740	0.781188
N50	N	0.970819	0.157152	0.537895
N51	N	0.970826	0.157154	0.462615
C52	C	0.981778	0.095387	0.423535
N53	N	0.992740	0.033616	0.462579
N54	N	0.992738	0.033614	0.537866
C55	C	0.981773	0.095381	0.576369
C56	C	1.038584	0.048012	0.297971
C57	C	1.038576	0.048009	0.218722
C58	C	0.924965	0.142770	0.218757
C59	C	0.924969	0.142766	0.298004
C60	C	0.981783	0.095388	0.337607
H61	H	1.124296	-0.131674	-0.000090
O62	O	0.567245	0.096489	-0.135355
C63	C	0.555681	0.035747	-0.177120
H64	H	0.538574	-0.006838	-0.136970
H65	H	0.503175	0.048660	-0.219914
C66	C	0.658100	0.061780	-0.268484
C67	C	0.637095	0.009474	-0.219170
H68	H	0.708318	0.045575	-0.294425
H69	H	0.665889	0.102705	-0.240348
H70	H	0.614338	0.072536	-0.304138
H71	H	0.680852	-0.001275	-0.183510
H72	H	0.629315	-0.031453	-0.247301
H73	H	1.121977	-0.263789	-0.000071
H74	H	0.878715	0.181345	0.186506
O75	O	0.869763	0.188855	0.336392
C76	C	0.819614	0.230663	0.284440
H77	H	0.853687	0.231521	0.227950
H78	H	0.758006	0.207869	0.276007
C79	C	0.760183	0.304912	0.384775
C80	C	0.802034	0.305971	0.315395
H81	H	0.749335	0.351365	0.403870
H82	H	0.793966	0.276744	0.419776
H83	H	0.708847	0.285913	0.377738
H84	H	0.853373	0.324961	0.322435
H85	H	0.768259	0.334144	0.280395
H86	H	0.560408	0.096554	0.124471
H87	H	0.839246	-0.677573	-0.000003
O88	O	1.126042	-0.714784	0.000071
C89	C	1.172448	-0.702051	0.065273
H90	H	1.151832	-0.646798	0.087008
H91	H	1.161232	-0.741868	0.110938
C92	C	1.291459	-0.776854	0.018756
C93	C	1.266143	-0.708989	0.045447
H94	H	1.349255	-0.781137	0.006528
H95	H	1.260194	-0.785435	-0.025171
H96	H	1.282106	-0.810028	0.056814
H97	H	1.275486	-0.675818	0.007386
H98	H	1.297412	-0.700403	0.089368
O99	O	0.396186	0.094057	-0.135280
C100	C	0.310349	0.092807	-0.120565
H101	H	0.302026	0.070555	-0.061583
H102	H	0.276811	0.148422	-0.123819
C103	C	0.283355	0.073704	-0.252210
C104	C	0.273133	0.046368	-0.179771
H105	H	0.260397	0.045061	-0.288733
H106	H	0.341184	0.074549	-0.262125
H107	H	0.255407	0.120049	-0.254911
H108	H	0.301089	0.000028	-0.177068
H109	H	0.215307	0.045514	-0.169857
O110	O	0.396410	0.094114	0.135313
C111	C	0.453266	0.094978	0.195887
H112	H	0.518603	0.073794	0.175768
H113	H	0.453563	0.151097	0.216994
C114	C	0.346463	0.074748	0.285433
C115	C	0.426710	0.048724	0.260724
H116	H	0.330081	0.046220	0.325429
H117	H	0.308157	0.074169	0.244624
H118	H	0.346721	0.121514	0.303017
H119	H	0.426449	0.001964	0.243132
H120	H	0.465015	0.049295	0.301532
O121	O	0.835084	-0.238032	0.000057
C122	C	0.829806	-0.279629	0.065271
H123	H	0.895402	-0.297772	0.087003
H124	H	0.792908	-0.247438	0.110932
C125	C	0.704706	-0.321761	0.018780
C126	C	0.785272	-0.344049	0.045468
H127	H	0.677232	-0.361497	0.006566
H128	H	0.708260	-0.293735	-0.025155
H129	H	0.673969	-0.294935	0.056835
H130	H	0.816011	-0.370867	0.007409
H131	H	0.781723	-0.372082	0.089396
H132	H	0.849353	-0.101419	-0.000046
H133	H	1.116504	-0.575704	-0.000050
O134	O	0.829683	-0.538516	-0.000056
C135	C	0.761969	-0.578913	-0.000029
H136	H	0.783270	-0.633276	-0.023861
H137	H	0.738535	-0.584077	0.060372
C138	C	0.664719	-0.475857	-0.020129
C139	C	0.690880	-0.542626	-0.049406
H140	H	0.620867	-0.453473	-0.050584
H141	H	0.710339	-0.448641	-0.020144
H142	H	0.645197	-0.480170	0.030204
H143	H	0.710412	-0.538312	-0.099735
H144	H	0.645262	-0.569841	-0.049400
H145	H	0.878702	0.181315	0.813459
H146	H	1.084838	0.009412	0.813399
O147	O	1.093836	0.001944	0.663515
C148	C	1.143961	-0.039889	0.715463
H149	H	1.144733	-0.011260	0.771962
H150	H	1.117283	-0.091820	0.723876
C151	C	1.232760	-0.089273	0.615129
C152	C	1.233714	-0.054107	0.684520
H153	H	1.288124	-0.098046	0.596042
H154	H	1.198989	-0.061091	0.580130
H155	H	1.210525	-0.132545	0.622149
H156	H	1.255940	-0.010832	0.677498
H157	H	1.267492	-0.082282	0.719518
H158	H	0.878714	0.181322	0.669687
O159	O	1.093795	0.001918	0.336329
C160	C	1.143942	-0.039887	0.284349
H161	H	1.109868	-0.040740	0.227861
H162	H	1.205551	-0.017093	0.275925
C163	C	1.203373	-0.114145	0.384635
C164	C	1.161520	-0.115197	0.315257
H165	H	1.214220	-0.160599	0.403701
H166	H	1.169590	-0.085978	0.419656
H167	H	1.254709	-0.095146	0.377605
H168	H	1.110181	-0.134187	0.322290
H169	H	1.195294	-0.143369	0.280238
H170	H	1.084831	0.009431	0.186452
