data_functionalizedCrystal
_audit_creation_method	'MofGen! by Chris Wilmer'
_symmetry_space_group_name_H-M	'P1'
_symmetry_Int_Tables_number	1
_symmetry_cell_setting	triclinic
loop_
_symmetry_equiv_pos_as_xyz
  x,y,z
_cell_length_a	10.967874
_cell_length_b	10.967829
_cell_length_c	18.366186
_cell_angle_alpha	77.865925
_cell_angle_beta	77.862272
_cell_angle_gamma	82.165976
loop_
_atom_site_label
_atom_site_type_symbol
_atom_site_fract_x
_atom_site_fract_y
_atom_site_fract_z
O1	O	1.657253	0.175044	-0.290450
O2	O	1.990586	0.508378	0.042883
O3	O	2.323920	0.841711	0.376216
O4	O	1.294090	0.191795	-0.246987
O5	O	1.627423	0.525129	0.086347
O6	O	1.960757	0.858462	0.419680
O7	O	1.484043	0.001840	-0.246983
O8	O	1.817376	0.335174	0.086351
O9	O	2.150709	0.668507	0.419684
O10	O	1.467300	0.364999	-0.290455
O11	O	1.800633	0.698333	0.042879
O12	O	2.133967	1.031666	0.376212
O13	O	1.484010	0.001831	-0.125878
O14	O	1.817343	0.335164	0.207456
O15	O	2.150677	0.668497	0.540789
O16	O	1.294057	0.191786	-0.125882
O17	O	1.627391	0.525119	0.207451
O18	O	1.960724	0.858452	0.540785
O19	O	1.657220	0.175035	-0.169346
O20	O	1.990554	0.508368	0.163988
O21	O	2.323887	0.841701	0.497321
Zn22	Zn	1.475634	0.183409	-0.128386
Zn23	Zn	1.808967	0.516742	0.204947
Zn24	Zn	2.142300	0.850075	0.538281
Zn25	Zn	1.475677	0.183421	-0.287947
Zn26	Zn	1.809010	0.516755	0.045387
Zn27	Zn	2.142343	0.850088	0.378720
O28	O	1.467267	0.364990	-0.169350
O29	O	1.800601	0.698323	0.163983
O30	O	2.133934	1.031656	0.497317
C31	C	1.247572	0.190571	-0.180447
C32	C	1.580906	0.523904	0.152886
C33	C	1.914239	0.857238	0.486220
C34	C	1.109014	0.186922	-0.162604
C35	C	1.442347	0.520255	0.170729
C36	C	1.775681	0.853589	0.504062
C37	C	1.482806	-0.044665	-0.180443
C38	C	1.816139	0.288668	0.152890
C39	C	2.149472	0.622002	0.486223
C40	C	1.479154	-0.183222	-0.162602
C41	C	1.812487	0.150111	0.170731
C42	C	2.145820	0.483445	0.504065
C43	C	1.047257	0.185300	-0.217385
C44	C	1.380591	0.518634	0.115948
C45	C	1.713924	0.851967	0.449281
C46	C	0.904050	0.181529	-0.198946
C47	C	1.237383	0.514863	0.134388
C48	C	1.570716	0.848196	0.467721
C49	C	1.477542	-0.244984	-0.217385
C50	C	1.810876	0.088350	0.115949
C51	C	2.144209	0.421683	0.449282
C52	C	1.473768	-0.388190	-0.198946
C53	C	1.807101	-0.054856	0.134387
C54	C	2.140434	0.278477	0.467720
C55	C	1.703738	0.176259	-0.235887
C56	C	2.037071	0.509592	0.097446
C57	C	2.370404	0.842926	0.430780
C58	C	1.842296	0.179908	-0.253735
C59	C	2.175630	0.513241	0.079599
C60	C	2.508963	0.846574	0.412932
C61	C	1.468504	0.411495	-0.235891
C62	C	1.801838	0.744828	0.097442
C63	C	2.135171	1.078162	0.430776
C64	C	1.472157	0.550052	-0.253737
C65	C	1.805490	0.883385	0.079597
C66	C	2.138823	1.216719	0.412930
N67	N	1.475613	0.183399	-0.019491
N68	N	1.808947	0.516732	0.313842
N69	N	2.142280	0.850066	0.647176
N70	N	1.475707	0.183421	-0.396841
N71	N	1.809040	0.516754	-0.063508
N72	N	2.142373	0.850088	0.269825
C73	C	1.559753	0.099329	0.018602
C74	C	1.893086	0.432662	0.351936
C75	C	2.226419	0.765996	0.685269
C76	C	1.559760	0.099323	0.094830
C77	C	1.893094	0.432657	0.428163
C78	C	2.226427	0.765990	0.761497
C79	C	1.475641	0.183410	0.132957
C80	C	1.808974	0.516743	0.466290
C81	C	2.142308	0.850076	0.799624
C82	C	1.391486	0.267486	0.094855
C83	C	1.724819	0.600819	0.428189
C84	C	2.058153	0.934153	0.761522
C85	C	1.391472	0.267481	0.018632
C86	C	1.724805	0.600814	0.351965
C87	C	2.058139	0.934147	0.685298
C88	C	1.460267	0.296924	0.241401
C89	C	1.793601	0.630258	0.574734
C90	C	2.126934	0.963591	0.908068
C91	C	1.460290	0.296931	0.317622
C92	C	1.793623	0.630265	0.650956
C93	C	2.126957	0.963598	0.984289
C94	C	1.475677	0.183426	0.368058
C95	C	1.809010	0.516759	0.701391
C96	C	2.142343	0.850092	1.034725
C97	C	1.491067	0.069908	0.342260
C98	C	1.824401	0.403241	0.675593
C99	C	2.157734	0.736575	1.008927
C100	C	1.491053	0.069903	0.266036
C101	C	1.824387	0.403236	0.599369
C102	C	2.157720	0.736570	0.932703
C103	C	1.475646	0.183424	0.215609
C104	C	1.808980	0.516758	0.548942
C105	C	2.142313	0.850091	0.882276
C106	C	1.559829	0.099343	0.488806
C107	C	1.893162	0.432676	0.822140
C108	C	2.226496	0.766009	1.155473
C109	C	1.559828	0.099335	0.565037
C110	C	1.893162	0.432669	0.898370
C111	C	2.226495	0.766002	1.231703
C112	C	1.391560	0.267509	0.565058
C113	C	1.724893	0.600842	0.898392
C114	C	2.058226	0.934176	1.231725
C115	C	1.391555	0.267505	0.488832
C116	C	1.724888	0.600839	0.822165
C117	C	2.058221	0.934172	1.155498
C118	C	1.475696	0.183424	0.450709
C119	C	1.809029	0.516757	0.784043
C120	C	2.142363	0.850090	1.117376
H121	H	1.100405	0.186711	-0.277938
H122	H	1.433738	0.520044	0.055396
H123	H	1.767072	0.853377	0.388729
Br124	Br	1.673958	-0.014783	0.146538
Br125	Br	2.007291	0.318550	0.479871
Br126	Br	2.340624	0.651884	0.813205
H127	H	0.895437	0.181320	-0.314291
H128	H	1.228771	0.514653	0.019042
H129	H	1.562104	0.847986	0.352375
H130	H	1.478952	-0.191840	-0.277936
H131	H	1.812285	0.141493	0.055398
H132	H	2.145619	0.474826	0.388731
H133	H	1.473557	-0.396810	-0.314291
H134	H	1.806890	-0.063477	0.019042
H135	H	2.140224	0.269857	0.352376
H136	H	1.503596	-0.022519	0.383324
H137	H	1.836929	0.310814	0.716658
H138	H	2.170263	0.644147	1.049991
Br139	Br	1.511928	-0.084148	0.231027
Br140	Br	1.845261	0.249185	0.564360
Br141	Br	2.178594	0.582519	0.897694
H142	H	1.477731	-0.236364	-0.102050
H143	H	1.811064	0.096970	0.231284
H144	H	2.144397	0.430303	0.564617
Br145	Br	1.673936	-0.014783	-0.033135
Br146	Br	2.007270	0.318551	0.300198
Br147	Br	2.340603	0.651884	0.633532
Br148	Br	0.815481	0.179205	-0.098016
Br149	Br	1.148815	0.512539	0.235317
Br150	Br	1.482148	0.845872	0.568651
Br151	Br	1.277313	0.381596	0.146598
Br152	Br	1.610647	0.714929	0.479932
Br153	Br	1.943980	1.048262	0.813265
H154	H	1.628338	0.030874	0.457767
H155	H	1.961672	0.364208	0.791100
H156	H	2.295005	0.697541	1.124433
H157	H	1.055864	0.185526	-0.102054
H158	H	1.389198	0.518859	0.231280
H159	H	1.722531	0.852192	0.564613
Br160	Br	1.471394	-0.476744	-0.098013
Br161	Br	1.804728	-0.143411	0.235320
Br162	Br	2.138061	0.189922	0.568653
H163	H	1.628341	0.030869	0.596054
H164	H	1.961674	0.364202	0.929387
H165	H	2.295007	0.697535	1.262721
Br166	Br	1.277383	0.381614	0.616799
Br167	Br	1.610717	0.714947	0.950132
Br168	Br	1.944050	1.048280	1.283466
H169	H	1.323045	0.335968	0.457813
H170	H	1.656379	0.669301	0.791146
H171	H	1.989712	1.002635	1.124479
H172	H	1.447766	0.389364	0.338619
H173	H	1.781099	0.722697	0.671953
H174	H	2.114433	1.056031	1.005286
H175	H	1.447716	0.389360	0.200343
H176	H	1.781049	0.722694	0.533677
H177	H	2.114383	1.056027	0.867010
H178	H	1.322954	0.335942	-0.012385
H179	H	1.656287	0.669275	0.320949
H180	H	1.989621	1.002609	0.654282
