data_functionalizedCrystal
_audit_creation_method	'MofGen! by Chris Wilmer'
_symmetry_space_group_name_H-M	'P1'
_symmetry_Int_Tables_number	1
_symmetry_cell_setting	triclinic
loop_
_symmetry_equiv_pos_as_xyz
  x,y,z
_cell_length_a	16.959454
_cell_length_b	16.959455
_cell_length_c	16.959447
_cell_angle_alpha	89.982150
_cell_angle_beta	90.026818
_cell_angle_gamma	89.985155
loop_
_atom_site_label
_atom_site_type_symbol
_atom_site_fract_x
_atom_site_fract_y
_atom_site_fract_z
Zn1	Zn	-0.314776	-1.208404	0.446947
Zn2	Zn	0.185224	-0.708404	0.946947
Zn3	Zn	-0.446968	-1.208321	0.314777
Zn4	Zn	0.053032	-0.708321	0.814777
Zn5	Zn	-0.314796	-1.076227	0.314783
Zn6	Zn	0.185204	-0.576227	0.814783
Zn7	Zn	-0.446904	-1.076197	0.446914
Zn8	Zn	0.053096	-0.576197	0.946914
O9	O	-0.380861	-1.142287	0.380855
O10	O	0.119139	-0.642287	0.880855
O11	O	-0.332330	-1.319004	0.429427
O12	O	0.167670	-0.819004	0.929427
O13	O	-0.429470	-1.190775	0.204167
O14	O	0.070530	-0.690775	0.704167
O15	O	-0.204182	-1.093807	0.332331
O16	O	0.295818	-0.593807	0.832331
O17	O	-0.429451	-1.318943	0.332322
O18	O	0.070549	-0.818943	0.832322
O19	O	-0.204167	-1.190918	0.429432
O20	O	0.295833	-0.690918	0.929432
O21	O	-0.332364	-1.093726	0.204171
O22	O	0.167636	-0.593726	0.704171
O23	O	-0.332301	-0.965612	0.332299
O24	O	0.167699	-0.465612	0.832299
O25	O	-0.429342	-1.093758	0.557529
O26	O	0.070658	-0.593758	1.057529
O27	O	-0.429361	-0.965590	0.429374
O28	O	0.070639	-0.465590	0.929374
O29	O	-0.332267	-1.190889	0.557554
O30	O	0.167733	-0.690889	1.057554
O31	O	-0.557571	-1.190747	0.332289
O32	O	-0.057571	-0.690747	0.832289
O33	O	-0.557523	-1.093677	0.429369
O34	O	-0.057523	-0.593677	0.929369
C35	C	-0.380827	-0.936921	0.380834
C36	C	0.119173	-0.436921	0.880834
C37	C	-0.380832	-0.849064	0.380844
C38	C	0.119168	-0.349064	0.880844
C39	C	-0.330255	-0.477576	0.330403
C40	C	0.169745	0.022424	0.830403
C41	C	-0.431481	-0.477602	0.431332
C42	C	0.068519	0.022398	0.931332
C43	C	-0.431473	-0.560148	0.431328
C44	C	0.068527	-0.060148	0.931328
C45	C	-0.380856	-0.601411	0.380861
C46	C	0.119144	-0.101411	0.880861
C47	C	-0.330247	-0.560129	0.330396
C48	C	0.169753	-0.060129	0.830396
C49	C	-0.482086	-0.601436	0.481786
C50	C	0.017914	-0.101436	0.981786
C51	C	-0.482081	-0.683987	0.481784
C52	C	0.017919	-0.183987	0.981784
C53	C	-0.431459	-0.725252	0.431320
C54	C	0.068541	-0.225252	0.931320
C55	C	-0.380848	-0.683965	0.380854
C56	C	0.119152	-0.183965	0.880854
C57	C	-0.330231	-0.725228	0.330386
C58	C	0.169769	-0.225228	0.830386
C59	C	-0.279615	-0.683943	0.279924
C60	C	0.220385	-0.183943	0.779924
C61	C	-0.279626	-0.601394	0.279932
C62	C	0.220374	-0.101394	0.779932
C63	C	-0.431448	-0.807801	0.431311
C64	C	0.068552	-0.307801	0.931311
C65	C	-0.330223	-0.807782	0.330379
C66	C	0.169777	-0.307782	0.830379
C67	C	-0.586227	-1.142221	0.380842
C68	C	-0.086227	-0.642221	0.880842
C69	C	-0.674084	-1.142265	0.380863
C70	C	-0.174084	-0.642265	0.880863
C71	C	-1.045565	-1.091816	0.431399
C72	C	-0.545565	-0.591816	0.931399
C73	C	-1.045554	-1.192979	0.330392
C74	C	-0.545554	-0.692979	0.830392
C75	C	-0.963008	-1.192951	0.330384
C76	C	-0.463008	-0.692951	0.830384
C77	C	-0.921737	-1.142354	0.380885
C78	C	-0.421737	-0.642354	0.880885
C79	C	-0.963011	-1.091785	0.431392
C80	C	-0.463011	-0.591785	0.931392
C81	C	-0.921727	-1.243514	0.279872
C82	C	-0.421727	-0.743514	0.779872
C83	C	-0.839176	-1.243487	0.279862
C84	C	-0.339176	-0.743487	0.779862
C85	C	-0.797904	-1.192894	0.330367
C86	C	-0.297904	-0.692894	0.830367
C87	C	-0.839183	-1.142323	0.380877
C88	C	-0.339183	-0.642323	0.880877
C89	C	-0.797912	-1.091727	0.431377
C90	C	-0.297912	-0.591727	0.931377
C91	C	-0.839190	-1.041160	0.481892
C92	C	-0.339190	-0.541160	0.981892
C93	C	-0.921738	-1.041192	0.481897
C94	C	-0.421738	-0.541192	0.981897
C95	C	-0.715355	-1.192862	0.330362
C96	C	-0.215355	-0.692862	0.830362
C97	C	-0.715358	-1.091696	0.431370
C98	C	-0.215358	-0.591696	0.931370
C99	C	-0.174693	-1.142375	0.380886
C100	C	0.325307	-0.642375	0.880886
C101	C	-0.086836	-1.142413	0.380899
C102	C	0.413164	-0.642413	0.880899
C103	C	-0.380795	-1.142330	0.587024
C104	C	0.119205	-0.642330	1.087024
C105	C	-0.380767	-1.142348	0.674880
C106	C	0.119233	-0.642348	1.174880
C107	C	-0.380886	-0.348455	0.380873
C108	C	0.119114	0.151545	0.880873
C109	C	-0.380872	-0.436312	0.380871
C110	C	0.119128	0.063688	0.880871
C111	C	-0.380869	-1.142291	0.175489
C112	C	0.119131	-0.642291	0.675489
C113	C	-0.380675	-1.142426	0.087633
C114	C	0.119325	-0.642426	0.587633
C115	C	-0.330125	-1.091888	1.046365
C116	C	0.169875	-0.591888	1.546365
C117	C	-0.431243	-1.192946	1.046348
C118	C	0.068757	-0.692946	1.546348
C119	C	-0.431261	-1.192932	0.963802
C120	C	0.068739	-0.692932	1.463802
C121	C	-0.380712	-1.142395	0.922533
C122	C	0.119288	-0.642395	1.422533
C123	C	-0.330143	-1.091871	0.963811
C124	C	0.169857	-0.591871	1.463811
C125	C	-0.481834	-1.243449	0.922518
C126	C	0.018166	-0.743449	1.422518
C127	C	-0.481855	-1.243437	0.839967
C128	C	0.018145	-0.743437	1.339967
C129	C	-0.431301	-1.192903	0.798697
C130	C	0.068699	-0.692903	1.298697
C131	C	-0.380730	-1.142378	0.839980
C132	C	0.119270	-0.642378	1.339980
C133	C	-0.330180	-1.091841	0.798711
C134	C	0.169820	-0.591841	1.298711
C135	C	-0.279605	-1.041319	0.839993
C136	C	0.220395	-0.541319	1.339993
C137	C	-0.279589	-1.041337	0.922541
C138	C	0.220411	-0.541337	1.422541
C139	C	-0.431317	-1.192885	0.716149
C140	C	0.068683	-0.692885	1.216149
C141	C	-0.330199	-1.091824	0.716158
C142	C	0.169801	-0.591824	1.216158
H143	H	-0.523295	-0.717595	0.522874
H144	H	-0.023295	-0.217595	1.022874
C145	C	-0.223939	-0.729338	0.224413
C146	C	0.276061	-0.229338	0.724413
H147	H	-0.231186	-0.784413	0.231642
H148	H	0.268814	-0.284413	0.731642
H149	H	-0.235437	-0.715787	0.171285
H150	H	0.264563	-0.215787	0.671285
H151	H	-0.170842	-0.715829	0.236080
H152	H	0.329158	-0.215829	0.736080
H153	H	-0.523301	-0.567834	0.522869
H154	H	-0.023301	-0.067834	1.022869
H155	H	-0.238414	-1.000204	0.956160
H156	H	0.261586	-0.500204	1.456160
C157	C	-0.486943	-1.248448	0.670739
C158	C	0.013057	-0.748448	1.170739
H159	H	-0.479717	-1.241198	0.615665
H160	H	0.020283	-0.741198	1.115665
H161	H	-0.475388	-1.301565	0.684277
H162	H	0.024612	-0.801565	1.184277
H163	H	-0.540048	-1.236848	0.684252
H164	H	-0.040048	-0.736848	1.184252
C165	C	-0.793778	-1.299115	0.224307
C166	C	-0.293778	-0.799115	0.724307
H167	H	-0.830181	-1.329256	0.194237
H168	H	-0.330181	-0.829256	0.694237
H169	H	-0.761608	-1.268894	0.189836
H170	H	-0.261608	-0.768894	0.689836
H171	H	-0.761543	-1.333528	0.254582
H172	H	-0.261543	-0.833528	0.754582
H173	H	-0.238451	-1.000168	0.806381
H174	H	0.261549	-0.500168	1.306381
H175	H	-0.288945	-1.050757	1.079979
H176	H	0.211055	-0.550757	1.579979
H177	H	-0.955354	-1.000022	0.523022
H178	H	-0.455354	-0.500022	1.023022
H179	H	-0.472404	-1.234085	1.079953
H180	H	0.027596	-0.734085	1.579953
H181	H	-0.472661	-0.841412	0.472395
H182	H	0.027339	-0.341412	0.972395
C183	C	-0.223958	-0.555983	0.224424
C184	C	0.276042	-0.055983	0.724424
H185	H	-0.193804	-0.592378	0.194371
H186	H	0.306196	-0.092378	0.694371
H187	H	-0.254156	-0.523763	0.189937
H188	H	0.245844	-0.023763	0.689937
H189	H	-0.189557	-0.523797	0.254727
H190	H	0.310443	-0.023797	0.754727
H191	H	-0.472695	-0.444000	0.472416
H192	H	0.027305	0.056000	0.972416
H193	H	-0.522998	-1.284585	0.956125
H194	H	-0.022998	-0.784585	1.456125
C195	C	-0.669966	-1.036039	0.486923
C196	C	-0.169966	-0.536039	0.986923
H197	H	-0.706374	-1.005928	0.517002
H198	H	-0.206374	-0.505928	1.017002
H199	H	-0.637722	-1.066242	0.521385
H200	H	-0.137722	-0.566242	1.021385
H201	H	-0.637806	-1.001599	0.456648
H202	H	-0.137806	-0.501599	0.956648
C203	C	-0.274585	-0.432166	0.274896
C204	C	0.225415	0.067834	0.774896
H205	H	-0.281838	-0.377093	0.282123
H206	H	0.218162	0.122907	0.782123
H207	H	-0.221490	-0.445711	0.286551
H208	H	0.278510	0.054289	0.786551
H209	H	-0.286093	-0.445672	0.221764
H210	H	0.213907	0.054328	0.721764
H211	H	-0.523038	-1.284574	0.806363
H212	H	-0.023038	-0.784574	1.306363
H213	H	-0.805577	-0.999960	0.523006
H214	H	-0.305577	-0.499960	1.023006
H215	H	-0.288999	-0.841373	0.289286
H216	H	0.211001	-0.341373	0.789286
C217	C	-1.090965	-1.036194	0.486959
C218	C	-0.590965	-0.536194	0.986959
H219	H	-1.146040	-1.043453	0.479731
H220	H	-0.646040	-0.543453	0.979731
H221	H	-1.077396	-1.047722	0.540076
H222	H	-0.577396	-0.547722	1.040076
H223	H	-1.077477	-0.983085	0.475333
H224	H	-0.577477	-0.483085	0.975333
C225	C	-1.090950	-1.248634	0.274850
C226	C	-0.590950	-0.748634	0.774850
H227	H	-1.146025	-1.241414	0.282093
H228	H	-0.646025	-0.741414	0.782093
H229	H	-1.077460	-1.237103	0.221728
H230	H	-0.577460	-0.737103	0.721728
H231	H	-1.077382	-1.301732	0.286479
H232	H	-0.577382	-0.801732	0.786479
C233	C	-0.967125	-1.299175	0.224338
C234	C	-0.467125	-0.799175	0.724338
H235	H	-1.022200	-1.291960	0.231588
H236	H	-0.522200	-0.791960	0.731588
H237	H	-0.953644	-1.287645	0.171213
H238	H	-0.453644	-0.787645	0.671213
H239	H	-0.953550	-1.352271	0.235967
H240	H	-0.453550	-0.852271	0.735967
H241	H	-0.681750	-1.234029	0.289230
H242	H	-0.181750	-0.734029	0.789230
C243	C	-0.274598	-1.036227	0.670769
C244	C	0.225402	-0.536227	1.170769
H245	H	-0.244483	-1.006138	0.707179
H246	H	0.255517	-0.506138	1.207179
H247	H	-0.240171	-1.066465	0.638572
H248	H	0.259829	-0.566465	1.138572
H249	H	-0.304845	-1.001763	0.638562
H250	H	0.195155	-0.501763	1.138562
