data_functionalizedCrystal
_audit_creation_method	'MofGen! by Chris Wilmer'
_symmetry_space_group_name_H-M	'P1'
_symmetry_Int_Tables_number	1
_symmetry_cell_setting	triclinic
loop_
_symmetry_equiv_pos_as_xyz
  x,y,z
_cell_length_a	19.288867
_cell_length_b	19.288859
_cell_length_c	18.366186
_cell_angle_alpha	89.994011
_cell_angle_beta	89.992441
_cell_angle_gamma	83.135397
loop_
_atom_site_label
_atom_site_type_symbol
_atom_site_fract_x
_atom_site_fract_y
_atom_site_fract_z
O1	O	0.921350	0.086656	-0.060524
O2	O	0.719089	0.098343	-0.060531
O3	O	0.826066	-0.008631	-0.060523
O4	O	0.814373	0.193630	-0.060532
O5	O	0.826048	-0.008637	0.060577
O6	O	0.719071	0.098338	0.060569
O7	O	0.921332	0.086650	0.060576
Zn8	Zn	0.820199	0.092493	0.079799
Zn9	Zn	0.820222	0.092500	-0.079754
O10	O	0.814355	0.193625	0.060568
C11	C	0.693204	0.097964	0.000018
C12	C	0.616100	0.096834	0.000015
C13	C	0.060545	0.088701	-0.065987
C14	C	0.132992	0.089758	-0.065990
C15	C	0.169211	0.090287	0.000021
C16	C	0.132979	0.089741	0.066040
C17	C	0.060534	0.088677	0.066041
C18	C	0.278530	0.132653	0.050593
C19	C	0.350973	0.133721	0.050589
C20	C	0.392657	0.093566	0.000021
C21	C	0.361887	0.052352	-0.050555
C22	C	0.289442	0.051288	-0.050554
C23	C	0.247766	0.091441	0.000028
C24	C	0.507437	0.095254	-0.065996
C25	C	0.579886	0.096307	-0.065996
C26	C	0.579870	0.096296	0.066035
C27	C	0.507423	0.095237	0.066034
C28	C	0.471210	0.094719	0.000016
C29	C	0.825682	-0.034511	0.000026
C30	C	0.824554	-0.111614	0.000025
C31	C	0.947217	0.087029	0.000025
C32	C	1.024321	0.088159	0.000023
C33	C	0.879698	-0.675655	0.000008
C34	C	0.880763	-0.603208	0.000014
C35	C	0.817994	-0.558502	0.000012
C36	C	0.754154	-0.586247	0.000022
C37	C	0.753091	-0.658693	0.000022
C38	C	0.771187	-0.437227	-0.042415
C39	C	0.772253	-0.364783	-0.042420
C40	C	0.821271	-0.335056	0.000013
C41	C	0.869235	-0.377783	0.042442
C42	C	0.868171	-0.450228	0.042442
C43	C	0.819140	-0.479946	0.000012
C44	C	0.886261	-0.228764	0.000015
C45	C	0.887324	-0.156316	0.000026
C46	C	0.760714	-0.139356	0.000026
C47	C	0.759653	-0.211803	0.000023
C48	C	0.822429	-0.256503	0.000014
C49	C	0.814739	0.219504	0.000017
C50	C	0.815867	0.296608	0.000013
N51	N	0.820187	0.092488	0.188690
N52	N	0.820239	0.092500	-0.188646
C53	C	0.867572	0.045143	0.226794
C54	C	0.867577	0.045140	0.303022
C55	C	0.820203	0.092494	0.341143
C56	C	0.772809	0.139842	0.303030
C57	C	0.772801	0.139839	0.226804
C58	C	0.810903	0.155782	0.461900
C59	C	0.810916	0.155785	0.538125
C60	C	0.820222	0.092502	0.576251
C61	C	0.829531	0.029213	0.538142
C62	C	0.829524	0.029210	0.461915
C63	C	0.820205	0.092502	0.423798
C64	C	0.867615	0.045150	0.697010
C65	C	0.867614	0.045146	0.773239
C66	C	0.772850	0.139855	0.773245
C67	C	0.772847	0.139853	0.697017
C68	C	0.820233	0.092501	0.658904
H69	H	0.477929	0.094798	0.119786
H70	H	0.803312	0.207318	0.430865
H71	H	0.939305	-0.133734	0.000026
N72	N	0.916000	-0.003229	0.812175
N73	N	0.915987	-0.003234	0.880233
H74	H	0.950154	-0.037406	0.907734
H75	H	0.244597	0.165348	0.091779
H76	H	0.264392	0.017728	-0.091734
H77	H	0.031065	0.088276	-0.119744
H78	H	0.376018	0.167297	0.091756
N79	N	0.694450	-0.240141	0.000004
N80	N	0.679741	-0.278668	-0.051046
H81	H	0.633688	-0.298682	-0.051059
N82	N	0.724426	0.188223	0.341965
N83	N	0.725169	0.252423	0.333440
H84	H	0.690996	0.286592	0.360937
H85	H	0.395824	0.019656	-0.091734
H86	H	0.733202	-0.330000	-0.076972
N87	N	0.724446	0.188216	0.812174
N88	N	0.681406	0.166285	0.854718
H89	H	0.647217	0.200440	0.882214
N90	N	0.724390	0.188207	0.187889
N91	N	0.682090	0.230480	0.221930
H92	H	0.647898	0.264641	0.194445
H93	H	0.731262	-0.461422	-0.076963
H94	H	0.930815	-0.712045	0.000005
H95	H	0.906164	0.006584	0.334052
H96	H	0.162473	0.090170	0.119787
N97	N	0.724440	0.188220	0.658102
N98	N	0.682141	0.230495	0.692144
H99	H	0.647949	0.264656	0.664661
H100	H	0.477951	0.094830	-0.119752
H101	H	0.803340	0.207319	0.569148
H102	H	0.031040	0.088238	0.119796
H103	H	0.932743	-0.580619	0.000010
H104	H	0.703047	-0.549843	0.000022
N105	N	0.916027	-0.003209	0.187910
N106	N	0.915350	-0.067417	0.196441
H107	H	0.949592	-0.101557	0.168992
H108	H	0.837102	-0.022322	0.430890
N109	N	0.917144	-0.493881	0.085788
N110	N	0.916181	-0.558562	0.085784
H111	H	0.950766	-0.589393	0.116401
H112	H	0.909146	-0.353581	0.077000
H113	H	0.162491	0.090203	-0.119745
H114	H	0.906197	0.006591	0.665977
N115	N	0.950388	-0.274418	0.000010
N116	N	1.007378	-0.249640	0.000013
H117	H	1.052669	-0.281881	0.000009
H118	H	0.701111	-0.681275	0.000029
N119	N	0.696602	-0.093689	0.000032
N120	N	0.697558	-0.029007	0.000035
H121	H	0.652278	0.003250	0.000042
N122	N	0.839018	-0.035433	0.577080
N123	N	0.792663	-0.050903	0.619618
H124	H	0.799360	-0.096558	0.647120
N125	N	0.616881	0.096852	-0.133434
N126	N	0.584537	0.096387	-0.192369
H127	H	0.610665	0.096771	-0.239999
H128	H	0.609359	0.096725	0.119783
