data_functionalizedCrystal
_audit_creation_method	'MofGen! by Chris Wilmer'
_symmetry_space_group_name_H-M	'P1'
_symmetry_Int_Tables_number	1
_symmetry_cell_setting	triclinic
loop_
_symmetry_equiv_pos_as_xyz
  x,y,z
_cell_length_a	27.732048
_cell_length_b	10.654541
_cell_length_c	26.210047
_cell_angle_alpha	89.987446
_cell_angle_beta	90.018237
_cell_angle_gamma	83.563292
loop_
_atom_site_label
_atom_site_type_symbol
_atom_site_fract_x
_atom_site_fract_y
_atom_site_fract_z
O1	O	0.067888	1.664960	0.042420
O2	O	0.074357	1.299209	0.042425
O3	O	0.000796	1.493444	0.042412
O4	O	0.141448	1.470725	0.042432
O5	O	0.000779	1.493488	-0.042446
O6	O	0.074340	1.299253	-0.042433
O7	O	0.067871	1.665004	-0.042438
Cu8	Cu	0.071104	1.482133	-0.050184
Cu9	Cu	0.071124	1.482080	0.050170
O10	O	0.141431	1.470770	-0.042426
C11	C	0.073873	1.252453	-0.000004
C12	C	0.072453	1.113069	-0.000002
C13	C	-0.017222	1.492989	-0.000018
C14	C	-0.070886	1.491553	-0.000022
C15	C	0.160415	1.081401	0.000016
C16	C	0.203726	1.000085	0.000028
C17	C	0.202389	0.869124	0.000028
C18	C	0.157735	0.819476	0.000015
C19	C	0.114423	0.900791	0.000004
C20	C	0.115766	1.031754	0.000005
C21	C	0.026463	0.932459	-0.000018
C22	C	0.027799	1.063421	-0.000015
C23	C	-0.018191	0.882811	-0.000031
C24	C	-0.061504	0.964126	-0.000039
C25	C	-0.060164	1.095095	-0.000038
C26	C	-0.015512	1.144736	-0.000026
C27	C	-0.409043	1.597293	0.000002
C28	C	-0.610736	1.591965	0.000010
O29	O	-0.641390	1.688656	0.000031
N30	N	-0.630576	1.476791	0.000011
C31	C	-0.599990	1.362942	0.000013
O32	O	-0.621494	1.264858	0.000020
C33	C	-0.398299	1.368271	0.000010
C34	C	-0.378461	1.483452	0.000003
C35	C	-0.389205	1.712464	-0.000003
C36	C	-0.338785	1.713795	-0.000008
C37	C	-0.308203	1.599954	-0.000007
C38	C	-0.328041	1.484783	-0.000001
C39	C	-0.367713	1.254423	0.000016
C40	C	-0.317288	1.255766	0.000016
C41	C	-0.297450	1.370947	0.000010
C42	C	-0.247038	1.372273	-0.000005
N43	N	-0.227198	1.487446	-0.000006
C44	C	-0.257780	1.601287	-0.000007
C45	C	-0.705882	1.360152	0.000014
C46	C	-0.756305	1.358819	0.000014
C47	C	-0.767046	1.587843	0.000011
C48	C	-0.716623	1.589174	0.000008
C49	C	-0.686041	1.475325	0.000013
C50	C	-0.151893	1.604073	-0.000017
C51	C	-0.101468	1.605394	-0.000024
C52	C	-0.090731	1.376371	-0.000018
C53	C	-0.141151	1.375050	-0.000014
C54	C	-0.171732	1.488911	-0.000012
O55	O	-0.216356	1.275633	-0.000020
O56	O	-0.236267	1.699357	-0.000002
C57	C	-0.459463	1.595962	0.000007
C58	C	-0.479301	1.480790	0.000013
C59	C	-0.448719	1.366950	0.000014
C60	C	-0.529724	1.479458	0.000013
C61	C	-0.560306	1.593298	0.000011
C62	C	-0.540466	1.708472	0.000010
C63	C	-0.490045	1.709803	0.000006
C64	C	-0.468560	1.251777	0.000015
C65	C	-0.518981	1.250455	0.000019
C66	C	-0.549563	1.364296	0.000018
C67	C	0.159450	1.471224	0.000005
C68	C	0.213113	1.472660	0.000013
C69	C	0.068354	1.711760	-0.000009
C70	C	0.069774	1.851144	-0.000007
N71	N	0.071134	1.482044	0.120754
C72	C	0.103626	1.395941	0.526727
C73	C	0.103634	1.395909	0.313069
O74	O	0.131292	1.322658	0.285455
N75	N	0.071130	1.482072	0.286338
C76	C	0.038624	1.568255	0.313025
O77	O	0.010980	1.641550	0.285387
C78	C	0.038618	1.568293	0.526683
C79	C	0.071121	1.482115	0.553411
C80	C	0.136127	1.309772	0.553455
C81	C	0.136122	1.309776	0.606866
C82	C	0.103617	1.395950	0.633550
C83	C	0.071116	1.482120	0.606822
C84	C	0.006114	1.654481	0.553369
C85	C	0.006116	1.654485	0.606787
C86	C	0.038619	1.568307	0.633515
C87	C	0.038607	1.568298	0.686917
N88	N	0.071111	1.482135	0.713648
C89	C	0.103616	1.395961	0.686964
C90	C	0.038628	1.568228	0.200852
C91	C	0.038629	1.568217	0.147438
C92	C	0.103641	1.395872	0.147485
C93	C	0.103637	1.395878	0.200900
C94	C	0.071133	1.482065	0.227583
C95	C	0.103605	1.395976	0.799132
C96	C	0.103596	1.395985	0.852548
C97	C	0.038587	1.568334	0.852497
C98	C	0.038593	1.568321	0.799085
C99	C	0.071106	1.482138	0.772404
O100	O	0.010968	1.641520	0.714564
O101	O	0.131263	1.322695	0.714612
C102	C	0.103630	1.395937	0.473316
C103	C	0.071129	1.482106	0.446588
C104	C	0.038624	1.568280	0.473271
C105	C	0.071130	1.482096	0.393174
C106	C	0.103635	1.395922	0.366490
C107	C	0.136139	1.309759	0.393221
C108	C	0.136135	1.309763	0.446632
C109	C	0.006120	1.654444	0.446541
C110	C	0.006127	1.654431	0.393129
C111	C	0.038632	1.568257	0.366446
N112	N	0.071091	1.482159	0.879232
H113	H	0.161508	1.188035	0.000027
H114	H	0.162590	1.239607	0.628625
H115	H	0.237657	0.802916	0.000034
H116	H	-0.020349	1.724619	0.468263
H117	H	-0.443664	1.159072	0.000017
H118	H	0.130104	1.325706	0.222659
H119	H	-0.014417	1.251370	-0.000020
C120	C	-0.162973	1.248346	-0.000010
N121	N	-0.179406	1.152910	-0.000002
C122	C	-0.316970	1.840504	-0.000009
N123	N	-0.300543	1.935948	-0.000008
H124	H	0.156650	0.712838	0.000009
C125	C	0.252843	1.054708	0.000041
N126	N	0.289838	1.095848	0.000050
H127	H	-0.019277	0.776174	-0.000033
C128	C	-0.110617	0.909504	-0.000054
N129	N	-0.147611	0.868357	-0.000064
C130	C	-0.389523	1.127713	0.000026
N131	N	-0.405949	1.032267	0.000036
H132	H	-0.095434	1.161296	-0.000049
C133	C	-0.029637	1.749227	0.363735
N134	N	-0.056573	1.820628	0.341597
C135	C	0.139376	1.301237	0.881946
N136	N	0.166334	1.229898	0.904086
H137	H	-0.085319	1.699192	-0.000030
C138	C	-0.468231	1.836511	0.000002
N139	N	-0.451804	1.931955	0.000001
H140	H	-0.176787	1.696790	-0.000013
H141	H	-0.065822	1.283685	-0.000019
H142	H	-0.020353	1.724672	0.628510
H143	H	-0.414100	1.805172	-0.000002
C144	C	-0.694806	1.715880	0.000005
N145	N	-0.678377	1.811321	0.000005
H146	H	-0.565374	1.801165	0.000007
C147	C	-0.778120	1.232112	0.000015
N148	N	-0.794549	1.136671	0.000018
H149	H	-0.791955	1.680536	0.000010
C150	C	-0.283651	1.130520	0.000021
N151	N	-0.258316	1.036184	0.000022
C152	C	-0.672248	1.234901	0.000020
N153	N	-0.646916	1.140560	0.000022
C154	C	-0.540795	1.123738	0.000025
N155	N	-0.557225	1.028297	0.000035
H156	H	0.130080	1.325799	0.777414
C157	C	0.171886	1.214959	0.524111
N158	N	0.198818	1.143532	0.502013
H159	H	0.130107	1.325704	0.125750
C160	C	0.002865	1.662998	0.118043
N161	N	-0.024074	1.734391	0.095905
C162	C	0.002865	1.663037	0.230196
N163	N	-0.024075	1.734443	0.252296
C164	C	-0.029650	1.749265	0.523981
N165	N	-0.056593	1.820656	0.501846
C166	C	0.002841	1.663127	0.769684
N167	N	-0.024083	1.734551	0.747542
H168	H	0.012120	1.638492	0.874231
C169	C	0.171894	1.214964	0.363858
N170	N	0.198824	1.143572	0.341740
H171	H	0.162602	1.239590	0.468390
