data_functionalizedCrystal
_audit_creation_method	'MofGen! by Chris Wilmer'
_symmetry_space_group_name_H-M	'P1'
_symmetry_Int_Tables_number	1
_symmetry_cell_setting	triclinic
loop_
_symmetry_equiv_pos_as_xyz
  x,y,z
_cell_length_a	19.121102
_cell_length_b	19.121063
_cell_length_c	19.120904
_cell_angle_alpha	94.741613
_cell_angle_beta	90.088173
_cell_angle_gamma	90.126902
loop_
_atom_site_label
_atom_site_type_symbol
_atom_site_fract_x
_atom_site_fract_y
_atom_site_fract_z
Zn1	Zn	1.039579	-0.343506	-0.456040
Zn2	Zn	1.372913	-0.010172	-0.122706
Zn3	Zn	1.706246	0.323161	0.210627
Zn4	Zn	1.039493	-0.456149	-0.343386
Zn5	Zn	1.372826	-0.122815	-0.010053
Zn6	Zn	1.706159	0.210518	0.323280
Zn7	Zn	0.927792	-0.333518	-0.333417
Zn8	Zn	1.261125	-0.000184	-0.000084
Zn9	Zn	1.594459	0.333149	0.333250
Zn10	Zn	0.917325	-0.455677	-0.455570
Zn11	Zn	1.250658	-0.122343	-0.122236
Zn12	Zn	1.583992	0.210990	0.211097
O13	O	0.981047	-0.397212	-0.397103
O14	O	1.314381	-0.063879	-0.063770
O15	O	1.647714	0.269454	0.269564
O16	O	1.137479	-0.362826	-0.445465
O17	O	1.470812	-0.029492	-0.112131
O18	O	1.804145	0.303841	0.221202
O19	O	1.029020	-0.435899	-0.243797
O20	O	1.362353	-0.102566	0.089536
O21	O	1.695686	0.230768	0.422870
O22	O	0.947038	-0.236577	-0.345708
O23	O	1.280371	0.096756	-0.012374
O24	O	1.613704	0.430090	0.320959
O25	O	1.137415	-0.445584	-0.362699
O26	O	1.470748	-0.112251	-0.029366
O27	O	1.804082	0.221083	0.303968
O28	O	1.029167	-0.243915	-0.435798
O29	O	1.362501	0.089418	-0.102465
O30	O	1.695834	0.422752	0.230869
O31	O	0.946954	-0.345802	-0.236473
O32	O	1.280287	-0.012469	0.096861
O33	O	1.613620	0.320864	0.430194
O34	O	0.828493	-0.345345	-0.345252
O35	O	1.161826	-0.012011	-0.011919
O36	O	1.495159	0.321322	0.321415
O37	O	0.929198	-0.444780	-0.553899
O38	O	1.262532	-0.111446	-0.220566
O39	O	1.595865	0.221887	0.112768
O40	O	0.820803	-0.435094	-0.434997
O41	O	1.154136	-0.101761	-0.101663
O42	O	1.487469	0.231572	0.231670
O43	O	1.019018	-0.362368	-0.554244
O44	O	1.352351	-0.029035	-0.220911
O45	O	1.685684	0.304299	0.112423
O46	O	1.018870	-0.554352	-0.362243
O47	O	1.352204	-0.221018	-0.028910
O48	O	1.685537	0.112315	0.304423
O49	O	0.929114	-0.554005	-0.444664
O50	O	1.262448	-0.220672	-0.111330
O51	O	1.595781	0.112662	0.222003
C52	C	0.799261	-0.389085	-0.388992
C53	C	1.132594	-0.055752	-0.055659
C54	C	1.465927	0.277582	0.277675
C55	C	0.721490	-0.385626	-0.385539
C56	C	1.054823	-0.052292	-0.052206
C57	C	1.388157	0.281041	0.281127
C58	C	0.680968	-0.430793	-0.430575
C59	C	1.014301	-0.097460	-0.097242
C60	C	1.347634	0.235873	0.236092
C61	C	0.607894	-0.427534	-0.427334
C62	C	0.941228	-0.094201	-0.094000
C63	C	1.274561	0.239133	0.239333
C64	C	0.575344	-0.379110	-0.379053
C65	C	0.908677	-0.045776	-0.045720
C66	C	1.242011	0.287557	0.287614
C67	C	0.615872	-0.333937	-0.334016
C68	C	0.949205	-0.000604	-0.000682
C69	C	1.282538	0.332729	0.332651
C70	C	0.688944	-0.337194	-0.337261
C71	C	1.022277	-0.003860	-0.003927
C72	C	1.355611	0.329473	0.329406
C73	C	0.354913	-0.366933	-0.366924
C74	C	0.688246	-0.033599	-0.033591
C75	C	1.021579	0.299734	0.299743
C76	C	0.281835	-0.363681	-0.363681
C77	C	0.615169	-0.030348	-0.030348
C78	C	0.948502	0.302986	0.302986
C79	C	0.273863	-0.457277	-0.457000
C80	C	0.607196	-0.123944	-0.123667
C81	C	0.940529	0.209389	0.209666
C82	C	0.346937	-0.460532	-0.460238
C83	C	0.680270	-0.127199	-0.126905
C84	C	1.013603	0.206134	0.206428
C85	C	0.387458	-0.415357	-0.415203
C86	C	0.720791	-0.082024	-0.081870
C87	C	1.054124	0.251309	0.251463
C88	C	0.500651	-0.375778	-0.375738
C89	C	0.833985	-0.042445	-0.042404
C90	C	1.167318	0.290888	0.290929
C91	C	0.462149	-0.418686	-0.418523
C92	C	0.795483	-0.085353	-0.085190
C93	C	1.128816	0.247981	0.248144
C94	C	0.972865	-0.579659	-0.404501
C95	C	1.306199	-0.246326	-0.071167
C96	C	1.639532	0.087008	0.262166
C97	C	0.969428	-0.657714	-0.407691
C98	C	1.302761	-0.324381	-0.074358
C99	C	1.636095	0.008952	0.258975
C100	C	1.014577	-0.694545	-0.366317
C101	C	1.347911	-0.361212	-0.032984
C102	C	1.681244	-0.027879	0.300349
C103	C	1.011348	-0.767887	-0.369323
C104	C	1.344682	-0.434554	-0.035990
C105	C	1.678015	-0.101220	0.297344
C106	C	0.962966	-0.804396	-0.413699
C107	C	1.296300	-0.471063	-0.080366
C108	C	1.629633	-0.137729	0.252968
C109	C	0.917815	-0.767560	-0.455078
C110	C	1.251148	-0.434227	-0.121744
C111	C	1.584482	-0.100893	0.211589
C112	C	0.921048	-0.694220	-0.452076
C113	C	1.254381	-0.360887	-0.118742
C114	C	1.587714	-0.027553	0.214591
C115	C	0.950869	-1.025828	-0.424912
C116	C	1.284202	-0.692494	-0.091579
C117	C	1.617536	-0.359161	0.241755
C118	C	0.947638	-1.099173	-0.427909
C119	C	1.280972	-0.765839	-0.094576
C120	C	1.614305	-0.432506	0.238757
C121	C	1.041173	-1.099494	-0.342155
C122	C	1.374507	-0.766161	-0.008822
C123	C	1.707840	-0.432828	0.324512
C124	C	1.044399	-1.026153	-0.339154
C125	C	1.377732	-0.692819	-0.005820
C126	C	1.711065	-0.359486	0.327513
C127	C	0.999250	-0.989323	-0.380535
C128	C	1.332583	-0.655990	-0.047202
C129	C	1.665917	-0.322657	0.286131
C130	C	0.959663	-0.879363	-0.416770
C131	C	1.292997	-0.546029	-0.083437
C132	C	1.626330	-0.212696	0.249896
C133	C	1.002557	-0.914358	-0.377467
C134	C	1.335890	-0.581025	-0.044134
C135	C	1.669224	-0.247692	0.289200
C136	C	1.163544	-0.405372	-0.405246
C137	C	1.496877	-0.072038	-0.071913
C138	C	1.830211	0.261295	0.261420
C139	C	1.241313	-0.408849	-0.408717
C140	C	1.574646	-0.075515	-0.075383
C141	C	1.907980	0.257818	0.257950
C142	C	0.972950	-0.404635	-0.580263
C143	C	1.306283	-0.071302	-0.246930
C144	C	1.639617	0.262031	0.086403
C145	C	0.969500	-0.407799	-0.658315
C146	C	1.302833	-0.074465	-0.324982
C147	C	1.636166	0.258868	0.008351
C148	C	0.989280	-0.214054	-0.389693
C149	C	1.322613	0.119279	-0.056360
C150	C	1.655946	0.452612	0.276974
C151	C	0.992788	-0.136003	-0.386535
C152	C	1.326121	0.197330	-0.053202
C153	C	1.659454	0.530663	0.280131
C154	C	1.014640	-0.366379	-0.695165
C155	C	1.347974	-0.033046	-0.361832
C156	C	1.681307	0.300287	-0.028499
C157	C	1.011390	-0.369348	-0.768503
C158	C	1.344723	-0.036015	-0.435170
C159	C	1.678056	0.297318	-0.101836
C160	C	0.963001	-0.413741	-0.804990
C161	C	1.296335	-0.080408	-0.471656
C162	C	1.629668	0.252926	-0.138323
C163	C	0.917856	-0.455162	-0.768135
C164	C	1.251189	-0.121828	-0.434801
C165	C	1.584522	0.211505	-0.101468
C166	C	0.921103	-0.452188	-0.694798
C167	C	1.254437	-0.118855	-0.361465
C168	C	1.587770	0.214478	-0.028131
C169	C	0.950853	-0.424862	-1.026410
C170	C	1.284186	-0.091528	-0.693076
C171	C	1.617519	0.241805	-0.359743
C172	C	0.947610	-0.427833	-1.099752
C173	C	1.280943	-0.094500	-0.766418
C174	C	1.614276	0.238833	-0.433085
C175	C	1.041143	-0.342019	-1.100115
C176	C	1.374477	-0.008685	-0.766782
C177	C	1.707810	0.324648	-0.433448
C178	C	1.044390	-0.339052	-1.026777
C179	C	1.377723	-0.005719	-0.693444
C180	C	1.711056	0.327614	-0.360110
C181	C	0.999242	-0.380470	-0.989928
C182	C	1.332575	-0.047137	-0.656595
C183	C	1.665908	0.286196	-0.323261
C184	C	0.959679	-0.416779	-0.879953
C185	C	1.293012	-0.083445	-0.546619
C186	C	1.626346	0.249888	-0.213286
C187	C	1.002561	-0.377429	-0.914966
C188	C	1.335894	-0.044095	-0.581633
C189	C	1.669228	0.289238	-0.248299
C190	C	0.989156	-0.389769	-0.214655
C191	C	1.322489	-0.056436	0.118678
C192	C	1.655822	0.276898	0.452012
C193	C	0.992751	-0.386414	-0.136602
C194	C	1.326084	-0.053081	0.196732
C195	C	1.659417	0.280253	0.530065
H196	H	0.589364	-0.294506	-0.294708
H197	H	0.922697	0.038827	0.038626
H198	H	1.256030	0.372160	0.371959
F199	F	0.866327	-0.806418	-0.502311
F200	F	1.199660	-0.473085	-0.168977
F201	F	1.532993	-0.139751	0.164356
H202	H	0.884283	-0.664233	-0.485768
H203	H	1.217617	-0.330900	-0.152434
H204	H	1.550950	0.002434	0.180899
F205	F	1.054050	-0.875502	-0.330243
F206	F	1.387383	-0.542168	0.003090
F207	F	1.720716	-0.208835	0.336423
H208	H	0.373433	-0.499966	-0.499552
H209	H	0.706767	-0.166633	-0.166219
H210	H	1.040100	0.166701	0.167115
F211	F	0.902802	-0.468943	-0.987202
F212	F	1.236135	-0.135610	-0.653868
F213	F	1.569468	0.197724	-0.320535
F214	F	0.564770	-0.475608	-0.475267
F215	F	0.898104	-0.142274	-0.141934
F216	F	1.231437	0.191059	0.191399
H217	H	0.878454	-0.491305	-0.797848
H218	H	1.211788	-0.157971	-0.464514
H219	H	1.545121	0.175362	-0.131181
F220	F	0.398029	-0.318851	-0.318995
F221	F	0.731363	0.014482	0.014338
F222	F	1.064696	0.347815	0.347671
H223	H	0.240863	-0.494055	-0.493666
H224	H	0.574196	-0.160722	-0.160333
H225	H	0.907529	0.172612	0.173000
F226	F	1.066146	-0.319134	-0.656340
F227	F	1.399479	0.014200	-0.323007
F228	F	1.732813	0.347533	0.010326
H229	H	1.048150	-0.335622	-0.798503
H230	H	1.381483	-0.002289	-0.465170
H231	H	1.714816	0.331045	-0.131836
F232	F	1.095892	-0.291804	-0.987950
F233	F	1.429225	0.041529	-0.654617
F234	F	1.762558	0.374863	-0.321284
H235	H	0.920269	-0.909097	-0.452900
H236	H	1.253602	-0.575763	-0.119567
H237	H	1.586936	-0.242430	0.213766
H238	H	1.077932	-1.129489	-0.308466
H239	H	1.411265	-0.796155	0.024867
H240	H	1.744598	-0.462822	0.358201
H241	H	0.255336	-0.324240	-0.324369
H242	H	0.588669	0.009093	0.008964
H243	H	0.922002	0.342426	0.342297
H244	H	0.908248	-1.128897	-0.464059
H245	H	1.241581	-0.795564	-0.130725
H246	H	1.574914	-0.462230	0.202608
F247	F	0.496793	-0.470220	-0.469906
F248	F	0.830126	-0.136887	-0.136572
F249	F	1.163459	0.196447	0.196761
H250	H	0.721937	-0.300410	-0.300591
H251	H	1.055270	0.032923	0.032742
H252	H	1.388603	0.366257	0.366075
H253	H	0.474141	-0.336353	-0.336426
H254	H	0.807474	-0.003019	-0.003093
H255	H	1.140808	0.330314	0.330241
H256	H	0.908204	-0.463985	-1.129457
H257	H	1.241537	-0.130651	-0.796124
H258	H	1.574870	0.202682	-0.462790
F259	F	0.873057	-0.496271	-0.655580
F260	F	1.206390	-0.162937	-0.322246
F261	F	1.539723	0.170396	0.011087
F262	F	0.902817	-0.986640	-0.468953
F263	F	1.236150	-0.653307	-0.135620
F264	F	1.569483	-0.319974	0.197713
F265	F	1.066069	-0.655696	-0.319081
F266	F	1.399402	-0.322362	0.014252
F267	F	1.732735	0.010971	0.347585
F268	F	1.089188	-0.297940	-1.139337
F269	F	1.422521	0.035393	-0.806004
F270	F	1.755855	0.368727	-0.472671
F271	F	1.054052	-0.330178	-0.876132
F272	F	1.387385	0.003156	-0.542799
F273	F	1.720718	0.336489	-0.209466
H274	H	0.920284	-0.452927	-0.909669
H275	H	1.253617	-0.119593	-0.576335
H276	H	1.586951	0.213740	-0.243002
F277	F	1.095901	-0.987303	-0.291931
F278	F	1.429234	-0.653970	0.041403
F279	F	1.762568	-0.320636	0.374736
F280	F	1.059405	-0.807082	-0.325289
F281	F	1.392738	-0.473749	0.008045
F282	F	1.726072	-0.140415	0.341378
F283	F	0.715603	-0.482337	-0.481959
F284	F	1.048936	-0.149004	-0.148625
F285	F	1.382270	0.184330	0.184708
