data_functionalizedCrystal
_audit_creation_method	'MofGen! by Chris Wilmer'
_symmetry_space_group_name_H-M	'P1'
_symmetry_Int_Tables_number	1
_symmetry_cell_setting	triclinic
loop_
_symmetry_equiv_pos_as_xyz
  x,y,z
_cell_length_a	31.640171
_cell_length_b	31.640172
_cell_length_c	20.016444
_cell_angle_alpha	90.002190
_cell_angle_beta	59.991764
_cell_angle_gamma	59.979319
loop_
_atom_site_label
_atom_site_type_symbol
_atom_site_fract_x
_atom_site_fract_y
_atom_site_fract_z
Zr1	Zr	0.462745	0.406964	-0.087791
O2	O	0.550962	0.339434	-0.194520
O3	O	0.374535	0.427695	-0.055046
O4	O	0.462744	0.427654	-0.194463
O5	O	0.462750	0.339474	0.054842
O6	O	0.462736	0.497211	-0.194449
O7	O	0.462752	0.339474	-0.055103
O8	O	0.304945	0.497284	0.054944
O9	O	0.620541	0.339401	-0.194551
O10	O	0.410807	0.488411	-0.041102
O11	O	0.410812	0.436501	0.040938
O12	O	0.514667	0.436453	-0.123208
O13	O	0.514672	0.384543	-0.041169
Zr14	Zr	0.462726	0.517898	0.087581
Zr15	Zr	0.462731	0.517900	-0.087768
Zr16	Zr	0.462740	0.406963	0.087558
Zr17	Zr	0.573714	0.406912	-0.087839
Zr18	Zr	0.351756	0.517951	0.087630
O19	O	0.550936	0.497168	0.054836
O20	O	0.550942	0.497170	-0.194487
O21	O	0.550956	0.339432	0.054803
O22	O	0.374509	0.585429	0.194311
O23	O	0.374515	0.585431	-0.055013
O24	O	0.374529	0.427693	0.194278
O25	O	0.462721	0.585389	-0.055051
O26	O	0.462726	0.497208	0.194254
O27	O	0.462735	0.427651	0.194239
O28	O	0.462719	0.585388	0.054893
O29	O	0.620530	0.427580	-0.194532
O30	O	0.304941	0.497283	0.194323
O31	O	0.304930	0.585462	0.194341
O32	O	0.304934	0.585463	0.054962
O33	O	0.620537	0.339400	-0.055172
O34	O	0.620526	0.427579	-0.055153
O35	O	0.410803	0.488410	0.122999
O36	O	0.410799	0.540320	0.040960
O37	O	0.514659	0.488362	-0.041147
O38	O	0.514663	0.436452	0.040892
C39	C	0.323929	0.462497	-0.000044
C40	C	0.276819	0.462519	-0.000023
C41	C	-0.097753	0.500773	0.060485
C42	C	0.079200	0.500819	0.060530
O43	O	0.069462	0.533441	0.112049
N44	N	0.139681	0.462486	-0.000060
C45	C	0.155924	0.424141	-0.060669
O46	O	0.211428	0.391541	-0.112209
C47	C	-0.021028	0.424098	-0.060717
C48	C	-0.081510	0.462430	-0.000118
C49	C	-0.158232	0.539102	0.121078
C50	C	-0.202467	0.539089	0.121069
C51	C	-0.186224	0.500746	0.060466
C52	C	-0.125745	0.462417	-0.000127
C53	C	-0.004785	0.385756	-0.121328
C54	C	-0.049029	0.385749	-0.121336
C55	C	-0.109511	0.424081	-0.060737
C56	C	-0.153737	0.424061	-0.060739
N57	N	-0.214218	0.462393	-0.000149
C58	C	-0.230462	0.500736	0.060453
C59	C	0.248824	0.424166	-0.060639
C60	C	0.293063	0.424176	-0.060626
C61	C	0.216335	0.500854	0.060572
C62	C	0.172096	0.500842	0.060562
C63	C	0.188343	0.462499	-0.000049
C64	C	-0.323356	0.500704	0.060430
C65	C	-0.367592	0.500686	0.060417
C66	C	-0.290860	0.424010	-0.060784
C67	C	-0.246628	0.424026	-0.060769
C68	C	-0.262881	0.462378	-0.000158
O69	O	-0.144043	0.391459	-0.112237
O70	O	-0.285968	0.533338	0.111975
C71	C	-0.053518	0.500786	0.060494
C72	C	0.006961	0.462457	-0.000099
C73	C	0.023204	0.424115	-0.060702
C74	C	0.051199	0.462467	-0.000087
C75	C	0.034955	0.500810	0.060516
C76	C	-0.025526	0.539143	0.121106
C77	C	-0.069761	0.539129	0.121097
C78	C	0.083685	0.385782	-0.121292
C79	C	0.127918	0.385798	-0.121277
C80	C	0.111674	0.424141	-0.060675
C81	C	0.462753	0.323668	-0.000134
C82	C	0.462759	0.276573	-0.000144
C83	C	0.408516	0.011689	0.042771
C84	C	0.408505	-0.165297	0.042787
O85	O	0.362398	-0.165116	0.079267
N86	N	0.462719	-0.214548	-0.000073
C87	C	0.516939	-0.219552	-0.042936
O88	O	0.563051	-0.265504	-0.079384
C89	C	0.516949	-0.042567	-0.042947
C90	C	0.462732	0.006683	-0.000091
C91	C	0.354303	0.060937	0.085624
C92	C	0.354306	0.105180	0.085616
C93	C	0.408522	0.100175	0.042754
C94	C	0.462735	0.050927	-0.000099
C95	C	0.571168	-0.047572	-0.085804
C96	C	0.571166	-0.003321	-0.085801
C97	C	0.516949	0.045930	-0.042945
C98	C	0.516954	0.090165	-0.042968
N99	N	0.462740	0.139416	-0.000108
C100	C	0.408524	0.144421	0.042753
C101	C	0.516930	-0.312469	-0.042928
C102	C	0.516928	-0.356715	-0.042927
C103	C	0.408494	-0.302457	0.042797
C104	C	0.408497	-0.258210	0.042790
C105	C	0.462716	-0.263218	-0.000068
C106	C	0.408535	0.237333	0.042732
C107	C	0.408543	0.281578	0.042717
C108	C	0.516976	0.227316	-0.043003
C109	C	0.516969	0.183075	-0.042992
C110	C	0.462743	0.188087	-0.000118
O111	O	0.563037	0.090024	-0.079421
O112	O	0.362420	0.190378	0.079210
C113	C	0.408513	-0.032555	0.042779
C114	C	0.462725	-0.081803	-0.000074
C115	C	0.516941	-0.086809	-0.042936
C116	C	0.462723	-0.126049	-0.000073
C117	C	0.408507	-0.121044	0.042788
C118	C	0.354294	-0.071793	0.085648
C119	C	0.354297	-0.027550	0.085640
C120	C	0.571155	-0.136060	-0.085796
C121	C	0.571147	-0.180301	-0.085785
C122	C	0.516931	-0.175296	-0.042924
C123	C	0.601542	0.462366	-0.000165
C124	C	0.648652	0.462344	-0.000186
C125	C	0.462741	0.462433	-0.219440
C126	C	0.462743	0.462434	-0.293880
C127	C	0.462718	0.601195	-0.000075
C128	C	0.462712	0.648290	-0.000066
C129	C	0.462730	0.500753	-0.465127
C130	C	0.462726	0.500753	-0.535067
C131	C	0.462739	0.424108	-0.535076
C132	C	0.462738	0.424110	-0.465134
C133	C	0.462737	0.462432	-0.430164
C134	C	0.462734	0.462430	-0.570046
C135	C	0.462729	0.462431	-0.645878
C136	C	0.462740	0.462433	-0.354326
C137	C	0.462730	0.462430	0.219230
C138	C	0.462728	0.462429	0.293670
C139	C	0.323911	0.601260	-0.000015
C140	C	0.276796	0.648377	0.000016
C141	C	0.323924	0.462495	0.219291
C142	C	0.276812	0.462517	0.293752
C143	C	0.323906	0.601258	0.219320
C144	C	0.276789	0.648375	0.293791
C145	C	0.601565	0.323604	-0.219529
C146	C	0.648682	0.276488	-0.294000
C147	C	0.601559	0.323603	-0.000195
C148	C	0.648675	0.276485	-0.000225
C149	C	0.601547	0.462368	-0.219500
C150	C	0.648659	0.462346	-0.293961
C151	C	0.254674	0.643408	-0.042813
C152	C	0.210410	0.687676	-0.042800
C153	C	0.188266	0.736912	0.000045
C154	C	0.210391	0.741880	0.042875
C155	C	0.254658	0.697613	0.042857
C156	C	0.254684	0.489623	0.371562
C157	C	0.210424	0.489641	0.441532
C158	C	0.188290	0.462556	0.433691
C159	C	0.210423	0.435447	0.355873
C160	C	0.254685	0.435426	0.285904
C161	C	0.254659	0.697603	0.285939
C162	C	0.210394	0.741878	0.355906
C163	C	0.188255	0.736925	0.433723
C164	C	0.210389	0.687692	0.441573
C165	C	0.254657	0.643417	0.371607
C166	C	0.670817	0.227260	-0.286149
C167	C	0.715096	0.182985	-0.356115
C168	C	0.737237	0.187938	-0.433932
C169	C	0.715101	0.237171	-0.441782
C170	C	0.670825	0.281445	-0.371817
C171	C	0.670801	0.281455	0.042596
C172	C	0.715077	0.237187	0.042564
C173	C	0.737224	0.187951	-0.000284
C174	C	0.715096	0.182983	-0.043110
C175	C	0.670823	0.227250	-0.043083
C176	C	0.670778	0.489436	-0.286093
C177	C	0.715039	0.489426	-0.356050
C178	C	0.737182	0.462322	-0.433874
C179	C	0.715058	0.435231	-0.441740
C180	C	0.670795	0.435245	-0.371784
H181	H	-0.336598	0.531934	0.109784
O182	O	0.358293	0.382827	-0.125982
H183	H	0.386332	0.389269	-0.115796
H184	H	0.652773	0.321541	0.077493
H185	H	0.615319	-0.007404	-0.120692
O186	O	0.186502	0.794988	0.089084
H187	H	0.209321	0.791013	0.118861
O188	O	0.186550	0.682306	-0.088993
H189	H	0.195055	0.701153	-0.136349
H190	H	-0.171468	0.570328	0.170429
H191	H	0.462728	0.531958	-0.436655
H192	H	0.192408	0.511719	0.504888
O193	O	0.646960	0.221883	-0.089269
H194	H	0.612456	0.260932	-0.082062
H195	H	0.122852	0.532055	0.109907
H196	H	0.652757	0.511508	-0.222731
H197	H	0.462741	0.392906	-0.563557
H198	H	0.462719	0.531958	-0.563532
O199	O	0.738898	0.518645	-0.347558
H200	H	0.716069	0.537485	-0.281688
O201	O	0.278554	0.518835	0.380029
H202	H	0.255730	0.537679	0.445896
O203	O	0.186542	0.406238	0.347427
H204	H	0.209365	0.387380	0.281566
O205	O	0.140539	0.462590	0.509160
H206	H	0.128867	0.485998	0.564581
H207	H	0.192377	0.781962	0.349500
H208	H	0.462742	0.392904	-0.436663
H209	H	0.272704	0.603322	-0.077713
O210	O	0.784994	0.140179	-0.509387
H211	H	0.768018	0.140205	-0.546325
H212	H	0.773223	0.462315	-0.490831
O213	O	0.140504	0.784682	0.509181
H214	H	0.100168	0.784673	0.546131
H215	H	0.096920	0.354559	-0.170644
O216	O	0.198816	0.542217	0.125931
H217	H	0.239742	0.535784	0.115747
H218	H	0.192357	0.683666	0.504941
H219	H	0.652803	0.321528	-0.378219
H220	H	0.272663	0.701666	0.077738
O221	O	0.295819	0.066347	0.131852
H222	H	0.293207	0.047497	0.179206
O223	O	0.575407	-0.409832	-0.089161
H224	H	0.578007	-0.431289	-0.136509
H225	H	0.733093	0.413164	-0.505114
O226	O	0.140516	0.784656	0.000069
H227	H	0.128853	0.772923	-0.036906
H228	H	0.561117	0.142972	-0.077899
O229	O	0.060444	0.344414	-0.186691
H230	H	0.082422	0.362851	-0.221597
O231	O	0.350064	0.334701	0.088944
H232	H	0.312366	0.330744	0.118755
O233	O	0.278468	0.406272	0.201979
H234	H	0.255604	0.387477	0.208291
O235	O	0.738964	0.129887	-0.347640
H236	H	0.730481	0.108431	-0.377470
H237	H	0.364380	0.241422	0.077645
O238	O	0.738929	0.242552	0.088772
H239	H	0.759079	0.264042	0.064033
H240	H	0.733134	0.142889	-0.077996
O241	O	0.738979	0.242511	-0.525715
H242	H	0.773479	0.203451	-0.573040
H243	H	0.177165	0.354578	-0.170624
H244	H	0.773273	0.151910	-0.000300
H245	H	0.272678	0.701646	0.222583
H246	H	0.652790	0.413182	-0.378201
O247	O	0.278511	0.590321	0.380079
H248	H	0.255669	0.594321	0.445947
O249	O	0.646944	0.221911	-0.202221
H250	H	0.669786	0.180238	-0.208530
O251	O	0.575451	0.221921	-0.089330
H252	H	0.566339	0.260964	-0.082160
O253	O	-0.031506	0.344396	-0.186715
H254	H	-0.049817	0.322293	-0.157608
O255	O	-0.432826	0.542039	0.125773
H256	H	-0.442722	0.540170	0.186854
O257	O	-0.267699	0.580443	0.186413
H258	H	-0.271552	0.607109	0.228541
O259	O	0.629629	-0.233421	-0.132019
H260	H	0.632219	-0.254875	-0.088777
O261	O	0.266351	0.382807	-0.126013
H262	H	0.293241	0.344166	-0.123040
O263	O	-0.181392	0.382684	-0.126124
H264	H	-0.177531	0.356021	-0.168268
H265	H	-0.119006	0.570343	0.170442
O266	O	-0.273351	0.382664	-0.126153
H267	H	-0.291667	0.360564	-0.097045
O268	O	-0.043038	0.580502	0.186462
H269	H	-0.024702	0.562082	0.221378
O270	O	0.295829	0.158298	0.131842
H271	H	0.269835	0.162813	0.197684
O272	O	0.350021	-0.205091	0.089018
H273	H	0.312325	-0.209050	0.118823
H274	H	0.364349	-0.298388	0.077692
H275	H	0.561085	-0.316555	-0.077835
O276	O	0.629646	-0.100686	-0.132027
H277	H	0.655633	-0.105193	-0.107277
O278	O	0.295820	0.025569	0.131864
H279	H	0.269824	0.030086	0.197706
O280	O	0.295816	-0.066397	0.131880
H281	H	0.304929	-0.105440	0.124685
H282	H	0.615305	-0.140143	-0.120701
