data_functionalizedCrystal
_audit_creation_method	'MofGen! by Chris Wilmer'
_symmetry_space_group_name_H-M	'P1'
_symmetry_Int_Tables_number	1
_symmetry_cell_setting	triclinic
loop_
_symmetry_equiv_pos_as_xyz
  x,y,z
_cell_length_a	8.559649
_cell_length_b	9.798715
_cell_length_c	10.723023
_cell_angle_alpha	89.997861
_cell_angle_beta	102.876894
_cell_angle_gamma	90.003279
loop_
_atom_site_label
_atom_site_type_symbol
_atom_site_fract_x
_atom_site_fract_y
_atom_site_fract_z
O1	O	2.119663	0.113469	0.042290
O2	O	1.655165	0.113475	-0.022085
O3	O	1.898129	0.113466	0.192777
O4	O	1.876699	0.113478	-0.172572
O5	O	1.898111	-0.113516	0.192776
O6	O	1.655146	-0.113507	-0.022086
O7	O	2.119645	-0.113513	0.042289
Zn8	Zn	1.887393	-0.149548	0.010101
Zn9	Zn	1.887417	0.149510	0.010103
O10	O	1.876681	-0.113504	-0.172574
C11	C	1.595679	-0.000015	-0.026964
C12	C	1.418458	-0.000012	-0.041486
N13	N	1.887388	-0.353648	0.010102
C14	C	1.989402	-0.421429	0.100668
C15	C	1.989428	-0.578592	0.100675
C16	C	2.179130	-0.000020	0.047168
C17	C	2.356351	-0.000014	0.061689
C18	C	1.896561	-0.000023	0.239116
C19	C	1.891895	-0.000019	0.377192
N20	N	1.887434	0.353610	0.010113
C21	C	1.878249	-0.000012	-0.218913
C22	C	1.882914	-0.000007	-0.356989
C23	C	1.884984	-0.117593	0.581458
C24	C	1.889806	-0.117600	0.438749
H25	H	1.438759	-0.000010	0.161132
H26	H	1.800063	-0.411969	-0.067427
H27	H	1.800097	-0.588110	-0.067433
N28	N	2.105135	-0.655790	0.203380
H29	H	2.043280	-0.715090	0.252533
H30	H	2.173169	-0.588856	0.263723
N31	N	1.882621	-0.250943	0.651588
H32	H	1.879522	-0.232035	0.743596
H33	H	1.982168	-0.304992	0.648553
N34	N	1.892182	-0.250957	0.368650
H35	H	1.895295	-0.232060	0.276641
H36	H	1.792638	-0.305022	0.371683
N37	N	1.309333	-0.000013	-0.173233
H38	H	1.239459	0.084128	-0.183988
H39	H	1.239555	-0.084212	-0.183894
H40	H	2.076717	-0.363110	0.178205
N41	N	1.889566	0.133351	0.447282
H42	H	1.788981	0.138820	0.481542
H43	H	1.891694	0.211724	0.386510
N44	N	1.885214	0.133319	0.572832
H45	H	1.985783	0.138777	0.538548
H46	H	1.883083	0.211739	0.633549
