data_functionalizedCrystal
_audit_creation_method	'MofGen! by Chris Wilmer'
_symmetry_space_group_name_H-M	'P1'
_symmetry_Int_Tables_number	1
_symmetry_cell_setting	triclinic
loop_
_symmetry_equiv_pos_as_xyz
  x,y,z
_cell_length_a	13.897449
_cell_length_b	13.897448
_cell_length_c	13.897441
_cell_angle_alpha	90.030599
_cell_angle_beta	90.023394
_cell_angle_gamma	90.018519
loop_
_atom_site_label
_atom_site_type_symbol
_atom_site_fract_x
_atom_site_fract_y
_atom_site_fract_z
Zn1	Zn	1.474703	-0.383963	0.545450
Zn2	Zn	1.474597	-0.545285	0.384151
Zn3	Zn	1.313392	-0.384007	0.384161
Zn4	Zn	1.313373	-0.545220	0.545396
O5	O	1.394016	-0.464619	0.464789
O6	O	1.609670	-0.405371	0.524071
O7	O	1.453176	-0.523937	0.249171
O8	O	1.334842	-0.249020	0.405582
O9	O	1.609592	-0.523893	0.405566
O10	O	1.453356	-0.248987	0.524081
O11	O	1.334739	-0.405447	0.249178
O12	O	1.178408	-0.405384	0.405530
O13	O	1.334811	-0.523783	0.680385
O14	O	1.178394	-0.523826	0.523990
O15	O	1.453339	-0.405308	0.680424
O16	O	1.453158	-0.680258	0.405514
O17	O	1.334708	-0.680210	0.523980
C18	C	1.143402	-0.464604	0.464756
C19	C	1.036188	-0.464621	0.464764
C20	C	1.393946	-0.715233	0.464761
C21	C	1.394004	-0.822447	0.464782
C22	C	0.949118	-0.464624	0.464780
C23	C	0.839886	-0.464631	0.464810
C24	C	1.394105	-1.018742	0.464842
C25	C	1.394046	-0.909510	0.464812
C26	C	1.645609	-0.464634	0.464824
C27	C	1.752823	-0.464641	0.464838
C28	C	1.394085	-0.464533	0.716382
C29	C	1.394114	-0.464497	0.823596
C30	C	1.394113	-0.213026	0.464839
C31	C	1.394154	-0.105812	0.464859
C32	C	1.394003	-0.464634	0.214175
C33	C	1.394161	-0.464399	0.106962
C34	C	1.394140	-0.464432	1.019892
C35	C	1.394122	-0.464471	0.910659
