data_functionalizedCrystal
_audit_creation_method	'MofGen! by Chris Wilmer'
_symmetry_space_group_name_H-M	'P1'
_symmetry_Int_Tables_number	1
_symmetry_cell_setting	triclinic
loop_
_symmetry_equiv_pos_as_xyz
  x,y,z
_cell_length_a	12.645331
_cell_length_b	17.077402
_cell_length_c	12.645324
_cell_angle_alpha	90.037373
_cell_angle_beta	89.978020
_cell_angle_gamma	89.978138
loop_
_atom_site_label
_atom_site_type_symbol
_atom_site_fract_x
_atom_site_fract_y
_atom_site_fract_z
Zn1	Zn	1.620686	0.312471	-0.599404
Zn2	Zn	1.620553	0.443763	-0.422127
Zn3	Zn	1.443402	0.312513	-0.422149
Zn4	Zn	1.443366	0.443696	-0.599342
O5	O	1.532002	0.378111	-0.510755
O6	O	1.769015	0.329897	-0.575905
O7	O	1.597014	0.426398	-0.273782
O8	O	1.466990	0.202660	-0.445697
O9	O	1.768918	0.426357	-0.445660
O10	O	1.597239	0.202629	-0.575926
O11	O	1.466862	0.329969	-0.273798
O12	O	1.295050	0.329904	-0.445637
O13	O	1.466928	0.426243	-0.747698
O14	O	1.295024	0.426284	-0.575820
O15	O	1.597204	0.329832	-0.747743
O16	O	1.596979	0.553601	-0.445599
O17	O	1.466800	0.553552	-0.575799
C18	C	1.531900	0.582059	-0.510713
C19	C	1.531953	0.669308	-0.510730
C20	C	1.256572	0.378092	-0.510725
C21	C	1.138742	0.378103	-0.510737
C22	C	1.532077	0.378026	-0.787261
C23	C	1.532109	0.377990	-0.905091
C24	C	0.971160	0.317191	-0.429290
C25	C	1.093719	0.317349	-0.428931
C26	C	1.094212	0.460797	-0.480211
C27	C	0.971614	0.460464	-0.479655
C28	C	0.971594	0.357107	-0.623024
C29	C	1.094200	0.355260	-0.622400
C30	C	1.808507	0.378130	-0.510787
C31	C	1.926337	0.378138	-0.510800
C32	C	1.532134	0.173366	-0.510821
C33	C	1.532190	0.086117	-0.510849
C34	C	1.599806	0.710298	-0.443008
C35	C	1.599858	0.792278	-0.443035
C36	C	1.532050	0.833268	-0.510780
C37	C	1.464194	0.792272	-0.578509
C38	C	1.464148	0.710293	-0.578487
C39	C	1.464292	0.963142	-0.578550
C40	C	1.464336	1.045127	-0.578571
C41	C	1.600002	1.045127	-0.443098
C42	C	1.599956	0.963148	-0.443076
C43	C	1.532098	0.922159	-0.510804
C44	C	1.614083	0.317324	-0.950002
C45	C	1.614435	0.317483	-1.072562
C46	C	1.562054	0.460752	-1.072961
C47	C	1.562618	0.460422	-0.950363
C48	C	1.420046	0.356572	-0.950264
C49	C	1.420678	0.354726	-1.072872
C50	C	1.531988	0.378139	-0.235326
C51	C	1.532162	0.377954	-0.117496
H52	H	1.123827	0.256028	-0.448066
H53	H	1.409141	1.078498	-0.633754
H54	H	1.408897	0.676920	-0.633634
H55	H	1.408988	0.825652	-0.633673
H56	H	0.941963	0.507412	-0.536434
H57	H	1.124852	0.396412	-0.686380
H58	H	1.697488	0.331671	-1.101901
H59	H	1.356381	0.395658	-1.103455
H60	H	1.409038	0.929771	-0.633705
H61	H	1.123375	0.507421	-0.537715
H62	H	1.655165	0.929775	-0.387908
H63	H	1.644524	0.478537	-0.921776
H64	H	1.655018	0.676930	-0.387838
H65	H	1.655110	0.825649	-0.387888
H66	H	0.941703	0.255686	-0.448220
H67	H	0.940311	0.330938	-0.346617
H68	H	1.398127	0.293793	-1.101984
H69	H	1.655258	1.078505	-0.387955
H70	H	1.696649	0.331351	-0.919205
H71	H	1.505463	0.507161	-0.920649
H72	H	0.942967	0.478298	-0.397614
H73	H	0.942609	0.401498	-0.683756
H74	H	1.358975	0.400754	-0.921215
H75	H	1.122997	0.331250	-0.345769
H76	H	1.123311	0.294407	-0.645418
H77	H	1.595758	0.256099	-1.102676
H78	H	1.595627	0.255755	-0.920554
H79	H	0.940704	0.297859	-0.650783
H80	H	1.124866	0.478937	-0.399050
H81	H	1.504192	0.507177	-1.102061
H82	H	1.643060	0.479181	-1.103699
H83	H	1.392733	0.297237	-0.919355
