data_functionalizedCrystal
_audit_creation_method	'MofGen! by Chris Wilmer'
_symmetry_space_group_name_H-M	'P1'
_symmetry_Int_Tables_number	1
_symmetry_cell_setting	triclinic
loop_
_symmetry_equiv_pos_as_xyz
  x,y,z
_cell_length_a	12.811457
_cell_length_b	10.540510
_cell_length_c	11.295483
_cell_angle_alpha	94.138442
_cell_angle_beta	91.289320
_cell_angle_gamma	84.277158
loop_
_atom_site_label
_atom_site_type_symbol
_atom_site_fract_x
_atom_site_fract_y
_atom_site_fract_z
O1	O	1.390307	0.175362	0.051125
O2	O	1.087181	0.191143	0.018388
O3	O	1.245676	-0.001432	0.035505
O4	O	1.231812	0.367937	0.034007
O5	O	1.231755	0.015456	0.232053
O6	O	1.073260	0.208031	0.214935
O7	O	1.376386	0.192250	0.247672
Cu8	Cu	1.223552	0.201683	0.249250
Cu9	Cu	1.240015	0.181711	0.016810
O10	O	1.217891	0.384825	0.230555
C11	C	1.041405	0.198185	0.112469
C12	C	0.925750	0.193993	0.099979
C13	C	0.693242	0.204505	0.290807
C14	C	0.584573	0.200566	0.279076
C15	C	0.599741	0.182167	0.064789
C16	C	0.708410	0.186106	0.076519
C17	C	0.755156	0.197277	0.189532
C18	C	0.863827	0.201225	0.201261
C19	C	0.878993	0.182818	-0.013026
C20	C	0.770324	0.178879	-0.024756
C21	C	1.237682	-0.040295	0.133665
C22	C	1.234592	-0.181257	0.133324
C23	C	1.344666	-0.398283	0.145666
C24	C	1.347995	-0.251714	0.145573
C25	C	1.184490	-0.235865	0.014819
C26	C	1.182002	-0.382642	0.014462
C27	C	1.163810	-0.363254	0.237718
C28	C	1.169084	-0.216767	0.239776
C29	C	1.422162	0.185208	0.153588
C30	C	1.537818	0.189399	0.166071
C31	C	1.225885	0.423688	0.132392
C32	C	1.228976	0.564649	0.132726
N33	N	1.211980	0.215729	0.412737
N34	N	1.251595	0.167654	-0.146676
C35	C	1.334895	0.066469	0.675301
C36	C	1.326158	0.077093	0.799021
C37	C	1.185763	0.247595	0.783898
C38	C	1.194500	0.236970	0.660178
C39	C	1.269070	0.146406	0.605884
C40	C	1.277812	0.135789	0.482163
C41	C	1.137413	0.306283	0.467042
C42	C	1.128675	0.316907	0.590762
H43	H	0.901885	0.210328	0.293282
H44	H	0.561662	0.173051	-0.027221
H45	H	1.083816	0.371377	0.410508
H46	H	0.731302	0.213617	0.382826
H47	H	1.395620	-0.007264	0.631095
H48	H	1.230721	-0.212042	-0.064353
H49	H	1.399388	-0.230071	0.069913
C50	C	1.396652	-0.445391	0.260850
H51	H	1.348274	-0.488100	0.302080
H52	H	1.416848	-0.374422	0.309589
H53	H	1.456899	-0.502740	0.241943
C54	C	1.411666	-0.466118	0.043952
H55	H	1.369440	-0.516928	-0.006369
H56	H	1.468026	-0.519165	0.076044
H57	H	1.438851	-0.404100	-0.000589
C58	C	0.516446	0.208721	0.390472
H59	H	0.445025	0.204827	0.367303
H60	H	0.523803	0.287066	0.435510
H61	H	0.538464	0.139335	0.437322
H62	H	1.067959	0.390640	0.634982
H63	H	0.732248	0.169778	-0.116768
C64	C	1.243627	-0.446531	-0.093079
H65	H	1.242649	-0.536619	-0.094248
H66	H	1.314110	-0.425756	-0.087227
H67	H	1.212125	-0.416643	-0.164114
C68	C	0.947100	0.174877	-0.124433
H69	H	1.018516	0.178820	-0.101264
H70	H	0.924999	0.244323	-0.171167
H71	H	0.939814	0.096575	-0.169587
H72	H	1.379758	0.011999	0.855537
H73	H	1.387718	-0.215296	0.230931
H74	H	1.097544	-0.406375	0.000216
H75	H	1.101300	-0.189131	0.001629
H76	H	1.193822	-0.397998	0.326685
H77	H	1.205444	-0.180871	0.327369
H78	H	1.085811	-0.167412	0.237612
C79	C	1.048718	-0.393493	0.226322
H80	H	1.040374	-0.449775	0.157952
H81	H	1.004469	-0.316507	0.219058
H82	H	1.030315	-0.432883	0.294919
C83	C	1.359838	0.036183	0.422435
H84	H	1.355625	0.041311	0.338810
H85	H	1.346476	-0.046979	0.441420
H86	H	1.428026	0.052784	0.450218
C87	C	1.103743	0.347201	0.843636
H88	H	1.107973	0.342078	0.927261
H89	H	1.035555	0.330619	0.815858
H90	H	1.117116	0.430368	0.824657
