data_functionalizedCrystal
_audit_creation_method	'MofGen! by Chris Wilmer'
_symmetry_space_group_name_H-M	'P1'
_symmetry_Int_Tables_number	1
_symmetry_cell_setting	triclinic
loop_
_symmetry_equiv_pos_as_xyz
  x,y,z
_cell_length_a	6.394984
_cell_length_b	11.026607
_cell_length_c	9.482900
_cell_angle_alpha	101.363848
_cell_angle_beta	99.608195
_cell_angle_gamma	82.459316
loop_
_atom_site_label
_atom_site_type_symbol
_atom_site_fract_x
_atom_site_fract_y
_atom_site_fract_z
O1	O	0.853986	-1.642127	-0.120890
O2	O	0.753811	-1.287290	-0.120892
O3	O	0.501730	-1.469748	-0.120887
O4	O	1.106068	-1.459669	-0.120895
O5	O	0.553196	-1.432691	0.120905
O6	O	0.805278	-1.250233	0.120899
O7	O	0.905453	-1.605069	0.120902
Cu8	Cu	0.860064	-1.424267	0.142978
Cu9	Cu	0.799200	-1.468092	-0.142968
O10	O	1.157534	-1.422611	0.120896
C11	C	0.761064	-1.223268	0.000003
C12	C	0.705973	-1.087712	0.000002
C13	C	1.448892	-1.449214	0.000013
C14	C	1.210369	-1.443140	0.000011
C15	C	0.898199	-1.669092	0.000003
C16	C	0.953288	-1.804649	-0.000005
N17	N	0.902876	-1.393452	0.344097
N18	N	0.756375	-1.498916	-0.344088
C19	C	0.858087	-1.016232	-0.000001
C20	C	0.801152	-0.876128	-0.000002
C21	C	0.811813	-1.458994	0.416298
C22	C	0.847452	-1.433365	0.583715
H23	H	0.628752	-0.833613	-0.000037
H24	H	1.125683	-0.847166	0.000002
O25	O	0.631306	-1.588215	0.581804
C26	C	0.458659	-1.533816	0.494019
H27	H	0.502361	-1.443287	0.471240
H28	H	0.312920	-1.513679	0.552857
C29	C	0.354228	-1.735074	0.377392
C30	C	0.407911	-1.623890	0.349405
H31	H	0.322915	-1.790636	0.288190
H32	H	0.470538	-1.771724	0.436538
H33	H	0.232785	-1.718276	0.426428
H34	H	0.529366	-1.640687	0.300387
H35	H	0.291619	-1.587244	0.290247
H36	H	0.707455	-1.534077	0.354172
H37	H	1.007214	-1.318361	0.406225
H38	H	1.030470	-1.058757	0.000005
O39	O	0.971673	-1.343699	0.657976
C40	C	0.849731	-1.253058	0.746011
H41	H	0.708181	-1.295456	0.768652
H42	H	0.789474	-1.171511	0.687459
C43	C	1.162989	-1.154856	0.862877
C44	C	0.989145	-1.206933	0.890696
H45	H	1.248986	-1.126399	0.952123
H46	H	1.245144	-1.215919	0.803563
H47	H	1.112748	-1.086907	0.814081
H48	H	1.039387	-1.274890	0.939475
H49	H	0.907002	-1.145880	0.950022
H50	H	0.533585	-1.045192	-0.000033
