data_functionalizedCrystal
_audit_creation_method	'MofGen! by Chris Wilmer'
_symmetry_space_group_name_H-M	'P1'
_symmetry_Int_Tables_number	1
_symmetry_cell_setting	triclinic
loop_
_symmetry_equiv_pos_as_xyz
  x,y,z
_cell_length_a	19.288864
_cell_length_b	10.540539
_cell_length_c	17.766277
_cell_angle_alpha	89.995823
_cell_angle_beta	89.976791
_cell_angle_gamma	83.830869
loop_
_atom_site_label
_atom_site_type_symbol
_atom_site_fract_x
_atom_site_fract_y
_atom_site_fract_z
O1	O	0.922410	0.158345	-0.062832
O2	O	0.720292	0.179706	-0.062781
O3	O	0.825962	-0.015784	-0.062807
O4	O	0.816739	0.353835	-0.062806
O5	O	0.825943	-0.015794	0.062382
O6	O	0.720273	0.179696	0.062408
O7	O	0.922391	0.158335	0.062356
Cu8	Cu	0.821330	0.169015	0.073813
Cu9	Cu	0.821352	0.169026	-0.074237
O10	O	0.816721	0.353825	0.062382
C11	C	0.694401	0.179013	-0.000180
C12	C	0.617284	0.176950	-0.000160
C13	C	0.573353	0.291654	-0.000172
C14	C	0.500893	0.289716	-0.000180
C15	C	0.472367	0.173067	-0.000192
C16	C	0.516308	0.058347	-0.000176
C17	C	0.588766	0.060289	-0.000160
C18	C	0.363500	0.081371	-0.044076
C19	C	0.291042	0.079434	-0.044097
C20	C	0.248881	0.167074	-0.000237
C21	C	0.279185	0.256671	0.043633
C22	C	0.351644	0.258613	0.043649
C23	C	0.393799	0.170949	-0.000208
C24	C	0.126381	0.279684	-0.000257
C25	C	0.053919	0.277741	-0.000261
C26	C	0.069336	0.046369	-0.000264
C27	C	0.141795	0.048315	-0.000253
C28	C	0.170313	0.164976	-0.000253
C29	C	0.825261	-0.063076	-0.000214
C30	C	0.823192	-0.203978	-0.000217
C31	C	0.743903	-0.385638	-0.000478
C32	C	0.746000	-0.239067	-0.000197
C33	C	0.860329	-0.266470	0.071262
C34	C	0.857694	-0.412955	0.071323
C35	C	0.859286	-0.413497	-0.071040
C36	C	0.859997	-0.266531	-0.071986
C37	C	0.948281	0.159027	-0.000246
C38	C	1.025399	0.161091	-0.000271
C39	C	0.817422	0.401117	-0.000212
C40	C	0.819491	0.542019	-0.000214
N41	N	0.821320	0.169006	0.177943
N42	N	0.821368	0.169025	-0.178368
C43	C	0.868126	0.082485	0.217318
C44	C	0.868130	0.082479	0.296120
C45	C	0.821334	0.169016	0.335544
C46	C	0.774519	0.255543	0.296159
C47	C	0.774512	0.255538	0.217359
C48	C	0.812807	0.284670	0.460383
C49	C	0.812819	0.284676	0.539182
C50	C	0.821353	0.169031	0.578590
C51	C	0.829889	0.053373	0.539189
C52	C	0.829882	0.053368	0.460389
C53	C	0.821337	0.169030	0.420989
C54	C	0.868166	0.082497	0.703411
C55	C	0.868165	0.082489	0.782214
C56	C	0.774558	0.255564	0.782252
C57	C	0.774555	0.255560	0.703450
C58	C	0.821363	0.169028	0.664034
H59	H	0.465117	0.383125	-0.000187
N60	N	0.707292	-0.181752	-0.068064
H61	H	0.688709	-0.251693	-0.098433
H62	H	0.667211	-0.118827	-0.050920
N63	N	0.918605	-0.010853	0.174809
H64	H	0.911501	0.002271	0.118913
H65	H	0.967947	0.003593	0.188556
N66	N	0.931225	-0.478147	0.075605
H67	H	0.965205	-0.411687	0.077449
H68	H	0.936505	-0.532582	0.122461
N69	N	0.703659	-0.424740	0.067059
H70	H	0.700457	-0.519707	0.065300
H71	H	0.728422	-0.402800	0.114629
H72	H	0.805873	0.378851	0.571256
H73	H	0.177565	-0.045090	-0.000247
H74	H	0.736396	0.325994	0.185298
H75	H	0.716558	-0.196659	0.051142
N76	N	0.803604	0.409410	0.417882
H77	H	0.798205	0.482675	0.454797
H78	H	0.845833	0.416616	0.385166
N79	N	0.038577	-0.079446	-0.000280
H80	H	0.077406	-0.151819	-0.000273
H81	H	0.008825	-0.085294	0.046124
N82	N	0.918664	-0.010819	0.824682
H83	H	0.910238	-0.100881	0.810979
H84	H	0.967999	0.003719	0.810915
H85	H	0.397822	0.010002	-0.079796
H86	H	0.917016	-0.245379	0.073906
H87	H	0.624535	-0.033120	-0.000151
N88	N	0.824052	-0.211487	-0.142028
H89	H	0.858421	-0.169162	-0.173786
H90	H	0.805554	-0.282166	-0.171830
N91	N	0.258359	-0.017194	-0.091413
H92	H	0.296062	-0.072430	-0.119187
H93	H	0.231902	-0.072421	-0.057774
H94	H	0.713418	-0.413555	-0.051736
N95	N	0.604112	0.417476	-0.000177
H96	H	0.565282	0.489847	-0.000188
H97	H	0.633815	0.423331	0.046236
N98	N	0.724078	0.348891	0.824762
H99	H	0.750893	0.404978	0.857440
H100	H	0.694438	0.403615	0.787807
H101	H	0.493077	-0.036629	-0.000196
H102	H	0.834311	-0.444489	-0.125218
N103	N	0.384331	0.355235	0.090965
H104	H	0.346633	0.410464	0.118749
H105	H	0.417485	0.309322	0.128431
H106	H	0.244859	0.328035	0.079348
N107	N	0.918636	-0.010872	0.660908
H108	H	0.891807	-0.066947	0.628237
H109	H	0.949625	0.037548	0.628233
H110	H	0.830232	-0.440547	0.124769
N111	N	0.826151	-0.209278	0.141744
H112	H	0.786618	-0.142907	0.127536
H113	H	0.807364	-0.278699	0.172393
H114	H	0.916276	-0.243564	-0.076317
H115	H	0.736444	0.326019	0.671388
N116	N	0.933140	-0.477691	-0.071702
H117	H	0.940814	-0.535312	-0.026371
H118	H	0.941185	-0.529950	-0.119160
N119	N	0.918614	-0.010845	0.338602
H120	H	0.948263	-0.065665	0.301675
H121	H	0.949557	0.037619	0.371276
H122	H	0.149601	0.374676	-0.000246
H123	H	0.018151	0.371151	-0.000266
N124	N	0.839085	-0.071364	0.417891
H125	H	0.844493	-0.144630	0.454807
H126	H	0.796852	-0.078577	0.385221
N127	N	0.839097	-0.071371	0.581680
H128	H	0.837804	-0.053824	0.637578
H129	H	0.800223	-0.124055	0.567928
H130	H	0.736416	0.326000	0.328261
