data_functionalizedCrystal
_audit_creation_method	'MofGen! by Chris Wilmer'
_symmetry_space_group_name_H-M	'P1'
_symmetry_Int_Tables_number	1
_symmetry_cell_setting	triclinic
loop_
_symmetry_equiv_pos_as_xyz
  x,y,z
_cell_length_a	21.395362
_cell_length_b	15.297327
_cell_length_c	15.296720
_cell_angle_alpha	107.319222
_cell_angle_beta	99.639462
_cell_angle_gamma	99.725883
loop_
_atom_site_label
_atom_site_type_symbol
_atom_site_fract_x
_atom_site_fract_y
_atom_site_fract_z
Zn1	Zn	0.831457	-0.460955	-0.590193
Zn2	Zn	0.831386	-0.589576	-0.461587
Zn3	Zn	0.748613	-0.434110	-0.434675
Zn4	Zn	0.704737	-0.616460	-0.616977
O5	O	0.779048	-0.525275	-0.525858
O6	O	0.919121	-0.478001	-0.573187
O7	O	0.838738	-0.546468	-0.327901
O8	O	0.777995	-0.307528	-0.432833
O9	O	0.919069	-0.572498	-0.478701
O10	O	0.838860	-0.327251	-0.547091
O11	O	0.777926	-0.432247	-0.308129
O12	O	0.655120	-0.458315	-0.458804
O13	O	0.703214	-0.618317	-0.743540
O14	O	0.622884	-0.592287	-0.592740
O15	O	0.796315	-0.504068	-0.723862
O16	O	0.796194	-0.723285	-0.504672
O17	O	0.703145	-0.743037	-0.618836
C18	C	0.616269	-0.525306	-0.525759
C19	C	0.546625	-0.525345	-0.525742
C20	C	0.744915	-0.766909	-0.567601
C21	C	0.730365	-0.870286	-0.585490
C22	C	0.497145	-0.595168	-0.595407
C23	C	0.431707	-0.595152	-0.595445
C24	C	0.415752	-0.525321	-0.525802
C25	C	0.465243	-0.455486	-0.456131
C26	C	0.530679	-0.455498	-0.456101
C27	C	0.324896	-0.503356	-0.440799
C28	C	0.259460	-0.503350	-0.440828
C29	C	0.213926	-0.525278	-0.525894
C30	C	0.233832	-0.547231	-0.610936
C31	C	0.299268	-0.547243	-0.610906
C32	C	0.344800	-0.525299	-0.525827
C33	C	0.093489	-0.595087	-0.595606
C34	C	0.028050	-0.595065	-0.595644
C35	C	0.061588	-0.455403	-0.456322
C36	C	0.127025	-0.455421	-0.456292
C37	C	0.142971	-0.525268	-0.525933
C38	C	0.883250	-1.120459	-0.398320
C39	C	0.896920	-1.023330	-0.381508
C40	C	0.855283	-0.985064	-0.432502
C41	C	0.799972	-1.043937	-0.500311
C42	C	0.786298	-1.141075	-0.517120
C43	C	0.758331	-1.005680	-0.551302
C44	C	0.703020	-1.064553	-0.619111
C45	C	0.689349	-1.161681	-0.635917
C46	C	0.730986	-1.199947	-0.584923
C47	C	0.772005	-0.908542	-0.534493
C48	C	0.675053	-0.929158	-0.653293
C49	C	0.661383	-1.026287	-0.670105
C50	C	0.942463	-0.525245	-0.525958
C51	C	1.012101	-0.525233	-0.526001
C52	C	0.744878	-0.567186	-0.768382
C53	C	0.730317	-0.585046	-0.871731
C54	C	0.813329	-0.282701	-0.483972
C55	C	0.827938	-0.179331	-0.466123
C56	C	0.883166	-0.397464	-1.122076
C57	C	0.896850	-0.380685	-1.024974
C58	C	0.855218	-0.431774	-0.986659
C59	C	0.799899	-0.499645	-1.045454
C60	C	0.786216	-0.516430	-1.142566
C61	C	0.758268	-0.550740	-1.007149
C62	C	0.702949	-0.618610	-1.065944
C63	C	0.689268	-0.635392	-1.163046
C64	C	0.730900	-0.584304	-1.201362
C65	C	0.771952	-0.533954	-0.910037
C66	C	0.675002	-0.652920	-0.930527
C67	C	0.661317	-0.669699	-1.027629
C68	C	0.813131	-0.483460	-0.284266
C69	C	0.827850	-0.465338	-0.180872
H70	H	0.510122	-0.652041	-0.652116
H71	H	0.196758	-0.565085	-0.680205
H72	H	0.361968	-0.485495	-0.371523
F73	F	0.379037	-0.669469	-0.669595
F74	F	0.716340	-0.602162	-1.304710
F75	F	0.955723	-0.308456	-0.962407
H76	H	0.315473	-0.565116	-0.680150
F77	F	0.602519	-1.088955	-0.742271
H78	H	0.917060	-0.355881	-1.153283
H79	H	0.817039	-0.860616	-0.479282
F80	F	0.869940	-0.881725	-0.414807
H81	H	0.941953	-0.975399	-0.326297
F82	F	0.448262	-0.381163	-0.382015
F83	F	0.110462	-0.669420	-0.669727
H84	H	0.570968	-0.398637	-0.399370
F85	F	0.869784	-0.413913	-0.883314
F86	F	-0.024612	-0.669380	-0.669799
H87	H	0.048599	-0.398541	-0.399621
H88	H	0.644228	-0.690665	-1.210917
H89	H	0.616275	-0.724960	-1.075513
F90	F	0.830825	-0.461723	-0.847473
F91	F	0.179688	-0.381107	-0.382141
H92	H	0.641102	-0.694522	-0.899332
H93	H	0.243258	-0.485480	-0.371583
H94	H	0.917142	-1.151624	-0.356802
H95	H	0.641148	-0.898003	-0.694815
H96	H	0.719860	-1.279037	-0.598610
F97	F	0.630480	-1.224335	-0.708082
