data_functionalizedCrystal
_audit_creation_method	'MofGen! by Chris Wilmer'
_symmetry_space_group_name_H-M	'P1'
_symmetry_Int_Tables_number	1
_symmetry_cell_setting	triclinic
loop_
_symmetry_equiv_pos_as_xyz
  x,y,z
_cell_length_a	25.639239
_cell_length_b	25.639243
_cell_length_c	21.395355
_cell_angle_alpha	90.027154
_cell_angle_beta	89.980666
_cell_angle_gamma	89.958634
loop_
_atom_site_label
_atom_site_type_symbol
_atom_site_fract_x
_atom_site_fract_y
_atom_site_fract_z
Zn1	Zn	-0.208174	-0.799283	-0.354301
Zn2	Zn	-0.295594	-0.799189	-0.249522
Zn3	Zn	-0.208178	-0.711842	-0.249533
Zn4	Zn	-0.295584	-0.711804	-0.354258
O5	O	-0.251883	-0.755529	-0.301904
O6	O	-0.219773	-0.872435	-0.340416
O7	O	-0.284003	-0.787579	-0.161846
O8	O	-0.135012	-0.723496	-0.263454
O9	O	-0.283999	-0.872367	-0.263435
O10	O	-0.135009	-0.787738	-0.340426
O11	O	-0.219780	-0.723405	-0.161854
O12	O	-0.219771	-0.638672	-0.263412
O13	O	-0.283983	-0.723432	-0.441941
O14	O	-0.283987	-0.638644	-0.340352
O15	O	-0.219763	-0.787702	-0.441973
O16	O	-0.368758	-0.787542	-0.263393
O17	O	-0.368751	-0.723341	-0.340342
C18	C	-0.251879	-0.619687	-0.301879
C19	C	-0.251890	-0.561573	-0.301883
C20	C	-0.218492	-0.201240	-0.342054
C21	C	-0.218491	-0.146636	-0.342058
O22	O	-0.190085	-0.118425	-0.376182
N23	N	-0.251881	-0.119290	-0.301920
C24	C	-0.285269	-0.146552	-0.261772
O25	O	-0.313668	-0.118279	-0.227632
C26	C	-0.285266	-0.201155	-0.261765
C27	C	-0.251878	-0.228498	-0.301910
C28	C	-0.185106	-0.228582	-0.382195
C29	C	-0.185108	-0.283183	-0.382191
C30	C	-0.218494	-0.310441	-0.342047
C31	C	-0.251880	-0.283098	-0.301907
C32	C	-0.318651	-0.228416	-0.221615
C33	C	-0.318646	-0.283023	-0.221611
C34	C	-0.285258	-0.310366	-0.261756
C35	C	-0.285268	-0.364957	-0.261760
N36	N	-0.251878	-0.392302	-0.301897
C37	C	-0.218492	-0.365044	-0.342041
C38	C	-0.285271	-0.031882	-0.261788
C39	C	-0.285276	0.022721	-0.261797
C40	C	-0.218498	0.022634	-0.342082
C41	C	-0.218496	-0.031970	-0.342076
C42	C	-0.251882	-0.059227	-0.301925
C43	C	-0.218497	-0.479709	-0.342032
C44	C	-0.218503	-0.534315	-0.342027
C45	C	-0.285279	-0.534223	-0.261740
C46	C	-0.285276	-0.479622	-0.261747
C47	C	-0.251880	-0.452367	-0.301895
O48	O	-0.313658	-0.393203	-0.227651
O49	O	-0.190092	-0.393324	-0.376169
C50	C	-0.387725	-0.755441	-0.301875
C51	C	-0.445839	-0.755452	-0.301884
C52	C	-0.806193	-0.789046	-0.261905
C53	C	-0.860797	-0.789067	-0.261913
O54	O	-0.889027	-0.817539	-0.227890
N55	N	-0.888122	-0.755621	-0.301945
C56	C	-0.860838	-0.722157	-0.341976
O57	O	-0.889094	-0.693712	-0.376028
C58	C	-0.806235	-0.722140	-0.341970
C59	C	-0.778914	-0.755584	-0.301931
C60	C	-0.778872	-0.822488	-0.221869
C61	C	-0.724271	-0.822467	-0.221860
C62	C	-0.696992	-0.789004	-0.261887
C63	C	-0.724313	-0.755563	-0.301922
C64	C	-0.778953	-0.688679	-0.382004
C65	C	-0.724346	-0.688665	-0.381995
C66	C	-0.697025	-0.722109	-0.341956
C67	C	-0.642434	-0.722079	-0.341939
N68	N	-0.615110	-0.755524	-0.301907
C69	C	-0.642389	-0.788987	-0.261881
C70	C	-0.975509	-0.722197	-0.341986
C71	C	-1.030111	-0.722211	-0.341989
C72	C	-1.030067	-0.789121	-0.261927
C73	C	-0.975463	-0.789104	-0.261921
C74	C	-0.948185	-0.755642	-0.301954
C75	C	-0.527724	-0.788940	-0.261865
C76	C	-0.473118	-0.788914	-0.261857
C77	C	-0.473168	-0.722006	-0.341921
C78	C	-0.527769	-0.722030	-0.341927
C79	C	-0.555045	-0.755501	-0.301896
O80	O	-0.614170	-0.693623	-0.375947
O81	O	-0.614127	-0.817433	-0.227841
C82	C	-0.115509	-0.755632	-0.301946
C83	C	-0.057395	-0.755676	-0.301964
C84	C	-0.251872	-0.755573	-0.465327
C85	C	-0.251867	-0.755591	-0.534968
C86	C	-0.251886	0.108098	-0.301929
C87	C	-0.251888	0.049984	-0.301939
C88	C	-0.218427	-0.789055	-0.567699
C89	C	-0.218404	-0.789055	-0.633135
C90	C	-0.251832	-0.755595	-0.665837
C91	C	-0.285275	-0.722125	-0.633098
C92	C	-0.285293	-0.722123	-0.567664
C93	C	-0.298909	-0.751437	-0.769501
C94	C	-0.298892	-0.751442	-0.834934
C95	C	-0.251777	-0.755599	-0.867658
C96	C	-0.204676	-0.759760	-0.834940
C97	C	-0.204694	-0.759758	-0.769506
C98	C	-0.251816	-0.755594	-0.736789
C99	C	-0.218309	-0.789064	-0.971341
C100	C	-0.218285	-0.789059	-1.036778
C101	C	-0.285161	-0.722132	-1.036740
C102	C	-0.285179	-0.722134	-0.971304
C103	C	-0.251754	-0.755602	-0.938609
C104	C	-0.251855	-0.755516	-0.139116
C105	C	-0.251713	-0.755599	-0.069475
H106	H	-0.191311	0.044837	-0.374768
H107	H	-0.337244	-0.748057	-0.861568
H108	H	-0.312490	-0.694880	-0.659728
H109	H	-0.191209	-0.816307	-0.541082
H110	H	-0.345839	-0.206163	-0.188924
H111	H	-0.191314	-0.556575	-0.374719
H112	H	-0.312463	-0.556426	-0.229057
O113	O	-0.182328	-0.825138	-0.668456
H114	H	-0.205720	-0.851716	-0.698291
O115	O	-1.059493	-0.825225	-0.218764
H116	H	-1.102052	-0.819621	-0.225506
H117	H	-0.953222	-0.816337	-0.229318
O118	O	-0.153851	-0.764243	-0.870219
H119	H	-0.128183	-0.731019	-0.857631
O120	O	-1.059574	-0.686130	-0.385166
H121	H	-1.102127	-0.691758	-0.378448
O122	O	-0.182483	-0.450316	-0.385336
H123	H	-0.159274	-0.478509	-0.413249
O124	O	-0.443653	-0.824995	-0.218676
H125	H	-0.401100	-0.819360	-0.225389
O126	O	-0.149087	-0.312671	-0.425478
H127	H	-0.125868	-0.284536	-0.453382
H128	H	-0.345832	-0.305213	-0.188914
O129	O	-0.321240	-0.686025	-0.936007
H130	H	-0.362276	-0.694950	-0.948563
H131	H	-0.191089	-0.816313	-0.944719
O132	O	-0.349729	-0.746947	-0.734208
H133	H	-0.382477	-0.744059	-0.767949
H134	H	-0.312523	-0.694870	-0.541015
H135	H	-0.312462	-0.054071	-0.229094
H136	H	-0.157916	-0.206395	-0.414885
O137	O	-0.182479	-0.061460	-0.385365
H138	H	-0.159263	-0.033327	-0.413275
H139	H	-0.312470	0.044978	-0.229115
O140	O	-0.443740	-0.685913	-0.385089
H141	H	-0.454193	-0.694863	-0.434275
O142	O	-0.321286	-0.450126	-0.218451
H143	H	-0.344500	-0.478256	-0.190535
H144	H	-0.549926	-0.816196	-0.229269
O145	O	-0.694806	-0.858546	-0.178685
H146	H	-0.722956	-0.881820	-0.150863
H147	H	-0.801077	-0.849740	-0.189275
H148	H	-0.953302	-0.694944	-0.374583
H149	H	-0.801189	-0.661443	-0.414605
O150	O	-0.182216	-0.825155	-1.072085
H151	H	-0.158982	-0.848430	-1.038354
O152	O	-0.694923	-0.652567	-0.425166
H153	H	-0.723099	-0.629313	-0.453000
O154	O	-0.557242	-0.685959	-0.385108
H155	H	-0.529097	-0.662688	-0.412941
H156	H	-0.166343	-0.763145	-0.742870
O157	O	-0.321216	-0.686042	-1.072000
H158	H	-0.315588	-0.691666	-1.123001
