data_functionalizedCrystal
_audit_creation_method	'MofGen! by Chris Wilmer'
_symmetry_space_group_name_H-M	'P1'
_symmetry_Int_Tables_number	1
_symmetry_cell_setting	triclinic
loop_
_symmetry_equiv_pos_as_xyz
  x,y,z
_cell_length_a	14.519709
_cell_length_b	10.654550
_cell_length_c	9.130313
_cell_angle_alpha	90.002181
_cell_angle_beta	90.006159
_cell_angle_gamma	84.082524
loop_
_atom_site_label
_atom_site_type_symbol
_atom_site_fract_x
_atom_site_fract_y
_atom_site_fract_z
O1	O	-1.224715	-0.164613	0.121605
O2	O	-0.956339	-0.184000	0.121649
O3	O	-1.096697	0.008492	0.121620
O4	O	-1.084356	-0.357105	0.121633
O5	O	-1.096697	0.008479	-0.121978
O6	O	-0.956338	-0.184013	-0.121950
O7	O	-1.224715	-0.164627	-0.121994
Cu8	Cu	-1.090527	-0.174321	-0.144215
Cu9	Cu	-1.090527	-0.174305	0.143869
O10	O	-1.084356	-0.357119	-0.121966
C11	C	-0.921974	-0.183103	-0.000145
C12	C	-0.819579	-0.180396	-0.000128
N13	N	-1.090533	-0.174331	-0.346837
C14	C	-1.259079	-0.165524	-0.000197
C15	C	-1.361475	-0.168231	-0.000205
C16	C	-0.444631	-0.170428	-0.000195
C17	C	-0.548954	-0.173196	-0.000176
C18	C	-0.632102	-0.175412	-0.000160
C19	C	-0.736431	-0.178180	-0.000144
C20	C	-1.095791	0.055275	-0.000177
C21	C	-1.093080	0.194692	-0.000172
C22	C	-1.085262	-0.403901	-0.000165
C23	C	-1.087973	-0.543318	-0.000161
C24	C	-1.175721	0.274972	-0.000190
C25	C	-1.173168	0.405968	-0.000179
C26	C	-1.005326	0.376391	-0.000138
C27	C	-1.007880	0.245397	-0.000138
C28	C	-1.272623	0.292049	-0.000219
C29	C	-1.270070	0.423046	-0.000209
C30	C	-1.028366	-0.259504	-0.576852
C31	C	-1.028367	-0.259525	-0.423515
C32	C	-1.152697	-0.089104	-0.423504
C33	C	-1.152692	-0.089078	-0.576838
C34	C	-0.956588	-0.357899	-0.576857
C35	C	-0.956588	-0.357919	-0.423520
N36	N	-1.090528	-0.174285	0.346492
H37	H	-0.940586	0.180037	-0.000103
H38	H	-0.979001	-0.448885	-0.624449
H39	H	-0.889626	-0.327989	-0.375937
O40	O	-1.213108	-0.006463	-0.651468
C41	C	-1.270445	-0.073870	-0.740172
H42	H	-1.234348	-0.172032	-0.763156
H43	H	-1.338661	-0.082607	-0.681104
C44	C	-1.334026	0.117464	-0.857583
C45	C	-1.289687	-0.003096	-0.885823
H46	H	-1.345900	0.161122	-0.947425
H47	H	-1.295400	0.162879	-0.797818
H48	H	-1.390868	0.110167	-0.808356
H49	H	-1.232842	0.004203	-0.935032
H50	H	-1.328305	-0.048508	-0.945600
H51	H	-0.972335	-0.454310	-0.381935
O52	O	-1.317697	0.257493	0.121537
C53	C	-1.270741	0.293476	0.247486
H54	H	-1.195453	0.303564	0.218774
H55	H	-1.305228	0.387535	0.289633
C56	C	-1.367033	0.179705	0.402185
C57	C	-1.274561	0.192085	0.366922
H58	H	-1.369393	0.117166	0.475862
H59	H	-1.398672	0.155466	0.317331
H60	H	-1.395762	0.258095	0.437299
H61	H	-1.245837	0.113701	0.331792
H62	H	-1.242918	0.216308	0.451773
O63	O	-1.313741	0.473378	-0.121688
C64	C	-1.388938	0.560166	-0.079431
H65	H	-1.411666	0.537019	0.036115
H66	H	-1.366935	0.659817	-0.081675
C67	C	-1.442186	0.580057	-0.328240
C68	C	-1.470106	0.551620	-0.186329
H69	H	-1.492253	0.574790	-0.394182
H70	H	-1.391522	0.521589	-0.356712
H71	H	-1.423849	0.663097	-0.330089
H72	H	-1.488430	0.468576	-0.184478
H73	H	-1.520774	0.610073	-0.157860
H74	H	-0.935959	0.417692	-0.000110
H75	H	-0.885714	-0.337067	-0.618442
O76	O	-1.309442	0.250075	-0.125793
C77	C	-1.400826	0.307190	-0.142589
H78	H	-1.429777	0.339089	-0.031070
H79	H	-1.400941	0.392358	-0.218196
C80	C	-1.425830	0.172262	-0.346419
C81	C	-1.461390	0.211431	-0.209447
H82	H	-1.463189	0.113197	-0.387665
H83	H	-1.364261	0.133785	-0.335107
H84	H	-1.425927	0.243245	-0.409407
H85	H	-1.461282	0.140451	-0.146456
H86	H	-1.522961	0.249894	-0.220749
H87	H	-1.299356	0.468976	0.104966
H88	H	-1.203309	-0.019729	-0.361063
