data_functionalizedCrystal
_audit_creation_method	'MofGen! by Chris Wilmer'
_symmetry_space_group_name_H-M	'P1'
_symmetry_Int_Tables_number	1
_symmetry_cell_setting	triclinic
loop_
_symmetry_equiv_pos_as_xyz
  x,y,z
_cell_length_a	19.288864
_cell_length_b	14.421503
_cell_length_c	19.288859
_cell_angle_alpha	89.997270
_cell_angle_beta	83.134986
_cell_angle_gamma	90.021309
loop_
_atom_site_label
_atom_site_type_symbol
_atom_site_fract_x
_atom_site_fract_y
_atom_site_fract_z
O1	O	0.921350	0.077408	0.086640
O2	O	0.719089	0.077345	0.098329
O3	O	0.826066	0.077373	-0.008646
O4	O	0.814373	0.077380	0.193615
O5	O	0.826049	-0.076850	-0.008634
O6	O	0.719072	-0.076878	0.098341
O7	O	0.921333	-0.076815	0.086652
Cu8	Cu	0.820201	-0.090929	0.092498
Cu9	Cu	0.820221	0.091459	0.092483
O10	O	0.814356	-0.076843	0.193627
C11	C	0.693204	0.000225	0.097959
C12	C	0.616101	0.000201	0.096830
N13	N	0.820192	-0.219210	0.092508
C14	C	0.571403	0.000218	0.159598
C15	C	0.498956	0.000228	0.158537
C16	C	0.471210	0.000240	0.094705
C17	C	0.515918	0.000218	0.031929
C18	C	0.588363	0.000198	0.032991
C19	C	0.362955	0.054301	0.044521
C20	C	0.290511	0.054326	0.043462
C21	C	0.247765	0.000296	0.091425
C22	C	0.277470	-0.053747	0.140461
C23	C	0.349916	-0.053767	0.141523
C24	C	0.392656	0.000260	0.093546
C25	C	0.124511	0.000322	0.153048
C26	C	0.052063	0.000327	0.151984
C27	C	0.069026	0.000326	0.025374
C28	C	0.141472	0.000312	0.026439
C29	C	0.169210	0.000315	0.090278
C30	C	0.771132	-0.530676	0.142358
C31	C	0.757278	-0.468856	0.079829
C32	C	0.820221	-0.591099	0.092480
C33	C	0.834028	-0.468825	0.155020
C34	C	0.820205	-0.408377	0.092497
C35	C	0.806336	-0.530639	0.029920
C36	C	0.883113	-0.530614	0.105152
C37	C	0.869286	-0.468822	0.042578
C38	C	0.820228	-0.696360	0.092471
C39	C	0.820198	-0.303118	0.092499
C40	C	0.947218	0.000307	0.087022
C41	C	1.024322	0.000337	0.088151
C42	C	0.825682	0.000262	-0.034516
C43	C	0.824555	0.000263	-0.111620
N44	N	0.820236	0.219740	0.092468
C45	C	0.879698	0.000305	-0.675661
C46	C	0.880764	0.000297	-0.603215
C47	C	0.817994	0.000278	-0.558508
C48	C	0.754155	0.000242	-0.586253
C49	C	0.753092	0.000241	-0.658698
C50	C	0.771187	0.054293	-0.437238
C51	C	0.772254	0.054300	-0.364795
C52	C	0.821272	0.000278	-0.335062
C53	C	0.869236	-0.053739	-0.377783
C54	C	0.868173	-0.053741	-0.450229
C55	C	0.819141	0.000279	-0.479952
C56	C	0.886262	0.000298	-0.228770
C57	C	0.887325	0.000284	-0.156322
C58	C	0.760715	0.000239	-0.139362
C59	C	0.759654	0.000243	-0.211809
C60	C	0.822430	0.000277	-0.256509
C61	C	0.814740	0.000270	0.219498
C62	C	0.815868	0.000275	0.296602
H63	H	0.462556	0.000239	0.209652
O64	O	0.691065	0.000383	-0.685612
C65	C	0.652813	0.080230	-0.662736
H66	H	0.690149	0.136069	-0.647782
H67	H	0.623403	0.107034	-0.706533
H68	H	0.613957	0.062154	-0.615397
H69	H	0.937378	0.000325	-0.265167
O70	O	0.721536	-0.562926	0.192627
C71	C	0.686378	-0.487463	0.227481
H72	H	0.691740	-0.423785	0.192225
H73	H	0.628757	-0.505372	0.240819
H74	H	0.710205	-0.472210	0.277584
H75	H	0.794589	-0.557678	-0.022973
H76	H	0.845722	-0.441691	0.207905
H77	H	0.374099	-0.097774	0.181447
O78	O	0.693872	-0.436435	0.066925
C79	C	0.701822	-0.382639	0.005448
H80	H	0.751903	-0.403705	-0.028320
H81	H	0.655273	-0.394586	-0.024732
H82	H	0.704716	-0.306128	0.019685
O83	O	0.697629	0.000390	-0.238722
C84	C	0.659379	0.080239	-0.215849
H85	H	0.696716	0.136079	-0.200899
H86	H	0.629967	0.107040	-0.259645
H87	H	0.620524	0.062167	-0.168508
H88	H	0.930816	0.000327	-0.712052
H89	H	0.910795	-0.441836	0.000360
H90	H	0.593982	0.000221	0.211580
H91	H	0.932744	0.000321	-0.580626
O92	O	0.949395	0.000351	-0.129492
C93	C	1.004570	0.000358	-0.184484
H94	H	0.985255	0.029551	-0.233639
H95	H	1.049152	0.045152	-0.169483
H96	H	1.023919	-0.073622	-0.194797
O97	O	0.946525	-0.562969	0.118081
C98	C	0.960894	-0.531511	0.184087
H99	H	0.909816	-0.514187	0.217630
H100	H	0.989457	-0.588083	0.210656
H101	H	0.995029	-0.466826	0.177348
H102	H	0.242667	-0.097744	0.179517
O103	O	0.151345	0.000274	0.215118
C104	C	0.096354	0.000305	0.270294
H105	H	0.047187	-0.028883	0.250980
H106	H	0.111338	-0.044475	0.314877
H107	H	0.086071	0.074295	0.289641
O108	O	0.914786	-0.106300	-0.491624
C109	C	0.958294	-0.153965	-0.449856
H110	H	0.930708	-0.160500	-0.394414
H111	H	0.970221	-0.226055	-0.472426
H112	H	1.009133	-0.113886	-0.448952
H113	H	0.909147	-0.097736	-0.353577
H114	H	0.709607	0.000215	-0.102962
O115	O	0.725595	0.106791	-0.323397
C116	C	0.682106	0.154478	-0.365173
H117	H	0.681432	0.116266	-0.416823
H118	H	0.626826	0.157943	-0.336793
H119	H	0.702891	0.227783	-0.375682
H120	H	0.731262	0.098277	-0.461439
H121	H	0.177866	0.000304	-0.024674
O122	O	0.693162	0.000064	-0.542857
C123	C	0.654377	-0.079813	-0.555405
H124	H	0.691119	-0.135630	-0.580277
H125	H	0.626359	-0.106629	-0.503912
H126	H	0.614290	-0.061773	-0.592170
H127	H	0.397754	0.098304	0.005462
O128	O	0.489050	0.000357	-0.030121
C129	C	0.511935	0.080235	-0.068371
H130	H	0.562137	0.106847	-0.049603
H131	H	0.522163	0.062269	-0.126245
H132	H	0.470013	0.136180	-0.060198
H133	H	0.015670	0.000335	0.203100
O134	O	0.041967	0.000381	-0.036573
C135	C	-0.031561	0.000375	-0.024053
H136	H	-0.048732	0.029574	0.030204
H137	H	-0.053659	0.045159	-0.064888
H138	H	-0.051749	-0.073608	-0.027351
H139	H	0.624757	0.000185	-0.018124
O140	O	0.261774	0.106841	-0.004236
C141	C	0.315035	0.154531	-0.046338
H142	H	0.366647	0.116307	-0.045489
H143	H	0.301550	0.158019	-0.102233
H144	H	0.319974	0.227828	-0.025339
